# generated using pymatgen
data_Ca2Al2SiO7
_symmetry_space_group_name_H-M   'P 1'
_cell_length_a   15.46084271
_cell_length_b   15.46299321
_cell_length_c   15.28548992
_cell_angle_alpha   89.98148323
_cell_angle_beta   90.00705228
_cell_angle_gamma   89.99016054
_symmetry_Int_Tables_number   1
_chemical_formula_structural   Ca2Al2SiO7
_chemical_formula_sum   'Ca48 Al48 Si24 O168'
_cell_volume   3654.31565011
_cell_formula_units_Z   24
loop_
 _symmetry_equiv_pos_site_id
 _symmetry_equiv_pos_as_xyz
  1  'x, y, z'
loop_
 _atom_type_symbol
 _atom_type_oxidation_number
  Ca2+  2.0
  Al0+  0.0
  Si0+  0.0
  O2-  -2.0
loop_
 _atom_site_type_symbol
 _atom_site_label
 _atom_site_symmetry_multiplicity
 _atom_site_fract_x
 _atom_site_fract_y
 _atom_site_fract_z
 _atom_site_occupancy
  Ca2+  Ca0  1  0.16298618  0.07661212  0.16445522  1
  Ca2+  Ca1  1  0.17564996  0.07762578  0.50942984  1
  Ca2+  Ca2  1  0.17160015  0.07723779  0.84284098  1
  Ca2+  Ca3  1  0.16961599  0.58487194  0.16946592  1
  Ca2+  Ca4  1  0.17613184  0.59276697  0.50411008  1
  Ca2+  Ca5  1  0.16921269  0.58558271  0.84038591  1
  Ca2+  Ca6  1  0.66816514  0.08650166  0.17416899  1
  Ca2+  Ca7  1  0.67258121  0.08001037  0.50831093  1
  Ca2+  Ca8  1  0.66708691  0.07655320  0.83503774  1
  Ca2+  Ca9  1  0.66800745  0.58565973  0.17142348  1
  Ca2+  Ca10  1  0.66314797  0.58224228  0.50667450  1
  Ca2+  Ca11  1  0.67623729  0.59996688  0.83752399  1
  Ca2+  Ca12  1  0.08467378  0.32842646  0.15592241  1
  Ca2+  Ca13  1  0.07941382  0.33116966  0.49836601  1
  Ca2+  Ca14  1  0.08928158  0.33062512  0.83455723  1
  Ca2+  Ca15  1  0.07902786  0.82422706  0.15706355  1
  Ca2+  Ca16  1  0.08359974  0.82113633  0.49806928  1
  Ca2+  Ca17  1  0.08061920  0.82688473  0.83439837  1
  Ca2+  Ca18  1  0.58421841  0.32640777  0.16242109  1
  Ca2+  Ca19  1  0.58617895  0.32906388  0.49071783  1
  Ca2+  Ca20  1  0.58078533  0.32876086  0.83656685  1
  Ca2+  Ca21  1  0.57702536  0.82247668  0.15782842  1
  Ca2+  Ca22  1  0.58373274  0.82632071  0.50250143  1
  Ca2+  Ca23  1  0.57659548  0.82692302  0.82830608  1
  Ca2+  Ca24  1  0.33182457  0.41881606  0.16724285  1
  Ca2+  Ca25  1  0.33557729  0.43316414  0.50347700  1
  Ca2+  Ca26  1  0.33068646  0.42301315  0.84024111  1
  Ca2+  Ca27  1  0.32774047  0.90523194  0.16292039  1
  Ca2+  Ca28  1  0.33688441  0.92043380  0.50929071  1
  Ca2+  Ca29  1  0.33454863  0.91544393  0.83857724  1
  Ca2+  Ca30  1  0.82684564  0.42432006  0.16826623  1
  Ca2+  Ca31  1  0.82289857  0.42165915  0.50393726  1
  Ca2+  Ca32  1  0.83197680  0.43114641  0.83771082  1
  Ca2+  Ca33  1  0.83612449  0.92116059  0.16888282  1
  Ca2+  Ca34  1  0.82513562  0.92599905  0.50830400  1
  Ca2+  Ca35  1  0.82788829  0.91143231  0.83669846  1
  Ca2+  Ca36  1  0.42978302  0.17363669  0.15547069  1
  Ca2+  Ca37  1  0.42287060  0.16637873  0.49574817  1
  Ca2+  Ca38  1  0.41462751  0.17041667  0.83255892  1
  Ca2+  Ca39  1  0.42689122  0.66359286  0.16120064  1
  Ca2+  Ca40  1  0.42077674  0.66735146  0.49705447  1
  Ca2+  Ca41  1  0.42090965  0.67647026  0.82393303  1
  Ca2+  Ca42  1  0.91922258  0.16796109  0.15997607  1
  Ca2+  Ca43  1  0.90886557  0.16430059  0.49538455  1
  Ca2+  Ca44  1  0.92188790  0.16393032  0.83080543  1
  Ca2+  Ca45  1  0.92499901  0.66930554  0.15485536  1
  Ca2+  Ca46  1  0.92713441  0.65793623  0.49894984  1
  Ca2+  Ca47  1  0.92455220  0.66155704  0.82979692  1
  Al0+  Al48  1  0.00164015  0.00011355  -0.00316155  1
  Al0+  Al49  1  0.00058823  -0.00009901  0.33972035  1
  Al0+  Al50  1  0.00143650  -0.00000399  0.66704517  1
  Al0+  Al51  1  0.00007692  0.49909002  0.00617826  1
  Al0+  Al52  1  0.00034968  0.49735694  0.32895931  1
  Al0+  Al53  1  -0.00222300  0.49639203  0.66355159  1
  Al0+  Al54  1  0.50213998  0.00013116  -0.00391064  1
  Al0+  Al55  1  0.49924534  -0.00030183  0.32862375  1
  Al0+  Al56  1  0.50023995  0.00146657  0.67122968  1
  Al0+  Al57  1  0.50287960  0.49726031  -0.00760243  1
  Al0+  Al58  1  0.49862623  0.50042035  0.33733177  1
  Al0+  Al59  1  0.49744156  0.49806406  0.66934991  1
  Al0+  Al60  1  0.25087847  0.25060448  -0.00174894  1
  Al0+  Al61  1  0.24853785  0.24963066  0.33475518  1
  Al0+  Al62  1  0.24969544  0.24907391  0.66656663  1
  Al0+  Al63  1  0.24992239  0.75059341  -0.00034290  1
  Al0+  Al64  1  0.24783060  0.74980823  0.33389529  1
  Al0+  Al65  1  0.24972775  0.75059542  0.66299115  1
  Al0+  Al66  1  0.75102406  0.25133351  -0.00477754  1
  Al0+  Al67  1  0.75047712  0.25198217  0.33614838  1
  Al0+  Al68  1  0.75086230  0.25062977  0.67147419  1
  Al0+  Al69  1  0.75109427  0.75340353  0.00299077  1
  Al0+  Al70  1  0.75127652  0.75229239  0.33178275  1
  Al0+  Al71  1  0.75020468  0.75063020  0.66860504  1
  Al0+  Al72  1  0.31975239  0.57200402  0.68148442  1
  Al0+  Al73  1  0.57121967  0.17963316  0.32204726  1
  Al0+  Al74  1  0.67962296  0.43199367  0.34545727  1
  Al0+  Al75  1  0.81974551  0.07034050  0.34523048  1
  Al0+  Al76  1  0.92950228  0.82249208  0.98543201  1
  Al0+  Al77  1  0.07020341  0.67829633  0.31818693  1
  Al0+  Al78  1  0.82251335  0.07261587  0.68447639  1
  Al0+  Al79  1  0.82016902  0.56952634  0.67826554  1
  Al0+  Al80  1  0.07043898  0.17937423  0.98717280  1
  Al0+  Al81  1  0.18033234  0.42864769  0.01349268  1
  Al0+  Al82  1  0.81938167  0.57311014  0.01491437  1
  Al0+  Al83  1  0.67946798  0.92897941  0.68318536  1
  Al0+  Al84  1  0.07017534  0.67644173  0.98535050  1
  Al0+  Al85  1  0.06910460  0.67727661  0.65251121  1
  Al0+  Al86  1  0.42832665  0.32079996  0.98428800  1
  Al0+  Al87  1  0.32098305  0.07178404  0.68064569  1
  Al0+  Al88  1  0.31861206  0.57045711  0.34587740  1
  Al0+  Al89  1  0.57170860  0.67784276  0.65094767  1
  Al0+  Al90  1  0.42805730  0.81943505  0.98567156  1
  Al0+  Al91  1  0.17950778  0.92894527  0.01417649  1
  Al0+  Al92  1  0.57275017  0.67755031  0.98592763  1
  Al0+  Al93  1  0.42911938  0.82287709  0.65040015  1
  Al0+  Al94  1  0.57115628  0.67832864  0.32059964  1
  Al0+  Al95  1  0.57422679  0.17828975  0.98295149  1
  Si0+  Si96  1  0.82365259  0.57361518  0.34893654  1
  Si0+  Si97  1  0.82100186  0.07190819  0.01453188  1
  Si0+  Si98  1  0.92772853  0.82359262  0.64832720  1
  Si0+  Si99  1  0.07161407  0.17831479  0.65014741  1
  Si0+  Si100  1  0.42694610  0.82277172  0.31657384  1
  Si0+  Si101  1  0.42598920  0.32010916  0.64923011  1
  Si0+  Si102  1  0.67852346  0.42638537  0.01654430  1
  Si0+  Si103  1  0.17740817  0.42793754  0.68147624  1
  Si0+  Si104  1  0.67589733  0.42715397  0.68495102  1
  Si0+  Si105  1  0.67521572  0.92729540  0.34930450  1
  Si0+  Si106  1  0.32332066  0.07198282  0.01833779  1
  Si0+  Si107  1  0.07159660  0.17783934  0.31958318  1
  Si0+  Si108  1  0.92993391  0.82438049  0.31843068  1
  Si0+  Si109  1  0.92880413  0.31937573  0.31738538  1
  Si0+  Si110  1  0.57127509  0.18189648  0.65175793  1
  Si0+  Si111  1  0.67815597  0.93060024  0.01814139  1
  Si0+  Si112  1  0.92810709  0.31878018  0.64996213  1
  Si0+  Si113  1  0.42663425  0.32206040  0.31862993  1
  Si0+  Si114  1  0.92843068  0.32247157  0.98234529  1
  Si0+  Si115  1  0.17582400  0.42493977  0.35130841  1
  Si0+  Si116  1  0.32387773  0.57188723  0.01526400  1
  Si0+  Si117  1  0.17866778  0.92748073  0.68363498  1
  Si0+  Si118  1  0.32164167  0.07219739  0.34654724  1
  Si0+  Si119  1  0.17969541  0.93003397  0.34969288  1
  O2-  O120  1  0.25657321  0.00137858  0.06330218  1
  O2-  O121  1  0.25302841  -0.00041694  0.39032686  1
  O2-  O122  1  0.24851019  -0.00460330  0.72654821  1
  O2-  O123  1  0.25438108  0.50381165  0.06036140  1
  O2-  O124  1  0.24241032  0.49603466  0.39362180  1
  O2-  O125  1  0.24232840  0.49910728  0.72593210  1
  O2-  O126  1  0.74862901  0.00378759  0.05899570  1
  O2-  O127  1  0.74343183  -0.00223294  0.39196582  1
  O2-  O128  1  0.75407028  -0.00154334  0.73470869  1
  O2-  O129  1  0.74170936  0.50033682  0.06053529  1
  O2-  O130  1  0.74968852  0.51077470  0.39329726  1
  O2-  O131  1  0.73873220  0.50242942  0.72626157  1
  O2-  O132  1  0.00142396  0.24899450  0.27669589  1
  O2-  O133  1  -0.00320769  0.24496760  0.60698561  1
  O2-  O134  1  -0.00193193  0.25484235  0.93819366  1
  O2-  O135  1  -0.00812601  0.74999157  0.27398985  1
  O2-  O136  1  -0.00636647  0.75166259  0.60448039  1
  O2-  O137  1  -0.00302966  0.74669278  0.93510830  1
  O2-  O138  1  0.49466100  0.25234291  0.27542827  1
  O2-  O139  1  0.50077901  0.25257720  0.60744353  1
  O2-  O140  1  0.49895746  0.24731276  0.93398715  1
  O2-  O141  1  0.49718684  0.75447677  0.27486217  1
  O2-  O142  1  0.49863809  0.74862415  0.59980959  1
  O2-  O143  1  0.49664407  0.74469614  0.93620950  1
  O2-  O144  1  0.06672602  0.17947073  0.10113716  1
  O2-  O145  1  0.07242994  0.17907641  0.42485856  1
  O2-  O146  1  0.07353320  0.18117052  0.75468928  1
  O2-  O147  1  0.06936262  0.67867294  0.09934140  1
  O2-  O148  1  0.07028198  0.68025792  0.43163963  1
  O2-  O149  1  0.06807527  0.67556036  0.76481726  1
  O2-  O150  1  0.57559220  0.18114315  0.09728388  1
  O2-  O151  1  0.56967290  0.18052978  0.43551492  1
  O2-  O152  1  0.57156056  0.18461182  0.75628757  1
  O2-  O153  1  0.57122565  0.67920204  0.10040482  1
  O2-  O154  1  0.56997951  0.67861936  0.43322768  1
  O2-  O155  1  0.57075183  0.68017372  0.76386995  1
  O2-  O156  1  0.17665827  0.42004029  0.24627687  1
  O2-  O157  1  0.17892602  0.42523347  0.57549940  1
  O2-  O158  1  0.18090855  0.42837355  0.90033149  1
  O2-  O159  1  0.17745334  0.93141821  0.24483204  1
  O2-  O160  1  0.17751083  0.93114765  0.57711192  1
  O2-  O161  1  0.17837475  0.93234196  0.90148095  1
  O2-  O162  1  0.68309569  0.42914609  0.23276787  1
  O2-  O163  1  0.67939142  0.42251443  0.57888303  1
  O2-  O164  1  0.68299502  0.42103627  0.91140714  1
  O2-  O165  1  0.67556743  0.92794065  0.24379019  1
  O2-  O166  1  0.68007230  0.93296031  0.56865704  1
  O2-  O167  1  0.67879843  0.93046053  0.91355958  1
  O2-  O168  1  0.42903765  0.31940512  0.09860461  1
  O2-  O169  1  0.42602647  0.31946909  0.42456877  1
  O2-  O170  1  0.42322236  0.31790306  0.75366067  1
  O2-  O171  1  0.43042638  0.81846544  0.10009448  1
  O2-  O172  1  0.42632572  0.82594634  0.42183874  1
  O2-  O173  1  0.42853660  0.82203396  0.76330170  1
  O2-  O174  1  0.92654892  0.31908002  0.08841618  1
  O2-  O175  1  0.92942910  0.31937556  0.42277747  1
  O2-  O176  1  0.92995984  0.32059787  0.75451443  1
  O2-  O177  1  0.93188822  0.82375626  0.09978018  1
  O2-  O178  1  0.93305578  0.82771847  0.42384232  1
  O2-  O179  1  0.93085486  0.82568758  0.75341071  1
  O2-  O180  1  0.31952757  0.07541516  0.24214190  1
  O2-  O181  1  0.31806982  0.07321078  0.56634853  1
  O2-  O182  1  0.32014728  0.07255793  0.91277827  1
  O2-  O183  1  0.31887624  0.56816062  0.23292575  1
  O2-  O184  1  0.31933871  0.56964869  0.56783710  1
  O2-  O185  1  0.32129593  0.57091931  0.90980947  1
  O2-  O186  1  0.82241287  0.06986643  0.23199434  1
  O2-  O187  1  0.81865583  0.07354104  0.57028259  1
  O2-  O188  1  0.82085571  0.07138636  0.90996362  1
  O2-  O189  1  0.82481515  0.57022177  0.24358918  1
  O2-  O190  1  0.82309275  0.56336928  0.56487455  1
  O2-  O191  1  0.82077203  0.56974128  0.90172021  1
  O2-  O192  1  0.04296662  0.08556927  0.27404470  1
  O2-  O193  1  0.04909802  0.08508509  0.60249153  1
  O2-  O194  1  0.03860820  0.08550061  0.93058810  1
  O2-  O195  1  0.04544635  0.57910662  0.26649375  1
  O2-  O196  1  0.03818334  0.58008357  0.59773920  1
  O2-  O197  1  0.04300791  0.57667810  0.93544247  1
  O2-  O198  1  0.54307345  0.08313629  0.26634922  1
  O2-  O199  1  0.54313524  0.09004646  0.60556712  1
  O2-  O200  1  0.54845283  0.07987148  0.93119074  1
  O2-  O201  1  0.53881463  0.58148369  0.26767867  1
  O2-  O202  1  0.54418849  0.57636059  0.60230839  1
  O2-  O203  1  0.55725187  0.57663946  0.93496349  1
  O2-  O204  1  0.16359256  0.20428616  0.27180072  1
  O2-  O205  1  0.16141454  0.21085938  0.60009898  1
  O2-  O206  1  0.16674967  0.20859125  0.93344436  1
  O2-  O207  1  0.16563421  0.71305787  0.26496662  1
  O2-  O208  1  0.16410221  0.71151463  0.59710174  1
  O2-  O209  1  0.16852784  0.70574220  0.93496518  1
  O2-  O210  1  0.66734072  0.21309639  0.26879828  1
  O2-  O211  1  0.66407789  0.21048906  0.60559759  1
  O2-  O212  1  0.67084579  0.20972005  0.92847913  1
  O2-  O213  1  0.66985230  0.70630302  0.26827417  1
  O2-  O214  1  0.67138103  0.70610793  0.59882365  1
  O2-  O215  1  0.66929729  0.71362975  0.93619391  1
  O2-  O216  1  0.08347238  0.45422998  0.07020440  1
  O2-  O217  1  0.08054965  0.44794181  0.39563142  1
  O2-  O218  1  0.08187628  0.44759235  0.72489388  1
  O2-  O219  1  0.08428005  0.96520233  0.06929741  1
  O2-  O220  1  0.09056950  0.96094634  0.40074329  1
  O2-  O221  1  0.08583171  0.95504459  0.72900745  1
  O2-  O222  1  0.58218232  0.44465133  0.05963988  1
  O2-  O223  1  0.58211266  0.45524022  0.40117716  1
  O2-  O224  1  0.57971980  0.44277387  0.72791269  1
  O2-  O225  1  0.58621194  0.95815476  0.06594794  1
  O2-  O226  1  0.58077381  0.95209558  0.39404703  1
  O2-  O227  1  0.58326609  0.96148878  0.73689612  1
  O2-  O228  1  0.21131492  0.33175432  0.06893076  1
  O2-  O229  1  0.20174791  0.33164618  0.39985378  1
  O2-  O230  1  0.20634918  0.33530586  0.72751694  1
  O2-  O231  1  0.20910245  0.83235461  0.07056713  1
  O2-  O232  1  0.20590429  0.83819372  0.39732188  1
  O2-  O233  1  0.20229879  0.83375444  0.72792414  1
  O2-  O234  1  0.71154924  0.33483266  0.06457096  1
  O2-  O235  1  0.71577141  0.33798795  0.40283201  1
  O2-  O236  1  0.70972108  0.33740712  0.73336032  1
  O2-  O237  1  0.70806187  0.84095423  0.06871414  1
  O2-  O238  1  0.70329352  0.83478476  0.39682082  1
  O2-  O239  1  0.70592171  0.83053579  0.73602873  1
  O2-  O240  1  0.45253998  0.41500988  0.27336653  1
  O2-  O241  1  0.45165973  0.41284624  0.60301348  1
  O2-  O242  1  0.45704566  0.41687628  0.92741144  1
  O2-  O243  1  0.44932851  0.91630208  0.26828660  1
  O2-  O244  1  0.45879451  0.92285332  0.59920943  1
  O2-  O245  1  0.45671331  0.91809739  0.93479582  1
  O2-  O246  1  0.95530514  0.41032521  0.26794054  1
  O2-  O247  1  0.95842952  0.40745459  0.59758391  1
  O2-  O248  1  0.95537074  0.41571425  0.93811566  1
  O2-  O249  1  0.96248009  0.91612770  0.27159888  1
  O2-  O250  1  0.95709738  0.91664823  0.60089796  1
  O2-  O251  1  0.96052760  0.91854956  0.93055978  1
  O2-  O252  1  0.33206717  0.29683038  0.27369071  1
  O2-  O253  1  0.33591988  0.28853799  0.59975574  1
  O2-  O254  1  0.33089006  0.29248925  0.92998089  1
  O2-  O255  1  0.33308238  0.79565294  0.27225542  1
  O2-  O256  1  0.32972069  0.79758291  0.59699375  1
  O2-  O257  1  0.32858059  0.79725987  0.93362983  1
  O2-  O258  1  0.83855650  0.28968415  0.26899914  1
  O2-  O259  1  0.83552616  0.29167677  0.60251526  1
  O2-  O260  1  0.83679950  0.29623354  0.93378289  1
  O2-  O261  1  0.83383204  0.80750580  0.27417898  1
  O2-  O262  1  0.83310650  0.80162384  0.60366577  1
  O2-  O263  1  0.82944008  0.79943898  0.93615129  1
  O2-  O264  1  0.41890717  0.04887537  0.06167974  1
  O2-  O265  1  0.41429813  0.04551171  0.39348454  1
  O2-  O266  1  0.41779350  0.04760135  0.73495254  1
  O2-  O267  1  0.41852711  0.54319930  0.05845388  1
  O2-  O268  1  0.41319012  0.53817272  0.40310146  1
  O2-  O269  1  0.41487304  0.53823162  0.73589753  1
  O2-  O270  1  0.91267025  0.04276664  0.06172297  1
  O2-  O271  1  0.91606270  0.04088125  0.40217045  1
  O2-  O272  1  0.92449041  0.04976651  0.73158965  1
  O2-  O273  1  0.91387535  0.53766098  0.07088177  1
  O2-  O274  1  0.91557924  0.53957683  0.39447334  1
  O2-  O275  1  0.91413318  0.52990921  0.73248801  1
  O2-  O276  1  0.29469629  0.16459295  0.06437588  1
  O2-  O277  1  0.29225798  0.16297561  0.39653866  1
  O2-  O278  1  0.28563616  0.16689790  0.73456699  1
  O2-  O279  1  0.29941463  0.66526070  0.06197131  1
  O2-  O280  1  0.28701724  0.66694832  0.40060773  1
  O2-  O281  1  0.28995651  0.66958159  0.73234994  1
  O2-  O282  1  0.79550436  0.16566647  0.06027726  1
  O2-  O283  1  0.79133581  0.16714805  0.39996923  1
  O2-  O284  1  0.79435549  0.17086720  0.73725089  1
  O2-  O285  1  0.79231521  0.67018401  0.07035932  1
  O2-  O286  1  0.80670441  0.67031498  0.39161039  1
  O2-  O287  1  0.79921067  0.66839846  0.73058704  1
