# generated using pymatgen
data_Ca2Al2SiO7
_symmetry_space_group_name_H-M   'P 1'
_cell_length_a   15.46424177
_cell_length_b   15.46393480
_cell_length_c   15.28789687
_cell_angle_alpha   89.99304377
_cell_angle_beta   89.99283470
_cell_angle_gamma   90.01493225
_symmetry_Int_Tables_number   1
_chemical_formula_structural   Ca2Al2SiO7
_chemical_formula_sum   'Ca48 Al48 Si24 O168'
_cell_volume   3655.91730663
_cell_formula_units_Z   24
loop_
 _symmetry_equiv_pos_site_id
 _symmetry_equiv_pos_as_xyz
  1  'x, y, z'
loop_
 _atom_type_symbol
 _atom_type_oxidation_number
  Ca2+  2.0
  Al0+  0.0
  Si0+  0.0
  O2-  -2.0
loop_
 _atom_site_type_symbol
 _atom_site_label
 _atom_site_symmetry_multiplicity
 _atom_site_fract_x
 _atom_site_fract_y
 _atom_site_fract_z
 _atom_site_occupancy
  Ca2+  Ca0  1  0.17442213  0.07283343  0.17764305  1
  Ca2+  Ca1  1  0.16735397  0.07129243  0.50557733  1
  Ca2+  Ca2  1  0.16363237  0.07403099  0.83493556  1
  Ca2+  Ca3  1  0.17015337  0.59135386  0.16370583  1
  Ca2+  Ca4  1  0.17204824  0.57812298  0.51410961  1
  Ca2+  Ca5  1  0.17311533  0.59304570  0.83363340  1
  Ca2+  Ca6  1  0.67588444  0.08437891  0.17047363  1
  Ca2+  Ca7  1  0.67261872  0.09135964  0.50389872  1
  Ca2+  Ca8  1  0.67527262  0.08636241  0.83562860  1
  Ca2+  Ca9  1  0.67488904  0.58474332  0.16535002  1
  Ca2+  Ca10  1  0.67819523  0.57930709  0.51026282  1
  Ca2+  Ca11  1  0.67111939  0.57452093  0.84213723  1
  Ca2+  Ca12  1  0.07360537  0.32725299  0.15831885  1
  Ca2+  Ca13  1  0.08408162  0.33558919  0.49848547  1
  Ca2+  Ca14  1  0.07751211  0.33660208  0.82881759  1
  Ca2+  Ca15  1  0.07893744  0.82953070  0.15788066  1
  Ca2+  Ca16  1  0.08395557  0.83342008  0.50449538  1
  Ca2+  Ca17  1  0.07476281  0.82256408  0.82867199  1
  Ca2+  Ca18  1  0.58988727  0.32878906  0.16334016  1
  Ca2+  Ca19  1  0.58562757  0.32723952  0.50309624  1
  Ca2+  Ca20  1  0.58616672  0.33408801  0.82293708  1
  Ca2+  Ca21  1  0.57508290  0.82643655  0.15639030  1
  Ca2+  Ca22  1  0.58281644  0.83177373  0.49721629  1
  Ca2+  Ca23  1  0.57925815  0.82731620  0.83389994  1
  Ca2+  Ca24  1  0.33372058  0.42406258  0.16489052  1
  Ca2+  Ca25  1  0.32951856  0.41997315  0.51328898  1
  Ca2+  Ca26  1  0.33135942  0.42392398  0.83312703  1
  Ca2+  Ca27  1  0.32815996  0.91594982  0.17445550  1
  Ca2+  Ca28  1  0.32320823  0.92029758  0.50363023  1
  Ca2+  Ca29  1  0.32696340  0.90842956  0.83655469  1
  Ca2+  Ca30  1  0.83438340  0.42697655  0.16293624  1
  Ca2+  Ca31  1  0.82897354  0.42800013  0.50785629  1
  Ca2+  Ca32  1  0.82608088  0.42523646  0.83921515  1
  Ca2+  Ca33  1  0.83986646  0.92565062  0.16832480  1
  Ca2+  Ca34  1  0.83744516  0.92798993  0.50776161  1
  Ca2+  Ca35  1  0.84718346  0.92524979  0.83569052  1
  Ca2+  Ca36  1  0.42281372  0.16143313  0.16412494  1
  Ca2+  Ca37  1  0.42554314  0.16956029  0.49444769  1
  Ca2+  Ca38  1  0.42699297  0.17767268  0.81962938  1
  Ca2+  Ca39  1  0.42062719  0.67246945  0.15144693  1
  Ca2+  Ca40  1  0.41565177  0.66301125  0.50100535  1
  Ca2+  Ca41  1  0.41727299  0.66112204  0.83396234  1
  Ca2+  Ca42  1  0.90991203  0.17021952  0.15825070  1
  Ca2+  Ca43  1  0.91166923  0.16550619  0.49806517  1
  Ca2+  Ca44  1  0.90681095  0.17206979  0.83080454  1
  Ca2+  Ca45  1  0.92027785  0.67035675  0.15283349  1
  Ca2+  Ca46  1  0.91764461  0.66542646  0.49885352  1
  Ca2+  Ca47  1  0.91907696  0.66913688  0.82351795  1
  Al0+  Al48  1  0.00272324  -0.00065172  0.00315896  1
  Al0+  Al49  1  0.00020944  -0.00062832  0.34032886  1
  Al0+  Al50  1  0.00045987  0.00032394  0.67144874  1
  Al0+  Al51  1  0.00085708  0.49641136  -0.00456022  1
  Al0+  Al52  1  0.00025119  0.50078716  0.33389457  1
  Al0+  Al53  1  0.00109528  0.49971245  0.66717519  1
  Al0+  Al54  1  0.50076658  0.00058545  -0.00528069  1
  Al0+  Al55  1  0.50017051  0.00020124  0.33133949  1
  Al0+  Al56  1  0.50173018  -0.00018857  0.66122943  1
  Al0+  Al57  1  0.49818221  0.49826630  0.00735301  1
  Al0+  Al58  1  0.50051766  0.49832758  0.33193785  1
  Al0+  Al59  1  0.49932175  0.49979252  0.66682230  1
  Al0+  Al60  1  0.25094424  0.24860626  0.00113922  1
  Al0+  Al61  1  0.25035775  0.25099643  0.33293992  1
  Al0+  Al62  1  0.25037071  0.25003210  0.66590820  1
  Al0+  Al63  1  0.24831089  0.75056734  -0.00098033  1
  Al0+  Al64  1  0.24908731  0.74868699  0.33756099  1
  Al0+  Al65  1  0.24873714  0.75087486  0.66939623  1
  Al0+  Al66  1  0.75079920  0.24961120  0.00365016  1
  Al0+  Al67  1  0.74849664  0.25132904  0.33166926  1
  Al0+  Al68  1  0.75102444  0.25002153  0.66777957  1
  Al0+  Al69  1  0.74790209  0.75276533  -0.00479781  1
  Al0+  Al70  1  0.75144950  0.75086518  0.33499612  1
  Al0+  Al71  1  0.74945960  0.75464044  0.66382033  1
  Al0+  Al72  1  0.06975190  0.67722866  0.98544826  1
  Al0+  Al73  1  0.92825357  0.82295428  0.64887306  1
  Al0+  Al74  1  0.17792467  0.42548153  0.68192702  1
  Al0+  Al75  1  0.92854289  0.31832934  0.98552103  1
  Al0+  Al76  1  0.07028341  0.67864591  0.64915022  1
  Al0+  Al77  1  0.17912354  0.92725985  0.35010196  1
  Al0+  Al78  1  0.32083230  0.57159889  0.68214526  1
  Al0+  Al79  1  0.81909771  0.06931757  0.68102560  1
  Al0+  Al80  1  0.42843847  0.32262507  0.65119336  1
  Al0+  Al81  1  0.82034283  0.06772542  0.01393514  1
  Al0+  Al82  1  0.82181335  0.57463350  0.68130549  1
  Al0+  Al83  1  0.57084973  0.67618059  0.98529171  1
  Al0+  Al84  1  0.31722111  0.57026136  0.01489456  1
  Al0+  Al85  1  0.81913103  0.07178573  0.34710188  1
  Al0+  Al86  1  0.82276988  0.57411291  0.01272687  1
  Al0+  Al87  1  0.68057521  0.43046491  0.67989503  1
  Al0+  Al88  1  0.18025244  0.93048949  0.68423365  1
  Al0+  Al89  1  0.42821417  0.82203340  0.98497110  1
  Al0+  Al90  1  0.67803042  0.42859786  0.01694417  1
  Al0+  Al91  1  0.82152607  0.57200591  0.34647152  1
  Al0+  Al92  1  0.57034761  0.17993912  0.31641011  1
  Al0+  Al93  1  0.57326057  0.17888936  0.65069339  1
  Al0+  Al94  1  0.32364020  0.07234913  0.34866099  1
  Al0+  Al95  1  0.92746885  0.82300124  0.98683602  1
  Si0+  Si96  1  0.92937747  0.82230440  0.31868384  1
  Si0+  Si97  1  0.07397892  0.17748751  0.98441765  1
  Si0+  Si98  1  0.67742904  0.42893695  0.35096685  1
  Si0+  Si99  1  0.32310035  0.07240487  0.01340670  1
  Si0+  Si100  1  0.42841264  0.81775882  0.32046438  1
  Si0+  Si101  1  0.92960406  0.32040090  0.65058412  1
  Si0+  Si102  1  0.07115324  0.17751427  0.31982094  1
  Si0+  Si103  1  0.07128637  0.17832208  0.65185227  1
  Si0+  Si104  1  0.17857644  0.42979975  0.34561676  1
  Si0+  Si105  1  0.57066597  0.67916648  0.65090537  1
  Si0+  Si106  1  0.93010732  0.32133388  0.31879864  1
  Si0+  Si107  1  0.67790220  0.92744892  0.34859227  1
  Si0+  Si108  1  0.07078792  0.67844329  0.31830143  1
  Si0+  Si109  1  0.67423512  0.92708279  0.68407279  1
  Si0+  Si110  1  0.18172438  0.93045204  0.01631150  1
  Si0+  Si111  1  0.42797855  0.82136093  0.64962707  1
  Si0+  Si112  1  0.32170442  0.56980414  0.34712483  1
  Si0+  Si113  1  0.57104567  0.18059645  0.98485245  1
  Si0+  Si114  1  0.42581280  0.32326405  0.31316518  1
  Si0+  Si115  1  0.17760864  0.42310769  0.01849297  1
  Si0+  Si116  1  0.42690955  0.32003298  0.98611304  1
  Si0+  Si117  1  0.57254628  0.67801615  0.31964271  1
  Si0+  Si118  1  0.67320881  0.92891417  0.01655729  1
  Si0+  Si119  1  0.32412534  0.07121165  0.68311019  1
  O2-  O120  1  0.25446412  0.00021471  0.05754727  1
  O2-  O121  1  0.24982544  0.00211535  0.39812409  1
  O2-  O122  1  0.25733144  0.00315391  0.73110015  1
  O2-  O123  1  0.24144419  0.49664077  0.06298336  1
  O2-  O124  1  0.25298236  0.49672485  0.38788204  1
  O2-  O125  1  0.24767681  0.49988319  0.73083746  1
  O2-  O126  1  0.74782993  -0.00882993  0.06118562  1
  O2-  O127  1  0.74447472  -0.00252535  0.39356223  1
  O2-  O128  1  0.74471544  -0.00570144  0.72702974  1
  O2-  O129  1  0.74889324  0.50383103  0.06447872  1
  O2-  O130  1  0.74424237  0.50014467  0.39297141  1
  O2-  O131  1  0.74851907  0.50471143  0.73087049  1
  O2-  O132  1  -0.00170896  0.24639372  0.27701659  1
  O2-  O133  1  0.00344930  0.25183734  0.60813289  1
  O2-  O134  1  0.00503262  0.24473451  0.93939079  1
  O2-  O135  1  -0.00010750  0.75014512  0.27721627  1
  O2-  O136  1  -0.00391847  0.74758842  0.59705791  1
  O2-  O137  1  -0.01114921  0.74101640  0.93836224  1
  O2-  O138  1  0.49327312  0.25287409  0.26917057  1
  O2-  O139  1  0.49883496  0.24898138  0.60122144  1
  O2-  O140  1  0.50098218  0.25264036  0.94409918  1
  O2-  O141  1  0.49942598  0.74727037  0.27771428  1
  O2-  O142  1  0.49914005  0.75012974  0.60749473  1
  O2-  O143  1  0.49844982  0.74836808  0.93529910  1
  O2-  O144  1  0.07524310  0.17883348  0.09062877  1
  O2-  O145  1  0.07200201  0.17988194  0.42477142  1
  O2-  O146  1  0.07042263  0.17739230  0.75687519  1
  O2-  O147  1  0.07264300  0.68343660  0.10041138  1
  O2-  O148  1  0.07211233  0.67578199  0.42261523  1
  O2-  O149  1  0.07158880  0.68154231  0.76209666  1
  O2-  O150  1  0.56906407  0.17886372  0.09023479  1
  O2-  O151  1  0.57180910  0.18309801  0.42874079  1
  O2-  O152  1  0.57225683  0.17948013  0.76466166  1
  O2-  O153  1  0.56778163  0.67934946  0.10011865  1
  O2-  O154  1  0.57119453  0.67895089  0.42485503  1
  O2-  O155  1  0.57000712  0.67953909  0.75532230  1
  O2-  O156  1  0.17674843  0.43112676  0.24069879  1
  O2-  O157  1  0.17990705  0.42616617  0.56705591  1
  O2-  O158  1  0.18299767  0.41447138  0.91429118  1
  O2-  O159  1  0.18091510  0.92670896  0.23596243  1
  O2-  O160  1  0.18209435  0.93229905  0.57108530  1
  O2-  O161  1  0.18127527  0.93282228  0.91161329  1
  O2-  O162  1  0.67731806  0.42907785  0.24557593  1
  O2-  O163  1  0.68353940  0.43147384  0.56568551  1
  O2-  O164  1  0.67856556  0.42616931  0.90394220  1
  O2-  O165  1  0.67918358  0.92555432  0.24315387  1
  O2-  O166  1  0.67227805  0.92690184  0.57811055  1
  O2-  O167  1  0.66454411  0.93583801  0.91188984  1
  O2-  O168  1  0.42356282  0.31553062  0.09143193  1
  O2-  O169  1  0.42524451  0.32629869  0.41796325  1
  O2-  O170  1  0.42890810  0.32066941  0.76520355  1
  O2-  O171  1  0.42862807  0.82203726  0.09965385  1
  O2-  O172  1  0.42855284  0.81554999  0.42556024  1
  O2-  O173  1  0.42953817  0.82342748  0.75426032  1
  O2-  O174  1  0.93026058  0.31606963  0.09976014  1
  O2-  O175  1  0.93292528  0.32272421  0.42389769  1
  O2-  O176  1  0.92794367  0.31711660  0.75529254  1
  O2-  O177  1  0.93458886  0.82737036  0.10137371  1
  O2-  O178  1  0.92849898  0.82295552  0.42310774  1
  O2-  O179  1  0.93248313  0.82498502  0.76194323  1
  O2-  O180  1  0.32180185  0.06850691  0.23424278  1
  O2-  O181  1  0.32164650  0.06863570  0.57756065  1
  O2-  O182  1  0.32068536  0.07464762  0.90878981  1
  O2-  O183  1  0.32037214  0.57230321  0.24225681  1
  O2-  O184  1  0.32047256  0.57054453  0.56724502  1
  O2-  O185  1  0.31798573  0.56867823  0.90291651  1
  O2-  O186  1  0.82002632  0.07052040  0.23401641  1
  O2-  O187  1  0.81855998  0.07037450  0.56754799  1
  O2-  O188  1  0.81863797  0.06943765  0.90134510  1
  O2-  O189  1  0.82318677  0.57178830  0.23372348  1
  O2-  O190  1  0.81963093  0.57085664  0.56677085  1
  O2-  O191  1  0.82183831  0.57061243  0.90009625  1
  O2-  O192  1  0.04559416  0.08423342  0.27398060  1
  O2-  O193  1  0.03943079  0.08833542  0.60362649  1
  O2-  O194  1  0.04936795  0.08360141  0.94003870  1
  O2-  O195  1  0.04349356  0.58685551  0.26967086  1
  O2-  O196  1  0.04654222  0.57779447  0.59717580  1
  O2-  O197  1  0.05801510  0.57441385  0.93767365  1
  O2-  O198  1  0.54195635  0.08164992  0.26269597  1
  O2-  O199  1  0.54764212  0.07975129  0.59669109  1
  O2-  O200  1  0.54294214  0.09002613  0.93611918  1
  O2-  O201  1  0.54697007  0.58529451  0.27326956  1
  O2-  O202  1  0.54213763  0.58849786  0.60150705  1
  O2-  O203  1  0.53944883  0.57695591  0.93664994  1
  O2-  O204  1  0.16246653  0.20613658  0.27064942  1
  O2-  O205  1  0.16377999  0.20227317  0.60358861  1
  O2-  O206  1  0.16773636  0.20219734  0.93816761  1
  O2-  O207  1  0.16370791  0.70687158  0.27197852  1
  O2-  O208  1  0.16934746  0.71107989  0.59743502  1
  O2-  O209  1  0.16436947  0.71550876  0.93262788  1
  O2-  O210  1  0.66668813  0.21323214  0.26164031  1
  O2-  O211  1  0.67047033  0.21172023  0.59698451  1
  O2-  O212  1  0.66309559  0.20804875  0.93950616  1
  O2-  O213  1  0.66365351  0.70815935  0.27212946  1
  O2-  O214  1  0.66099771  0.70912166  0.60092322  1
  O2-  O215  1  0.66794919  0.70385726  0.93069413  1
  O2-  O216  1  0.08203474  0.44330066  0.06201855  1
  O2-  O217  1  0.08868446  0.45974578  0.39515437  1
  O2-  O218  1  0.07826502  0.44908771  0.73230401  1
  O2-  O219  1  0.09224485  0.96099043  0.06689886  1
  O2-  O220  1  0.08204092  0.95615791  0.40425091  1
  O2-  O221  1  0.08627223  0.96610381  0.73861156  1
  O2-  O222  1  0.57918474  0.45168067  0.07229947  1
  O2-  O223  1  0.58236602  0.45161039  0.39575509  1
  O2-  O224  1  0.58096668  0.45479485  0.73029464  1
  O2-  O225  1  0.58225889  0.96095696  0.06660987  1
  O2-  O226  1  0.58322187  0.95003721  0.39339430  1
  O2-  O227  1  0.58074998  0.95329739  0.73013300  1
  O2-  O228  1  0.20890137  0.33181847  0.06893844  1
  O2-  O229  1  0.20121668  0.33642529  0.39209397  1
  O2-  O230  1  0.20505971  0.32684094  0.73514147  1
  O2-  O231  1  0.20917848  0.83937792  0.06471199  1
  O2-  O232  1  0.21053825  0.83016424  0.40413094  1
  O2-  O233  1  0.21144840  0.83475660  0.73739674  1
  O2-  O234  1  0.71155120  0.33189174  0.07145559  1
  O2-  O235  1  0.70656220  0.33654835  0.39626302  1
  O2-  O236  1  0.71100351  0.33315357  0.73239677  1
  O2-  O237  1  0.69087077  0.83263274  0.05929784  1
  O2-  O238  1  0.70364541  0.83481466  0.39684626  1
  O2-  O239  1  0.69667676  0.83316465  0.72949582  1
  O2-  O240  1  0.45415476  0.41661490  0.26599331  1
  O2-  O241  1  0.45666588  0.42066816  0.59644524  1
  O2-  O242  1  0.45018144  0.41383543  0.94314954  1
  O2-  O243  1  0.45400255  0.91001697  0.27309842  1
  O2-  O244  1  0.45620970  0.91217026  0.59972534  1
  O2-  O245  1  0.45604310  0.91989388  0.93025184  1
  O2-  O246  1  0.96334841  0.41116223  0.27002071  1
  O2-  O247  1  0.95551661  0.41211786  0.60194128  1
  O2-  O248  1  0.95757080  0.41366420  0.92990278  1
  O2-  O249  1  0.95908938  0.91457866  0.27233231  1
  O2-  O250  1  0.96368061  0.92124319  0.59780740  1
  O2-  O251  1  0.96782802  0.91798139  0.93396769  1
  O2-  O252  1  0.33095640  0.30098859  0.26683217  1
  O2-  O253  1  0.32939851  0.29428579  0.59793981  1
  O2-  O254  1  0.33693352  0.28872200  0.93735156  1
  O2-  O255  1  0.33647969  0.78877576  0.27308401  1
  O2-  O256  1  0.33670906  0.79267199  0.60225340  1
  O2-  O257  1  0.33013356  0.79364609  0.93378256  1
  O2-  O258  1  0.83770722  0.29621947  0.27223958  1
  O2-  O259  1  0.84011089  0.28833774  0.60124640  1
  O2-  O260  1  0.83318243  0.28337501  0.93245596  1
  O2-  O261  1  0.83663881  0.79682697  0.27149849  1
  O2-  O262  1  0.82672214  0.80390561  0.59673816  1
  O2-  O263  1  0.82446642  0.81378049  0.93859059  1
  O2-  O264  1  0.41588440  0.04582686  0.05951804  1
  O2-  O265  1  0.42149505  0.04226604  0.40075094  1
  O2-  O266  1  0.41909874  0.04661498  0.72617057  1
  O2-  O267  1  0.41193471  0.53839532  0.07274093  1
  O2-  O268  1  0.41489124  0.54444575  0.39322612  1
  O2-  O269  1  0.41901568  0.54344509  0.73383941  1
  O2-  O270  1  0.91887521  0.04104210  0.06812246  1
  O2-  O271  1  0.91575903  0.04317036  0.40156157  1
  O2-  O272  1  0.91581369  0.04152291  0.73548471  1
  O2-  O273  1  0.92155995  0.54105230  0.06493912  1
  O2-  O274  1  0.91725950  0.53764299  0.40029304  1
  O2-  O275  1  0.91999659  0.54493687  0.73063408  1
  O2-  O276  1  0.29447756  0.16251405  0.06441523  1
  O2-  O277  1  0.29787486  0.17282357  0.39775263  1
  O2-  O278  1  0.29864890  0.16503687  0.72750531  1
  O2-  O279  1  0.28621365  0.66757800  0.06955343  1
  O2-  O280  1  0.29322650  0.66017622  0.39632448  1
  O2-  O281  1  0.29434284  0.67011902  0.73430758  1
  O2-  O282  1  0.78636259  0.16263647  0.06922633  1
  O2-  O283  1  0.78937634  0.16958169  0.39909912  1
  O2-  O284  1  0.78781324  0.16543250  0.73469357  1
  O2-  O285  1  0.79646870  0.67490890  0.06383178  1
  O2-  O286  1  0.79290280  0.66913535  0.40035044  1
  O2-  O287  1  0.79690461  0.67580962  0.72784095  1
