# generated using pymatgen
data_Ca2Al2SiO7
_symmetry_space_group_name_H-M   'P 1'
_cell_length_a   15.45910311
_cell_length_b   15.45934225
_cell_length_c   15.28442529
_cell_angle_alpha   89.99652810
_cell_angle_beta   90.00116446
_cell_angle_gamma   89.97967158
_symmetry_Int_Tables_number   1
_chemical_formula_structural   Ca2Al2SiO7
_chemical_formula_sum   'Ca48 Al48 Si24 O168'
_cell_volume   3652.78735867
_cell_formula_units_Z   24
loop_
 _symmetry_equiv_pos_site_id
 _symmetry_equiv_pos_as_xyz
  1  'x, y, z'
loop_
 _atom_type_symbol
 _atom_type_oxidation_number
  Ca2+  2.0
  Al0+  0.0
  Si0+  0.0
  O2-  -2.0
loop_
 _atom_site_type_symbol
 _atom_site_label
 _atom_site_symmetry_multiplicity
 _atom_site_fract_x
 _atom_site_fract_y
 _atom_site_fract_z
 _atom_site_occupancy
  Ca2+  Ca0  1  0.16445932  0.08370513  0.16454793  1
  Ca2+  Ca1  1  0.16425361  0.07604125  0.50388375  1
  Ca2+  Ca2  1  0.16818636  0.07318060  0.84721588  1
  Ca2+  Ca3  1  0.15905204  0.57138674  0.17131734  1
  Ca2+  Ca4  1  0.16353489  0.58285146  0.50567768  1
  Ca2+  Ca5  1  0.17071758  0.58164310  0.83624765  1
  Ca2+  Ca6  1  0.67424931  0.09039292  0.16568479  1
  Ca2+  Ca7  1  0.66781136  0.08139259  0.50649162  1
  Ca2+  Ca8  1  0.66947031  0.08835216  0.84224899  1
  Ca2+  Ca9  1  0.67127583  0.58594384  0.17054462  1
  Ca2+  Ca10  1  0.67996205  0.58824884  0.50701023  1
  Ca2+  Ca11  1  0.67023710  0.59257791  0.83720376  1
  Ca2+  Ca12  1  0.07875984  0.33093138  0.15977595  1
  Ca2+  Ca13  1  0.07956053  0.33051341  0.48703402  1
  Ca2+  Ca14  1  0.08597321  0.33132847  0.83914264  1
  Ca2+  Ca15  1  0.07637669  0.82978138  0.16152337  1
  Ca2+  Ca16  1  0.08332907  0.82131544  0.49425823  1
  Ca2+  Ca17  1  0.08209330  0.83782005  0.82970179  1
  Ca2+  Ca18  1  0.57441418  0.33017874  0.15441005  1
  Ca2+  Ca19  1  0.58350462  0.32910761  0.50134964  1
  Ca2+  Ca20  1  0.58025177  0.32217008  0.83445192  1
  Ca2+  Ca21  1  0.57283360  0.82860952  0.15942132  1
  Ca2+  Ca22  1  0.57635912  0.82666456  0.49521598  1
  Ca2+  Ca23  1  0.57746019  0.82461057  0.83486832  1
  Ca2+  Ca24  1  0.32028617  0.40745605  0.16728924  1
  Ca2+  Ca25  1  0.32371888  0.42435644  0.50464311  1
  Ca2+  Ca26  1  0.33273563  0.42169905  0.84203803  1
  Ca2+  Ca27  1  0.33504607  0.91719126  0.16528245  1
  Ca2+  Ca28  1  0.32651836  0.91227211  0.50515036  1
  Ca2+  Ca29  1  0.32215683  0.91753878  0.84361660  1
  Ca2+  Ca30  1  0.83768435  0.41873538  0.17289360  1
  Ca2+  Ca31  1  0.84127047  0.42913664  0.50078817  1
  Ca2+  Ca32  1  0.83513632  0.42205277  0.83862770  1
  Ca2+  Ca33  1  0.84138691  0.91882798  0.16585965  1
  Ca2+  Ca34  1  0.83592842  0.91477340  0.50133169  1
  Ca2+  Ca35  1  0.83278531  0.92283640  0.84615974  1
  Ca2+  Ca36  1  0.42045764  0.16950781  0.15314778  1
  Ca2+  Ca37  1  0.42269036  0.16392930  0.49848987  1
  Ca2+  Ca38  1  0.41804721  0.16598724  0.83609769  1
  Ca2+  Ca39  1  0.41977679  0.67703409  0.15829397  1
  Ca2+  Ca40  1  0.41708860  0.66754963  0.49818622  1
  Ca2+  Ca41  1  0.42300499  0.66540206  0.82861655  1
  Ca2+  Ca42  1  0.92640900  0.17526416  0.15772394  1
  Ca2+  Ca43  1  0.92593152  0.17522472  0.48951471  1
  Ca2+  Ca44  1  0.91878796  0.16863892  0.83795940  1
  Ca2+  Ca45  1  0.91756428  0.67306097  0.16629204  1
  Ca2+  Ca46  1  0.92440347  0.66530651  0.49244313  1
  Ca2+  Ca47  1  0.92332169  0.67199286  0.82840607  1
  Al0+  Al48  1  -0.00132985  0.00052126  0.00186320  1
  Al0+  Al49  1  0.00141562  -0.00010047  0.33050956  1
  Al0+  Al50  1  -0.00164538  0.00224747  0.66938232  1
  Al0+  Al51  1  -0.00020372  0.50117006  -0.00003217  1
  Al0+  Al52  1  -0.00064195  0.49931208  0.33568054  1
  Al0+  Al53  1  -0.00147951  0.50107147  0.66943631  1
  Al0+  Al54  1  0.50014617  -0.00341809  -0.00411676  1
  Al0+  Al55  1  0.50082748  -0.00091744  0.33215037  1
  Al0+  Al56  1  0.50008982  0.00097595  0.66262234  1
  Al0+  Al57  1  0.50255816  0.49985902  -0.00550713  1
  Al0+  Al58  1  0.50033271  0.49808508  0.33523685  1
  Al0+  Al59  1  0.50020651  0.49878526  0.66446409  1
  Al0+  Al60  1  0.24956181  0.24988800  -0.00136252  1
  Al0+  Al61  1  0.25255027  0.24848219  0.33869882  1
  Al0+  Al62  1  0.24966454  0.24941404  0.66481537  1
  Al0+  Al63  1  0.24956542  0.74905917  0.00236247  1
  Al0+  Al64  1  0.25107188  0.75002425  0.32486441  1
  Al0+  Al65  1  0.24777587  0.74897242  0.67177155  1
  Al0+  Al66  1  0.75057016  0.25256574  -0.00123047  1
  Al0+  Al67  1  0.75041155  0.24938466  0.33438416  1
  Al0+  Al68  1  0.74921347  0.25110285  0.66095557  1
  Al0+  Al69  1  0.75229544  0.75182799  -0.00534093  1
  Al0+  Al70  1  0.74931919  0.75075941  0.33569044  1
  Al0+  Al71  1  0.74826446  0.75173373  0.66797174  1
  Al0+  Al72  1  0.42643440  0.32101730  0.98523270  1
  Al0+  Al73  1  0.57033662  0.17951061  0.65107978  1
  Al0+  Al74  1  0.92867077  0.32414607  0.98356503  1
  Al0+  Al75  1  0.82039161  0.57198855  0.68283451  1
  Al0+  Al76  1  0.93178088  0.82101680  0.98552650  1
  Al0+  Al77  1  0.18011670  0.42920812  0.34757813  1
  Al0+  Al78  1  0.32121902  0.56960563  0.67988212  1
  Al0+  Al79  1  0.57174362  0.67900001  0.98588954  1
  Al0+  Al80  1  0.06995017  0.68006816  0.65461805  1
  Al0+  Al81  1  0.07181074  0.67726277  0.31773366  1
  Al0+  Al82  1  0.92711319  0.82104205  0.31930263  1
  Al0+  Al83  1  0.32213526  0.06946583  0.01464172  1
  Al0+  Al84  1  0.57171197  0.17788870  0.98718201  1
  Al0+  Al85  1  0.57172152  0.67809244  0.65061481  1
  Al0+  Al86  1  0.18000723  0.43094076  0.01310195  1
  Al0+  Al87  1  0.92885934  0.32111627  0.31901924  1
  Al0+  Al88  1  0.42578577  0.82048371  0.98262858  1
  Al0+  Al89  1  0.07062636  0.17940457  0.98400466  1
  Al0+  Al90  1  0.81909934  0.07316128  0.01455992  1
  Al0+  Al91  1  0.17871836  0.93033266  0.67880189  1
  Al0+  Al92  1  0.07458272  0.17838761  0.31851574  1
  Al0+  Al93  1  0.81873296  0.57105103  0.34660305  1
  Al0+  Al94  1  0.17719192  0.92678721  0.01881612  1
  Al0+  Al95  1  0.42918065  0.82106945  0.32013682  1
  Si0+  Si96  1  0.92754889  0.82465863  0.65118515  1
  Si0+  Si97  1  0.67768413  0.93110168  0.34919178  1
  Si0+  Si98  1  0.07076376  0.17798001  0.65184539  1
  Si0+  Si99  1  0.32323483  0.57352664  0.34827644  1
  Si0+  Si100  1  0.32299759  0.07269587  0.68243476  1
  Si0+  Si101  1  0.32582477  0.57130062  0.01739860  1
  Si0+  Si102  1  0.82048609  0.57277600  0.01513817  1
  Si0+  Si103  1  0.67527990  0.42557664  0.35137365  1
  Si0+  Si104  1  0.57183710  0.67702908  0.31915629  1
  Si0+  Si105  1  0.67721744  0.93002743  0.68187806  1
  Si0+  Si106  1  0.81892712  0.07230679  0.68059525  1
  Si0+  Si107  1  0.67951114  0.92636329  0.01702228  1
  Si0+  Si108  1  0.42756136  0.82034201  0.65054961  1
  Si0+  Si109  1  0.67889904  0.42685671  0.68397876  1
  Si0+  Si110  1  0.57093605  0.17832854  0.31896826  1
  Si0+  Si111  1  0.92950051  0.32093542  0.65102756  1
  Si0+  Si112  1  0.17680174  0.42609532  0.68371220  1
  Si0+  Si113  1  0.82188999  0.07128349  0.34947350  1
  Si0+  Si114  1  0.43056894  0.32058315  0.32061836  1
  Si0+  Si115  1  0.42565632  0.32216919  0.64723229  1
  Si0+  Si116  1  0.32392421  0.06947215  0.35011740  1
  Si0+  Si117  1  0.67948810  0.42992629  0.01430485  1
  Si0+  Si118  1  0.07159692  0.67673936  0.98315736  1
  Si0+  Si119  1  0.17925281  0.92787472  0.34816269  1
  O2-  O120  1  0.25112031  -0.00181706  0.06785400  1
  O2-  O121  1  0.25090444  -0.00071315  0.39061226  1
  O2-  O122  1  0.25301014  0.00557726  0.72485437  1
  O2-  O123  1  0.25671998  0.50317991  0.06162157  1
  O2-  O124  1  0.25199289  0.50762602  0.39330044  1
  O2-  O125  1  0.24813237  0.49283546  0.72582938  1
  O2-  O126  1  0.74325346  -0.00058150  0.06214047  1
  O2-  O127  1  0.75177028  -0.00080833  0.39248376  1
  O2-  O128  1  0.74921427  0.00042415  0.72294985  1
  O2-  O129  1  0.74940428  0.50160062  0.05684396  1
  O2-  O130  1  0.74405481  0.49506970  0.39381028  1
  O2-  O131  1  0.74288253  0.49938998  0.72918321  1
  O2-  O132  1  0.00250975  0.25087162  0.27014645  1
  O2-  O133  1  0.00395062  0.25279360  0.60955845  1
  O2-  O134  1  -0.00047088  0.25184605  0.93240907  1
  O2-  O135  1  -0.00056622  0.74977295  0.26942166  1
  O2-  O136  1  -0.00513234  0.75479299  0.60762950  1
  O2-  O137  1  0.00963471  0.75098979  0.93809949  1
  O2-  O138  1  0.50389078  0.25254872  0.27819439  1
  O2-  O139  1  0.49380934  0.25191074  0.60333042  1
  O2-  O140  1  0.49607502  0.24567390  0.93672174  1
  O2-  O141  1  0.50027194  0.74209676  0.27553095  1
  O2-  O142  1  0.49527297  0.75137472  0.60426786  1
  O2-  O143  1  0.49543692  0.74534932  0.93447720  1
  O2-  O144  1  0.06949022  0.18151775  0.09726971  1
  O2-  O145  1  0.07159592  0.17801797  0.43355429  1
  O2-  O146  1  0.06930688  0.17590625  0.75612957  1
  O2-  O147  1  0.06642846  0.67340547  0.08850577  1
  O2-  O148  1  0.07235265  0.67962459  0.43197972  1
  O2-  O149  1  0.06870599  0.68017863  0.76733628  1
  O2-  O150  1  0.57304876  0.18347825  0.10136691  1
  O2-  O151  1  0.56949092  0.17713251  0.42445258  1
  O2-  O152  1  0.57240426  0.18031609  0.76306059  1
  O2-  O153  1  0.57277965  0.68057442  0.10005045  1
  O2-  O154  1  0.57197509  0.67922394  0.42490905  1
  O2-  O155  1  0.57202905  0.68179091  0.76294915  1
  O2-  O156  1  0.18262059  0.42683037  0.23494258  1
  O2-  O157  1  0.17689520  0.42517810  0.57782017  1
  O2-  O158  1  0.17989145  0.43511901  0.89969614  1
  O2-  O159  1  0.17909511  0.92833527  0.24395092  1
  O2-  O160  1  0.17956011  0.93133052  0.56484175  1
  O2-  O161  1  0.17726480  0.92913527  0.90465013  1
  O2-  O162  1  0.67108951  0.42499675  0.24604451  1
  O2-  O163  1  0.68271672  0.42482012  0.57808624  1
  O2-  O164  1  0.68032336  0.42866243  0.90933074  1
  O2-  O165  1  0.67373426  0.93402606  0.24484851  1
  O2-  O166  1  0.67741847  0.93122941  0.57613981  1
  O2-  O167  1  0.68359099  0.92484218  0.91110332  1
  O2-  O168  1  0.43009137  0.32178778  0.09964251  1
  O2-  O169  1  0.43164263  0.31940430  0.42590750  1
  O2-  O170  1  0.42447851  0.32166702  0.75208920  1
  O2-  O171  1  0.43029559  0.81961619  0.09665590  1
  O2-  O172  1  0.43115124  0.82217244  0.43374613  1
  O2-  O173  1  0.42995488  0.82114600  0.75529947  1
  O2-  O174  1  0.92882650  0.32483678  0.09679829  1
  O2-  O175  1  0.92931991  0.31850000  0.43361236  1
  O2-  O176  1  0.92675854  0.31922049  0.75559009  1
  O2-  O177  1  0.92847091  0.81659384  0.09829171  1
  O2-  O178  1  0.92840952  0.82135338  0.43352925  1
  O2-  O179  1  0.92877517  0.82680045  0.75650326  1
  O2-  O180  1  0.32931045  0.07037828  0.24601637  1
  O2-  O181  1  0.32305406  0.07206115  0.57608195  1
  O2-  O182  1  0.32040142  0.06813172  0.90058830  1
  O2-  O183  1  0.32783946  0.57018292  0.24336044  1
  O2-  O184  1  0.31928152  0.56907047  0.56625989  1
  O2-  O185  1  0.32551578  0.56968882  0.91148941  1
  O2-  O186  1  0.81864215  0.07391384  0.24506866  1
  O2-  O187  1  0.81916913  0.07115023  0.57501939  1
  O2-  O188  1  0.81684839  0.07169661  0.90064230  1
  O2-  O189  1  0.81445778  0.57222609  0.23346583  1
  O2-  O190  1  0.82165548  0.56979029  0.56957267  1
  O2-  O191  1  0.81972256  0.57246995  0.90991953  1
  O2-  O192  1  0.04645045  0.08051126  0.26715197  1
  O2-  O193  1  0.03767674  0.08830732  0.60231969  1
  O2-  O194  1  0.03873122  0.08190750  0.93198757  1
  O2-  O195  1  0.04156165  0.57934110  0.26702108  1
  O2-  O196  1  0.03926993  0.58243687  0.60148154  1
  O2-  O197  1  0.03916550  0.58702468  0.93393146  1
  O2-  O198  1  0.54103887  0.08804164  0.27170688  1
  O2-  O199  1  0.54097635  0.08278882  0.59444008  1
  O2-  O200  1  0.55131431  0.07791060  0.93544064  1
  O2-  O201  1  0.55129988  0.58111388  0.27562171  1
  O2-  O202  1  0.54542726  0.57973424  0.59773446  1
  O2-  O203  1  0.55087615  0.57988943  0.93171354  1
  O2-  O204  1  0.17542753  0.20340492  0.27082094  1
  O2-  O205  1  0.16465126  0.19983865  0.60496698  1
  O2-  O206  1  0.16827458  0.20724697  0.93013855  1
  O2-  O207  1  0.16973048  0.70239817  0.26373512  1
  O2-  O208  1  0.16671399  0.71061550  0.60028905  1
  O2-  O209  1  0.16832984  0.69450283  0.94187774  1
  O2-  O210  1  0.66448036  0.20222367  0.27444443  1
  O2-  O211  1  0.66563570  0.21255199  0.59374391  1
  O2-  O212  1  0.66701974  0.21306048  0.93250260  1
  O2-  O213  1  0.66333066  0.70687407  0.27270455  1
  O2-  O214  1  0.66756041  0.71355145  0.59675626  1
  O2-  O215  1  0.66750668  0.71321398  0.93102414  1
  O2-  O216  1  0.08346393  0.46379400  0.06718851  1
  O2-  O217  1  0.08293860  0.45639539  0.40236532  1
  O2-  O218  1  0.08419692  0.45324882  0.72974065  1
  O2-  O219  1  0.07896719  0.95689222  0.07036795  1
  O2-  O220  1  0.08765248  0.95595488  0.39694612  1
  O2-  O221  1  0.08201880  0.96217732  0.73241627  1
  O2-  O222  1  0.58749422  0.45719697  0.06275945  1
  O2-  O223  1  0.58194742  0.44979200  0.40020378  1
  O2-  O224  1  0.58254753  0.44557707  0.72569591  1
  O2-  O225  1  0.58371466  0.94603327  0.05994711  1
  O2-  O226  1  0.58823036  0.96325449  0.40035381  1
  O2-  O227  1  0.58541922  0.95937797  0.72779178  1
  O2-  O228  1  0.20880787  0.33380149  0.06640288  1
  O2-  O229  1  0.21507119  0.33406050  0.40460382  1
  O2-  O230  1  0.20077148  0.33088314  0.72765255  1
  O2-  O231  1  0.20281082  0.82666288  0.07017982  1
  O2-  O232  1  0.20955300  0.83557298  0.39432609  1
  O2-  O233  1  0.20757952  0.83484567  0.73438319  1
  O2-  O234  1  0.70715788  0.33949261  0.06429269  1
  O2-  O235  1  0.70105769  0.33160390  0.39814389  1
  O2-  O236  1  0.70995986  0.33433270  0.72970306  1
  O2-  O237  1  0.71164766  0.83511481  0.06449995  1
  O2-  O238  1  0.70261886  0.83864750  0.39742136  1
  O2-  O239  1  0.70321485  0.83869654  0.72997577  1
  O2-  O240  1  0.45518014  0.41297732  0.27299756  1
  O2-  O241  1  0.45351942  0.41416214  0.59915697  1
  O2-  O242  1  0.45965995  0.41703475  0.93086064  1
  O2-  O243  1  0.46565044  0.91560906  0.26606675  1
  O2-  O244  1  0.45385931  0.91391167  0.60342672  1
  O2-  O245  1  0.45652354  0.91669222  0.92778763  1
  O2-  O246  1  0.95344299  0.42013752  0.26857817  1
  O2-  O247  1  0.95635387  0.41362034  0.60524530  1
  O2-  O248  1  0.95826560  0.42205685  0.93007444  1
  O2-  O249  1  0.95384466  0.91981674  0.26791715  1
  O2-  O250  1  0.95259096  0.91890831  0.60483151  1
  O2-  O251  1  0.95670295  0.91898265  0.93234918  1
  O2-  O252  1  0.34006610  0.28921246  0.27466460  1
  O2-  O253  1  0.33203625  0.29635571  0.59953126  1
  O2-  O254  1  0.32896514  0.29655024  0.93038950  1
  O2-  O255  1  0.33386165  0.79575855  0.26323948  1
  O2-  O256  1  0.33368157  0.79378745  0.60588284  1
  O2-  O257  1  0.32597377  0.79438599  0.93225818  1
  O2-  O258  1  0.82922150  0.29292616  0.26839456  1
  O2-  O259  1  0.83950074  0.29081696  0.60135884  1
  O2-  O260  1  0.83056285  0.29601677  0.93065602  1
  O2-  O261  1  0.82750642  0.79475762  0.26776366  1
  O2-  O262  1  0.83259440  0.80151749  0.60716314  1
  O2-  O263  1  0.83708296  0.78861692  0.92886394  1
  O2-  O264  1  0.42247044  0.04204521  0.06619990  1
  O2-  O265  1  0.41488528  0.03873265  0.39974162  1
  O2-  O266  1  0.41743465  0.04750241  0.72625908  1
  O2-  O267  1  0.42062027  0.54655787  0.06165668  1
  O2-  O268  1  0.41599442  0.54476646  0.39699137  1
  O2-  O269  1  0.41903235  0.53985732  0.73243606  1
  O2-  O270  1  0.91404457  0.04066841  0.06916845  1
  O2-  O271  1  0.91420618  0.04416735  0.39702448  1
  O2-  O272  1  0.91062296  0.04698927  0.72894756  1
  O2-  O273  1  0.91167671  0.54464880  0.06246207  1
  O2-  O274  1  0.91458337  0.53986210  0.40244532  1
  O2-  O275  1  0.91562825  0.53866041  0.73786855  1
  O2-  O276  1  0.29602857  0.16941175  0.06583020  1
  O2-  O277  1  0.29840367  0.16045754  0.40108560  1
  O2-  O278  1  0.29999370  0.16786110  0.72596606  1
  O2-  O279  1  0.30114529  0.66507786  0.06272705  1
  O2-  O280  1  0.30094201  0.66913460  0.39210537  1
  O2-  O281  1  0.28987654  0.66456118  0.73579764  1
  O2-  O282  1  0.78784447  0.16985282  0.06897542  1
  O2-  O283  1  0.79188554  0.16202702  0.39956170  1
  O2-  O284  1  0.78879262  0.16422335  0.72562625  1
  O2-  O285  1  0.79067718  0.66439532  0.06155271  1
  O2-  O286  1  0.78723219  0.66720179  0.40306530  1
  O2-  O287  1  0.79090315  0.67016594  0.73467390  1
