# generated using pymatgen
data_Ca2Al2SiO7
_symmetry_space_group_name_H-M   'P 1'
_cell_length_a   15.46317898
_cell_length_b   15.46095519
_cell_length_c   15.28562031
_cell_angle_alpha   89.99618068
_cell_angle_beta   90.00132752
_cell_angle_gamma   90.00914058
_symmetry_Int_Tables_number   1
_chemical_formula_structural   Ca2Al2SiO7
_chemical_formula_sum   'Ca48 Al48 Si24 O168'
_cell_volume   3654.41752640
_cell_formula_units_Z   24
loop_
 _symmetry_equiv_pos_site_id
 _symmetry_equiv_pos_as_xyz
  1  'x, y, z'
loop_
 _atom_type_symbol
 _atom_type_oxidation_number
  Ca2+  2.0
  Al0+  0.0
  Si0+  0.0
  O2-  -2.0
loop_
 _atom_site_type_symbol
 _atom_site_label
 _atom_site_symmetry_multiplicity
 _atom_site_fract_x
 _atom_site_fract_y
 _atom_site_fract_z
 _atom_site_occupancy
  Ca2+  Ca0  1  0.15197612  0.07072656  0.16730771  1
  Ca2+  Ca1  1  0.16696874  0.07405706  0.51153444  1
  Ca2+  Ca2  1  0.15686154  0.07528053  0.83560740  1
  Ca2+  Ca3  1  0.17866998  0.58089873  0.17359368  1
  Ca2+  Ca4  1  0.16199270  0.57194295  0.50426176  1
  Ca2+  Ca5  1  0.16236168  0.57971792  0.83501197  1
  Ca2+  Ca6  1  0.67224452  0.08374089  0.17100306  1
  Ca2+  Ca7  1  0.67447359  0.08818413  0.50464691  1
  Ca2+  Ca8  1  0.66502535  0.08696228  0.83694964  1
  Ca2+  Ca9  1  0.67874219  0.58762144  0.17247782  1
  Ca2+  Ca10  1  0.67669558  0.58213292  0.50673204  1
  Ca2+  Ca11  1  0.67788778  0.57907283  0.83553656  1
  Ca2+  Ca12  1  0.07427447  0.33326390  0.16201629  1
  Ca2+  Ca13  1  0.08629171  0.33164925  0.49414044  1
  Ca2+  Ca14  1  0.08317786  0.32796765  0.82590801  1
  Ca2+  Ca15  1  0.08164588  0.83484493  0.15910360  1
  Ca2+  Ca16  1  0.08574770  0.83146618  0.50264070  1
  Ca2+  Ca17  1  0.07698920  0.83016994  0.82568267  1
  Ca2+  Ca18  1  0.58305339  0.32682784  0.16021669  1
  Ca2+  Ca19  1  0.58783325  0.33339884  0.50082869  1
  Ca2+  Ca20  1  0.58398767  0.32634349  0.82657104  1
  Ca2+  Ca21  1  0.57474784  0.82551099  0.16096878  1
  Ca2+  Ca22  1  0.57952652  0.82482076  0.49306195  1
  Ca2+  Ca23  1  0.57325197  0.83417169  0.83053330  1
  Ca2+  Ca24  1  0.32710987  0.42433090  0.17294262  1
  Ca2+  Ca25  1  0.32420725  0.42052397  0.50297062  1
  Ca2+  Ca26  1  0.32566425  0.42148269  0.83571118  1
  Ca2+  Ca27  1  0.32262060  0.91334253  0.16739382  1
  Ca2+  Ca28  1  0.32053888  0.92071566  0.50638037  1
  Ca2+  Ca29  1  0.32082113  0.91844950  0.83795336  1
  Ca2+  Ca30  1  0.84132357  0.42442987  0.17170844  1
  Ca2+  Ca31  1  0.83503217  0.42734861  0.50595986  1
  Ca2+  Ca32  1  0.83710558  0.42658008  0.83695404  1
  Ca2+  Ca33  1  0.83807926  0.92544705  0.17172779  1
  Ca2+  Ca34  1  0.83575989  0.92156476  0.50401942  1
  Ca2+  Ca35  1  0.83765002  0.91302930  0.83770694  1
  Ca2+  Ca36  1  0.42451723  0.16650745  0.15925014  1
  Ca2+  Ca37  1  0.41880496  0.16280164  0.50279389  1
  Ca2+  Ca38  1  0.42681529  0.15852753  0.82531157  1
  Ca2+  Ca39  1  0.41808910  0.66313863  0.16036161  1
  Ca2+  Ca40  1  0.42375178  0.66033221  0.49016087  1
  Ca2+  Ca41  1  0.40667662  0.67246560  0.83312956  1
  Ca2+  Ca42  1  0.91714819  0.17946744  0.16046096  1
  Ca2+  Ca43  1  0.92197093  0.17362427  0.49416543  1
  Ca2+  Ca44  1  0.92953052  0.17222222  0.83251216  1
  Ca2+  Ca45  1  0.91597099  0.67004354  0.15985092  1
  Ca2+  Ca46  1  0.91733044  0.66593540  0.50031037  1
  Ca2+  Ca47  1  0.91504269  0.67442614  0.82553584  1
  Al0+  Al48  1  -0.00250532  -0.00009664  -0.00205004  1
  Al0+  Al49  1  -0.00099874  -0.00010094  0.34335181  1
  Al0+  Al50  1  -0.00163575  0.00169049  0.66266024  1
  Al0+  Al51  1  -0.00052597  0.50062940  0.00206727  1
  Al0+  Al52  1  0.00013075  0.50115226  0.33558428  1
  Al0+  Al53  1  0.00060181  0.50247763  0.67263268  1
  Al0+  Al54  1  0.49867399  -0.00286705  -0.00570968  1
  Al0+  Al55  1  0.49944178  -0.00220107  0.33130770  1
  Al0+  Al56  1  0.50118053  0.00022229  0.66214349  1
  Al0+  Al57  1  0.50213725  0.49799126  0.00232296  1
  Al0+  Al58  1  0.50187593  0.49813858  0.32901415  1
  Al0+  Al59  1  0.50089639  0.49947382  0.67094087  1
  Al0+  Al60  1  0.25208076  0.24795775  -0.00147013  1
  Al0+  Al61  1  0.25184199  0.24690251  0.33240189  1
  Al0+  Al62  1  0.25375688  0.25117014  0.66996947  1
  Al0+  Al63  1  0.25000856  0.75044240  0.00422066  1
  Al0+  Al64  1  0.25053251  0.75109196  0.34112577  1
  Al0+  Al65  1  0.24780620  0.75204553  0.66380642  1
  Al0+  Al66  1  0.75032744  0.25034889  -0.00783851  1
  Al0+  Al67  1  0.75228522  0.24996129  0.33275489  1
  Al0+  Al68  1  0.74902769  0.24962446  0.66606635  1
  Al0+  Al69  1  0.74788365  0.74947824  0.00096038  1
  Al0+  Al70  1  0.74896303  0.75059546  0.33192601  1
  Al0+  Al71  1  0.74819401  0.75251351  0.66616879  1
  Al0+  Al72  1  0.57132175  0.67765319  0.31869860  1
  Al0+  Al73  1  0.07170184  0.17843732  0.98659259  1
  Al0+  Al74  1  0.32039426  0.56999161  0.01254217  1
  Al0+  Al75  1  0.82066113  0.57297660  0.34727216  1
  Al0+  Al76  1  0.92643555  0.82157274  0.64928099  1
  Al0+  Al77  1  0.07132173  0.67831660  0.65058885  1
  Al0+  Al78  1  0.56942628  0.17902973  0.98671547  1
  Al0+  Al79  1  0.32277495  0.07025782  0.68181300  1
  Al0+  Al80  1  0.42760547  0.81769559  0.98591106  1
  Al0+  Al81  1  0.81908082  0.07202618  0.34702576  1
  Al0+  Al82  1  0.82066064  0.57162731  0.01562867  1
  Al0+  Al83  1  0.17757344  0.93165267  0.01364496  1
  Al0+  Al84  1  0.17838466  0.92995476  0.34864331  1
  Al0+  Al85  1  0.92748275  0.81994855  0.98954196  1
  Al0+  Al86  1  0.17684393  0.93001508  0.68466338  1
  Al0+  Al87  1  0.93001567  0.32432610  0.98330042  1
  Al0+  Al88  1  0.07326732  0.18143667  0.65193764  1
  Al0+  Al89  1  0.32366383  0.57014593  0.34807980  1
  Al0+  Al90  1  0.17901067  0.42799739  0.34653615  1
  Al0+  Al91  1  0.93078928  0.32197613  0.32123751  1
  Al0+  Al92  1  0.82076858  0.57296532  0.68293454  1
  Al0+  Al93  1  0.67845485  0.42788287  0.68239514  1
  Al0+  Al94  1  0.17936835  0.42900374  0.68090917  1
  Al0+  Al95  1  0.57139010  0.17929587  0.64971544  1
  Si0+  Si96  1  0.42854338  0.82113444  0.65004262  1
  Si0+  Si97  1  0.07286041  0.17595952  0.31834186  1
  Si0+  Si98  1  0.32493841  0.07082264  0.01682444  1
  Si0+  Si99  1  0.81867064  0.07046663  0.01324754  1
  Si0+  Si100  1  0.67693780  0.92887894  0.34900600  1
  Si0+  Si101  1  0.07267722  0.67922420  0.98708845  1
  Si0+  Si102  1  0.57197914  0.67622967  0.98152235  1
  Si0+  Si103  1  0.32628268  0.07147558  0.34919308  1
  Si0+  Si104  1  0.68011747  0.42601551  0.01791122  1
  Si0+  Si105  1  0.57178553  0.17837115  0.31867794  1
  Si0+  Si106  1  0.92915984  0.32246407  0.65066447  1
  Si0+  Si107  1  0.82026965  0.07163043  0.68329828  1
  Si0+  Si108  1  0.92954181  0.82206085  0.31866021  1
  Si0+  Si109  1  0.32332744  0.57292505  0.68177986  1
  Si0+  Si110  1  0.42956617  0.32468654  0.64857020  1
  Si0+  Si111  1  0.42815915  0.32352821  0.98259458  1
  Si0+  Si112  1  0.42822642  0.31981701  0.31716843  1
  Si0+  Si113  1  0.56902485  0.67902951  0.65308987  1
  Si0+  Si114  1  0.17787277  0.42483422  0.01682535  1
  Si0+  Si115  1  0.67892083  0.42664293  0.34770345  1
  Si0+  Si116  1  0.07166022  0.67987568  0.31842137  1
  Si0+  Si117  1  0.67546535  0.92863764  0.01474131  1
  Si0+  Si118  1  0.42677238  0.82119595  0.31592839  1
  Si0+  Si119  1  0.67880182  0.92988849  0.68152598  1
  O2-  O120  1  0.25021948  0.00897563  0.06144580  1
  O2-  O121  1  0.25362379  0.00627881  0.39097536  1
  O2-  O122  1  0.24712299  0.00410971  0.73421096  1
  O2-  O123  1  0.24733262  0.49379717  0.05952320  1
  O2-  O124  1  0.25035305  0.50015421  0.39790665  1
  O2-  O125  1  0.25204003  0.50711839  0.72564090  1
  O2-  O126  1  0.74751160  -0.00087523  0.05626478  1
  O2-  O127  1  0.74328083  -0.00142923  0.39451840  1
  O2-  O128  1  0.75077800  -0.00128018  0.72514743  1
  O2-  O129  1  0.74806854  0.49464789  0.06311416  1
  O2-  O130  1  0.74534154  0.49749748  0.39124312  1
  O2-  O131  1  0.75209944  0.49745249  0.73255517  1
  O2-  O132  1  0.00771343  0.24843082  0.27513543  1
  O2-  O133  1  0.00105575  0.25825993  0.60455057  1
  O2-  O134  1  0.00717210  0.25662753  0.93553289  1
  O2-  O135  1  0.00077960  0.75160776  0.27582450  1
  O2-  O136  1  -0.00164922  0.74948018  0.59952641  1
  O2-  O137  1  -0.00023877  0.74353346  0.94361786  1
  O2-  O138  1  0.49969368  0.24772068  0.27597350  1
  O2-  O139  1  0.49774524  0.25504544  0.60349133  1
  O2-  O140  1  0.49371759  0.25171991  0.93898655  1
  O2-  O141  1  0.49278353  0.74921955  0.27249738  1
  O2-  O142  1  0.49459932  0.74512667  0.60854907  1
  O2-  O143  1  0.49967829  0.74095708  0.93719168  1
  O2-  O144  1  0.06514916  0.17659918  0.10056272  1
  O2-  O145  1  0.07191389  0.17634387  0.42384831  1
  O2-  O146  1  0.06908947  0.18099914  0.76488661  1
  O2-  O147  1  0.07349072  0.68147445  0.09330730  1
  O2-  O148  1  0.07027349  0.67914935  0.42299786  1
  O2-  O149  1  0.07229976  0.67968443  0.76455332  1
  O2-  O150  1  0.56955572  0.17976713  0.10077480  1
  O2-  O151  1  0.57147982  0.17846311  0.42326859  1
  O2-  O152  1  0.56960969  0.17763942  0.76263469  1
  O2-  O153  1  0.57289226  0.67958695  0.08734424  1
  O2-  O154  1  0.57126465  0.68050950  0.43229869  1
  O2-  O155  1  0.56898636  0.68212010  0.75805263  1
  O2-  O156  1  0.18103440  0.42958686  0.23268886  1
  O2-  O157  1  0.18143770  0.42816938  0.56790554  1
  O2-  O158  1  0.17894963  0.42541753  0.91129271  1
  O2-  O159  1  0.17678707  0.93033389  0.23501389  1
  O2-  O160  1  0.18050660  0.93022595  0.57086939  1
  O2-  O161  1  0.17737179  0.93032898  0.90150860  1
  O2-  O162  1  0.67969620  0.42431034  0.24202162  1
  O2-  O163  1  0.67821734  0.43117736  0.56827297  1
  O2-  O164  1  0.67923095  0.42705811  0.91273203  1
  O2-  O165  1  0.67633098  0.93096739  0.24318279  1
  O2-  O166  1  0.67790023  0.93032954  0.57621635  1
  O2-  O167  1  0.67435076  0.92903662  0.90961627  1
  O2-  O168  1  0.43057033  0.32306371  0.08875124  1
  O2-  O169  1  0.42795060  0.32024458  0.42178445  1
  O2-  O170  1  0.43202647  0.32708294  0.75401667  1
  O2-  O171  1  0.43029279  0.81797634  0.09908825  1
  O2-  O172  1  0.43107489  0.82428809  0.42151739  1
  O2-  O173  1  0.43055593  0.82092808  0.75526964  1
  O2-  O174  1  0.92839596  0.32227449  0.09737632  1
  O2-  O175  1  0.92878842  0.31975050  0.43408895  1
  O2-  O176  1  0.92957176  0.31903395  0.75622280  1
  O2-  O177  1  0.92914599  0.82212478  0.10325586  1
  O2-  O178  1  0.92839018  0.82195280  0.42314995  1
  O2-  O179  1  0.92510200  0.81972876  0.76316555  1
  O2-  O180  1  0.33318240  0.07027864  0.24374442  1
  O2-  O181  1  0.32374824  0.06540954  0.56767671  1
  O2-  O182  1  0.33028492  0.06639337  0.91214140  1
  O2-  O183  1  0.32235514  0.56849541  0.23425644  1
  O2-  O184  1  0.32806617  0.56903633  0.57650872  1
  O2-  O185  1  0.31759275  0.56979190  0.89938086  1
  O2-  O186  1  0.81738722  0.07092473  0.23332979  1
  O2-  O187  1  0.81728350  0.07229037  0.57790462  1
  O2-  O188  1  0.81768550  0.06904798  0.90828735  1
  O2-  O189  1  0.82006538  0.57402295  0.23403668  1
  O2-  O190  1  0.81754604  0.57310465  0.56905958  1
  O2-  O191  1  0.81733823  0.57440265  0.90321740  1
  O2-  O192  1  0.03982729  0.08327374  0.27439560  1
  O2-  O193  1  0.03880392  0.08632918  0.59760729  1
  O2-  O194  1  0.03363591  0.08410524  0.93189527  1
  O2-  O195  1  0.04408167  0.58864715  0.27017209  1
  O2-  O196  1  0.04278347  0.57877398  0.59908956  1
  O2-  O197  1  0.05206923  0.58381153  0.94358566  1
  O2-  O198  1  0.54563112  0.08539442  0.27147836  1
  O2-  O199  1  0.54069665  0.08293840  0.59404355  1
  O2-  O200  1  0.54094741  0.08207798  0.93258627  1
  O2-  O201  1  0.54586643  0.58016130  0.26331625  1
  O2-  O202  1  0.54499308  0.58571048  0.60684636  1
  O2-  O203  1  0.55161556  0.58030148  0.93897211  1
  O2-  O204  1  0.16877202  0.19328577  0.27302442  1
  O2-  O205  1  0.17251595  0.20807695  0.60127987  1
  O2-  O206  1  0.17436874  0.19465711  0.93786359  1
  O2-  O207  1  0.16490976  0.70859828  0.27360851  1
  O2-  O208  1  0.16959100  0.70682933  0.59572021  1
  O2-  O209  1  0.16403891  0.70823674  0.94002487  1
  O2-  O210  1  0.66275144  0.20724105  0.27026600  1
  O2-  O211  1  0.66822382  0.20988849  0.59527544  1
  O2-  O212  1  0.66479582  0.20848562  0.93080068  1
  O2-  O213  1  0.66576867  0.71423199  0.26278813  1
  O2-  O214  1  0.65836783  0.71198871  0.60415475  1
  O2-  O215  1  0.66286523  0.70808391  0.93458692  1
  O2-  O216  1  0.08436165  0.45068896  0.06231999  1
  O2-  O217  1  0.08202037  0.45742094  0.40062833  1
  O2-  O218  1  0.08367822  0.45794521  0.73716917  1
  O2-  O219  1  0.08014214  0.96236730  0.06812944  1
  O2-  O220  1  0.08354301  0.95925956  0.40547066  1
  O2-  O221  1  0.07645579  0.95823821  0.73311670  1
  O2-  O222  1  0.58587145  0.44942642  0.06453545  1
  O2-  O223  1  0.58423859  0.44887495  0.39221318  1
  O2-  O224  1  0.58116253  0.45744997  0.73758026  1
  O2-  O225  1  0.58472255  0.95813783  0.06358546  1
  O2-  O226  1  0.58251600  0.95178637  0.39496932  1
  O2-  O227  1  0.58771487  0.95972050  0.72870706  1
  O2-  O228  1  0.20344556  0.33084477  0.06289508  1
  O2-  O229  1  0.20735626  0.32783622  0.39641263  1
  O2-  O230  1  0.21397698  0.33505040  0.73712591  1
  O2-  O231  1  0.21131351  0.83651652  0.06914923  1
  O2-  O232  1  0.20996093  0.83512594  0.40485946  1
  O2-  O233  1  0.20761246  0.83087832  0.73467839  1
  O2-  O234  1  0.70536701  0.33117761  0.06234997  1
  O2-  O235  1  0.70526068  0.33400020  0.39490083  1
  O2-  O236  1  0.70286687  0.32755317  0.73295589  1
  O2-  O237  1  0.70123835  0.83676443  0.06267755  1
  O2-  O238  1  0.70433508  0.83633981  0.39530991  1
  O2-  O239  1  0.70297758  0.83818513  0.73072911  1
  O2-  O240  1  0.45743194  0.40988629  0.26688321  1
  O2-  O241  1  0.45748087  0.41778023  0.60153655  1
  O2-  O242  1  0.45720875  0.41568409  0.93560858  1
  O2-  O243  1  0.45597759  0.91333055  0.26740017  1
  O2-  O244  1  0.46389013  0.90908587  0.60047435  1
  O2-  O245  1  0.46186968  0.91161815  0.92947903  1
  O2-  O246  1  0.96051612  0.41892888  0.26652653  1
  O2-  O247  1  0.95008970  0.41876762  0.60963483  1
  O2-  O248  1  0.95413919  0.42449577  0.93238554  1
  O2-  O249  1  0.95801480  0.91535258  0.27375371  1
  O2-  O250  1  0.95312279  0.92070786  0.59719552  1
  O2-  O251  1  0.95669678  0.91555004  0.93419080  1
  O2-  O252  1  0.33760899  0.29134331  0.26683190  1
  O2-  O253  1  0.33667289  0.29879676  0.60205847  1
  O2-  O254  1  0.33317679  0.30276511  0.93812144  1
  O2-  O255  1  0.33137481  0.79887862  0.27267529  1
  O2-  O256  1  0.33557928  0.79916354  0.60314455  1
  O2-  O257  1  0.33117761  0.78710392  0.93181605  1
  O2-  O258  1  0.83504464  0.28833275  0.26552721  1
  O2-  O259  1  0.83656231  0.29267078  0.60509380  1
  O2-  O260  1  0.83382606  0.29182689  0.92935459  1
  O2-  O261  1  0.83690883  0.79674189  0.27129090  1
  O2-  O262  1  0.82628504  0.79580715  0.59678695  1
  O2-  O263  1  0.82935810  0.79317183  0.93620394  1
  O2-  O264  1  0.41617106  0.03801129  0.06509891  1
  O2-  O265  1  0.41839995  0.04245047  0.39758364  1
  O2-  O266  1  0.42094968  0.03603196  0.73259393  1
  O2-  O267  1  0.41895564  0.54147331  0.06517905  1
  O2-  O268  1  0.42258795  0.53907109  0.39852807  1
  O2-  O269  1  0.41516518  0.54651294  0.73121402  1
  O2-  O270  1  0.90866647  0.04112133  0.06265646  1
  O2-  O271  1  0.91294616  0.04077000  0.40453087  1
  O2-  O272  1  0.91217614  0.04498974  0.72958400  1
  O2-  O273  1  0.91894173  0.54494563  0.06939247  1
  O2-  O274  1  0.91655429  0.54254531  0.40104177  1
  O2-  O275  1  0.91917042  0.54891244  0.73657267  1
  O2-  O276  1  0.30879654  0.16795282  0.05994435  1
  O2-  O277  1  0.30541765  0.16627437  0.39389886  1
  O2-  O278  1  0.30680237  0.17193534  0.73122818  1
  O2-  O279  1  0.28963953  0.66521394  0.06929504  1
  O2-  O280  1  0.30155344  0.66977464  0.39982470  1
  O2-  O281  1  0.29966385  0.66839059  0.72391326  1
  O2-  O282  1  0.78925118  0.16264669  0.05951138  1
  O2-  O283  1  0.78722120  0.16730329  0.40254480  1
  O2-  O284  1  0.78939768  0.16193971  0.73080583  1
  O2-  O285  1  0.78628594  0.66783576  0.07015851  1
  O2-  O286  1  0.78819558  0.66948197  0.40025609  1
  O2-  O287  1  0.78604717  0.67067157  0.73391302  1
