# generated using pymatgen
data_Ca2Al2SiO7
_symmetry_space_group_name_H-M   'P 1'
_cell_length_a   15.46092193
_cell_length_b   15.46103069
_cell_length_c   15.28509095
_cell_angle_alpha   90.00056790
_cell_angle_beta   89.98492452
_cell_angle_gamma   90.01989153
_symmetry_Int_Tables_number   1
_chemical_formula_structural   Ca2Al2SiO7
_chemical_formula_sum   'Ca48 Al48 Si24 O168'
_cell_volume   3653.77513010
_cell_formula_units_Z   24
loop_
 _symmetry_equiv_pos_site_id
 _symmetry_equiv_pos_as_xyz
  1  'x, y, z'
loop_
 _atom_type_symbol
 _atom_type_oxidation_number
  Ca2+  2.0
  Al0+  0.0
  Si0+  0.0
  O2-  -2.0
loop_
 _atom_site_type_symbol
 _atom_site_label
 _atom_site_symmetry_multiplicity
 _atom_site_fract_x
 _atom_site_fract_y
 _atom_site_fract_z
 _atom_site_occupancy
  Ca2+  Ca0  1  0.17744719  0.08787496  0.17123119  1
  Ca2+  Ca1  1  0.17458666  0.08206116  0.50503100  1
  Ca2+  Ca2  1  0.17717309  0.07694682  0.83318583  1
  Ca2+  Ca3  1  0.17571157  0.57579883  0.17493035  1
  Ca2+  Ca4  1  0.16424833  0.57096416  0.50290498  1
  Ca2+  Ca5  1  0.16349628  0.57702613  0.83417059  1
  Ca2+  Ca6  1  0.66602002  0.08131719  0.16068839  1
  Ca2+  Ca7  1  0.67419969  0.07573169  0.51090670  1
  Ca2+  Ca8  1  0.67365555  0.07544312  0.84039327  1
  Ca2+  Ca9  1  0.67442225  0.58347886  0.16957002  1
  Ca2+  Ca10  1  0.67398008  0.59017475  0.50093472  1
  Ca2+  Ca11  1  0.67726657  0.58018086  0.84062826  1
  Ca2+  Ca12  1  0.08201714  0.33034970  0.16344487  1
  Ca2+  Ca13  1  0.08857077  0.33011317  0.49403618  1
  Ca2+  Ca14  1  0.07823742  0.33274916  0.83069578  1
  Ca2+  Ca15  1  0.07607825  0.82817878  0.15780990  1
  Ca2+  Ca16  1  0.07542773  0.84358013  0.50196391  1
  Ca2+  Ca17  1  0.07166264  0.83821577  0.82672415  1
  Ca2+  Ca18  1  0.57745166  0.32807751  0.15072724  1
  Ca2+  Ca19  1  0.58068990  0.32927335  0.49548631  1
  Ca2+  Ca20  1  0.58483249  0.32967087  0.83616005  1
  Ca2+  Ca21  1  0.58072920  0.82833489  0.15988757  1
  Ca2+  Ca22  1  0.58005497  0.83248360  0.49962433  1
  Ca2+  Ca23  1  0.57712580  0.84715352  0.83110105  1
  Ca2+  Ca24  1  0.33041567  0.41677603  0.17506527  1
  Ca2+  Ca25  1  0.32280508  0.42084880  0.50111144  1
  Ca2+  Ca26  1  0.32776003  0.41133072  0.83691705  1
  Ca2+  Ca27  1  0.34302665  0.92752833  0.16643163  1
  Ca2+  Ca28  1  0.32975187  0.92650354  0.51153141  1
  Ca2+  Ca29  1  0.33820767  0.92160029  0.83906155  1
  Ca2+  Ca30  1  0.83227442  0.42176389  0.16506222  1
  Ca2+  Ca31  1  0.83640291  0.43125999  0.50521070  1
  Ca2+  Ca32  1  0.83211287  0.42664663  0.84459235  1
  Ca2+  Ca33  1  0.83010117  0.91506564  0.16268043  1
  Ca2+  Ca34  1  0.82702728  0.92016784  0.51464344  1
  Ca2+  Ca35  1  0.82645618  0.91871620  0.84122932  1
  Ca2+  Ca36  1  0.41827360  0.16974138  0.15462323  1
  Ca2+  Ca37  1  0.41130849  0.16243959  0.49685487  1
  Ca2+  Ca38  1  0.41937568  0.16194397  0.83538184  1
  Ca2+  Ca39  1  0.42218509  0.66665679  0.15982920  1
  Ca2+  Ca40  1  0.42075967  0.67220058  0.49166873  1
  Ca2+  Ca41  1  0.42013804  0.68122064  0.82653677  1
  Ca2+  Ca42  1  0.92428716  0.17003296  0.15541290  1
  Ca2+  Ca43  1  0.92563762  0.16396325  0.49344548  1
  Ca2+  Ca44  1  0.90461679  0.17053222  0.83058788  1
  Ca2+  Ca45  1  0.91428871  0.66594716  0.16022246  1
  Ca2+  Ca46  1  0.90982498  0.67041455  0.49983719  1
  Ca2+  Ca47  1  0.90774429  0.67499916  0.83013352  1
  Al0+  Al48  1  0.00186737  -0.00234500  -0.00079660  1
  Al0+  Al49  1  0.00014646  0.00222782  0.32527927  1
  Al0+  Al50  1  0.00255308  0.00317697  0.66786159  1
  Al0+  Al51  1  0.00204532  0.49750118  0.00078968  1
  Al0+  Al52  1  -0.00193176  0.50177189  0.33999990  1
  Al0+  Al53  1  -0.00044936  0.50038621  0.67407769  1
  Al0+  Al54  1  0.50086760  0.00041017  0.00206728  1
  Al0+  Al55  1  0.50083646  -0.00002064  0.33787309  1
  Al0+  Al56  1  0.50151718  0.00178906  0.66598366  1
  Al0+  Al57  1  0.49967914  0.49954729  -0.00420902  1
  Al0+  Al58  1  0.50110982  0.50041328  0.33315888  1
  Al0+  Al59  1  0.49893019  0.49935075  0.66281695  1
  Al0+  Al60  1  0.24955360  0.24859991  -0.00087512  1
  Al0+  Al61  1  0.24990585  0.24844702  0.33619043  1
  Al0+  Al62  1  0.24918243  0.25107871  0.67380285  1
  Al0+  Al63  1  0.25005387  0.74806291  -0.00418726  1
  Al0+  Al64  1  0.24740739  0.75314745  0.33495613  1
  Al0+  Al65  1  0.24841643  0.74892605  0.66258333  1
  Al0+  Al66  1  0.75103843  0.25003745  -0.00051583  1
  Al0+  Al67  1  0.75007240  0.24998834  0.33301710  1
  Al0+  Al68  1  0.74830941  0.25239337  0.66364388  1
  Al0+  Al69  1  0.75099288  0.74974573  0.00458943  1
  Al0+  Al70  1  0.74683697  0.75018262  0.33275919  1
  Al0+  Al71  1  0.74899008  0.74991786  0.66990937  1
  Al0+  Al72  1  0.07159803  0.18050423  0.31888981  1
  Al0+  Al73  1  0.31905577  0.06882928  0.01461986  1
  Al0+  Al74  1  0.82410256  0.07169832  0.01613835  1
  Al0+  Al75  1  0.92958029  0.82120234  0.65365630  1
  Al0+  Al76  1  0.67855248  0.92941516  0.01781606  1
  Al0+  Al77  1  0.43035166  0.81960405  0.98780840  1
  Al0+  Al78  1  0.32421088  0.57436004  0.34725293  1
  Al0+  Al79  1  0.18023312  0.43035891  0.68284458  1
  Al0+  Al80  1  0.92938712  0.81939034  0.98657121  1
  Al0+  Al81  1  0.17972610  0.42973053  0.34725705  1
  Al0+  Al82  1  0.82208873  0.57035852  0.01661848  1
  Al0+  Al83  1  0.56945742  0.67971718  0.31854836  1
  Al0+  Al84  1  0.17832206  0.92620376  0.68120726  1
  Al0+  Al85  1  0.42673639  0.32263103  0.98407661  1
  Al0+  Al86  1  0.81849999  0.57142043  0.34850744  1
  Al0+  Al87  1  0.93083801  0.31954601  0.98658195  1
  Al0+  Al88  1  0.32087183  0.06813139  0.34674585  1
  Al0+  Al89  1  0.32151529  0.07028138  0.68340264  1
  Al0+  Al90  1  0.57173800  0.17871025  0.98413870  1
  Al0+  Al91  1  0.42837491  0.82285940  0.65148205  1
  Al0+  Al92  1  0.68032269  0.92918585  0.68137450  1
  Al0+  Al93  1  0.82336003  0.07380653  0.67886616  1
  Al0+  Al94  1  0.67725499  0.42853930  0.01431420  1
  Al0+  Al95  1  0.81881160  0.57009994  0.68162034  1
  Si0+  Si96  1  0.07290059  0.67618927  0.98326059  1
  Si0+  Si97  1  0.18062724  0.42841979  0.01562401  1
  Si0+  Si98  1  0.67482796  0.42732655  0.68182470  1
  Si0+  Si99  1  0.43053945  0.31877125  0.32082576  1
  Si0+  Si100  1  0.07067911  0.67749322  0.31946620  1
  Si0+  Si101  1  0.57270267  0.17726525  0.31902079  1
  Si0+  Si102  1  0.92755634  0.32416106  0.31790432  1
  Si0+  Si103  1  0.32387108  0.57247339  0.68288983  1
  Si0+  Si104  1  0.67760026  0.42536336  0.35040290  1
  Si0+  Si105  1  0.68088787  0.93009079  0.34938787  1
  Si0+  Si106  1  0.32076553  0.57236318  0.01190685  1
  Si0+  Si107  1  0.07050625  0.67507601  0.64838645  1
  Si0+  Si108  1  0.07191109  0.18213867  0.65167195  1
  Si0+  Si109  1  0.42643940  0.32091458  0.64911278  1
  Si0+  Si110  1  0.17320458  0.92839928  0.34854155  1
  Si0+  Si111  1  0.92832150  0.32295875  0.65102128  1
  Si0+  Si112  1  0.17853754  0.92441118  0.01734126  1
  Si0+  Si113  1  0.57312250  0.67726989  0.98256093  1
  Si0+  Si114  1  0.07322962  0.17646061  0.98087767  1
  Si0+  Si115  1  0.42648376  0.82366102  0.31759029  1
  Si0+  Si116  1  0.92812216  0.82065750  0.31883516  1
  Si0+  Si117  1  0.57085303  0.18092111  0.64907428  1
  Si0+  Si118  1  0.57064458  0.67648545  0.64957187  1
  Si0+  Si119  1  0.82250429  0.07205500  0.34668689  1
  O2-  O120  1  0.24594611  -0.00671842  0.06310575  1
  O2-  O121  1  0.24691970  -0.00797107  0.39149484  1
  O2-  O122  1  0.25612163  -0.00870234  0.73178062  1
  O2-  O123  1  0.25462489  0.49725463  0.05560359  1
  O2-  O124  1  0.24998938  0.50416963  0.39694528  1
  O2-  O125  1  0.25460018  0.50555285  0.72907091  1
  O2-  O126  1  0.75224345  0.00032823  0.06811447  1
  O2-  O127  1  0.75227018  0.00151642  0.39021182  1
  O2-  O128  1  0.75654710  -0.00220213  0.72878366  1
  O2-  O129  1  0.74862227  0.49975830  0.06654909  1
  O2-  O130  1  0.74571984  0.49432743  0.39510331  1
  O2-  O131  1  0.74336127  0.49545136  0.72542886  1
  O2-  O132  1  -0.00381681  0.25538302  0.27398302  1
  O2-  O133  1  -0.00325405  0.24950596  0.60873257  1
  O2-  O134  1  -0.00052484  0.24016125  0.93715424  1
  O2-  O135  1  0.00034643  0.74965623  0.27802280  1
  O2-  O136  1  0.00527735  0.74775530  0.60414974  1
  O2-  O137  1  0.00343813  0.74390915  0.94010244  1
  O2-  O138  1  0.50333041  0.25017494  0.27817621  1
  O2-  O139  1  0.49776542  0.25033139  0.60625368  1
  O2-  O140  1  0.50016566  0.25201101  0.93426605  1
  O2-  O141  1  0.48880641  0.74916588  0.27333107  1
  O2-  O142  1  0.50118025  0.74521684  0.60588307  1
  O2-  O143  1  0.50643765  0.74773702  0.93867809  1
  O2-  O144  1  0.07543768  0.18117314  0.08686182  1
  O2-  O145  1  0.06969702  0.17955550  0.43237270  1
  O2-  O146  1  0.07472232  0.18537951  0.75629074  1
  O2-  O147  1  0.07559087  0.67696065  0.08939910  1
  O2-  O148  1  0.07007548  0.67558404  0.42415971  1
  O2-  O149  1  0.06832400  0.67170778  0.75381436  1
  O2-  O150  1  0.56724582  0.17940590  0.09882923  1
  O2-  O151  1  0.57360329  0.17806994  0.42437771  1
  O2-  O152  1  0.57357831  0.18291757  0.75333724  1
  O2-  O153  1  0.56973562  0.67648233  0.08849790  1
  O2-  O154  1  0.57246578  0.68491871  0.43171823  1
  O2-  O155  1  0.56823996  0.67127510  0.75457386  1
  O2-  O156  1  0.18140277  0.43003530  0.23343199  1
  O2-  O157  1  0.18088360  0.42940361  0.56977927  1
  O2-  O158  1  0.17912473  0.42992788  0.91049271  1
  O2-  O159  1  0.16978404  0.92833976  0.24321572  1
  O2-  O160  1  0.17663658  0.93288048  0.56706235  1
  O2-  O161  1  0.17980124  0.92405312  0.91210633  1
  O2-  O162  1  0.67802227  0.42290262  0.24556336  1
  O2-  O163  1  0.67547502  0.42615148  0.57583542  1
  O2-  O164  1  0.67843295  0.43231754  0.90041862  1
  O2-  O165  1  0.67991544  0.92972464  0.24480168  1
  O2-  O166  1  0.68084538  0.93114510  0.56652472  1
  O2-  O167  1  0.67899731  0.93035480  0.90476305  1
  O2-  O168  1  0.42441161  0.32125396  0.09848766  1
  O2-  O169  1  0.43134872  0.31688531  0.42634795  1
  O2-  O170  1  0.42723819  0.32272011  0.75360993  1
  O2-  O171  1  0.42926545  0.81572483  0.10128656  1
  O2-  O172  1  0.43065651  0.82572807  0.42304364  1
  O2-  O173  1  0.43113006  0.82187886  0.76453205  1
  O2-  O174  1  0.93694197  0.32254169  0.09995726  1
  O2-  O175  1  0.92646080  0.32222932  0.42387412  1
  O2-  O176  1  0.92906338  0.32283787  0.75589218  1
  O2-  O177  1  0.93249835  0.81753706  0.10065799  1
  O2-  O178  1  0.92819268  0.82231332  0.42404381  1
  O2-  O179  1  0.92935001  0.81882388  0.76598947  1
  O2-  O180  1  0.32198073  0.06891651  0.23391707  1
  O2-  O181  1  0.31770225  0.07252099  0.56925039  1
  O2-  O182  1  0.31792516  0.06834940  0.90215252  1
  O2-  O183  1  0.32271935  0.57056030  0.23303726  1
  O2-  O184  1  0.32430309  0.56883967  0.57734192  1
  O2-  O185  1  0.31630512  0.57432035  0.90700794  1
  O2-  O186  1  0.82228730  0.07228504  0.24225461  1
  O2-  O187  1  0.82058610  0.07323440  0.56393925  1
  O2-  O188  1  0.82269639  0.06953019  0.90284221  1
  O2-  O189  1  0.81940824  0.57158627  0.23620968  1
  O2-  O190  1  0.81814648  0.56961597  0.56797719  1
  O2-  O191  1  0.82163295  0.56931726  0.90318163  1
  O2-  O192  1  0.04155916  0.08543219  0.26098825  1
  O2-  O193  1  0.04855490  0.08992730  0.60268559  1
  O2-  O194  1  0.05546700  0.08013921  0.93882229  1
  O2-  O195  1  0.04160665  0.58603648  0.27154890  1
  O2-  O196  1  0.03845124  0.58269362  0.60200540  1
  O2-  O197  1  0.04875432  0.58205600  0.93820644  1
  O2-  O198  1  0.54337025  0.08545871  0.27325594  1
  O2-  O199  1  0.54478224  0.08940312  0.60015765  1
  O2-  O200  1  0.54053697  0.08132033  0.93204158  1
  O2-  O201  1  0.54509055  0.58061771  0.26563631  1
  O2-  O202  1  0.54627118  0.58307965  0.60009630  1
  O2-  O203  1  0.54631829  0.58528574  0.93436228  1
  O2-  O204  1  0.16809930  0.21249932  0.26490312  1
  O2-  O205  1  0.16231445  0.21588823  0.60401139  1
  O2-  O206  1  0.16353369  0.20919116  0.93318937  1
  O2-  O207  1  0.16288553  0.70423126  0.27059460  1
  O2-  O208  1  0.16594244  0.69293651  0.60270552  1
  O2-  O209  1  0.16526156  0.70125661  0.93433333  1
  O2-  O210  1  0.66545996  0.20230398  0.27194778  1
  O2-  O211  1  0.66107301  0.21160678  0.59759921  1
  O2-  O212  1  0.67041750  0.20521670  0.93174813  1
  O2-  O213  1  0.66400957  0.71558618  0.26315332  1
  O2-  O214  1  0.66399417  0.70452111  0.60418841  1
  O2-  O215  1  0.66807794  0.70093190  0.94017060  1
  O2-  O216  1  0.09100927  0.45869374  0.06513726  1
  O2-  O217  1  0.08151378  0.45670955  0.40158166  1
  O2-  O218  1  0.08472485  0.46128045  0.73827424  1
  O2-  O219  1  0.08490640  0.94854960  0.06342222  1
  O2-  O220  1  0.08127275  0.96054952  0.39525844  1
  O2-  O221  1  0.08342232  0.96191570  0.73592420  1
  O2-  O222  1  0.57694060  0.45525440  0.06552084  1
  O2-  O223  1  0.58391956  0.45019097  0.39662450  1
  O2-  O224  1  0.58024993  0.45113404  0.72615632  1
  O2-  O225  1  0.58148262  0.95942354  0.07290607  1
  O2-  O226  1  0.58988845  0.95868695  0.39813078  1
  O2-  O227  1  0.58382992  0.96287639  0.73250058  1
  O2-  O228  1  0.20617842  0.33613355  0.06230848  1
  O2-  O229  1  0.21136732  0.33302931  0.40154010  1
  O2-  O230  1  0.21195991  0.33616341  0.73927367  1
  O2-  O231  1  0.20401479  0.82988430  0.06255997  1
  O2-  O232  1  0.19066039  0.83309787  0.39437553  1
  O2-  O233  1  0.19498661  0.82330970  0.72853792  1
  O2-  O234  1  0.70447991  0.33013905  0.06673219  1
  O2-  O235  1  0.70287122  0.33153738  0.39836501  1
  O2-  O236  1  0.70032566  0.33404378  0.72696880  1
  O2-  O237  1  0.70717004  0.83106120  0.07124637  1
  O2-  O238  1  0.70944629  0.83911727  0.39710946  1
  O2-  O239  1  0.70174365  0.82998738  0.73349811  1
  O2-  O240  1  0.45440879  0.41190373  0.27445576  1
  O2-  O241  1  0.45375588  0.41264608  0.59981090  1
  O2-  O242  1  0.45128334  0.42151040  0.92942829  1
  O2-  O243  1  0.46108558  0.91505775  0.27137878  1
  O2-  O244  1  0.46182442  0.91902157  0.59691268  1
  O2-  O245  1  0.45996254  0.91654172  0.93563997  1
  O2-  O246  1  0.95342466  0.41839476  0.27371360  1
  O2-  O247  1  0.96077993  0.41409724  0.60471797  1
  O2-  O248  1  0.96747797  0.41426386  0.93131011  1
  O2-  O249  1  0.95523821  0.91179928  0.26972668  1
  O2-  O250  1  0.96057491  0.91924953  0.59961619  1
  O2-  O251  1  0.96062702  0.91571421  0.93251088  1
  O2-  O252  1  0.33926417  0.28959442  0.27399332  1
  O2-  O253  1  0.33430189  0.29130273  0.60333639  1
  O2-  O254  1  0.32884971  0.29175340  0.93126346  1
  O2-  O255  1  0.32906639  0.80863231  0.27499768  1
  O2-  O256  1  0.33037239  0.79505802  0.59755228  1
  O2-  O257  1  0.33445045  0.78763650  0.93246451  1
  O2-  O258  1  0.83347915  0.29879939  0.27244577  1
  O2-  O259  1  0.83512108  0.30062432  0.60283545  1
  O2-  O260  1  0.83296860  0.29604087  0.93268877  1
  O2-  O261  1  0.83684051  0.79128161  0.27236449  1
  O2-  O262  1  0.83234479  0.78896478  0.59974078  1
  O2-  O263  1  0.83195645  0.78922910  0.93469323  1
  O2-  O264  1  0.41541854  0.03923381  0.06908030  1
  O2-  O265  1  0.41760537  0.03984124  0.40281930  1
  O2-  O266  1  0.42234122  0.04857485  0.73163724  1
  O2-  O267  1  0.41447453  0.54966435  0.05675370  1
  O2-  O268  1  0.42175277  0.54434033  0.40113815  1
  O2-  O269  1  0.41725796  0.54532094  0.72816931  1
  O2-  O270  1  0.92382125  0.04290971  0.06781865  1
  O2-  O271  1  0.91536234  0.04429935  0.39197574  1
  O2-  O272  1  0.92393184  0.05614493  0.72857628  1
  O2-  O273  1  0.92129749  0.53967790  0.06787709  1
  O2-  O274  1  0.91469005  0.54348943  0.40496436  1
  O2-  O275  1  0.91394954  0.53888071  0.73635795  1
  O2-  O276  1  0.28637722  0.16583397  0.06789946  1
  O2-  O277  1  0.28898750  0.16380479  0.40144562  1
  O2-  O278  1  0.28790136  0.16629170  0.73659764  1
  O2-  O279  1  0.28912463  0.66154357  0.06262842  1
  O2-  O280  1  0.29862208  0.67474055  0.39728992  1
  O2-  O281  1  0.30000731  0.66703530  0.72652223  1
  O2-  O282  1  0.79818718  0.17098554  0.06809088  1
  O2-  O283  1  0.79623711  0.16441278  0.39457987  1
  O2-  O284  1  0.79000318  0.17191635  0.72876509  1
  O2-  O285  1  0.79479135  0.66805931  0.07060251  1
  O2-  O286  1  0.78421383  0.66772746  0.40190358  1
  O2-  O287  1  0.78795571  0.66564882  0.73540834  1
