# generated using pymatgen
data_Ca2Al2SiO7
_symmetry_space_group_name_H-M   'P 1'
_cell_length_a   15.46425031
_cell_length_b   15.46448505
_cell_length_c   15.28797612
_cell_angle_alpha   90.00035933
_cell_angle_beta   89.99247388
_cell_angle_gamma   90.03665913
_symmetry_Int_Tables_number   1
_chemical_formula_structural   Ca2Al2SiO7
_chemical_formula_sum   'Ca48 Al48 Si24 O168'
_cell_volume   3656.06776624
_cell_formula_units_Z   24
loop_
 _symmetry_equiv_pos_site_id
 _symmetry_equiv_pos_as_xyz
  1  'x, y, z'
loop_
 _atom_type_symbol
 _atom_type_oxidation_number
  Ca2+  2.0
  Al0+  0.0
  Si0+  0.0
  O2-  -2.0
loop_
 _atom_site_type_symbol
 _atom_site_label
 _atom_site_symmetry_multiplicity
 _atom_site_fract_x
 _atom_site_fract_y
 _atom_site_fract_z
 _atom_site_occupancy
  Ca2+  Ca0  1  0.17627209  0.08636184  0.16950987  1
  Ca2+  Ca1  1  0.17274796  0.08792000  0.49870337  1
  Ca2+  Ca2  1  0.17075863  0.07022539  0.84227470  1
  Ca2+  Ca3  1  0.17894167  0.57059914  0.17009650  1
  Ca2+  Ca4  1  0.17566438  0.57670129  0.49953115  1
  Ca2+  Ca5  1  0.18084944  0.58024849  0.84078028  1
  Ca2+  Ca6  1  0.67363583  0.08519758  0.17759439  1
  Ca2+  Ca7  1  0.66512464  0.07997118  0.49913847  1
  Ca2+  Ca8  1  0.66988915  0.07681635  0.83752896  1
  Ca2+  Ca9  1  0.66723426  0.58017272  0.16986932  1
  Ca2+  Ca10  1  0.67138245  0.56763522  0.50563171  1
  Ca2+  Ca11  1  0.67216011  0.58420280  0.83651793  1
  Ca2+  Ca12  1  0.08613090  0.33407718  0.16680550  1
  Ca2+  Ca13  1  0.07514856  0.33096715  0.48505951  1
  Ca2+  Ca14  1  0.08476847  0.33567699  0.83289185  1
  Ca2+  Ca15  1  0.08378245  0.83385026  0.16112288  1
  Ca2+  Ca16  1  0.08591510  0.83300979  0.49715424  1
  Ca2+  Ca17  1  0.08653405  0.83566443  0.82694383  1
  Ca2+  Ca18  1  0.57398128  0.33352756  0.16782552  1
  Ca2+  Ca19  1  0.58445276  0.33025326  0.48812837  1
  Ca2+  Ca20  1  0.57873549  0.33483313  0.83247988  1
  Ca2+  Ca21  1  0.58539745  0.82751086  0.16173944  1
  Ca2+  Ca22  1  0.58340553  0.83521136  0.49709916  1
  Ca2+  Ca23  1  0.57771130  0.82759514  0.82649249  1
  Ca2+  Ca24  1  0.33450188  0.41975072  0.17463290  1
  Ca2+  Ca25  1  0.33962496  0.42592497  0.49924443  1
  Ca2+  Ca26  1  0.33210178  0.42506809  0.84439935  1
  Ca2+  Ca27  1  0.33259400  0.92872715  0.17008811  1
  Ca2+  Ca28  1  0.33243455  0.92376399  0.50577226  1
  Ca2+  Ca29  1  0.32512541  0.91523151  0.83797566  1
  Ca2+  Ca30  1  0.82907407  0.41892280  0.17367817  1
  Ca2+  Ca31  1  0.82280004  0.40932245  0.50175581  1
  Ca2+  Ca32  1  0.82660741  0.42607964  0.83617017  1
  Ca2+  Ca33  1  0.82680337  0.92869063  0.17227867  1
  Ca2+  Ca34  1  0.81992115  0.92124347  0.49889334  1
  Ca2+  Ca35  1  0.82600282  0.91995586  0.83830869  1
  Ca2+  Ca36  1  0.41171352  0.17488826  0.16400490  1
  Ca2+  Ca37  1  0.42315268  0.17405819  0.48544134  1
  Ca2+  Ca38  1  0.40811141  0.17300972  0.83468492  1
  Ca2+  Ca39  1  0.42082566  0.66175080  0.15947347  1
  Ca2+  Ca40  1  0.40737385  0.67222016  0.49774656  1
  Ca2+  Ca41  1  0.41797192  0.66618615  0.82856084  1
  Ca2+  Ca42  1  0.91614201  0.16773277  0.16696212  1
  Ca2+  Ca43  1  0.92379880  0.16973920  0.48471893  1
  Ca2+  Ca44  1  0.91699325  0.16424364  0.83123630  1
  Ca2+  Ca45  1  0.91602345  0.66742211  0.15829207  1
  Ca2+  Ca46  1  0.91417621  0.66580736  0.49666790  1
  Ca2+  Ca47  1  0.91617647  0.66171410  0.82867336  1
  Al0+  Al48  1  -0.00272564  -0.00054121  0.00472345  1
  Al0+  Al49  1  -0.00118552  -0.00129636  0.33156983  1
  Al0+  Al50  1  0.00116426  -0.00078715  0.66636480  1
  Al0+  Al51  1  -0.00104491  0.50105474  0.00418353  1
  Al0+  Al52  1  0.00295960  0.50255158  0.33118900  1
  Al0+  Al53  1  0.00023369  0.49936608  0.66647641  1
  Al0+  Al54  1  0.49943151  -0.00140868  0.00073689  1
  Al0+  Al55  1  0.49862834  -0.00138713  0.33613007  1
  Al0+  Al56  1  0.50015786  0.00079135  0.66818770  1
  Al0+  Al57  1  0.50212055  0.49940164  -0.00767186  1
  Al0+  Al58  1  0.50284201  0.50266229  0.33886587  1
  Al0+  Al59  1  0.50124257  0.50024305  0.67334799  1
  Al0+  Al60  1  0.24725102  0.24792463  -0.00208348  1
  Al0+  Al61  1  0.24818923  0.25016070  0.33495453  1
  Al0+  Al62  1  0.25010556  0.25070965  0.66385352  1
  Al0+  Al63  1  0.24863431  0.74774530  0.00671116  1
  Al0+  Al64  1  0.25014415  0.75032939  0.33310470  1
  Al0+  Al65  1  0.24975435  0.75002965  0.66836520  1
  Al0+  Al66  1  0.75024502  0.25051548  0.00001668  1
  Al0+  Al67  1  0.75204295  0.25070220  0.33264429  1
  Al0+  Al68  1  0.75003173  0.25017433  0.67106765  1
  Al0+  Al69  1  0.75034811  0.74972559  -0.00255711  1
  Al0+  Al70  1  0.74996060  0.75152973  0.33529050  1
  Al0+  Al71  1  0.75032822  0.75121804  0.67090051  1
  Al0+  Al72  1  0.42862213  0.81999346  0.65305452  1
  Al0+  Al73  1  0.67836129  0.42598894  0.68444130  1
  Al0+  Al74  1  0.43019645  0.32310273  0.32070794  1
  Al0+  Al75  1  0.17987191  0.93080609  0.67817900  1
  Al0+  Al76  1  0.67711359  0.92775725  0.34746322  1
  Al0+  Al77  1  0.82195788  0.57055363  0.68025588  1
  Al0+  Al78  1  0.17828992  0.42790054  0.01378362  1
  Al0+  Al79  1  0.32007959  0.07191250  0.34765643  1
  Al0+  Al80  1  0.17863916  0.42834508  0.34940303  1
  Al0+  Al81  1  0.32327813  0.57161830  0.34912742  1
  Al0+  Al82  1  0.81898124  0.07218871  0.01343176  1
  Al0+  Al83  1  0.67707626  0.92967185  0.68211216  1
  Al0+  Al84  1  0.07159260  0.17691918  0.31607784  1
  Al0+  Al85  1  0.42780020  0.31872126  0.98585909  1
  Al0+  Al86  1  0.17763154  0.92701926  0.01585527  1
  Al0+  Al87  1  0.68128777  0.43001270  0.34425718  1
  Al0+  Al88  1  0.57160809  0.67933970  0.98546647  1
  Al0+  Al89  1  0.32485973  0.56908700  0.01494659  1
  Al0+  Al90  1  0.92897414  0.32324547  0.31677376  1
  Al0+  Al91  1  0.82127837  0.07183810  0.34859358  1
  Al0+  Al92  1  0.81925995  0.57160514  0.01423841  1
  Al0+  Al93  1  0.57150080  0.17672603  0.31913311  1
  Al0+  Al94  1  0.31970306  0.57088653  0.68130711  1
  Al0+  Al95  1  0.32163423  0.07068834  0.01431272  1
  Si0+  Si96  1  0.82351052  0.57387752  0.34786933  1
  Si0+  Si97  1  0.57160536  0.17990782  0.65313483  1
  Si0+  Si98  1  0.92767703  0.81881227  0.31719755  1
  Si0+  Si99  1  0.92986514  0.32037671  0.65304514  1
  Si0+  Si100  1  0.93004760  0.82133014  0.98320682  1
  Si0+  Si101  1  0.42704484  0.82104667  0.31769330  1
  Si0+  Si102  1  0.32243789  0.07416414  0.68293072  1
  Si0+  Si103  1  0.67813386  0.92783085  0.01517146  1
  Si0+  Si104  1  0.06997229  0.67878476  0.98414220  1
  Si0+  Si105  1  0.57198938  0.68128275  0.32056721  1
  Si0+  Si106  1  0.57357239  0.67802540  0.64806161  1
  Si0+  Si107  1  0.17808000  0.92751197  0.34970198  1
  Si0+  Si108  1  0.07052568  0.17753811  0.65220605  1
  Si0+  Si109  1  0.07045513  0.67888089  0.65132324  1
  Si0+  Si110  1  0.67828367  0.42776874  0.01743463  1
  Si0+  Si111  1  0.92794964  0.32264968  0.98265737  1
  Si0+  Si112  1  0.17817646  0.42679020  0.68246697  1
  Si0+  Si113  1  0.06841798  0.17750666  0.98290818  1
  Si0+  Si114  1  0.07302449  0.68065877  0.31608781  1
  Si0+  Si115  1  0.42609755  0.82175262  0.98431929  1
  Si0+  Si116  1  0.92811462  0.82232398  0.65033867  1
  Si0+  Si117  1  0.42875925  0.32217272  0.65175392  1
  Si0+  Si118  1  0.82230708  0.07052074  0.68250789  1
  Si0+  Si119  1  0.57367206  0.17670707  0.98288461  1
  O2-  O120  1  0.25091993  -0.00252125  0.06453122  1
  O2-  O121  1  0.24378264  -0.00171375  0.39435003  1
  O2-  O122  1  0.25406533  0.00465286  0.72589877  1
  O2-  O123  1  0.25690277  0.49274027  0.06315525  1
  O2-  O124  1  0.25409745  0.49674059  0.39924322  1
  O2-  O125  1  0.24856535  0.49264108  0.72714702  1
  O2-  O126  1  0.73992848  0.00222341  0.05909675  1
  O2-  O127  1  0.74505919  0.00383209  0.39743994  1
  O2-  O128  1  0.75345694  0.00301402  0.72792242  1
  O2-  O129  1  0.74564366  0.49769386  0.06145308  1
  O2-  O130  1  0.76054027  0.50034770  0.39120444  1
  O2-  O131  1  0.74830518  0.50159766  0.73171610  1
  O2-  O132  1  0.00061387  0.25067678  0.26648209  1
  O2-  O133  1  0.00065025  0.24959227  0.61083272  1
  O2-  O134  1  -0.00134563  0.25055190  0.94015768  1
  O2-  O135  1  -0.00067356  0.74920012  0.27409018  1
  O2-  O136  1  -0.00277710  0.74849741  0.60879718  1
  O2-  O137  1  0.00220208  0.75217679  0.93956594  1
  O2-  O138  1  0.49812909  0.24755305  0.26953069  1
  O2-  O139  1  0.50099468  0.25163262  0.61145578  1
  O2-  O140  1  0.50163137  0.24196528  0.93823737  1
  O2-  O141  1  0.49956894  0.75063688  0.27768160  1
  O2-  O142  1  0.50322022  0.74538521  0.60392666  1
  O2-  O143  1  0.49391667  0.75212690  0.93997375  1
  O2-  O144  1  0.06719860  0.17578027  0.08718066  1
  O2-  O145  1  0.06858787  0.17645529  0.43077912  1
  O2-  O146  1  0.06928036  0.17625608  0.75755520  1
  O2-  O147  1  0.06658326  0.68011445  0.08913586  1
  O2-  O148  1  0.07323299  0.68282947  0.42170375  1
  O2-  O149  1  0.06979161  0.67961701  0.75651429  1
  O2-  O150  1  0.57682008  0.17852722  0.08779854  1
  O2-  O151  1  0.56975928  0.17837285  0.43363775  1
  O2-  O152  1  0.57201116  0.17971552  0.75841126  1
  O2-  O153  1  0.57378210  0.68240041  0.09906107  1
  O2-  O154  1  0.57478933  0.68294425  0.42547202  1
  O2-  O155  1  0.57364811  0.68056146  0.75378151  1
  O2-  O156  1  0.17759107  0.43296645  0.23637128  1
  O2-  O157  1  0.17647625  0.42716519  0.57745051  1
  O2-  O158  1  0.17751080  0.43256897  0.89931644  1
  O2-  O159  1  0.18096413  0.92450534  0.24449131  1
  O2-  O160  1  0.17838181  0.93247614  0.56543241  1
  O2-  O161  1  0.17683446  0.92840748  0.90171155  1
  O2-  O162  1  0.67886860  0.43547632  0.23143454  1
  O2-  O163  1  0.68096679  0.42348889  0.57086650  1
  O2-  O164  1  0.68155275  0.42666208  0.91168535  1
  O2-  O165  1  0.68266562  0.92184317  0.23412982  1
  O2-  O166  1  0.67877118  0.93106221  0.56954043  1
  O2-  O167  1  0.68114418  0.92783780  0.90924821  1
  O2-  O168  1  0.42951618  0.32030665  0.09833971  1
  O2-  O169  1  0.43483226  0.32341404  0.43501125  1
  O2-  O170  1  0.42530493  0.31883456  0.75690910  1
  O2-  O171  1  0.42876851  0.82324527  0.08989811  1
  O2-  O172  1  0.42415217  0.82007441  0.42299417  1
  O2-  O173  1  0.42863501  0.81838739  0.76620433  1
  O2-  O174  1  0.92643224  0.32316709  0.08699022  1
  O2-  O175  1  0.92985096  0.32206450  0.43138844  1
  O2-  O176  1  0.93150747  0.31990300  0.75854254  1
  O2-  O177  1  0.92899603  0.81945379  0.08833433  1
  O2-  O178  1  0.92705624  0.81665545  0.42263322  1
  O2-  O179  1  0.93008287  0.82526454  0.75550203  1
  O2-  O180  1  0.32102013  0.06872083  0.23502464  1
  O2-  O181  1  0.32116407  0.07524862  0.57749282  1
  O2-  O182  1  0.31778741  0.06992059  0.90006810  1
  O2-  O183  1  0.32283647  0.57329451  0.23607578  1
  O2-  O184  1  0.31681420  0.57152802  0.56860064  1
  O2-  O185  1  0.32085552  0.57104120  0.90101215  1
  O2-  O186  1  0.82123154  0.06772949  0.23503765  1
  O2-  O187  1  0.82313699  0.07054389  0.57751137  1
  O2-  O188  1  0.81980202  0.06884850  0.89954926  1
  O2-  O189  1  0.81940019  0.57788700  0.24238441  1
  O2-  O190  1  0.82301589  0.56888725  0.56667662  1
  O2-  O191  1  0.82032202  0.56994523  0.90133067  1
  O2-  O192  1  0.04310285  0.07765664  0.26416812  1
  O2-  O193  1  0.04237798  0.08650945  0.60359517  1
  O2-  O194  1  0.03587498  0.08611464  0.93550080  1
  O2-  O195  1  0.04784673  0.58926009  0.26780692  1
  O2-  O196  1  0.04382502  0.58668523  0.60323730  1
  O2-  O197  1  0.03852696  0.58819675  0.93609206  1
  O2-  O198  1  0.54694288  0.07606696  0.26889302  1
  O2-  O199  1  0.54431322  0.08814742  0.60585764  1
  O2-  O200  1  0.55194584  0.08084671  0.93836361  1
  O2-  O201  1  0.54523118  0.58974469  0.27305072  1
  O2-  O202  1  0.54987444  0.58190015  0.60639492  1
  O2-  O203  1  0.54658041  0.58294721  0.92829336  1
  O2-  O204  1  0.17052465  0.20384701  0.26472131  1
  O2-  O205  1  0.16325005  0.20381695  0.60529717  1
  O2-  O206  1  0.15951853  0.20237345  0.93233491  1
  O2-  O207  1  0.16289235  0.71256851  0.26742301  1
  O2-  O208  1  0.16024579  0.71049159  0.60291503  1
  O2-  O209  1  0.16345906  0.70439249  0.93825322  1
  O2-  O210  1  0.66975349  0.20590156  0.26785072  1
  O2-  O211  1  0.66464402  0.20665643  0.60696147  1
  O2-  O212  1  0.66597893  0.20599329  0.93400222  1
  O2-  O213  1  0.66307437  0.71071444  0.27132181  1
  O2-  O214  1  0.66743950  0.70587303  0.60348389  1
  O2-  O215  1  0.66703388  0.71356362  0.92940672  1
  O2-  O216  1  0.08269815  0.46196900  0.06743764  1
  O2-  O217  1  0.08165656  0.46406949  0.40320468  1
  O2-  O218  1  0.08491295  0.45327962  0.72842794  1
  O2-  O219  1  0.07913172  0.95499481  0.06748103  1
  O2-  O220  1  0.08231518  0.94751623  0.39296496  1
  O2-  O221  1  0.08316048  0.96049591  0.73358598  1
  O2-  O222  1  0.58438001  0.45379580  0.05990474  1
  O2-  O223  1  0.58909754  0.46520074  0.40347321  1
  O2-  O224  1  0.58033635  0.45239135  0.73785279  1
  O2-  O225  1  0.58214530  0.94423402  0.05839695  1
  O2-  O226  1  0.57789482  0.94912243  0.40056586  1
  O2-  O227  1  0.58179707  0.96176278  0.73774854  1
  O2-  O228  1  0.19582112  0.32590725  0.06055988  1
  O2-  O229  1  0.19821553  0.32839241  0.40122491  1
  O2-  O230  1  0.20143084  0.33184115  0.72763589  1
  O2-  O231  1  0.20094528  0.82826167  0.06903783  1
  O2-  O232  1  0.20655794  0.83525543  0.39717297  1
  O2-  O233  1  0.20876124  0.83446528  0.73288959  1
  O2-  O234  1  0.70526028  0.33484057  0.06251189  1
  O2-  O235  1  0.70978374  0.33380888  0.39959324  1
  O2-  O236  1  0.70995945  0.32952797  0.74011326  1
  O2-  O237  1  0.71124651  0.83704835  0.06115878  1
  O2-  O238  1  0.71338172  0.83261324  0.40396182  1
  O2-  O239  1  0.70833842  0.83389983  0.73645209  1
  O2-  O240  1  0.46319220  0.42157692  0.26967804  1
  O2-  O241  1  0.45556913  0.41568376  0.60797788  1
  O2-  O242  1  0.46091304  0.41345847  0.92865093  1
  O2-  O243  1  0.45458441  0.91232546  0.27011927  1
  O2-  O244  1  0.45804551  0.91862919  0.60128870  1
  O2-  O245  1  0.45132052  0.91516419  0.93643343  1
  O2-  O246  1  0.95604012  0.42338097  0.26566099  1
  O2-  O247  1  0.95659774  0.41200817  0.60492085  1
  O2-  O248  1  0.95816277  0.41446565  0.93553528  1
  O2-  O249  1  0.95435051  0.91035337  0.26939754  1
  O2-  O250  1  0.95955636  0.91249441  0.60145481  1
  O2-  O251  1  0.95601144  0.91389694  0.93570391  1
  O2-  O252  1  0.32988742  0.29836369  0.27182672  1
  O2-  O253  1  0.33685298  0.29500128  0.60325814  1
  O2-  O254  1  0.33082644  0.28831098  0.92968656  1
  O2-  O255  1  0.33610109  0.79259999  0.26897468  1
  O2-  O256  1  0.33184519  0.78872325  0.59852849  1
  O2-  O257  1  0.33084148  0.79621613  0.94096656  1
  O2-  O258  1  0.83094086  0.29616092  0.26336062  1
  O2-  O259  1  0.83707063  0.29235758  0.60782654  1
  O2-  O260  1  0.83641414  0.29410202  0.93389620  1
  O2-  O261  1  0.83694138  0.78919864  0.26836520  1
  O2-  O262  1  0.83561479  0.79578591  0.60365866  1
  O2-  O263  1  0.83913803  0.79201584  0.93450442  1
  O2-  O264  1  0.42131143  0.04567990  0.06601214  1
  O2-  O265  1  0.41504257  0.03878874  0.40312830  1
  O2-  O266  1  0.41587561  0.05087986  0.72882752  1
  O2-  O267  1  0.42590873  0.54508122  0.06280955  1
  O2-  O268  1  0.42150602  0.54804625  0.40429708  1
  O2-  O269  1  0.41749538  0.54528035  0.73413878  1
  O2-  O270  1  0.91246710  0.03734240  0.06858151  1
  O2-  O271  1  0.91821533  0.03721085  0.40161437  1
  O2-  O272  1  0.91542683  0.04315849  0.72883409  1
  O2-  O273  1  0.91531863  0.54252623  0.06854731  1
  O2-  O274  1  0.91978537  0.55648809  0.39030090  1
  O2-  O275  1  0.92035680  0.54082822  0.73385420  1
  O2-  O276  1  0.28965539  0.16779904  0.06572423  1
  O2-  O277  1  0.29044957  0.16742650  0.40381296  1
  O2-  O278  1  0.29420512  0.16759278  0.72852403  1
  O2-  O279  1  0.29408173  0.66579394  0.06862080  1
  O2-  O280  1  0.28780652  0.66903338  0.40111620  1
  O2-  O281  1  0.28463896  0.66539181  0.73587049  1
  O2-  O282  1  0.79391079  0.17037714  0.06560758  1
  O2-  O283  1  0.79865123  0.17121499  0.40058535  1
  O2-  O284  1  0.79758424  0.16365187  0.72984897  1
  O2-  O285  1  0.79032312  0.66925412  0.06678559  1
  O2-  O286  1  0.79301039  0.66471389  0.39660062  1
  O2-  O287  1  0.79868562  0.67031307  0.73259097  1
