# generated using pymatgen
data_Ca2Al2SiO7
_symmetry_space_group_name_H-M   'P 1'
_cell_length_a   15.45860653
_cell_length_b   15.45816129
_cell_length_c   15.28422967
_cell_angle_alpha   90.00105442
_cell_angle_beta   89.99929998
_cell_angle_gamma   89.99607394
_symmetry_Int_Tables_number   1
_chemical_formula_structural   Ca2Al2SiO7
_chemical_formula_sum   'Ca48 Al48 Si24 O168'
_cell_volume   3652.34447161
_cell_formula_units_Z   24
loop_
 _symmetry_equiv_pos_site_id
 _symmetry_equiv_pos_as_xyz
  1  'x, y, z'
loop_
 _atom_type_symbol
 _atom_type_oxidation_number
  Ca2+  2.0
  Al0+  0.0
  Si0+  0.0
  O2-  -2.0
loop_
 _atom_site_type_symbol
 _atom_site_label
 _atom_site_symmetry_multiplicity
 _atom_site_fract_x
 _atom_site_fract_y
 _atom_site_fract_z
 _atom_site_occupancy
  Ca2+  Ca0  1  0.17636586  0.07881302  0.17567838  1
  Ca2+  Ca1  1  0.18197114  0.07588655  0.50868563  1
  Ca2+  Ca2  1  0.16979205  0.07384115  0.83194462  1
  Ca2+  Ca3  1  0.16569168  0.57413566  0.16825365  1
  Ca2+  Ca4  1  0.16545074  0.58097648  0.50354443  1
  Ca2+  Ca5  1  0.16324027  0.58303237  0.83863806  1
  Ca2+  Ca6  1  0.67090019  0.08308071  0.16578222  1
  Ca2+  Ca7  1  0.66722441  0.08309672  0.51096942  1
  Ca2+  Ca8  1  0.67484040  0.08735975  0.83241407  1
  Ca2+  Ca9  1  0.66196001  0.58094058  0.17444285  1
  Ca2+  Ca10  1  0.66741535  0.57563053  0.50509432  1
  Ca2+  Ca11  1  0.66716382  0.57628597  0.83852898  1
  Ca2+  Ca12  1  0.08508566  0.33666437  0.16148966  1
  Ca2+  Ca13  1  0.07549585  0.33880431  0.49697440  1
  Ca2+  Ca14  1  0.07582997  0.33370102  0.82670011  1
  Ca2+  Ca15  1  0.08218570  0.82327119  0.15913040  1
  Ca2+  Ca16  1  0.08136626  0.83303733  0.50584798  1
  Ca2+  Ca17  1  0.08260145  0.82221087  0.82197484  1
  Ca2+  Ca18  1  0.57208950  0.34458370  0.16330280  1
  Ca2+  Ca19  1  0.58527873  0.33000715  0.49671832  1
  Ca2+  Ca20  1  0.58527124  0.33277588  0.82855946  1
  Ca2+  Ca21  1  0.57577996  0.82194469  0.16261996  1
  Ca2+  Ca22  1  0.57412974  0.83107161  0.49259490  1
  Ca2+  Ca23  1  0.57573459  0.83142829  0.83047306  1
  Ca2+  Ca24  1  0.32558627  0.40874204  0.17280950  1
  Ca2+  Ca25  1  0.32950937  0.41278644  0.49949307  1
  Ca2+  Ca26  1  0.32762063  0.41710802  0.84257091  1
  Ca2+  Ca27  1  0.34275627  0.91923717  0.17225680  1
  Ca2+  Ca28  1  0.33754132  0.92158400  0.51029629  1
  Ca2+  Ca29  1  0.33786330  0.91493084  0.83195510  1
  Ca2+  Ca30  1  0.81583669  0.42575213  0.17429300  1
  Ca2+  Ca31  1  0.82427044  0.42646063  0.50782076  1
  Ca2+  Ca32  1  0.82296035  0.41603694  0.83201903  1
  Ca2+  Ca33  1  0.83382145  0.92184470  0.16806255  1
  Ca2+  Ca34  1  0.83259669  0.92102403  0.51058298  1
  Ca2+  Ca35  1  0.84561116  0.92827144  0.83369219  1
  Ca2+  Ca36  1  0.41318546  0.17630709  0.16577953  1
  Ca2+  Ca37  1  0.41898976  0.16554337  0.49632602  1
  Ca2+  Ca38  1  0.42213221  0.17244048  0.82612336  1
  Ca2+  Ca39  1  0.42705588  0.67099964  0.16002238  1
  Ca2+  Ca40  1  0.42146113  0.67820670  0.49373018  1
  Ca2+  Ca41  1  0.42108326  0.67469679  0.83051148  1
  Ca2+  Ca42  1  0.91838248  0.16819601  0.16005038  1
  Ca2+  Ca43  1  0.91154513  0.17410039  0.50178740  1
  Ca2+  Ca44  1  0.91021806  0.17142017  0.82325692  1
  Ca2+  Ca45  1  0.91953185  0.66160503  0.16343642  1
  Ca2+  Ca46  1  0.91521552  0.66175401  0.50143369  1
  Ca2+  Ca47  1  0.92729928  0.66447961  0.82262291  1
  Al0+  Al48  1  0.00303893  0.00102617  0.00724154  1
  Al0+  Al49  1  0.00183427  -0.00000549  0.33257868  1
  Al0+  Al50  1  0.00332788  -0.00118819  0.66981061  1
  Al0+  Al51  1  -0.00111890  0.49833162  0.00015025  1
  Al0+  Al52  1  -0.00144469  0.49960240  0.33813942  1
  Al0+  Al53  1  -0.00135110  0.49876433  0.66123795  1
  Al0+  Al54  1  0.50211168  0.00163291  -0.00163979  1
  Al0+  Al55  1  0.50248672  0.00220572  0.33190188  1
  Al0+  Al56  1  0.50164660  0.00280030  0.66512388  1
  Al0+  Al57  1  0.49791085  0.50117258  -0.00532290  1
  Al0+  Al58  1  0.49731777  0.49880086  0.33180522  1
  Al0+  Al59  1  0.49698970  0.49916341  0.67025032  1
  Al0+  Al60  1  0.24932202  0.24833319  -0.00152770  1
  Al0+  Al61  1  0.24934350  0.24656933  0.33980720  1
  Al0+  Al62  1  0.25025985  0.24909129  0.67130252  1
  Al0+  Al63  1  0.24863561  0.74956492  -0.00545524  1
  Al0+  Al64  1  0.24619374  0.75009725  0.32887078  1
  Al0+  Al65  1  0.25024834  0.74872910  0.66075727  1
  Al0+  Al66  1  0.75018525  0.25162725  0.01117149  1
  Al0+  Al67  1  0.75131523  0.25156212  0.33320066  1
  Al0+  Al68  1  0.74882417  0.24983072  0.66434841  1
  Al0+  Al69  1  0.75067526  0.75297687  -0.00405464  1
  Al0+  Al70  1  0.75183276  0.75258050  0.33191402  1
  Al0+  Al71  1  0.75115342  0.74859386  0.66814784  1
  Al0+  Al72  1  0.42919499  0.82293832  0.98363268  1
  Al0+  Al73  1  0.17881778  0.42831731  0.01224350  1
  Al0+  Al74  1  0.82006360  0.57362829  0.34850937  1
  Al0+  Al75  1  0.57333488  0.67785145  0.98268118  1
  Al0+  Al76  1  0.67752601  0.42921146  0.68252352  1
  Al0+  Al77  1  0.42727445  0.31997013  0.98610762  1
  Al0+  Al78  1  0.07105264  0.67746771  0.64819621  1
  Al0+  Al79  1  0.06724489  0.67745374  0.98722630  1
  Al0+  Al80  1  0.56985252  0.18233530  0.65425905  1
  Al0+  Al81  1  0.43207388  0.82005428  0.65251763  1
  Al0+  Al82  1  0.67686868  0.43153571  0.01513317  1
  Al0+  Al83  1  0.18196484  0.92706233  0.68250914  1
  Al0+  Al84  1  0.67451142  0.42941751  0.34979939  1
  Al0+  Al85  1  0.82087333  0.06934793  0.67751797  1
  Al0+  Al86  1  0.32466209  0.07164531  0.68503330  1
  Al0+  Al87  1  0.92813186  0.82239031  0.65240181  1
  Al0+  Al88  1  0.42716918  0.82340038  0.31877951  1
  Al0+  Al89  1  0.17963306  0.42833290  0.34796163  1
  Al0+  Al90  1  0.57145825  0.67929764  0.32048567  1
  Al0+  Al91  1  0.92898308  0.31890757  0.65260397  1
  Al0+  Al92  1  0.82190421  0.57175506  0.68380948  1
  Al0+  Al93  1  0.32197618  0.06771347  0.34680680  1
  Al0+  Al94  1  0.82186946  0.07080114  0.01495755  1
  Al0+  Al95  1  0.42793308  0.31801703  0.32165542  1
  Si0+  Si96  1  0.32026367  0.57389713  0.34872193  1
  Si0+  Si97  1  0.68169458  0.93176485  0.34712011  1
  Si0+  Si98  1  0.17629752  0.92584040  0.34967228  1
  Si0+  Si99  1  0.06906497  0.67673186  0.31651159  1
  Si0+  Si100  1  0.92892862  0.31791547  0.98708556  1
  Si0+  Si101  1  0.57412855  0.18019174  0.98453945  1
  Si0+  Si102  1  0.92956170  0.82553522  0.98466945  1
  Si0+  Si103  1  0.42471288  0.32352519  0.65022751  1
  Si0+  Si104  1  0.18056613  0.92774129  0.01660934  1
  Si0+  Si105  1  0.57595030  0.17850888  0.31436649  1
  Si0+  Si106  1  0.32197090  0.07028618  0.01545044  1
  Si0+  Si107  1  0.31977936  0.57090404  0.68119618  1
  Si0+  Si108  1  0.57235651  0.67494895  0.65067573  1
  Si0+  Si109  1  0.67738703  0.92658614  0.68242483  1
  Si0+  Si110  1  0.31995618  0.57316375  0.01593289  1
  Si0+  Si111  1  0.06915312  0.17941765  0.31871150  1
  Si0+  Si112  1  0.82403204  0.07143194  0.34861710  1
  Si0+  Si113  1  0.82179075  0.57330102  0.01470447  1
  Si0+  Si114  1  0.93003338  0.82409504  0.31683011  1
  Si0+  Si115  1  0.07437738  0.17742157  0.64985480  1
  Si0+  Si116  1  0.67697898  0.92778410  0.01770121  1
  Si0+  Si117  1  0.17807388  0.42875248  0.68129911  1
  Si0+  Si118  1  0.92926505  0.32194956  0.31578760  1
  Si0+  Si119  1  0.07161082  0.17727951  0.98509807  1
  O2-  O120  1  0.25528183  -0.00488439  0.05855335  1
  O2-  O121  1  0.25325932  -0.01369336  0.39110783  1
  O2-  O122  1  0.25445919  -0.00237731  0.73470621  1
  O2-  O123  1  0.25453493  0.50096696  0.06058816  1
  O2-  O124  1  0.25327601  0.50379577  0.39447268  1
  O2-  O125  1  0.24898856  0.49914365  0.72343742  1
  O2-  O126  1  0.74870804  -0.00535531  0.06169220  1
  O2-  O127  1  0.75080059  0.00397874  0.39066615  1
  O2-  O128  1  0.75202178  -0.00997995  0.72574480  1
  O2-  O129  1  0.74671397  0.51237175  0.05986948  1
  O2-  O130  1  0.74492136  0.50422574  0.39713859  1
  O2-  O131  1  0.74663415  0.50345767  0.73367812  1
  O2-  O132  1  -0.00044979  0.25007341  0.27287315  1
  O2-  O133  1  0.00523335  0.24517428  0.60483886  1
  O2-  O134  1  -0.00122368  0.24618224  0.94328924  1
  O2-  O135  1  -0.00135497  0.74979626  0.27577860  1
  O2-  O136  1  -0.00338956  0.74839018  0.59959291  1
  O2-  O137  1  -0.00781363  0.75171686  0.94133755  1
  O2-  O138  1  0.50728586  0.24853458  0.27258451  1
  O2-  O139  1  0.49404348  0.25549464  0.60719907  1
  O2-  O140  1  0.50549328  0.24873019  0.94057370  1
  O2-  O141  1  0.49620290  0.74830695  0.26985919  1
  O2-  O142  1  0.50883738  0.74792377  0.60569036  1
  O2-  O143  1  0.50159034  0.75123093  0.93429596  1
  O2-  O144  1  0.07184592  0.17723610  0.09064454  1
  O2-  O145  1  0.06561208  0.17837795  0.42325380  1
  O2-  O146  1  0.07450820  0.18046445  0.75596419  1
  O2-  O147  1  0.06606217  0.67807657  0.10103200  1
  O2-  O148  1  0.07044477  0.67621011  0.42076955  1
  O2-  O149  1  0.07123598  0.67659116  0.76202079  1
  O2-  O150  1  0.57267891  0.17829420  0.09030911  1
  O2-  O151  1  0.57745006  0.17605517  0.41965478  1
  O2-  O152  1  0.57143874  0.18400842  0.76756460  1
  O2-  O153  1  0.57187265  0.67895465  0.09648532  1
  O2-  O154  1  0.57149071  0.68364928  0.43408919  1
  O2-  O155  1  0.56816555  0.67391958  0.75604823  1
  O2-  O156  1  0.17917295  0.42875362  0.23460293  1
  O2-  O157  1  0.18004316  0.42792616  0.57606387  1
  O2-  O158  1  0.17787878  0.42853350  0.89921595  1
  O2-  O159  1  0.17012028  0.93000694  0.24376542  1
  O2-  O160  1  0.18292821  0.92959773  0.56857106  1
  O2-  O161  1  0.17624366  0.93042452  0.91233292  1
  O2-  O162  1  0.67656354  0.42935682  0.23584344  1
  O2-  O163  1  0.67732092  0.42931548  0.56917237  1
  O2-  O164  1  0.68212182  0.42605240  0.90270915  1
  O2-  O165  1  0.68440234  0.93309923  0.24189942  1
  O2-  O166  1  0.67606642  0.93045959  0.57630585  1
  O2-  O167  1  0.67473402  0.92950297  0.91260406  1
  O2-  O168  1  0.42391443  0.31604856  0.09937303  1
  O2-  O169  1  0.42563787  0.31362098  0.43431212  1
  O2-  O170  1  0.42286548  0.32290198  0.75590806  1
  O2-  O171  1  0.43060282  0.82255863  0.09727700  1
  O2-  O172  1  0.43008857  0.82367064  0.43224645  1
  O2-  O173  1  0.43306573  0.81749354  0.76543949  1
  O2-  O174  1  0.93203766  0.31625429  0.09242199  1
  O2-  O175  1  0.92943458  0.31956689  0.42060987  1
  O2-  O176  1  0.93026146  0.31681246  0.76641142  1
  O2-  O177  1  0.93306908  0.82744619  0.09099495  1
  O2-  O178  1  0.93147956  0.83106483  0.42079993  1
  O2-  O179  1  0.93374151  0.82490699  0.76598088  1
  O2-  O180  1  0.31753498  0.06970904  0.23291040  1
  O2-  O181  1  0.32281841  0.07150896  0.57123863  1
  O2-  O182  1  0.31932124  0.07179085  0.91101399  1
  O2-  O183  1  0.31696978  0.57476922  0.24318899  1
  O2-  O184  1  0.32072375  0.56943462  0.57592563  1
  O2-  O185  1  0.31634922  0.57318063  0.91009705  1
  O2-  O186  1  0.82573455  0.06888822  0.24325325  1
  O2-  O187  1  0.81761973  0.06999194  0.56403696  1
  O2-  O188  1  0.82260730  0.07176254  0.90228488  1
  O2-  O189  1  0.82273293  0.57014559  0.23427397  1
  O2-  O190  1  0.82066757  0.56886594  0.57044244  1
  O2-  O191  1  0.82543834  0.56827713  0.90990655  1
  O2-  O192  1  0.04110628  0.08792322  0.26870862  1
  O2-  O193  1  0.05103202  0.08336360  0.60536845  1
  O2-  O194  1  0.04518305  0.08430987  0.93986564  1
  O2-  O195  1  0.03887939  0.58515058  0.26925112  1
  O2-  O196  1  0.04385140  0.57905938  0.59486198  1
  O2-  O197  1  0.03781422  0.58065923  0.93268167  1
  O2-  O198  1  0.54938514  0.08573005  0.26686133  1
  O2-  O199  1  0.54173415  0.08599413  0.59795367  1
  O2-  O200  1  0.55027894  0.08660612  0.93819986  1
  O2-  O201  1  0.54395295  0.58039707  0.26814602  1
  O2-  O202  1  0.53976822  0.58318911  0.60450352  1
  O2-  O203  1  0.54289280  0.58117409  0.92828860  1
  O2-  O204  1  0.16136391  0.20666608  0.27218896  1
  O2-  O205  1  0.16784984  0.20492249  0.60427482  1
  O2-  O206  1  0.16164039  0.20576191  0.93584593  1
  O2-  O207  1  0.16014835  0.70318039  0.26634902  1
  O2-  O208  1  0.16822759  0.70705067  0.59335944  1
  O2-  O209  1  0.16322391  0.70780469  0.93299111  1
  O2-  O210  1  0.67067572  0.20157522  0.26822434  1
  O2-  O211  1  0.66463867  0.21220840  0.59645569  1
  O2-  O212  1  0.66886404  0.20743453  0.94196637  1
  O2-  O213  1  0.66924191  0.71138684  0.26651276  1
  O2-  O214  1  0.66849655  0.69410679  0.60868724  1
  O2-  O215  1  0.67256426  0.70557106  0.93043024  1
  O2-  O216  1  0.08233186  0.45946962  0.06760781  1
  O2-  O217  1  0.08347767  0.45925213  0.40168098  1
  O2-  O218  1  0.08579188  0.45584376  0.72694391  1
  O2-  O219  1  0.09165148  0.95943097  0.06872120  1
  O2-  O220  1  0.08637420  0.96096196  0.39784900  1
  O2-  O221  1  0.08508540  0.95786581  0.73761618  1
  O2-  O222  1  0.57713572  0.45828865  0.06490041  1
  O2-  O223  1  0.57427047  0.45177887  0.40119374  1
  O2-  O224  1  0.57704159  0.45301537  0.73430783  1
  O2-  O225  1  0.58546764  0.95825082  0.06637543  1
  O2-  O226  1  0.58996190  0.95894608  0.39457851  1
  O2-  O227  1  0.58784935  0.96061469  0.73072125  1
  O2-  O228  1  0.20758676  0.33012806  0.06579063  1
  O2-  O229  1  0.20889941  0.33234687  0.40326257  1
  O2-  O230  1  0.20363031  0.33685419  0.72991069  1
  O2-  O231  1  0.20417105  0.83410292  0.06259402  1
  O2-  O232  1  0.19104137  0.82888343  0.39166531  1
  O2-  O233  1  0.20901051  0.82713574  0.73253074  1
  O2-  O234  1  0.71183112  0.33804269  0.07320713  1
  O2-  O235  1  0.70766519  0.33032616  0.39941818  1
  O2-  O236  1  0.71181037  0.33204377  0.73426572  1
  O2-  O237  1  0.70242458  0.83402912  0.06426736  1
  O2-  O238  1  0.71064069  0.84120462  0.39500389  1
  O2-  O239  1  0.69466887  0.83098583  0.72658417  1
  O2-  O240  1  0.45022933  0.41658911  0.26718374  1
  O2-  O241  1  0.44753424  0.41805952  0.60505260  1
  O2-  O242  1  0.45075895  0.41792502  0.93278074  1
  O2-  O243  1  0.46072513  0.92075529  0.26578175  1
  O2-  O244  1  0.46148499  0.91784511  0.60085941  1
  O2-  O245  1  0.45793471  0.92233704  0.93217784  1
  O2-  O246  1  0.95945483  0.41329124  0.26945473  1
  O2-  O247  1  0.96104643  0.41306699  0.59569450  1
  O2-  O248  1  0.95771632  0.40871256  0.93948450  1
  O2-  O249  1  0.96158532  0.91437364  0.26620838  1
  O2-  O250  1  0.96012271  0.92060875  0.59877163  1
  O2-  O251  1  0.96228972  0.91797835  0.94050641  1
  O2-  O252  1  0.33170435  0.28121092  0.26821728  1
  O2-  O253  1  0.33079712  0.29684682  0.60499393  1
  O2-  O254  1  0.33204206  0.28560120  0.93090285  1
  O2-  O255  1  0.32570046  0.80150140  0.26819109  1
  O2-  O256  1  0.33684018  0.78781801  0.59767791  1
  O2-  O257  1  0.33034468  0.79513847  0.93188662  1
  O2-  O258  1  0.83757369  0.29366554  0.26771497  1
  O2-  O259  1  0.83497728  0.28483161  0.59659178  1
  O2-  O260  1  0.83663510  0.28851652  0.94249118  1
  O2-  O261  1  0.83826941  0.79970198  0.26764713  1
  O2-  O262  1  0.82714713  0.80004147  0.60088398  1
  O2-  O263  1  0.83322397  0.81159770  0.94169054  1
  O2-  O264  1  0.41591915  0.04788464  0.06162991  1
  O2-  O265  1  0.42169058  0.04539302  0.39832708  1
  O2-  O266  1  0.42378500  0.04534986  0.73683165  1
  O2-  O267  1  0.41487757  0.55083576  0.05928610  1
  O2-  O268  1  0.41359156  0.54971604  0.39483078  1
  O2-  O269  1  0.41005828  0.54383270  0.73197924  1
  O2-  O270  1  0.91868265  0.04103600  0.07180917  1
  O2-  O271  1  0.91530747  0.04158615  0.39516931  1
  O2-  O272  1  0.91909212  0.04526507  0.73198462  1
  O2-  O273  1  0.91211392  0.53978190  0.06386873  1
  O2-  O274  1  0.91654930  0.54071444  0.40213703  1
  O2-  O275  1  0.92038523  0.53754092  0.73374012  1
  O2-  O276  1  0.28741202  0.15969350  0.06392874  1
  O2-  O277  1  0.28371281  0.15952568  0.40407265  1
  O2-  O278  1  0.29341031  0.16961299  0.73829049  1
  O2-  O279  1  0.29037609  0.66554043  0.06268620  1
  O2-  O280  1  0.29119507  0.66713204  0.39479496  1
  O2-  O281  1  0.29075296  0.66192770  0.72814821  1
  O2-  O282  1  0.79045654  0.16490201  0.07405325  1
  O2-  O283  1  0.80028135  0.16542058  0.39242056  1
  O2-  O284  1  0.78516602  0.16380255  0.73217829  1
  O2-  O285  1  0.80647895  0.67148952  0.05605305  1
  O2-  O286  1  0.80068958  0.67558899  0.39770311  1
  O2-  O287  1  0.80208501  0.67284749  0.73520503  1
