# generated using pymatgen
data_Ca2Al2SiO7
_symmetry_space_group_name_H-M   'P 1'
_cell_length_a   15.46385127
_cell_length_b   15.46278727
_cell_length_c   15.28695115
_cell_angle_alpha   90.01934240
_cell_angle_beta   89.99763342
_cell_angle_gamma   89.99262788
_symmetry_Int_Tables_number   1
_chemical_formula_structural   Ca2Al2SiO7
_chemical_formula_sum   'Ca48 Al48 Si24 O168'
_cell_volume   3655.32750351
_cell_formula_units_Z   24
loop_
 _symmetry_equiv_pos_site_id
 _symmetry_equiv_pos_as_xyz
  1  'x, y, z'
loop_
 _atom_type_symbol
 _atom_type_oxidation_number
  Ca2+  2.0
  Al0+  0.0
  Si0+  0.0
  O2-  -2.0
loop_
 _atom_site_type_symbol
 _atom_site_label
 _atom_site_symmetry_multiplicity
 _atom_site_fract_x
 _atom_site_fract_y
 _atom_site_fract_z
 _atom_site_occupancy
  Ca2+  Ca0  1  0.17338667  0.08026774  0.16597452  1
  Ca2+  Ca1  1  0.17599430  0.07790959  0.51100678  1
  Ca2+  Ca2  1  0.16899813  0.07810085  0.83996064  1
  Ca2+  Ca3  1  0.16494564  0.58023417  0.16872775  1
  Ca2+  Ca4  1  0.16777644  0.58638345  0.50038209  1
  Ca2+  Ca5  1  0.15829484  0.57028522  0.83591493  1
  Ca2+  Ca6  1  0.66739070  0.08501616  0.16708286  1
  Ca2+  Ca7  1  0.67163055  0.07999616  0.50383621  1
  Ca2+  Ca8  1  0.66854005  0.08401915  0.83932522  1
  Ca2+  Ca9  1  0.67174481  0.57473873  0.16868031  1
  Ca2+  Ca10  1  0.66683394  0.57249844  0.50606570  1
  Ca2+  Ca11  1  0.67507605  0.57259685  0.84243847  1
  Ca2+  Ca12  1  0.08143651  0.32764836  0.15228132  1
  Ca2+  Ca13  1  0.08715492  0.33189037  0.50278179  1
  Ca2+  Ca14  1  0.08379485  0.32863076  0.82595238  1
  Ca2+  Ca15  1  0.07805684  0.82924975  0.16035932  1
  Ca2+  Ca16  1  0.07750505  0.83428734  0.49454745  1
  Ca2+  Ca17  1  0.07706649  0.84161644  0.82865682  1
  Ca2+  Ca18  1  0.58434740  0.33176265  0.15928479  1
  Ca2+  Ca19  1  0.58602252  0.33569114  0.49697612  1
  Ca2+  Ca20  1  0.58966456  0.33002909  0.83205876  1
  Ca2+  Ca21  1  0.56879962  0.83411152  0.15932828  1
  Ca2+  Ca22  1  0.57017134  0.83190489  0.49582245  1
  Ca2+  Ca23  1  0.56924827  0.83338023  0.82958877  1
  Ca2+  Ca24  1  0.32641492  0.42150731  0.17035258  1
  Ca2+  Ca25  1  0.32812726  0.42816517  0.50585826  1
  Ca2+  Ca26  1  0.31990937  0.41414980  0.83745422  1
  Ca2+  Ca27  1  0.33492282  0.92331245  0.16908505  1
  Ca2+  Ca28  1  0.33207498  0.92282930  0.50851243  1
  Ca2+  Ca29  1  0.32407868  0.92122846  0.83885316  1
  Ca2+  Ca30  1  0.82732285  0.41529041  0.16587611  1
  Ca2+  Ca31  1  0.82475097  0.41206097  0.50852201  1
  Ca2+  Ca32  1  0.83072086  0.41351990  0.84297508  1
  Ca2+  Ca33  1  0.83679349  0.91301561  0.16913193  1
  Ca2+  Ca34  1  0.83800229  0.91284467  0.50545490  1
  Ca2+  Ca35  1  0.83736286  0.91489736  0.84078102  1
  Ca2+  Ca36  1  0.42146129  0.15989007  0.15869431  1
  Ca2+  Ca37  1  0.41171913  0.16510410  0.49750886  1
  Ca2+  Ca38  1  0.41895653  0.15766696  0.83294728  1
  Ca2+  Ca39  1  0.40824617  0.67620277  0.16392111  1
  Ca2+  Ca40  1  0.40794282  0.67842466  0.49287065  1
  Ca2+  Ca41  1  0.41022172  0.67959193  0.83075414  1
  Ca2+  Ca42  1  0.92620475  0.17337469  0.15494304  1
  Ca2+  Ca43  1  0.92690556  0.17027741  0.50358612  1
  Ca2+  Ca44  1  0.93243388  0.17668787  0.83140299  1
  Ca2+  Ca45  1  0.91670339  0.67288895  0.16250786  1
  Ca2+  Ca46  1  0.92527322  0.67593669  0.49368746  1
  Ca2+  Ca47  1  0.91231519  0.67388907  0.83239701  1
  Al0+  Al48  1  0.00067190  0.00056717  -0.00189574  1
  Al0+  Al49  1  -0.00029872  0.00277351  0.33024900  1
  Al0+  Al50  1  0.00018971  0.00260877  0.66138549  1
  Al0+  Al51  1  -0.00229957  0.50222083  0.00657604  1
  Al0+  Al52  1  -0.00297044  0.49948471  0.33083376  1
  Al0+  Al53  1  -0.00179612  0.50196626  0.66451998  1
  Al0+  Al54  1  0.50043147  -0.00020108  -0.00599277  1
  Al0+  Al55  1  0.50161196  0.00046620  0.33416531  1
  Al0+  Al56  1  0.50238052  -0.00037484  0.66419196  1
  Al0+  Al57  1  0.50046952  0.50009354  0.00293317  1
  Al0+  Al58  1  0.49838134  0.49931910  0.34149633  1
  Al0+  Al59  1  0.50230701  0.49908713  0.67305395  1
  Al0+  Al60  1  0.25339196  0.24886260  0.00509915  1
  Al0+  Al61  1  0.25129229  0.24944442  0.33604119  1
  Al0+  Al62  1  0.25420457  0.25138110  0.66819588  1
  Al0+  Al63  1  0.24679857  0.75010655  -0.00283889  1
  Al0+  Al64  1  0.24730693  0.74982187  0.32793187  1
  Al0+  Al65  1  0.24932555  0.75273352  0.66585435  1
  Al0+  Al66  1  0.74958383  0.24804216  -0.00295213  1
  Al0+  Al67  1  0.75017615  0.24762024  0.33820341  1
  Al0+  Al68  1  0.75021348  0.24797172  0.66639253  1
  Al0+  Al69  1  0.74870581  0.74860610  0.00095538  1
  Al0+  Al70  1  0.74813858  0.74854059  0.33209320  1
  Al0+  Al71  1  0.74801593  0.74848652  0.66177262  1
  Al0+  Al72  1  0.07545660  0.18075093  0.65054032  1
  Al0+  Al73  1  0.68035977  0.42737363  0.68345476  1
  Al0+  Al74  1  0.92839761  0.82128954  0.65349162  1
  Al0+  Al75  1  0.17914024  0.42834840  0.01296509  1
  Al0+  Al76  1  0.31802094  0.57190051  0.34583179  1
  Al0+  Al77  1  0.42980551  0.82174385  0.31878889  1
  Al0+  Al78  1  0.92884500  0.32223481  0.65137822  1
  Al0+  Al79  1  0.17699804  0.92972160  0.68071252  1
  Al0+  Al80  1  0.17913173  0.43180807  0.67824780  1
  Al0+  Al81  1  0.07062732  0.67729740  0.31611305  1
  Al0+  Al82  1  0.32305831  0.06851952  0.01578124  1
  Al0+  Al83  1  0.57016940  0.18002366  0.98659211  1
  Al0+  Al84  1  0.82098049  0.57326382  0.01736136  1
  Al0+  Al85  1  0.32266079  0.06964245  0.34839152  1
  Al0+  Al86  1  0.92877448  0.82005318  0.98622858  1
  Al0+  Al87  1  0.07537607  0.17996310  0.98575959  1
  Al0+  Al88  1  0.32418225  0.07129802  0.68264684  1
  Al0+  Al89  1  0.67933253  0.42617865  0.01616690  1
  Al0+  Al90  1  0.93016582  0.32283385  0.98734057  1
  Al0+  Al91  1  0.42726688  0.82007724  0.98480384  1
  Al0+  Al92  1  0.92796444  0.82255456  0.31709343  1
  Al0+  Al93  1  0.17606841  0.92800292  0.01694662  1
  Al0+  Al94  1  0.42888491  0.82050116  0.65162375  1
  Al0+  Al95  1  0.68089732  0.42855273  0.34893360  1
  Si0+  Si96  1  0.57157922  0.18026281  0.31981936  1
  Si0+  Si97  1  0.07137706  0.67727589  0.98132187  1
  Si0+  Si98  1  0.68026112  0.92756004  0.68065823  1
  Si0+  Si99  1  0.67889489  0.92813763  0.34751679  1
  Si0+  Si100  1  0.43051221  0.32309736  0.65146071  1
  Si0+  Si101  1  0.57158694  0.17924185  0.64932306  1
  Si0+  Si102  1  0.57019890  0.67502600  0.31705831  1
  Si0+  Si103  1  0.67858089  0.92882790  0.01368071  1
  Si0+  Si104  1  0.92647589  0.31841352  0.31933966  1
  Si0+  Si105  1  0.17567165  0.42683819  0.34934474  1
  Si0+  Si106  1  0.07308864  0.18162443  0.31791119  1
  Si0+  Si107  1  0.17675063  0.92989941  0.34872269  1
  Si0+  Si108  1  0.32285993  0.57421086  0.68357241  1
  Si0+  Si109  1  0.42917281  0.32180002  0.32034889  1
  Si0+  Si110  1  0.82183976  0.57317378  0.35313528  1
  Si0+  Si111  1  0.82052880  0.06952501  0.01391825  1
  Si0+  Si112  1  0.57037138  0.67665255  0.64962034  1
  Si0+  Si113  1  0.82067522  0.57334735  0.68238637  1
  Si0+  Si114  1  0.57145071  0.67704657  0.98364748  1
  Si0+  Si115  1  0.42865404  0.32497808  0.98415266  1
  Si0+  Si116  1  0.07211866  0.67733751  0.65037267  1
  Si0+  Si117  1  0.82073648  0.06966186  0.68205086  1
  Si0+  Si118  1  0.32184484  0.57286606  0.01490841  1
  Si0+  Si119  1  0.82152432  0.06991308  0.34907601  1
  O2-  O120  1  0.25043336  -0.00206588  0.06683510  1
  O2-  O121  1  0.24854617  -0.00534391  0.39412381  1
  O2-  O122  1  0.24918787  0.00180802  0.73041068  1
  O2-  O123  1  0.25457589  0.50278256  0.05900373  1
  O2-  O124  1  0.24110589  0.49920600  0.39257454  1
  O2-  O125  1  0.25248803  0.50712799  0.72680637  1
  O2-  O126  1  0.75147715  -0.00303194  0.05756979  1
  O2-  O127  1  0.75573781  -0.00701258  0.39032296  1
  O2-  O128  1  0.75510301  -0.00667913  0.72398734  1
  O2-  O129  1  0.75117096  0.49785430  0.06617683  1
  O2-  O130  1  0.75454425  0.50311848  0.39764415  1
  O2-  O131  1  0.75755680  0.49994898  0.72727223  1
  O2-  O132  1  0.00427060  0.25541763  0.27701987  1
  O2-  O133  1  0.00499560  0.25511048  0.59993627  1
  O2-  O134  1  0.00893189  0.25836658  0.93770478  1
  O2-  O135  1  -0.00154646  0.74988494  0.26709273  1
  O2-  O136  1  0.00579180  0.74954548  0.60761374  1
  O2-  O137  1  0.00414861  0.74774863  0.93764625  1
  O2-  O138  1  0.49973583  0.25012320  0.27815899  1
  O2-  O139  1  0.50048833  0.25053093  0.60829697  1
  O2-  O140  1  0.49782618  0.25659921  0.93974209  1
  O2-  O141  1  0.50280351  0.74461993  0.27204459  1
  O2-  O142  1  0.49917439  0.74173108  0.60396159  1
  O2-  O143  1  0.49961876  0.74206086  0.93901823  1
  O2-  O144  1  0.07095547  0.17976564  0.10036028  1
  O2-  O145  1  0.07272072  0.18116913  0.42283314  1
  O2-  O146  1  0.07336946  0.18066498  0.76344562  1
  O2-  O147  1  0.07195503  0.67782594  0.08676418  1
  O2-  O148  1  0.06946892  0.67858543  0.43017952  1
  O2-  O149  1  0.07033378  0.67358112  0.75550218  1
  O2-  O150  1  0.57054146  0.17867800  0.10029635  1
  O2-  O151  1  0.57374600  0.18033481  0.42504528  1
  O2-  O152  1  0.57359299  0.17821604  0.75403780  1
  O2-  O153  1  0.57159544  0.67930018  0.08940458  1
  O2-  O154  1  0.56964135  0.67709571  0.42289170  1
  O2-  O155  1  0.57179178  0.67997665  0.75494368  1
  O2-  O156  1  0.17885517  0.42368247  0.24397689  1
  O2-  O157  1  0.18267510  0.43388694  0.56486026  1
  O2-  O158  1  0.17993859  0.42966610  0.89967568  1
  O2-  O159  1  0.17511276  0.93393203  0.24356893  1
  O2-  O160  1  0.17837474  0.92909643  0.56648845  1
  O2-  O161  1  0.17541576  0.92942566  0.90358801  1
  O2-  O162  1  0.68249346  0.42573214  0.23654481  1
  O2-  O163  1  0.67974455  0.42876480  0.56983231  1
  O2-  O164  1  0.68117047  0.42710272  0.90269259  1
  O2-  O165  1  0.67598298  0.93253867  0.24255526  1
  O2-  O166  1  0.67956573  0.93096122  0.57508120  1
  O2-  O167  1  0.67899239  0.93040792  0.90834503  1
  O2-  O168  1  0.43017788  0.32607264  0.09023618  1
  O2-  O169  1  0.42995478  0.32110423  0.42563858  1
  O2-  O170  1  0.43177757  0.32532347  0.75609694  1
  O2-  O171  1  0.43083132  0.82003418  0.09820103  1
  O2-  O172  1  0.43275066  0.82253301  0.43196224  1
  O2-  O173  1  0.43173034  0.82026953  0.76447200  1
  O2-  O174  1  0.92915996  0.31681743  0.10184103  1
  O2-  O175  1  0.92422723  0.31450172  0.42423777  1
  O2-  O176  1  0.92775645  0.31927343  0.76421534  1
  O2-  O177  1  0.92777759  0.81901246  0.09899032  1
  O2-  O178  1  0.92950656  0.82253005  0.43092062  1
  O2-  O179  1  0.92494235  0.81897618  0.76618951  1
  O2-  O180  1  0.32468100  0.06994779  0.23602526  1
  O2-  O181  1  0.32492561  0.06811050  0.56836917  1
  O2-  O182  1  0.32549304  0.06563521  0.90283401  1
  O2-  O183  1  0.32047744  0.56713734  0.23301714  1
  O2-  O184  1  0.32370467  0.57266476  0.57765912  1
  O2-  O185  1  0.32204535  0.57203692  0.90923283  1
  O2-  O186  1  0.81872177  0.07395556  0.24414917  1
  O2-  O187  1  0.81709629  0.07034526  0.57623419  1
  O2-  O188  1  0.81799182  0.06824163  0.90882701  1
  O2-  O189  1  0.81944581  0.57342790  0.24806252  1
  O2-  O190  1  0.81653533  0.57511296  0.57668379  1
  O2-  O191  1  0.81669796  0.57742670  0.90370322  1
  O2-  O192  1  0.04152192  0.09146990  0.27012518  1
  O2-  O193  1  0.04069036  0.08538300  0.59422764  1
  O2-  O194  1  0.03864193  0.08484837  0.93267332  1
  O2-  O195  1  0.04302379  0.57746278  0.26429728  1
  O2-  O196  1  0.04398417  0.58643633  0.59979186  1
  O2-  O197  1  0.04187313  0.58431818  0.93657708  1
  O2-  O198  1  0.54564286  0.08825719  0.27226026  1
  O2-  O199  1  0.54568422  0.08742483  0.60025055  1
  O2-  O200  1  0.54080114  0.08462635  0.92913537  1
  O2-  O201  1  0.54332766  0.58099391  0.27316650  1
  O2-  O202  1  0.54799045  0.58094298  0.60621716  1
  O2-  O203  1  0.54968511  0.58191940  0.93882076  1
  O2-  O204  1  0.16574815  0.20740113  0.27116110  1
  O2-  O205  1  0.17468503  0.20876440  0.59805162  1
  O2-  O206  1  0.17622560  0.20213954  0.93679991  1
  O2-  O207  1  0.16838032  0.70316868  0.26124859  1
  O2-  O208  1  0.16675133  0.70028468  0.60509747  1
  O2-  O209  1  0.16526159  0.69800096  0.93411707  1
  O2-  O210  1  0.66362995  0.20810987  0.27253207  1
  O2-  O211  1  0.66268752  0.20719122  0.60003879  1
  O2-  O212  1  0.66639612  0.20741052  0.93011336  1
  O2-  O213  1  0.66432306  0.69886899  0.27175390  1
  O2-  O214  1  0.66167271  0.70482260  0.59961010  1
  O2-  O215  1  0.66253180  0.70732817  0.93580432  1
  O2-  O216  1  0.08361042  0.45871566  0.06854070  1
  O2-  O217  1  0.07965053  0.44752358  0.39251673  1
  O2-  O218  1  0.08127011  0.46084323  0.73083485  1
  O2-  O219  1  0.07810436  0.95890790  0.07009956  1
  O2-  O220  1  0.08389759  0.96001293  0.39512637  1
  O2-  O221  1  0.07736591  0.95839817  0.73096629  1
  O2-  O222  1  0.58013860  0.45457616  0.06873171  1
  O2-  O223  1  0.58393027  0.45747691  0.40390307  1
  O2-  O224  1  0.58435752  0.45783897  0.73851766  1
  O2-  O225  1  0.58870777  0.96122583  0.06159643  1
  O2-  O226  1  0.59132824  0.96339921  0.39887553  1
  O2-  O227  1  0.59108874  0.96108439  0.72896485  1
  O2-  O228  1  0.21087086  0.33347633  0.06965517  1
  O2-  O229  1  0.20633753  0.33549837  0.39730132  1
  O2-  O230  1  0.21338037  0.33667737  0.73187908  1
  O2-  O231  1  0.20198445  0.82739347  0.06633282  1
  O2-  O232  1  0.19756627  0.83388154  0.39047653  1
  O2-  O233  1  0.20317169  0.83038011  0.73297148  1
  O2-  O234  1  0.70739014  0.32668294  0.06780606  1
  O2-  O235  1  0.71234879  0.33154216  0.40354640  1
  O2-  O236  1  0.70842232  0.32855139  0.73353775  1
  O2-  O237  1  0.70248712  0.83693394  0.06188592  1
  O2-  O238  1  0.69858250  0.83390718  0.39384744  1
  O2-  O239  1  0.70173760  0.83349025  0.72553709  1
  O2-  O240  1  0.45790432  0.41333014  0.27364813  1
  O2-  O241  1  0.46075691  0.41494185  0.60410603  1
  O2-  O242  1  0.45189906  0.41888102  0.93738546  1
  O2-  O243  1  0.46715928  0.91698368  0.26561984  1
  O2-  O244  1  0.46753167  0.91470707  0.59721332  1
  O2-  O245  1  0.46545182  0.91288922  0.92975748  1
  O2-  O246  1  0.94379136  0.41354725  0.27540528  1
  O2-  O247  1  0.95053652  0.42252923  0.59865025  1
  O2-  O248  1  0.94804428  0.42511962  0.93996332  1
  O2-  O249  1  0.95354887  0.92291641  0.26614225  1
  O2-  O250  1  0.95401517  0.91894006  0.59892971  1
  O2-  O251  1  0.95606278  0.91785018  0.93334947  1
  O2-  O252  1  0.33690406  0.29536237  0.27318028  1
  O2-  O253  1  0.33975539  0.29761827  0.60115455  1
  O2-  O254  1  0.33550845  0.29800112  0.93901967  1
  O2-  O255  1  0.33277427  0.79359665  0.26600353  1
  O2-  O256  1  0.33140685  0.79309518  0.59755493  1
  O2-  O257  1  0.33064275  0.79005133  0.93100338  1
  O2-  O258  1  0.83753065  0.28171689  0.27183927  1
  O2-  O259  1  0.83219032  0.28529892  0.59777383  1
  O2-  O260  1  0.83469274  0.28676264  0.93416312  1
  O2-  O261  1  0.82674166  0.79681675  0.26783420  1
  O2-  O262  1  0.83157111  0.79018834  0.59814129  1
  O2-  O263  1  0.83037540  0.79069702  0.93394622  1
  O2-  O264  1  0.42238776  0.03709822  0.06745467  1
  O2-  O265  1  0.42087796  0.04183398  0.40168105  1
  O2-  O266  1  0.42371085  0.04102298  0.73234120  1
  O2-  O267  1  0.41580873  0.55030799  0.06185545  1
  O2-  O268  1  0.41245032  0.53969191  0.40415858  1
  O2-  O269  1  0.41565143  0.54755827  0.73016558  1
  O2-  O270  1  0.91187803  0.04380299  0.06247699  1
  O2-  O271  1  0.91470802  0.04733056  0.39643763  1
  O2-  O272  1  0.91396679  0.04732450  0.72703987  1
  O2-  O273  1  0.91870246  0.54950919  0.07296191  1
  O2-  O274  1  0.91632052  0.54824844  0.39765733  1
  O2-  O275  1  0.91625951  0.55508028  0.72583559  1
  O2-  O276  1  0.30113280  0.16837009  0.06927354  1
  O2-  O277  1  0.29269310  0.16742897  0.40138903  1
  O2-  O278  1  0.30462891  0.17270956  0.73158995  1
  O2-  O279  1  0.29389180  0.66557954  0.06082865  1
  O2-  O280  1  0.28802239  0.66932962  0.39960677  1
  O2-  O281  1  0.29855225  0.66836706  0.72777450  1
  O2-  O282  1  0.78898181  0.15922556  0.06305826  1
  O2-  O283  1  0.78625527  0.15720977  0.40077131  1
  O2-  O284  1  0.78529299  0.15795780  0.73007854  1
  O2-  O285  1  0.78635809  0.66964697  0.07251191  1
  O2-  O286  1  0.79462770  0.66686836  0.39917532  1
  O2-  O287  1  0.78824868  0.66504512  0.72917591  1
