# generated using pymatgen
data_Ca2Al2SiO7
_symmetry_space_group_name_H-M   'P 1'
_cell_length_a   15.46634308
_cell_length_b   15.46822331
_cell_length_c   15.28975375
_cell_angle_alpha   89.97894610
_cell_angle_beta   89.99510438
_cell_angle_gamma   90.01888213
_symmetry_Int_Tables_number   1
_chemical_formula_structural   Ca2Al2SiO7
_chemical_formula_sum   'Ca48 Al48 Si24 O168'
_cell_volume   3657.87204140
_cell_formula_units_Z   24
loop_
 _symmetry_equiv_pos_site_id
 _symmetry_equiv_pos_as_xyz
  1  'x, y, z'
loop_
 _atom_type_symbol
 _atom_type_oxidation_number
  Ca2+  2.0
  Al0+  0.0
  Si0+  0.0
  O2-  -2.0
loop_
 _atom_site_type_symbol
 _atom_site_label
 _atom_site_symmetry_multiplicity
 _atom_site_fract_x
 _atom_site_fract_y
 _atom_site_fract_z
 _atom_site_occupancy
  Ca2+  Ca0  1  0.17673495  0.07581479  0.17502025  1
  Ca2+  Ca1  1  0.17011273  0.07041409  0.50269996  1
  Ca2+  Ca2  1  0.17257699  0.07379461  0.83838333  1
  Ca2+  Ca3  1  0.17302094  0.58592158  0.17464181  1
  Ca2+  Ca4  1  0.17314118  0.58324583  0.50176854  1
  Ca2+  Ca5  1  0.17614562  0.59205105  0.83382290  1
  Ca2+  Ca6  1  0.66649039  0.07611135  0.17660382  1
  Ca2+  Ca7  1  0.66223166  0.07928889  0.50610816  1
  Ca2+  Ca8  1  0.66315303  0.07990575  0.82910440  1
  Ca2+  Ca9  1  0.67889691  0.59588726  0.16890099  1
  Ca2+  Ca10  1  0.68176959  0.58747434  0.50611958  1
  Ca2+  Ca11  1  0.67697892  0.59323269  0.83932936  1
  Ca2+  Ca12  1  0.08909513  0.33634658  0.16809050  1
  Ca2+  Ca13  1  0.08353569  0.33627878  0.49310366  1
  Ca2+  Ca14  1  0.08266529  0.33080397  0.82967657  1
  Ca2+  Ca15  1  0.08156033  0.82313893  0.16208500  1
  Ca2+  Ca16  1  0.09018327  0.82371989  0.49569178  1
  Ca2+  Ca17  1  0.08341097  0.82286794  0.82654009  1
  Ca2+  Ca18  1  0.57706565  0.32954793  0.16843112  1
  Ca2+  Ca19  1  0.57358233  0.32372005  0.49457040  1
  Ca2+  Ca20  1  0.57623159  0.32627121  0.82061379  1
  Ca2+  Ca21  1  0.58278028  0.82924252  0.16343990  1
  Ca2+  Ca22  1  0.57873790  0.84230966  0.49931046  1
  Ca2+  Ca23  1  0.57670412  0.82962994  0.82871552  1
  Ca2+  Ca24  1  0.32948315  0.42776700  0.17557897  1
  Ca2+  Ca25  1  0.34038340  0.42401849  0.50025801  1
  Ca2+  Ca26  1  0.33895719  0.42659353  0.83507096  1
  Ca2+  Ca27  1  0.33052530  0.92670039  0.17542051  1
  Ca2+  Ca28  1  0.32520748  0.91472484  0.50416890  1
  Ca2+  Ca29  1  0.33113936  0.91516230  0.83167453  1
  Ca2+  Ca30  1  0.83246717  0.43048150  0.17170226  1
  Ca2+  Ca31  1  0.83449598  0.42800675  0.50354045  1
  Ca2+  Ca32  1  0.83155014  0.42959571  0.83590918  1
  Ca2+  Ca33  1  0.82734575  0.90764833  0.17145755  1
  Ca2+  Ca34  1  0.81767630  0.92045501  0.50871416  1
  Ca2+  Ca35  1  0.83019322  0.91481960  0.83347633  1
  Ca2+  Ca36  1  0.41179126  0.16656209  0.16692381  1
  Ca2+  Ca37  1  0.42238819  0.17226101  0.48956159  1
  Ca2+  Ca38  1  0.41885069  0.17214433  0.82222828  1
  Ca2+  Ca39  1  0.41839203  0.66372703  0.15976666  1
  Ca2+  Ca40  1  0.40850448  0.67087737  0.49817540  1
  Ca2+  Ca41  1  0.41909507  0.66509814  0.82464065  1
  Ca2+  Ca42  1  0.91911648  0.17048405  0.16296331  1
  Ca2+  Ca43  1  0.91399170  0.16475402  0.49815558  1
  Ca2+  Ca44  1  0.91491255  0.16681638  0.82495574  1
  Ca2+  Ca45  1  0.92752661  0.66554056  0.15913448  1
  Ca2+  Ca46  1  0.92759206  0.65930327  0.49464427  1
  Ca2+  Ca47  1  0.92503565  0.66566496  0.83123684  1
  Al0+  Al48  1  -0.00156391  0.00142287  -0.00251959  1
  Al0+  Al49  1  -0.00167144  -0.00001031  0.33433976  1
  Al0+  Al50  1  -0.00069049  -0.00169376  0.67378458  1
  Al0+  Al51  1  -0.00091159  0.49855293  -0.00153884  1
  Al0+  Al52  1  0.00107197  0.50111839  0.33429454  1
  Al0+  Al53  1  0.00099387  0.49885221  0.66793892  1
  Al0+  Al54  1  0.50121096  0.00056600  0.00360721  1
  Al0+  Al55  1  0.50093916  0.00017330  0.33489600  1
  Al0+  Al56  1  0.49942295  -0.00138127  0.66439233  1
  Al0+  Al57  1  0.50087039  0.49762894  -0.00050991  1
  Al0+  Al58  1  0.50234280  0.49901604  0.33158674  1
  Al0+  Al59  1  0.50197003  0.49966498  0.66501130  1
  Al0+  Al60  1  0.25039787  0.24972232  0.00179670  1
  Al0+  Al61  1  0.24906273  0.25109526  0.33456500  1
  Al0+  Al62  1  0.24779994  0.25096135  0.66148336  1
  Al0+  Al63  1  0.24945506  0.75133049  0.00095414  1
  Al0+  Al64  1  0.25040684  0.75001261  0.33241234  1
  Al0+  Al65  1  0.25039311  0.74836336  0.66712190  1
  Al0+  Al66  1  0.74894752  0.24944158  0.00009703  1
  Al0+  Al67  1  0.74979715  0.25152459  0.32697759  1
  Al0+  Al68  1  0.75052450  0.25079278  0.66532762  1
  Al0+  Al69  1  0.74925529  0.75097910  -0.00332190  1
  Al0+  Al70  1  0.75043454  0.75209460  0.34421364  1
  Al0+  Al71  1  0.75131988  0.75220562  0.67592740  1
  Al0+  Al72  1  0.17725227  0.92802549  0.34721113  1
  Al0+  Al73  1  0.67974323  0.92983749  0.34664377  1
  Al0+  Al74  1  0.32455355  0.57138674  0.34799064  1
  Al0+  Al75  1  0.57063006  0.17902354  0.65128265  1
  Al0+  Al76  1  0.42660456  0.32363671  0.65018796  1
  Al0+  Al77  1  0.17860432  0.43023797  0.34759325  1
  Al0+  Al78  1  0.57034687  0.17755620  0.31495573  1
  Al0+  Al79  1  0.56863515  0.67809714  0.98795722  1
  Al0+  Al80  1  0.82321724  0.57118705  0.68268922  1
  Al0+  Al81  1  0.06945392  0.67896163  0.65101547  1
  Al0+  Al82  1  0.32179273  0.57197568  0.01215734  1
  Al0+  Al83  1  0.32095714  0.07022896  0.01228175  1
  Al0+  Al84  1  0.32112196  0.56839447  0.67988699  1
  Al0+  Al85  1  0.67510139  0.92947963  0.68605893  1
  Al0+  Al86  1  0.32113412  0.07138016  0.34963693  1
  Al0+  Al87  1  0.07273115  0.67751174  0.98334289  1
  Al0+  Al88  1  0.82025378  0.57089167  0.34686340  1
  Al0+  Al89  1  0.42682711  0.32217949  0.31423129  1
  Al0+  Al90  1  0.07106081  0.67975043  0.31918815  1
  Al0+  Al91  1  0.17962880  0.92719240  0.68169245  1
  Al0+  Al92  1  0.81990119  0.07183832  0.68189975  1
  Al0+  Al93  1  0.81944170  0.57105330  0.01460490  1
  Al0+  Al94  1  0.92810282  0.82209908  0.98434459  1
  Al0+  Al95  1  0.42952854  0.81807553  0.65332706  1
  Si0+  Si96  1  0.92980246  0.32213124  0.31709756  1
  Si0+  Si97  1  0.67939838  0.42596183  0.35002919  1
  Si0+  Si98  1  0.17859563  0.42733863  0.01485703  1
  Si0+  Si99  1  0.67983664  0.42946310  0.68246408  1
  Si0+  Si100  1  0.82182564  0.07377776  0.01635159  1
  Si0+  Si101  1  0.57446744  0.67981335  0.32160859  1
  Si0+  Si102  1  0.06991670  0.17694026  0.31813131  1
  Si0+  Si103  1  0.93033553  0.32009013  0.65136071  1
  Si0+  Si104  1  0.07025873  0.17609532  0.65150825  1
  Si0+  Si105  1  0.92629708  0.82190123  0.32019623  1
  Si0+  Si106  1  0.31991624  0.07296589  0.68106317  1
  Si0+  Si107  1  0.82170401  0.07526146  0.34714978  1
  Si0+  Si108  1  0.92764769  0.82312241  0.64899005  1
  Si0+  Si109  1  0.42862263  0.82404279  0.98578519  1
  Si0+  Si110  1  0.68064655  0.93101366  0.01625829  1
  Si0+  Si111  1  0.57152232  0.17790509  0.98409180  1
  Si0+  Si112  1  0.42845175  0.31908056  0.98434039  1
  Si0+  Si113  1  0.17535582  0.92883594  0.01671215  1
  Si0+  Si114  1  0.17705124  0.42569449  0.68431293  1
  Si0+  Si115  1  0.42954167  0.81989838  0.31824031  1
  Si0+  Si116  1  0.57536133  0.67830318  0.65019163  1
  Si0+  Si117  1  0.07130830  0.18044110  0.98515013  1
  Si0+  Si118  1  0.67828998  0.42491133  0.01764691  1
  Si0+  Si119  1  0.92701990  0.31963154  0.98410804  1
  O2-  O120  1  0.24778740  -0.00567361  0.05941705  1
  O2-  O121  1  0.24960095  -0.00112823  0.39851006  1
  O2-  O122  1  0.25266553  0.00429289  0.72763331  1
  O2-  O123  1  0.24233479  0.50116429  0.05699067  1
  O2-  O124  1  0.25381624  0.49788459  0.39764235  1
  O2-  O125  1  0.24890948  0.49106856  0.72746169  1
  O2-  O126  1  0.75408826  0.00018324  0.05843774  1
  O2-  O127  1  0.75165330  0.00855995  0.39015384  1
  O2-  O128  1  0.74843011  0.00140734  0.73494450  1
  O2-  O129  1  0.74308213  0.49762250  0.06163230  1
  O2-  O130  1  0.74481027  0.49739082  0.39434081  1
  O2-  O131  1  0.74342856  0.50149812  0.72910162  1
  O2-  O132  1  -0.00006752  0.24956531  0.27528702  1
  O2-  O133  1  -0.00067742  0.24727213  0.60903449  1
  O2-  O134  1  -0.00123639  0.24938221  0.94163781  1
  O2-  O135  1  -0.00343145  0.75608607  0.27469755  1
  O2-  O136  1  -0.00670837  0.75256520  0.60386597  1
  O2-  O137  1  0.00173504  0.75162723  0.93448329  1
  O2-  O138  1  0.49623918  0.24699042  0.26363649  1
  O2-  O139  1  0.49525591  0.24757260  0.60220476  1
  O2-  O140  1  0.49978815  0.24806392  0.94233359  1
  O2-  O141  1  0.49939746  0.74628610  0.27804876  1
  O2-  O142  1  0.50625516  0.74557516  0.60516949  1
  O2-  O143  1  0.48895443  0.74774270  0.94201053  1
  O2-  O144  1  0.06983933  0.18157606  0.09022735  1
  O2-  O145  1  0.06579097  0.17488827  0.42303668  1
  O2-  O146  1  0.07082347  0.17891900  0.75714210  1
  O2-  O147  1  0.07149339  0.67722750  0.09710067  1
  O2-  O148  1  0.06937931  0.67836643  0.43208098  1
  O2-  O149  1  0.06934514  0.67952726  0.76408653  1
  O2-  O150  1  0.57385345  0.17799671  0.08864006  1
  O2-  O151  1  0.57326970  0.18019646  0.42786804  1
  O2-  O152  1  0.56955442  0.18187321  0.76605541  1
  O2-  O153  1  0.57113191  0.68297963  0.10159174  1
  O2-  O154  1  0.57783368  0.68261250  0.42627165  1
  O2-  O155  1  0.57288129  0.67838647  0.75615985  1
  O2-  O156  1  0.17676787  0.43378028  0.23345225  1
  O2-  O157  1  0.17209781  0.42641073  0.57952299  1
  O2-  O158  1  0.18108584  0.42034285  0.90957116  1
  O2-  O159  1  0.17775834  0.93043186  0.23315814  1
  O2-  O160  1  0.17990390  0.92898063  0.56898743  1
  O2-  O161  1  0.17493580  0.93166957  0.91107425  1
  O2-  O162  1  0.68305060  0.42420683  0.24421299  1
  O2-  O163  1  0.68410397  0.42948097  0.57707515  1
  O2-  O164  1  0.68183363  0.41983121  0.91233989  1
  O2-  O165  1  0.68283071  0.92681098  0.23284453  1
  O2-  O166  1  0.67760689  0.92993909  0.57258960  1
  O2-  O167  1  0.67757834  0.93395117  0.91192142  1
  O2-  O168  1  0.42798373  0.31832716  0.08885729  1
  O2-  O169  1  0.43105898  0.32217920  0.42723150  1
  O2-  O170  1  0.42862458  0.32156943  0.76499072  1
  O2-  O171  1  0.43309435  0.82754051  0.09148071  1
  O2-  O172  1  0.42923637  0.82049615  0.42312821  1
  O2-  O173  1  0.42945986  0.81625903  0.76703387  1
  O2-  O174  1  0.92604798  0.31797813  0.08922092  1
  O2-  O175  1  0.92898398  0.32115527  0.42219293  1
  O2-  O176  1  0.93203569  0.31983143  0.75686113  1
  O2-  O177  1  0.92818768  0.82121386  0.09848053  1
  O2-  O178  1  0.92500571  0.82132393  0.42528321  1
  O2-  O179  1  0.93019698  0.82301266  0.75465899  1
  O2-  O180  1  0.31854189  0.06836314  0.23531466  1
  O2-  O181  1  0.31664190  0.07292529  0.57609109  1
  O2-  O182  1  0.31896901  0.07209544  0.89909743  1
  O2-  O183  1  0.32323348  0.57195555  0.23387291  1
  O2-  O184  1  0.31941036  0.56958245  0.56752963  1
  O2-  O185  1  0.32393642  0.56827039  0.89913022  1
  O2-  O186  1  0.82296033  0.07518269  0.24108010  1
  O2-  O187  1  0.82101635  0.07154843  0.56818997  1
  O2-  O188  1  0.81997652  0.07845822  0.91204434  1
  O2-  O189  1  0.81934777  0.57079200  0.23352522  1
  O2-  O190  1  0.82403650  0.56713594  0.56949011  1
  O2-  O191  1  0.81901081  0.56735123  0.90174387  1
  O2-  O192  1  0.03979423  0.08683554  0.26744075  1
  O2-  O193  1  0.04093944  0.08429494  0.60571914  1
  O2-  O194  1  0.04479624  0.08893498  0.93700980  1
  O2-  O195  1  0.03719172  0.58394090  0.26509522  1
  O2-  O196  1  0.03879209  0.58084571  0.59978257  1
  O2-  O197  1  0.04353144  0.57813542  0.93206856  1
  O2-  O198  1  0.54436378  0.07757148  0.26295125  1
  O2-  O199  1  0.54631809  0.07946463  0.60097823  1
  O2-  O200  1  0.54381814  0.08568621  0.93784996  1
  O2-  O201  1  0.55491398  0.58627084  0.27421030  1
  O2-  O202  1  0.55422250  0.58357615  0.60545970  1
  O2-  O203  1  0.54658033  0.57887105  0.93452335  1
  O2-  O204  1  0.16118952  0.20419680  0.26991992  1
  O2-  O205  1  0.16070341  0.20329942  0.60207732  1
  O2-  O206  1  0.16193017  0.21078776  0.93665477  1
  O2-  O207  1  0.16763129  0.71040689  0.26445237  1
  O2-  O208  1  0.16571178  0.71179306  0.59911132  1
  O2-  O209  1  0.17221932  0.70649948  0.93159150  1
  O2-  O210  1  0.66913316  0.20826145  0.26090208  1
  O2-  O211  1  0.66902173  0.20983551  0.59946216  1
  O2-  O212  1  0.66340759  0.20661606  0.93680435  1
  O2-  O213  1  0.66466357  0.71473293  0.27382550  1
  O2-  O214  1  0.67033026  0.70516015  0.60766031  1
  O2-  O215  1  0.66243658  0.71419437  0.93257109  1
  O2-  O216  1  0.08214929  0.44553888  0.05797772  1
  O2-  O217  1  0.08116423  0.45916401  0.40200088  1
  O2-  O218  1  0.08487166  0.45290588  0.73293078  1
  O2-  O219  1  0.08296680  0.95942054  0.06256156  1
  O2-  O220  1  0.07864817  0.95710059  0.39974869  1
  O2-  O221  1  0.08420595  0.95790039  0.73729533  1
  O2-  O222  1  0.58334509  0.44612078  0.06165206  1
  O2-  O223  1  0.58511918  0.44826042  0.39381192  1
  O2-  O224  1  0.58499906  0.44957627  0.72795587  1
  O2-  O225  1  0.59036882  0.96078484  0.06576480  1
  O2-  O226  1  0.58327258  0.95765742  0.40031558  1
  O2-  O227  1  0.57661551  0.95855966  0.73924534  1
  O2-  O228  1  0.20812210  0.33600400  0.06426915  1
  O2-  O229  1  0.19704495  0.32894244  0.39771889  1
  O2-  O230  1  0.19806975  0.32997624  0.72951677  1
  O2-  O231  1  0.19709167  0.83424742  0.06124154  1
  O2-  O232  1  0.20761131  0.83075652  0.39922953  1
  O2-  O233  1  0.21490649  0.83316173  0.73689699  1
  O2-  O234  1  0.70900438  0.33339559  0.06633582  1
  O2-  O235  1  0.71018332  0.33397119  0.39620863  1
  O2-  O236  1  0.71002519  0.33773285  0.72999037  1
  O2-  O237  1  0.70796022  0.83884971  0.06283068  1
  O2-  O238  1  0.71188210  0.83755218  0.40702311  1
  O2-  O239  1  0.70378252  0.83189043  0.74062961  1
  O2-  O240  1  0.46067548  0.41997233  0.26061597  1
  O2-  O241  1  0.46024189  0.42019598  0.59686254  1
  O2-  O242  1  0.45728441  0.41022875  0.93643422  1
  O2-  O243  1  0.46035934  0.91064450  0.27028943  1
  O2-  O244  1  0.45698352  0.91522801  0.59925769  1
  O2-  O245  1  0.46311971  0.91439315  0.93773778  1
  O2-  O246  1  0.96041185  0.41219521  0.26813038  1
  O2-  O247  1  0.96080836  0.41034919  0.60302307  1
  O2-  O248  1  0.95436241  0.41052558  0.93529539  1
  O2-  O249  1  0.94679596  0.91716200  0.27363607  1
  O2-  O250  1  0.95370867  0.91743124  0.60499440  1
  O2-  O251  1  0.95069471  0.92345787  0.93317404  1
  O2-  O252  1  0.32616607  0.29668102  0.26345078  1
  O2-  O253  1  0.32587217  0.30165386  0.59973995  1
  O2-  O254  1  0.33667080  0.29072485  0.93692953  1
  O2-  O255  1  0.33832794  0.79465466  0.26850586  1
  O2-  O256  1  0.33464311  0.78509159  0.59821615  1
  O2-  O257  1  0.33179266  0.80830038  0.94374324  1
  O2-  O258  1  0.83908372  0.29571468  0.26645352  1
  O2-  O259  1  0.83880928  0.29485304  0.60276206  1
  O2-  O260  1  0.83604804  0.28964856  0.93609233  1
  O2-  O261  1  0.83294243  0.79303451  0.27443520  1
  O2-  O262  1  0.83129275  0.80009587  0.60781929  1
  O2-  O263  1  0.83037220  0.79367116  0.93074665  1
  O2-  O264  1  0.41772525  0.04134895  0.06733060  1
  O2-  O265  1  0.41983510  0.04405927  0.39978909  1
  O2-  O266  1  0.41367648  0.04777814  0.72602046  1
  O2-  O267  1  0.41806021  0.53821175  0.06565854  1
  O2-  O268  1  0.42480017  0.54628508  0.39884638  1
  O2-  O269  1  0.41999638  0.54068959  0.73256090  1
  O2-  O270  1  0.91580787  0.05129635  0.06236779  1
  O2-  O271  1  0.91459040  0.05039135  0.39404260  1
  O2-  O272  1  0.91789128  0.04489102  0.73724705  1
  O2-  O273  1  0.91579586  0.53574214  0.06693288  1
  O2-  O274  1  0.91463023  0.53517202  0.40024333  1
  O2-  O275  1  0.91687412  0.53228642  0.73685906  1
  O2-  O276  1  0.28731386  0.16568622  0.06711462  1
  O2-  O277  1  0.29282760  0.16979762  0.39980892  1
  O2-  O278  1  0.29266179  0.16695328  0.72659531  1
  O2-  O279  1  0.29770334  0.67109391  0.06491464  1
  O2-  O280  1  0.29473152  0.66967302  0.39860180  1
  O2-  O281  1  0.28785077  0.66340882  0.73485343  1
  O2-  O282  1  0.79163627  0.16444668  0.06551875  1
  O2-  O283  1  0.79922356  0.17032360  0.39117288  1
  O2-  O284  1  0.79429803  0.17203227  0.73426136  1
  O2-  O285  1  0.78718524  0.66819418  0.06652984  1
  O2-  O286  1  0.79043583  0.66521434  0.40441882  1
  O2-  O287  1  0.79706876  0.66821968  0.73681922  1
