# generated using pymatgen
data_Ca2Al2SiO7
_symmetry_space_group_name_H-M   'P 1'
_cell_length_a   15.45940836
_cell_length_b   15.45976090
_cell_length_c   15.28518531
_cell_angle_alpha   89.99357638
_cell_angle_beta   90.00457137
_cell_angle_gamma   90.01878570
_symmetry_Int_Tables_number   1
_chemical_formula_structural   Ca2Al2SiO7
_chemical_formula_sum   'Ca48 Al48 Si24 O168'
_cell_volume   3653.14005793
_cell_formula_units_Z   24
loop_
 _symmetry_equiv_pos_site_id
 _symmetry_equiv_pos_as_xyz
  1  'x, y, z'
loop_
 _atom_type_symbol
 _atom_type_oxidation_number
  Ca2+  2.0
  Al0+  0.0
  Si0+  0.0
  O2-  -2.0
loop_
 _atom_site_type_symbol
 _atom_site_label
 _atom_site_symmetry_multiplicity
 _atom_site_fract_x
 _atom_site_fract_y
 _atom_site_fract_z
 _atom_site_occupancy
  Ca2+  Ca0  1  0.17770540  0.07861750  0.17544998  1
  Ca2+  Ca1  1  0.16655477  0.08026393  0.49752488  1
  Ca2+  Ca2  1  0.17053535  0.08579556  0.83882120  1
  Ca2+  Ca3  1  0.16497684  0.57869110  0.17492621  1
  Ca2+  Ca4  1  0.17619204  0.58797243  0.50037349  1
  Ca2+  Ca5  1  0.16929024  0.58025827  0.84285190  1
  Ca2+  Ca6  1  0.66799761  0.07160720  0.17414569  1
  Ca2+  Ca7  1  0.67774022  0.07195760  0.50401177  1
  Ca2+  Ca8  1  0.66578198  0.07284611  0.84114881  1
  Ca2+  Ca9  1  0.66882274  0.58770649  0.17180089  1
  Ca2+  Ca10  1  0.66669870  0.58046612  0.50060080  1
  Ca2+  Ca11  1  0.67892394  0.58920850  0.83956343  1
  Ca2+  Ca12  1  0.08747109  0.33765055  0.16341615  1
  Ca2+  Ca13  1  0.08546936  0.32857881  0.49562244  1
  Ca2+  Ca14  1  0.08592093  0.32882763  0.83015546  1
  Ca2+  Ca15  1  0.07663128  0.82805260  0.16442886  1
  Ca2+  Ca16  1  0.07624984  0.82944776  0.48421142  1
  Ca2+  Ca17  1  0.07600009  0.83013301  0.83246851  1
  Ca2+  Ca18  1  0.57831961  0.32915516  0.16473262  1
  Ca2+  Ca19  1  0.57774268  0.33580167  0.48654497  1
  Ca2+  Ca20  1  0.58488241  0.32436291  0.83217155  1
  Ca2+  Ca21  1  0.59150665  0.82602263  0.16235445  1
  Ca2+  Ca22  1  0.58892575  0.82888207  0.49324171  1
  Ca2+  Ca23  1  0.58997447  0.83274966  0.83542302  1
  Ca2+  Ca24  1  0.32303584  0.41947492  0.17676577  1
  Ca2+  Ca25  1  0.33435843  0.42731098  0.49500669  1
  Ca2+  Ca26  1  0.32667808  0.42173909  0.83716088  1
  Ca2+  Ca27  1  0.33210893  0.92809002  0.17416878  1
  Ca2+  Ca28  1  0.32675617  0.91579957  0.49710710  1
  Ca2+  Ca29  1  0.33084649  0.92372347  0.84133046  1
  Ca2+  Ca30  1  0.82661286  0.42545744  0.17080376  1
  Ca2+  Ca31  1  0.82746853  0.42358965  0.50145153  1
  Ca2+  Ca32  1  0.83883420  0.43016535  0.83756060  1
  Ca2+  Ca33  1  0.82863727  0.91336262  0.17218188  1
  Ca2+  Ca34  1  0.82771365  0.91823311  0.50047282  1
  Ca2+  Ca35  1  0.82499828  0.91642105  0.83728799  1
  Ca2+  Ca36  1  0.41451157  0.16843401  0.16159054  1
  Ca2+  Ca37  1  0.41662142  0.17481579  0.48935523  1
  Ca2+  Ca38  1  0.42184443  0.16125625  0.83481049  1
  Ca2+  Ca39  1  0.42807154  0.66079952  0.16594609  1
  Ca2+  Ca40  1  0.42074192  0.66219351  0.48880916  1
  Ca2+  Ca41  1  0.42290782  0.66353102  0.82951762  1
  Ca2+  Ca42  1  0.91291613  0.16762949  0.16569756  1
  Ca2+  Ca43  1  0.91780198  0.15795960  0.49628643  1
  Ca2+  Ca44  1  0.92257965  0.16628235  0.82327052  1
  Ca2+  Ca45  1  0.92210977  0.67688004  0.15907736  1
  Ca2+  Ca46  1  0.92020912  0.67266750  0.48850876  1
  Ca2+  Ca47  1  0.91455534  0.66765846  0.83531435  1
  Al0+  Al48  1  -0.00084676  0.00047671  -0.00544592  1
  Al0+  Al49  1  0.00100430  0.00110758  0.33280073  1
  Al0+  Al50  1  0.00007750  -0.00104974  0.66534015  1
  Al0+  Al51  1  -0.00054844  0.50048203  0.00446364  1
  Al0+  Al52  1  -0.00013585  0.49730408  0.33459981  1
  Al0+  Al53  1  0.00038691  0.49816793  0.66840162  1
  Al0+  Al54  1  0.50069835  0.00056462  0.00422375  1
  Al0+  Al55  1  0.50192445  -0.00006370  0.34280280  1
  Al0+  Al56  1  0.49834442  -0.00116649  0.66714691  1
  Al0+  Al57  1  0.49969918  0.49862892  -0.00827474  1
  Al0+  Al58  1  0.49916906  0.49810051  0.32942203  1
  Al0+  Al59  1  0.49887152  0.49925062  0.67169944  1
  Al0+  Al60  1  0.25015092  0.25210881  0.00529472  1
  Al0+  Al61  1  0.24976989  0.25210731  0.33632709  1
  Al0+  Al62  1  0.24990157  0.24965158  0.66147951  1
  Al0+  Al63  1  0.25033937  0.75008127  -0.00311745  1
  Al0+  Al64  1  0.25164949  0.75095086  0.33436759  1
  Al0+  Al65  1  0.25127458  0.75019648  0.67241465  1
  Al0+  Al66  1  0.74965470  0.25073837  -0.00733423  1
  Al0+  Al67  1  0.75028793  0.25059813  0.34018509  1
  Al0+  Al68  1  0.75083181  0.24940827  0.66757097  1
  Al0+  Al69  1  0.75052980  0.75070458  -0.00073187  1
  Al0+  Al70  1  0.75083259  0.75043685  0.32971827  1
  Al0+  Al71  1  0.74932085  0.74894371  0.67189375  1
  Al0+  Al72  1  0.82158944  0.07230110  0.34672020  1
  Al0+  Al73  1  0.18008003  0.43159158  0.01321943  1
  Al0+  Al74  1  0.31971615  0.06996667  0.01271874  1
  Al0+  Al75  1  0.81888464  0.57063475  0.01572837  1
  Al0+  Al76  1  0.57010712  0.67838532  0.98432798  1
  Al0+  Al77  1  0.07160269  0.67715476  0.98395936  1
  Al0+  Al78  1  0.07347270  0.67688080  0.31977491  1
  Al0+  Al79  1  0.68117742  0.93078958  0.01549303  1
  Al0+  Al80  1  0.67840005  0.43015001  0.34367130  1
  Al0+  Al81  1  0.07047424  0.17854783  0.65137116  1
  Al0+  Al82  1  0.32104221  0.57119690  0.34479649  1
  Al0+  Al83  1  0.67764347  0.92966850  0.68443191  1
  Al0+  Al84  1  0.32243307  0.07277572  0.35022004  1
  Al0+  Al85  1  0.82098768  0.56903967  0.67929781  1
  Al0+  Al86  1  0.92866884  0.82202075  0.98164072  1
  Al0+  Al87  1  0.32117102  0.57192177  0.68253519  1
  Al0+  Al88  1  0.56974704  0.67951886  0.32112858  1
  Al0+  Al89  1  0.57027052  0.17840957  0.98746208  1
  Al0+  Al90  1  0.67982408  0.92537654  0.34854647  1
  Al0+  Al91  1  0.17555955  0.42906219  0.35089939  1
  Al0+  Al92  1  0.82286954  0.07062815  0.68371973  1
  Al0+  Al93  1  0.42857383  0.31952092  0.31844845  1
  Al0+  Al94  1  0.17950043  0.92900639  0.34643744  1
  Al0+  Al95  1  0.92932310  0.82277036  0.31799935  1
  Si0+  Si96  1  0.31911650  0.07215284  0.68150242  1
  Si0+  Si97  1  0.57139590  0.17720089  0.65057006  1
  Si0+  Si98  1  0.42845138  0.82328642  0.98413959  1
  Si0+  Si99  1  0.43093219  0.32066736  0.65097842  1
  Si0+  Si100  1  0.57325917  0.17770380  0.31944293  1
  Si0+  Si101  1  0.32469451  0.57352476  0.01595373  1
  Si0+  Si102  1  0.42575878  0.32038612  0.98075590  1
  Si0+  Si103  1  0.92634409  0.32101766  0.31821465  1
  Si0+  Si104  1  0.82387852  0.07517124  0.01456444  1
  Si0+  Si105  1  0.07288857  0.67785502  0.65292373  1
  Si0+  Si106  1  0.07058600  0.18067181  0.31683153  1
  Si0+  Si107  1  0.17980737  0.42748363  0.68314931  1
  Si0+  Si108  1  0.07198718  0.18081430  0.98723356  1
  Si0+  Si109  1  0.17537740  0.92725888  0.01508370  1
  Si0+  Si110  1  0.42820848  0.82512463  0.31769027  1
  Si0+  Si111  1  0.67681307  0.42576033  0.01462313  1
  Si0+  Si112  1  0.82135404  0.57182656  0.34806828  1
  Si0+  Si113  1  0.92833741  0.32139811  0.98523843  1
  Si0+  Si114  1  0.92760459  0.32356449  0.64853775  1
  Si0+  Si115  1  0.67586550  0.42707858  0.68440403  1
  Si0+  Si116  1  0.56971064  0.67961824  0.65235115  1
  Si0+  Si117  1  0.92907317  0.81796959  0.65120845  1
  Si0+  Si118  1  0.17873558  0.92832720  0.68262718  1
  Si0+  Si119  1  0.42657528  0.82144948  0.65162590  1
  O2-  O120  1  0.24554845  -0.00520681  0.05801394  1
  O2-  O121  1  0.25150759  -0.00047847  0.39993771  1
  O2-  O122  1  0.24847112  0.00124871  0.72445925  1
  O2-  O123  1  0.25252812  0.50852101  0.05864284  1
  O2-  O124  1  0.24489698  0.50499184  0.39802747  1
  O2-  O125  1  0.24412516  0.49940536  0.72845764  1
  O2-  O126  1  0.75689653  0.00594254  0.05898801  1
  O2-  O127  1  0.75193422  -0.00183182  0.39640954  1
  O2-  O128  1  0.74767230  0.00348443  0.73511712  1
  O2-  O129  1  0.74024852  0.49831831  0.05963441  1
  O2-  O130  1  0.75093337  0.50527865  0.39267903  1
  O2-  O131  1  0.74742593  0.49308966  0.72745196  1
  O2-  O132  1  -0.00117178  0.25145745  0.27521746  1
  O2-  O133  1  -0.00759551  0.25060550  0.60513994  1
  O2-  O134  1  -0.00151282  0.24866852  0.94396351  1
  O2-  O135  1  0.00148425  0.74921571  0.27058565  1
  O2-  O136  1  0.00035961  0.74653405  0.60980793  1
  O2-  O137  1  0.00170022  0.75013585  0.93158418  1
  O2-  O138  1  0.50019002  0.24080833  0.27351800  1
  O2-  O139  1  0.50473913  0.25245552  0.60860752  1
  O2-  O140  1  0.49615319  0.25285513  0.93709710  1
  O2-  O141  1  0.49731014  0.75669035  0.27409043  1
  O2-  O142  1  0.49798429  0.75002725  0.61040805  1
  O2-  O143  1  0.49275414  0.75115165  0.93774556  1
  O2-  O144  1  0.07250301  0.18155610  0.09201978  1
  O2-  O145  1  0.06996204  0.18089546  0.42209375  1
  O2-  O146  1  0.07369820  0.18271292  0.76523887  1
  O2-  O147  1  0.07051524  0.67723561  0.09683956  1
  O2-  O148  1  0.07018736  0.67833236  0.43463682  1
  O2-  O149  1  0.07311447  0.67979873  0.75784357  1
  O2-  O150  1  0.57015149  0.18052526  0.10006259  1
  O2-  O151  1  0.57279657  0.18253602  0.42543373  1
  O2-  O152  1  0.56791822  0.17697589  0.75596751  1
  O2-  O153  1  0.56919767  0.67736564  0.09710668  1
  O2-  O154  1  0.56915672  0.67824430  0.43503189  1
  O2-  O155  1  0.56883149  0.68021578  0.75742745  1
  O2-  O156  1  0.17781835  0.42776021  0.23733603  1
  O2-  O157  1  0.18092021  0.42706154  0.57828783  1
  O2-  O158  1  0.18281202  0.42793235  0.89950599  1
  O2-  O159  1  0.18028378  0.93279305  0.23278761  1
  O2-  O160  1  0.18009789  0.92618801  0.57808071  1
  O2-  O161  1  0.17639800  0.93044750  0.90860581  1
  O2-  O162  1  0.68114343  0.42862091  0.23072455  1
  O2-  O163  1  0.67247724  0.42977838  0.57881804  1
  O2-  O164  1  0.68065744  0.42385248  0.90875061  1
  O2-  O165  1  0.67962716  0.92667869  0.23510441  1
  O2-  O166  1  0.67841776  0.92804737  0.57139966  1
  O2-  O167  1  0.68019313  0.93297743  0.90231912  1
  O2-  O168  1  0.42472961  0.32005229  0.08582602  1
  O2-  O169  1  0.43203280  0.32092598  0.43233876  1
  O2-  O170  1  0.42999952  0.31855281  0.75625579  1
  O2-  O171  1  0.42916962  0.82438547  0.08925718  1
  O2-  O172  1  0.42801709  0.82324628  0.42382681  1
  O2-  O173  1  0.42466062  0.82244447  0.75666599  1
  O2-  O174  1  0.92582834  0.31981650  0.09026454  1
  O2-  O175  1  0.92544853  0.32133556  0.42319694  1
  O2-  O176  1  0.93111588  0.32605613  0.75441865  1
  O2-  O177  1  0.93079262  0.82327661  0.09458285  1
  O2-  O178  1  0.92893336  0.81964323  0.43265859  1
  O2-  O179  1  0.93039545  0.81777205  0.75615991  1
  O2-  O180  1  0.32035111  0.07236037  0.23643476  1
  O2-  O181  1  0.31918104  0.07227755  0.57714662  1
  O2-  O182  1  0.31723135  0.06976769  0.89858671  1
  O2-  O183  1  0.32380332  0.56704932  0.23156985  1
  O2-  O184  1  0.32346975  0.57173384  0.57008749  1
  O2-  O185  1  0.32446613  0.57018438  0.90975243  1
  O2-  O186  1  0.81813270  0.07650131  0.23301591  1
  O2-  O187  1  0.82250880  0.06694882  0.57066054  1
  O2-  O188  1  0.82358720  0.07631542  0.90906319  1
  O2-  O189  1  0.82086343  0.56954568  0.24268766  1
  O2-  O190  1  0.81888665  0.56881372  0.56623898  1
  O2-  O191  1  0.81926473  0.56742077  0.90207866  1
  O2-  O192  1  0.04460631  0.08939376  0.26816843  1
  O2-  O193  1  0.04297127  0.08047402  0.59816357  1
  O2-  O194  1  0.04879950  0.08885555  0.93739325  1
  O2-  O195  1  0.04557741  0.57691727  0.26988496  1
  O2-  O196  1  0.04884591  0.58386814  0.60852989  1
  O2-  O197  1  0.04060656  0.57831226  0.93182950  1
  O2-  O198  1  0.55255067  0.08121590  0.27799141  1
  O2-  O199  1  0.53903966  0.08676396  0.60370324  1
  O2-  O200  1  0.53575542  0.08322440  0.93187986  1
  O2-  O201  1  0.53772001  0.58454559  0.26497943  1
  O2-  O202  1  0.54206762  0.58588202  0.60814459  1
  O2-  O203  1  0.54313087  0.58124362  0.92716883  1
  O2-  O204  1  0.16212742  0.21026543  0.27039142  1
  O2-  O205  1  0.16602242  0.21157522  0.59596317  1
  O2-  O206  1  0.16253272  0.21277862  0.93863527  1
  O2-  O207  1  0.17277720  0.70347252  0.26823663  1
  O2-  O208  1  0.16537009  0.70799860  0.60806998  1
  O2-  O209  1  0.17183242  0.70271316  0.93082175  1
  O2-  O210  1  0.66525156  0.20876440  0.27373202  1
  O2-  O211  1  0.66570892  0.20028143  0.60622803  1
  O2-  O212  1  0.66539504  0.20949661  0.92858714  1
  O2-  O213  1  0.66642402  0.70763530  0.26655658  1
  O2-  O214  1  0.66201000  0.70709010  0.60592666  1
  O2-  O215  1  0.66549908  0.71263422  0.93056504  1
  O2-  O216  1  0.08280223  0.45639013  0.06751974  1
  O2-  O217  1  0.07530320  0.44938940  0.40389186  1
  O2-  O218  1  0.08466345  0.44767828  0.72835348  1
  O2-  O219  1  0.08227838  0.95542917  0.05932282  1
  O2-  O220  1  0.08267330  0.96001239  0.40086267  1
  O2-  O221  1  0.08719556  0.95589681  0.72981620  1
  O2-  O222  1  0.57973770  0.44588033  0.05479750  1
  O2-  O223  1  0.58296893  0.46070829  0.39906906  1
  O2-  O224  1  0.58386576  0.45321459  0.73326264  1
  O2-  O225  1  0.58505426  0.96160552  0.06915691  1
  O2-  O226  1  0.58240628  0.95117099  0.40460823  1
  O2-  O227  1  0.57720069  0.95675248  0.73542423  1
  O2-  O228  1  0.21193939  0.33652043  0.06927856  1
  O2-  O229  1  0.20822379  0.33270562  0.40452618  1
  O2-  O230  1  0.21119576  0.33480215  0.72907696  1
  O2-  O231  1  0.19919696  0.83255120  0.05831721  1
  O2-  O232  1  0.20680354  0.83147598  0.40187029  1
  O2-  O233  1  0.20865224  0.83869885  0.73327908  1
  O2-  O234  1  0.70695921  0.33344903  0.06046419  1
  O2-  O235  1  0.71011847  0.33661975  0.40282874  1
  O2-  O236  1  0.69857149  0.33179640  0.72813288  1
  O2-  O237  1  0.71141167  0.83385231  0.06692013  1
  O2-  O238  1  0.70989831  0.82753797  0.40250615  1
  O2-  O239  1  0.70771658  0.83147017  0.73663259  1
  O2-  O240  1  0.46300810  0.41275385  0.26148977  1
  O2-  O241  1  0.45750409  0.41396872  0.60554691  1
  O2-  O242  1  0.44997238  0.41327854  0.93192453  1
  O2-  O243  1  0.45338007  0.92026801  0.27425832  1
  O2-  O244  1  0.45228321  0.91379119  0.60392501  1
  O2-  O245  1  0.45793145  0.91547702  0.93647706  1
  O2-  O246  1  0.95244182  0.41263053  0.26957450  1
  O2-  O247  1  0.95713120  0.41545004  0.60043611  1
  O2-  O248  1  0.95970746  0.41182779  0.93767670  1
  O2-  O249  1  0.95748922  0.92129103  0.26527099  1
  O2-  O250  1  0.95795372  0.90963092  0.60491940  1
  O2-  O251  1  0.95652039  0.92100159  0.92662188  1
  O2-  O252  1  0.33078244  0.29090897  0.26573284  1
  O2-  O253  1  0.34037905  0.29036078  0.60316480  1
  O2-  O254  1  0.33314062  0.29106196  0.93366049  1
  O2-  O255  1  0.33468634  0.80213185  0.27092934  1
  O2-  O256  1  0.33439012  0.79335061  0.60466286  1
  O2-  O257  1  0.33332357  0.80356067  0.93716157  1
  O2-  O258  1  0.83526552  0.29115184  0.26995600  1
  O2-  O259  1  0.83114110  0.30388802  0.60523965  1
  O2-  O260  1  0.83788074  0.29680790  0.93314304  1
  O2-  O261  1  0.83219970  0.79312054  0.26421347  1
  O2-  O262  1  0.83654315  0.78885606  0.60604822  1
  O2-  O263  1  0.83158911  0.79009165  0.92851730  1
  O2-  O264  1  0.41517556  0.04052275  0.06771154  1
  O2-  O265  1  0.42067693  0.04844587  0.40478687  1
  O2-  O266  1  0.41064790  0.04326686  0.72904731  1
  O2-  O267  1  0.41842505  0.54384895  0.05886232  1
  O2-  O268  1  0.41670720  0.53519645  0.39959541  1
  O2-  O269  1  0.41610685  0.53763788  0.73842127  1
  O2-  O270  1  0.91920125  0.05245872  0.05852908  1
  O2-  O271  1  0.92103058  0.04720846  0.39801818  1
  O2-  O272  1  0.92180992  0.04100583  0.73537265  1
  O2-  O273  1  0.91319990  0.53581397  0.06990845  1
  O2-  O274  1  0.91304072  0.54276606  0.39555169  1
  O2-  O275  1  0.91775885  0.53836242  0.73450133  1
  O2-  O276  1  0.28860793  0.16570869  0.06673735  1
  O2-  O277  1  0.29049490  0.16962834  0.40313492  1
  O2-  O278  1  0.29066512  0.16403801  0.72873669  1
  O2-  O279  1  0.30567445  0.66986283  0.05784773  1
  O2-  O280  1  0.30086721  0.67096135  0.39864042  1
  O2-  O281  1  0.29381468  0.66874574  0.73807526  1
  O2-  O282  1  0.79791567  0.16982639  0.05815392  1
  O2-  O283  1  0.79314322  0.16867277  0.40440583  1
  O2-  O284  1  0.80180605  0.17315070  0.73222727  1
  O2-  O285  1  0.78933592  0.66729618  0.06768981  1
  O2-  O286  1  0.79698068  0.66525474  0.39356986  1
  O2-  O287  1  0.78818226  0.66343268  0.73568582  1
