# generated using pymatgen
data_Ca2Al2SiO7
_symmetry_space_group_name_H-M   'P 1'
_cell_length_a   15.46712045
_cell_length_b   15.46971631
_cell_length_c   15.29099310
_cell_angle_alpha   89.99693091
_cell_angle_beta   89.99899897
_cell_angle_gamma   89.96149936
_symmetry_Int_Tables_number   1
_chemical_formula_structural   Ca2Al2SiO7
_chemical_formula_sum   'Ca48 Al48 Si24 O168'
_cell_volume   3658.70514164
_cell_formula_units_Z   24
loop_
 _symmetry_equiv_pos_site_id
 _symmetry_equiv_pos_as_xyz
  1  'x, y, z'
loop_
 _atom_type_symbol
 _atom_type_oxidation_number
  Ca2+  2.0
  Al0+  0.0
  Si0+  0.0
  O2-  -2.0
loop_
 _atom_site_type_symbol
 _atom_site_label
 _atom_site_symmetry_multiplicity
 _atom_site_fract_x
 _atom_site_fract_y
 _atom_site_fract_z
 _atom_site_occupancy
  Ca2+  Ca0  1  0.15974846  0.08633549  0.16945747  1
  Ca2+  Ca1  1  0.16672599  0.08506416  0.50750074  1
  Ca2+  Ca2  1  0.16685672  0.08811055  0.83523563  1
  Ca2+  Ca3  1  0.16393186  0.57050982  0.17115803  1
  Ca2+  Ca4  1  0.16486587  0.57861951  0.50637083  1
  Ca2+  Ca5  1  0.17310450  0.58235099  0.83699434  1
  Ca2+  Ca6  1  0.66941829  0.08031715  0.17170244  1
  Ca2+  Ca7  1  0.66908404  0.07994617  0.50524349  1
  Ca2+  Ca8  1  0.66659526  0.07944288  0.83813145  1
  Ca2+  Ca9  1  0.67019299  0.57650664  0.16425462  1
  Ca2+  Ca10  1  0.67387276  0.58090085  0.50612733  1
  Ca2+  Ca11  1  0.67313227  0.58743279  0.84011385  1
  Ca2+  Ca12  1  0.08277435  0.32991427  0.15952741  1
  Ca2+  Ca13  1  0.08289258  0.32478639  0.49044018  1
  Ca2+  Ca14  1  0.08527002  0.33006890  0.83342559  1
  Ca2+  Ca15  1  0.07525355  0.82408167  0.16550378  1
  Ca2+  Ca16  1  0.08351079  0.81646586  0.49492666  1
  Ca2+  Ca17  1  0.07800401  0.82433531  0.82975118  1
  Ca2+  Ca18  1  0.57484974  0.34679294  0.16275159  1
  Ca2+  Ca19  1  0.57024499  0.34417734  0.49597373  1
  Ca2+  Ca20  1  0.57191430  0.34629007  0.83322542  1
  Ca2+  Ca21  1  0.57827021  0.82419833  0.15554631  1
  Ca2+  Ca22  1  0.57889755  0.82665653  0.50305779  1
  Ca2+  Ca23  1  0.57520728  0.82049670  0.83134831  1
  Ca2+  Ca24  1  0.32425106  0.40842967  0.16969841  1
  Ca2+  Ca25  1  0.32835767  0.41690778  0.50365279  1
  Ca2+  Ca26  1  0.33169362  0.41761290  0.83767486  1
  Ca2+  Ca27  1  0.33415974  0.91896376  0.16986245  1
  Ca2+  Ca28  1  0.33266171  0.92495359  0.51252791  1
  Ca2+  Ca29  1  0.34317429  0.92130762  0.83551927  1
  Ca2+  Ca30  1  0.82562790  0.41019901  0.17120914  1
  Ca2+  Ca31  1  0.82851601  0.41550909  0.50399063  1
  Ca2+  Ca32  1  0.82904277  0.42922246  0.84599071  1
  Ca2+  Ca33  1  0.84138629  0.91422790  0.17046688  1
  Ca2+  Ca34  1  0.83783604  0.91401668  0.50180668  1
  Ca2+  Ca35  1  0.83533522  0.91595886  0.84185950  1
  Ca2+  Ca36  1  0.41744186  0.18010423  0.16339113  1
  Ca2+  Ca37  1  0.41010224  0.17859500  0.49976188  1
  Ca2+  Ca38  1  0.41191164  0.17944782  0.82797417  1
  Ca2+  Ca39  1  0.42492564  0.66941008  0.15559952  1
  Ca2+  Ca40  1  0.41833195  0.66122558  0.50187255  1
  Ca2+  Ca41  1  0.42621048  0.66695937  0.82267093  1
  Ca2+  Ca42  1  0.92588952  0.18153438  0.16287203  1
  Ca2+  Ca43  1  0.92877362  0.17155313  0.49244898  1
  Ca2+  Ca44  1  0.92709820  0.17504838  0.83269938  1
  Ca2+  Ca45  1  0.91299596  0.67264468  0.16261826  1
  Ca2+  Ca46  1  0.92631733  0.66319960  0.49737722  1
  Ca2+  Ca47  1  0.91430908  0.66470928  0.82892634  1
  Al0+  Al48  1  0.00194738  -0.00109050  -0.00602466  1
  Al0+  Al49  1  0.00128248  -0.00118990  0.33034103  1
  Al0+  Al50  1  -0.00026791  0.00150419  0.66519157  1
  Al0+  Al51  1  0.00163549  0.50110444  0.00504774  1
  Al0+  Al52  1  -0.00039472  0.49871298  0.33226646  1
  Al0+  Al53  1  -0.00347772  0.49920517  0.66782285  1
  Al0+  Al54  1  0.50066919  0.00116038  0.00084393  1
  Al0+  Al55  1  0.50114953  0.00026663  0.33619286  1
  Al0+  Al56  1  0.49995471  0.00075216  0.66901383  1
  Al0+  Al57  1  0.50204732  0.50156683  -0.00509977  1
  Al0+  Al58  1  0.50088479  0.50114580  0.33242383  1
  Al0+  Al59  1  0.49811153  0.50054960  0.66025375  1
  Al0+  Al60  1  0.25316709  0.24875803  -0.00282487  1
  Al0+  Al61  1  0.25257433  0.25030053  0.33072212  1
  Al0+  Al62  1  0.24950536  0.24777583  0.66333121  1
  Al0+  Al63  1  0.24894124  0.75491052  -0.00049179  1
  Al0+  Al64  1  0.25069068  0.75158964  0.32966143  1
  Al0+  Al65  1  0.24746735  0.75019970  0.66385311  1
  Al0+  Al66  1  0.75148062  0.24913462  0.00112646  1
  Al0+  Al67  1  0.74931117  0.24668749  0.33883586  1
  Al0+  Al68  1  0.74803842  0.24819957  0.67018542  1
  Al0+  Al69  1  0.74900322  0.75133841  -0.00228404  1
  Al0+  Al70  1  0.74800537  0.74997494  0.33235148  1
  Al0+  Al71  1  0.74737852  0.75059777  0.66648259  1
  Al0+  Al72  1  0.31979810  0.07067696  0.68165413  1
  Al0+  Al73  1  0.42793660  0.82221087  0.65086653  1
  Al0+  Al74  1  0.07417699  0.67549897  0.31702110  1
  Al0+  Al75  1  0.31927474  0.57107729  0.67864110  1
  Al0+  Al76  1  0.43208363  0.32132601  0.31889129  1
  Al0+  Al77  1  0.07283603  0.18041531  0.31836701  1
  Al0+  Al78  1  0.57131981  0.67870146  0.64809565  1
  Al0+  Al79  1  0.67886230  0.42854822  0.34877477  1
  Al0+  Al80  1  0.06970336  0.67691171  0.65503650  1
  Al0+  Al81  1  0.92745220  0.32479867  0.98456012  1
  Al0+  Al82  1  0.42659135  0.82376872  0.98589784  1
  Al0+  Al83  1  0.07154219  0.18029617  0.98355736  1
  Al0+  Al84  1  0.42976478  0.32057214  0.65192415  1
  Al0+  Al85  1  0.93043041  0.81856160  0.98596526  1
  Al0+  Al86  1  0.92886609  0.81791326  0.32022236  1
  Al0+  Al87  1  0.82198250  0.57380382  0.01677106  1
  Al0+  Al88  1  0.43151742  0.32017472  0.98612284  1
  Al0+  Al89  1  0.56926510  0.67914879  0.98436849  1
  Al0+  Al90  1  0.67905137  0.42800178  0.01473280  1
  Al0+  Al91  1  0.82004079  0.57019219  0.67965731  1
  Al0+  Al92  1  0.18246188  0.42848708  0.01223638  1
  Al0+  Al93  1  0.17871559  0.42860181  0.34680171  1
  Al0+  Al94  1  0.92553857  0.32132348  0.32057304  1
  Al0+  Al95  1  0.06924859  0.18051352  0.65195832  1
  Si0+  Si96  1  0.67655351  0.42722349  0.68269559  1
  Si0+  Si97  1  0.82195760  0.06784611  0.34944402  1
  Si0+  Si98  1  0.82055232  0.57407876  0.35029415  1
  Si0+  Si99  1  0.32253157  0.57471467  0.01384226  1
  Si0+  Si100  1  0.17737449  0.42665686  0.68176477  1
  Si0+  Si101  1  0.82429537  0.06993606  0.01602184  1
  Si0+  Si102  1  0.67999152  0.93160180  0.01597578  1
  Si0+  Si103  1  0.57354175  0.17692473  0.65031020  1
  Si0+  Si104  1  0.67925549  0.92981776  0.68375173  1
  Si0+  Si105  1  0.82233086  0.07085707  0.68355257  1
  Si0+  Si106  1  0.43002335  0.82440865  0.31914365  1
  Si0+  Si107  1  0.17916640  0.92875049  0.34895801  1
  Si0+  Si108  1  0.07383886  0.67672405  0.98375344  1
  Si0+  Si109  1  0.57381934  0.17625157  0.98493690  1
  Si0+  Si110  1  0.57189522  0.17487273  0.31843871  1
  Si0+  Si111  1  0.92500450  0.32157689  0.65142740  1
  Si0+  Si112  1  0.32220564  0.06959286  0.34861135  1
  Si0+  Si113  1  0.67768051  0.92763914  0.35003965  1
  Si0+  Si114  1  0.92715367  0.82240357  0.65169421  1
  Si0+  Si115  1  0.32169959  0.06994068  0.01694712  1
  Si0+  Si116  1  0.56975457  0.68021481  0.31726547  1
  Si0+  Si117  1  0.32188827  0.57402158  0.34771920  1
  Si0+  Si118  1  0.17623412  0.92803603  0.68417992  1
  Si0+  Si119  1  0.17681471  0.92959426  0.01682450  1
  O2-  O120  1  0.25038344  -0.00107444  0.05872773  1
  O2-  O121  1  0.25003840  -0.00008501  0.39108309  1
  O2-  O122  1  0.24732017  -0.00596620  0.72926126  1
  O2-  O123  1  0.25531605  0.50578786  0.05949716  1
  O2-  O124  1  0.24988996  0.50829559  0.39132154  1
  O2-  O125  1  0.24439827  0.49709679  0.72581704  1
  O2-  O126  1  0.75158214  0.00089516  0.05983125  1
  O2-  O127  1  0.75126454  -0.00402672  0.39221292  1
  O2-  O128  1  0.75210074  -0.00081612  0.72608717  1
  O2-  O129  1  0.75496722  0.49593124  0.06549328  1
  O2-  O130  1  0.75710239  0.50004411  0.39453816  1
  O2-  O131  1  0.74574145  0.49507057  0.72596233  1
  O2-  O132  1  0.00414456  0.25630358  0.27049240  1
  O2-  O133  1  -0.00511761  0.25503996  0.60616189  1
  O2-  O134  1  0.00219009  0.25525521  0.93458747  1
  O2-  O135  1  -0.00266183  0.74389587  0.26893425  1
  O2-  O136  1  -0.00579950  0.75209920  0.60914461  1
  O2-  O137  1  0.00037346  0.74048679  0.93930040  1
  O2-  O138  1  0.50948726  0.24811363  0.27358935  1
  O2-  O139  1  0.50717478  0.24723672  0.60616334  1
  O2-  O140  1  0.51083300  0.24947399  0.94063235  1
  O2-  O141  1  0.49677221  0.75031119  0.27665903  1
  O2-  O142  1  0.49560615  0.74771308  0.59813871  1
  O2-  O143  1  0.49093446  0.74568691  0.93640766  1
  O2-  O144  1  0.06961220  0.17903187  0.09693340  1
  O2-  O145  1  0.07084931  0.17813801  0.43216387  1
  O2-  O146  1  0.06798182  0.17969986  0.76458307  1
  O2-  O147  1  0.07735005  0.68137120  0.08893626  1
  O2-  O148  1  0.07545316  0.67920506  0.43095315  1
  O2-  O149  1  0.06938840  0.67877138  0.76792559  1
  O2-  O150  1  0.56956173  0.16924095  0.09036004  1
  O2-  O151  1  0.56831031  0.16847385  0.42366266  1
  O2-  O152  1  0.57522398  0.17524417  0.75573295  1
  O2-  O153  1  0.56901173  0.68224561  0.09882647  1
  O2-  O154  1  0.57075827  0.68180981  0.42217041  1
  O2-  O155  1  0.57305780  0.68151988  0.76093616  1
  O2-  O156  1  0.18385583  0.42558113  0.23384420  1
  O2-  O157  1  0.17840935  0.42656378  0.57597956  1
  O2-  O158  1  0.18531100  0.42807362  0.89895114  1
  O2-  O159  1  0.18091603  0.92870651  0.24382130  1
  O2-  O160  1  0.17514741  0.93113268  0.57824677  1
  O2-  O161  1  0.17361743  0.92973973  0.91206645  1
  O2-  O162  1  0.67648585  0.43151472  0.23630046  1
  O2-  O163  1  0.67918174  0.42624590  0.57674950  1
  O2-  O164  1  0.67786775  0.43004015  0.90114812  1
  O2-  O165  1  0.67348477  0.93003264  0.24521583  1
  O2-  O166  1  0.68007377  0.93145851  0.57818333  1
  O2-  O167  1  0.67998433  0.93475401  0.91079857  1
  O2-  O168  1  0.43040109  0.31698568  0.09921197  1
  O2-  O169  1  0.43075697  0.31898327  0.43188566  1
  O2-  O170  1  0.42990949  0.31934682  0.76494522  1
  O2-  O171  1  0.43118558  0.82505621  0.10038894  1
  O2-  O172  1  0.43199436  0.82826036  0.42372070  1
  O2-  O173  1  0.43331096  0.82332405  0.76380114  1
  O2-  O174  1  0.92572485  0.31935511  0.09781644  1
  O2-  O175  1  0.92407594  0.31508800  0.43452167  1
  O2-  O176  1  0.92439239  0.31950630  0.75665221  1
  O2-  O177  1  0.93284393  0.82103028  0.09874648  1
  O2-  O178  1  0.93014986  0.81873096  0.43399441  1
  O2-  O179  1  0.92800994  0.82423201  0.75727277  1
  O2-  O180  1  0.32623508  0.06593620  0.24356864  1
  O2-  O181  1  0.31797889  0.07065121  0.56806925  1
  O2-  O182  1  0.32333777  0.06951465  0.91204536  1
  O2-  O183  1  0.32440419  0.57473491  0.24213272  1
  O2-  O184  1  0.31803950  0.56848728  0.56532234  1
  O2-  O185  1  0.32021330  0.57451073  0.90821959  1
  O2-  O186  1  0.81974879  0.06654907  0.24448704  1
  O2-  O187  1  0.82154369  0.06996218  0.57834600  1
  O2-  O188  1  0.82245705  0.06731374  0.91053516  1
  O2-  O189  1  0.81432856  0.58070074  0.24555370  1
  O2-  O190  1  0.82041125  0.56902922  0.56634061  1
  O2-  O191  1  0.81760891  0.57575137  0.90294988  1
  O2-  O192  1  0.04156112  0.08236886  0.26673506  1
  O2-  O193  1  0.03740269  0.08369926  0.59785425  1
  O2-  O194  1  0.04025308  0.08324671  0.92982814  1
  O2-  O195  1  0.05183092  0.57551064  0.26713148  1
  O2-  O196  1  0.03806867  0.58075729  0.60015546  1
  O2-  O197  1  0.05583332  0.58137212  0.94026198  1
  O2-  O198  1  0.54201950  0.08324947  0.26901590  1
  O2-  O199  1  0.54713232  0.08393242  0.60388600  1
  O2-  O200  1  0.54321381  0.08532107  0.93592867  1
  O2-  O201  1  0.54199248  0.58937809  0.26943810  1
  O2-  O202  1  0.54482950  0.58071955  0.59416803  1
  O2-  O203  1  0.54716783  0.58142146  0.92905804  1
  O2-  O204  1  0.17246894  0.20287318  0.26655273  1
  O2-  O205  1  0.16560008  0.20850835  0.59726450  1
  O2-  O206  1  0.17120915  0.20524381  0.93241250  1
  O2-  O207  1  0.17052275  0.71025603  0.26272609  1
  O2-  O208  1  0.16402898  0.70870543  0.59768422  1
  O2-  O209  1  0.16491977  0.70961331  0.93624504  1
  O2-  O210  1  0.66815372  0.19276215  0.27647552  1
  O2-  O211  1  0.66851352  0.19856694  0.60416872  1
  O2-  O212  1  0.66987292  0.19291795  0.94139064  1
  O2-  O213  1  0.65961273  0.71169049  0.26937933  1
  O2-  O214  1  0.66764831  0.71427698  0.59403139  1
  O2-  O215  1  0.66420228  0.71650883  0.93137687  1
  O2-  O216  1  0.08557104  0.45519787  0.06741106  1
  O2-  O217  1  0.07979818  0.45212464  0.40071259  1
  O2-  O218  1  0.08249357  0.44920005  0.72605490  1
  O2-  O219  1  0.08649034  0.96119026  0.06529949  1
  O2-  O220  1  0.08733414  0.95605663  0.39639395  1
  O2-  O221  1  0.08318888  0.95729375  0.73035774  1
  O2-  O222  1  0.58081516  0.46179415  0.06691789  1
  O2-  O223  1  0.58323808  0.46480975  0.40248137  1
  O2-  O224  1  0.58213589  0.45402724  0.72468762  1
  O2-  O225  1  0.58908175  0.96134255  0.06531824  1
  O2-  O226  1  0.58809067  0.95954932  0.40044625  1
  O2-  O227  1  0.58945466  0.96099404  0.73233153  1
  O2-  O228  1  0.21729787  0.33224380  0.06565589  1
  O2-  O229  1  0.21531792  0.33279899  0.40070080  1
  O2-  O230  1  0.20640111  0.33398797  0.72698612  1
  O2-  O231  1  0.20264079  0.83811365  0.06681874  1
  O2-  O232  1  0.20812969  0.83695030  0.39637104  1
  O2-  O233  1  0.19732829  0.83326956  0.72866518  1
  O2-  O234  1  0.70031620  0.32631637  0.06642392  1
  O2-  O235  1  0.70286105  0.32924622  0.40235698  1
  O2-  O236  1  0.69763646  0.33208880  0.72829160  1
  O2-  O237  1  0.70659159  0.83998847  0.06317257  1
  O2-  O238  1  0.70374556  0.83577629  0.39798336  1
  O2-  O239  1  0.70562954  0.83820812  0.73118768  1
  O2-  O240  1  0.46133458  0.41836182  0.26557467  1
  O2-  O241  1  0.45831367  0.41575621  0.59486238  1
  O2-  O242  1  0.45774048  0.41741102  0.93203696  1
  O2-  O243  1  0.46217470  0.91459891  0.27075202  1
  O2-  O244  1  0.46194385  0.92023477  0.59867208  1
  O2-  O245  1  0.46296881  0.91989015  0.93385068  1
  O2-  O246  1  0.94177878  0.42282555  0.27206331  1
  O2-  O247  1  0.94711593  0.41558067  0.60590891  1
  O2-  O248  1  0.95402695  0.42482344  0.93493053  1
  O2-  O249  1  0.95908029  0.91563559  0.26705738  1
  O2-  O250  1  0.95318186  0.91571959  0.60526623  1
  O2-  O251  1  0.96351538  0.91332438  0.92986030  1
  O2-  O252  1  0.33827947  0.28527208  0.26395213  1
  O2-  O253  1  0.33480253  0.28566775  0.59771330  1
  O2-  O254  1  0.33853310  0.28358093  0.93020331  1
  O2-  O255  1  0.33699705  0.80243832  0.27221666  1
  O2-  O256  1  0.32724546  0.80100492  0.60034512  1
  O2-  O257  1  0.32465981  0.80861946  0.93669588  1
  O2-  O258  1  0.82905498  0.28392087  0.26849238  1
  O2-  O259  1  0.83119849  0.29310009  0.60669602  1
  O2-  O260  1  0.82987274  0.29190696  0.93160903  1
  O2-  O261  1  0.82790593  0.79609531  0.26821978  1
  O2-  O262  1  0.83251757  0.80073515  0.60696137  1
  O2-  O263  1  0.83190439  0.79551871  0.93296919  1
  O2-  O264  1  0.41316680  0.04129350  0.06592513  1
  O2-  O265  1  0.41317958  0.04018815  0.39773683  1
  O2-  O266  1  0.41781309  0.04297409  0.73538191  1
  O2-  O267  1  0.41719063  0.55056409  0.05757778  1
  O2-  O268  1  0.41437731  0.54513507  0.39454130  1
  O2-  O269  1  0.41722613  0.54035932  0.73026803  1
  O2-  O270  1  0.91487338  0.03715413  0.06194469  1
  O2-  O271  1  0.91350476  0.03838786  0.39722717  1
  O2-  O272  1  0.91372997  0.04279028  0.73133195  1
  O2-  O273  1  0.92344672  0.55564110  0.06663938  1
  O2-  O274  1  0.91701274  0.55508174  0.39238474  1
  O2-  O275  1  0.91610720  0.54126406  0.73601461  1
  O2-  O276  1  0.29381469  0.16118093  0.06472691  1
  O2-  O277  1  0.29574507  0.16191890  0.39457426  1
  O2-  O278  1  0.28657046  0.16659374  0.73548648  1
  O2-  O279  1  0.29857345  0.66970443  0.05924834  1
  O2-  O280  1  0.30119747  0.66995231  0.39241890  1
  O2-  O281  1  0.29037063  0.66878265  0.73175614  1
  O2-  O282  1  0.79788465  0.16134752  0.06409338  1
  O2-  O283  1  0.79289108  0.15702936  0.40104987  1
  O2-  O284  1  0.79301673  0.16165046  0.73242262  1
  O2-  O285  1  0.78658869  0.67133484  0.06900838  1
  O2-  O286  1  0.78789293  0.66538089  0.39899004  1
  O2-  O287  1  0.78993670  0.66848837  0.73133318  1
