# generated using pymatgen
data_Ca2Al2SiO7
_symmetry_space_group_name_H-M   'P 1'
_cell_length_a   15.45507015
_cell_length_b   15.45494942
_cell_length_c   15.28166610
_cell_angle_alpha   90.00703584
_cell_angle_beta   90.00764880
_cell_angle_gamma   89.99904094
_symmetry_Int_Tables_number   1
_chemical_formula_structural   Ca2Al2SiO7
_chemical_formula_sum   'Ca48 Al48 Si24 O168'
_cell_volume   3650.13786217
_cell_formula_units_Z   24
loop_
 _symmetry_equiv_pos_site_id
 _symmetry_equiv_pos_as_xyz
  1  'x, y, z'
loop_
 _atom_type_symbol
 _atom_type_oxidation_number
  Ca2+  2.0
  Al0+  0.0
  Si0+  0.0
  O2-  -2.0
loop_
 _atom_site_type_symbol
 _atom_site_label
 _atom_site_symmetry_multiplicity
 _atom_site_fract_x
 _atom_site_fract_y
 _atom_site_fract_z
 _atom_site_occupancy
  Ca2+  Ca0  1  0.16926794  0.08117216  0.16077111  1
  Ca2+  Ca1  1  0.16985040  0.08194095  0.50507568  1
  Ca2+  Ca2  1  0.17486992  0.08240175  0.84638530  1
  Ca2+  Ca3  1  0.16983480  0.58329807  0.17323510  1
  Ca2+  Ca4  1  0.17191151  0.58398847  0.50157103  1
  Ca2+  Ca5  1  0.16428188  0.57035659  0.83949991  1
  Ca2+  Ca6  1  0.66499619  0.07562559  0.17437145  1
  Ca2+  Ca7  1  0.67217228  0.07481940  0.50251636  1
  Ca2+  Ca8  1  0.66625096  0.07084733  0.83989788  1
  Ca2+  Ca9  1  0.66330854  0.57731828  0.16924937  1
  Ca2+  Ca10  1  0.65797086  0.57400966  0.50617638  1
  Ca2+  Ca11  1  0.65739393  0.58126394  0.83521576  1
  Ca2+  Ca12  1  0.07654638  0.32856203  0.15360654  1
  Ca2+  Ca13  1  0.08240133  0.33505609  0.49890466  1
  Ca2+  Ca14  1  0.08489535  0.33202079  0.83281655  1
  Ca2+  Ca15  1  0.07898685  0.83036424  0.15905745  1
  Ca2+  Ca16  1  0.07465039  0.83050966  0.49377569  1
  Ca2+  Ca17  1  0.06957974  0.84819989  0.83270293  1
  Ca2+  Ca18  1  0.59078792  0.31970403  0.16319013  1
  Ca2+  Ca19  1  0.58538731  0.33254422  0.49537322  1
  Ca2+  Ca20  1  0.57880917  0.32648469  0.82617557  1
  Ca2+  Ca21  1  0.57614512  0.83671492  0.15703150  1
  Ca2+  Ca22  1  0.58397024  0.83330909  0.49607554  1
  Ca2+  Ca23  1  0.58971066  0.82564909  0.83123178  1
  Ca2+  Ca24  1  0.32762061  0.42426426  0.17003601  1
  Ca2+  Ca25  1  0.33329583  0.42349858  0.50870755  1
  Ca2+  Ca26  1  0.32494249  0.40992218  0.83744564  1
  Ca2+  Ca27  1  0.33711187  0.91515441  0.16559598  1
  Ca2+  Ca28  1  0.33556651  0.91466229  0.49888223  1
  Ca2+  Ca29  1  0.32854336  0.92091788  0.84788759  1
  Ca2+  Ca30  1  0.83055942  0.41469830  0.17100345  1
  Ca2+  Ca31  1  0.81913734  0.41778136  0.50372335  1
  Ca2+  Ca32  1  0.83024351  0.41771588  0.83711143  1
  Ca2+  Ca33  1  0.82139776  0.91839636  0.17153462  1
  Ca2+  Ca34  1  0.82661582  0.92441603  0.50839477  1
  Ca2+  Ca35  1  0.82757695  0.91449410  0.83710928  1
  Ca2+  Ca36  1  0.42917259  0.16111264  0.16053137  1
  Ca2+  Ca37  1  0.42433799  0.17611308  0.49505141  1
  Ca2+  Ca38  1  0.42121018  0.16539479  0.83377568  1
  Ca2+  Ca39  1  0.42008176  0.67543712  0.16227617  1
  Ca2+  Ca40  1  0.42019477  0.67071761  0.49382044  1
  Ca2+  Ca41  1  0.42618224  0.67121271  0.83240453  1
  Ca2+  Ca42  1  0.91831842  0.16995534  0.15833347  1
  Ca2+  Ca43  1  0.90924480  0.16246154  0.49736474  1
  Ca2+  Ca44  1  0.92087114  0.16538588  0.83359509  1
  Ca2+  Ca45  1  0.92232433  0.67046440  0.15984622  1
  Ca2+  Ca46  1  0.92135839  0.67200719  0.49809756  1
  Ca2+  Ca47  1  0.91410401  0.68159995  0.83030815  1
  Al0+  Al48  1  0.00127896  0.00175040  -0.00269654  1
  Al0+  Al49  1  0.00047762  0.00081910  0.33538807  1
  Al0+  Al50  1  0.00040515  0.00133739  0.66298738  1
  Al0+  Al51  1  -0.00190925  0.49989803  0.00067723  1
  Al0+  Al52  1  -0.00006828  0.49964329  0.33052792  1
  Al0+  Al53  1  0.00063821  0.49879184  0.66883606  1
  Al0+  Al54  1  0.49976548  -0.00006380  -0.00176888  1
  Al0+  Al55  1  0.49873466  0.00111143  0.33217271  1
  Al0+  Al56  1  0.50100300  0.00021913  0.66898782  1
  Al0+  Al57  1  0.49941758  0.49916301  -0.00065025  1
  Al0+  Al58  1  0.49665515  0.50109448  0.33988786  1
  Al0+  Al59  1  0.49870643  0.50094229  0.66463864  1
  Al0+  Al60  1  0.25011405  0.25009875  0.00868487  1
  Al0+  Al61  1  0.24896254  0.24986225  0.33257231  1
  Al0+  Al62  1  0.25035308  0.25044824  0.66404433  1
  Al0+  Al63  1  0.25038906  0.74859913  -0.00150799  1
  Al0+  Al64  1  0.24966959  0.74909182  0.33073467  1
  Al0+  Al65  1  0.25048113  0.74957765  0.66870841  1
  Al0+  Al66  1  0.74969350  0.24974878  -0.01020509  1
  Al0+  Al67  1  0.75019106  0.25049661  0.33692195  1
  Al0+  Al68  1  0.75207098  0.25014759  0.67429938  1
  Al0+  Al69  1  0.75124668  0.74827748  -0.00103184  1
  Al0+  Al70  1  0.74991781  0.74876714  0.33666010  1
  Al0+  Al71  1  0.75077716  0.74967410  0.65745780  1
  Al0+  Al72  1  0.42891946  0.31875802  0.65352517  1
  Al0+  Al73  1  0.17763519  0.42973589  0.01580969  1
  Al0+  Al74  1  0.92812097  0.32285967  0.98291347  1
  Al0+  Al75  1  0.57138893  0.17756532  0.98518844  1
  Al0+  Al76  1  0.07228435  0.18056460  0.98499878  1
  Al0+  Al77  1  0.42836504  0.82126257  0.98380313  1
  Al0+  Al78  1  0.17701164  0.92736129  0.01523793  1
  Al0+  Al79  1  0.67989185  0.43064160  0.34510466  1
  Al0+  Al80  1  0.06940633  0.67965209  0.31996671  1
  Al0+  Al81  1  0.43090836  0.82040583  0.31973816  1
  Al0+  Al82  1  0.67549220  0.92754981  0.34833985  1
  Al0+  Al83  1  0.93041078  0.82087170  0.98867064  1
  Al0+  Al84  1  0.56977701  0.68036205  0.65060121  1
  Al0+  Al85  1  0.31834207  0.57177579  0.34772717  1
  Al0+  Al86  1  0.57174254  0.67739696  0.98633545  1
  Al0+  Al87  1  0.67901802  0.92739661  0.68329681  1
  Al0+  Al88  1  0.32270971  0.07088797  0.01690737  1
  Al0+  Al89  1  0.82165390  0.07025156  0.34670334  1
  Al0+  Al90  1  0.93034193  0.82212165  0.65026722  1
  Al0+  Al91  1  0.67721902  0.43049187  0.68227133  1
  Al0+  Al92  1  0.18007629  0.42923693  0.68019560  1
  Al0+  Al93  1  0.82358565  0.07079295  0.68564877  1
  Al0+  Al94  1  0.57043302  0.18268914  0.32171798  1
  Al0+  Al95  1  0.68116329  0.92737878  0.01368011  1
  Si0+  Si96  1  0.42566702  0.32451997  0.31614622  1
  Si0+  Si97  1  0.17952892  0.92944806  0.34849570  1
  Si0+  Si98  1  0.92829490  0.32280987  0.64983225  1
  Si0+  Si99  1  0.32206656  0.57350368  0.68584947  1
  Si0+  Si100  1  0.57282272  0.67550480  0.31755861  1
  Si0+  Si101  1  0.42573882  0.82383957  0.65002687  1
  Si0+  Si102  1  0.07266262  0.67574758  0.65128455  1
  Si0+  Si103  1  0.07078971  0.18117701  0.64987967  1
  Si0+  Si104  1  0.07287436  0.67703410  0.98279317  1
  Si0+  Si105  1  0.67826803  0.42758637  0.01333066  1
  Si0+  Si106  1  0.32092269  0.07261035  0.34990491  1
  Si0+  Si107  1  0.92759657  0.82333613  0.31646641  1
  Si0+  Si108  1  0.57419505  0.17758824  0.64964647  1
  Si0+  Si109  1  0.93018727  0.31915586  0.32068238  1
  Si0+  Si110  1  0.17992851  0.92859307  0.67866289  1
  Si0+  Si111  1  0.32298280  0.57118788  0.01686490  1
  Si0+  Si112  1  0.82111893  0.07335279  0.01537622  1
  Si0+  Si113  1  0.82271938  0.57122063  0.68250289  1
  Si0+  Si114  1  0.42866927  0.32205853  0.98642995  1
  Si0+  Si115  1  0.17688233  0.42718231  0.35045300  1
  Si0+  Si116  1  0.82503008  0.57203832  0.35006577  1
  Si0+  Si117  1  0.07366313  0.17709534  0.31784689  1
  Si0+  Si118  1  0.32011216  0.07111930  0.67883836  1
  Si0+  Si119  1  0.82008772  0.57076771  0.01474502  1
  O2-  O120  1  0.25188832  -0.00383682  0.06599306  1
  O2-  O121  1  0.24908038  0.00187890  0.39198826  1
  O2-  O122  1  0.25542018  -0.00564865  0.71995031  1
  O2-  O123  1  0.25032833  0.50647595  0.06150608  1
  O2-  O124  1  0.24660868  0.49388907  0.39510863  1
  O2-  O125  1  0.25255424  0.50485041  0.72869781  1
  O2-  O126  1  0.75361997  0.00459660  0.06063163  1
  O2-  O127  1  0.75210762  -0.00403244  0.39659654  1
  O2-  O128  1  0.75033425  -0.00022260  0.73425290  1
  O2-  O129  1  0.74980439  0.49799801  0.05583301  1
  O2-  O130  1  0.75046452  0.50919735  0.39312921  1
  O2-  O131  1  0.75165007  0.50589062  0.72840839  1
  O2-  O132  1  0.00199468  0.24880087  0.27892304  1
  O2-  O133  1  -0.00254411  0.24976274  0.60716681  1
  O2-  O134  1  0.00171969  0.25257561  0.93269172  1
  O2-  O135  1  -0.00703675  0.75163049  0.27219916  1
  O2-  O136  1  0.00677284  0.74682207  0.60651178  1
  O2-  O137  1  0.00974530  0.75100755  0.93941522  1
  O2-  O138  1  0.49585565  0.25746446  0.27281317  1
  O2-  O139  1  0.50722110  0.24848462  0.60543965  1
  O2-  O140  1  0.49592470  0.25298150  0.94108775  1
  O2-  O141  1  0.51056116  0.74991770  0.27403715  1
  O2-  O142  1  0.49607480  0.75728805  0.60558620  1
  O2-  O143  1  0.50228496  0.75101601  0.93495081  1
  O2-  O144  1  0.06902403  0.18156672  0.09918245  1
  O2-  O145  1  0.07748245  0.17771548  0.42323701  1
  O2-  O146  1  0.07414807  0.18200564  0.75422349  1
  O2-  O147  1  0.06926751  0.67524889  0.08871037  1
  O2-  O148  1  0.06847592  0.68151509  0.43348987  1
  O2-  O149  1  0.07126019  0.67362182  0.75647607  1
  O2-  O150  1  0.57384892  0.18041892  0.09868695  1
  O2-  O151  1  0.56807039  0.18511028  0.43492753  1
  O2-  O152  1  0.57009871  0.17714988  0.75512748  1
  O2-  O153  1  0.57002584  0.67339342  0.09995750  1
  O2-  O154  1  0.56862176  0.67314223  0.42302255  1
  O2-  O155  1  0.56767996  0.67922100  0.76337657  1
  O2-  O156  1  0.17628602  0.42757558  0.24519912  1
  O2-  O157  1  0.18055195  0.42992283  0.56685944  1
  O2-  O158  1  0.17983672  0.42979335  0.90238197  1
  O2-  O159  1  0.17750192  0.93045253  0.24411945  1
  O2-  O160  1  0.18013037  0.92978531  0.57288213  1
  O2-  O161  1  0.17718951  0.93158552  0.90092063  1
  O2-  O162  1  0.68399097  0.42902099  0.23165635  1
  O2-  O163  1  0.67967857  0.43068318  0.56871229  1
  O2-  O164  1  0.67728178  0.42984361  0.90842260  1
  O2-  O165  1  0.67584554  0.92958256  0.23460978  1
  O2-  O166  1  0.67795805  0.93013734  0.56960378  1
  O2-  O167  1  0.68419892  0.92549122  0.90089369  1
  O2-  O168  1  0.43253858  0.32523560  0.09203491  1
  O2-  O169  1  0.42339329  0.32207250  0.42196957  1
  O2-  O170  1  0.42616030  0.31358480  0.76652954  1
  O2-  O171  1  0.42965485  0.81860890  0.09766037  1
  O2-  O172  1  0.42860357  0.81846555  0.43328556  1
  O2-  O173  1  0.42096705  0.82249343  0.75476380  1
  O2-  O174  1  0.92692371  0.32155099  0.09745971  1
  O2-  O175  1  0.93159730  0.32040530  0.42597445  1
  O2-  O176  1  0.93104984  0.32595887  0.75419062  1
  O2-  O177  1  0.92950963  0.81598311  0.10180601  1
  O2-  O178  1  0.93201767  0.82352870  0.42214371  1
  O2-  O179  1  0.93234582  0.82182381  0.76341399  1
  O2-  O180  1  0.32056266  0.07413168  0.24563618  1
  O2-  O181  1  0.31706533  0.07234324  0.57315005  1
  O2-  O182  1  0.32009754  0.07218718  0.90240129  1
  O2-  O183  1  0.31639900  0.57023064  0.23477428  1
  O2-  O184  1  0.31939557  0.57471053  0.57996915  1
  O2-  O185  1  0.32408757  0.56810460  0.91132647  1
  O2-  O186  1  0.82311879  0.07124098  0.23322271  1
  O2-  O187  1  0.82312595  0.06944000  0.57173853  1
  O2-  O188  1  0.81981873  0.07209376  0.90999613  1
  O2-  O189  1  0.82842717  0.56926056  0.24442176  1
  O2-  O190  1  0.82557940  0.56644623  0.57669756  1
  O2-  O191  1  0.82131108  0.57141606  0.90980518  1
  O2-  O192  1  0.04631891  0.08511871  0.27123491  1
  O2-  O193  1  0.04552228  0.08928024  0.60061692  1
  O2-  O194  1  0.04559687  0.08274513  0.93044479  1
  O2-  O195  1  0.04111465  0.58208679  0.26536123  1
  O2-  O196  1  0.04458744  0.58320989  0.60326039  1
  O2-  O197  1  0.04023497  0.58585411  0.93624471  1
  O2-  O198  1  0.53750408  0.08699796  0.26802652  1
  O2-  O199  1  0.54557705  0.08453565  0.60359695  1
  O2-  O200  1  0.53863838  0.08323660  0.92942053  1
  O2-  O201  1  0.54090458  0.58331879  0.27152793  1
  O2-  O202  1  0.53566543  0.58455992  0.59623984  1
  O2-  O203  1  0.54036691  0.57950833  0.93230826  1
  O2-  O204  1  0.16484498  0.20491187  0.26917842  1
  O2-  O205  1  0.16070980  0.21178103  0.59929388  1
  O2-  O206  1  0.17225983  0.20953308  0.93555732  1
  O2-  O207  1  0.16412865  0.71206831  0.26478942  1
  O2-  O208  1  0.16766310  0.70018334  0.60658537  1
  O2-  O209  1  0.16867531  0.69281875  0.93871189  1
  O2-  O210  1  0.66691526  0.21471257  0.26776633  1
  O2-  O211  1  0.66940356  0.20333228  0.60764852  1
  O2-  O212  1  0.66494998  0.20906287  0.92719718  1
  O2-  O213  1  0.67068758  0.69097868  0.27613742  1
  O2-  O214  1  0.66705099  0.70423906  0.59445422  1
  O2-  O215  1  0.67064379  0.70247239  0.93339156  1
  O2-  O216  1  0.07983121  0.45933051  0.06851137  1
  O2-  O217  1  0.08325049  0.45438325  0.39622944  1
  O2-  O218  1  0.08297230  0.45774001  0.73445647  1
  O2-  O219  1  0.07951295  0.95915851  0.06921734  1
  O2-  O220  1  0.08835481  0.95751696  0.39800666  1
  O2-  O221  1  0.09008991  0.96210057  0.72480032  1
  O2-  O222  1  0.58695406  0.45494936  0.06210627  1
  O2-  O223  1  0.58207027  0.45624827  0.39941172  1
  O2-  O224  1  0.57989711  0.46071242  0.73459575  1
  O2-  O225  1  0.58349780  0.95800190  0.06390542  1
  O2-  O226  1  0.57840679  0.96024516  0.40191176  1
  O2-  O227  1  0.57908838  0.95426479  0.73532895  1
  O2-  O228  1  0.20851896  0.33530483  0.07295651  1
  O2-  O229  1  0.19990015  0.33202196  0.39552007  1
  O2-  O230  1  0.21310773  0.33260405  0.73283988  1
  O2-  O231  1  0.20076847  0.82607586  0.06495470  1
  O2-  O232  1  0.20927614  0.83862601  0.39632957  1
  O2-  O233  1  0.20009610  0.83512470  0.72580481  1
  O2-  O234  1  0.70801388  0.33523253  0.05853903  1
  O2-  O235  1  0.71543390  0.33744109  0.40248129  1
  O2-  O236  1  0.70782771  0.33442008  0.73615915  1
  O2-  O237  1  0.71327636  0.83100319  0.06791591  1
  O2-  O238  1  0.69870718  0.82645460  0.39893524  1
  O2-  O239  1  0.70963382  0.82692967  0.73007824  1
  O2-  O240  1  0.44861299  0.41967823  0.27310915  1
  O2-  O241  1  0.45506309  0.41696430  0.60075355  1
  O2-  O242  1  0.45403192  0.41413050  0.93725975  1
  O2-  O243  1  0.45498103  0.91895841  0.26698183  1
  O2-  O244  1  0.44871486  0.91917337  0.60511040  1
  O2-  O245  1  0.45226812  0.92042143  0.93235876  1
  O2-  O246  1  0.95657031  0.41069662  0.27153998  1
  O2-  O247  1  0.95923440  0.41336730  0.60077159  1
  O2-  O248  1  0.95481243  0.42225797  0.93107868  1
  O2-  O249  1  0.95726537  0.91603579  0.27131518  1
  O2-  O250  1  0.96493382  0.91733155  0.59474677  1
  O2-  O251  1  0.95784375  0.91759818  0.93346531  1
  O2-  O252  1  0.33178488  0.29772741  0.27062619  1
  O2-  O253  1  0.33443327  0.28487233  0.59558752  1
  O2-  O254  1  0.33403075  0.29650421  0.94354431  1
  O2-  O255  1  0.33522867  0.78659171  0.26624601  1
  O2-  O256  1  0.33195845  0.79641380  0.60261660  1
  O2-  O257  1  0.32952853  0.79225752  0.93056836  1
  O2-  O258  1  0.83907287  0.29136206  0.27271299  1
  O2-  O259  1  0.83526889  0.29582011  0.60402949  1
  O2-  O260  1  0.83146346  0.29540726  0.92702938  1
  O2-  O261  1  0.83190658  0.80025042  0.27387440  1
  O2-  O262  1  0.83642954  0.79010501  0.59272006  1
  O2-  O263  1  0.83740371  0.78358398  0.93247676  1
  O2-  O264  1  0.42095761  0.04263055  0.06963371  1
  O2-  O265  1  0.41114599  0.04405137  0.39915579  1
  O2-  O266  1  0.41376729  0.05089141  0.72510127  1
  O2-  O267  1  0.41450068  0.54061310  0.06535931  1
  O2-  O268  1  0.41387101  0.54334832  0.40523177  1
  O2-  O269  1  0.41482878  0.54624057  0.73061603  1
  O2-  O270  1  0.91621525  0.05059730  0.05902946  1
  O2-  O271  1  0.92159893  0.04578233  0.40112216  1
  O2-  O272  1  0.92376898  0.04169678  0.73487513  1
  O2-  O273  1  0.91118222  0.54320629  0.06444712  1
  O2-  O274  1  0.91607427  0.53997653  0.39845044  1
  O2-  O275  1  0.91477742  0.54313433  0.73055738  1
  O2-  O276  1  0.29366280  0.16753347  0.07344597  1
  O2-  O277  1  0.29150924  0.16458145  0.39800416  1
  O2-  O278  1  0.28520319  0.15980055  0.72669711  1
  O2-  O279  1  0.30040290  0.66574499  0.06169887  1
  O2-  O280  1  0.28333276  0.66667688  0.40330785  1
  O2-  O281  1  0.29735844  0.66723861  0.73250333  1
  O2-  O282  1  0.79509196  0.16855697  0.05845858  1
  O2-  O283  1  0.79225711  0.16773124  0.40154906  1
  O2-  O284  1  0.80222198  0.17124033  0.73642031  1
  O2-  O285  1  0.79176249  0.66028947  0.06584580  1
  O2-  O286  1  0.80699249  0.66755839  0.39497053  1
  O2-  O287  1  0.79991408  0.66691520  0.72363395  1
