# generated using pymatgen
data_Ca2Al2SiO7
_symmetry_space_group_name_H-M   'P 1'
_cell_length_a   15.45861366
_cell_length_b   15.45968299
_cell_length_c   15.28451987
_cell_angle_alpha   90.01420811
_cell_angle_beta   90.00038090
_cell_angle_gamma   89.99338404
_symmetry_Int_Tables_number   1
_chemical_formula_structural   Ca2Al2SiO7
_chemical_formula_sum   'Ca48 Al48 Si24 O168'
_cell_volume   3652.77491960
_cell_formula_units_Z   24
loop_
 _symmetry_equiv_pos_site_id
 _symmetry_equiv_pos_as_xyz
  1  'x, y, z'
loop_
 _atom_type_symbol
 _atom_type_oxidation_number
  Ca2+  2.0
  Al0+  0.0
  Si0+  0.0
  O2-  -2.0
loop_
 _atom_site_type_symbol
 _atom_site_label
 _atom_site_symmetry_multiplicity
 _atom_site_fract_x
 _atom_site_fract_y
 _atom_site_fract_z
 _atom_site_occupancy
  Ca2+  Ca0  1  0.16727354  0.08156123  0.17013783  1
  Ca2+  Ca1  1  0.17650321  0.08072856  0.50526087  1
  Ca2+  Ca2  1  0.15924320  0.07122573  0.83921198  1
  Ca2+  Ca3  1  0.16221948  0.58355711  0.16677535  1
  Ca2+  Ca4  1  0.17129961  0.57991163  0.51182331  1
  Ca2+  Ca5  1  0.16512979  0.58798606  0.83243272  1
  Ca2+  Ca6  1  0.67440734  0.08704936  0.17305272  1
  Ca2+  Ca7  1  0.66901220  0.07660366  0.49829057  1
  Ca2+  Ca8  1  0.67308888  0.08022303  0.83820399  1
  Ca2+  Ca9  1  0.66664760  0.57410773  0.16847947  1
  Ca2+  Ca10  1  0.66923794  0.57515460  0.50831197  1
  Ca2+  Ca11  1  0.66962383  0.57013457  0.83740706  1
  Ca2+  Ca12  1  0.07131021  0.32187961  0.15853302  1
  Ca2+  Ca13  1  0.07458477  0.33933594  0.49644204  1
  Ca2+  Ca14  1  0.07339970  0.33049271  0.82542357  1
  Ca2+  Ca15  1  0.07962971  0.83342457  0.16010237  1
  Ca2+  Ca16  1  0.07680961  0.83456790  0.50244250  1
  Ca2+  Ca17  1  0.08471224  0.82860679  0.82417357  1
  Ca2+  Ca18  1  0.58354390  0.32013824  0.16191188  1
  Ca2+  Ca19  1  0.57869769  0.32805211  0.49180595  1
  Ca2+  Ca20  1  0.59337966  0.32863056  0.83128961  1
  Ca2+  Ca21  1  0.57655449  0.84679515  0.17000928  1
  Ca2+  Ca22  1  0.57653454  0.84211185  0.49475955  1
  Ca2+  Ca23  1  0.57680217  0.83553520  0.82202809  1
  Ca2+  Ca24  1  0.33203944  0.41442667  0.17401100  1
  Ca2+  Ca25  1  0.32916286  0.42151057  0.51070379  1
  Ca2+  Ca26  1  0.32632670  0.42327241  0.83291818  1
  Ca2+  Ca27  1  0.32684836  0.92125309  0.17355907  1
  Ca2+  Ca28  1  0.33440091  0.91823177  0.50508897  1
  Ca2+  Ca29  1  0.32144339  0.90951752  0.83379480  1
  Ca2+  Ca30  1  0.83205027  0.40762551  0.16772514  1
  Ca2+  Ca31  1  0.83153867  0.41223005  0.50663953  1
  Ca2+  Ca32  1  0.82798983  0.40548891  0.83642285  1
  Ca2+  Ca33  1  0.83142964  0.93065151  0.17846612  1
  Ca2+  Ca34  1  0.82736024  0.91475294  0.50487740  1
  Ca2+  Ca35  1  0.83120616  0.91830603  0.83836941  1
  Ca2+  Ca36  1  0.42782049  0.15937875  0.16802538  1
  Ca2+  Ca37  1  0.42244460  0.16939912  0.48675695  1
  Ca2+  Ca38  1  0.42617344  0.16425329  0.83113421  1
  Ca2+  Ca39  1  0.41777089  0.67375190  0.16645481  1
  Ca2+  Ca40  1  0.41133310  0.67733923  0.49994775  1
  Ca2+  Ca41  1  0.41629078  0.67067239  0.82444388  1
  Ca2+  Ca42  1  0.91021946  0.17080568  0.15956029  1
  Ca2+  Ca43  1  0.91372381  0.17592328  0.49480092  1
  Ca2+  Ca44  1  0.91562478  0.17130902  0.83587658  1
  Ca2+  Ca45  1  0.92034865  0.67660928  0.16313478  1
  Ca2+  Ca46  1  0.91921278  0.67823141  0.49898498  1
  Ca2+  Ca47  1  0.92914629  0.67225814  0.82430582  1
  Al0+  Al48  1  -0.00166235  0.00082491  0.00624143  1
  Al0+  Al49  1  0.00005517  -0.00027774  0.33597301  1
  Al0+  Al50  1  0.00186234  0.00241567  0.66575378  1
  Al0+  Al51  1  -0.00046650  0.50255430  -0.00637029  1
  Al0+  Al52  1  -0.00098019  0.49946212  0.32886681  1
  Al0+  Al53  1  0.00027595  0.49971733  0.66198137  1
  Al0+  Al54  1  0.49771614  0.00113350  -0.00711151  1
  Al0+  Al55  1  0.49854433  -0.00003301  0.33151757  1
  Al0+  Al56  1  0.50334653  0.00035179  0.66674202  1
  Al0+  Al57  1  0.49934582  0.50124240  0.00524278  1
  Al0+  Al58  1  0.49851019  0.50154660  0.33154907  1
  Al0+  Al59  1  0.50100748  0.49879766  0.67566980  1
  Al0+  Al60  1  0.25094785  0.25028562  -0.00317793  1
  Al0+  Al61  1  0.24800779  0.25073346  0.33555584  1
  Al0+  Al62  1  0.25212428  0.25102082  0.67266544  1
  Al0+  Al63  1  0.24955617  0.75076799  0.00329308  1
  Al0+  Al64  1  0.25123173  0.74787527  0.32926343  1
  Al0+  Al65  1  0.25210126  0.75129402  0.66483647  1
  Al0+  Al66  1  0.74684815  0.24838956  -0.00003639  1
  Al0+  Al67  1  0.74921591  0.24948945  0.33150594  1
  Al0+  Al68  1  0.75154137  0.24815504  0.66500898  1
  Al0+  Al69  1  0.74646915  0.74747343  0.00140978  1
  Al0+  Al70  1  0.75104931  0.74766124  0.33162570  1
  Al0+  Al71  1  0.74927533  0.74887876  0.66925922  1
  Al0+  Al72  1  0.31897258  0.07057325  0.34573014  1
  Al0+  Al73  1  0.92691166  0.82394422  0.65318464  1
  Al0+  Al74  1  0.17627805  0.42823796  0.68273297  1
  Al0+  Al75  1  0.82277560  0.07347349  0.35101920  1
  Al0+  Al76  1  0.81804163  0.06785642  0.01321095  1
  Al0+  Al77  1  0.92819143  0.82230744  0.31930226  1
  Al0+  Al78  1  0.18053875  0.93198763  0.67847573  1
  Al0+  Al79  1  0.56866737  0.18004866  0.98348742  1
  Al0+  Al80  1  0.07344040  0.17637610  0.98490161  1
  Al0+  Al81  1  0.42609726  0.32345611  0.32031245  1
  Al0+  Al82  1  0.67985275  0.92773379  0.34750155  1
  Al0+  Al83  1  0.92881052  0.31975679  0.98408198  1
  Al0+  Al84  1  0.68002394  0.92832315  0.68080356  1
  Al0+  Al85  1  0.17978189  0.92954890  0.01464322  1
  Al0+  Al86  1  0.07251152  0.67983646  0.65010294  1
  Al0+  Al87  1  0.07095123  0.68201400  0.98578534  1
  Al0+  Al88  1  0.93011335  0.31854966  0.65185863  1
  Al0+  Al89  1  0.56923558  0.17944225  0.31837438  1
  Al0+  Al90  1  0.42963836  0.82033897  0.31860913  1
  Al0+  Al91  1  0.68131532  0.42743524  0.67910503  1
  Al0+  Al92  1  0.68046726  0.42938478  0.01606907  1
  Al0+  Al93  1  0.92952196  0.32015769  0.31866568  1
  Al0+  Al94  1  0.43134091  0.82079431  0.65319352  1
  Al0+  Al95  1  0.32036057  0.57183936  0.68194666  1
  Si0+  Si96  1  0.82359397  0.57354754  0.01784873  1
  Si0+  Si97  1  0.57196229  0.67505273  0.65190926  1
  Si0+  Si98  1  0.42955177  0.32157363  0.65426719  1
  Si0+  Si99  1  0.07113295  0.67870478  0.31624331  1
  Si0+  Si100  1  0.67865331  0.43003754  0.34752678  1
  Si0+  Si101  1  0.32529215  0.07347891  0.68432445  1
  Si0+  Si102  1  0.92560729  0.82278019  0.98596939  1
  Si0+  Si103  1  0.42741771  0.32643416  0.98132765  1
  Si0+  Si104  1  0.17792087  0.43073785  0.34616595  1
  Si0+  Si105  1  0.32140388  0.57157122  0.34843248  1
  Si0+  Si106  1  0.57035197  0.67581814  0.98446470  1
  Si0+  Si107  1  0.57352422  0.67602558  0.31609124  1
  Si0+  Si108  1  0.82260650  0.56997445  0.34829526  1
  Si0+  Si109  1  0.82250949  0.07183653  0.68356832  1
  Si0+  Si110  1  0.67417459  0.92526946  0.01520864  1
  Si0+  Si111  1  0.31966895  0.57100039  0.01813527  1
  Si0+  Si112  1  0.07614336  0.17818946  0.64921208  1
  Si0+  Si113  1  0.07305094  0.17718779  0.31915146  1
  Si0+  Si114  1  0.43055353  0.81932156  0.98458251  1
  Si0+  Si115  1  0.32380082  0.07316238  0.01564691  1
  Si0+  Si116  1  0.17833764  0.92443124  0.35095150  1
  Si0+  Si117  1  0.17728355  0.42871845  0.01524340  1
  Si0+  Si118  1  0.57130831  0.17966775  0.65020745  1
  Si0+  Si119  1  0.82281956  0.57262330  0.68302083  1
  O2-  O120  1  0.25080125  0.00879869  0.05953997  1
  O2-  O121  1  0.24585620  -0.00492761  0.39375901  1
  O2-  O122  1  0.25419036  0.00698719  0.72759178  1
  O2-  O123  1  0.24983377  0.49814081  0.05956229  1
  O2-  O124  1  0.25231780  0.49825821  0.38842512  1
  O2-  O125  1  0.24573717  0.50302751  0.73310349  1
  O2-  O126  1  0.74644911  -0.01064694  0.05889358  1
  O2-  O127  1  0.75421039  -0.00328679  0.39891411  1
  O2-  O128  1  0.75910271  -0.00225660  0.72742337  1
  O2-  O129  1  0.75751605  0.50214661  0.06273887  1
  O2-  O130  1  0.75055322  0.49960939  0.39034354  1
  O2-  O131  1  0.75644966  0.50126966  0.72674455  1
  O2-  O132  1  -0.00038134  0.24057453  0.27436316  1
  O2-  O133  1  0.00930272  0.24862991  0.60470775  1
  O2-  O134  1  0.00428559  0.25099098  0.93464926  1
  O2-  O135  1  0.00611788  0.75087107  0.27226213  1
  O2-  O136  1  -0.00102146  0.75164405  0.60257990  1
  O2-  O137  1  -0.00542006  0.75533321  0.94064362  1
  O2-  O138  1  0.49660930  0.25171948  0.26848099  1
  O2-  O139  1  0.49812777  0.24951972  0.61014127  1
  O2-  O140  1  0.49476849  0.25631453  0.93689269  1
  O2-  O141  1  0.50822805  0.74886359  0.27225977  1
  O2-  O142  1  0.50663372  0.74609943  0.60661761  1
  O2-  O143  1  0.50477510  0.75170730  0.94280609  1
  O2-  O144  1  0.07454083  0.17919823  0.09873211  1
  O2-  O145  1  0.07667868  0.18217145  0.42462543  1
  O2-  O146  1  0.07478644  0.17721290  0.75459475  1
  O2-  O147  1  0.07087572  0.68298101  0.09932787  1
  O2-  O148  1  0.07085444  0.67641516  0.42124177  1
  O2-  O149  1  0.07168699  0.68307940  0.76389178  1
  O2-  O150  1  0.56725396  0.17861730  0.09604717  1
  O2-  O151  1  0.56864466  0.18202056  0.43244186  1
  O2-  O152  1  0.57145179  0.18023145  0.75551229  1
  O2-  O153  1  0.56793085  0.67255065  0.08944802  1
  O2-  O154  1  0.57121680  0.66978713  0.42126140  1
  O2-  O155  1  0.56977878  0.67517569  0.75785726  1
  O2-  O156  1  0.17758836  0.43339163  0.24075374  1
  O2-  O157  1  0.18059732  0.42762056  0.56844172  1
  O2-  O158  1  0.17895622  0.43035229  0.91074817  1
  O2-  O159  1  0.18008978  0.92337975  0.24501287  1
  O2-  O160  1  0.18246319  0.93397645  0.56537030  1
  O2-  O161  1  0.18319836  0.92608638  0.90162312  1
  O2-  O162  1  0.67864472  0.43220757  0.24244224  1
  O2-  O163  1  0.68025015  0.42897425  0.56550581  1
  O2-  O164  1  0.68091575  0.43157138  0.90289818  1
  O2-  O165  1  0.68048347  0.92999919  0.23345568  1
  O2-  O166  1  0.67575280  0.93179037  0.56833284  1
  O2-  O167  1  0.67402361  0.92560331  0.90941640  1
  O2-  O168  1  0.42818292  0.32814594  0.08683152  1
  O2-  O169  1  0.42918430  0.32514868  0.43438320  1
  O2-  O170  1  0.43050889  0.32038939  0.75929193  1
  O2-  O171  1  0.43085776  0.81863316  0.08987629  1
  O2-  O172  1  0.42757589  0.81772479  0.43131072  1
  O2-  O173  1  0.43227408  0.81936651  0.76683022  1
  O2-  O174  1  0.92986085  0.31800668  0.09794670  1
  O2-  O175  1  0.93205447  0.32393840  0.43167622  1
  O2-  O176  1  0.92690115  0.31406267  0.76442446  1
  O2-  O177  1  0.92651653  0.81996048  0.09171071  1
  O2-  O178  1  0.92734090  0.81856716  0.43199456  1
  O2-  O179  1  0.92735811  0.82227044  0.76713078  1
  O2-  O180  1  0.31689792  0.06872108  0.23248776  1
  O2-  O181  1  0.32560620  0.07408166  0.57855694  1
  O2-  O182  1  0.32837582  0.06874920  0.91026148  1
  O2-  O183  1  0.32059372  0.57341210  0.24296505  1
  O2-  O184  1  0.32224044  0.56815618  0.56796905  1
  O2-  O185  1  0.32088800  0.57243752  0.91356126  1
  O2-  O186  1  0.81998629  0.07442027  0.23734639  1
  O2-  O187  1  0.81870053  0.07521431  0.57831861  1
  O2-  O188  1  0.81650722  0.06663832  0.89978291  1
  O2-  O189  1  0.82316974  0.56946080  0.24318156  1
  O2-  O190  1  0.81931106  0.57342730  0.57696711  1
  O2-  O191  1  0.82009881  0.57806627  0.91274196  1
  O2-  O192  1  0.05536780  0.08094899  0.27622784  1
  O2-  O193  1  0.05047190  0.08573393  0.60150564  1
  O2-  O194  1  0.04057193  0.07812746  0.93395810  1
  O2-  O195  1  0.04093383  0.58722147  0.26758121  1
  O2-  O196  1  0.04591831  0.58109494  0.59713874  1
  O2-  O197  1  0.04346620  0.58562845  0.93047225  1
  O2-  O198  1  0.53970742  0.08229282  0.26423128  1
  O2-  O199  1  0.54386052  0.08808868  0.60320899  1
  O2-  O200  1  0.53692940  0.08433423  0.92650573  1
  O2-  O201  1  0.54115376  0.58585312  0.26582915  1
  O2-  O202  1  0.54419312  0.58139399  0.60657688  1
  O2-  O203  1  0.53715465  0.58634065  0.93588553  1
  O2-  O204  1  0.16368364  0.20799456  0.26997390  1
  O2-  O205  1  0.17198117  0.20214620  0.60616352  1
  O2-  O206  1  0.17404911  0.19860289  0.93309858  1
  O2-  O207  1  0.16574574  0.69991568  0.26976877  1
  O2-  O208  1  0.17056923  0.70847425  0.59748010  1
  O2-  O209  1  0.16850929  0.71319846  0.93404712  1
  O2-  O210  1  0.66615078  0.21082732  0.26488396  1
  O2-  O211  1  0.66179922  0.20952833  0.60273320  1
  O2-  O212  1  0.66385909  0.21206849  0.92854347  1
  O2-  O213  1  0.66811102  0.69513118  0.26979443  1
  O2-  O214  1  0.66686668  0.69590352  0.60751458  1
  O2-  O215  1  0.66424787  0.69695441  0.93809405  1
  O2-  O216  1  0.08568926  0.45977099  0.06162308  1
  O2-  O217  1  0.08733840  0.46298332  0.39369701  1
  O2-  O218  1  0.07634371  0.45371869  0.73301149  1
  O2-  O219  1  0.08265820  0.95600749  0.06939745  1
  O2-  O220  1  0.08404785  0.94715523  0.39559124  1
  O2-  O221  1  0.08362548  0.96085463  0.73371340  1
  O2-  O222  1  0.58449557  0.46405453  0.06999005  1
  O2-  O223  1  0.58667481  0.45974875  0.39406356  1
  O2-  O224  1  0.58661960  0.45701079  0.73719989  1
  O2-  O225  1  0.58061607  0.95600755  0.05836184  1
  O2-  O226  1  0.58081117  0.95786784  0.39809356  1
  O2-  O227  1  0.58529016  0.96387753  0.73675006  1
  O2-  O228  1  0.20427527  0.33596902  0.06199141  1
  O2-  O229  1  0.20016605  0.33856194  0.39460612  1
  O2-  O230  1  0.20795802  0.33145256  0.73796215  1
  O2-  O231  1  0.21567871  0.83531113  0.07126305  1
  O2-  O232  1  0.20743283  0.83088164  0.39485922  1
  O2-  O233  1  0.21386133  0.83614424  0.73201753  1
  O2-  O234  1  0.70879567  0.33240787  0.06923183  1
  O2-  O235  1  0.70484122  0.33807878  0.39415337  1
  O2-  O236  1  0.71351150  0.33106639  0.73297695  1
  O2-  O237  1  0.69079524  0.82889936  0.05943892  1
  O2-  O238  1  0.70290557  0.82611603  0.39715846  1
  O2-  O239  1  0.70252759  0.82930917  0.73479637  1
  O2-  O240  1  0.45236005  0.42242093  0.26677052  1
  O2-  O241  1  0.45926294  0.41355619  0.60847712  1
  O2-  O242  1  0.45460379  0.42039936  0.93701808  1
  O2-  O243  1  0.45745996  0.91639053  0.26266134  1
  O2-  O244  1  0.46265733  0.91792223  0.60024046  1
  O2-  O245  1  0.45336850  0.91120938  0.93561726  1
  O2-  O246  1  0.96260946  0.41542653  0.26278116  1
  O2-  O247  1  0.95451604  0.41688403  0.59808447  1
  O2-  O248  1  0.95170323  0.42026600  0.93336123  1
  O2-  O249  1  0.95656147  0.92023847  0.26674976  1
  O2-  O250  1  0.95554954  0.92241770  0.60053746  1
  O2-  O251  1  0.94931583  0.91702677  0.94263138  1
  O2-  O252  1  0.32626350  0.29796139  0.26901424  1
  O2-  O253  1  0.33633535  0.29733539  0.60779764  1
  O2-  O254  1  0.33314886  0.30330804  0.93586475  1
  O2-  O255  1  0.33519063  0.78463875  0.26201163  1
  O2-  O256  1  0.33643410  0.79018741  0.59717180  1
  O2-  O257  1  0.33991539  0.78575223  0.93922428  1
  O2-  O258  1  0.83151536  0.29373511  0.26661911  1
  O2-  O259  1  0.83456202  0.28435061  0.59649872  1
  O2-  O260  1  0.83086213  0.28724684  0.93336059  1
  O2-  O261  1  0.83361147  0.78715553  0.26367203  1
  O2-  O262  1  0.82806791  0.79306041  0.60129125  1
  O2-  O263  1  0.83039662  0.79732255  0.94226769  1
  O2-  O264  1  0.41528563  0.04029807  0.06276543  1
  O2-  O265  1  0.41547361  0.04075346  0.39963600  1
  O2-  O266  1  0.41816459  0.04511383  0.73012497  1
  O2-  O267  1  0.41147008  0.54524530  0.06708238  1
  O2-  O268  1  0.41404859  0.54742921  0.39570487  1
  O2-  O269  1  0.41682159  0.54081547  0.73854696  1
  O2-  O270  1  0.91441316  0.04296399  0.07044168  1
  O2-  O271  1  0.92367787  0.05122485  0.40167785  1
  O2-  O272  1  0.91848638  0.05388015  0.72693311  1
  O2-  O273  1  0.91888451  0.55149750  0.06203578  1
  O2-  O274  1  0.91389336  0.54030010  0.39554078  1
  O2-  O275  1  0.91752629  0.54936568  0.72609795  1
  O2-  O276  1  0.30577714  0.16964478  0.05887890  1
  O2-  O277  1  0.28906144  0.16735070  0.40175822  1
  O2-  O278  1  0.30450461  0.16745956  0.73130048  1
  O2-  O279  1  0.28948690  0.66150970  0.06736763  1
  O2-  O280  1  0.29111602  0.66245906  0.39619420  1
  O2-  O281  1  0.29522072  0.67100679  0.73430222  1
  O2-  O282  1  0.78232845  0.16287726  0.06662907  1
  O2-  O283  1  0.78927406  0.17114156  0.40358018  1
  O2-  O284  1  0.78827353  0.16187362  0.73167789  1
  O2-  O285  1  0.79305838  0.66537913  0.06707911  1
  O2-  O286  1  0.79498894  0.66102958  0.39669304  1
  O2-  O287  1  0.79554935  0.66399335  0.73261814  1
