# generated using pymatgen
data_Ca2Al2SiO7
_symmetry_space_group_name_H-M   'P 1'
_cell_length_a   15.46105195
_cell_length_b   15.46013976
_cell_length_c   15.28566095
_cell_angle_alpha   90.00108076
_cell_angle_beta   89.98337347
_cell_angle_gamma   89.99081868
_symmetry_Int_Tables_number   1
_chemical_formula_structural   Ca2Al2SiO7
_chemical_formula_sum   'Ca48 Al48 Si24 O168'
_cell_volume   3653.73170453
_cell_formula_units_Z   24
loop_
 _symmetry_equiv_pos_site_id
 _symmetry_equiv_pos_as_xyz
  1  'x, y, z'
loop_
 _atom_type_symbol
 _atom_type_oxidation_number
  Ca2+  2.0
  Al0+  0.0
  Si0+  0.0
  O2-  -2.0
loop_
 _atom_site_type_symbol
 _atom_site_label
 _atom_site_symmetry_multiplicity
 _atom_site_fract_x
 _atom_site_fract_y
 _atom_site_fract_z
 _atom_site_occupancy
  Ca2+  Ca0  1  0.17781399  0.07519743  0.17410550  1
  Ca2+  Ca1  1  0.17407598  0.07297081  0.50585072  1
  Ca2+  Ca2  1  0.16808772  0.07793561  0.83162742  1
  Ca2+  Ca3  1  0.16405207  0.57802864  0.17083523  1
  Ca2+  Ca4  1  0.16861910  0.57957466  0.50874931  1
  Ca2+  Ca5  1  0.16664333  0.59115003  0.83321654  1
  Ca2+  Ca6  1  0.67450630  0.08204735  0.16577573  1
  Ca2+  Ca7  1  0.67226944  0.07799224  0.50750781  1
  Ca2+  Ca8  1  0.68057888  0.08391462  0.83750160  1
  Ca2+  Ca9  1  0.66134553  0.58218773  0.16859392  1
  Ca2+  Ca10  1  0.66866953  0.58905992  0.50906521  1
  Ca2+  Ca11  1  0.67191771  0.58379169  0.83370764  1
  Ca2+  Ca12  1  0.08665655  0.33258103  0.16387333  1
  Ca2+  Ca13  1  0.08334328  0.32983726  0.50003432  1
  Ca2+  Ca14  1  0.07546203  0.32290488  0.82167553  1
  Ca2+  Ca15  1  0.07937889  0.83506696  0.16212008  1
  Ca2+  Ca16  1  0.07758220  0.84141733  0.49998099  1
  Ca2+  Ca17  1  0.07684555  0.82796879  0.82660188  1
  Ca2+  Ca18  1  0.57135651  0.33404088  0.16037499  1
  Ca2+  Ca19  1  0.57518028  0.32807511  0.49472408  1
  Ca2+  Ca20  1  0.58131641  0.33635738  0.83405508  1
  Ca2+  Ca21  1  0.57264041  0.83145252  0.16671893  1
  Ca2+  Ca22  1  0.57820521  0.82137772  0.49378270  1
  Ca2+  Ca23  1  0.57567331  0.83362908  0.82955861  1
  Ca2+  Ca24  1  0.33086935  0.41419374  0.17431610  1
  Ca2+  Ca25  1  0.32989448  0.41951203  0.50187328  1
  Ca2+  Ca26  1  0.33565652  0.42413865  0.83578349  1
  Ca2+  Ca27  1  0.33489739  0.92222155  0.17690900  1
  Ca2+  Ca28  1  0.32540266  0.91778221  0.50823719  1
  Ca2+  Ca29  1  0.32946403  0.92425359  0.83967951  1
  Ca2+  Ca30  1  0.82304377  0.41881517  0.16945810  1
  Ca2+  Ca31  1  0.83116210  0.42445813  0.51124795  1
  Ca2+  Ca32  1  0.83157344  0.42095067  0.83658478  1
  Ca2+  Ca33  1  0.84262252  0.91744935  0.16862570  1
  Ca2+  Ca34  1  0.83633316  0.91495378  0.50794486  1
  Ca2+  Ca35  1  0.84496364  0.92312219  0.83475784  1
  Ca2+  Ca36  1  0.40556741  0.17401664  0.16200615  1
  Ca2+  Ca37  1  0.40542189  0.16845136  0.49476340  1
  Ca2+  Ca38  1  0.40679322  0.17079740  0.83119533  1
  Ca2+  Ca39  1  0.41369043  0.68106249  0.16425892  1
  Ca2+  Ca40  1  0.42555865  0.66436900  0.49597823  1
  Ca2+  Ca41  1  0.41985862  0.67096758  0.82655530  1
  Ca2+  Ca42  1  0.91957892  0.16546031  0.16030858  1
  Ca2+  Ca43  1  0.92309402  0.16362104  0.50458278  1
  Ca2+  Ca44  1  0.91724843  0.16778117  0.82051477  1
  Ca2+  Ca45  1  0.92598536  0.67958611  0.15868390  1
  Ca2+  Ca46  1  0.91839060  0.67582055  0.49913528  1
  Ca2+  Ca47  1  0.92605649  0.67216369  0.82321360  1
  Al0+  Al48  1  0.00232404  0.00072200  0.00218255  1
  Al0+  Al49  1  0.00273467  0.00224169  0.33218585  1
  Al0+  Al50  1  0.00103336  0.00134581  0.66618117  1
  Al0+  Al51  1  -0.00015328  0.49982420  -0.00146819  1
  Al0+  Al52  1  -0.00230469  0.49921456  0.33668685  1
  Al0+  Al53  1  -0.00226803  0.50003502  0.66471417  1
  Al0+  Al54  1  0.50341197  0.00273535  0.00017674  1
  Al0+  Al55  1  0.50581894  0.00119101  0.33462648  1
  Al0+  Al56  1  0.49980935  0.00181156  0.67070267  1
  Al0+  Al57  1  0.49874341  0.49920541  0.00085187  1
  Al0+  Al58  1  0.50096474  0.49561001  0.32651014  1
  Al0+  Al59  1  0.49822463  0.49914569  0.66651263  1
  Al0+  Al60  1  0.24983932  0.25088131  -0.00272623  1
  Al0+  Al61  1  0.24806804  0.25043054  0.33687301  1
  Al0+  Al62  1  0.24819489  0.25056559  0.66541175  1
  Al0+  Al63  1  0.25074539  0.75009635  -0.00609088  1
  Al0+  Al64  1  0.24990301  0.74823358  0.33466378  1
  Al0+  Al65  1  0.24904845  0.74923455  0.67203729  1
  Al0+  Al66  1  0.74839931  0.25084139  0.01071258  1
  Al0+  Al67  1  0.75028358  0.25132243  0.33430126  1
  Al0+  Al68  1  0.74636814  0.24949370  0.66514937  1
  Al0+  Al69  1  0.74996430  0.75161743  -0.00174565  1
  Al0+  Al70  1  0.75240257  0.75038068  0.32292222  1
  Al0+  Al71  1  0.74804870  0.74816398  0.66625181  1
  Al0+  Al72  1  0.32400550  0.07009925  0.34739753  1
  Al0+  Al73  1  0.32124585  0.56957991  0.67981147  1
  Al0+  Al74  1  0.07180295  0.17888957  0.64943900  1
  Al0+  Al75  1  0.32198635  0.07229240  0.68349243  1
  Al0+  Al76  1  0.82085458  0.57166823  0.67991746  1
  Al0+  Al77  1  0.93265954  0.82207717  0.31830199  1
  Al0+  Al78  1  0.92920881  0.82344647  0.98342485  1
  Al0+  Al79  1  0.32135688  0.07194960  0.01419498  1
  Al0+  Al80  1  0.42848398  0.31561650  0.32001079  1
  Al0+  Al81  1  0.17814056  0.92786214  0.68434764  1
  Al0+  Al82  1  0.92503264  0.32116047  0.65196764  1
  Al0+  Al83  1  0.42826987  0.32019206  0.98430961  1
  Al0+  Al84  1  0.81893815  0.06970251  0.67763994  1
  Al0+  Al85  1  0.17733179  0.42979785  0.34750405  1
  Al0+  Al86  1  0.56834923  0.67884108  0.65531772  1
  Al0+  Al87  1  0.43042264  0.82441411  0.98570884  1
  Al0+  Al88  1  0.17925194  0.92652302  0.34804094  1
  Al0+  Al89  1  0.07095012  0.67665383  0.98438048  1
  Al0+  Al90  1  0.57219842  0.67758320  0.31677960  1
  Al0+  Al91  1  0.42755724  0.82192454  0.32182503  1
  Al0+  Al92  1  0.67872563  0.43132523  0.01529688  1
  Al0+  Al93  1  0.92974327  0.82068882  0.65156536  1
  Al0+  Al94  1  0.82278908  0.06922763  0.01461453  1
  Al0+  Al95  1  0.07361015  0.67822120  0.64928631  1
  Si0+  Si96  1  0.18099286  0.92744767  0.01727627  1
  Si0+  Si97  1  0.07193209  0.67386468  0.31835817  1
  Si0+  Si98  1  0.17682179  0.42837009  0.68417611  1
  Si0+  Si99  1  0.92710109  0.32301390  0.31670589  1
  Si0+  Si100  1  0.42798185  0.82425970  0.65235848  1
  Si0+  Si101  1  0.32079887  0.57164629  0.01542154  1
  Si0+  Si102  1  0.07059913  0.18129072  0.98639687  1
  Si0+  Si103  1  0.67721864  0.92630066  0.68330265  1
  Si0+  Si104  1  0.81800673  0.57107156  0.34712755  1
  Si0+  Si105  1  0.32382817  0.57044447  0.34771659  1
  Si0+  Si106  1  0.67786543  0.42849668  0.34988361  1
  Si0+  Si107  1  0.57024770  0.67716148  0.98286065  1
  Si0+  Si108  1  0.92626537  0.31990935  0.98797112  1
  Si0+  Si109  1  0.17873191  0.42916375  0.01257235  1
  Si0+  Si110  1  0.82321788  0.57327654  0.01762063  1
  Si0+  Si111  1  0.42908876  0.32022238  0.65177286  1
  Si0+  Si112  1  0.57472182  0.18034008  0.98299985  1
  Si0+  Si113  1  0.57737817  0.17770246  0.31532849  1
  Si0+  Si114  1  0.67746531  0.92659103  0.01831182  1
  Si0+  Si115  1  0.67662313  0.42770842  0.68231646  1
  Si0+  Si116  1  0.82227412  0.07201658  0.34904760  1
  Si0+  Si117  1  0.57080008  0.17783672  0.65245597  1
  Si0+  Si118  1  0.68249517  0.92742128  0.34770281  1
  Si0+  Si119  1  0.06896260  0.18201572  0.31661739  1
  O2-  O120  1  0.25334416  -0.00784539  0.06192155  1
  O2-  O121  1  0.25919340  -0.00873480  0.39607044  1
  O2-  O122  1  0.25258508  -0.00146093  0.73357701  1
  O2-  O123  1  0.24705994  0.50223263  0.05590148  1
  O2-  O124  1  0.25104125  0.50608955  0.39215888  1
  O2-  O125  1  0.24278556  0.49929406  0.72874627  1
  O2-  O126  1  0.75182030  -0.00916083  0.06160957  1
  O2-  O127  1  0.75288139  -0.00072237  0.39013080  1
  O2-  O128  1  0.74837227  -0.00723451  0.72693802  1
  O2-  O129  1  0.75166791  0.50775737  0.06324117  1
  O2-  O130  1  0.74480935  0.50281108  0.39127145  1
  O2-  O131  1  0.74835828  0.49350691  0.72549098  1
  O2-  O132  1  -0.00215863  0.25286556  0.27292618  1
  O2-  O133  1  -0.00126891  0.25162570  0.60057066  1
  O2-  O134  1  -0.00487663  0.24810717  0.94501425  1
  O2-  O135  1  0.01054735  0.74914377  0.27399653  1
  O2-  O136  1  0.00260620  0.75087756  0.59897806  1
  O2-  O137  1  -0.00254124  0.74745515  0.93567765  1
  O2-  O138  1  0.50142445  0.23906607  0.27264337  1
  O2-  O139  1  0.49505280  0.24399887  0.61067045  1
  O2-  O140  1  0.50231998  0.24468463  0.93779918  1
  O2-  O141  1  0.49672386  0.74748669  0.26955431  1
  O2-  O142  1  0.49450340  0.75358251  0.60804148  1
  O2-  O143  1  0.50543999  0.74938182  0.93920503  1
  O2-  O144  1  0.07077783  0.18448832  0.09201988  1
  O2-  O145  1  0.06642927  0.18246317  0.42095718  1
  O2-  O146  1  0.07042239  0.18146773  0.76382453  1
  O2-  O147  1  0.07015118  0.67344797  0.09859345  1
  O2-  O148  1  0.06682485  0.66797245  0.42292392  1
  O2-  O149  1  0.07026074  0.67849306  0.76268880  1
  O2-  O150  1  0.57735187  0.18326944  0.08863635  1
  O2-  O151  1  0.58520797  0.18251417  0.42070219  1
  O2-  O152  1  0.57567569  0.18083085  0.75705689  1
  O2-  O153  1  0.56676710  0.67636872  0.08847542  1
  O2-  O154  1  0.57312569  0.67839180  0.43048173  1
  O2-  O155  1  0.56686274  0.67823244  0.76835540  1
  O2-  O156  1  0.17762814  0.43004324  0.23349378  1
  O2-  O157  1  0.18061930  0.42706531  0.57839461  1
  O2-  O158  1  0.17918048  0.42725557  0.90809667  1
  O2-  O159  1  0.17586962  0.93182565  0.23415050  1
  O2-  O160  1  0.17968721  0.92965613  0.57059576  1
  O2-  O161  1  0.17942478  0.93019350  0.91226285  1
  O2-  O162  1  0.68030392  0.42616166  0.24483438  1
  O2-  O163  1  0.67489710  0.42815927  0.57640825  1
  O2-  O164  1  0.68152413  0.43045488  0.90224987  1
  O2-  O165  1  0.68273374  0.92912792  0.24263039  1
  O2-  O166  1  0.67546223  0.92870241  0.57731866  1
  O2-  O167  1  0.67387157  0.92920340  0.91303584  1
  O2-  O168  1  0.42686165  0.31952083  0.09740079  1
  O2-  O169  1  0.43133180  0.31721873  0.43337736  1
  O2-  O170  1  0.43132560  0.32249985  0.75684654  1
  O2-  O171  1  0.43022747  0.82277538  0.09890723  1
  O2-  O172  1  0.43119786  0.82073865  0.43519849  1
  O2-  O173  1  0.43273599  0.82493405  0.75817595  1
  O2-  O174  1  0.92890236  0.32003972  0.09364528  1
  O2-  O175  1  0.92460175  0.32279061  0.42099405  1
  O2-  O176  1  0.92453687  0.31827094  0.76643773  1
  O2-  O177  1  0.93449057  0.82343545  0.09756015  1
  O2-  O178  1  0.92771493  0.82115676  0.43056799  1
  O2-  O179  1  0.92956473  0.81972620  0.76475054  1
  O2-  O180  1  0.31892696  0.07224893  0.23352956  1
  O2-  O181  1  0.32323343  0.07074868  0.57004706  1
  O2-  O182  1  0.31562731  0.07369411  0.90180174  1
  O2-  O183  1  0.32339511  0.56851487  0.24167891  1
  O2-  O184  1  0.32603360  0.56324069  0.56676061  1
  O2-  O185  1  0.32334990  0.56944873  0.91049379  1
  O2-  O186  1  0.82126214  0.07337892  0.24366824  1
  O2-  O187  1  0.81459048  0.07057798  0.56421274  1
  O2-  O188  1  0.82107850  0.07339274  0.90197550  1
  O2-  O189  1  0.81834579  0.56655723  0.24191137  1
  O2-  O190  1  0.81627064  0.57229496  0.56626001  1
  O2-  O191  1  0.82348330  0.56977550  0.91238256  1
  O2-  O192  1  0.04028883  0.09159113  0.26694526  1
  O2-  O193  1  0.04096773  0.08257311  0.59532521  1
  O2-  O194  1  0.04674371  0.08824760  0.94146447  1
  O2-  O195  1  0.03837185  0.58306649  0.26920645  1
  O2-  O196  1  0.04527496  0.57882535  0.59882885  1
  O2-  O197  1  0.04412319  0.57723710  0.93129984  1
  O2-  O198  1  0.56255738  0.08109946  0.27242121  1
  O2-  O199  1  0.54826399  0.08442127  0.60528125  1
  O2-  O200  1  0.55663090  0.08517043  0.93860097  1
  O2-  O201  1  0.54824530  0.57740503  0.26551286  1
  O2-  O202  1  0.53731079  0.58230653  0.60006556  1
  O2-  O203  1  0.54126411  0.58490739  0.93678199  1
  O2-  O204  1  0.15987831  0.21232348  0.26931333  1
  O2-  O205  1  0.16914566  0.21016836  0.59541755  1
  O2-  O206  1  0.15875611  0.21452510  0.93659504  1
  O2-  O207  1  0.16878792  0.68997475  0.27568489  1
  O2-  O208  1  0.17507162  0.70098045  0.60007308  1
  O2-  O209  1  0.16948367  0.70326639  0.93218703  1
  O2-  O210  1  0.66757686  0.21172602  0.26587313  1
  O2-  O211  1  0.65862818  0.20972001  0.59948582  1
  O2-  O212  1  0.66694607  0.21308384  0.93743641  1
  O2-  O213  1  0.66796803  0.70890283  0.26003278  1
  O2-  O214  1  0.66383791  0.70891415  0.59956525  1
  O2-  O215  1  0.66657625  0.69766654  0.94047677  1
  O2-  O216  1  0.08578315  0.45321772  0.06140166  1
  O2-  O217  1  0.07953728  0.45635293  0.40139718  1
  O2-  O218  1  0.08128002  0.44861894  0.72772914  1
  O2-  O219  1  0.08933121  0.95857374  0.06474665  1
  O2-  O220  1  0.08364072  0.96540150  0.40103783  1
  O2-  O221  1  0.08126557  0.96153874  0.73692075  1
  O2-  O222  1  0.58136716  0.46103325  0.06949532  1
  O2-  O223  1  0.58399967  0.45064343  0.39543184  1
  O2-  O224  1  0.58492103  0.45669357  0.72992524  1
  O2-  O225  1  0.58750220  0.95942247  0.06827129  1
  O2-  O226  1  0.59196787  0.95412209  0.39826189  1
  O2-  O227  1  0.58581590  0.95625849  0.73163844  1
  O2-  O228  1  0.20922748  0.33892404  0.06194682  1
  O2-  O229  1  0.20980337  0.33505165  0.40288545  1
  O2-  O230  1  0.20567587  0.33601569  0.73083030  1
  O2-  O231  1  0.20242408  0.83152333  0.06042299  1
  O2-  O232  1  0.19625190  0.82453057  0.39816986  1
  O2-  O233  1  0.20277032  0.82920515  0.73768271  1
  O2-  O234  1  0.71055292  0.33728558  0.07439177  1
  O2-  O235  1  0.70960083  0.33799156  0.39825299  1
  O2-  O236  1  0.69886016  0.33348337  0.72829802  1
  O2-  O237  1  0.69675985  0.83090635  0.06328763  1
  O2-  O238  1  0.71209049  0.83507507  0.39265485  1
  O2-  O239  1  0.69857622  0.83234906  0.72907438  1
  O2-  O240  1  0.46097490  0.41040098  0.26322377  1
  O2-  O241  1  0.46267279  0.40880574  0.60208672  1
  O2-  O242  1  0.46116402  0.41680799  0.93146654  1
  O2-  O243  1  0.46146273  0.91994042  0.26937554  1
  O2-  O244  1  0.45558042  0.91762344  0.60676792  1
  O2-  O245  1  0.46266034  0.92090627  0.93227625  1
  O2-  O246  1  0.95434854  0.41474763  0.26860084  1
  O2-  O247  1  0.95116512  0.41957403  0.59906786  1
  O2-  O248  1  0.95389924  0.41139961  0.94069561  1
  O2-  O249  1  0.96126105  0.92036495  0.26535104  1
  O2-  O250  1  0.95562669  0.92014896  0.59968400  1
  O2-  O251  1  0.96097360  0.92211140  0.93315295  1
  O2-  O252  1  0.33029271  0.28828337  0.26663582  1
  O2-  O253  1  0.33599931  0.29750501  0.60521177  1
  O2-  O254  1  0.33198812  0.29058527  0.92913126  1
  O2-  O255  1  0.32838723  0.79585417  0.26727400  1
  O2-  O256  1  0.33330658  0.80017630  0.61070000  1
  O2-  O257  1  0.33495368  0.79302046  0.93137404  1
  O2-  O258  1  0.83540017  0.29360497  0.26877867  1
  O2-  O259  1  0.82648848  0.29272415  0.59829159  1
  O2-  O260  1  0.83314711  0.29364104  0.94425219  1
  O2-  O261  1  0.83849788  0.78963801  0.26043243  1
  O2-  O262  1  0.83006386  0.79159993  0.60067793  1
  O2-  O263  1  0.82701734  0.80332051  0.93539138  1
  O2-  O264  1  0.42242199  0.05108079  0.06356035  1
  O2-  O265  1  0.42808317  0.05653862  0.39476189  1
  O2-  O266  1  0.42230303  0.04956144  0.73647805  1
  O2-  O267  1  0.41073774  0.54102628  0.06413963  1
  O2-  O268  1  0.41636997  0.53785359  0.39233808  1
  O2-  O269  1  0.41508175  0.53233290  0.73659988  1
  O2-  O270  1  0.92033580  0.04263755  0.07036828  1
  O2-  O271  1  0.91483747  0.04637960  0.39420446  1
  O2-  O272  1  0.91647572  0.04513918  0.73097414  1
  O2-  O273  1  0.91532230  0.54281543  0.06489138  1
  O2-  O274  1  0.90808591  0.54056161  0.39557306  1
  O2-  O275  1  0.91711383  0.54151315  0.73465585  1
  O2-  O276  1  0.28414488  0.16796824  0.06684909  1
  O2-  O277  1  0.28647988  0.16548122  0.40056680  1
  O2-  O278  1  0.29200404  0.17196958  0.73334846  1
  O2-  O279  1  0.29386814  0.66430439  0.06182642  1
  O2-  O280  1  0.30563093  0.66526653  0.39326677  1
  O2-  O281  1  0.29750160  0.66674676  0.73521508  1
  O2-  O282  1  0.78871163  0.16377693  0.07245865  1
  O2-  O283  1  0.79260014  0.16392658  0.39528284  1
  O2-  O284  1  0.78353881  0.16542422  0.73182411  1
  O2-  O285  1  0.80080708  0.66872449  0.06156427  1
  O2-  O286  1  0.79198679  0.66466161  0.39095322  1
  O2-  O287  1  0.78539508  0.66546491  0.73631150  1
