# generated using pymatgen
data_Ca2Al2SiO7
_symmetry_space_group_name_H-M   'P 1'
_cell_length_a   15.45820923
_cell_length_b   15.45720265
_cell_length_c   15.28317560
_cell_angle_alpha   90.00133022
_cell_angle_beta   89.98850883
_cell_angle_gamma   89.99020556
_symmetry_Int_Tables_number   1
_chemical_formula_structural   Ca2Al2SiO7
_chemical_formula_sum   'Ca48 Al48 Si24 O168'
_cell_volume   3651.77213108
_cell_formula_units_Z   24
loop_
 _symmetry_equiv_pos_site_id
 _symmetry_equiv_pos_as_xyz
  1  'x, y, z'
loop_
 _atom_type_symbol
 _atom_type_oxidation_number
  Ca2+  2.0
  Al0+  0.0
  Si0+  0.0
  O2-  -2.0
loop_
 _atom_site_type_symbol
 _atom_site_label
 _atom_site_symmetry_multiplicity
 _atom_site_fract_x
 _atom_site_fract_y
 _atom_site_fract_z
 _atom_site_occupancy
  Ca2+  Ca0  1  0.16134679  0.07323374  0.17411710  1
  Ca2+  Ca1  1  0.16495351  0.08398160  0.50445601  1
  Ca2+  Ca2  1  0.17167648  0.08030711  0.83409298  1
  Ca2+  Ca3  1  0.18040636  0.58110753  0.17063890  1
  Ca2+  Ca4  1  0.17843956  0.58447366  0.50414484  1
  Ca2+  Ca5  1  0.17736134  0.58487640  0.83682935  1
  Ca2+  Ca6  1  0.66996873  0.08627622  0.17099579  1
  Ca2+  Ca7  1  0.67326386  0.08783632  0.50528477  1
  Ca2+  Ca8  1  0.66334456  0.08794258  0.83550999  1
  Ca2+  Ca9  1  0.67093014  0.57691275  0.17212694  1
  Ca2+  Ca10  1  0.66827981  0.57008442  0.51108677  1
  Ca2+  Ca11  1  0.67356029  0.58442000  0.83048973  1
  Ca2+  Ca12  1  0.08046975  0.32948878  0.16717877  1
  Ca2+  Ca13  1  0.07474909  0.32471667  0.49419916  1
  Ca2+  Ca14  1  0.07694977  0.32999506  0.82181029  1
  Ca2+  Ca15  1  0.08251553  0.83911268  0.16722031  1
  Ca2+  Ca16  1  0.07505551  0.83579348  0.49518367  1
  Ca2+  Ca17  1  0.07891305  0.83374263  0.82902395  1
  Ca2+  Ca18  1  0.57757694  0.33356921  0.16552634  1
  Ca2+  Ca19  1  0.58437713  0.33535251  0.49669784  1
  Ca2+  Ca20  1  0.58285474  0.32671393  0.83066562  1
  Ca2+  Ca21  1  0.57362938  0.83046557  0.15852143  1
  Ca2+  Ca22  1  0.57744987  0.82517163  0.50315525  1
  Ca2+  Ca23  1  0.57085741  0.82574906  0.82352740  1
  Ca2+  Ca24  1  0.34581869  0.42384694  0.17204335  1
  Ca2+  Ca25  1  0.33915130  0.42447876  0.50377855  1
  Ca2+  Ca26  1  0.34168014  0.42793159  0.83623807  1
  Ca2+  Ca27  1  0.32168521  0.91285622  0.17029688  1
  Ca2+  Ca28  1  0.32690093  0.92210359  0.50889005  1
  Ca2+  Ca29  1  0.33566996  0.91893804  0.83771610  1
  Ca2+  Ca30  1  0.82764826  0.41798870  0.17509287  1
  Ca2+  Ca31  1  0.82626497  0.41190014  0.50885350  1
  Ca2+  Ca32  1  0.83155338  0.42280503  0.83380244  1
  Ca2+  Ca33  1  0.83269376  0.92378993  0.17748894  1
  Ca2+  Ca34  1  0.84125051  0.92067480  0.50186801  1
  Ca2+  Ca35  1  0.83107459  0.91503253  0.83469122  1
  Ca2+  Ca36  1  0.42139781  0.18090913  0.15704547  1
  Ca2+  Ca37  1  0.42058789  0.17010437  0.49709713  1
  Ca2+  Ca38  1  0.42595651  0.16688154  0.82532267  1
  Ca2+  Ca39  1  0.41253812  0.66745766  0.16020053  1
  Ca2+  Ca40  1  0.41760198  0.66104369  0.49908617  1
  Ca2+  Ca41  1  0.41294935  0.67411821  0.82553492  1
  Ca2+  Ca42  1  0.91689763  0.16761894  0.17317394  1
  Ca2+  Ca43  1  0.92327219  0.17382704  0.49358635  1
  Ca2+  Ca44  1  0.92531670  0.17462782  0.82121487  1
  Ca2+  Ca45  1  0.91497849  0.67130272  0.16238290  1
  Ca2+  Ca46  1  0.90678745  0.67747760  0.49892314  1
  Ca2+  Ca47  1  0.91279808  0.66860889  0.82363941  1
  Al0+  Al48  1  -0.00067109  0.00023617  0.00247254  1
  Al0+  Al49  1  -0.00137670  -0.00138677  0.33397795  1
  Al0+  Al50  1  0.00029116  -0.00060020  0.66267604  1
  Al0+  Al51  1  0.00107873  0.50184119  0.00493804  1
  Al0+  Al52  1  0.00201688  0.50185020  0.32952823  1
  Al0+  Al53  1  0.00026862  0.50100242  0.66492255  1
  Al0+  Al54  1  0.49990011  -0.00016590  -0.00412952  1
  Al0+  Al55  1  0.49929634  -0.00251647  0.33211584  1
  Al0+  Al56  1  0.49942277  0.00009746  0.66138077  1
  Al0+  Al57  1  0.50362293  0.49986785  -0.00007061  1
  Al0+  Al58  1  0.50325805  0.50018330  0.33700600  1
  Al0+  Al59  1  0.50141505  0.49965245  0.67479282  1
  Al0+  Al60  1  0.24909509  0.25101416  -0.00476617  1
  Al0+  Al61  1  0.25076576  0.25041568  0.32322969  1
  Al0+  Al62  1  0.25134562  0.24822701  0.66815797  1
  Al0+  Al63  1  0.24762414  0.74971888  0.00413431  1
  Al0+  Al64  1  0.24902474  0.75062716  0.34259162  1
  Al0+  Al65  1  0.24706548  0.75176593  0.66701632  1
  Al0+  Al66  1  0.75153919  0.25070648  -0.00235300  1
  Al0+  Al67  1  0.75091854  0.24874628  0.33733351  1
  Al0+  Al68  1  0.74933742  0.24933543  0.66669557  1
  Al0+  Al69  1  0.74972492  0.75179143  0.00525020  1
  Al0+  Al70  1  0.74831075  0.75017154  0.32728057  1
  Al0+  Al71  1  0.74744360  0.75039234  0.66174061  1
  Al0+  Al72  1  0.82204114  0.57277290  0.01546300  1
  Al0+  Al73  1  0.17954647  0.93116562  0.34963943  1
  Al0+  Al74  1  0.32072239  0.56867804  0.34776684  1
  Al0+  Al75  1  0.32152982  0.56852673  0.01316226  1
  Al0+  Al76  1  0.92892639  0.32308563  0.65266183  1
  Al0+  Al77  1  0.92797705  0.81952624  0.65448016  1
  Al0+  Al78  1  0.42571720  0.82099917  0.65016789  1
  Al0+  Al79  1  0.57160595  0.17971065  0.98528929  1
  Al0+  Al80  1  0.42625198  0.81803854  0.98790888  1
  Al0+  Al81  1  0.92934315  0.81867304  0.31739090  1
  Al0+  Al82  1  0.82139464  0.57267337  0.67939473  1
  Al0+  Al83  1  0.17916180  0.93126865  0.01379628  1
  Al0+  Al84  1  0.07101761  0.17844297  0.31630038  1
  Al0+  Al85  1  0.32239771  0.07086200  0.67998573  1
  Al0+  Al86  1  0.68232464  0.43031932  0.34686689  1
  Al0+  Al87  1  0.31985226  0.57136804  0.68163441  1
  Al0+  Al88  1  0.07342757  0.17898491  0.65223357  1
  Al0+  Al89  1  0.42788657  0.32412480  0.98249381  1
  Al0+  Al90  1  0.43129324  0.32178794  0.32141432  1
  Al0+  Al91  1  0.67909019  0.42559137  0.68579754  1
  Al0+  Al92  1  0.57080413  0.17866676  0.65103706  1
  Al0+  Al93  1  0.81797138  0.06814624  0.34826901  1
  Al0+  Al94  1  0.92695044  0.32273827  0.31741746  1
  Al0+  Al95  1  0.56900608  0.67733915  0.65190577  1
  Si0+  Si96  1  0.82182383  0.06938972  0.68240838  1
  Si0+  Si97  1  0.06930286  0.67918211  0.98596238  1
  Si0+  Si98  1  0.32371457  0.07322946  0.01647562  1
  Si0+  Si99  1  0.07268219  0.67744290  0.65009518  1
  Si0+  Si100  1  0.82411745  0.57418820  0.34856272  1
  Si0+  Si101  1  0.57218875  0.17561799  0.31785726  1
  Si0+  Si102  1  0.67763433  0.92970504  0.01447961  1
  Si0+  Si103  1  0.57475671  0.67922209  0.98411479  1
  Si0+  Si104  1  0.17672203  0.42629829  0.01682079  1
  Si0+  Si105  1  0.82079364  0.07102851  0.01391908  1
  Si0+  Si106  1  0.93118413  0.32268141  0.98549954  1
  Si0+  Si107  1  0.67866456  0.92939379  0.68090214  1
  Si0+  Si108  1  0.07573700  0.67896439  0.31523119  1
  Si0+  Si109  1  0.17627248  0.92967031  0.68446037  1
  Si0+  Si110  1  0.56898735  0.67891538  0.31694131  1
  Si0+  Si111  1  0.92839804  0.82171367  0.98577111  1
  Si0+  Si112  1  0.68177184  0.42673626  0.01872719  1
  Si0+  Si113  1  0.06920481  0.17632112  0.98444483  1
  Si0+  Si114  1  0.17692586  0.42547023  0.34890057  1
  Si0+  Si115  1  0.42894191  0.32240653  0.65103150  1
  Si0+  Si116  1  0.42685680  0.82027982  0.31832341  1
  Si0+  Si117  1  0.67442176  0.92482189  0.35082228  1
  Si0+  Si118  1  0.17817154  0.42718805  0.68146821  1
  Si0+  Si119  1  0.32340129  0.07403026  0.34709861  1
  O2-  O120  1  0.25408223  0.00580188  0.06147211  1
  O2-  O121  1  0.25333569  0.00783597  0.39302933  1
  O2-  O122  1  0.24810463  -0.00449875  0.72758608  1
  O2-  O123  1  0.25251278  0.48813939  0.06010838  1
  O2-  O124  1  0.24644689  0.49305877  0.39354668  1
  O2-  O125  1  0.24571416  0.49588487  0.72806518  1
  O2-  O126  1  0.74678802  0.00278704  0.05580918  1
  O2-  O127  1  0.74191934  -0.00566210  0.39502402  1
  O2-  O128  1  0.74980292  -0.00025010  0.72551304  1
  O2-  O129  1  0.74871941  0.49752781  0.06262618  1
  O2-  O130  1  0.76260263  0.49979282  0.39222802  1
  O2-  O131  1  0.75280060  0.49882368  0.73202519  1
  O2-  O132  1  0.00073417  0.25281245  0.26596291  1
  O2-  O133  1  0.00207329  0.25189881  0.60398199  1
  O2-  O134  1  0.00353147  0.25278988  0.94339324  1
  O2-  O135  1  0.00240351  0.74270689  0.26982030  1
  O2-  O136  1  -0.00040782  0.74228702  0.60753738  1
  O2-  O137  1  -0.00414248  0.74800880  0.94329817  1
  O2-  O138  1  0.50163109  0.24247322  0.27459344  1
  O2-  O139  1  0.49756554  0.25464163  0.60538672  1
  O2-  O140  1  0.49657906  0.24786056  0.93440287  1
  O2-  O141  1  0.49832937  0.75049290  0.27461245  1
  O2-  O142  1  0.49260175  0.74414251  0.60013613  1
  O2-  O143  1  0.50060654  0.74282270  0.94153178  1
  O2-  O144  1  0.06581141  0.17346837  0.08915807  1
  O2-  O145  1  0.07018887  0.17948729  0.42938716  1
  O2-  O146  1  0.06980190  0.17845726  0.76692512  1
  O2-  O147  1  0.06930321  0.68020584  0.09090427  1
  O2-  O148  1  0.07781617  0.68101576  0.42051850  1
  O2-  O149  1  0.07477670  0.68012638  0.75623432  1
  O2-  O150  1  0.57341190  0.18057310  0.09920134  1
  O2-  O151  1  0.57117470  0.17443061  0.42314109  1
  O2-  O152  1  0.56976105  0.17765067  0.76406348  1
  O2-  O153  1  0.57635653  0.68276177  0.09026461  1
  O2-  O154  1  0.56891029  0.67909517  0.42147314  1
  O2-  O155  1  0.57091141  0.68282517  0.76575913  1
  O2-  O156  1  0.17693362  0.42815804  0.24301235  1
  O2-  O157  1  0.17978891  0.42827210  0.57604123  1
  O2-  O158  1  0.16991343  0.43061323  0.91163247  1
  O2-  O159  1  0.18177815  0.92976416  0.23594190  1
  O2-  O160  1  0.17475004  0.93087751  0.57908067  1
  O2-  O161  1  0.17472473  0.93343730  0.90111568  1
  O2-  O162  1  0.68041920  0.43394481  0.23325759  1
  O2-  O163  1  0.67950663  0.42621957  0.57201355  1
  O2-  O164  1  0.68467198  0.42407003  0.91374573  1
  O2-  O165  1  0.67389892  0.92550085  0.24457065  1
  O2-  O166  1  0.68014998  0.93020105  0.57591563  1
  O2-  O167  1  0.68046254  0.92605507  0.90953687  1
  O2-  O168  1  0.43219777  0.32403382  0.09651625  1
  O2-  O169  1  0.43316030  0.32259953  0.43427701  1
  O2-  O170  1  0.42900734  0.32036896  0.75658352  1
  O2-  O171  1  0.42811378  0.81677185  0.10171995  1
  O2-  O172  1  0.42855461  0.82103671  0.42279072  1
  O2-  O173  1  0.42798725  0.82063632  0.76426571  1
  O2-  O174  1  0.93030196  0.32128025  0.09041035  1
  O2-  O175  1  0.92728395  0.32038927  0.43028401  1
  O2-  O176  1  0.93145457  0.32090232  0.76754804  1
  O2-  O177  1  0.92927709  0.82276481  0.09066435  1
  O2-  O178  1  0.92945321  0.81779925  0.43023910  1
  O2-  O179  1  0.92973914  0.82137185  0.76847360  1
  O2-  O180  1  0.32539525  0.06998803  0.24139882  1
  O2-  O181  1  0.32157556  0.07038405  0.56675784  1
  O2-  O182  1  0.32298917  0.07039396  0.91089844  1
  O2-  O183  1  0.32082985  0.56966932  0.23430469  1
  O2-  O184  1  0.31882050  0.56942553  0.56847525  1
  O2-  O185  1  0.31667947  0.57150315  0.90047576  1
  O2-  O186  1  0.81543495  0.06705357  0.23409929  1
  O2-  O187  1  0.82208074  0.06754396  0.57762148  1
  O2-  O188  1  0.82360602  0.06838347  0.90876779  1
  O2-  O189  1  0.81901940  0.57591322  0.24248980  1
  O2-  O190  1  0.81795724  0.57484548  0.56614589  1
  O2-  O191  1  0.82216915  0.57415020  0.90292108  1
  O2-  O192  1  0.03618251  0.08133476  0.26410906  1
  O2-  O193  1  0.04286334  0.08166637  0.59978262  1
  O2-  O194  1  0.03479966  0.08716806  0.93561807  1
  O2-  O195  1  0.05703648  0.58378399  0.26918621  1
  O2-  O196  1  0.05413088  0.58282703  0.60426770  1
  O2-  O197  1  0.04438871  0.58660071  0.93861801  1
  O2-  O198  1  0.55012042  0.08043587  0.27159225  1
  O2-  O199  1  0.54076454  0.08326909  0.59529500  1
  O2-  O200  1  0.54832179  0.07957657  0.93294724  1
  O2-  O201  1  0.54013930  0.58821758  0.26844967  1
  O2-  O202  1  0.54395762  0.57680758  0.60241639  1
  O2-  O203  1  0.55750926  0.58320080  0.94190708  1
  O2-  O204  1  0.16930401  0.20276938  0.25991774  1
  O2-  O205  1  0.17238349  0.20458729  0.60000763  1
  O2-  O206  1  0.16336890  0.19732777  0.93905613  1
  O2-  O207  1  0.16765426  0.71155499  0.26888926  1
  O2-  O208  1  0.16310489  0.70837763  0.60105729  1
  O2-  O209  1  0.15932192  0.71076988  0.93776521  1
  O2-  O210  1  0.66521872  0.20320357  0.27252200  1
  O2-  O211  1  0.66851111  0.20640667  0.59893023  1
  O2-  O212  1  0.67058072  0.20860379  0.93208271  1
  O2-  O213  1  0.65994593  0.70652779  0.26690800  1
  O2-  O214  1  0.66377011  0.71162243  0.59555200  1
  O2-  O215  1  0.66616631  0.71240326  0.93782140  1
  O2-  O216  1  0.08719454  0.45888611  0.06781652  1
  O2-  O217  1  0.08325348  0.45208939  0.39467095  1
  O2-  O218  1  0.08431322  0.45232038  0.72803810  1
  O2-  O219  1  0.08242780  0.96297207  0.06903016  1
  O2-  O220  1  0.08212555  0.95954606  0.40170876  1
  O2-  O221  1  0.08357311  0.95836881  0.73206734  1
  O2-  O222  1  0.58765130  0.45216087  0.06375156  1
  O2-  O223  1  0.58908939  0.46652068  0.40306130  1
  O2-  O224  1  0.58217418  0.45468609  0.74080766  1
  O2-  O225  1  0.58537187  0.95563398  0.06266757  1
  O2-  O226  1  0.57986656  0.94747571  0.39624812  1
  O2-  O227  1  0.58705408  0.95782388  0.72784259  1
  O2-  O228  1  0.19407235  0.32926389  0.05941821  1
  O2-  O229  1  0.20155307  0.33044353  0.39137567  1
  O2-  O230  1  0.20231389  0.33375659  0.72883649  1
  O2-  O231  1  0.20842406  0.83492040  0.06941645  1
  O2-  O232  1  0.21044654  0.83620394  0.40578298  1
  O2-  O233  1  0.19756132  0.83491543  0.72995539  1
  O2-  O234  1  0.71079566  0.33409243  0.06583251  1
  O2-  O235  1  0.70616798  0.33209843  0.39977935  1
  O2-  O236  1  0.70877096  0.32720673  0.73901128  1
  O2-  O237  1  0.70705574  0.84025833  0.06614739  1
  O2-  O238  1  0.70191597  0.83091286  0.39448340  1
  O2-  O239  1  0.70755178  0.83847702  0.72927763  1
  O2-  O240  1  0.46894877  0.41664989  0.26704301  1
  O2-  O241  1  0.45465932  0.41679620  0.60786168  1
  O2-  O242  1  0.46062259  0.42177372  0.93057119  1
  O2-  O243  1  0.45342666  0.91211427  0.26907980  1
  O2-  O244  1  0.46011325  0.91614462  0.59554367  1
  O2-  O245  1  0.45720008  0.91467732  0.93487359  1
  O2-  O246  1  0.95238047  0.42303363  0.26507952  1
  O2-  O247  1  0.95345933  0.42203397  0.59970380  1
  O2-  O248  1  0.95896877  0.41553854  0.94025827  1
  O2-  O249  1  0.96146303  0.91461457  0.26346072  1
  O2-  O250  1  0.96131290  0.91427213  0.59919467  1
  O2-  O251  1  0.95843014  0.91289366  0.93815952  1
  O2-  O252  1  0.33475282  0.29830173  0.26354665  1
  O2-  O253  1  0.33523115  0.29713816  0.60571210  1
  O2-  O254  1  0.32622468  0.30351918  0.93241498  1
  O2-  O255  1  0.33461808  0.79028558  0.27341462  1
  O2-  O256  1  0.32479203  0.79902647  0.60051184  1
  O2-  O257  1  0.32919698  0.78852626  0.93468614  1
  O2-  O258  1  0.82960256  0.28867479  0.26421314  1
  O2-  O259  1  0.83173767  0.29098104  0.60201538  1
  O2-  O260  1  0.84043243  0.29323481  0.93780196  1
  O2-  O261  1  0.83137124  0.79173832  0.26188348  1
  O2-  O262  1  0.83180435  0.79340426  0.59810429  1
  O2-  O263  1  0.83469492  0.79692104  0.94068934  1
  O2-  O264  1  0.41776487  0.04781698  0.06184799  1
  O2-  O265  1  0.41671724  0.04623968  0.39349703  1
  O2-  O266  1  0.41899318  0.03816293  0.73359419  1
  O2-  O267  1  0.42151830  0.54509389  0.06527005  1
  O2-  O268  1  0.41708024  0.53793543  0.40116860  1
  O2-  O269  1  0.41579391  0.54300474  0.73723880  1
  O2-  O270  1  0.90979323  0.03884425  0.06399830  1
  O2-  O271  1  0.91321047  0.03430862  0.40147342  1
  O2-  O272  1  0.91311896  0.03920714  0.73030253  1
  O2-  O273  1  0.91912080  0.54440753  0.07015850  1
  O2-  O274  1  0.92199018  0.55980004  0.38869332  1
  O2-  O275  1  0.92235785  0.54983254  0.73139643  1
  O2-  O276  1  0.29904636  0.16882575  0.05906758  1
  O2-  O277  1  0.30082353  0.16967710  0.38957186  1
  O2-  O278  1  0.29266330  0.16678127  0.73673716  1
  O2-  O279  1  0.28426598  0.66263179  0.06879763  1
  O2-  O280  1  0.28916850  0.66393099  0.40334121  1
  O2-  O281  1  0.28597348  0.66836016  0.73403091  1
  O2-  O282  1  0.79547541  0.16376976  0.06074843  1
  O2-  O283  1  0.78950550  0.16408244  0.40359584  1
  O2-  O284  1  0.79471545  0.16081845  0.73035863  1
  O2-  O285  1  0.79078993  0.66951587  0.07062583  1
  O2-  O286  1  0.79148861  0.66671247  0.39255538  1
  O2-  O287  1  0.78922873  0.67126181  0.73249870  1
