# generated using pymatgen
data_Ca2Al2SiO7
_symmetry_space_group_name_H-M   'P 1'
_cell_length_a   15.46191852
_cell_length_b   15.46138522
_cell_length_c   15.28627044
_cell_angle_alpha   90.00061780
_cell_angle_beta   89.99450069
_cell_angle_gamma   90.02690708
_symmetry_Int_Tables_number   1
_chemical_formula_structural   Ca2Al2SiO7
_chemical_formula_sum   'Ca48 Al48 Si24 O168'
_cell_volume   3654.37633653
_cell_formula_units_Z   24
loop_
 _symmetry_equiv_pos_site_id
 _symmetry_equiv_pos_as_xyz
  1  'x, y, z'
loop_
 _atom_type_symbol
 _atom_type_oxidation_number
  Ca2+  2.0
  Al0+  0.0
  Si0+  0.0
  O2-  -2.0
loop_
 _atom_site_type_symbol
 _atom_site_label
 _atom_site_symmetry_multiplicity
 _atom_site_fract_x
 _atom_site_fract_y
 _atom_site_fract_z
 _atom_site_occupancy
  Ca2+  Ca0  1  0.17715972  0.07778684  0.16910314  1
  Ca2+  Ca1  1  0.17276462  0.08799404  0.50192271  1
  Ca2+  Ca2  1  0.17028408  0.07940666  0.84041642  1
  Ca2+  Ca3  1  0.17255648  0.57635575  0.17340976  1
  Ca2+  Ca4  1  0.16828386  0.58337066  0.49527499  1
  Ca2+  Ca5  1  0.17400555  0.57708100  0.84469177  1
  Ca2+  Ca6  1  0.67371156  0.07657257  0.17846056  1
  Ca2+  Ca7  1  0.67441245  0.07402016  0.50515520  1
  Ca2+  Ca8  1  0.66531471  0.08364759  0.83001918  1
  Ca2+  Ca9  1  0.67364853  0.57613213  0.17797546  1
  Ca2+  Ca10  1  0.67112816  0.57922368  0.50782136  1
  Ca2+  Ca11  1  0.66788817  0.58473453  0.82810513  1
  Ca2+  Ca12  1  0.08057503  0.33984056  0.16186655  1
  Ca2+  Ca13  1  0.08418032  0.32877303  0.49392923  1
  Ca2+  Ca14  1  0.08030117  0.33093195  0.83040144  1
  Ca2+  Ca15  1  0.08230328  0.83065308  0.16692958  1
  Ca2+  Ca16  1  0.07204668  0.82460085  0.48680595  1
  Ca2+  Ca17  1  0.08495837  0.83492089  0.83010135  1
  Ca2+  Ca18  1  0.57678451  0.33903135  0.16825578  1
  Ca2+  Ca19  1  0.58719313  0.33160150  0.49457502  1
  Ca2+  Ca20  1  0.58069606  0.32820510  0.82253263  1
  Ca2+  Ca21  1  0.57328531  0.83732538  0.16638552  1
  Ca2+  Ca22  1  0.58697447  0.83170576  0.49388359  1
  Ca2+  Ca23  1  0.57717089  0.83029129  0.82601431  1
  Ca2+  Ca24  1  0.32644635  0.42547411  0.17809439  1
  Ca2+  Ca25  1  0.33311421  0.41688752  0.49505521  1
  Ca2+  Ca26  1  0.32686448  0.42332218  0.84356808  1
  Ca2+  Ca27  1  0.33851266  0.92273103  0.17095407  1
  Ca2+  Ca28  1  0.33843161  0.91954593  0.49658818  1
  Ca2+  Ca29  1  0.32870294  0.92250418  0.84628398  1
  Ca2+  Ca30  1  0.82964480  0.41876878  0.17630763  1
  Ca2+  Ca31  1  0.82371715  0.42777168  0.50278430  1
  Ca2+  Ca32  1  0.83003777  0.41560458  0.83320613  1
  Ca2+  Ca33  1  0.82762174  0.92065635  0.18005334  1
  Ca2+  Ca34  1  0.82604737  0.91800386  0.50331588  1
  Ca2+  Ca35  1  0.82683892  0.92169365  0.83080002  1
  Ca2+  Ca36  1  0.41136426  0.16810936  0.16750365  1
  Ca2+  Ca37  1  0.42402512  0.17141790  0.49137023  1
  Ca2+  Ca38  1  0.41970881  0.16666452  0.82766403  1
  Ca2+  Ca39  1  0.40622034  0.67502688  0.16427465  1
  Ca2+  Ca40  1  0.42336355  0.67117909  0.49047123  1
  Ca2+  Ca41  1  0.41688274  0.67198174  0.82953104  1
  Ca2+  Ca42  1  0.91465351  0.17360003  0.16042836  1
  Ca2+  Ca43  1  0.91933783  0.15771525  0.49652344  1
  Ca2+  Ca44  1  0.92200585  0.17111892  0.82439190  1
  Ca2+  Ca45  1  0.91945213  0.66497767  0.17027221  1
  Ca2+  Ca46  1  0.91637943  0.66563567  0.48805516  1
  Ca2+  Ca47  1  0.91683898  0.66681856  0.82706534  1
  Al0+  Al48  1  -0.00074869  0.00035972  0.00225002  1
  Al0+  Al49  1  0.00248700  -0.00106017  0.32955079  1
  Al0+  Al50  1  0.00069190  -0.00026087  0.66576431  1
  Al0+  Al51  1  -0.00199804  0.50093928  -0.00357256  1
  Al0+  Al52  1  0.00082783  0.49727197  0.33642741  1
  Al0+  Al53  1  0.00122392  0.49975179  0.66972928  1
  Al0+  Al54  1  0.50099030  -0.00131566  -0.00172541  1
  Al0+  Al55  1  0.50108050  0.00016427  0.33725607  1
  Al0+  Al56  1  0.49872495  0.00286110  0.66630543  1
  Al0+  Al57  1  0.50251271  0.50014868  0.00105019  1
  Al0+  Al58  1  0.49806348  0.49827844  0.33489288  1
  Al0+  Al59  1  0.49849674  0.50306103  0.66715195  1
  Al0+  Al60  1  0.24923606  0.24879959  0.00437731  1
  Al0+  Al61  1  0.25162606  0.24949292  0.33581629  1
  Al0+  Al62  1  0.24809481  0.25053917  0.66425126  1
  Al0+  Al63  1  0.24834821  0.75059471  0.00016139  1
  Al0+  Al64  1  0.25023330  0.74908743  0.32965825  1
  Al0+  Al65  1  0.24884862  0.75086847  0.66573803  1
  Al0+  Al66  1  0.75037100  0.25101785  -0.00540266  1
  Al0+  Al67  1  0.75234481  0.24778560  0.33978416  1
  Al0+  Al68  1  0.75012731  0.25123741  0.66829419  1
  Al0+  Al69  1  0.75045930  0.75002243  -0.00104527  1
  Al0+  Al70  1  0.75024552  0.75007477  0.33271715  1
  Al0+  Al71  1  0.74824126  0.75080495  0.67214187  1
  Al0+  Al72  1  0.92722843  0.82131209  0.31732674  1
  Al0+  Al73  1  0.67674197  0.42962102  0.68335443  1
  Al0+  Al74  1  0.07039591  0.67593583  0.31682127  1
  Al0+  Al75  1  0.42969272  0.32056068  0.31906602  1
  Al0+  Al76  1  0.32081255  0.57376364  0.35011504  1
  Al0+  Al77  1  0.82511239  0.07094963  0.34682012  1
  Al0+  Al78  1  0.82345235  0.07071081  0.68310243  1
  Al0+  Al79  1  0.56972764  0.68109051  0.65284490  1
  Al0+  Al80  1  0.32416183  0.07014438  0.01493875  1
  Al0+  Al81  1  0.82080973  0.57031547  0.34598886  1
  Al0+  Al82  1  0.32347798  0.57071000  0.01455169  1
  Al0+  Al83  1  0.06984260  0.17899174  0.65238746  1
  Al0+  Al84  1  0.32041958  0.07025686  0.34885883  1
  Al0+  Al85  1  0.17598934  0.92834866  0.01567315  1
  Al0+  Al86  1  0.67862108  0.92868799  0.34714671  1
  Al0+  Al87  1  0.67700042  0.42766026  0.34729617  1
  Al0+  Al88  1  0.57171254  0.17964933  0.65158746  1
  Al0+  Al89  1  0.43092393  0.82152789  0.31992578  1
  Al0+  Al90  1  0.17887931  0.42806699  0.35005599  1
  Al0+  Al91  1  0.17702765  0.42911108  0.01389198  1
  Al0+  Al92  1  0.42898313  0.81988299  0.98549076  1
  Al0+  Al93  1  0.92871466  0.32191619  0.98519505  1
  Al0+  Al94  1  0.82233188  0.57139765  0.68344938  1
  Al0+  Al95  1  0.67645658  0.92964764  0.68397246  1
  Si0+  Si96  1  0.42700527  0.32298039  0.65103686  1
  Si0+  Si97  1  0.92994913  0.81954971  0.65394115  1
  Si0+  Si98  1  0.07144993  0.17713143  0.98409464  1
  Si0+  Si99  1  0.92719645  0.82276950  0.98276321  1
  Si0+  Si100  1  0.18018155  0.42802946  0.68280764  1
  Si0+  Si101  1  0.81912835  0.07229715  0.01317215  1
  Si0+  Si102  1  0.68043434  0.42665718  0.01447321  1
  Si0+  Si103  1  0.18007837  0.92863963  0.67951730  1
  Si0+  Si104  1  0.42573261  0.82289880  0.64990761  1
  Si0+  Si105  1  0.57227836  0.67626145  0.31667378  1
  Si0+  Si106  1  0.07399055  0.17775625  0.31615447  1
  Si0+  Si107  1  0.57479847  0.67725266  0.98284221  1
  Si0+  Si108  1  0.68035749  0.92833490  0.01466109  1
  Si0+  Si109  1  0.07225853  0.67795407  0.65280979  1
  Si0+  Si110  1  0.92998853  0.31777372  0.32016086  1
  Si0+  Si111  1  0.06873779  0.68023633  0.98325735  1
  Si0+  Si112  1  0.31911378  0.57335443  0.68181994  1
  Si0+  Si113  1  0.92869168  0.32368072  0.64782265  1
  Si0+  Si114  1  0.31928152  0.07256699  0.68099574  1
  Si0+  Si115  1  0.57119404  0.17954274  0.98572705  1
  Si0+  Si116  1  0.81998069  0.57208877  0.01482018  1
  Si0+  Si117  1  0.17872573  0.92714539  0.35067367  1
  Si0+  Si118  1  0.57341664  0.17901854  0.31705363  1
  Si0+  Si119  1  0.42852240  0.32153536  0.98622880  1
  O2-  O120  1  0.25245394  -0.00317446  0.06358066  1
  O2-  O121  1  0.24661964  -0.00463512  0.39696309  1
  O2-  O122  1  0.25091629  -0.00088464  0.72282995  1
  O2-  O123  1  0.25324362  0.49641582  0.06322153  1
  O2-  O124  1  0.24955002  0.50114493  0.40079380  1
  O2-  O125  1  0.24989069  0.50054572  0.72428241  1
  O2-  O126  1  0.75109396  -0.00042761  0.05625810  1
  O2-  O127  1  0.75514542  -0.00325105  0.39515954  1
  O2-  O128  1  0.74726556  0.00347984  0.73454548  1
  O2-  O129  1  0.74924883  0.50026273  0.05537045  1
  O2-  O130  1  0.74387663  0.50449578  0.39622402  1
  O2-  O131  1  0.75089120  0.49917435  0.73490956  1
  O2-  O132  1  0.00003497  0.24658489  0.27558757  1
  O2-  O133  1  -0.00650210  0.25099103  0.60398100  1
  O2-  O134  1  0.00546475  0.24841719  0.93963313  1
  O2-  O135  1  -0.00163956  0.74840589  0.26652207  1
  O2-  O136  1  -0.00378868  0.74378171  0.61230926  1
  O2-  O137  1  -0.00007641  0.75353676  0.93983150  1
  O2-  O138  1  0.50684037  0.24864568  0.27070976  1
  O2-  O139  1  0.49965851  0.25820479  0.60758106  1
  O2-  O140  1  0.49751231  0.24868744  0.94371973  1
  O2-  O141  1  0.50339606  0.74472379  0.27210017  1
  O2-  O142  1  0.49758100  0.75793185  0.60637856  1
  O2-  O143  1  0.50183027  0.74265026  0.93985639  1
  O2-  O144  1  0.06806541  0.17470376  0.08938924  1
  O2-  O145  1  0.07411137  0.17862937  0.42153787  1
  O2-  O146  1  0.07269720  0.18175576  0.76570689  1
  O2-  O147  1  0.06535420  0.67754324  0.08753105  1
  O2-  O148  1  0.06871856  0.67869139  0.43135720  1
  O2-  O149  1  0.07569981  0.68118680  0.75818458  1
  O2-  O150  1  0.57520870  0.18142190  0.09044204  1
  O2-  O151  1  0.57150100  0.17983816  0.42243518  1
  O2-  O152  1  0.56520299  0.17901315  0.76574470  1
  O2-  O153  1  0.58090324  0.67876137  0.08778536  1
  O2-  O154  1  0.57153338  0.67762368  0.42232569  1
  O2-  O155  1  0.56485440  0.68115320  0.76643553  1
  O2-  O156  1  0.17890242  0.42813600  0.23657956  1
  O2-  O157  1  0.18024324  0.42668162  0.57837158  1
  O2-  O158  1  0.17913317  0.43117767  0.89930514  1
  O2-  O159  1  0.17843611  0.92984648  0.24524155  1
  O2-  O160  1  0.18108805  0.92661942  0.57498558  1
  O2-  O161  1  0.17553779  0.93179781  0.90093062  1
  O2-  O162  1  0.68114372  0.42715537  0.23259015  1
  O2-  O163  1  0.67697232  0.43253312  0.57047415  1
  O2-  O164  1  0.67994687  0.42469713  0.90975924  1
  O2-  O165  1  0.67773034  0.93276674  0.23248691  1
  O2-  O166  1  0.67894667  0.92823386  0.57120793  1
  O2-  O167  1  0.68066323  0.92853788  0.90972827  1
  O2-  O168  1  0.43104931  0.32305396  0.09076973  1
  O2-  O169  1  0.42844497  0.31668058  0.43216351  1
  O2-  O170  1  0.42427003  0.31994830  0.75745001  1
  O2-  O171  1  0.43304813  0.82259740  0.09808465  1
  O2-  O172  1  0.43259320  0.82133155  0.43320361  1
  O2-  O173  1  0.42200907  0.81982127  0.75573140  1
  O2-  O174  1  0.92512588  0.31921824  0.09840748  1
  O2-  O175  1  0.93134551  0.31731030  0.42491607  1
  O2-  O176  1  0.93350568  0.32441078  0.75392681  1
  O2-  O177  1  0.92388690  0.82164153  0.08699841  1
  O2-  O178  1  0.93002194  0.82200585  0.43142184  1
  O2-  O179  1  0.93434735  0.82052689  0.75974138  1
  O2-  O180  1  0.31914665  0.06946276  0.23598305  1
  O2-  O181  1  0.31774204  0.07342097  0.57623886  1
  O2-  O182  1  0.32313671  0.07042926  0.90041240  1
  O2-  O183  1  0.31953689  0.57217778  0.23666645  1
  O2-  O184  1  0.31654916  0.57638973  0.57752875  1
  O2-  O185  1  0.32145715  0.56899639  0.89971809  1
  O2-  O186  1  0.82094936  0.07379563  0.23216447  1
  O2-  O187  1  0.82684172  0.06341073  0.57049309  1
  O2-  O188  1  0.81804752  0.07169912  0.90830987  1
  O2-  O189  1  0.82075909  0.56592502  0.23150920  1
  O2-  O190  1  0.82414263  0.57090236  0.57063709  1
  O2-  O191  1  0.81942740  0.57393878  0.90992049  1
  O2-  O192  1  0.05058967  0.08528071  0.26838664  1
  O2-  O193  1  0.04321107  0.08108395  0.59844234  1
  O2-  O194  1  0.04262071  0.08453667  0.93625889  1
  O2-  O195  1  0.04076053  0.57702462  0.26506103  1
  O2-  O196  1  0.05045623  0.58380459  0.60810782  1
  O2-  O197  1  0.03806708  0.59028863  0.93277631  1
  O2-  O198  1  0.54468729  0.08630306  0.27112875  1
  O2-  O199  1  0.53759554  0.08420578  0.59744098  1
  O2-  O200  1  0.54558438  0.08732890  0.93778955  1
  O2-  O201  1  0.54811918  0.58196689  0.27148696  1
  O2-  O202  1  0.53735301  0.58504006  0.59892197  1
  O2-  O203  1  0.55349716  0.58173958  0.93769761  1
  O2-  O204  1  0.16438815  0.20871962  0.26887601  1
  O2-  O205  1  0.16544882  0.21248691  0.59724408  1
  O2-  O206  1  0.16665431  0.19959188  0.93886973  1
  O2-  O207  1  0.16820474  0.70519749  0.26407463  1
  O2-  O208  1  0.16153474  0.71075322  0.60340915  1
  O2-  O209  1  0.16094402  0.70569577  0.93479169  1
  O2-  O210  1  0.66868721  0.20235051  0.27256436  1
  O2-  O211  1  0.67058243  0.20542397  0.60040591  1
  O2-  O212  1  0.66069371  0.21020758  0.93494426  1
  O2-  O213  1  0.66584570  0.70073534  0.26985770  1
  O2-  O214  1  0.66843912  0.70912061  0.60210225  1
  O2-  O215  1  0.66636124  0.70800388  0.93377279  1
  O2-  O216  1  0.07871793  0.46137868  0.06424772  1
  O2-  O217  1  0.08113420  0.45432934  0.40460583  1
  O2-  O218  1  0.08855822  0.45486329  0.73083495  1
  O2-  O219  1  0.07853332  0.95869038  0.06981324  1
  O2-  O220  1  0.08518903  0.95318195  0.39609407  1
  O2-  O221  1  0.08903969  0.95633825  0.72802264  1
  O2-  O222  1  0.58821175  0.45243017  0.06173859  1
  O2-  O223  1  0.57696549  0.44786400  0.39799580  1
  O2-  O224  1  0.57765793  0.45949849  0.73632287  1
  O2-  O225  1  0.58885992  0.95679403  0.06087454  1
  O2-  O226  1  0.58356397  0.96024814  0.40319816  1
  O2-  O227  1  0.57685071  0.95875595  0.73591357  1
  O2-  O228  1  0.19695794  0.32834759  0.06367118  1
  O2-  O229  1  0.21000426  0.33084627  0.40346222  1
  O2-  O230  1  0.20966684  0.33684473  0.73116956  1
  O2-  O231  1  0.19795073  0.82812305  0.06496834  1
  O2-  O232  1  0.20373129  0.83350675  0.39560053  1
  O2-  O233  1  0.20723179  0.83707598  0.72939845  1
  O2-  O234  1  0.71073156  0.33583502  0.06197332  1
  O2-  O235  1  0.70997574  0.33172449  0.40110074  1
  O2-  O236  1  0.70308359  0.33035950  0.73596969  1
  O2-  O237  1  0.70898180  0.83669317  0.06127350  1
  O2-  O238  1  0.70279936  0.82910992  0.39791302  1
  O2-  O239  1  0.70672255  0.83309575  0.73975793  1
  O2-  O240  1  0.45739052  0.41766690  0.26353491  1
  O2-  O241  1  0.44672421  0.41874834  0.60816801  1
  O2-  O242  1  0.45830753  0.41265160  0.93724610  1
  O2-  O243  1  0.46416973  0.91818806  0.26623557  1
  O2-  O244  1  0.44640645  0.91876353  0.60770163  1
  O2-  O245  1  0.46216861  0.91597082  0.92988976  1
  O2-  O246  1  0.95808098  0.40899891  0.27181474  1
  O2-  O247  1  0.96021257  0.41612170  0.60266388  1
  O2-  O248  1  0.95702621  0.41857491  0.92934578  1
  O2-  O249  1  0.95803626  0.91912731  0.26254665  1
  O2-  O250  1  0.96272383  0.90867892  0.60546801  1
  O2-  O251  1  0.95402906  0.91560375  0.93611685  1
  O2-  O252  1  0.33395066  0.28599831  0.26510611  1
  O2-  O253  1  0.33534147  0.29279803  0.60407819  1
  O2-  O254  1  0.33546715  0.29563655  0.93941205  1
  O2-  O255  1  0.33354782  0.79422500  0.26595847  1
  O2-  O256  1  0.33332602  0.79369541  0.60267712  1
  O2-  O257  1  0.33045047  0.79303910  0.93167498  1
  O2-  O258  1  0.83794314  0.28992390  0.27195135  1
  O2-  O259  1  0.83273505  0.30447300  0.60620442  1
  O2-  O260  1  0.83392124  0.28831406  0.92822213  1
  O2-  O261  1  0.82855464  0.79508638  0.26284619  1
  O2-  O262  1  0.83589540  0.79683297  0.61082541  1
  O2-  O263  1  0.83651620  0.79192661  0.93370042  1
  O2-  O264  1  0.42301289  0.04234367  0.06718250  1
  O2-  O265  1  0.41648938  0.04011156  0.40311134  1
  O2-  O266  1  0.41126402  0.04788137  0.72870769  1
  O2-  O267  1  0.42372318  0.54692686  0.06518328  1
  O2-  O268  1  0.41873833  0.54402790  0.40231431  1
  O2-  O269  1  0.41067335  0.54778446  0.72982698  1
  O2-  O270  1  0.91179213  0.04822254  0.05948111  1
  O2-  O271  1  0.92550042  0.04625482  0.39630525  1
  O2-  O272  1  0.92097121  0.03755463  0.73755814  1
  O2-  O273  1  0.91176823  0.54409215  0.06038155  1
  O2-  O274  1  0.91654813  0.53780455  0.40019663  1
  O2-  O275  1  0.92198514  0.54378696  0.73690111  1
  O2-  O276  1  0.29632846  0.16840315  0.06756369  1
  O2-  O277  1  0.28788300  0.16497750  0.40406635  1
  O2-  O278  1  0.28864353  0.16360268  0.72899169  1
  O2-  O279  1  0.29250219  0.66879575  0.06403259  1
  O2-  O280  1  0.29221191  0.67214325  0.40300250  1
  O2-  O281  1  0.28811952  0.66437325  0.73053661  1
  O2-  O282  1  0.78866871  0.16376458  0.05975464  1
  O2-  O283  1  0.79706036  0.16684973  0.40346173  1
  O2-  O284  1  0.80042569  0.17164655  0.73278284  1
  O2-  O285  1  0.79245249  0.66398946  0.06225627  1
  O2-  O286  1  0.79969784  0.67075351  0.39586540  1
  O2-  O287  1  0.79330637  0.66907669  0.73808580  1
