# generated using pymatgen
data_Ca2Al2SiO7
_symmetry_space_group_name_H-M   'P 1'
_cell_length_a   15.45774705
_cell_length_b   15.45748647
_cell_length_c   15.28390384
_cell_angle_alpha   90.00181468
_cell_angle_beta   89.99020360
_cell_angle_gamma   90.00959602
_symmetry_Int_Tables_number   1
_chemical_formula_structural   Ca2Al2SiO7
_chemical_formula_sum   'Ca48 Al48 Si24 O168'
_cell_volume   3651.90402441
_cell_formula_units_Z   24
loop_
 _symmetry_equiv_pos_site_id
 _symmetry_equiv_pos_as_xyz
  1  'x, y, z'
loop_
 _atom_type_symbol
 _atom_type_oxidation_number
  Ca2+  2.0
  Al0+  0.0
  Si0+  0.0
  O2-  -2.0
loop_
 _atom_site_type_symbol
 _atom_site_label
 _atom_site_symmetry_multiplicity
 _atom_site_fract_x
 _atom_site_fract_y
 _atom_site_fract_z
 _atom_site_occupancy
  Ca2+  Ca0  1  0.17548417  0.07846184  0.17059990  1
  Ca2+  Ca1  1  0.16674412  0.07003191  0.50447610  1
  Ca2+  Ca2  1  0.17258284  0.07585052  0.83769145  1
  Ca2+  Ca3  1  0.17490647  0.57424987  0.17407774  1
  Ca2+  Ca4  1  0.17360370  0.58289014  0.49723480  1
  Ca2+  Ca5  1  0.17823317  0.57891617  0.83744292  1
  Ca2+  Ca6  1  0.66616030  0.09468690  0.16561710  1
  Ca2+  Ca7  1  0.66736416  0.08396224  0.50890394  1
  Ca2+  Ca8  1  0.66918840  0.08617138  0.83336430  1
  Ca2+  Ca9  1  0.67464000  0.58172113  0.17448804  1
  Ca2+  Ca10  1  0.67804160  0.57781806  0.50927257  1
  Ca2+  Ca11  1  0.66883728  0.57981310  0.83119712  1
  Ca2+  Ca12  1  0.07924738  0.34722108  0.16550856  1
  Ca2+  Ca13  1  0.07664995  0.33725076  0.49120910  1
  Ca2+  Ca14  1  0.08589348  0.33283555  0.83289389  1
  Ca2+  Ca15  1  0.09144270  0.82633098  0.16931586  1
  Ca2+  Ca16  1  0.08111450  0.83061496  0.49450978  1
  Ca2+  Ca17  1  0.07815634  0.83500604  0.82253825  1
  Ca2+  Ca18  1  0.57017297  0.32720275  0.16243992  1
  Ca2+  Ca19  1  0.58658667  0.32518691  0.49478334  1
  Ca2+  Ca20  1  0.58167857  0.32550239  0.82858482  1
  Ca2+  Ca21  1  0.57743347  0.83004268  0.16704277  1
  Ca2+  Ca22  1  0.57125921  0.83869959  0.49761837  1
  Ca2+  Ca23  1  0.57698094  0.83396605  0.82290680  1
  Ca2+  Ca24  1  0.33036779  0.41923422  0.17557796  1
  Ca2+  Ca25  1  0.33912117  0.42578802  0.50163303  1
  Ca2+  Ca26  1  0.33332872  0.42534563  0.84427711  1
  Ca2+  Ca27  1  0.33510723  0.92293435  0.17395131  1
  Ca2+  Ca28  1  0.32414194  0.90439588  0.50305927  1
  Ca2+  Ca29  1  0.33246585  0.91910170  0.83356366  1
  Ca2+  Ca30  1  0.83300430  0.41918703  0.17696748  1
  Ca2+  Ca31  1  0.83305753  0.42446591  0.50397844  1
  Ca2+  Ca32  1  0.82500076  0.41672114  0.82991423  1
  Ca2+  Ca33  1  0.83082462  0.92517684  0.16985686  1
  Ca2+  Ca34  1  0.82509780  0.92217591  0.51357379  1
  Ca2+  Ca35  1  0.83024076  0.92518218  0.83270621  1
  Ca2+  Ca36  1  0.42133704  0.17445730  0.15787581  1
  Ca2+  Ca37  1  0.43144637  0.17171766  0.49078681  1
  Ca2+  Ca38  1  0.42258526  0.16812343  0.82961497  1
  Ca2+  Ca39  1  0.40259179  0.67058845  0.16711011  1
  Ca2+  Ca40  1  0.40745157  0.67296362  0.49702248  1
  Ca2+  Ca41  1  0.41117896  0.66886757  0.82558675  1
  Ca2+  Ca42  1  0.91760369  0.17216261  0.16389900  1
  Ca2+  Ca43  1  0.91485821  0.17157251  0.49578040  1
  Ca2+  Ca44  1  0.91400386  0.16088718  0.82841817  1
  Ca2+  Ca45  1  0.92666222  0.65940530  0.16694017  1
  Ca2+  Ca46  1  0.91809794  0.66737464  0.49286842  1
  Ca2+  Ca47  1  0.91950701  0.67325071  0.82195474  1
  Al0+  Al48  1  -0.00355746  0.00054676  0.00543764  1
  Al0+  Al49  1  -0.00072732  0.00083483  0.33589946  1
  Al0+  Al50  1  0.00045602  -0.00152190  0.66857845  1
  Al0+  Al51  1  0.00049473  0.50144560  -0.00314212  1
  Al0+  Al52  1  0.00083283  0.50149270  0.33267550  1
  Al0+  Al53  1  0.00186768  0.49959313  0.67075940  1
  Al0+  Al54  1  0.50025410  -0.00207063  0.00005589  1
  Al0+  Al55  1  0.50214900  -0.00104065  0.32396791  1
  Al0+  Al56  1  0.49889016  0.00051556  0.66011548  1
  Al0+  Al57  1  0.50182225  0.50232273  0.00125136  1
  Al0+  Al58  1  0.50222414  0.49946928  0.33486414  1
  Al0+  Al59  1  0.50037324  0.50060936  0.67451628  1
  Al0+  Al60  1  0.24662035  0.24879305  0.00259242  1
  Al0+  Al61  1  0.24995974  0.24798174  0.33636372  1
  Al0+  Al62  1  0.24972097  0.24944360  0.66328349  1
  Al0+  Al63  1  0.24767416  0.74760963  -0.00050366  1
  Al0+  Al64  1  0.24838148  0.75008037  0.33086755  1
  Al0+  Al65  1  0.24822740  0.74857880  0.67206454  1
  Al0+  Al66  1  0.75023295  0.25027675  0.00051080  1
  Al0+  Al67  1  0.75278825  0.25027019  0.32508523  1
  Al0+  Al68  1  0.75100385  0.25129534  0.66944802  1
  Al0+  Al69  1  0.74936004  0.75162045  -0.00000420  1
  Al0+  Al70  1  0.74951133  0.75316741  0.33621179  1
  Al0+  Al71  1  0.74983097  0.75146528  0.66977482  1
  Al0+  Al72  1  0.32277743  0.57019021  0.34958340  1
  Al0+  Al73  1  0.18011705  0.92890195  0.68029758  1
  Al0+  Al74  1  0.18051032  0.93033294  0.34657092  1
  Al0+  Al75  1  0.82042386  0.07136094  0.68015404  1
  Al0+  Al76  1  0.42589928  0.32230337  0.98426814  1
  Al0+  Al77  1  0.67461201  0.92965462  0.68059397  1
  Al0+  Al78  1  0.42866664  0.81744397  0.31853208  1
  Al0+  Al79  1  0.17872612  0.42634382  0.34968280  1
  Al0+  Al80  1  0.31927349  0.56946005  0.68070509  1
  Al0+  Al81  1  0.57082524  0.18128220  0.65274044  1
  Al0+  Al82  1  0.06901259  0.68092172  0.31942004  1
  Al0+  Al83  1  0.42830099  0.81905576  0.65360993  1
  Al0+  Al84  1  0.67922363  0.42860319  0.68171377  1
  Al0+  Al85  1  0.81923375  0.07130471  0.01663137  1
  Al0+  Al86  1  0.42744715  0.32292275  0.31972238  1
  Al0+  Al87  1  0.32334234  0.57126695  0.01693338  1
  Al0+  Al88  1  0.92813132  0.82140433  0.65288244  1
  Al0+  Al89  1  0.17823762  0.42855999  0.01465349  1
  Al0+  Al90  1  0.82129823  0.57226189  0.34555582  1
  Al0+  Al91  1  0.93329552  0.32041663  0.32029333  1
  Al0+  Al92  1  0.57213842  0.17882627  0.31584848  1
  Al0+  Al93  1  0.82376783  0.57262777  0.68221549  1
  Al0+  Al94  1  0.32189575  0.06894201  0.01217372  1
  Al0+  Al95  1  0.57063246  0.17914870  0.98110431  1
  Si0+  Si96  1  0.93122915  0.32087793  0.65319831  1
  Si0+  Si97  1  0.17786843  0.42455670  0.68355206  1
  Si0+  Si98  1  0.67774985  0.92634724  0.01886920  1
  Si0+  Si99  1  0.57248965  0.67614270  0.65079206  1
  Si0+  Si100  1  0.57484710  0.67970297  0.98446838  1
  Si0+  Si101  1  0.06888957  0.17591868  0.98515807  1
  Si0+  Si102  1  0.32580623  0.07095909  0.35032441  1
  Si0+  Si103  1  0.17620653  0.92795519  0.01652507  1
  Si0+  Si104  1  0.42671795  0.32444478  0.65083989  1
  Si0+  Si105  1  0.07241850  0.17723897  0.65200376  1
  Si0+  Si106  1  0.57533204  0.67821733  0.31878389  1
  Si0+  Si107  1  0.42811480  0.81858596  0.98478431  1
  Si0+  Si108  1  0.06937498  0.67974215  0.98210250  1
  Si0+  Si109  1  0.68048813  0.42689761  0.34798035  1
  Si0+  Si110  1  0.92947457  0.32215744  0.98308469  1
  Si0+  Si111  1  0.68063882  0.42928588  0.01666811  1
  Si0+  Si112  1  0.07223351  0.17421803  0.31697829  1
  Si0+  Si113  1  0.92569237  0.82448160  0.31583666  1
  Si0+  Si114  1  0.82020731  0.57261381  0.01431047  1
  Si0+  Si115  1  0.67821352  0.92965000  0.34840039  1
  Si0+  Si116  1  0.92818903  0.82203479  0.98541209  1
  Si0+  Si117  1  0.07073785  0.67756740  0.64987781  1
  Si0+  Si118  1  0.81992308  0.07201065  0.34818517  1
  Si0+  Si119  1  0.32166120  0.07383144  0.68047755  1
  O2-  O120  1  0.24810653  -0.00698428  0.05969930  1
  O2-  O121  1  0.25573499  0.00372255  0.39494264  1
  O2-  O122  1  0.25412456  0.00434274  0.72585764  1
  O2-  O123  1  0.25644308  0.49347332  0.06447845  1
  O2-  O124  1  0.25511077  0.49367533  0.39942103  1
  O2-  O125  1  0.24967781  0.48969311  0.72669822  1
  O2-  O126  1  0.74205703  -0.00082636  0.06343865  1
  O2-  O127  1  0.74852860  0.00178401  0.38938687  1
  O2-  O128  1  0.74746402  0.00062651  0.73095770  1
  O2-  O129  1  0.75131974  0.50127058  0.05853323  1
  O2-  O130  1  0.74534637  0.49928184  0.39187098  1
  O2-  O131  1  0.74966906  0.50285574  0.73233887  1
  O2-  O132  1  0.01052803  0.24889805  0.27182332  1
  O2-  O133  1  0.00258698  0.25010772  0.61091320  1
  O2-  O134  1  0.00000305  0.24958316  0.94250998  1
  O2-  O135  1  -0.00684527  0.75524908  0.27068977  1
  O2-  O136  1  -0.00187226  0.74244547  0.60610731  1
  O2-  O137  1  -0.00007240  0.75290063  0.94155616  1
  O2-  O138  1  0.49636368  0.24830679  0.26887819  1
  O2-  O139  1  0.49607655  0.25644782  0.60706610  1
  O2-  O140  1  0.49661042  0.24976453  0.93199754  1
  O2-  O141  1  0.50138572  0.74004518  0.27203495  1
  O2-  O142  1  0.50454838  0.74546482  0.60660029  1
  O2-  O143  1  0.49808412  0.74573178  0.94399359  1
  O2-  O144  1  0.06550054  0.17128812  0.08982029  1
  O2-  O145  1  0.06573585  0.16977021  0.42257254  1
  O2-  O146  1  0.07380467  0.17791323  0.75738506  1
  O2-  O147  1  0.06835707  0.67904993  0.08710985  1
  O2-  O148  1  0.06774756  0.68276016  0.43236745  1
  O2-  O149  1  0.06997529  0.67964486  0.75610084  1
  O2-  O150  1  0.57050168  0.18348311  0.09439281  1
  O2-  O151  1  0.57508577  0.17954185  0.42964898  1
  O2-  O152  1  0.56935234  0.18170700  0.76555346  1
  O2-  O153  1  0.58334228  0.68333810  0.08916065  1
  O2-  O154  1  0.58049672  0.68344246  0.42364496  1
  O2-  O155  1  0.57024829  0.67666006  0.75695601  1
  O2-  O156  1  0.17628959  0.43157339  0.23644297  1
  O2-  O157  1  0.17438270  0.42413074  0.57857748  1
  O2-  O158  1  0.17456925  0.43357302  0.90079998  1
  O2-  O159  1  0.18148854  0.93244835  0.23301738  1
  O2-  O160  1  0.17993232  0.92884489  0.56734884  1
  O2-  O161  1  0.17415972  0.92939735  0.91084250  1
  O2-  O162  1  0.68329995  0.42803502  0.24191729  1
  O2-  O163  1  0.68288107  0.42811001  0.56794924  1
  O2-  O164  1  0.68287005  0.42996235  0.91174688  1
  O2-  O165  1  0.68066741  0.92583386  0.24320685  1
  O2-  O166  1  0.67522156  0.93259212  0.56661727  1
  O2-  O167  1  0.68021407  0.92154418  0.91388868  1
  O2-  O168  1  0.42821654  0.32142347  0.09758086  1
  O2-  O169  1  0.43262513  0.32229946  0.43360282  1
  O2-  O170  1  0.42399851  0.32214042  0.75629791  1
  O2-  O171  1  0.42842319  0.81840587  0.08993813  1
  O2-  O172  1  0.42916151  0.81815009  0.43144933  1
  O2-  O173  1  0.42814667  0.81777088  0.76731932  1
  O2-  O174  1  0.92997432  0.32432739  0.08816497  1
  O2-  O175  1  0.93042696  0.31768036  0.43358492  1
  O2-  O176  1  0.93289471  0.32101232  0.75862794  1
  O2-  O177  1  0.92749976  0.82039775  0.09054359  1
  O2-  O178  1  0.92582878  0.82511642  0.42118645  1
  O2-  O179  1  0.93279764  0.82258129  0.76675382  1
  O2-  O180  1  0.32405284  0.06827563  0.24432427  1
  O2-  O181  1  0.31808663  0.07659180  0.57525533  1
  O2-  O182  1  0.31986502  0.06535443  0.89874678  1
  O2-  O183  1  0.31894335  0.57140867  0.23633307  1
  O2-  O184  1  0.31733245  0.57113008  0.56811412  1
  O2-  O185  1  0.31862620  0.57507356  0.90326700  1
  O2-  O186  1  0.82098267  0.07063632  0.24291385  1
  O2-  O187  1  0.82044614  0.07231269  0.56623330  1
  O2-  O188  1  0.82303940  0.06772069  0.90425732  1
  O2-  O189  1  0.81990149  0.57010474  0.23147861  1
  O2-  O190  1  0.82516850  0.56900326  0.56865972  1
  O2-  O191  1  0.81873013  0.57339223  0.90960358  1
  O2-  O192  1  0.03899607  0.08424636  0.26704056  1
  O2-  O193  1  0.04243937  0.08665850  0.60412174  1
  O2-  O194  1  0.03674261  0.08509226  0.93675451  1
  O2-  O195  1  0.03649684  0.58605628  0.26297731  1
  O2-  O196  1  0.04967048  0.58166084  0.60649496  1
  O2-  O197  1  0.03854254  0.58987810  0.93256897  1
  O2-  O198  1  0.54834299  0.08005132  0.26123916  1
  O2-  O199  1  0.54027407  0.08574049  0.59650583  1
  O2-  O200  1  0.54601581  0.07706596  0.93349564  1
  O2-  O201  1  0.55879651  0.58180436  0.27550049  1
  O2-  O202  1  0.54775529  0.58164190  0.60630989  1
  O2-  O203  1  0.55346071  0.58615095  0.93845241  1
  O2-  O204  1  0.16940674  0.19016369  0.27598678  1
  O2-  O205  1  0.16402557  0.20206461  0.60221542  1
  O2-  O206  1  0.16076206  0.20006818  0.93643601  1
  O2-  O207  1  0.16310692  0.71436724  0.26224932  1
  O2-  O208  1  0.16248011  0.70872301  0.60491951  1
  O2-  O209  1  0.16120063  0.70680569  0.93401546  1
  O2-  O210  1  0.66923526  0.21008788  0.26167575  1
  O2-  O211  1  0.66864552  0.21279035  0.60049495  1
  O2-  O212  1  0.67046669  0.21000304  0.93153547  1
  O2-  O213  1  0.66585015  0.71138550  0.26819756  1
  O2-  O214  1  0.66741124  0.69924595  0.60697499  1
  O2-  O215  1  0.66408085  0.71244187  0.93351268  1
  O2-  O216  1  0.08061060  0.46533608  0.06614439  1
  O2-  O217  1  0.08184854  0.46135234  0.40226915  1
  O2-  O218  1  0.08606401  0.45227640  0.73250914  1
  O2-  O219  1  0.08411424  0.95570381  0.06415690  1
  O2-  O220  1  0.08299709  0.96090670  0.40014617  1
  O2-  O221  1  0.08519541  0.96175801  0.73590734  1
  O2-  O222  1  0.58947211  0.45784311  0.06413370  1
  O2-  O223  1  0.58643641  0.44691558  0.39416641  1
  O2-  O224  1  0.58198699  0.45463982  0.73802196  1
  O2-  O225  1  0.58262512  0.94658086  0.06348551  1
  O2-  O226  1  0.58549133  0.95718287  0.39315572  1
  O2-  O227  1  0.57586693  0.95813083  0.73288691  1
  O2-  O228  1  0.19088168  0.32606443  0.06381230  1
  O2-  O229  1  0.19536075  0.32393203  0.40015966  1
  O2-  O230  1  0.19942119  0.32902705  0.72838883  1
  O2-  O231  1  0.19956665  0.83267137  0.05926371  1
  O2-  O232  1  0.21017897  0.83378187  0.39964041  1
  O2-  O233  1  0.20995630  0.83414766  0.73761519  1
  O2-  O234  1  0.71107569  0.33893190  0.06422532  1
  O2-  O235  1  0.71301300  0.33474122  0.39259592  1
  O2-  O236  1  0.71398036  0.33405236  0.73828334  1
  O2-  O237  1  0.70976190  0.83515558  0.06793958  1
  O2-  O238  1  0.70572244  0.83939218  0.39834587  1
  O2-  O239  1  0.70038038  0.83096605  0.73387626  1
  O2-  O240  1  0.45768726  0.42124857  0.26637489  1
  O2-  O241  1  0.45285458  0.41919956  0.60807102  1
  O2-  O242  1  0.45700520  0.42240390  0.93468668  1
  O2-  O243  1  0.46329395  0.91176079  0.26176075  1
  O2-  O244  1  0.45470499  0.91566364  0.59736234  1
  O2-  O245  1  0.45704047  0.90955984  0.93702067  1
  O2-  O246  1  0.96038553  0.41734035  0.26479890  1
  O2-  O247  1  0.95976966  0.41300245  0.60615690  1
  O2-  O248  1  0.95776907  0.41344343  0.93417119  1
  O2-  O249  1  0.95295851  0.91817335  0.27007974  1
  O2-  O250  1  0.96225031  0.91693995  0.59845802  1
  O2-  O251  1  0.95569849  0.91467421  0.93969665  1
  O2-  O252  1  0.32658010  0.29748191  0.27012738  1
  O2-  O253  1  0.33285855  0.29990246  0.60384392  1
  O2-  O254  1  0.32494762  0.29608460  0.93439612  1
  O2-  O255  1  0.33234051  0.79011925  0.26265482  1
  O2-  O256  1  0.33127192  0.78451847  0.60219273  1
  O2-  O257  1  0.33486331  0.79284376  0.93832720  1
  O2-  O258  1  0.83959633  0.28746745  0.26142370  1
  O2-  O259  1  0.83997785  0.29353132  0.60561985  1
  O2-  O260  1  0.83787189  0.29366289  0.93656669  1
  O2-  O261  1  0.83134469  0.80094135  0.26995335  1
  O2-  O262  1  0.82912554  0.79645812  0.60077111  1
  O2-  O263  1  0.83662547  0.79313666  0.93812528  1
  O2-  O264  1  0.41764209  0.03732222  0.06747633  1
  O2-  O265  1  0.42023728  0.04291039  0.39253564  1
  O2-  O266  1  0.41481178  0.04714848  0.72510793  1
  O2-  O267  1  0.42606846  0.55577985  0.06581545  1
  O2-  O268  1  0.42436680  0.54938551  0.40074144  1
  O2-  O269  1  0.41689460  0.54610485  0.73593114  1
  O2-  O270  1  0.91392818  0.03745892  0.07375355  1
  O2-  O271  1  0.91138170  0.04486276  0.39611397  1
  O2-  O272  1  0.91824550  0.04128938  0.73378459  1
  O2-  O273  1  0.91290848  0.54449695  0.05898074  1
  O2-  O274  1  0.91630541  0.54023958  0.39949997  1
  O2-  O275  1  0.92104361  0.54168990  0.73716932  1
  O2-  O276  1  0.28830986  0.16386813  0.06705974  1
  O2-  O277  1  0.30361004  0.16480342  0.39650938  1
  O2-  O278  1  0.29459000  0.16669450  0.72830490  1
  O2-  O279  1  0.28642219  0.66836405  0.06841518  1
  O2-  O280  1  0.28709374  0.66773454  0.39986298  1
  O2-  O281  1  0.28313829  0.66272225  0.73804938  1
  O2-  O282  1  0.79222045  0.16968914  0.06948284  1
  O2-  O283  1  0.79317727  0.16492601  0.39316380  1
  O2-  O284  1  0.79553418  0.16955158  0.73429504  1
  O2-  O285  1  0.79209637  0.66431162  0.06198643  1
  O2-  O286  1  0.79303805  0.67007089  0.39838839  1
  O2-  O287  1  0.79745947  0.67125071  0.73521927  1
