# generated using pymatgen
data_Ca2Al2SiO7
_symmetry_space_group_name_H-M   'P 1'
_cell_length_a   15.45779394
_cell_length_b   15.45863076
_cell_length_c   15.28372236
_cell_angle_alpha   89.98651868
_cell_angle_beta   89.99648264
_cell_angle_gamma   90.00204339
_symmetry_Int_Tables_number   1
_chemical_formula_structural   Ca2Al2SiO7
_chemical_formula_sum   'Ca48 Al48 Si24 O168'
_cell_volume   3652.14207667
_cell_formula_units_Z   24
loop_
 _symmetry_equiv_pos_site_id
 _symmetry_equiv_pos_as_xyz
  1  'x, y, z'
loop_
 _atom_type_symbol
 _atom_type_oxidation_number
  Ca2+  2.0
  Al0+  0.0
  Si0+  0.0
  O2-  -2.0
loop_
 _atom_site_type_symbol
 _atom_site_label
 _atom_site_symmetry_multiplicity
 _atom_site_fract_x
 _atom_site_fract_y
 _atom_site_fract_z
 _atom_site_occupancy
  Ca2+  Ca0  1  0.15738843  0.07454565  0.16358945  1
  Ca2+  Ca1  1  0.17312061  0.08052056  0.51036089  1
  Ca2+  Ca2  1  0.16472810  0.08266136  0.84008702  1
  Ca2+  Ca3  1  0.17443291  0.58873243  0.17001603  1
  Ca2+  Ca4  1  0.17492230  0.59629767  0.50396978  1
  Ca2+  Ca5  1  0.17564881  0.58603891  0.84017596  1
  Ca2+  Ca6  1  0.67585422  0.08320028  0.16731805  1
  Ca2+  Ca7  1  0.66637355  0.07444698  0.51179119  1
  Ca2+  Ca8  1  0.66828195  0.07672813  0.83547189  1
  Ca2+  Ca9  1  0.67708997  0.58671792  0.16951184  1
  Ca2+  Ca10  1  0.66717159  0.57614513  0.50720934  1
  Ca2+  Ca11  1  0.66539204  0.58188694  0.83914632  1
  Ca2+  Ca12  1  0.08075502  0.32835354  0.15312801  1
  Ca2+  Ca13  1  0.08816862  0.32541881  0.50012869  1
  Ca2+  Ca14  1  0.08211921  0.33042787  0.83256483  1
  Ca2+  Ca15  1  0.07566585  0.82692986  0.16243651  1
  Ca2+  Ca16  1  0.07900385  0.82247707  0.49389791  1
  Ca2+  Ca17  1  0.07869654  0.83378083  0.83298899  1
  Ca2+  Ca18  1  0.58705531  0.33785227  0.16533929  1
  Ca2+  Ca19  1  0.59140952  0.33256585  0.50069311  1
  Ca2+  Ca20  1  0.58411532  0.32888576  0.82431198  1
  Ca2+  Ca21  1  0.56927925  0.82602400  0.15680576  1
  Ca2+  Ca22  1  0.57951352  0.82859180  0.49835448  1
  Ca2+  Ca23  1  0.58333322  0.82005040  0.83008218  1
  Ca2+  Ca24  1  0.32860870  0.42944161  0.16649439  1
  Ca2+  Ca25  1  0.33267271  0.43127760  0.50581690  1
  Ca2+  Ca26  1  0.32762576  0.42819027  0.83919589  1
  Ca2+  Ca27  1  0.32754966  0.90452229  0.16614348  1
  Ca2+  Ca28  1  0.33631653  0.91972485  0.50572549  1
  Ca2+  Ca29  1  0.32835107  0.92113806  0.84012649  1
  Ca2+  Ca30  1  0.83555562  0.43054862  0.16986366  1
  Ca2+  Ca31  1  0.82502964  0.42271806  0.50086286  1
  Ca2+  Ca32  1  0.83012833  0.42059687  0.83992915  1
  Ca2+  Ca33  1  0.84430598  0.92022704  0.16697852  1
  Ca2+  Ca34  1  0.82896292  0.91251339  0.50402894  1
  Ca2+  Ca35  1  0.82935026  0.91778205  0.84160393  1
  Ca2+  Ca36  1  0.42068068  0.17121408  0.16147503  1
  Ca2+  Ca37  1  0.42223725  0.16372508  0.50118974  1
  Ca2+  Ca38  1  0.41885317  0.16800525  0.82399143  1
  Ca2+  Ca39  1  0.41728905  0.66891461  0.15922764  1
  Ca2+  Ca40  1  0.41900979  0.66466752  0.49556281  1
  Ca2+  Ca41  1  0.42147318  0.66367827  0.83027883  1
  Ca2+  Ca42  1  0.91856277  0.17594570  0.15176140  1
  Ca2+  Ca43  1  0.92188751  0.16708135  0.49961887  1
  Ca2+  Ca44  1  0.92530710  0.16690976  0.83562279  1
  Ca2+  Ca45  1  0.91151646  0.67260585  0.16017329  1
  Ca2+  Ca46  1  0.92734687  0.66682564  0.49110103  1
  Ca2+  Ca47  1  0.92020351  0.66785046  0.83040650  1
  Al0+  Al48  1  -0.00025844  -0.00014899  0.00037080  1
  Al0+  Al49  1  0.00165294  -0.00113938  0.33474823  1
  Al0+  Al50  1  -0.00066237  0.00200626  0.66046018  1
  Al0+  Al51  1  -0.00208921  0.49894733  0.00212740  1
  Al0+  Al52  1  0.00174794  0.49608843  0.33518119  1
  Al0+  Al53  1  -0.00032088  0.50028670  0.65980109  1
  Al0+  Al54  1  0.49904183  -0.00077736  -0.00196343  1
  Al0+  Al55  1  0.50119282  0.00083503  0.32704175  1
  Al0+  Al56  1  0.50059681  0.00097790  0.67247692  1
  Al0+  Al57  1  0.49917365  0.49804207  0.00046377  1
  Al0+  Al58  1  0.49863321  0.49722986  0.34010340  1
  Al0+  Al59  1  0.49978354  0.50040008  0.67067307  1
  Al0+  Al60  1  0.25214041  0.24958174  0.00042939  1
  Al0+  Al61  1  0.25344268  0.24934726  0.33216133  1
  Al0+  Al62  1  0.25009748  0.25135931  0.66467980  1
  Al0+  Al63  1  0.24999845  0.75334872  0.00365182  1
  Al0+  Al64  1  0.24886845  0.75093775  0.33189772  1
  Al0+  Al65  1  0.24866419  0.75274696  0.66861468  1
  Al0+  Al66  1  0.75081917  0.24850688  -0.00058867  1
  Al0+  Al67  1  0.75200647  0.24787699  0.33745432  1
  Al0+  Al68  1  0.74989381  0.25031923  0.66559700  1
  Al0+  Al69  1  0.74712445  0.74954460  -0.00379231  1
  Al0+  Al70  1  0.75046530  0.75188179  0.33424285  1
  Al0+  Al71  1  0.74765744  0.75003709  0.66602031  1
  Al0+  Al72  1  0.07171750  0.17942395  0.98582964  1
  Al0+  Al73  1  0.68004738  0.42870663  0.34908632  1
  Al0+  Al74  1  0.67928109  0.92760499  0.68116624  1
  Al0+  Al75  1  0.42549697  0.82156929  0.98191099  1
  Al0+  Al76  1  0.17864836  0.93098637  0.01414154  1
  Al0+  Al77  1  0.07136164  0.67996386  0.65465969  1
  Al0+  Al78  1  0.92871720  0.82068190  0.98561292  1
  Al0+  Al79  1  0.68043196  0.42940333  0.68221691  1
  Al0+  Al80  1  0.56991080  0.67751345  0.65130647  1
  Al0+  Al81  1  0.81943204  0.06890442  0.01260505  1
  Al0+  Al82  1  0.56918500  0.67730333  0.98530732  1
  Al0+  Al83  1  0.07143510  0.17975904  0.65173220  1
  Al0+  Al84  1  0.32090613  0.57163184  0.01544941  1
  Al0+  Al85  1  0.92745647  0.32413930  0.98453805  1
  Al0+  Al86  1  0.17801146  0.42765056  0.01347851  1
  Al0+  Al87  1  0.81962413  0.57233771  0.01091712  1
  Al0+  Al88  1  0.31762890  0.57177849  0.34835605  1
  Al0+  Al89  1  0.07081622  0.67617745  0.31675635  1
  Al0+  Al90  1  0.92748299  0.82062850  0.31798126  1
  Al0+  Al91  1  0.43078850  0.82181440  0.32047609  1
  Al0+  Al92  1  0.31921303  0.57318277  0.68109934  1
  Al0+  Al93  1  0.57066756  0.17876834  0.65360954  1
  Al0+  Al94  1  0.32033057  0.07180348  0.67952097  1
  Al0+  Al95  1  0.82312635  0.57449847  0.34966770  1
  Si0+  Si96  1  0.07364120  0.17920051  0.31853626  1
  Si0+  Si97  1  0.42981337  0.31998057  0.98465199  1
  Si0+  Si98  1  0.57250759  0.17924376  0.31776673  1
  Si0+  Si99  1  0.67789130  0.42605217  0.01522677  1
  Si0+  Si100  1  0.92670802  0.82258169  0.65066481  1
  Si0+  Si101  1  0.17640165  0.42798900  0.68172381  1
  Si0+  Si102  1  0.42966438  0.32116126  0.31808034  1
  Si0+  Si103  1  0.82233588  0.06983882  0.34987992  1
  Si0+  Si104  1  0.42848573  0.32239501  0.64889843  1
  Si0+  Si105  1  0.92706431  0.32278344  0.64675823  1
  Si0+  Si106  1  0.32461103  0.07263672  0.01847071  1
  Si0+  Si107  1  0.32340499  0.07225097  0.34758949  1
  Si0+  Si108  1  0.92858511  0.31696462  0.31891805  1
  Si0+  Si109  1  0.57105253  0.67497919  0.31913557  1
  Si0+  Si110  1  0.57215266  0.17843495  0.98506270  1
  Si0+  Si111  1  0.67651155  0.92747195  0.01824395  1
  Si0+  Si112  1  0.17619268  0.93032842  0.68253469  1
  Si0+  Si113  1  0.42840252  0.82204801  0.65170812  1
  Si0+  Si114  1  0.82336914  0.57187396  0.68268611  1
  Si0+  Si115  1  0.17898316  0.42337658  0.35103595  1
  Si0+  Si116  1  0.17986842  0.93097671  0.34993979  1
  Si0+  Si117  1  0.07168530  0.67762079  0.98488039  1
  Si0+  Si118  1  0.67659708  0.93169275  0.34644451  1
  Si0+  Si119  1  0.82323813  0.07191782  0.68307942  1
  O2-  O120  1  0.25547272  0.00435828  0.06237629  1
  O2-  O121  1  0.25295223  0.00119319  0.39051727  1
  O2-  O122  1  0.24284497  0.00101264  0.72619097  1
  O2-  O123  1  0.24499607  0.50326219  0.06539414  1
  O2-  O124  1  0.24062251  0.49851552  0.39505984  1
  O2-  O125  1  0.24122225  0.50032971  0.72504433  1
  O2-  O126  1  0.74651819  -0.00557367  0.06367062  1
  O2-  O127  1  0.75300588  -0.00329598  0.39013552  1
  O2-  O128  1  0.75652530  0.00095440  0.72599173  1
  O2-  O129  1  0.74592380  0.49579731  0.05761991  1
  O2-  O130  1  0.74745402  0.50519800  0.39893998  1
  O2-  O131  1  0.75422232  0.50445238  0.72815725  1
  O2-  O132  1  0.00416217  0.25086136  0.27659114  1
  O2-  O133  1  -0.00265163  0.25425487  0.60328205  1
  O2-  O134  1  0.00290518  0.25458884  0.93614720  1
  O2-  O135  1  -0.00715092  0.74262490  0.26790808  1
  O2-  O136  1  -0.00533117  0.75286728  0.60769199  1
  O2-  O137  1  0.00141391  0.74421785  0.93947142  1
  O2-  O138  1  0.50454415  0.25326569  0.27598422  1
  O2-  O139  1  0.49725705  0.25337008  0.60400835  1
  O2-  O140  1  0.50068453  0.24858576  0.94308000  1
  O2-  O141  1  0.50241251  0.74366690  0.27495675  1
  O2-  O142  1  0.49381140  0.75143929  0.60518231  1
  O2-  O143  1  0.49564682  0.74736526  0.93398193  1
  O2-  O144  1  0.06830967  0.17942647  0.10026351  1
  O2-  O145  1  0.07358732  0.17961975  0.42390494  1
  O2-  O146  1  0.07054841  0.17918764  0.76389379  1
  O2-  O147  1  0.07122699  0.67970715  0.09036743  1
  O2-  O148  1  0.07259934  0.68324323  0.43066587  1
  O2-  O149  1  0.07057388  0.68076318  0.76767489  1
  O2-  O150  1  0.57201056  0.17946726  0.09093097  1
  O2-  O151  1  0.57084032  0.17554893  0.42258782  1
  O2-  O152  1  0.56878951  0.18037996  0.76666494  1
  O2-  O153  1  0.56999054  0.67879495  0.09955313  1
  O2-  O154  1  0.56903598  0.67671713  0.42501515  1
  O2-  O155  1  0.57052465  0.67737005  0.76374515  1
  O2-  O156  1  0.18379376  0.41615419  0.24627265  1
  O2-  O157  1  0.17995332  0.42516485  0.57585830  1
  O2-  O158  1  0.18249049  0.42720472  0.89971766  1
  O2-  O159  1  0.17737164  0.93351721  0.24516133  1
  O2-  O160  1  0.17781875  0.93099889  0.57640655  1
  O2-  O161  1  0.17802472  0.93408295  0.90096552  1
  O2-  O162  1  0.68286340  0.42513827  0.23559289  1
  O2-  O163  1  0.68286782  0.42935592  0.56919934  1
  O2-  O164  1  0.67773130  0.42424599  0.90969086  1
  O2-  O165  1  0.67306609  0.93773859  0.24194012  1
  O2-  O166  1  0.67948071  0.92974556  0.56698596  1
  O2-  O167  1  0.67712247  0.93056465  0.91268736  1
  O2-  O168  1  0.43141755  0.31912563  0.09032198  1
  O2-  O169  1  0.42612135  0.31774195  0.42274208  1
  O2-  O170  1  0.42856816  0.32021628  0.75461042  1
  O2-  O171  1  0.42885057  0.82134613  0.09604435  1
  O2-  O172  1  0.43428815  0.82751674  0.43358139  1
  O2-  O173  1  0.42896055  0.82124340  0.75665928  1
  O2-  O174  1  0.92495564  0.32042059  0.09878567  1
  O2-  O175  1  0.92710048  0.31215608  0.42412808  1
  O2-  O176  1  0.92675268  0.32382497  0.75177245  1
  O2-  O177  1  0.93084811  0.82094808  0.09845761  1
  O2-  O178  1  0.93212190  0.82623980  0.43174187  1
  O2-  O179  1  0.92820735  0.82468860  0.75612901  1
  O2-  O180  1  0.32349309  0.07575934  0.24301600  1
  O2-  O181  1  0.32082554  0.06851466  0.56543572  1
  O2-  O182  1  0.32587874  0.07337799  0.91298702  1
  O2-  O183  1  0.31948491  0.56938954  0.23578027  1
  O2-  O184  1  0.31889278  0.57244223  0.56757454  1
  O2-  O185  1  0.32143144  0.56863325  0.90180802  1
  O2-  O186  1  0.82166616  0.07339857  0.24502387  1
  O2-  O187  1  0.82279947  0.07069270  0.57661841  1
  O2-  O188  1  0.81708674  0.06834976  0.89972008  1
  O2-  O189  1  0.82082175  0.57312830  0.23595090  1
  O2-  O190  1  0.82311818  0.56995508  0.57707424  1
  O2-  O191  1  0.81892674  0.57160670  0.89783344  1
  O2-  O192  1  0.04459359  0.08689367  0.27395410  1
  O2-  O193  1  0.04067161  0.08419561  0.59352817  1
  O2-  O194  1  0.03811021  0.08333603  0.93258993  1
  O2-  O195  1  0.05485009  0.57230718  0.27078889  1
  O2-  O196  1  0.04527069  0.58312300  0.59783907  1
  O2-  O197  1  0.04857542  0.58330295  0.94022533  1
  O2-  O198  1  0.54115840  0.09099793  0.26576563  1
  O2-  O199  1  0.53754141  0.08244251  0.59925855  1
  O2-  O200  1  0.54505480  0.08648453  0.93852424  1
  O2-  O201  1  0.54614361  0.58024861  0.27573951  1
  O2-  O202  1  0.53887901  0.58040405  0.59845137  1
  O2-  O203  1  0.54339890  0.57723415  0.93390657  1
  O2-  O204  1  0.16660596  0.20400453  0.27218592  1
  O2-  O205  1  0.16792619  0.21077939  0.59574836  1
  O2-  O206  1  0.17262425  0.20257838  0.93569838  1
  O2-  O207  1  0.16644958  0.71301018  0.26381706  1
  O2-  O208  1  0.16642818  0.71554816  0.59931421  1
  O2-  O209  1  0.16470452  0.70683962  0.94037674  1
  O2-  O210  1  0.66583098  0.20530859  0.27202159  1
  O2-  O211  1  0.66773891  0.20725478  0.59846870  1
  O2-  O212  1  0.66299851  0.20562714  0.93684798  1
  O2-  O213  1  0.66532102  0.70110671  0.27545309  1
  O2-  O214  1  0.66641263  0.70957954  0.59700396  1
  O2-  O215  1  0.66535339  0.70832182  0.92932745  1
  O2-  O216  1  0.07742516  0.44762207  0.06470894  1
  O2-  O217  1  0.08253799  0.43802215  0.39488865  1
  O2-  O218  1  0.08023105  0.44892325  0.72344821  1
  O2-  O219  1  0.08403722  0.96446916  0.07071506  1
  O2-  O220  1  0.08983338  0.96160681  0.40003456  1
  O2-  O221  1  0.08134726  0.95574376  0.72563338  1
  O2-  O222  1  0.58397639  0.44942934  0.06162051  1
  O2-  O223  1  0.57959634  0.44843467  0.40191917  1
  O2-  O224  1  0.58297174  0.45666362  0.73539593  1
  O2-  O225  1  0.58346756  0.95698325  0.06405476  1
  O2-  O226  1  0.58778014  0.96698775  0.39580001  1
  O2-  O227  1  0.58573590  0.96251820  0.73710448  1
  O2-  O228  1  0.21142937  0.33049337  0.06794502  1
  O2-  O229  1  0.21311634  0.33231604  0.39995291  1
  O2-  O230  1  0.20546388  0.33588853  0.72839736  1
  O2-  O231  1  0.20783077  0.83563404  0.07146841  1
  O2-  O232  1  0.20737147  0.83953883  0.39721134  1
  O2-  O233  1  0.20249662  0.83845330  0.73037464  1
  O2-  O234  1  0.70268995  0.33245424  0.06183117  1
  O2-  O235  1  0.71292575  0.33041957  0.40265542  1
  O2-  O236  1  0.71006639  0.33137615  0.73437037  1
  O2-  O237  1  0.69928024  0.83316123  0.06218743  1
  O2-  O238  1  0.69799237  0.83810624  0.39303938  1
  O2-  O239  1  0.70816073  0.83095433  0.73566749  1
  O2-  O240  1  0.45567870  0.41317553  0.27055507  1
  O2-  O241  1  0.45623803  0.41529746  0.60337239  1
  O2-  O242  1  0.45741621  0.41066219  0.93594486  1
  O2-  O243  1  0.46291255  0.91687849  0.26302912  1
  O2-  O244  1  0.45776455  0.91530236  0.60666467  1
  O2-  O245  1  0.45452230  0.92112304  0.93136999  1
  O2-  O246  1  0.95068178  0.41097161  0.27438993  1
  O2-  O247  1  0.95197212  0.41531105  0.59777451  1
  O2-  O248  1  0.95193868  0.42274402  0.93046404  1
  O2-  O249  1  0.96275503  0.91888786  0.26656434  1
  O2-  O250  1  0.95162788  0.91574164  0.60236985  1
  O2-  O251  1  0.96185995  0.91603906  0.93139641  1
  O2-  O252  1  0.34087816  0.28774106  0.26757858  1
  O2-  O253  1  0.33554307  0.29714040  0.60123764  1
  O2-  O254  1  0.33918917  0.29174627  0.93608047  1
  O2-  O255  1  0.33285704  0.79419912  0.26895280  1
  O2-  O256  1  0.33316427  0.80128130  0.60644767  1
  O2-  O257  1  0.32502725  0.79913879  0.93156861  1
  O2-  O258  1  0.83905902  0.28285689  0.27117406  1
  O2-  O259  1  0.83512576  0.29279821  0.59949399  1
  O2-  O260  1  0.83052470  0.29015588  0.93124030  1
  O2-  O261  1  0.82553867  0.80343592  0.26696119  1
  O2-  O262  1  0.83282146  0.79840352  0.60496889  1
  O2-  O263  1  0.83106998  0.79375372  0.93267801  1
  O2-  O264  1  0.41869564  0.04786094  0.06519995  1
  O2-  O265  1  0.41619392  0.04392933  0.39329446  1
  O2-  O266  1  0.41514405  0.04157532  0.73583277  1
  O2-  O267  1  0.41748834  0.53619537  0.06903928  1
  O2-  O268  1  0.41306488  0.53746463  0.40319615  1
  O2-  O269  1  0.41396898  0.53841283  0.73499736  1
  O2-  O270  1  0.91529112  0.03968582  0.06830419  1
  O2-  O271  1  0.91486650  0.04370609  0.39754583  1
  O2-  O272  1  0.91807370  0.04816074  0.72681878  1
  O2-  O273  1  0.91552776  0.54379462  0.06723904  1
  O2-  O274  1  0.92114672  0.54066612  0.40180011  1
  O2-  O275  1  0.91755641  0.54494289  0.72693909  1
  O2-  O276  1  0.30112077  0.16656082  0.06483606  1
  O2-  O277  1  0.29582738  0.16350870  0.39668664  1
  O2-  O278  1  0.29296132  0.17021128  0.73114460  1
  O2-  O279  1  0.29660927  0.67127995  0.06680402  1
  O2-  O280  1  0.28864132  0.66951475  0.40195934  1
  O2-  O281  1  0.28981180  0.67022315  0.73431007  1
  O2-  O282  1  0.78604334  0.16466006  0.06883963  1
  O2-  O283  1  0.79185785  0.15914546  0.40036962  1
  O2-  O284  1  0.79594913  0.16491598  0.72756446  1
  O2-  O285  1  0.78579037  0.66784646  0.06606611  1
  O2-  O286  1  0.80061934  0.67534007  0.40114171  1
  O2-  O287  1  0.79957459  0.66666623  0.72585429  1
