# generated using pymatgen
data_Ca2Al2SiO7
_symmetry_space_group_name_H-M   'P 1'
_cell_length_a   15.46718179
_cell_length_b   15.46750464
_cell_length_c   15.28924374
_cell_angle_alpha   90.01071073
_cell_angle_beta   90.01302531
_cell_angle_gamma   90.02976645
_symmetry_Int_Tables_number   1
_chemical_formula_structural   Ca2Al2SiO7
_chemical_formula_sum   'Ca48 Al48 Si24 O168'
_cell_volume   3657.77823987
_cell_formula_units_Z   24
loop_
 _symmetry_equiv_pos_site_id
 _symmetry_equiv_pos_as_xyz
  1  'x, y, z'
loop_
 _atom_type_symbol
 _atom_type_oxidation_number
  Ca2+  2.0
  Al0+  0.0
  Si0+  0.0
  O2-  -2.0
loop_
 _atom_site_type_symbol
 _atom_site_label
 _atom_site_symmetry_multiplicity
 _atom_site_fract_x
 _atom_site_fract_y
 _atom_site_fract_z
 _atom_site_occupancy
  Ca2+  Ca0  1  0.16625096  0.07724038  0.16719184  1
  Ca2+  Ca1  1  0.16440873  0.07625754  0.49887574  1
  Ca2+  Ca2  1  0.17157347  0.08103808  0.84726753  1
  Ca2+  Ca3  1  0.17115706  0.58267710  0.18099157  1
  Ca2+  Ca4  1  0.17295869  0.57860116  0.49808104  1
  Ca2+  Ca5  1  0.17201483  0.57780541  0.83174630  1
  Ca2+  Ca6  1  0.66554496  0.07539347  0.17324824  1
  Ca2+  Ca7  1  0.65970994  0.07353214  0.49772073  1
  Ca2+  Ca8  1  0.66999558  0.07189277  0.84192359  1
  Ca2+  Ca9  1  0.67465311  0.57488892  0.17437988  1
  Ca2+  Ca10  1  0.66693543  0.57882013  0.49846097  1
  Ca2+  Ca11  1  0.66987251  0.57220078  0.83975287  1
  Ca2+  Ca12  1  0.07570853  0.33598289  0.16369006  1
  Ca2+  Ca13  1  0.08000285  0.34083625  0.49100371  1
  Ca2+  Ca14  1  0.08542317  0.32735727  0.82887877  1
  Ca2+  Ca15  1  0.08313573  0.83372753  0.16758769  1
  Ca2+  Ca16  1  0.07688350  0.82597342  0.48426546  1
  Ca2+  Ca17  1  0.08211390  0.83528031  0.83181982  1
  Ca2+  Ca18  1  0.59096546  0.33089545  0.16541613  1
  Ca2+  Ca19  1  0.58409741  0.33409835  0.49189158  1
  Ca2+  Ca20  1  0.58079150  0.33700203  0.82559643  1
  Ca2+  Ca21  1  0.58662983  0.83130493  0.16773983  1
  Ca2+  Ca22  1  0.57986050  0.82733144  0.48481072  1
  Ca2+  Ca23  1  0.58681624  0.83589108  0.82958132  1
  Ca2+  Ca24  1  0.32406915  0.42338497  0.17723963  1
  Ca2+  Ca25  1  0.33047934  0.42807994  0.50606659  1
  Ca2+  Ca26  1  0.33487869  0.41763068  0.83104998  1
  Ca2+  Ca27  1  0.32447419  0.91650312  0.17358650  1
  Ca2+  Ca28  1  0.33039683  0.90978355  0.49560956  1
  Ca2+  Ca29  1  0.32641419  0.92690028  0.84502060  1
  Ca2+  Ca30  1  0.83038037  0.42394482  0.17589176  1
  Ca2+  Ca31  1  0.82544984  0.41720358  0.49591082  1
  Ca2+  Ca32  1  0.82080820  0.41993963  0.84118046  1
  Ca2+  Ca33  1  0.82740197  0.92070198  0.17197857  1
  Ca2+  Ca34  1  0.82009029  0.90555540  0.49752433  1
  Ca2+  Ca35  1  0.82253697  0.92087956  0.84171090  1
  Ca2+  Ca36  1  0.42134321  0.16361442  0.16548720  1
  Ca2+  Ca37  1  0.42370823  0.17621463  0.49418326  1
  Ca2+  Ca38  1  0.41559038  0.17276858  0.82818438  1
  Ca2+  Ca39  1  0.41976953  0.66784981  0.17127108  1
  Ca2+  Ca40  1  0.41966697  0.66681684  0.48827468  1
  Ca2+  Ca41  1  0.41756011  0.66801675  0.82741846  1
  Ca2+  Ca42  1  0.91850065  0.17044853  0.16193239  1
  Ca2+  Ca43  1  0.91763624  0.17642895  0.49059490  1
  Ca2+  Ca44  1  0.92161545  0.15854243  0.83631856  1
  Ca2+  Ca45  1  0.91478914  0.66554040  0.16774687  1
  Ca2+  Ca46  1  0.92188366  0.66875851  0.48412993  1
  Ca2+  Ca47  1  0.91422450  0.66476193  0.83352954  1
  Al0+  Al48  1  -0.00077395  -0.00109598  0.00083165  1
  Al0+  Al49  1  0.00033865  0.00103753  0.33522557  1
  Al0+  Al50  1  -0.00087691  -0.00078121  0.66399957  1
  Al0+  Al51  1  0.00000580  0.50083372  -0.00339663  1
  Al0+  Al52  1  -0.00053475  0.50013965  0.33124272  1
  Al0+  Al53  1  0.00226365  0.49951458  0.67024800  1
  Al0+  Al54  1  0.49804535  0.00054461  0.00351695  1
  Al0+  Al55  1  0.49944973  0.00208061  0.33015100  1
  Al0+  Al56  1  0.49890372  -0.00018610  0.67041968  1
  Al0+  Al57  1  0.49948543  0.50085295  0.00159881  1
  Al0+  Al58  1  0.49904678  0.49976366  0.33391586  1
  Al0+  Al59  1  0.50018699  0.50152064  0.66971583  1
  Al0+  Al60  1  0.25037407  0.25067626  -0.00052685  1
  Al0+  Al61  1  0.25075783  0.24809459  0.33682215  1
  Al0+  Al62  1  0.25075936  0.24947866  0.66275642  1
  Al0+  Al63  1  0.25010985  0.74985823  -0.00105713  1
  Al0+  Al64  1  0.24966809  0.75152854  0.33394209  1
  Al0+  Al65  1  0.24928281  0.74986484  0.67063021  1
  Al0+  Al66  1  0.74898370  0.24873745  0.00079901  1
  Al0+  Al67  1  0.75152897  0.24953986  0.32803389  1
  Al0+  Al68  1  0.75284197  0.24793043  0.67026104  1
  Al0+  Al69  1  0.75011501  0.74787129  0.00249458  1
  Al0+  Al70  1  0.74993781  0.75023093  0.33195052  1
  Al0+  Al71  1  0.74936140  0.75076267  0.67114552  1
  Al0+  Al72  1  0.17879969  0.93087722  0.34821826  1
  Al0+  Al73  1  0.67645810  0.42859945  0.01507465  1
  Al0+  Al74  1  0.67876063  0.93025204  0.34649375  1
  Al0+  Al75  1  0.67744777  0.92831962  0.01678781  1
  Al0+  Al76  1  0.17891294  0.92744258  0.01502225  1
  Al0+  Al77  1  0.17787082  0.42708941  0.34605283  1
  Al0+  Al78  1  0.32140131  0.57216063  0.68339074  1
  Al0+  Al79  1  0.57060470  0.18113183  0.31959039  1
  Al0+  Al80  1  0.43078758  0.32192390  0.65221746  1
  Al0+  Al81  1  0.17856443  0.42700626  0.68336156  1
  Al0+  Al82  1  0.93104985  0.32074585  0.31968825  1
  Al0+  Al83  1  0.82303558  0.56940000  0.01509648  1
  Al0+  Al84  1  0.67955204  0.42653592  0.34769397  1
  Al0+  Al85  1  0.92727974  0.82319465  0.31707438  1
  Al0+  Al86  1  0.82184652  0.07073167  0.01558508  1
  Al0+  Al87  1  0.42873210  0.82190935  0.31764354  1
  Al0+  Al88  1  0.82074178  0.57196479  0.34858538  1
  Al0+  Al89  1  0.67859658  0.92957092  0.67970000  1
  Al0+  Al90  1  0.06969287  0.18010107  0.98713152  1
  Al0+  Al91  1  0.32132825  0.57197038  0.34722594  1
  Al0+  Al92  1  0.07009187  0.67965170  0.31825209  1
  Al0+  Al93  1  0.57194908  0.67622428  0.31745320  1
  Al0+  Al94  1  0.68021959  0.42801689  0.67923309  1
  Al0+  Al95  1  0.32036948  0.07464934  0.01589088  1
  Si0+  Si96  1  0.07371562  0.67786684  0.98144288  1
  Si0+  Si97  1  0.92871900  0.81952500  0.98329804  1
  Si0+  Si98  1  0.82449438  0.07155455  0.68333886  1
  Si0+  Si99  1  0.57116984  0.17729349  0.98336329  1
  Si0+  Si100  1  0.82277403  0.57262509  0.68265515  1
  Si0+  Si101  1  0.07156776  0.67936271  0.65236106  1
  Si0+  Si102  1  0.42779405  0.82251365  0.65393939  1
  Si0+  Si103  1  0.07442739  0.17687403  0.31719022  1
  Si0+  Si104  1  0.07125876  0.17752959  0.65079674  1
  Si0+  Si105  1  0.92878588  0.82007760  0.65260115  1
  Si0+  Si106  1  0.57004481  0.67930704  0.98312122  1
  Si0+  Si107  1  0.92733520  0.32319803  0.98024499  1
  Si0+  Si108  1  0.17753479  0.92985095  0.68132837  1
  Si0+  Si109  1  0.42997026  0.32185183  0.98508526  1
  Si0+  Si110  1  0.17997399  0.42943460  0.01271678  1
  Si0+  Si111  1  0.82232793  0.07246058  0.35081260  1
  Si0+  Si112  1  0.31980785  0.07057749  0.68062880  1
  Si0+  Si113  1  0.57094139  0.68118443  0.65357219  1
  Si0+  Si114  1  0.32372995  0.07227933  0.35338956  1
  Si0+  Si115  1  0.92951046  0.32124844  0.65291617  1
  Si0+  Si116  1  0.57314446  0.17664005  0.65209297  1
  Si0+  Si117  1  0.32046628  0.57171339  0.01473387  1
  Si0+  Si118  1  0.42645452  0.32220987  0.31635769  1
  Si0+  Si119  1  0.42803473  0.82089609  0.98331261  1
  O2-  O120  1  0.25024055  0.00031229  0.06382356  1
  O2-  O121  1  0.25399878  0.00414871  0.39732643  1
  O2-  O122  1  0.24776428  0.00093284  0.72370405  1
  O2-  O123  1  0.24698682  0.50326395  0.05516929  1
  O2-  O124  1  0.25149671  0.49715142  0.39595387  1
  O2-  O125  1  0.25203832  0.49746322  0.73403475  1
  O2-  O126  1  0.74708428  0.00257728  0.06583853  1
  O2-  O127  1  0.75563806  0.00197450  0.39554535  1
  O2-  O128  1  0.75274600  0.00502359  0.72534508  1
  O2-  O129  1  0.75384462  0.49472563  0.06328274  1
  O2-  O130  1  0.74710859  0.50195164  0.39902647  1
  O2-  O131  1  0.75582434  0.50192951  0.72581538  1
  O2-  O132  1  0.00902773  0.24864877  0.27423115  1
  O2-  O133  1  0.00200425  0.25092964  0.61060581  1
  O2-  O134  1  -0.00491700  0.25304403  0.93582820  1
  O2-  O135  1  -0.00165849  0.75080128  0.26636845  1
  O2-  O136  1  -0.00184521  0.74787759  0.61091143  1
  O2-  O137  1  0.00104308  0.74868618  0.94032427  1
  O2-  O138  1  0.49772723  0.25707839  0.27129383  1
  O2-  O139  1  0.50978850  0.25021234  0.60778478  1
  O2-  O140  1  0.50201486  0.25127881  0.94226427  1
  O2-  O141  1  0.50116986  0.75034816  0.26762933  1
  O2-  O142  1  0.49950395  0.75240297  0.61259740  1
  O2-  O143  1  0.50155015  0.75293362  0.93934217  1
  O2-  O144  1  0.07023988  0.18406689  0.09945364  1
  O2-  O145  1  0.07157259  0.17527305  0.42351767  1
  O2-  O146  1  0.07035480  0.17422686  0.75584986  1
  O2-  O147  1  0.07762256  0.67605598  0.08541380  1
  O2-  O148  1  0.06979403  0.68153611  0.43272736  1
  O2-  O149  1  0.07185122  0.68203478  0.75799641  1
  O2-  O150  1  0.57001824  0.17637760  0.08794339  1
  O2-  O151  1  0.56825826  0.18017591  0.43341680  1
  O2-  O152  1  0.56929247  0.17438218  0.75778977  1
  O2-  O153  1  0.56731326  0.67749926  0.08717209  1
  O2-  O154  1  0.57097775  0.67833986  0.43215148  1
  O2-  O155  1  0.57141284  0.68322424  0.75923040  1
  O2-  O156  1  0.18026955  0.42718109  0.23166234  1
  O2-  O157  1  0.17609163  0.42973305  0.57086623  1
  O2-  O158  1  0.18249536  0.42905179  0.90748509  1
  O2-  O159  1  0.17879951  0.93347804  0.23573068  1
  O2-  O160  1  0.17660076  0.93009692  0.57666553  1
  O2-  O161  1  0.18130214  0.92805411  0.89998720  1
  O2-  O162  1  0.68337575  0.42562534  0.23465446  1
  O2-  O163  1  0.68146925  0.42771559  0.56702887  1
  O2-  O164  1  0.67508132  0.43204405  0.90054392  1
  O2-  O165  1  0.67859051  0.93359843  0.23422255  1
  O2-  O166  1  0.67804386  0.92799321  0.56722247  1
  O2-  O167  1  0.67916994  0.92931100  0.90206261  1
  O2-  O168  1  0.42839283  0.32307184  0.08958098  1
  O2-  O169  1  0.42583018  0.31915185  0.42212990  1
  O2-  O170  1  0.43058306  0.31798683  0.76607081  1
  O2-  O171  1  0.42443939  0.81800905  0.08722790  1
  O2-  O172  1  0.43086143  0.82123177  0.43248836  1
  O2-  O173  1  0.42791394  0.82282073  0.75940095  1
  O2-  O174  1  0.93093114  0.32590893  0.08530610  1
  O2-  O175  1  0.93022091  0.31792618  0.43373537  1
  O2-  O176  1  0.92921939  0.31976829  0.75784206  1
  O2-  O177  1  0.92856102  0.81957189  0.08729969  1
  O2-  O178  1  0.92976547  0.82175506  0.43194748  1
  O2-  O179  1  0.93049037  0.82143182  0.75800099  1
  O2-  O180  1  0.32270443  0.07379116  0.24818171  1
  O2-  O181  1  0.32061368  0.06884159  0.57603896  1
  O2-  O182  1  0.31896441  0.07342415  0.90099488  1
  O2-  O183  1  0.31938390  0.56984739  0.23285230  1
  O2-  O184  1  0.31947738  0.57542032  0.57099544  1
  O2-  O185  1  0.32112345  0.57139239  0.90941246  1
  O2-  O186  1  0.82174140  0.07253065  0.24560144  1
  O2-  O187  1  0.82854625  0.07286183  0.57830370  1
  O2-  O188  1  0.82055615  0.06636766  0.90099826  1
  O2-  O189  1  0.82146622  0.56853644  0.23545568  1
  O2-  O190  1  0.82290940  0.57566470  0.57786968  1
  O2-  O191  1  0.82072961  0.56871295  0.90029355  1
  O2-  O192  1  0.04523408  0.08519113  0.27055361  1
  O2-  O193  1  0.04085451  0.08649594  0.60190955  1
  O2-  O194  1  0.04012417  0.08232454  0.93174051  1
  O2-  O195  1  0.04394667  0.58150970  0.26472058  1
  O2-  O196  1  0.04756249  0.58561805  0.60796402  1
  O2-  O197  1  0.04544264  0.58667422  0.93131557  1
  O2-  O198  1  0.53642422  0.08699847  0.26364944  1
  O2-  O199  1  0.54049559  0.08484713  0.60534631  1
  O2-  O200  1  0.54048681  0.08599293  0.93484505  1
  O2-  O201  1  0.54158632  0.57856620  0.26366533  1
  O2-  O202  1  0.54410265  0.58934618  0.60738139  1
  O2-  O203  1  0.53740129  0.58865708  0.93428743  1
  O2-  O204  1  0.17013152  0.19655570  0.27374859  1
  O2-  O205  1  0.16365815  0.20053007  0.60310267  1
  O2-  O206  1  0.16645817  0.21224361  0.93140606  1
  O2-  O207  1  0.16791668  0.70980797  0.26616067  1
  O2-  O208  1  0.16266878  0.71040792  0.60608521  1
  O2-  O209  1  0.16457281  0.70774015  0.93150190  1
  O2-  O210  1  0.66676913  0.20822987  0.26397047  1
  O2-  O211  1  0.66996366  0.19486996  0.61014168  1
  O2-  O212  1  0.66402765  0.20076622  0.93493133  1
  O2-  O213  1  0.66976129  0.70450602  0.26503398  1
  O2-  O214  1  0.66332111  0.70918043  0.60745119  1
  O2-  O215  1  0.66298965  0.70447389  0.93565878  1
  O2-  O216  1  0.08619730  0.45387738  0.05583048  1
  O2-  O217  1  0.08074707  0.45721982  0.39888937  1
  O2-  O218  1  0.08124810  0.45705530  0.73931173  1
  O2-  O219  1  0.08023914  0.95337846  0.06483646  1
  O2-  O220  1  0.08326541  0.96324256  0.40487826  1
  O2-  O221  1  0.08512806  0.95760186  0.72810722  1
  O2-  O222  1  0.57978580  0.46098097  0.06801749  1
  O2-  O223  1  0.57888495  0.44991686  0.39723071  1
  O2-  O224  1  0.58488284  0.46056310  0.73428352  1
  O2-  O225  1  0.57775757  0.95299831  0.06606689  1
  O2-  O226  1  0.58265655  0.96469416  0.39994057  1
  O2-  O227  1  0.58188623  0.95901577  0.73535739  1
  O2-  O228  1  0.21011570  0.33973199  0.06060357  1
  O2-  O229  1  0.20168203  0.32732119  0.39896829  1
  O2-  O230  1  0.20639366  0.32661473  0.73326346  1
  O2-  O231  1  0.20854895  0.82907568  0.06576257  1
  O2-  O232  1  0.20993184  0.83529197  0.40347589  1
  O2-  O233  1  0.20463138  0.83871127  0.72987463  1
  O2-  O234  1  0.69653577  0.32676640  0.06122727  1
  O2-  O235  1  0.71270463  0.32901952  0.40031746  1
  O2-  O236  1  0.70908859  0.33054101  0.73391957  1
  O2-  O237  1  0.70629118  0.82961797  0.06547507  1
  O2-  O238  1  0.70747388  0.83333226  0.40056962  1
  O2-  O239  1  0.71075411  0.83436876  0.73680466  1
  O2-  O240  1  0.44637768  0.41684303  0.27148324  1
  O2-  O241  1  0.45796358  0.42059331  0.60144563  1
  O2-  O242  1  0.45734236  0.41408432  0.93656840  1
  O2-  O243  1  0.45435743  0.92077177  0.26575705  1
  O2-  O244  1  0.45339404  0.91503964  0.60731464  1
  O2-  O245  1  0.45295960  0.91463545  0.93679021  1
  O2-  O246  1  0.96069120  0.41580708  0.26343872  1
  O2-  O247  1  0.95643888  0.41404565  0.60726346  1
  O2-  O248  1  0.95496103  0.41585481  0.93194785  1
  O2-  O249  1  0.95759018  0.92218197  0.26701932  1
  O2-  O250  1  0.95671758  0.91134616  0.60450238  1
  O2-  O251  1  0.95693310  0.91063257  0.93369373  1
  O2-  O252  1  0.33375560  0.29200902  0.27006076  1
  O2-  O253  1  0.33536924  0.28798346  0.59767923  1
  O2-  O254  1  0.33894671  0.29275114  0.93581691  1
  O2-  O255  1  0.33054062  0.79370076  0.26533942  1
  O2-  O256  1  0.33484266  0.79521075  0.60836487  1
  O2-  O257  1  0.33746491  0.79024442  0.93285969  1
  O2-  O258  1  0.83746340  0.28678773  0.26305003  1
  O2-  O259  1  0.83834536  0.29134740  0.60495451  1
  O2-  O260  1  0.83259715  0.29789519  0.93562183  1
  O2-  O261  1  0.82876772  0.79831933  0.26502927  1
  O2-  O262  1  0.83558379  0.79329572  0.60763792  1
  O2-  O263  1  0.83743500  0.78927724  0.93410546  1
  O2-  O264  1  0.41879680  0.04843923  0.06676551  1
  O2-  O265  1  0.41624471  0.04553253  0.40019830  1
  O2-  O266  1  0.41038893  0.04255296  0.73082545  1
  O2-  O267  1  0.41093269  0.54213908  0.06172685  1
  O2-  O268  1  0.41933893  0.54487337  0.40087938  1
  O2-  O269  1  0.41984843  0.54583526  0.73757344  1
  O2-  O270  1  0.91905596  0.04150295  0.06788817  1
  O2-  O271  1  0.91659881  0.05100398  0.39734215  1
  O2-  O272  1  0.91668298  0.04062017  0.73093582  1
  O2-  O273  1  0.92391587  0.54601922  0.06434540  1
  O2-  O274  1  0.91842211  0.54092941  0.40112115  1
  O2-  O275  1  0.91695139  0.54930865  0.72880333  1
  O2-  O276  1  0.29147320  0.17211390  0.06895911  1
  O2-  O277  1  0.29789173  0.16510153  0.40142595  1
  O2-  O278  1  0.29260241  0.16240959  0.72755211  1
  O2-  O279  1  0.29422687  0.66382677  0.06012162  1
  O2-  O280  1  0.29243891  0.66950792  0.40042863  1
  O2-  O281  1  0.28910411  0.66949241  0.73919256  1
  O2-  O282  1  0.79998954  0.17153565  0.06419947  1
  O2-  O283  1  0.79295626  0.16463163  0.39723390  1
  O2-  O284  1  0.80361707  0.16504453  0.73145745  1
  O2-  O285  1  0.79440048  0.66707849  0.06588383  1
  O2-  O286  1  0.79571381  0.67124832  0.40103127  1
  O2-  O287  1  0.79472521  0.66468588  0.73166488  1
