# generated using pymatgen
data_Ca2Al2SiO7
_symmetry_space_group_name_H-M   'P 1'
_cell_length_a   15.45728602
_cell_length_b   15.45902372
_cell_length_c   15.28321714
_cell_angle_alpha   89.98424300
_cell_angle_beta   90.00649215
_cell_angle_gamma   89.99782442
_symmetry_Int_Tables_number   1
_chemical_formula_structural   Ca2Al2SiO7
_chemical_formula_sum   'Ca48 Al48 Si24 O168'
_cell_volume   3651.99412730
_cell_formula_units_Z   24
loop_
 _symmetry_equiv_pos_site_id
 _symmetry_equiv_pos_as_xyz
  1  'x, y, z'
loop_
 _atom_type_symbol
 _atom_type_oxidation_number
  Ca2+  2.0
  Al0+  0.0
  Si0+  0.0
  O2-  -2.0
loop_
 _atom_site_type_symbol
 _atom_site_label
 _atom_site_symmetry_multiplicity
 _atom_site_fract_x
 _atom_site_fract_y
 _atom_site_fract_z
 _atom_site_occupancy
  Ca2+  Ca0  1  0.16382911  0.07486638  0.16926009  1
  Ca2+  Ca1  1  0.16487573  0.07985545  0.50358165  1
  Ca2+  Ca2  1  0.17310170  0.08407816  0.84263336  1
  Ca2+  Ca3  1  0.17329477  0.59021875  0.17203833  1
  Ca2+  Ca4  1  0.16767309  0.58558698  0.50787167  1
  Ca2+  Ca5  1  0.17666916  0.59243383  0.83568020  1
  Ca2+  Ca6  1  0.66794667  0.07536370  0.17685999  1
  Ca2+  Ca7  1  0.66702436  0.07262137  0.50706513  1
  Ca2+  Ca8  1  0.67300563  0.07770913  0.83370931  1
  Ca2+  Ca9  1  0.66632651  0.58603356  0.17203924  1
  Ca2+  Ca10  1  0.68038517  0.59153853  0.50090831  1
  Ca2+  Ca11  1  0.66986327  0.58023595  0.84038777  1
  Ca2+  Ca12  1  0.08487702  0.32101780  0.16438892  1
  Ca2+  Ca13  1  0.08464428  0.32013480  0.49507997  1
  Ca2+  Ca14  1  0.09004196  0.32071682  0.82989519  1
  Ca2+  Ca15  1  0.07446460  0.84054571  0.16368563  1
  Ca2+  Ca16  1  0.07837673  0.82351616  0.49041619  1
  Ca2+  Ca17  1  0.08114740  0.83348784  0.83237400  1
  Ca2+  Ca18  1  0.58124895  0.33201676  0.16479304  1
  Ca2+  Ca19  1  0.57542183  0.32453839  0.48947144  1
  Ca2+  Ca20  1  0.58470317  0.33510125  0.83269794  1
  Ca2+  Ca21  1  0.58276938  0.82354803  0.16061099  1
  Ca2+  Ca22  1  0.58560900  0.83355918  0.49261838  1
  Ca2+  Ca23  1  0.57720164  0.83370687  0.83350435  1
  Ca2+  Ca24  1  0.33714727  0.42126095  0.16796598  1
  Ca2+  Ca25  1  0.33525918  0.42123692  0.50315036  1
  Ca2+  Ca26  1  0.33361773  0.42992124  0.83787864  1
  Ca2+  Ca27  1  0.32179490  0.91266217  0.16800571  1
  Ca2+  Ca28  1  0.32585844  0.92248121  0.50443532  1
  Ca2+  Ca29  1  0.32671233  0.92541269  0.84443584  1
  Ca2+  Ca30  1  0.82719892  0.42411368  0.17165733  1
  Ca2+  Ca31  1  0.83837917  0.42994261  0.50293436  1
  Ca2+  Ca32  1  0.83001086  0.42345915  0.83813308  1
  Ca2+  Ca33  1  0.83090332  0.90882154  0.17460885  1
  Ca2+  Ca34  1  0.82328637  0.91447824  0.50117061  1
  Ca2+  Ca35  1  0.83312127  0.91657042  0.83319185  1
  Ca2+  Ca36  1  0.41842553  0.16787627  0.16555504  1
  Ca2+  Ca37  1  0.41872334  0.17030526  0.49191313  1
  Ca2+  Ca38  1  0.41194999  0.16273595  0.82832495  1
  Ca2+  Ca39  1  0.42602505  0.67108351  0.15674119  1
  Ca2+  Ca40  1  0.42418803  0.66657721  0.49403095  1
  Ca2+  Ca41  1  0.41562526  0.66766787  0.83311305  1
  Ca2+  Ca42  1  0.93081342  0.15797318  0.16253900  1
  Ca2+  Ca43  1  0.92447577  0.15795764  0.49845230  1
  Ca2+  Ca44  1  0.92811091  0.16329951  0.82641109  1
  Ca2+  Ca45  1  0.91622909  0.67753197  0.16671102  1
  Ca2+  Ca46  1  0.92266062  0.66645264  0.49047742  1
  Ca2+  Ca47  1  0.91960774  0.67260856  0.82641197  1
  Al0+  Al48  1  0.00074351  0.00043211  -0.00783161  1
  Al0+  Al49  1  0.00006037  -0.00178187  0.33226860  1
  Al0+  Al50  1  -0.00240777  -0.00195053  0.66398185  1
  Al0+  Al51  1  -0.00047787  0.49962970  0.00102578  1
  Al0+  Al52  1  0.00253584  0.49876495  0.33287821  1
  Al0+  Al53  1  0.00038659  0.49821565  0.66979956  1
  Al0+  Al54  1  0.50166420  0.00060971  0.00010818  1
  Al0+  Al55  1  0.49857461  0.00113165  0.33365115  1
  Al0+  Al56  1  0.49804339  -0.00088369  0.67327447  1
  Al0+  Al57  1  0.50131358  0.49825602  0.00358484  1
  Al0+  Al58  1  0.50029548  0.49939025  0.32779625  1
  Al0+  Al59  1  0.49911597  0.50069130  0.66847542  1
  Al0+  Al60  1  0.25266416  0.25145857  -0.00050508  1
  Al0+  Al61  1  0.24981445  0.25219694  0.32539146  1
  Al0+  Al62  1  0.24991125  0.25083677  0.66427230  1
  Al0+  Al63  1  0.25034369  0.75196212  0.00572523  1
  Al0+  Al64  1  0.25059776  0.75004634  0.33803710  1
  Al0+  Al65  1  0.25076149  0.75088338  0.66570349  1
  Al0+  Al66  1  0.75026461  0.25126927  0.00448854  1
  Al0+  Al67  1  0.75013149  0.25071387  0.33184576  1
  Al0+  Al68  1  0.74952225  0.24917127  0.66771900  1
  Al0+  Al69  1  0.75134522  0.74983183  -0.00978840  1
  Al0+  Al70  1  0.75039649  0.74980372  0.33477335  1
  Al0+  Al71  1  0.74788600  0.74852421  0.67598366  1
  Al0+  Al72  1  0.67710338  0.92758347  0.68471947  1
  Al0+  Al73  1  0.17757166  0.92866982  0.34957822  1
  Al0+  Al74  1  0.93001076  0.81870385  0.32029870  1
  Al0+  Al75  1  0.06873140  0.17847157  0.31930446  1
  Al0+  Al76  1  0.57254345  0.17672069  0.31890857  1
  Al0+  Al77  1  0.82312473  0.56987654  0.68174839  1
  Al0+  Al78  1  0.07092718  0.18168214  0.98496296  1
  Al0+  Al79  1  0.92971733  0.82079603  0.98336095  1
  Al0+  Al80  1  0.67781258  0.92967712  0.34439787  1
  Al0+  Al81  1  0.31953223  0.57125180  0.01525671  1
  Al0+  Al82  1  0.56998126  0.67705125  0.98237557  1
  Al0+  Al83  1  0.17745795  0.93099779  0.01523178  1
  Al0+  Al84  1  0.82172848  0.07147966  0.68175732  1
  Al0+  Al85  1  0.32397569  0.07350103  0.01748862  1
  Al0+  Al86  1  0.32111684  0.57175758  0.67912589  1
  Al0+  Al87  1  0.42924415  0.32118768  0.31638030  1
  Al0+  Al88  1  0.07393976  0.67630347  0.31837165  1
  Al0+  Al89  1  0.07119112  0.67955850  0.65428902  1
  Al0+  Al90  1  0.68035425  0.42911342  0.01539143  1
  Al0+  Al91  1  0.07097940  0.17848721  0.65172756  1
  Al0+  Al92  1  0.82048906  0.56941168  0.34535576  1
  Al0+  Al93  1  0.31793432  0.07193552  0.67813801  1
  Al0+  Al94  1  0.57102966  0.68166228  0.32218126  1
  Al0+  Al95  1  0.42776375  0.82211888  0.98494272  1
  Si0+  Si96  1  0.18011161  0.42806181  0.34861832  1
  Si0+  Si97  1  0.68092780  0.92839685  0.01500856  1
  Si0+  Si98  1  0.31946703  0.07387803  0.34933232  1
  Si0+  Si99  1  0.43035059  0.32222163  0.65298178  1
  Si0+  Si100  1  0.32267002  0.57023779  0.34883043  1
  Si0+  Si101  1  0.57366512  0.17886739  0.98353811  1
  Si0+  Si102  1  0.42630377  0.82355562  0.31887521  1
  Si0+  Si103  1  0.07272889  0.67609400  0.98452571  1
  Si0+  Si104  1  0.92467530  0.81991996  0.64821014  1
  Si0+  Si105  1  0.17874499  0.42745964  0.68276418  1
  Si0+  Si106  1  0.92783206  0.32431903  0.31676862  1
  Si0+  Si107  1  0.82259442  0.07340097  0.34800978  1
  Si0+  Si108  1  0.17741964  0.92779420  0.68192085  1
  Si0+  Si109  1  0.67741956  0.42818463  0.68113637  1
  Si0+  Si110  1  0.57049766  0.17758997  0.65383377  1
  Si0+  Si111  1  0.56983419  0.67784660  0.65169439  1
  Si0+  Si112  1  0.43101370  0.32037122  0.98208117  1
  Si0+  Si113  1  0.92572697  0.32160376  0.65023421  1
  Si0+  Si114  1  0.42957795  0.82229863  0.65105108  1
  Si0+  Si115  1  0.17752107  0.42760786  0.01709763  1
  Si0+  Si116  1  0.67633970  0.42701151  0.35138510  1
  Si0+  Si117  1  0.82078155  0.07068925  0.01445640  1
  Si0+  Si118  1  0.92634383  0.32295980  0.98354848  1
  Si0+  Si119  1  0.82265574  0.57404053  0.01746192  1
  O2-  O120  1  0.25154308  0.00129663  0.06583770  1
  O2-  O121  1  0.25180904  0.00498150  0.39498678  1
  O2-  O122  1  0.24038052  0.00160785  0.72589286  1
  O2-  O123  1  0.24100126  0.50050331  0.06232578  1
  O2-  O124  1  0.24904567  0.50150559  0.39090555  1
  O2-  O125  1  0.24291939  0.50081658  0.72611034  1
  O2-  O126  1  0.75177753  -0.00115493  0.05810505  1
  O2-  O127  1  0.74837359  0.00937142  0.39023503  1
  O2-  O128  1  0.75142954  -0.00148220  0.73312976  1
  O2-  O129  1  0.75322437  0.50585758  0.06102639  1
  O2-  O130  1  0.74652618  0.49425424  0.39510490  1
  O2-  O131  1  0.74791142  0.49441039  0.72607103  1
  O2-  O132  1  -0.00965091  0.24984759  0.27293168  1
  O2-  O133  1  -0.00716973  0.25101479  0.60604286  1
  O2-  O134  1  -0.00251687  0.25784782  0.93797654  1
  O2-  O135  1  0.00410990  0.74975169  0.26841779  1
  O2-  O136  1  -0.00626595  0.75048844  0.60594943  1
  O2-  O137  1  0.00371536  0.74380685  0.93939809  1
  O2-  O138  1  0.50218435  0.24944531  0.26728639  1
  O2-  O139  1  0.49971386  0.24918802  0.61189348  1
  O2-  O140  1  0.49958030  0.24660391  0.94000213  1
  O2-  O141  1  0.49671559  0.75633807  0.27564352  1
  O2-  O142  1  0.50146474  0.75146432  0.60919765  1
  O2-  O143  1  0.49701090  0.74826706  0.93220734  1
  O2-  O144  1  0.06841986  0.18159003  0.09807457  1
  O2-  O145  1  0.06942747  0.18029626  0.43265044  1
  O2-  O146  1  0.07325110  0.18240063  0.76461391  1
  O2-  O147  1  0.07041454  0.67409709  0.08973358  1
  O2-  O148  1  0.07188839  0.67578865  0.43244011  1
  O2-  O149  1  0.07254428  0.68312756  0.76746778  1
  O2-  O150  1  0.57575768  0.18055625  0.08824408  1
  O2-  O151  1  0.56956760  0.17749439  0.43334363  1
  O2-  O152  1  0.57063368  0.17967790  0.75908024  1
  O2-  O153  1  0.57100815  0.67983655  0.09620255  1
  O2-  O154  1  0.56992242  0.68187859  0.43605733  1
  O2-  O155  1  0.56679042  0.67421331  0.75620450  1
  O2-  O156  1  0.18069580  0.42692942  0.24378202  1
  O2-  O157  1  0.18153300  0.42502578  0.57697897  1
  O2-  O158  1  0.18083453  0.42587804  0.91130369  1
  O2-  O159  1  0.17719403  0.93018939  0.23699634  1
  O2-  O160  1  0.18133427  0.92721443  0.57617387  1
  O2-  O161  1  0.17667673  0.93321469  0.90110455  1
  O2-  O162  1  0.67718251  0.42792261  0.24590187  1
  O2-  O163  1  0.67538937  0.42911107  0.57578013  1
  O2-  O164  1  0.68312382  0.42766232  0.90164622  1
  O2-  O165  1  0.68051460  0.92850590  0.23110402  1
  O2-  O166  1  0.67572427  0.92890280  0.57076033  1
  O2-  O167  1  0.68099362  0.93143178  0.91000646  1
  O2-  O168  1  0.43211676  0.32129189  0.08676092  1
  O2-  O169  1  0.42947479  0.32115892  0.43097781  1
  O2-  O170  1  0.43194810  0.32422406  0.75798424  1
  O2-  O171  1  0.43103045  0.82054726  0.09873967  1
  O2-  O172  1  0.42621278  0.82159014  0.42519198  1
  O2-  O173  1  0.42882477  0.82211523  0.75566885  1
  O2-  O174  1  0.92592986  0.32129690  0.08903540  1
  O2-  O175  1  0.93177236  0.32726624  0.42248498  1
  O2-  O176  1  0.92572214  0.32177190  0.75579472  1
  O2-  O177  1  0.92666749  0.82068001  0.09608567  1
  O2-  O178  1  0.92840815  0.81691415  0.43387569  1
  O2-  O179  1  0.92680723  0.81962844  0.75400711  1
  O2-  O180  1  0.31907261  0.07349845  0.24426522  1
  O2-  O181  1  0.31989844  0.07113090  0.56499044  1
  O2-  O182  1  0.32030151  0.07389334  0.90327958  1
  O2-  O183  1  0.32298246  0.56913810  0.24402053  1
  O2-  O184  1  0.32468328  0.56773036  0.56598363  1
  O2-  O185  1  0.31881009  0.56883328  0.90165733  1
  O2-  O186  1  0.82367553  0.07184496  0.24210653  1
  O2-  O187  1  0.81847410  0.07268168  0.56814521  1
  O2-  O188  1  0.81794350  0.07207749  0.90945762  1
  O2-  O189  1  0.81809088  0.56845952  0.23249492  1
  O2-  O190  1  0.82221075  0.57018770  0.56842075  1
  O2-  O191  1  0.82342493  0.57099201  0.91160955  1
  O2-  O192  1  0.03851230  0.08245540  0.26507104  1
  O2-  O193  1  0.04176958  0.08063817  0.59881041  1
  O2-  O194  1  0.03847589  0.08745215  0.92866867  1
  O2-  O195  1  0.04821572  0.57728673  0.26613535  1
  O2-  O196  1  0.04580009  0.57911915  0.60454654  1
  O2-  O197  1  0.04989177  0.58121000  0.93831891  1
  O2-  O198  1  0.54323612  0.07911846  0.26472606  1
  O2-  O199  1  0.54065976  0.08572961  0.60789158  1
  O2-  O200  1  0.54993001  0.08624870  0.93619260  1
  O2-  O201  1  0.54170304  0.58538159  0.26793968  1
  O2-  O202  1  0.53937413  0.58713458  0.60296576  1
  O2-  O203  1  0.54224583  0.57701108  0.93224863  1
  O2-  O204  1  0.16264187  0.21368627  0.26425354  1
  O2-  O205  1  0.16626745  0.21366903  0.59662014  1
  O2-  O206  1  0.16821863  0.21430788  0.93256851  1
  O2-  O207  1  0.17452246  0.70258489  0.27018190  1
  O2-  O208  1  0.16807680  0.71013875  0.59936891  1
  O2-  O209  1  0.16669831  0.70337928  0.94073022  1
  O2-  O210  1  0.67225974  0.20218367  0.26649501  1
  O2-  O211  1  0.66211117  0.20428508  0.60571776  1
  O2-  O212  1  0.66444974  0.21172702  0.93617176  1
  O2-  O213  1  0.66627069  0.71194690  0.26706600  1
  O2-  O214  1  0.66369150  0.70448111  0.60792654  1
  O2-  O215  1  0.66787913  0.70513394  0.92870834  1
  O2-  O216  1  0.08120296  0.44561683  0.06086609  1
  O2-  O217  1  0.08819163  0.45231264  0.39759303  1
  O2-  O218  1  0.08409517  0.44534822  0.72896654  1
  O2-  O219  1  0.07888593  0.96393746  0.06608697  1
  O2-  O220  1  0.08101114  0.95962273  0.40362804  1
  O2-  O221  1  0.08095607  0.94607616  0.72343984  1
  O2-  O222  1  0.58371473  0.45626811  0.06984385  1
  O2-  O223  1  0.58224602  0.45344420  0.39599370  1
  O2-  O224  1  0.58538197  0.45657912  0.72958272  1
  O2-  O225  1  0.58944124  0.95603061  0.06198001  1
  O2-  O226  1  0.58001761  0.95654068  0.39958576  1
  O2-  O227  1  0.58069148  0.95986183  0.73929211  1
  O2-  O228  1  0.20953789  0.33679219  0.06467571  1
  O2-  O229  1  0.21142537  0.33715485  0.39682579  1
  O2-  O230  1  0.21151607  0.33694953  0.73094041  1
  O2-  O231  1  0.20211377  0.83237955  0.06936622  1
  O2-  O232  1  0.20994033  0.83265204  0.40512907  1
  O2-  O233  1  0.20905017  0.83692272  0.72940628  1
  O2-  O234  1  0.71247119  0.33368457  0.07204147  1
  O2-  O235  1  0.69945152  0.33211474  0.39673412  1
  O2-  O236  1  0.69951915  0.33384434  0.72748371  1
  O2-  O237  1  0.70961184  0.83497581  0.05810527  1
  O2-  O238  1  0.71242087  0.83565419  0.40125282  1
  O2-  O239  1  0.70182715  0.82953759  0.73924970  1
  O2-  O240  1  0.45841058  0.41832712  0.26157376  1
  O2-  O241  1  0.46024940  0.41285827  0.60357089  1
  O2-  O242  1  0.46284599  0.41076284  0.93423219  1
  O2-  O243  1  0.44710955  0.91790646  0.27414670  1
  O2-  O244  1  0.45779305  0.91437636  0.60379018  1
  O2-  O245  1  0.45952396  0.92034108  0.93186048  1
  O2-  O246  1  0.95987437  0.41387008  0.26688863  1
  O2-  O247  1  0.95433255  0.41454922  0.60416723  1
  O2-  O248  1  0.94832440  0.41818278  0.93833138  1
  O2-  O249  1  0.95517743  0.91748854  0.26677838  1
  O2-  O250  1  0.94761800  0.91403603  0.60262679  1
  O2-  O251  1  0.96095707  0.91594930  0.92662309  1
  O2-  O252  1  0.33191414  0.29513070  0.26097537  1
  O2-  O253  1  0.33858801  0.29650134  0.60456112  1
  O2-  O254  1  0.33850385  0.29664855  0.93403683  1
  O2-  O255  1  0.33394025  0.79475023  0.27330392  1
  O2-  O256  1  0.33867184  0.79364365  0.60224015  1
  O2-  O257  1  0.32759499  0.79609532  0.93412105  1
  O2-  O258  1  0.83153625  0.30669237  0.27371019  1
  O2-  O259  1  0.83120489  0.29971521  0.60368874  1
  O2-  O260  1  0.83347725  0.29439030  0.93728193  1
  O2-  O261  1  0.83329391  0.78682453  0.26610221  1
  O2-  O262  1  0.82909538  0.79347961  0.60698374  1
  O2-  O263  1  0.83495041  0.79072377  0.92541327  1
  O2-  O264  1  0.42459869  0.04840447  0.06723351  1
  O2-  O265  1  0.41354972  0.04949891  0.39565206  1
  O2-  O266  1  0.41290751  0.04105632  0.73440201  1
  O2-  O267  1  0.41466438  0.53517745  0.06813097  1
  O2-  O268  1  0.41378126  0.53832233  0.39615125  1
  O2-  O269  1  0.41537223  0.53658371  0.73533558  1
  O2-  O270  1  0.91373683  0.04305427  0.05824123  1
  O2-  O271  1  0.91359467  0.04249112  0.39593841  1
  O2-  O272  1  0.92072687  0.04301486  0.73423972  1
  O2-  O273  1  0.91626696  0.54812965  0.06335443  1
  O2-  O274  1  0.91771069  0.53715971  0.39893153  1
  O2-  O275  1  0.91861884  0.53859221  0.73795254  1
  O2-  O276  1  0.29747961  0.17360620  0.06734136  1
  O2-  O277  1  0.29303063  0.16863901  0.39314056  1
  O2-  O278  1  0.29215723  0.17040363  0.73147015  1
  O2-  O279  1  0.29373561  0.66791912  0.07047207  1
  O2-  O280  1  0.29929257  0.66239342  0.39776414  1
  O2-  O281  1  0.29257176  0.66901037  0.73272056  1
  O2-  O282  1  0.79333193  0.16169580  0.06315339  1
  O2-  O283  1  0.80452273  0.16959601  0.39240849  1
  O2-  O284  1  0.79319887  0.17012383  0.73532424  1
  O2-  O285  1  0.79566525  0.66853602  0.05994516  1
  O2-  O286  1  0.78782541  0.66408096  0.40185775  1
  O2-  O287  1  0.79133500  0.66425168  0.73793305  1
