# generated using pymatgen
data_Ca2Al2SiO7
_symmetry_space_group_name_H-M   'P 1'
_cell_length_a   15.46909558
_cell_length_b   15.46811598
_cell_length_c   15.28999332
_cell_angle_alpha   90.00180282
_cell_angle_beta   89.99609133
_cell_angle_gamma   90.03177470
_symmetry_Int_Tables_number   1
_chemical_formula_structural   Ca2Al2SiO7
_chemical_formula_sum   'Ca48 Al48 Si24 O168'
_cell_volume   3658.55484968
_cell_formula_units_Z   24
loop_
 _symmetry_equiv_pos_site_id
 _symmetry_equiv_pos_as_xyz
  1  'x, y, z'
loop_
 _atom_type_symbol
 _atom_type_oxidation_number
  Ca2+  2.0
  Al0+  0.0
  Si0+  0.0
  O2-  -2.0
loop_
 _atom_site_type_symbol
 _atom_site_label
 _atom_site_symmetry_multiplicity
 _atom_site_fract_x
 _atom_site_fract_y
 _atom_site_fract_z
 _atom_site_occupancy
  Ca2+  Ca0  1  0.17764952  0.08878202  0.17258212  1
  Ca2+  Ca1  1  0.17291689  0.08112045  0.50280365  1
  Ca2+  Ca2  1  0.17697377  0.07418594  0.83517981  1
  Ca2+  Ca3  1  0.16463634  0.57850807  0.16561640  1
  Ca2+  Ca4  1  0.15977556  0.57437483  0.50093052  1
  Ca2+  Ca5  1  0.17157167  0.58075861  0.84856960  1
  Ca2+  Ca6  1  0.67667539  0.07523888  0.16580298  1
  Ca2+  Ca7  1  0.68079988  0.07823149  0.50627379  1
  Ca2+  Ca8  1  0.67349941  0.07344289  0.83775672  1
  Ca2+  Ca9  1  0.65860608  0.57838493  0.17029482  1
  Ca2+  Ca10  1  0.66112467  0.57566200  0.49923308  1
  Ca2+  Ca11  1  0.66573055  0.57438803  0.84384330  1
  Ca2+  Ca12  1  0.08380655  0.33308504  0.16502212  1
  Ca2+  Ca13  1  0.07453202  0.32444324  0.48475864  1
  Ca2+  Ca14  1  0.08283403  0.33291130  0.83138068  1
  Ca2+  Ca15  1  0.07386557  0.83118334  0.16080679  1
  Ca2+  Ca16  1  0.07786260  0.83924476  0.49470540  1
  Ca2+  Ca17  1  0.08749615  0.82908385  0.83101494  1
  Ca2+  Ca18  1  0.58837708  0.33392586  0.16256287  1
  Ca2+  Ca19  1  0.58574024  0.33397592  0.49429212  1
  Ca2+  Ca20  1  0.58671617  0.33574059  0.83000659  1
  Ca2+  Ca21  1  0.58085763  0.82308655  0.15517385  1
  Ca2+  Ca22  1  0.58109601  0.83496716  0.49612918  1
  Ca2+  Ca23  1  0.57670092  0.84143602  0.83262363  1
  Ca2+  Ca24  1  0.32186980  0.42239461  0.16683301  1
  Ca2+  Ca25  1  0.32635036  0.41718035  0.49871104  1
  Ca2+  Ca26  1  0.32689633  0.42698414  0.84471407  1
  Ca2+  Ca27  1  0.33999926  0.92511734  0.16755156  1
  Ca2+  Ca28  1  0.33086558  0.92673385  0.51020712  1
  Ca2+  Ca29  1  0.34038197  0.92089704  0.83769487  1
  Ca2+  Ca30  1  0.82522145  0.42271602  0.16912798  1
  Ca2+  Ca31  1  0.82277541  0.40972761  0.50059075  1
  Ca2+  Ca32  1  0.82163981  0.42137668  0.84157557  1
  Ca2+  Ca33  1  0.83577170  0.92196411  0.17183773  1
  Ca2+  Ca34  1  0.83465203  0.92528312  0.50622019  1
  Ca2+  Ca35  1  0.82346229  0.92520984  0.83958814  1
  Ca2+  Ca36  1  0.41412569  0.16538556  0.16024122  1
  Ca2+  Ca37  1  0.41493754  0.16353227  0.49560528  1
  Ca2+  Ca38  1  0.41431321  0.16418314  0.83022150  1
  Ca2+  Ca39  1  0.42517384  0.66879053  0.15535468  1
  Ca2+  Ca40  1  0.42401796  0.67551849  0.49528455  1
  Ca2+  Ca41  1  0.41936374  0.67638637  0.83315049  1
  Ca2+  Ca42  1  0.91407062  0.16918378  0.16610000  1
  Ca2+  Ca43  1  0.91967993  0.16616527  0.48588071  1
  Ca2+  Ca44  1  0.91144093  0.16313415  0.83056670  1
  Ca2+  Ca45  1  0.91793716  0.66807996  0.15967086  1
  Ca2+  Ca46  1  0.91638173  0.67726420  0.49257869  1
  Ca2+  Ca47  1  0.92220574  0.65757636  0.83633904  1
  Al0+  Al48  1  0.00182829  0.00236742  0.00003261  1
  Al0+  Al49  1  0.00281706  0.00043689  0.32676565  1
  Al0+  Al50  1  0.00396178  -0.00034390  0.67389823  1
  Al0+  Al51  1  -0.00398500  0.49754036  0.00144154  1
  Al0+  Al52  1  -0.00190400  0.50004638  0.33574760  1
  Al0+  Al53  1  -0.00142825  0.49749496  0.66325546  1
  Al0+  Al54  1  0.50249111  0.00203090  0.00431124  1
  Al0+  Al55  1  0.50099505  0.00181863  0.33702901  1
  Al0+  Al56  1  0.50167035  0.00212081  0.66568644  1
  Al0+  Al57  1  0.49644998  0.49909262  0.00238855  1
  Al0+  Al58  1  0.49904740  0.49967576  0.33504558  1
  Al0+  Al59  1  0.49812604  0.49933204  0.66777491  1
  Al0+  Al60  1  0.24902948  0.24885994  0.00299949  1
  Al0+  Al61  1  0.25025296  0.25169236  0.33833824  1
  Al0+  Al62  1  0.24938268  0.25041775  0.66769767  1
  Al0+  Al63  1  0.24931425  0.75109835  -0.00292062  1
  Al0+  Al64  1  0.25153947  0.75083822  0.33343316  1
  Al0+  Al65  1  0.25132685  0.74820818  0.66102068  1
  Al0+  Al66  1  0.75016148  0.24973592  0.00457778  1
  Al0+  Al67  1  0.74936327  0.24948612  0.33584019  1
  Al0+  Al68  1  0.74908258  0.25197154  0.67243728  1
  Al0+  Al69  1  0.75024140  0.74914489  -0.00107087  1
  Al0+  Al70  1  0.74888676  0.74868263  0.32571728  1
  Al0+  Al71  1  0.75254079  0.74767250  0.66910883  1
  Al0+  Al72  1  0.07272052  0.17993488  0.31664315  1
  Al0+  Al73  1  0.82051980  0.57164136  0.01445661  1
  Al0+  Al74  1  0.67930287  0.92614262  0.67984313  1
  Al0+  Al75  1  0.92579487  0.32146972  0.31644153  1
  Al0+  Al76  1  0.31960214  0.57440570  0.01470510  1
  Al0+  Al77  1  0.82316184  0.07173618  0.68033038  1
  Al0+  Al78  1  0.32137962  0.07193288  0.68211651  1
  Al0+  Al79  1  0.32050321  0.06908771  0.01360818  1
  Al0+  Al80  1  0.67895616  0.43009146  0.34817517  1
  Al0+  Al81  1  0.67892996  0.92801891  0.01572388  1
  Al0+  Al82  1  0.17676729  0.42815822  0.01374943  1
  Al0+  Al83  1  0.43095478  0.82342624  0.98541118  1
  Al0+  Al84  1  0.82192864  0.06836872  0.34576362  1
  Al0+  Al85  1  0.67663806  0.43018962  0.01588907  1
  Al0+  Al86  1  0.93029879  0.82114170  0.32061454  1
  Al0+  Al87  1  0.32211551  0.07093542  0.34783392  1
  Al0+  Al88  1  0.18016550  0.92561333  0.68132994  1
  Al0+  Al89  1  0.67793661  0.43135387  0.67993617  1
  Al0+  Al90  1  0.06762754  0.67901349  0.98755377  1
  Al0+  Al91  1  0.43112967  0.82251116  0.65095189  1
  Al0+  Al92  1  0.82309363  0.07047611  0.01697677  1
  Al0+  Al93  1  0.56834851  0.67905099  0.32007313  1
  Al0+  Al94  1  0.57242840  0.67596303  0.98304464  1
  Al0+  Al95  1  0.17753582  0.43144483  0.34845688  1
  Si0+  Si96  1  0.57199695  0.18160866  0.65133592  1
  Si0+  Si97  1  0.07385343  0.17917827  0.98168681  1
  Si0+  Si98  1  0.92817242  0.31812994  0.98311923  1
  Si0+  Si99  1  0.07147240  0.67604255  0.65094402  1
  Si0+  Si100  1  0.57155697  0.18160582  0.98497461  1
  Si0+  Si101  1  0.32221205  0.57286652  0.35171334  1
  Si0+  Si102  1  0.07353690  0.67674441  0.31813346  1
  Si0+  Si103  1  0.92793546  0.82563075  0.98067627  1
  Si0+  Si104  1  0.57083007  0.17883069  0.31854073  1
  Si0+  Si105  1  0.17753191  0.42985231  0.68071036  1
  Si0+  Si106  1  0.82133051  0.57424461  0.35112447  1
  Si0+  Si107  1  0.82470826  0.57123409  0.68241363  1
  Si0+  Si108  1  0.42754396  0.32194719  0.65090519  1
  Si0+  Si109  1  0.42625726  0.31932691  0.98517278  1
  Si0+  Si110  1  0.67950297  0.92594986  0.34918900  1
  Si0+  Si111  1  0.31962426  0.57009135  0.68008010  1
  Si0+  Si112  1  0.42896026  0.32063251  0.31850211  1
  Si0+  Si113  1  0.57272571  0.67539560  0.65012855  1
  Si0+  Si114  1  0.42840930  0.82484553  0.31737688  1
  Si0+  Si115  1  0.92826776  0.31948101  0.65164138  1
  Si0+  Si116  1  0.17921169  0.92681846  0.34791889  1
  Si0+  Si117  1  0.07157790  0.17920560  0.65238016  1
  Si0+  Si118  1  0.17756741  0.92706553  0.01764214  1
  Si0+  Si119  1  0.93104109  0.82098460  0.65395902  1
  O2-  O120  1  0.24794193  -0.00628398  0.06173773  1
  O2-  O121  1  0.24941668  -0.00623530  0.39243880  1
  O2-  O122  1  0.25564945  -0.00597139  0.73129514  1
  O2-  O123  1  0.24537894  0.50358113  0.06278532  1
  O2-  O124  1  0.24898867  0.50895552  0.39690052  1
  O2-  O125  1  0.24573773  0.50232432  0.72299151  1
  O2-  O126  1  0.75744669  -0.00733917  0.06606962  1
  O2-  O127  1  0.75066366  -0.00843617  0.39400150  1
  O2-  O128  1  0.75192070  -0.00155729  0.72818084  1
  O2-  O129  1  0.74196894  0.50790328  0.06565657  1
  O2-  O130  1  0.75500819  0.50322937  0.39573667  1
  O2-  O131  1  0.75079482  0.50763345  0.72466630  1
  O2-  O132  1  -0.00013313  0.25131347  0.26650652  1
  O2-  O133  1  -0.00394450  0.24535029  0.60990612  1
  O2-  O134  1  -0.00030685  0.24750944  0.93978505  1
  O2-  O135  1  0.00506161  0.74558480  0.27523969  1
  O2-  O136  1  0.00256521  0.74996649  0.61041572  1
  O2-  O137  1  -0.00550760  0.75377581  0.93702537  1
  O2-  O138  1  0.49858144  0.24870222  0.27619979  1
  O2-  O139  1  0.49869389  0.25101152  0.60867469  1
  O2-  O140  1  0.50021046  0.25220184  0.94172927  1
  O2-  O141  1  0.49504847  0.75485061  0.27399267  1
  O2-  O142  1  0.50994823  0.75004077  0.60595495  1
  O2-  O143  1  0.50313350  0.75159551  0.93407866  1
  O2-  O144  1  0.07764938  0.18082575  0.08613391  1
  O2-  O145  1  0.07162625  0.18020891  0.43123895  1
  O2-  O146  1  0.07418222  0.18358287  0.75740252  1
  O2-  O147  1  0.06588378  0.68043945  0.10060099  1
  O2-  O148  1  0.07216937  0.67761966  0.42444018  1
  O2-  O149  1  0.07002881  0.67111182  0.75557214  1
  O2-  O150  1  0.57045383  0.18273267  0.09031422  1
  O2-  O151  1  0.57034589  0.17961821  0.42399996  1
  O2-  O152  1  0.57283241  0.18441017  0.75640131  1
  O2-  O153  1  0.56660719  0.67521040  0.09670420  1
  O2-  O154  1  0.56664132  0.67915507  0.43393076  1
  O2-  O155  1  0.56798591  0.66943071  0.75463617  1
  O2-  O156  1  0.18034028  0.43148699  0.23611384  1
  O2-  O157  1  0.17757024  0.43050251  0.57571178  1
  O2-  O158  1  0.17986727  0.42795721  0.89909248  1
  O2-  O159  1  0.18044915  0.92474070  0.24270556  1
  O2-  O160  1  0.17762951  0.92956555  0.56753512  1
  O2-  O161  1  0.17668006  0.92932182  0.91200824  1
  O2-  O162  1  0.67654761  0.43131366  0.23612191  1
  O2-  O163  1  0.67861831  0.43034446  0.56675261  1
  O2-  O164  1  0.68020846  0.42727318  0.90191055  1
  O2-  O165  1  0.67837765  0.92839077  0.24418866  1
  O2-  O166  1  0.68245581  0.92768804  0.56568221  1
  O2-  O167  1  0.67760185  0.93471642  0.90210160  1
  O2-  O168  1  0.42348803  0.31622454  0.09022617  1
  O2-  O169  1  0.42995574  0.32103704  0.42431337  1
  O2-  O170  1  0.42591759  0.32336652  0.75579143  1
  O2-  O171  1  0.43233489  0.82423853  0.09921069  1
  O2-  O172  1  0.42951432  0.82450930  0.42327770  1
  O2-  O173  1  0.42910634  0.82016588  0.76331601  1
  O2-  O174  1  0.92738061  0.31725457  0.08761573  1
  O2-  O175  1  0.92663855  0.31791819  0.43117899  1
  O2-  O176  1  0.93137947  0.32299774  0.75665888  1
  O2-  O177  1  0.93264312  0.82794712  0.08630700  1
  O2-  O178  1  0.93176405  0.82096964  0.43474661  1
  O2-  O179  1  0.93168191  0.81945949  0.75842569  1
  O2-  O180  1  0.32308516  0.07047940  0.23490648  1
  O2-  O181  1  0.31721706  0.07453355  0.56853226  1
  O2-  O182  1  0.31865651  0.07137169  0.90078451  1
  O2-  O183  1  0.32250147  0.57091304  0.24680965  1
  O2-  O184  1  0.31954659  0.56715835  0.57482022  1
  O2-  O185  1  0.31831446  0.57093383  0.90020911  1
  O2-  O186  1  0.81879604  0.06835598  0.23342296  1
  O2-  O187  1  0.82368288  0.07145470  0.56640278  1
  O2-  O188  1  0.81977819  0.07161968  0.90319604  1
  O2-  O189  1  0.82094751  0.57483482  0.24624574  1
  O2-  O190  1  0.82905179  0.57054430  0.57694533  1
  O2-  O191  1  0.82450459  0.56297828  0.90055735  1
  O2-  O192  1  0.04952587  0.08149955  0.26295911  1
  O2-  O193  1  0.04962273  0.08467978  0.60806151  1
  O2-  O194  1  0.04838272  0.08648069  0.93433105  1
  O2-  O195  1  0.04828293  0.58306646  0.27364812  1
  O2-  O196  1  0.03956608  0.58552813  0.60115926  1
  O2-  O197  1  0.03606712  0.58152643  0.93288060  1
  O2-  O198  1  0.54334825  0.08683616  0.27135974  1
  O2-  O199  1  0.54754837  0.08999221  0.60231459  1
  O2-  O200  1  0.54239979  0.09059779  0.93776096  1
  O2-  O201  1  0.53463025  0.58264308  0.26786911  1
  O2-  O202  1  0.53863475  0.58440069  0.60128211  1
  O2-  O203  1  0.53918647  0.57721210  0.93160319  1
  O2-  O204  1  0.17155857  0.21255743  0.26668610  1
  O2-  O205  1  0.16153909  0.21199689  0.60351308  1
  O2-  O206  1  0.16374567  0.21137468  0.93224426  1
  O2-  O207  1  0.16846808  0.69991698  0.27374694  1
  O2-  O208  1  0.16355490  0.69804435  0.60164520  1
  O2-  O209  1  0.16440685  0.70796752  0.93192517  1
  O2-  O210  1  0.66112154  0.20874164  0.27083845  1
  O2-  O211  1  0.66313240  0.21325031  0.60361040  1
  O2-  O212  1  0.66291378  0.21070973  0.93713218  1
  O2-  O213  1  0.66500822  0.70430657  0.26484669  1
  O2-  O214  1  0.67014556  0.69329938  0.60789815  1
  O2-  O215  1  0.67406612  0.69602036  0.93274512  1
  O2-  O216  1  0.07801895  0.45228573  0.06491607  1
  O2-  O217  1  0.08054337  0.45966605  0.40472797  1
  O2-  O218  1  0.08436026  0.45500036  0.72638680  1
  O2-  O219  1  0.08500331  0.95562169  0.06333535  1
  O2-  O220  1  0.08650138  0.95530377  0.39395231  1
  O2-  O221  1  0.08519050  0.95650664  0.73909734  1
  O2-  O222  1  0.57546038  0.44859508  0.06582928  1
  O2-  O223  1  0.58221948  0.46151019  0.40322386  1
  O2-  O224  1  0.57975643  0.45740546  0.73289286  1
  O2-  O225  1  0.58535330  0.96497984  0.07211514  1
  O2-  O226  1  0.58747216  0.95614638  0.39648432  1
  O2-  O227  1  0.58223464  0.95841466  0.73135332  1
  O2-  O228  1  0.21031378  0.33249239  0.06748014  1
  O2-  O229  1  0.21283261  0.33733151  0.40499075  1
  O2-  O230  1  0.20680326  0.33895962  0.72790951  1
  O2-  O231  1  0.19863573  0.83269708  0.06223280  1
  O2-  O232  1  0.20054993  0.83233765  0.39565625  1
  O2-  O233  1  0.20228765  0.82367376  0.72893056  1
  O2-  O234  1  0.71090277  0.33384420  0.06847256  1
  O2-  O235  1  0.70850232  0.33317377  0.40294699  1
  O2-  O236  1  0.70947425  0.33659617  0.73593047  1
  O2-  O237  1  0.69777282  0.82617434  0.06311055  1
  O2-  O238  1  0.70148190  0.83068330  0.39276730  1
  O2-  O239  1  0.70506322  0.82713530  0.73220363  1
  O2-  O240  1  0.45755045  0.41190529  0.27182062  1
  O2-  O241  1  0.45526280  0.41330574  0.60180942  1
  O2-  O242  1  0.45012982  0.41200588  0.93785443  1
  O2-  O243  1  0.45526380  0.91880708  0.27300389  1
  O2-  O244  1  0.45887255  0.92070566  0.59709951  1
  O2-  O245  1  0.46211733  0.92260474  0.93344633  1
  O2-  O246  1  0.95219227  0.42218937  0.26843913  1
  O2-  O247  1  0.95821449  0.40971627  0.60153684  1
  O2-  O248  1  0.95606213  0.40911987  0.93399895  1
  O2-  O249  1  0.96311348  0.91469192  0.26300473  1
  O2-  O250  1  0.96086208  0.91317365  0.60741410  1
  O2-  O251  1  0.95772220  0.91840825  0.93406619  1
  O2-  O252  1  0.33708215  0.29361059  0.27238290  1
  O2-  O253  1  0.33541155  0.29391351  0.60272766  1
  O2-  O254  1  0.33607710  0.28805527  0.93548511  1
  O2-  O255  1  0.33334890  0.80252709  0.27304731  1
  O2-  O256  1  0.33542716  0.78827014  0.59499033  1
  O2-  O257  1  0.33112184  0.79786926  0.93338797  1
  O2-  O258  1  0.82754654  0.29141831  0.26500900  1
  O2-  O259  1  0.83438453  0.29529508  0.60669805  1
  O2-  O260  1  0.83658597  0.28808007  0.93524688  1
  O2-  O261  1  0.83450545  0.79184244  0.26543344  1
  O2-  O262  1  0.83952077  0.79303020  0.60485161  1
  O2-  O263  1  0.83299767  0.80406119  0.93685616  1
  O2-  O264  1  0.41746345  0.04337092  0.06825587  1
  O2-  O265  1  0.41929241  0.04305065  0.40340658  1
  O2-  O266  1  0.42253135  0.05110747  0.73054312  1
  O2-  O267  1  0.41469569  0.54064446  0.06906396  1
  O2-  O268  1  0.41196701  0.53958060  0.40097724  1
  O2-  O269  1  0.40917670  0.53851889  0.72849677  1
  O2-  O270  1  0.92466193  0.04997011  0.06600043  1
  O2-  O271  1  0.92093945  0.04005294  0.39638843  1
  O2-  O272  1  0.92124295  0.04628063  0.73398876  1
  O2-  O273  1  0.91468733  0.53544885  0.07044082  1
  O2-  O274  1  0.91584167  0.55311529  0.39762930  1
  O2-  O275  1  0.91603810  0.53823675  0.72972833  1
  O2-  O276  1  0.28755684  0.16460807  0.06783074  1
  O2-  O277  1  0.29197910  0.16725093  0.40241460  1
  O2-  O278  1  0.28899882  0.16980586  0.73484335  1
  O2-  O279  1  0.29306214  0.67278479  0.06705387  1
  O2-  O280  1  0.30219401  0.66880078  0.39626183  1
  O2-  O281  1  0.29447501  0.66249338  0.72538957  1
  O2-  O282  1  0.78800261  0.16613428  0.06983270  1
  O2-  O283  1  0.78801676  0.16364245  0.40047884  1
  O2-  O284  1  0.79304530  0.16913820  0.73375494  1
  O2-  O285  1  0.80709853  0.67436649  0.06196846  1
  O2-  O286  1  0.79169270  0.66700089  0.39783816  1
  O2-  O287  1  0.80723267  0.66599715  0.72816292  1
