# generated using pymatgen
data_Ca2Al2SiO7
_symmetry_space_group_name_H-M   'P 1'
_cell_length_a   15.46629614
_cell_length_b   15.46810388
_cell_length_c   15.28913795
_cell_angle_alpha   89.99375005
_cell_angle_beta   90.01353414
_cell_angle_gamma   90.01798332
_symmetry_Int_Tables_number   1
_chemical_formula_structural   Ca2Al2SiO7
_chemical_formula_sum   'Ca48 Al48 Si24 O168'
_cell_volume   3657.68553379
_cell_formula_units_Z   24
loop_
 _symmetry_equiv_pos_site_id
 _symmetry_equiv_pos_as_xyz
  1  'x, y, z'
loop_
 _atom_type_symbol
 _atom_type_oxidation_number
  Ca2+  2.0
  Al0+  0.0
  Si0+  0.0
  O2-  -2.0
loop_
 _atom_site_type_symbol
 _atom_site_label
 _atom_site_symmetry_multiplicity
 _atom_site_fract_x
 _atom_site_fract_y
 _atom_site_fract_z
 _atom_site_occupancy
  Ca2+  Ca0  1  0.16591995  0.07507015  0.17252543  1
  Ca2+  Ca1  1  0.16163359  0.06919905  0.50489623  1
  Ca2+  Ca2  1  0.16467240  0.07673823  0.83395165  1
  Ca2+  Ca3  1  0.17126676  0.57941420  0.17018615  1
  Ca2+  Ca4  1  0.17748926  0.57551611  0.50870116  1
  Ca2+  Ca5  1  0.17387597  0.58243493  0.83951339  1
  Ca2+  Ca6  1  0.67450502  0.08463213  0.17518714  1
  Ca2+  Ca7  1  0.66372988  0.07649686  0.49885234  1
  Ca2+  Ca8  1  0.66665828  0.07664994  0.84101973  1
  Ca2+  Ca9  1  0.67247979  0.57929964  0.17483675  1
  Ca2+  Ca10  1  0.67805649  0.58965813  0.50586227  1
  Ca2+  Ca11  1  0.66902066  0.59012753  0.83514927  1
  Ca2+  Ca12  1  0.07795257  0.34013327  0.16042899  1
  Ca2+  Ca13  1  0.08661345  0.33839503  0.49653520  1
  Ca2+  Ca14  1  0.08194407  0.34210360  0.83048351  1
  Ca2+  Ca15  1  0.07691619  0.82810337  0.15717019  1
  Ca2+  Ca16  1  0.09027715  0.82758676  0.49693525  1
  Ca2+  Ca17  1  0.08005354  0.82297081  0.82842062  1
  Ca2+  Ca18  1  0.59307787  0.32370392  0.16324642  1
  Ca2+  Ca19  1  0.57847661  0.33384700  0.49253729  1
  Ca2+  Ca20  1  0.57652532  0.32747392  0.82747674  1
  Ca2+  Ca21  1  0.58449086  0.82727955  0.16225511  1
  Ca2+  Ca22  1  0.58834857  0.83297757  0.49907132  1
  Ca2+  Ca23  1  0.58463015  0.82280328  0.82667454  1
  Ca2+  Ca24  1  0.32302760  0.42716169  0.17131525  1
  Ca2+  Ca25  1  0.32957231  0.42296369  0.50825782  1
  Ca2+  Ca26  1  0.32582139  0.42274041  0.83741695  1
  Ca2+  Ca27  1  0.32646003  0.91540611  0.17250753  1
  Ca2+  Ca28  1  0.32317629  0.91604892  0.50251638  1
  Ca2+  Ca29  1  0.32623129  0.90993755  0.83230772  1
  Ca2+  Ca30  1  0.83091412  0.42142113  0.17336041  1
  Ca2+  Ca31  1  0.82608680  0.42661007  0.49851485  1
  Ca2+  Ca32  1  0.83720680  0.42280017  0.83552105  1
  Ca2+  Ca33  1  0.83189843  0.92644044  0.17278740  1
  Ca2+  Ca34  1  0.82188413  0.92029120  0.50288387  1
  Ca2+  Ca35  1  0.83063078  0.91903716  0.83891863  1
  Ca2+  Ca36  1  0.43137553  0.16721925  0.16147848  1
  Ca2+  Ca37  1  0.42034003  0.17543351  0.49396663  1
  Ca2+  Ca38  1  0.41949495  0.17341104  0.82661587  1
  Ca2+  Ca39  1  0.41842572  0.66164649  0.16190443  1
  Ca2+  Ca40  1  0.41892247  0.65921669  0.49932796  1
  Ca2+  Ca41  1  0.42627711  0.65358049  0.82937262  1
  Ca2+  Ca42  1  0.91020279  0.17181820  0.15839889  1
  Ca2+  Ca43  1  0.91545748  0.16712236  0.49396591  1
  Ca2+  Ca44  1  0.91238176  0.17294264  0.83598884  1
  Ca2+  Ca45  1  0.92086762  0.67221037  0.15724895  1
  Ca2+  Ca46  1  0.92166974  0.65798789  0.49850039  1
  Ca2+  Ca47  1  0.92923376  0.66403696  0.82729744  1
  Al0+  Al48  1  -0.00178036  0.00190251  -0.00024410  1
  Al0+  Al49  1  -0.00058752  -0.00039768  0.34021523  1
  Al0+  Al50  1  -0.00090993  0.00076405  0.67132356  1
  Al0+  Al51  1  -0.00104967  0.49990719  -0.00412812  1
  Al0+  Al52  1  0.00133531  0.49986342  0.33718715  1
  Al0+  Al53  1  -0.00158174  0.50024661  0.66631323  1
  Al0+  Al54  1  0.49931975  -0.00172683  -0.00400408  1
  Al0+  Al55  1  0.49927781  -0.00000642  0.33069022  1
  Al0+  Al56  1  0.50083713  -0.00107958  0.66995528  1
  Al0+  Al57  1  0.49938911  0.49833986  0.00083275  1
  Al0+  Al58  1  0.49894733  0.49939117  0.33515114  1
  Al0+  Al59  1  0.50155946  0.49796745  0.65954980  1
  Al0+  Al60  1  0.24953432  0.24875486  0.00537770  1
  Al0+  Al61  1  0.24997195  0.24928194  0.33148771  1
  Al0+  Al62  1  0.24965400  0.24937932  0.66417632  1
  Al0+  Al63  1  0.25033965  0.75007206  0.00135098  1
  Al0+  Al64  1  0.25115156  0.74933467  0.33814973  1
  Al0+  Al65  1  0.25084466  0.74979773  0.67068760  1
  Al0+  Al66  1  0.75077528  0.24859081  -0.00781759  1
  Al0+  Al67  1  0.75151842  0.25136212  0.33771652  1
  Al0+  Al68  1  0.75124715  0.24980787  0.66387483  1
  Al0+  Al69  1  0.74815933  0.75150007  -0.00603061  1
  Al0+  Al70  1  0.75178651  0.75245217  0.33791838  1
  Al0+  Al71  1  0.75074212  0.75224814  0.67157626  1
  Al0+  Al72  1  0.57044289  0.18087163  0.31964816  1
  Al0+  Al73  1  0.32152132  0.57156773  0.34989192  1
  Al0+  Al74  1  0.17823742  0.92806722  0.68265621  1
  Al0+  Al75  1  0.42901561  0.31935446  0.65224556  1
  Al0+  Al76  1  0.57138420  0.17823658  0.98519051  1
  Al0+  Al77  1  0.07151632  0.67942144  0.65057948  1
  Al0+  Al78  1  0.07097628  0.67923965  0.98558217  1
  Al0+  Al79  1  0.17902449  0.42736755  0.68247859  1
  Al0+  Al80  1  0.17620733  0.42859828  0.01607541  1
  Al0+  Al81  1  0.17889517  0.42764161  0.34868268  1
  Al0+  Al82  1  0.82099202  0.07249568  0.34889071  1
  Al0+  Al83  1  0.67667634  0.92914695  0.34702584  1
  Al0+  Al84  1  0.67889120  0.93094673  0.68331785  1
  Al0+  Al85  1  0.32394215  0.57003113  0.68329927  1
  Al0+  Al86  1  0.81953957  0.57033664  0.68245933  1
  Al0+  Al87  1  0.92815742  0.82411266  0.98517096  1
  Al0+  Al88  1  0.67896847  0.42844926  0.34611281  1
  Al0+  Al89  1  0.17884615  0.92963199  0.34510581  1
  Al0+  Al90  1  0.92970001  0.32075151  0.98675903  1
  Al0+  Al91  1  0.57166431  0.68048312  0.65129678  1
  Al0+  Al92  1  0.82112947  0.57351950  0.34595208  1
  Al0+  Al93  1  0.81869736  0.07069467  0.01313291  1
  Al0+  Al94  1  0.32249674  0.57168616  0.01641225  1
  Al0+  Al95  1  0.56936187  0.67733702  0.98853156  1
  Si0+  Si96  1  0.07132347  0.67987885  0.31930278  1
  Si0+  Si97  1  0.06975092  0.17833168  0.65140217  1
  Si0+  Si98  1  0.81980200  0.57258219  0.01273892  1
  Si0+  Si99  1  0.67971002  0.42846894  0.01139479  1
  Si0+  Si100  1  0.17920007  0.93062161  0.01451767  1
  Si0+  Si101  1  0.42816754  0.82001806  0.31882296  1
  Si0+  Si102  1  0.42686314  0.31953795  0.98451261  1
  Si0+  Si103  1  0.67622408  0.92712731  0.01726647  1
  Si0+  Si104  1  0.32102605  0.07122359  0.68241561  1
  Si0+  Si105  1  0.42601444  0.32369109  0.31297864  1
  Si0+  Si106  1  0.32247960  0.07150489  0.34815582  1
  Si0+  Si107  1  0.07134169  0.17545757  0.31896773  1
  Si0+  Si108  1  0.57316758  0.67939640  0.31985137  1
  Si0+  Si109  1  0.92900829  0.82243848  0.31986304  1
  Si0+  Si110  1  0.82227832  0.07397367  0.68582538  1
  Si0+  Si111  1  0.57251106  0.17620959  0.64889206  1
  Si0+  Si112  1  0.92931635  0.82376577  0.64832476  1
  Si0+  Si113  1  0.67858926  0.42622610  0.68346440  1
  Si0+  Si114  1  0.32296552  0.07120069  0.01533411  1
  Si0+  Si115  1  0.93185650  0.32022822  0.31919413  1
  Si0+  Si116  1  0.92821612  0.32168910  0.64826894  1
  Si0+  Si117  1  0.42671954  0.82227410  0.98333999  1
  Si0+  Si118  1  0.42835448  0.82389507  0.64879048  1
  Si0+  Si119  1  0.07402072  0.17748293  0.98406386  1
  O2-  O120  1  0.25121053  0.00057587  0.05719025  1
  O2-  O121  1  0.25055201  0.00681568  0.39263317  1
  O2-  O122  1  0.25432268  0.00182364  0.72894773  1
  O2-  O123  1  0.24701259  0.50235418  0.06463956  1
  O2-  O124  1  0.25323833  0.49602004  0.39866611  1
  O2-  O125  1  0.24877847  0.50101500  0.73255158  1
  O2-  O126  1  0.74467178  -0.00395050  0.06087425  1
  O2-  O127  1  0.74733927  0.00210792  0.39745036  1
  O2-  O128  1  0.75188333  0.00741067  0.72931806  1
  O2-  O129  1  0.74836337  0.50176479  0.05427691  1
  O2-  O130  1  0.74389487  0.50681252  0.39574282  1
  O2-  O131  1  0.74429181  0.49627006  0.72982518  1
  O2-  O132  1  0.00297427  0.24881080  0.27669589  1
  O2-  O133  1  0.00040589  0.25041490  0.60814941  1
  O2-  O134  1  0.00899218  0.24980800  0.94056862  1
  O2-  O135  1  -0.00089635  0.75030759  0.27749078  1
  O2-  O136  1  -0.00197462  0.75586442  0.60245898  1
  O2-  O137  1  -0.00204134  0.75034370  0.93521470  1
  O2-  O138  1  0.49814294  0.25717105  0.27012696  1
  O2-  O139  1  0.50531293  0.24584636  0.60506321  1
  O2-  O140  1  0.49453074  0.25038708  0.93892904  1
  O2-  O141  1  0.50000442  0.74888805  0.27774015  1
  O2-  O142  1  0.49501031  0.75351751  0.60418287  1
  O2-  O143  1  0.49351239  0.75106372  0.94152278  1
  O2-  O144  1  0.07267502  0.17367446  0.08973970  1
  O2-  O145  1  0.06982338  0.17345935  0.42408240  1
  O2-  O146  1  0.06889688  0.17632305  0.75642003  1
  O2-  O147  1  0.06939685  0.68208255  0.10014102  1
  O2-  O148  1  0.07120686  0.68129012  0.42424632  1
  O2-  O149  1  0.07011926  0.68054173  0.76344573  1
  O2-  O150  1  0.57224685  0.17988461  0.09847559  1
  O2-  O151  1  0.56565742  0.18008391  0.43261582  1
  O2-  O152  1  0.57162078  0.17689554  0.75469595  1
  O2-  O153  1  0.57170979  0.67949484  0.10217905  1
  O2-  O154  1  0.57426750  0.68220992  0.42459021  1
  O2-  O155  1  0.57074504  0.68186714  0.76457771  1
  O2-  O156  1  0.17596510  0.43046852  0.23529392  1
  O2-  O157  1  0.18180758  0.42650992  0.56903162  1
  O2-  O158  1  0.17915409  0.42664881  0.90304223  1
  O2-  O159  1  0.18011777  0.93032677  0.23157725  1
  O2-  O160  1  0.17840888  0.93127289  0.56943742  1
  O2-  O161  1  0.18042473  0.93231493  0.90960672  1
  O2-  O162  1  0.68443254  0.42781045  0.23168446  1
  O2-  O163  1  0.68213195  0.42452261  0.57809960  1
  O2-  O164  1  0.67971616  0.42875940  0.90638195  1
  O2-  O165  1  0.67880671  0.92730783  0.23346755  1
  O2-  O166  1  0.67892515  0.93328694  0.57024114  1
  O2-  O167  1  0.67556737  0.92894697  0.91178268  1
  O2-  O168  1  0.42839925  0.31712026  0.08995385  1
  O2-  O169  1  0.42427987  0.31981232  0.41851610  1
  O2-  O170  1  0.43038741  0.31522541  0.76570146  1
  O2-  O171  1  0.42712211  0.82625107  0.08923022  1
  O2-  O172  1  0.42608401  0.82208999  0.42340722  1
  O2-  O173  1  0.43099723  0.82762687  0.75428328  1
  O2-  O174  1  0.92711667  0.31947102  0.10015564  1
  O2-  O175  1  0.93290747  0.31957768  0.42429310  1
  O2-  O176  1  0.92577438  0.31974625  0.75334586  1
  O2-  O177  1  0.93040406  0.82380968  0.09968462  1
  O2-  O178  1  0.92968745  0.82390533  0.42460487  1
  O2-  O179  1  0.93189580  0.82411717  0.75388191  1
  O2-  O180  1  0.32236246  0.06815126  0.24217231  1
  O2-  O181  1  0.31921805  0.06986363  0.57678962  1
  O2-  O182  1  0.32238363  0.07192484  0.91035382  1
  O2-  O183  1  0.31892340  0.57381190  0.23633245  1
  O2-  O184  1  0.32264199  0.56816609  0.56985281  1
  O2-  O185  1  0.32547733  0.56831134  0.90347703  1
  O2-  O186  1  0.82182724  0.07189506  0.23514630  1
  O2-  O187  1  0.82379493  0.07382831  0.58040121  1
  O2-  O188  1  0.81657904  0.07103514  0.90020225  1
  O2-  O189  1  0.82170835  0.57307456  0.23161801  1
  O2-  O190  1  0.81945888  0.56803675  0.56938680  1
  O2-  O191  1  0.81930820  0.57098097  0.90783755  1
  O2-  O192  1  0.04206665  0.08381269  0.27124661  1
  O2-  O193  1  0.03900084  0.08682102  0.60375220  1
  O2-  O194  1  0.04402972  0.08639057  0.93529753  1
  O2-  O195  1  0.04313770  0.58773472  0.27292093  1
  O2-  O196  1  0.03711326  0.58320762  0.59738678  1
  O2-  O197  1  0.04244727  0.58202587  0.93186978  1
  O2-  O198  1  0.53802114  0.08450214  0.26444232  1
  O2-  O199  1  0.54450526  0.08284244  0.60409676  1
  O2-  O200  1  0.54061621  0.08131753  0.93180130  1
  O2-  O201  1  0.54801361  0.58616652  0.27345282  1
  O2-  O202  1  0.54658130  0.58269930  0.59710167  1
  O2-  O203  1  0.54172147  0.57991787  0.93379956  1
  O2-  O204  1  0.16494187  0.19731912  0.27145910  1
  O2-  O205  1  0.16189607  0.20200896  0.60300367  1
  O2-  O206  1  0.16972799  0.19720476  0.93959715  1
  O2-  O207  1  0.16292167  0.71032632  0.27293808  1
  O2-  O208  1  0.16942510  0.71122814  0.59934920  1
  O2-  O209  1  0.16965521  0.70924331  0.93453956  1
  O2-  O210  1  0.66899486  0.21178989  0.26837003  1
  O2-  O211  1  0.66739056  0.19971942  0.60448147  1
  O2-  O212  1  0.66477932  0.21079424  0.92754319  1
  O2-  O213  1  0.66482895  0.70906615  0.27229724  1
  O2-  O214  1  0.66858740  0.71576604  0.60003778  1
  O2-  O215  1  0.66417631  0.70869224  0.93150860  1
  O2-  O216  1  0.07621590  0.45649996  0.06665010  1
  O2-  O217  1  0.08188239  0.45705146  0.40255526  1
  O2-  O218  1  0.07812694  0.45228360  0.73025559  1
  O2-  O219  1  0.08815603  0.96059495  0.06187845  1
  O2-  O220  1  0.08438459  0.95869416  0.40281913  1
  O2-  O221  1  0.08323425  0.96285296  0.73703788  1
  O2-  O222  1  0.58788536  0.45194288  0.06033412  1
  O2-  O223  1  0.57774654  0.44679026  0.39502846  1
  O2-  O224  1  0.58371085  0.44859027  0.72639818  1
  O2-  O225  1  0.58120309  0.95126775  0.06134955  1
  O2-  O226  1  0.57776745  0.95667430  0.39924226  1
  O2-  O227  1  0.58186122  0.95941536  0.73814588  1
  O2-  O228  1  0.20318483  0.32888838  0.06906300  1
  O2-  O229  1  0.20108708  0.32549237  0.39707753  1
  O2-  O230  1  0.20636218  0.32740378  0.73326600  1
  O2-  O231  1  0.20640145  0.83936805  0.06281442  1
  O2-  O232  1  0.21322607  0.83599575  0.40085728  1
  O2-  O233  1  0.20987574  0.83345576  0.73835122  1
  O2-  O234  1  0.71182857  0.33741132  0.05719825  1
  O2-  O235  1  0.71278765  0.33472387  0.40361737  1
  O2-  O236  1  0.70631751  0.33239329  0.72910063  1
  O2-  O237  1  0.70160762  0.83284114  0.06192848  1
  O2-  O238  1  0.70762128  0.83329898  0.40265308  1
  O2-  O239  1  0.71127705  0.83600839  0.73839474  1
  O2-  O240  1  0.44844002  0.41868851  0.26867994  1
  O2-  O241  1  0.46029899  0.41357915  0.59468360  1
  O2-  O242  1  0.45455835  0.41213489  0.93874117  1
  O2-  O243  1  0.45415200  0.91146000  0.26882100  1
  O2-  O244  1  0.45581981  0.91726331  0.60191195  1
  O2-  O245  1  0.45216942  0.91447379  0.93401284  1
  O2-  O246  1  0.95979180  0.41225805  0.27132456  1
  O2-  O247  1  0.95467524  0.41293947  0.60037646  1
  O2-  O248  1  0.95579753  0.41705079  0.93032157  1
  O2-  O249  1  0.95906943  0.91421146  0.27278922  1
  O2-  O250  1  0.95412650  0.91890161  0.60443156  1
  O2-  O251  1  0.95821054  0.92175049  0.93161619  1
  O2-  O252  1  0.33345802  0.29434532  0.26578289  1
  O2-  O253  1  0.33367921  0.28544636  0.59648611  1
  O2-  O254  1  0.33310329  0.29223659  0.93956905  1
  O2-  O255  1  0.33678241  0.79102835  0.26972482  1
  O2-  O256  1  0.33307280  0.80137143  0.60539690  1
  O2-  O257  1  0.33230578  0.80012370  0.93812048  1
  O2-  O258  1  0.83980473  0.29284309  0.27230710  1
  O2-  O259  1  0.83714787  0.29205029  0.59940384  1
  O2-  O260  1  0.83698036  0.28600893  0.92748173  1
  O2-  O261  1  0.83696247  0.79641668  0.27157427  1
  O2-  O262  1  0.83488650  0.79797741  0.60527546  1
  O2-  O263  1  0.82887200  0.80026111  0.93324369  1
  O2-  O264  1  0.41422744  0.04071614  0.06282076  1
  O2-  O265  1  0.41347049  0.04200450  0.39579397  1
  O2-  O266  1  0.41500235  0.04805011  0.72866869  1
  O2-  O267  1  0.42024694  0.53976724  0.07041854  1
  O2-  O268  1  0.42171413  0.54809673  0.40004860  1
  O2-  O269  1  0.42323843  0.53746677  0.73191083  1
  O2-  O270  1  0.91684839  0.04376512  0.06694946  1
  O2-  O271  1  0.91778989  0.04307957  0.40407619  1
  O2-  O272  1  0.91489030  0.04778177  0.73317961  1
  O2-  O273  1  0.91122290  0.54432043  0.05966118  1
  O2-  O274  1  0.91654591  0.53920377  0.40008879  1
  O2-  O275  1  0.91489565  0.53614473  0.73589916  1
  O2-  O276  1  0.29689809  0.16156489  0.06596574  1
  O2-  O277  1  0.30077713  0.16625551  0.39219159  1
  O2-  O278  1  0.29226054  0.16311307  0.72936115  1
  O2-  O279  1  0.29776205  0.67231748  0.06786019  1
  O2-  O280  1  0.29237744  0.66867469  0.40404787  1
  O2-  O281  1  0.30125758  0.67057823  0.73364329  1
  O2-  O282  1  0.78680786  0.16820814  0.06513073  1
  O2-  O283  1  0.79517339  0.17003265  0.40311970  1
  O2-  O284  1  0.79851109  0.16919281  0.72954772  1
  O2-  O285  1  0.79219924  0.66517570  0.05883008  1
  O2-  O286  1  0.79817763  0.67159977  0.40096503  1
  O2-  O287  1  0.79126714  0.66720843  0.73590311  1
