# generated using pymatgen
data_Ca2Al2SiO7
_symmetry_space_group_name_H-M   'P 1'
_cell_length_a   15.46500217
_cell_length_b   15.46655343
_cell_length_c   15.28949462
_cell_angle_alpha   90.02091699
_cell_angle_beta   89.99329101
_cell_angle_gamma   89.99300315
_symmetry_Int_Tables_number   1
_chemical_formula_structural   Ca2Al2SiO7
_chemical_formula_sum   'Ca48 Al48 Si24 O168'
_cell_volume   3657.09823937
_cell_formula_units_Z   24
loop_
 _symmetry_equiv_pos_site_id
 _symmetry_equiv_pos_as_xyz
  1  'x, y, z'
loop_
 _atom_type_symbol
 _atom_type_oxidation_number
  Ca2+  2.0
  Al0+  0.0
  Si0+  0.0
  O2-  -2.0
loop_
 _atom_site_type_symbol
 _atom_site_label
 _atom_site_symmetry_multiplicity
 _atom_site_fract_x
 _atom_site_fract_y
 _atom_site_fract_z
 _atom_site_occupancy
  Ca2+  Ca0  1  0.16861245  0.07639471  0.16734362  1
  Ca2+  Ca1  1  0.16956003  0.07553436  0.50599149  1
  Ca2+  Ca2  1  0.16800886  0.06985597  0.83792717  1
  Ca2+  Ca3  1  0.18498066  0.57566221  0.16991183  1
  Ca2+  Ca4  1  0.17452272  0.58163506  0.49877946  1
  Ca2+  Ca5  1  0.17501253  0.58111752  0.84152355  1
  Ca2+  Ca6  1  0.65044862  0.07126025  0.17098411  1
  Ca2+  Ca7  1  0.65447870  0.07842192  0.49840463  1
  Ca2+  Ca8  1  0.66580125  0.07600721  0.83912811  1
  Ca2+  Ca9  1  0.67525342  0.59608585  0.17121504  1
  Ca2+  Ca10  1  0.66729275  0.58408637  0.50372608  1
  Ca2+  Ca11  1  0.66554317  0.58458196  0.83631608  1
  Ca2+  Ca12  1  0.08184353  0.34844789  0.16636157  1
  Ca2+  Ca13  1  0.07144989  0.34425859  0.49273574  1
  Ca2+  Ca14  1  0.07722499  0.33927463  0.82832340  1
  Ca2+  Ca15  1  0.08115333  0.83237249  0.15989700  1
  Ca2+  Ca16  1  0.08688626  0.82723778  0.50142456  1
  Ca2+  Ca17  1  0.08887061  0.82769591  0.82474545  1
  Ca2+  Ca18  1  0.57031495  0.33571369  0.16509642  1
  Ca2+  Ca19  1  0.57575614  0.33290509  0.49482209  1
  Ca2+  Ca20  1  0.57083366  0.34210730  0.82777984  1
  Ca2+  Ca21  1  0.57588957  0.82748895  0.16093309  1
  Ca2+  Ca22  1  0.57669785  0.82652920  0.48898681  1
  Ca2+  Ca23  1  0.57705475  0.82283581  0.83043719  1
  Ca2+  Ca24  1  0.33337476  0.42189059  0.17406878  1
  Ca2+  Ca25  1  0.34211294  0.42137858  0.50229340  1
  Ca2+  Ca26  1  0.33202236  0.42222690  0.84536546  1
  Ca2+  Ca27  1  0.33330131  0.90710359  0.17034974  1
  Ca2+  Ca28  1  0.33587345  0.91231078  0.50618344  1
  Ca2+  Ca29  1  0.32745031  0.90478630  0.83698080  1
  Ca2+  Ca30  1  0.83312922  0.42867932  0.17443120  1
  Ca2+  Ca31  1  0.82835292  0.41593594  0.50385123  1
  Ca2+  Ca32  1  0.82623148  0.42044741  0.83582357  1
  Ca2+  Ca33  1  0.81478234  0.91487991  0.17206295  1
  Ca2+  Ca34  1  0.82479505  0.91839433  0.50017392  1
  Ca2+  Ca35  1  0.82553038  0.91754366  0.84191712  1
  Ca2+  Ca36  1  0.41650154  0.17696556  0.16853124  1
  Ca2+  Ca37  1  0.41876178  0.17929731  0.49275420  1
  Ca2+  Ca38  1  0.41161544  0.18049658  0.83287838  1
  Ca2+  Ca39  1  0.42419743  0.66663108  0.16107150  1
  Ca2+  Ca40  1  0.42744996  0.67274584  0.49361074  1
  Ca2+  Ca41  1  0.42310185  0.67066937  0.83037044  1
  Ca2+  Ca42  1  0.91758680  0.17408412  0.16624783  1
  Ca2+  Ca43  1  0.91657082  0.18003849  0.49530226  1
  Ca2+  Ca44  1  0.91975631  0.17315073  0.82582040  1
  Ca2+  Ca45  1  0.91457496  0.66097540  0.16286508  1
  Ca2+  Ca46  1  0.92481060  0.65783492  0.49574109  1
  Ca2+  Ca47  1  0.92454764  0.66261972  0.83100670  1
  Al0+  Al48  1  -0.00008978  0.00174618  0.00357445  1
  Al0+  Al49  1  -0.00156214  0.00037666  0.33423819  1
  Al0+  Al50  1  0.00059680  -0.00017944  0.67046741  1
  Al0+  Al51  1  -0.00154224  0.50094384  0.00422038  1
  Al0+  Al52  1  0.00024340  0.50077207  0.33503998  1
  Al0+  Al53  1  0.00068844  0.50092431  0.65919290  1
  Al0+  Al54  1  0.49753207  0.00133293  -0.00148443  1
  Al0+  Al55  1  0.49649939  -0.00051693  0.33305350  1
  Al0+  Al56  1  0.49840614  0.00210391  0.66975936  1
  Al0+  Al57  1  0.50182084  0.49995356  -0.00431790  1
  Al0+  Al58  1  0.50246796  0.50143574  0.32967422  1
  Al0+  Al59  1  0.50177151  0.50121873  0.66427582  1
  Al0+  Al60  1  0.24588464  0.24652530  -0.00110688  1
  Al0+  Al61  1  0.24620053  0.24660563  0.33479455  1
  Al0+  Al62  1  0.24915732  0.24874799  0.66343754  1
  Al0+  Al63  1  0.24884546  0.74773024  0.00626698  1
  Al0+  Al64  1  0.24806146  0.74671423  0.33490925  1
  Al0+  Al65  1  0.24949770  0.74853444  0.66249036  1
  Al0+  Al66  1  0.75116962  0.25075927  -0.00099708  1
  Al0+  Al67  1  0.75308062  0.24849368  0.32282050  1
  Al0+  Al68  1  0.75016874  0.25072510  0.66872611  1
  Al0+  Al69  1  0.75058565  0.75189777  0.00222856  1
  Al0+  Al70  1  0.75187331  0.75209744  0.34224297  1
  Al0+  Al71  1  0.75317596  0.75083769  0.66597175  1
  Al0+  Al72  1  0.67817783  0.93181152  0.01273524  1
  Al0+  Al73  1  0.42801321  0.32119553  0.65407007  1
  Al0+  Al74  1  0.81988896  0.57106822  0.34937867  1
  Al0+  Al75  1  0.18087327  0.42772683  0.35017164  1
  Al0+  Al76  1  0.57488161  0.67980173  0.31783595  1
  Al0+  Al77  1  0.17973442  0.92761521  0.01426724  1
  Al0+  Al78  1  0.57439464  0.67969155  0.65035910  1
  Al0+  Al79  1  0.81878803  0.56979962  0.01186190  1
  Al0+  Al80  1  0.18174358  0.92861448  0.67972378  1
  Al0+  Al81  1  0.17834627  0.42682794  0.01194788  1
  Al0+  Al82  1  0.42960910  0.82113699  0.65238508  1
  Al0+  Al83  1  0.93136052  0.32195048  0.31671097  1
  Al0+  Al84  1  0.32432493  0.56947006  0.01371864  1
  Al0+  Al85  1  0.42688884  0.81942644  0.31807391  1
  Al0+  Al86  1  0.42624131  0.82097046  0.98452444  1
  Al0+  Al87  1  0.92941093  0.32007508  0.65370319  1
  Al0+  Al88  1  0.32479248  0.57039391  0.35120241  1
  Al0+  Al89  1  0.57477395  0.67972291  0.98381160  1
  Al0+  Al90  1  0.07053688  0.67937607  0.65275232  1
  Al0+  Al91  1  0.42789530  0.32013223  0.98706231  1
  Al0+  Al92  1  0.67944030  0.42986637  0.67969477  1
  Al0+  Al93  1  0.67739242  0.93234753  0.34864923  1
  Al0+  Al94  1  0.42744638  0.32221390  0.31888113  1
  Al0+  Al95  1  0.57113378  0.17794541  0.31907463  1
  Si0+  Si96  1  0.67785770  0.92860251  0.68250504  1
  Si0+  Si97  1  0.07094352  0.17619976  0.64997234  1
  Si0+  Si98  1  0.92832552  0.82518491  0.65001991  1
  Si0+  Si99  1  0.82399525  0.07267508  0.35071755  1
  Si0+  Si100  1  0.06913355  0.17559397  0.98263926  1
  Si0+  Si101  1  0.67970870  0.42458056  0.34734362  1
  Si0+  Si102  1  0.82499636  0.57219235  0.68321414  1
  Si0+  Si103  1  0.06931399  0.67915837  0.31557006  1
  Si0+  Si104  1  0.67767130  0.42586062  0.01689070  1
  Si0+  Si105  1  0.17757187  0.42834983  0.67990274  1
  Si0+  Si106  1  0.06859664  0.67987208  0.98716752  1
  Si0+  Si107  1  0.57281922  0.17805103  0.65303595  1
  Si0+  Si108  1  0.31907317  0.06960227  0.34965156  1
  Si0+  Si109  1  0.07079855  0.17428606  0.31522887  1
  Si0+  Si110  1  0.57273151  0.17849188  0.98201050  1
  Si0+  Si111  1  0.32041591  0.07296043  0.01781213  1
  Si0+  Si112  1  0.32072331  0.56901238  0.68114980  1
  Si0+  Si113  1  0.82236979  0.07455242  0.01766622  1
  Si0+  Si114  1  0.82083466  0.07085415  0.68174953  1
  Si0+  Si115  1  0.93045143  0.82272591  0.31872518  1
  Si0+  Si116  1  0.93049869  0.32254548  0.98385018  1
  Si0+  Si117  1  0.32244399  0.07467675  0.68546430  1
  Si0+  Si118  1  0.17622217  0.92767503  0.34902524  1
  Si0+  Si119  1  0.92953364  0.82322244  0.98652349  1
  O2-  O120  1  0.25785035  -0.00207007  0.06167455  1
  O2-  O121  1  0.25008342  -0.00457738  0.39060191  1
  O2-  O122  1  0.25733651  0.00144813  0.72815633  1
  O2-  O123  1  0.25789659  0.49027345  0.06082475  1
  O2-  O124  1  0.25783485  0.49295442  0.40204342  1
  O2-  O125  1  0.25203394  0.49452636  0.72282601  1
  O2-  O126  1  0.75000067  0.00981411  0.06061284  1
  O2-  O127  1  0.74994789  0.01028792  0.39550676  1
  O2-  O128  1  0.75012570  -0.00037458  0.72399064  1
  O2-  O129  1  0.74274013  0.49802384  0.06025206  1
  O2-  O130  1  0.74443719  0.49637339  0.39351819  1
  O2-  O131  1  0.75272043  0.50711361  0.72646347  1
  O2-  O132  1  0.00792532  0.24817367  0.27075379  1
  O2-  O133  1  0.00609554  0.24789237  0.60575720  1
  O2-  O134  1  0.00066596  0.25020942  0.94174806  1
  O2-  O135  1  -0.00062892  0.75159043  0.27388228  1
  O2-  O136  1  -0.00564950  0.75372893  0.60660743  1
  O2-  O137  1  0.00166343  0.75430029  0.94316558  1
  O2-  O138  1  0.50280586  0.25312939  0.26910275  1
  O2-  O139  1  0.50317585  0.24580516  0.60991329  1
  O2-  O140  1  0.50605102  0.24900585  0.93810886  1
  O2-  O141  1  0.49869063  0.74759019  0.26841505  1
  O2-  O142  1  0.50636050  0.75568497  0.60148404  1
  O2-  O143  1  0.49894198  0.74914406  0.93558636  1
  O2-  O144  1  0.06635445  0.16915786  0.08713355  1
  O2-  O145  1  0.06632653  0.16766801  0.42054193  1
  O2-  O146  1  0.06790262  0.17455387  0.75574011  1
  O2-  O147  1  0.06506165  0.68115576  0.09201733  1
  O2-  O148  1  0.06877389  0.68141520  0.42094466  1
  O2-  O149  1  0.06962579  0.67908250  0.76651956  1
  O2-  O150  1  0.57246020  0.17860654  0.08713665  1
  O2-  O151  1  0.56761349  0.17902756  0.43322577  1
  O2-  O152  1  0.57360156  0.17747696  0.75867277  1
  O2-  O153  1  0.57926513  0.68414384  0.09666293  1
  O2-  O154  1  0.57606151  0.68308520  0.43142152  1
  O2-  O155  1  0.57364928  0.68057462  0.76384291  1
  O2-  O156  1  0.18065234  0.43284203  0.23670302  1
  O2-  O157  1  0.17586338  0.43037896  0.57539715  1
  O2-  O158  1  0.17502345  0.43146340  0.89756444  1
  O2-  O159  1  0.17283606  0.93036687  0.24392028  1
  O2-  O160  1  0.17963484  0.93194419  0.56653800  1
  O2-  O161  1  0.17601327  0.92956123  0.90122945  1
  O2-  O162  1  0.68375545  0.42302510  0.24177993  1
  O2-  O163  1  0.68203881  0.42607857  0.56688159  1
  O2-  O164  1  0.68151146  0.42263579  0.91105462  1
  O2-  O165  1  0.67956803  0.93241665  0.23569822  1
  O2-  O166  1  0.67822502  0.93080793  0.57760893  1
  O2-  O167  1  0.68364313  0.93335008  0.89909764  1
  O2-  O168  1  0.42735861  0.31730860  0.09951796  1
  O2-  O169  1  0.42862687  0.31906311  0.43266675  1
  O2-  O170  1  0.42621244  0.32025899  0.76734332  1
  O2-  O171  1  0.42745246  0.82019557  0.09758873  1
  O2-  O172  1  0.42919418  0.82121740  0.43171424  1
  O2-  O173  1  0.42837321  0.81784103  0.76575573  1
  O2-  O174  1  0.93149483  0.32237492  0.08852468  1
  O2-  O175  1  0.93062732  0.31967866  0.43006682  1
  O2-  O176  1  0.93133507  0.31878362  0.76734212  1
  O2-  O177  1  0.93029516  0.82332695  0.09162934  1
  O2-  O178  1  0.93385896  0.82557833  0.42382282  1
  O2-  O179  1  0.92815867  0.82732080  0.75588940  1
  O2-  O180  1  0.31679464  0.07116821  0.24463125  1
  O2-  O181  1  0.32035589  0.07728016  0.58001101  1
  O2-  O182  1  0.31564405  0.07721593  0.91233657  1
  O2-  O183  1  0.32138923  0.57312389  0.23792639  1
  O2-  O184  1  0.31972144  0.56866572  0.57639345  1
  O2-  O185  1  0.31949488  0.57091978  0.89924204  1
  O2-  O186  1  0.83131650  0.06686900  0.24574123  1
  O2-  O187  1  0.82265230  0.07035369  0.57703892  1
  O2-  O188  1  0.82411789  0.07365821  0.91144533  1
  O2-  O189  1  0.82131100  0.57082682  0.23603864  1
  O2-  O190  1  0.82715887  0.56947039  0.57800054  1
  O2-  O191  1  0.82476790  0.56586166  0.89888667  1
  O2-  O192  1  0.03850019  0.08331326  0.26601328  1
  O2-  O193  1  0.04132391  0.08388094  0.60336458  1
  O2-  O194  1  0.03621656  0.08599254  0.93227285  1
  O2-  O195  1  0.03790706  0.58911116  0.26879977  1
  O2-  O196  1  0.04004451  0.58512262  0.59457612  1
  O2-  O197  1  0.03580211  0.58981884  0.93873810  1
  O2-  O198  1  0.53451106  0.08263013  0.26554747  1
  O2-  O199  1  0.54748139  0.08438287  0.60722942  1
  O2-  O200  1  0.54563227  0.08589930  0.93453350  1
  O2-  O201  1  0.55490778  0.57942008  0.26633671  1
  O2-  O202  1  0.54359485  0.58251166  0.59790852  1
  O2-  O203  1  0.55147567  0.57944663  0.93210110  1
  O2-  O204  1  0.16599940  0.19251726  0.27075246  1
  O2-  O205  1  0.16551770  0.19649574  0.60479766  1
  O2-  O206  1  0.16116652  0.19812606  0.93404994  1
  O2-  O207  1  0.16073041  0.70698144  0.26870345  1
  O2-  O208  1  0.16407795  0.71265640  0.59548019  1
  O2-  O209  1  0.16107606  0.70480330  0.94075884  1
  O2-  O210  1  0.67196033  0.19443509  0.26630630  1
  O2-  O211  1  0.66636410  0.20218573  0.60694170  1
  O2-  O212  1  0.66872027  0.20033239  0.93742504  1
  O2-  O213  1  0.67403758  0.71416979  0.26940073  1
  O2-  O214  1  0.67616833  0.70236270  0.60163870  1
  O2-  O215  1  0.67254486  0.71256396  0.92987518  1
  O2-  O216  1  0.08360745  0.46340069  0.06667386  1
  O2-  O217  1  0.08456324  0.46537827  0.40223439  1
  O2-  O218  1  0.08625569  0.45999168  0.72682229  1
  O2-  O219  1  0.08387260  0.96315104  0.06871034  1
  O2-  O220  1  0.08589488  0.95980789  0.39736371  1
  O2-  O221  1  0.08467031  0.95982683  0.73459867  1
  O2-  O222  1  0.58244078  0.44666249  0.05935398  1
  O2-  O223  1  0.58454449  0.44581558  0.39099804  1
  O2-  O224  1  0.58302796  0.46097571  0.73464743  1
  O2-  O225  1  0.58057819  0.96100752  0.06522609  1
  O2-  O226  1  0.58072030  0.96325965  0.40283667  1
  O2-  O227  1  0.58689949  0.95767233  0.73101554  1
  O2-  O228  1  0.19244546  0.32403203  0.06051206  1
  O2-  O229  1  0.19348943  0.32390711  0.39834996  1
  O2-  O230  1  0.19838081  0.33316182  0.72424425  1
  O2-  O231  1  0.20306818  0.83090389  0.07030800  1
  O2-  O232  1  0.19919550  0.83448823  0.39491106  1
  O2-  O233  1  0.20985266  0.83055746  0.73255095  1
  O2-  O234  1  0.70650485  0.33318153  0.06322012  1
  O2-  O235  1  0.71006680  0.33116272  0.39183124  1
  O2-  O236  1  0.71216075  0.33417030  0.73603771  1
  O2-  O237  1  0.71534283  0.83844022  0.06750817  1
  O2-  O238  1  0.71535778  0.84002231  0.40605209  1
  O2-  O239  1  0.70822505  0.83731934  0.72948752  1
  O2-  O240  1  0.45418818  0.42038057  0.26584049  1
  O2-  O241  1  0.46094772  0.41623033  0.60042068  1
  O2-  O242  1  0.45694597  0.41633455  0.93131343  1
  O2-  O243  1  0.45266740  0.91886542  0.26717285  1
  O2-  O244  1  0.45025004  0.92431967  0.60539239  1
  O2-  O245  1  0.45056434  0.92186519  0.93342594  1
  O2-  O246  1  0.96379500  0.41869445  0.26381355  1
  O2-  O247  1  0.95860942  0.41557904  0.59813588  1
  O2-  O248  1  0.96037466  0.41357327  0.93607366  1
  O2-  O249  1  0.95920001  0.91355941  0.26973384  1
  O2-  O250  1  0.95703522  0.91759792  0.60315516  1
  O2-  O251  1  0.95474031  0.91639536  0.93992470  1
  O2-  O252  1  0.32879805  0.28794440  0.26945414  1
  O2-  O253  1  0.33151331  0.29091213  0.59931239  1
  O2-  O254  1  0.33087111  0.28615840  0.93395283  1
  O2-  O255  1  0.32568772  0.79432083  0.26927874  1
  O2-  O256  1  0.33250532  0.79075982  0.59899896  1
  O2-  O257  1  0.32589663  0.79111831  0.93511553  1
  O2-  O258  1  0.83758657  0.29030450  0.25828816  1
  O2-  O259  1  0.83412894  0.28535216  0.60011181  1
  O2-  O260  1  0.83813296  0.29508200  0.93648414  1
  O2-  O261  1  0.83793391  0.79513250  0.27417762  1
  O2-  O262  1  0.83435997  0.80332153  0.60382702  1
  O2-  O263  1  0.83950683  0.79406136  0.93729902  1
  O2-  O264  1  0.41650563  0.05565087  0.06061469  1
  O2-  O265  1  0.41012244  0.04376139  0.39874006  1
  O2-  O266  1  0.41728923  0.05560741  0.73195597  1
  O2-  O267  1  0.42477739  0.54671719  0.06367479  1
  O2-  O268  1  0.42574863  0.54679133  0.40162927  1
  O2-  O269  1  0.41310364  0.54365992  0.72769615  1
  O2-  O270  1  0.91429202  0.04650071  0.06488608  1
  O2-  O271  1  0.91420386  0.04035534  0.40127669  1
  O2-  O272  1  0.91212963  0.04333497  0.73151219  1
  O2-  O273  1  0.91315760  0.53673876  0.06912106  1
  O2-  O274  1  0.91601939  0.53767475  0.40231657  1
  O2-  O275  1  0.91784270  0.54181450  0.72912639  1
  O2-  O276  1  0.28555979  0.16198381  0.06749031  1
  O2-  O277  1  0.28798507  0.15902860  0.40033972  1
  O2-  O278  1  0.29031986  0.16632654  0.73339774  1
  O2-  O279  1  0.28801647  0.66330095  0.06987177  1
  O2-  O280  1  0.28625733  0.66627742  0.40490929  1
  O2-  O281  1  0.28692291  0.65920745  0.72739993  1
  O2-  O282  1  0.80179090  0.17002552  0.06185763  1
  O2-  O283  1  0.80414513  0.16931935  0.39192931  1
  O2-  O284  1  0.79335842  0.16165218  0.73166544  1
  O2-  O285  1  0.79459845  0.66820629  0.06562810  1
  O2-  O286  1  0.79611101  0.66822243  0.40573064  1
  O2-  O287  1  0.80672226  0.66881038  0.72719267  1
