# generated using pymatgen
data_Ca2Al2SiO7
_symmetry_space_group_name_H-M   'P 1'
_cell_length_a   15.45931802
_cell_length_b   15.45825655
_cell_length_c   15.28375245
_cell_angle_alpha   90.00041359
_cell_angle_beta   89.98429044
_cell_angle_gamma   89.99108931
_symmetry_Int_Tables_number   1
_chemical_formula_structural   Ca2Al2SiO7
_chemical_formula_sum   'Ca48 Al48 Si24 O168'
_cell_volume   3652.42086560
_cell_formula_units_Z   24
loop_
 _symmetry_equiv_pos_site_id
 _symmetry_equiv_pos_as_xyz
  1  'x, y, z'
loop_
 _atom_type_symbol
 _atom_type_oxidation_number
  Ca2+  2.0
  Al0+  0.0
  Si0+  0.0
  O2-  -2.0
loop_
 _atom_site_type_symbol
 _atom_site_label
 _atom_site_symmetry_multiplicity
 _atom_site_fract_x
 _atom_site_fract_y
 _atom_site_fract_z
 _atom_site_occupancy
  Ca2+  Ca0  1  0.17085198  0.08134359  0.16877246  1
  Ca2+  Ca1  1  0.16861039  0.07880232  0.49907933  1
  Ca2+  Ca2  1  0.17172010  0.08016617  0.84717090  1
  Ca2+  Ca3  1  0.17430888  0.58146660  0.17330162  1
  Ca2+  Ca4  1  0.17843180  0.58537717  0.50285339  1
  Ca2+  Ca5  1  0.17456374  0.58201960  0.83274330  1
  Ca2+  Ca6  1  0.66451972  0.07545827  0.17701140  1
  Ca2+  Ca7  1  0.65651137  0.08080233  0.50119491  1
  Ca2+  Ca8  1  0.66396534  0.08472024  0.83327351  1
  Ca2+  Ca9  1  0.67519586  0.58374686  0.16889494  1
  Ca2+  Ca10  1  0.67723375  0.57697471  0.51046993  1
  Ca2+  Ca11  1  0.66983411  0.58226611  0.83528913  1
  Ca2+  Ca12  1  0.07506008  0.32983538  0.15963246  1
  Ca2+  Ca13  1  0.07090128  0.33978035  0.49657650  1
  Ca2+  Ca14  1  0.07453977  0.33284809  0.83311069  1
  Ca2+  Ca15  1  0.07595098  0.84186652  0.16375415  1
  Ca2+  Ca16  1  0.07739103  0.83237682  0.49152712  1
  Ca2+  Ca17  1  0.07996950  0.83700594  0.83470802  1
  Ca2+  Ca18  1  0.57659118  0.32594294  0.16321651  1
  Ca2+  Ca19  1  0.58693939  0.32599851  0.50049813  1
  Ca2+  Ca20  1  0.57522213  0.33127230  0.82360157  1
  Ca2+  Ca21  1  0.58606715  0.82705223  0.16252820  1
  Ca2+  Ca22  1  0.57980955  0.82899329  0.49841787  1
  Ca2+  Ca23  1  0.57893552  0.82030230  0.82718575  1
  Ca2+  Ca24  1  0.33513097  0.41932239  0.17029158  1
  Ca2+  Ca25  1  0.33880848  0.42601904  0.50642000  1
  Ca2+  Ca26  1  0.34520968  0.41838578  0.83550448  1
  Ca2+  Ca27  1  0.32099425  0.92760954  0.17467066  1
  Ca2+  Ca28  1  0.33333525  0.91923225  0.50282520  1
  Ca2+  Ca29  1  0.33032016  0.92159081  0.84198874  1
  Ca2+  Ca30  1  0.84237587  0.42610249  0.17090070  1
  Ca2+  Ca31  1  0.83291079  0.42228480  0.51043663  1
  Ca2+  Ca32  1  0.83211488  0.42186938  0.83588575  1
  Ca2+  Ca33  1  0.83119925  0.91375160  0.17419895  1
  Ca2+  Ca34  1  0.82609540  0.91286915  0.49934230  1
  Ca2+  Ca35  1  0.83257927  0.91627910  0.84057259  1
  Ca2+  Ca36  1  0.41516706  0.16384816  0.16281270  1
  Ca2+  Ca37  1  0.42517819  0.16834463  0.49583878  1
  Ca2+  Ca38  1  0.41642320  0.17577297  0.82743499  1
  Ca2+  Ca39  1  0.42332373  0.66572350  0.16004407  1
  Ca2+  Ca40  1  0.41771986  0.66434070  0.49982017  1
  Ca2+  Ca41  1  0.42801808  0.66827178  0.82180656  1
  Ca2+  Ca42  1  0.92111779  0.17946888  0.15805249  1
  Ca2+  Ca43  1  0.91153933  0.18254847  0.49433278  1
  Ca2+  Ca44  1  0.92205686  0.17576699  0.82995741  1
  Ca2+  Ca45  1  0.90781144  0.67577583  0.16302796  1
  Ca2+  Ca46  1  0.91368447  0.66569748  0.49226499  1
  Ca2+  Ca47  1  0.91179118  0.66662827  0.83345702  1
  Al0+  Al48  1  -0.00173505  0.00017039  -0.00414131  1
  Al0+  Al49  1  -0.00093725  0.00152795  0.33468713  1
  Al0+  Al50  1  -0.00033366  -0.00048828  0.66640815  1
  Al0+  Al51  1  0.00098903  0.50329216  0.00065649  1
  Al0+  Al52  1  0.00196557  0.50260869  0.33207213  1
  Al0+  Al53  1  0.00212691  0.50165117  0.66748943  1
  Al0+  Al54  1  0.49991671  -0.00166631  0.00442122  1
  Al0+  Al55  1  0.49966242  -0.00151538  0.33637688  1
  Al0+  Al56  1  0.49823528  -0.00143271  0.66380215  1
  Al0+  Al57  1  0.50402466  0.49828268  -0.00511543  1
  Al0+  Al58  1  0.50202320  0.49910117  0.33622186  1
  Al0+  Al59  1  0.50257180  0.50014433  0.66619379  1
  Al0+  Al60  1  0.25064975  0.25143484  -0.00318702  1
  Al0+  Al61  1  0.24900709  0.25078170  0.33905393  1
  Al0+  Al62  1  0.24880170  0.24859921  0.66210559  1
  Al0+  Al63  1  0.24838115  0.75070370  0.00500581  1
  Al0+  Al64  1  0.25009286  0.75011062  0.33926810  1
  Al0+  Al65  1  0.24795801  0.74996559  0.66878585  1
  Al0+  Al66  1  0.74812701  0.25097977  -0.00214394  1
  Al0+  Al67  1  0.74790778  0.25029000  0.32090635  1
  Al0+  Al68  1  0.75125671  0.24916272  0.66410965  1
  Al0+  Al69  1  0.75063891  0.74864664  -0.00495946  1
  Al0+  Al70  1  0.74977437  0.74953961  0.33838775  1
  Al0+  Al71  1  0.74948541  0.75136313  0.66734383  1
  Al0+  Al72  1  0.32135524  0.07230852  0.35178377  1
  Al0+  Al73  1  0.17615059  0.92846490  0.01586478  1
  Al0+  Al74  1  0.82317858  0.57269311  0.68378450  1
  Al0+  Al75  1  0.07027854  0.17982892  0.98559139  1
  Al0+  Al76  1  0.92736609  0.32515166  0.98348744  1
  Al0+  Al77  1  0.42657309  0.81936915  0.65190662  1
  Al0+  Al78  1  0.57118233  0.17831202  0.65203353  1
  Al0+  Al79  1  0.92857878  0.81989181  0.32125143  1
  Al0+  Al80  1  0.32345427  0.57002733  0.34577903  1
  Al0+  Al81  1  0.42730732  0.32220661  0.64953744  1
  Al0+  Al82  1  0.43025424  0.31931723  0.98789993  1
  Al0+  Al83  1  0.93022040  0.81978144  0.98652576  1
  Al0+  Al84  1  0.56811587  0.17726326  0.31725516  1
  Al0+  Al85  1  0.68061782  0.42633451  0.68240640  1
  Al0+  Al86  1  0.17637505  0.92995327  0.35083655  1
  Al0+  Al87  1  0.93180415  0.32074901  0.65342268  1
  Al0+  Al88  1  0.92899445  0.32360421  0.31826748  1
  Al0+  Al89  1  0.57072192  0.67990423  0.98696698  1
  Al0+  Al90  1  0.57293815  0.67875420  0.64881206  1
  Al0+  Al91  1  0.82028552  0.57002479  0.01511682  1
  Al0+  Al92  1  0.82056187  0.56927645  0.34641380  1
  Al0+  Al93  1  0.32112231  0.56989912  0.68143960  1
  Al0+  Al94  1  0.67989920  0.92862399  0.34749773  1
  Al0+  Al95  1  0.32159592  0.07318866  0.01446151  1
  Si0+  Si96  1  0.67689418  0.42659283  0.01884246  1
  Si0+  Si97  1  0.82058036  0.07469331  0.34785955  1
  Si0+  Si98  1  0.57176897  0.17360650  0.98438850  1
  Si0+  Si99  1  0.07156558  0.17493203  0.64774370  1
  Si0+  Si100  1  0.82236281  0.06968602  0.68141131  1
  Si0+  Si101  1  0.32038733  0.07024716  0.68225117  1
  Si0+  Si102  1  0.17783652  0.42880382  0.34984081  1
  Si0+  Si103  1  0.92897990  0.82244653  0.65130947  1
  Si0+  Si104  1  0.07247172  0.17898264  0.31723292  1
  Si0+  Si105  1  0.67785256  0.92977953  0.68319601  1
  Si0+  Si106  1  0.17935162  0.43052586  0.01397127  1
  Si0+  Si107  1  0.42638359  0.82138039  0.98701550  1
  Si0+  Si108  1  0.42721493  0.32299821  0.31752436  1
  Si0+  Si109  1  0.07053777  0.68007604  0.65174340  1
  Si0+  Si110  1  0.67872070  0.42591218  0.34856586  1
  Si0+  Si111  1  0.68077742  0.92852593  0.01342732  1
  Si0+  Si112  1  0.42764441  0.82008876  0.31739318  1
  Si0+  Si113  1  0.32425615  0.57002196  0.01293725  1
  Si0+  Si114  1  0.57049599  0.67864198  0.31869085  1
  Si0+  Si115  1  0.17834033  0.42659877  0.68365606  1
  Si0+  Si116  1  0.07598921  0.67766651  0.98269729  1
  Si0+  Si117  1  0.07439072  0.67976331  0.31611724  1
  Si0+  Si118  1  0.17687018  0.92945873  0.68361968  1
  Si0+  Si119  1  0.81992804  0.07268489  0.01373795  1
  O2-  O120  1  0.24892088  0.00095456  0.06343012  1
  O2-  O121  1  0.24947359  -0.00011368  0.40224593  1
  O2-  O122  1  0.24793125  0.00061138  0.72481738  1
  O2-  O123  1  0.25212356  0.50060308  0.05580995  1
  O2-  O124  1  0.25009932  0.49421945  0.39265352  1
  O2-  O125  1  0.25267419  0.48911594  0.72872933  1
  O2-  O126  1  0.74705026  0.00363209  0.05608445  1
  O2-  O127  1  0.75287457  0.00577078  0.39391825  1
  O2-  O128  1  0.74960007  0.00055024  0.72485450  1
  O2-  O129  1  0.75005085  0.49109640  0.06253598  1
  O2-  O130  1  0.75136757  0.49015228  0.39259858  1
  O2-  O131  1  0.75083246  0.50049628  0.73265276  1
  O2-  O132  1  0.00354683  0.24769275  0.27340034  1
  O2-  O133  1  0.00605114  0.24663635  0.60405222  1
  O2-  O134  1  -0.00222722  0.25092598  0.93462080  1
  O2-  O135  1  0.00520773  0.74816747  0.27269155  1
  O2-  O136  1  -0.00421353  0.74754211  0.61019036  1
  O2-  O137  1  0.00748861  0.74760318  0.93992553  1
  O2-  O138  1  0.49076708  0.25022793  0.27212084  1
  O2-  O139  1  0.50038571  0.25078051  0.60085123  1
  O2-  O140  1  0.50189898  0.24126843  0.94212426  1
  O2-  O141  1  0.49759962  0.74757656  0.27505311  1
  O2-  O142  1  0.49720870  0.74738490  0.59926184  1
  O2-  O143  1  0.49176638  0.75082699  0.94173297  1
  O2-  O144  1  0.06845554  0.18206315  0.09944529  1
  O2-  O145  1  0.07088949  0.17995831  0.42305741  1
  O2-  O146  1  0.06947275  0.17176418  0.75306100  1
  O2-  O147  1  0.07929606  0.67492485  0.08785544  1
  O2-  O148  1  0.07389991  0.67906482  0.42201542  1
  O2-  O149  1  0.07337468  0.68206609  0.75682007  1
  O2-  O150  1  0.57246233  0.17286704  0.08992458  1
  O2-  O151  1  0.56955790  0.17938595  0.42978894  1
  O2-  O152  1  0.56799278  0.17579077  0.76597454  1
  O2-  O153  1  0.57000992  0.68166659  0.10092579  1
  O2-  O154  1  0.56987222  0.67979819  0.42316695  1
  O2-  O155  1  0.57313628  0.68314174  0.76274462  1
  O2-  O156  1  0.17754869  0.42974344  0.24385698  1
  O2-  O157  1  0.17497000  0.43152047  0.57811946  1
  O2-  O158  1  0.17826206  0.43246809  0.90900979  1
  O2-  O159  1  0.17666329  0.93129549  0.23762326  1
  O2-  O160  1  0.17367204  0.93044503  0.57887925  1
  O2-  O161  1  0.17926715  0.92818215  0.90159814  1
  O2-  O162  1  0.67474198  0.42966611  0.24291923  1
  O2-  O163  1  0.68582599  0.42487835  0.56830142  1
  O2-  O164  1  0.67405910  0.42743636  0.91381648  1
  O2-  O165  1  0.68176476  0.92697011  0.23376024  1
  O2-  O166  1  0.67940294  0.92902230  0.57817212  1
  O2-  O167  1  0.68120452  0.92937968  0.90811824  1
  O2-  O168  1  0.43191222  0.32262247  0.10126091  1
  O2-  O169  1  0.43031286  0.32556363  0.42245476  1
  O2-  O170  1  0.42670922  0.31755198  0.76336844  1
  O2-  O171  1  0.42858930  0.82004094  0.09278936  1
  O2-  O172  1  0.42834361  0.81936477  0.42230651  1
  O2-  O173  1  0.42862004  0.82015746  0.76610625  1
  O2-  O174  1  0.93137493  0.32413714  0.09729131  1
  O2-  O175  1  0.92974284  0.32312452  0.43163355  1
  O2-  O176  1  0.93360624  0.31883977  0.76613104  1
  O2-  O177  1  0.92696615  0.81865511  0.09946122  1
  O2-  O178  1  0.92831147  0.81666125  0.43468473  1
  O2-  O179  1  0.93142965  0.82612999  0.75634474  1
  O2-  O180  1  0.31961627  0.07152112  0.23820660  1
  O2-  O181  1  0.31944390  0.06852174  0.57746298  1
  O2-  O182  1  0.32232575  0.07055953  0.90033970  1
  O2-  O183  1  0.32334190  0.56834822  0.23176517  1
  O2-  O184  1  0.31580305  0.57171746  0.56839846  1
  O2-  O185  1  0.32313839  0.56980407  0.90806698  1
  O2-  O186  1  0.81914481  0.07278500  0.24196196  1
  O2-  O187  1  0.82603387  0.06649095  0.57655297  1
  O2-  O188  1  0.81873911  0.07121126  0.90822217  1
  O2-  O189  1  0.81737324  0.57178364  0.23318843  1
  O2-  O190  1  0.82417479  0.57131148  0.56988660  1
  O2-  O191  1  0.81774390  0.57144284  0.90262506  1
  O2-  O192  1  0.04718062  0.08535804  0.27192434  1
  O2-  O193  1  0.04182607  0.08256331  0.60066454  1
  O2-  O194  1  0.04148662  0.08241832  0.93094266  1
  O2-  O195  1  0.05075604  0.58612005  0.26941792  1
  O2-  O196  1  0.04731302  0.58781821  0.60344663  1
  O2-  O197  1  0.04893477  0.58566404  0.93469413  1
  O2-  O198  1  0.53989986  0.07865952  0.26510637  1
  O2-  O199  1  0.54117379  0.08027922  0.59928872  1
  O2-  O200  1  0.54921264  0.07872686  0.93895765  1
  O2-  O201  1  0.54448057  0.58589571  0.27145090  1
  O2-  O202  1  0.54961801  0.57911787  0.59826169  1
  O2-  O203  1  0.54335439  0.58352805  0.93248062  1
  O2-  O204  1  0.16654255  0.20557492  0.27232936  1
  O2-  O205  1  0.16579730  0.19651056  0.60210923  1
  O2-  O206  1  0.16778745  0.20893736  0.93171883  1
  O2-  O207  1  0.16865919  0.70441134  0.27051851  1
  O2-  O208  1  0.15990149  0.71221196  0.60240815  1
  O2-  O209  1  0.16949703  0.70355487  0.93511126  1
  O2-  O210  1  0.66292064  0.20732917  0.25859431  1
  O2-  O211  1  0.67088325  0.20185200  0.59915043  1
  O2-  O212  1  0.66523465  0.19899845  0.93808170  1
  O2-  O213  1  0.66112156  0.71102181  0.27182118  1
  O2-  O214  1  0.67035424  0.71284408  0.59655759  1
  O2-  O215  1  0.66347023  0.71589760  0.93041325  1
  O2-  O216  1  0.08945088  0.46054861  0.06398935  1
  O2-  O217  1  0.08688135  0.46051822  0.39792910  1
  O2-  O218  1  0.08870969  0.46050752  0.73287506  1
  O2-  O219  1  0.07654164  0.95739826  0.06587920  1
  O2-  O220  1  0.07782305  0.95909689  0.40481287  1
  O2-  O221  1  0.08488890  0.95808932  0.73137127  1
  O2-  O222  1  0.58550596  0.45834161  0.06703927  1
  O2-  O223  1  0.58735490  0.45440969  0.39722024  1
  O2-  O224  1  0.58119739  0.45286446  0.73383863  1
  O2-  O225  1  0.58793319  0.95045234  0.06222551  1
  O2-  O226  1  0.58343605  0.95675469  0.40196782  1
  O2-  O227  1  0.58607712  0.95783849  0.73065804  1
  O2-  O228  1  0.20673965  0.33918039  0.06173917  1
  O2-  O229  1  0.19651860  0.33482237  0.39730275  1
  O2-  O230  1  0.19563503  0.32937587  0.72547961  1
  O2-  O231  1  0.20173744  0.82952204  0.07015294  1
  O2-  O232  1  0.20345754  0.83084905  0.40297123  1
  O2-  O233  1  0.20324069  0.83760706  0.73109124  1
  O2-  O234  1  0.69667669  0.33050051  0.06324943  1
  O2-  O235  1  0.70109735  0.32980413  0.38973442  1
  O2-  O236  1  0.70939988  0.32738991  0.73505641  1
  O2-  O237  1  0.71320516  0.83836732  0.06057486  1
  O2-  O238  1  0.71341120  0.83488589  0.40492590  1
  O2-  O239  1  0.70754594  0.83922575  0.73177210  1
  O2-  O240  1  0.45809270  0.41518115  0.26982200  1
  O2-  O241  1  0.45402890  0.42146650  0.59946096  1
  O2-  O242  1  0.46428310  0.41370979  0.93165581  1
  O2-  O243  1  0.45740370  0.91102653  0.27041643  1
  O2-  O244  1  0.45666184  0.91659998  0.59835528  1
  O2-  O245  1  0.45468875  0.91432589  0.94090397  1
  O2-  O246  1  0.96373747  0.41953542  0.26500144  1
  O2-  O247  1  0.96439185  0.41773068  0.60048313  1
  O2-  O248  1  0.95993284  0.42288531  0.93245880  1
  O2-  O249  1  0.95449226  0.91925229  0.26959671  1
  O2-  O250  1  0.96060830  0.91246523  0.60241122  1
  O2-  O251  1  0.95666926  0.91630152  0.92986161  1
  O2-  O252  1  0.33031110  0.30315379  0.27550140  1
  O2-  O253  1  0.32782073  0.29540688  0.59724117  1
  O2-  O254  1  0.33324102  0.29548486  0.93208554  1
  O2-  O255  1  0.33517351  0.79222496  0.27144324  1
  O2-  O256  1  0.32689409  0.79302233  0.60044838  1
  O2-  O257  1  0.33126077  0.79971119  0.94278474  1
  O2-  O258  1  0.83355357  0.29491651  0.26134241  1
  O2-  O259  1  0.83683548  0.28770254  0.59857598  1
  O2-  O260  1  0.82750141  0.29782541  0.93365749  1
  O2-  O261  1  0.83198920  0.78665453  0.26776048  1
  O2-  O262  1  0.83539900  0.79987800  0.60619937  1
  O2-  O263  1  0.83582159  0.78696380  0.92942395  1
  O2-  O264  1  0.41989840  0.04384849  0.06852330  1
  O2-  O265  1  0.41887972  0.04091628  0.40372681  1
  O2-  O266  1  0.41174238  0.04092850  0.72951589  1
  O2-  O267  1  0.41575186  0.54016168  0.05979917  1
  O2-  O268  1  0.41952201  0.54043856  0.40112242  1
  O2-  O269  1  0.41983353  0.54550951  0.73318561  1
  O2-  O270  1  0.91072693  0.04298714  0.06069111  1
  O2-  O271  1  0.91418359  0.05237397  0.39464517  1
  O2-  O272  1  0.91277815  0.03852768  0.73099998  1
  O2-  O273  1  0.91969996  0.54611354  0.06789959  1
  O2-  O274  1  0.92032857  0.54541700  0.39738118  1
  O2-  O275  1  0.92306402  0.54605639  0.73492204  1
  O2-  O276  1  0.29398262  0.17243438  0.06636673  1
  O2-  O277  1  0.29448978  0.17141762  0.40476890  1
  O2-  O278  1  0.29318173  0.16342749  0.72748958  1
  O2-  O279  1  0.29806744  0.66205235  0.06100164  1
  O2-  O280  1  0.29170861  0.66499650  0.40153064  1
  O2-  O281  1  0.28323424  0.66461741  0.73611149  1
  O2-  O282  1  0.79514124  0.16561372  0.06096087  1
  O2-  O283  1  0.79264049  0.16905170  0.39092208  1
  O2-  O284  1  0.79627151  0.16139773  0.72883521  1
  O2-  O285  1  0.78370643  0.66642597  0.06739461  1
  O2-  O286  1  0.78662666  0.66338197  0.40223076  1
  O2-  O287  1  0.79564486  0.67304983  0.73399333  1
