# generated using pymatgen
data_Ca2Al2SiO7
_symmetry_space_group_name_H-M   'P 1'
_cell_length_a   15.46079306
_cell_length_b   15.46303534
_cell_length_c   15.28736871
_cell_angle_alpha   90.00265623
_cell_angle_beta   90.00587156
_cell_angle_gamma   90.01176831
_symmetry_Int_Tables_number   1
_chemical_formula_structural   Ca2Al2SiO7
_chemical_formula_sum   'Ca48 Al48 Si24 O168'
_cell_volume   3654.76320430
_cell_formula_units_Z   24
loop_
 _symmetry_equiv_pos_site_id
 _symmetry_equiv_pos_as_xyz
  1  'x, y, z'
loop_
 _atom_type_symbol
 _atom_type_oxidation_number
  Ca2+  2.0
  Al0+  0.0
  Si0+  0.0
  O2-  -2.0
loop_
 _atom_site_type_symbol
 _atom_site_label
 _atom_site_symmetry_multiplicity
 _atom_site_fract_x
 _atom_site_fract_y
 _atom_site_fract_z
 _atom_site_occupancy
  Ca2+  Ca0  1  0.16966515  0.07415193  0.17488639  1
  Ca2+  Ca1  1  0.16975272  0.06864209  0.51062482  1
  Ca2+  Ca2  1  0.16613119  0.07913831  0.82862308  1
  Ca2+  Ca3  1  0.16608796  0.58973208  0.16525381  1
  Ca2+  Ca4  1  0.16935595  0.59069813  0.50810955  1
  Ca2+  Ca5  1  0.17586672  0.58984716  0.83915680  1
  Ca2+  Ca6  1  0.67139292  0.07924226  0.17368329  1
  Ca2+  Ca7  1  0.67579024  0.08120742  0.50625696  1
  Ca2+  Ca8  1  0.66928234  0.06904606  0.83240658  1
  Ca2+  Ca9  1  0.66781321  0.57558680  0.17239425  1
  Ca2+  Ca10  1  0.66622477  0.57508087  0.51144226  1
  Ca2+  Ca11  1  0.66911518  0.58745153  0.83069762  1
  Ca2+  Ca12  1  0.08522161  0.33237432  0.15876429  1
  Ca2+  Ca13  1  0.08305100  0.32347397  0.50073256  1
  Ca2+  Ca14  1  0.08964153  0.32768897  0.82679806  1
  Ca2+  Ca15  1  0.07441590  0.82916017  0.16562225  1
  Ca2+  Ca16  1  0.08602374  0.82626801  0.49328947  1
  Ca2+  Ca17  1  0.08166551  0.82483678  0.82622798  1
  Ca2+  Ca18  1  0.58294315  0.32841069  0.16442481  1
  Ca2+  Ca19  1  0.58921232  0.33040653  0.49358623  1
  Ca2+  Ca20  1  0.57717501  0.33727800  0.82729259  1
  Ca2+  Ca21  1  0.57731080  0.83849363  0.16238236  1
  Ca2+  Ca22  1  0.57215262  0.84194132  0.50132757  1
  Ca2+  Ca23  1  0.57967559  0.83153903  0.82182705  1
  Ca2+  Ca24  1  0.33244728  0.42058683  0.16231402  1
  Ca2+  Ca25  1  0.33185772  0.42708012  0.50769254  1
  Ca2+  Ca26  1  0.33072205  0.42932271  0.84173613  1
  Ca2+  Ca27  1  0.32561894  0.91051999  0.17538628  1
  Ca2+  Ca28  1  0.32656958  0.91212922  0.50797899  1
  Ca2+  Ca29  1  0.32943011  0.91456164  0.82876288  1
  Ca2+  Ca30  1  0.82844355  0.41935552  0.17564909  1
  Ca2+  Ca31  1  0.82229194  0.42361970  0.50764968  1
  Ca2+  Ca32  1  0.83111082  0.42375726  0.82834532  1
  Ca2+  Ca33  1  0.83428306  0.91611094  0.17110676  1
  Ca2+  Ca34  1  0.83372632  0.92368470  0.50687990  1
  Ca2+  Ca35  1  0.82366422  0.90891895  0.83612550  1
  Ca2+  Ca36  1  0.42489171  0.17196765  0.16104132  1
  Ca2+  Ca37  1  0.42359150  0.16304830  0.49634621  1
  Ca2+  Ca38  1  0.40993383  0.17447568  0.82656996  1
  Ca2+  Ca39  1  0.41543087  0.66994182  0.16562572  1
  Ca2+  Ca40  1  0.41786072  0.67635487  0.50344963  1
  Ca2+  Ca41  1  0.41944534  0.66707022  0.82148760  1
  Ca2+  Ca42  1  0.91463776  0.16535259  0.16699153  1
  Ca2+  Ca43  1  0.91680146  0.15728121  0.49850037  1
  Ca2+  Ca44  1  0.92020257  0.16842457  0.82391337  1
  Ca2+  Ca45  1  0.92575113  0.67663871  0.15927985  1
  Ca2+  Ca46  1  0.92466419  0.67096716  0.49525113  1
  Ca2+  Ca47  1  0.92688480  0.66617717  0.82631372  1
  Al0+  Al48  1  -0.00113503  0.00120165  -0.00346472  1
  Al0+  Al49  1  0.00156412  -0.00125850  0.33650457  1
  Al0+  Al50  1  0.00174063  0.00075998  0.67084260  1
  Al0+  Al51  1  0.00005844  0.49917999  0.00007173  1
  Al0+  Al52  1  0.00134646  0.49774029  0.33059473  1
  Al0+  Al53  1  -0.00223074  0.49740873  0.66401048  1
  Al0+  Al54  1  0.50218146  0.00059322  0.00330871  1
  Al0+  Al55  1  0.50064535  0.00212869  0.32220866  1
  Al0+  Al56  1  0.49921142  0.00364221  0.67020753  1
  Al0+  Al57  1  0.49911139  0.49939618  0.00189198  1
  Al0+  Al58  1  0.49778877  0.49957705  0.33648799  1
  Al0+  Al59  1  0.49756437  0.50011416  0.66891706  1
  Al0+  Al60  1  0.25172645  0.25131277  0.00033148  1
  Al0+  Al61  1  0.25094481  0.25181976  0.33282292  1
  Al0+  Al62  1  0.24892511  0.24911682  0.66097928  1
  Al0+  Al63  1  0.25071502  0.75157501  0.00258095  1
  Al0+  Al64  1  0.25139691  0.74859034  0.32916514  1
  Al0+  Al65  1  0.24995698  0.75036708  0.66812794  1
  Al0+  Al66  1  0.75122134  0.24772962  -0.00218629  1
  Al0+  Al67  1  0.74998268  0.24904234  0.33554869  1
  Al0+  Al68  1  0.74845069  0.25137376  0.67556718  1
  Al0+  Al69  1  0.74798283  0.75052476  0.00437477  1
  Al0+  Al70  1  0.74913502  0.74979298  0.33087274  1
  Al0+  Al71  1  0.75088719  0.74730414  0.66850601  1
  Al0+  Al72  1  0.43110758  0.31974576  0.98526356  1
  Al0+  Al73  1  0.43036470  0.82334283  0.65352703  1
  Al0+  Al74  1  0.92753010  0.82307352  0.31989911  1
  Al0+  Al75  1  0.67933141  0.43066789  0.34553341  1
  Al0+  Al76  1  0.92713957  0.82198950  0.98305380  1
  Al0+  Al77  1  0.07043124  0.17813926  0.65153471  1
  Al0+  Al78  1  0.82321985  0.57174927  0.68092854  1
  Al0+  Al79  1  0.67669002  0.42985216  0.68352843  1
  Al0+  Al80  1  0.82258399  0.07127388  0.68318562  1
  Al0+  Al81  1  0.18197798  0.92877541  0.34606428  1
  Al0+  Al82  1  0.07149604  0.67685963  0.31718496  1
  Al0+  Al83  1  0.32150573  0.07309702  0.68031490  1
  Al0+  Al84  1  0.57270434  0.67727665  0.65227225  1
  Al0+  Al85  1  0.17875662  0.42874721  0.01464081  1
  Al0+  Al86  1  0.67933632  0.92838263  0.01658566  1
  Al0+  Al87  1  0.07054721  0.67853268  0.65340685  1
  Al0+  Al88  1  0.32203560  0.57337266  0.01790592  1
  Al0+  Al89  1  0.07102721  0.67958094  0.98276036  1
  Al0+  Al90  1  0.67885785  0.92830721  0.67900975  1
  Al0+  Al91  1  0.82010681  0.06855967  0.34631728  1
  Al0+  Al92  1  0.43138356  0.82002438  0.31907634  1
  Al0+  Al93  1  0.57212178  0.18115176  0.31966177  1
  Al0+  Al94  1  0.17941320  0.92710726  0.68295348  1
  Al0+  Al95  1  0.31783180  0.57087641  0.67870082  1
  Si0+  Si96  1  0.32112453  0.07232907  0.01584095  1
  Si0+  Si97  1  0.92733399  0.82227109  0.65105982  1
  Si0+  Si98  1  0.56948797  0.67837756  0.98731935  1
  Si0+  Si99  1  0.92693629  0.32154904  0.98499937  1
  Si0+  Si100  1  0.17738423  0.42691692  0.67973168  1
  Si0+  Si101  1  0.57141319  0.67470161  0.31705737  1
  Si0+  Si102  1  0.31898084  0.56973242  0.34990444  1
  Si0+  Si103  1  0.57335048  0.17738231  0.97998192  1
  Si0+  Si104  1  0.67962440  0.42754244  0.01526695  1
  Si0+  Si105  1  0.82366120  0.57258121  0.34802160  1
  Si0+  Si106  1  0.07164525  0.18014989  0.98623863  1
  Si0+  Si107  1  0.93011689  0.31864818  0.31912397  1
  Si0+  Si108  1  0.42654042  0.32426993  0.31560181  1
  Si0+  Si109  1  0.92542657  0.32008072  0.64839869  1
  Si0+  Si110  1  0.42808295  0.32166621  0.65011168  1
  Si0+  Si111  1  0.17698306  0.42585945  0.35035025  1
  Si0+  Si112  1  0.42939541  0.82295886  0.98548264  1
  Si0+  Si113  1  0.82089390  0.57024599  0.01626998  1
  Si0+  Si114  1  0.07253326  0.17889242  0.31835552  1
  Si0+  Si115  1  0.82275225  0.07237444  0.01796993  1
  Si0+  Si116  1  0.57128780  0.18128953  0.65290066  1
  Si0+  Si117  1  0.67479096  0.92673801  0.34892499  1
  Si0+  Si118  1  0.17857686  0.93090428  0.01598104  1
  Si0+  Si119  1  0.32354353  0.07387394  0.34713039  1
  O2-  O120  1  0.25180137  0.00015975  0.05877888  1
  O2-  O121  1  0.25728537  0.00384902  0.39115323  1
  O2-  O122  1  0.25145765  0.00040085  0.73200979  1
  O2-  O123  1  0.24666319  0.50345973  0.06713677  1
  O2-  O124  1  0.24546277  0.49979477  0.39060844  1
  O2-  O125  1  0.24041276  0.49914174  0.72503004  1
  O2-  O126  1  0.75574677  0.00231228  0.06174925  1
  O2-  O127  1  0.74817122  -0.00927706  0.39181306  1
  O2-  O128  1  0.75478175  -0.00498782  0.73191761  1
  O2-  O129  1  0.75139934  0.49699056  0.05867675  1
  O2-  O130  1  0.74997739  0.50894963  0.39153067  1
  O2-  O131  1  0.74699464  0.50411934  0.73227417  1
  O2-  O132  1  0.00255000  0.25005624  0.27450760  1
  O2-  O133  1  -0.00827679  0.24880428  0.60413353  1
  O2-  O134  1  0.00149969  0.25296034  0.94532008  1
  O2-  O135  1  -0.00358251  0.74744721  0.27013904  1
  O2-  O136  1  -0.00377659  0.75363575  0.60693765  1
  O2-  O137  1  -0.00112320  0.75071483  0.93213669  1
  O2-  O138  1  0.49575430  0.25498390  0.27329940  1
  O2-  O139  1  0.50079823  0.25219122  0.60881343  1
  O2-  O140  1  0.50510913  0.24609646  0.93558668  1
  O2-  O141  1  0.50907248  0.74845323  0.27122824  1
  O2-  O142  1  0.50528040  0.75404168  0.60303618  1
  O2-  O143  1  0.49837115  0.74941672  0.94555872  1
  O2-  O144  1  0.07062231  0.17941108  0.09195898  1
  O2-  O145  1  0.07319762  0.18097043  0.42281314  1
  O2-  O146  1  0.07268849  0.18393186  0.76510297  1
  O2-  O147  1  0.06849137  0.68149437  0.09639665  1
  O2-  O148  1  0.07151687  0.67663679  0.43079670  1
  O2-  O149  1  0.07101588  0.67856842  0.76620188  1
  O2-  O150  1  0.57366670  0.18006350  0.08596730  1
  O2-  O151  1  0.57159829  0.18227439  0.43278044  1
  O2-  O152  1  0.56984665  0.18285232  0.75793616  1
  O2-  O153  1  0.56913921  0.67763828  0.09286328  1
  O2-  O154  1  0.56790014  0.67032203  0.42164405  1
  O2-  O155  1  0.56837028  0.67656632  0.76652074  1
  O2-  O156  1  0.17786619  0.42035977  0.24573244  1
  O2-  O157  1  0.18088122  0.42578570  0.57363470  1
  O2-  O158  1  0.18225175  0.42399853  0.90157277  1
  O2-  O159  1  0.18216108  0.93267268  0.23208853  1
  O2-  O160  1  0.18069580  0.92684534  0.56919941  1
  O2-  O161  1  0.17918912  0.93213550  0.91143351  1
  O2-  O162  1  0.68199361  0.43054297  0.23154773  1
  O2-  O163  1  0.67890610  0.42773256  0.56967262  1
  O2-  O164  1  0.67965758  0.42838136  0.91091342  1
  O2-  O165  1  0.67378632  0.93046305  0.24313860  1
  O2-  O166  1  0.67673287  0.93368182  0.56532721  1
  O2-  O167  1  0.67663567  0.92917457  0.90404148  1
  O2-  O168  1  0.43356677  0.31739321  0.09871534  1
  O2-  O169  1  0.42433622  0.32509976  0.42099432  1
  O2-  O170  1  0.42718529  0.32071516  0.75524984  1
  O2-  O171  1  0.43055615  0.82333125  0.09100506  1
  O2-  O172  1  0.43014104  0.82044386  0.43144403  1
  O2-  O173  1  0.43071547  0.82121725  0.76753403  1
  O2-  O174  1  0.92338150  0.31934783  0.09056239  1
  O2-  O175  1  0.93127834  0.31874561  0.42355976  1
  O2-  O176  1  0.92760110  0.32084568  0.75435800  1
  O2-  O177  1  0.92954408  0.82197704  0.09681003  1
  O2-  O178  1  0.92897564  0.82364092  0.43321661  1
  O2-  O179  1  0.92813497  0.82037470  0.75668175  1
  O2-  O180  1  0.31983020  0.07576326  0.24097823  1
  O2-  O181  1  0.32060300  0.07471807  0.56656327  1
  O2-  O182  1  0.31971396  0.07362488  0.91129068  1
  O2-  O183  1  0.32150754  0.56788896  0.24491436  1
  O2-  O184  1  0.31795250  0.56902721  0.56509451  1
  O2-  O185  1  0.32428568  0.57187099  0.90476998  1
  O2-  O186  1  0.81858838  0.07171254  0.23299461  1
  O2-  O187  1  0.81913450  0.07165511  0.56929479  1
  O2-  O188  1  0.82207574  0.07657625  0.91328960  1
  O2-  O189  1  0.82353580  0.56768816  0.24182200  1
  O2-  O190  1  0.82565322  0.56694258  0.56725078  1
  O2-  O191  1  0.81991187  0.56930317  0.91170941  1
  O2-  O192  1  0.04399257  0.08781191  0.27062744  1
  O2-  O193  1  0.04367201  0.08007386  0.59862411  1
  O2-  O194  1  0.04331372  0.08978231  0.93730010  1
  O2-  O195  1  0.04665723  0.57644236  0.26483159  1
  O2-  O196  1  0.04223970  0.58021338  0.60035796  1
  O2-  O197  1  0.04465767  0.57866164  0.93384209  1
  O2-  O198  1  0.54254413  0.08725704  0.25933631  1
  O2-  O199  1  0.54311302  0.09050427  0.60446311  1
  O2-  O200  1  0.54597030  0.08336052  0.93682664  1
  O2-  O201  1  0.53904470  0.58331000  0.26834605  1
  O2-  O202  1  0.53775350  0.58025592  0.59933152  1
  O2-  O203  1  0.54336053  0.58629401  0.94043479  1
  O2-  O204  1  0.16462144  0.20707068  0.27033397  1
  O2-  O205  1  0.16429784  0.21317403  0.59355859  1
  O2-  O206  1  0.16337593  0.20756948  0.93942643  1
  O2-  O207  1  0.16883473  0.70703314  0.26381998  1
  O2-  O208  1  0.16678532  0.71043468  0.59988605  1
  O2-  O209  1  0.17131148  0.70950305  0.93468496  1
  O2-  O210  1  0.66734033  0.21502647  0.26364751  1
  O2-  O211  1  0.66358851  0.21031042  0.60705792  1
  O2-  O212  1  0.66759047  0.20201447  0.93537824  1
  O2-  O213  1  0.66753578  0.69231245  0.27242833  1
  O2-  O214  1  0.67413274  0.69587697  0.60197293  1
  O2-  O215  1  0.66165134  0.70574928  0.94160599  1
  O2-  O216  1  0.07756713  0.45007014  0.06680508  1
  O2-  O217  1  0.08343752  0.44891375  0.39628166  1
  O2-  O218  1  0.08114816  0.44348554  0.72229800  1
  O2-  O219  1  0.08696487  0.96247201  0.06203558  1
  O2-  O220  1  0.08701787  0.96068793  0.40065511  1
  O2-  O221  1  0.08284992  0.95749135  0.73755531  1
  O2-  O222  1  0.58877913  0.45632338  0.06380763  1
  O2-  O223  1  0.58082252  0.45531157  0.39846790  1
  O2-  O224  1  0.57796060  0.45602184  0.73570043  1
  O2-  O225  1  0.58362570  0.96281711  0.07209883  1
  O2-  O226  1  0.58209784  0.95959981  0.39214065  1
  O2-  O227  1  0.58315047  0.96229124  0.73440962  1
  O2-  O228  1  0.21118571  0.33116815  0.07002579  1
  O2-  O229  1  0.20793092  0.33522434  0.39944145  1
  O2-  O230  1  0.20785668  0.33501615  0.72544120  1
  O2-  O231  1  0.20644418  0.83984181  0.06432012  1
  O2-  O232  1  0.21373625  0.83160650  0.39718433  1
  O2-  O233  1  0.21071632  0.83142303  0.73854361  1
  O2-  O234  1  0.70785523  0.33436617  0.06076988  1
  O2-  O235  1  0.71407090  0.33600121  0.39951208  1
  O2-  O236  1  0.70663356  0.33402291  0.74042882  1
  O2-  O237  1  0.70552961  0.83128888  0.07267275  1
  O2-  O238  1  0.69163160  0.82972192  0.39081418  1
  O2-  O239  1  0.70138020  0.82829296  0.73101956  1
  O2-  O240  1  0.45358323  0.41710074  0.26889935  1
  O2-  O241  1  0.45525736  0.41316099  0.60245964  1
  O2-  O242  1  0.46194380  0.41696051  0.93283748  1
  O2-  O243  1  0.45660553  0.91685934  0.26139260  1
  O2-  O244  1  0.45559455  0.92367381  0.60157065  1
  O2-  O245  1  0.45895859  0.91493178  0.94000308  1
  O2-  O246  1  0.95586747  0.41010342  0.26927918  1
  O2-  O247  1  0.95301627  0.41152043  0.59927580  1
  O2-  O248  1  0.95076061  0.41390168  0.93804990  1
  O2-  O249  1  0.96102188  0.92012561  0.26521823  1
  O2-  O250  1  0.95249614  0.91719687  0.60833788  1
  O2-  O251  1  0.95257548  0.92208205  0.93221718  1
  O2-  O252  1  0.33329101  0.29784612  0.26807469  1
  O2-  O253  1  0.33777588  0.29322039  0.60007751  1
  O2-  O254  1  0.33447092  0.28832727  0.93194865  1
  O2-  O255  1  0.33736762  0.78468574  0.26253384  1
  O2-  O256  1  0.33347827  0.79006140  0.60080453  1
  O2-  O257  1  0.33605831  0.79926237  0.94067236  1
  O2-  O258  1  0.83957347  0.28856783  0.27018704  1
  O2-  O259  1  0.82996348  0.29609271  0.60584454  1
  O2-  O260  1  0.83717271  0.29064438  0.93509737  1
  O2-  O261  1  0.82689352  0.80001644  0.26684165  1
  O2-  O262  1  0.83371458  0.79802740  0.60490414  1
  O2-  O263  1  0.82673247  0.79240064  0.93556087  1
  O2-  O264  1  0.41414447  0.04686048  0.06235592  1
  O2-  O265  1  0.41937812  0.05052620  0.38816862  1
  O2-  O266  1  0.41936371  0.05065115  0.73616797  1
  O2-  O267  1  0.41916011  0.53928579  0.07218215  1
  O2-  O268  1  0.40928372  0.53925978  0.39853288  1
  O2-  O269  1  0.41212412  0.53697639  0.73395919  1
  O2-  O270  1  0.91772380  0.04935167  0.06352964  1
  O2-  O271  1  0.91786165  0.04233870  0.39981412  1
  O2-  O272  1  0.92294498  0.05147810  0.73424617  1
  O2-  O273  1  0.91228142  0.54209538  0.06402515  1
  O2-  O274  1  0.91569723  0.54078241  0.39333893  1
  O2-  O275  1  0.91852858  0.53436917  0.73650442  1
  O2-  O276  1  0.29199759  0.16286791  0.06498606  1
  O2-  O277  1  0.29890433  0.16798878  0.39279455  1
  O2-  O278  1  0.28841522  0.17108238  0.73271979  1
  O2-  O279  1  0.29588584  0.67282519  0.07107610  1
  O2-  O280  1  0.29212121  0.66180772  0.39567886  1
  O2-  O281  1  0.29047045  0.66645272  0.73437056  1
  O2-  O282  1  0.79506485  0.16601535  0.06530438  1
  O2-  O283  1  0.78811776  0.16438045  0.40077112  1
  O2-  O284  1  0.79136522  0.16791033  0.73781284  1
  O2-  O285  1  0.78996163  0.66011180  0.06542738  1
  O2-  O286  1  0.80403652  0.66838428  0.39101996  1
  O2-  O287  1  0.80059878  0.66990637  0.73599523  1
