# generated using pymatgen
data_Ca2Al2SiO7
_symmetry_space_group_name_H-M   'P 1'
_cell_length_a   15.45531541
_cell_length_b   15.45562627
_cell_length_c   15.28077706
_cell_angle_alpha   90.00265173
_cell_angle_beta   90.00227681
_cell_angle_gamma   89.98500511
_symmetry_Int_Tables_number   1
_chemical_formula_structural   Ca2Al2SiO7
_chemical_formula_sum   'Ca48 Al48 Si24 O168'
_cell_volume   3650.14320914
_cell_formula_units_Z   24
loop_
 _symmetry_equiv_pos_site_id
 _symmetry_equiv_pos_as_xyz
  1  'x, y, z'
loop_
 _atom_type_symbol
 _atom_type_oxidation_number
  Ca2+  2.0
  Al0+  0.0
  Si0+  0.0
  O2-  -2.0
loop_
 _atom_site_type_symbol
 _atom_site_label
 _atom_site_symmetry_multiplicity
 _atom_site_fract_x
 _atom_site_fract_y
 _atom_site_fract_z
 _atom_site_occupancy
  Ca2+  Ca0  1  0.15936082  0.07525462  0.17144179  1
  Ca2+  Ca1  1  0.16599363  0.08230146  0.50203542  1
  Ca2+  Ca2  1  0.16547798  0.08495373  0.83597657  1
  Ca2+  Ca3  1  0.16365485  0.57555933  0.17327299  1
  Ca2+  Ca4  1  0.17350506  0.57551581  0.50593814  1
  Ca2+  Ca5  1  0.17272066  0.58619275  0.83900261  1
  Ca2+  Ca6  1  0.67479922  0.08167534  0.17771679  1
  Ca2+  Ca7  1  0.67049962  0.07681614  0.50032512  1
  Ca2+  Ca8  1  0.66845204  0.08396713  0.84037248  1
  Ca2+  Ca9  1  0.66376356  0.57981834  0.17052683  1
  Ca2+  Ca10  1  0.66839013  0.58021184  0.50620317  1
  Ca2+  Ca11  1  0.66914494  0.58863212  0.83400812  1
  Ca2+  Ca12  1  0.08944213  0.32095938  0.16487074  1
  Ca2+  Ca13  1  0.08598105  0.32280909  0.49504335  1
  Ca2+  Ca14  1  0.08148931  0.32167897  0.82527521  1
  Ca2+  Ca15  1  0.07491342  0.83934749  0.16090583  1
  Ca2+  Ca16  1  0.07413958  0.83691476  0.49267249  1
  Ca2+  Ca17  1  0.07552147  0.83571915  0.83422587  1
  Ca2+  Ca18  1  0.57592753  0.33263813  0.16147643  1
  Ca2+  Ca19  1  0.57269401  0.33890939  0.49458737  1
  Ca2+  Ca20  1  0.57349134  0.32842426  0.83170369  1
  Ca2+  Ca21  1  0.57931803  0.83447100  0.16568734  1
  Ca2+  Ca22  1  0.57905320  0.82909503  0.49335324  1
  Ca2+  Ca23  1  0.58610923  0.82056053  0.82830684  1
  Ca2+  Ca24  1  0.33315129  0.41464316  0.17330677  1
  Ca2+  Ca25  1  0.33145013  0.41374988  0.50474501  1
  Ca2+  Ca26  1  0.34078637  0.41767856  0.83215975  1
  Ca2+  Ca27  1  0.32139881  0.91485711  0.17526295  1
  Ca2+  Ca28  1  0.32825970  0.91965381  0.50582612  1
  Ca2+  Ca29  1  0.32556763  0.92599150  0.84038892  1
  Ca2+  Ca30  1  0.82432400  0.41964235  0.17736905  1
  Ca2+  Ca31  1  0.82747579  0.41938413  0.50944614  1
  Ca2+  Ca32  1  0.84117603  0.42292840  0.83411593  1
  Ca2+  Ca33  1  0.83177032  0.91843422  0.17662057  1
  Ca2+  Ca34  1  0.83612960  0.91678610  0.49815263  1
  Ca2+  Ca35  1  0.83760886  0.91202850  0.83579545  1
  Ca2+  Ca36  1  0.42130877  0.17923971  0.16085236  1
  Ca2+  Ca37  1  0.40995349  0.17505492  0.49622196  1
  Ca2+  Ca38  1  0.41309690  0.17541990  0.82803984  1
  Ca2+  Ca39  1  0.42094311  0.67361379  0.16422312  1
  Ca2+  Ca40  1  0.41998265  0.66614541  0.49714969  1
  Ca2+  Ca41  1  0.42730066  0.66132152  0.82706977  1
  Ca2+  Ca42  1  0.92592875  0.15853604  0.16630315  1
  Ca2+  Ca43  1  0.92723098  0.16443259  0.49524772  1
  Ca2+  Ca44  1  0.92923176  0.16984896  0.82606505  1
  Ca2+  Ca45  1  0.92302352  0.67861171  0.15998398  1
  Ca2+  Ca46  1  0.91048884  0.67544909  0.49840299  1
  Ca2+  Ca47  1  0.91975485  0.67512704  0.82742050  1
  Al0+  Al48  1  -0.00042653  0.00153623  -0.00490115  1
  Al0+  Al49  1  0.00074522  -0.00032200  0.33377731  1
  Al0+  Al50  1  -0.00163337  -0.00126497  0.66013087  1
  Al0+  Al51  1  0.00149734  0.50298117  0.00100150  1
  Al0+  Al52  1  0.00078711  0.49867819  0.33959267  1
  Al0+  Al53  1  -0.00110864  0.50011568  0.66903948  1
  Al0+  Al54  1  0.50035072  0.00154298  -0.00056589  1
  Al0+  Al55  1  0.50041328  -0.00001472  0.33254965  1
  Al0+  Al56  1  0.49920269  -0.00109952  0.67428256  1
  Al0+  Al57  1  0.50019206  0.50142100  -0.00534261  1
  Al0+  Al58  1  0.50085934  0.50056343  0.33250892  1
  Al0+  Al59  1  0.50008217  0.49856068  0.66291527  1
  Al0+  Al60  1  0.24998605  0.25156357  -0.00720374  1
  Al0+  Al61  1  0.24980295  0.25036458  0.32711745  1
  Al0+  Al62  1  0.25061366  0.24803014  0.66372502  1
  Al0+  Al63  1  0.24935335  0.75093966  0.00296748  1
  Al0+  Al64  1  0.25069247  0.74933765  0.33459324  1
  Al0+  Al65  1  0.24951560  0.74925412  0.67391455  1
  Al0+  Al66  1  0.74885660  0.25169903  -0.00133411  1
  Al0+  Al67  1  0.75092294  0.25114154  0.34464749  1
  Al0+  Al68  1  0.74870507  0.24809966  0.66667749  1
  Al0+  Al69  1  0.74957946  0.75100119  -0.00408101  1
  Al0+  Al70  1  0.75010563  0.75038765  0.33129171  1
  Al0+  Al71  1  0.74951324  0.74735280  0.66205887  1
  Al0+  Al72  1  0.06926293  0.18053963  0.31755966  1
  Al0+  Al73  1  0.32147142  0.57024539  0.68088622  1
  Al0+  Al74  1  0.56876211  0.68150360  0.98660612  1
  Al0+  Al75  1  0.93042767  0.81797973  0.65003213  1
  Al0+  Al76  1  0.92720598  0.32345611  0.65182416  1
  Al0+  Al77  1  0.17951954  0.92796558  0.34728552  1
  Al0+  Al78  1  0.32023845  0.07080510  0.68057114  1
  Al0+  Al79  1  0.17935569  0.93172714  0.01419420  1
  Al0+  Al80  1  0.56911307  0.67960900  0.65097100  1
  Al0+  Al81  1  0.92967919  0.82095606  0.98474149  1
  Al0+  Al82  1  0.18008630  0.42703657  0.34648521  1
  Al0+  Al83  1  0.67784674  0.42985336  0.34721291  1
  Al0+  Al84  1  0.07051358  0.17970803  0.64866981  1
  Al0+  Al85  1  0.67680453  0.92741967  0.34838003  1
  Al0+  Al86  1  0.42733154  0.82306263  0.32129575  1
  Al0+  Al87  1  0.57341700  0.17778253  0.98654023  1
  Al0+  Al88  1  0.43199833  0.31800351  0.65049395  1
  Al0+  Al89  1  0.82264446  0.07043358  0.34981299  1
  Al0+  Al90  1  0.42910799  0.32092651  0.98324738  1
  Al0+  Al91  1  0.93043239  0.81936018  0.31872779  1
  Al0+  Al92  1  0.06890590  0.18011255  0.98613788  1
  Al0+  Al93  1  0.07297674  0.67675908  0.98540966  1
  Al0+  Al94  1  0.82006267  0.57053440  0.68167011  1
  Al0+  Al95  1  0.43031103  0.32098792  0.31926265  1
  Si0+  Si96  1  0.42569858  0.82391046  0.98366516  1
  Si0+  Si97  1  0.67710571  0.42666485  0.68582039  1
  Si0+  Si98  1  0.17887827  0.42896101  0.01420086  1
  Si0+  Si99  1  0.57301722  0.17323612  0.64907005  1
  Si0+  Si100  1  0.67967627  0.92799736  0.68290483  1
  Si0+  Si101  1  0.82123592  0.06979396  0.68319614  1
  Si0+  Si102  1  0.82159190  0.57311797  0.01577606  1
  Si0+  Si103  1  0.17882442  0.42742307  0.68425661  1
  Si0+  Si104  1  0.82230881  0.57204608  0.34917675  1
  Si0+  Si105  1  0.32285629  0.07500200  0.01814357  1
  Si0+  Si106  1  0.32247545  0.57164542  0.34913782  1
  Si0+  Si107  1  0.07558511  0.67692646  0.65002423  1
  Si0+  Si108  1  0.92617459  0.32411588  0.31819433  1
  Si0+  Si109  1  0.17524816  0.92806369  0.68421066  1
  Si0+  Si110  1  0.42666321  0.82311608  0.65340945  1
  Si0+  Si111  1  0.32316530  0.57043404  0.01584285  1
  Si0+  Si112  1  0.67854559  0.92722668  0.01394785  1
  Si0+  Si113  1  0.57124438  0.67921918  0.31631768  1
  Si0+  Si114  1  0.92619338  0.32470506  0.98708952  1
  Si0+  Si115  1  0.32190451  0.07199608  0.34675989  1
  Si0+  Si116  1  0.81947547  0.07175725  0.01269495  1
  Si0+  Si117  1  0.57468672  0.17810187  0.31975125  1
  Si0+  Si118  1  0.07337707  0.67531596  0.31922271  1
  Si0+  Si119  1  0.67916270  0.43111806  0.01398151  1
  O2-  O120  1  0.25592776  0.00473483  0.06237419  1
  O2-  O121  1  0.25711674  0.00026526  0.39241036  1
  O2-  O122  1  0.24526435  -0.00384274  0.72724408  1
  O2-  O123  1  0.25002345  0.50063875  0.05670966  1
  O2-  O124  1  0.25406428  0.50248413  0.39268107  1
  O2-  O125  1  0.24491195  0.49828344  0.72975421  1
  O2-  O126  1  0.74624196  0.00236150  0.05426475  1
  O2-  O127  1  0.74908174  -0.00127710  0.39896089  1
  O2-  O128  1  0.74889881  0.00041752  0.72647134  1
  O2-  O129  1  0.75219228  0.49999127  0.05755645  1
  O2-  O130  1  0.75500391  0.50197455  0.39299762  1
  O2-  O131  1  0.74988287  0.49148276  0.73026662  1
  O2-  O132  1  -0.00665422  0.25550780  0.27151985  1
  O2-  O133  1  -0.00114282  0.25288358  0.59988381  1
  O2-  O134  1  -0.00458281  0.25725157  0.94254225  1
  O2-  O135  1  0.00619907  0.74482205  0.27387221  1
  O2-  O136  1  0.00712649  0.74459446  0.60430817  1
  O2-  O137  1  0.00130372  0.74840112  0.93511341  1
  O2-  O138  1  0.50748764  0.24778435  0.27449833  1
  O2-  O139  1  0.50584378  0.24235896  0.60383122  1
  O2-  O140  1  0.49785605  0.24467235  0.93520076  1
  O2-  O141  1  0.50413761  0.75034896  0.27370004  1
  O2-  O142  1  0.49180233  0.75258336  0.60687632  1
  O2-  O143  1  0.49553978  0.75701449  0.93871129  1
  O2-  O144  1  0.06758699  0.17938542  0.09922566  1
  O2-  O145  1  0.07088894  0.18134943  0.42998429  1
  O2-  O146  1  0.06878786  0.17935166  0.76275840  1
  O2-  O147  1  0.06909091  0.67190422  0.09896371  1
  O2-  O148  1  0.07303998  0.67493898  0.42473339  1
  O2-  O149  1  0.07559051  0.67890779  0.75563249  1
  O2-  O150  1  0.57658055  0.18185913  0.10016852  1
  O2-  O151  1  0.57200007  0.17726759  0.42524061  1
  O2-  O152  1  0.57297823  0.17416517  0.75479998  1
  O2-  O153  1  0.56759290  0.68039221  0.09974374  1
  O2-  O154  1  0.56984905  0.67749980  0.42174388  1
  O2-  O155  1  0.56991807  0.68158928  0.76437973  1
  O2-  O156  1  0.18140477  0.42842025  0.23271551  1
  O2-  O157  1  0.18161766  0.42790973  0.57849793  1
  O2-  O158  1  0.17775618  0.42938575  0.90938494  1
  O2-  O159  1  0.17848972  0.92968444  0.23393773  1
  O2-  O160  1  0.17657126  0.92678751  0.57856255  1
  O2-  O161  1  0.18001136  0.93396098  0.90096717  1
  O2-  O162  1  0.67772123  0.43262879  0.23313642  1
  O2-  O163  1  0.67622947  0.42996754  0.58012878  1
  O2-  O164  1  0.67960886  0.43156919  0.90925626  1
  O2-  O165  1  0.67779309  0.92892551  0.23411461  1
  O2-  O166  1  0.67815908  0.92931767  0.57819902  1
  O2-  O167  1  0.68053519  0.92515553  0.90857736  1
  O2-  O168  1  0.43124550  0.32286923  0.09710093  1
  O2-  O169  1  0.42968078  0.32019308  0.43212193  1
  O2-  O170  1  0.43360742  0.31814911  0.76340482  1
  O2-  O171  1  0.42690570  0.82185844  0.08946048  1
  O2-  O172  1  0.42706454  0.82002017  0.43446387  1
  O2-  O173  1  0.43038018  0.82337076  0.75909109  1
  O2-  O174  1  0.92377231  0.32442023  0.09264684  1
  O2-  O175  1  0.92830934  0.32498037  0.42323368  1
  O2-  O176  1  0.93024330  0.32035971  0.76637018  1
  O2-  O177  1  0.92875761  0.82077167  0.09826479  1
  O2-  O178  1  0.93030263  0.81673686  0.43174938  1
  O2-  O179  1  0.93075140  0.81853495  0.76309187  1
  O2-  O180  1  0.32051897  0.07149524  0.24105055  1
  O2-  O181  1  0.32115946  0.06850817  0.56734925  1
  O2-  O182  1  0.32163753  0.07366099  0.91240869  1
  O2-  O183  1  0.32311164  0.57166437  0.24313460  1
  O2-  O184  1  0.32017882  0.56971737  0.56779401  1
  O2-  O185  1  0.32450338  0.56880015  0.91077775  1
  O2-  O186  1  0.82138451  0.06965128  0.23514225  1
  O2-  O187  1  0.82079413  0.06846642  0.57858842  1
  O2-  O188  1  0.81886590  0.07169040  0.90734684  1
  O2-  O189  1  0.82183895  0.57100836  0.24299338  1
  O2-  O190  1  0.81481079  0.57236173  0.56864748  1
  O2-  O191  1  0.82094149  0.57246015  0.91080150  1
  O2-  O192  1  0.03648469  0.08424403  0.26431043  1
  O2-  O193  1  0.04013439  0.08182074  0.59664027  1
  O2-  O194  1  0.03529625  0.08687271  0.92874156  1
  O2-  O195  1  0.04624344  0.58137114  0.27345540  1
  O2-  O196  1  0.05139396  0.58207046  0.60682019  1
  O2-  O197  1  0.04551759  0.57880396  0.93072349  1
  O2-  O198  1  0.55054115  0.08483498  0.27223492  1
  O2-  O199  1  0.54669204  0.07857938  0.60614046  1
  O2-  O200  1  0.55218707  0.07706383  0.93459217  1
  O2-  O201  1  0.54219559  0.58733283  0.26823531  1
  O2-  O202  1  0.53943969  0.58325890  0.59721861  1
  O2-  O203  1  0.53805019  0.58655692  0.93025128  1
  O2-  O204  1  0.16448808  0.21233430  0.26130590  1
  O2-  O205  1  0.16887139  0.20727044  0.59647480  1
  O2-  O206  1  0.16489066  0.20966329  0.93125238  1
  O2-  O207  1  0.16781684  0.69735000  0.27370761  1
  O2-  O208  1  0.17013798  0.70171128  0.60516653  1
  O2-  O209  1  0.17256094  0.70409352  0.93482901  1
  O2-  O210  1  0.66984235  0.20354824  0.27683230  1
  O2-  O211  1  0.66764092  0.19583050  0.60448658  1
  O2-  O212  1  0.66978005  0.20987256  0.93025551  1
  O2-  O213  1  0.66505899  0.70192064  0.26950800  1
  O2-  O214  1  0.66345029  0.71260187  0.59564479  1
  O2-  O215  1  0.66485713  0.71168994  0.93162476  1
  O2-  O216  1  0.08721739  0.45591603  0.06367748  1
  O2-  O217  1  0.08382662  0.45503090  0.40280776  1
  O2-  O218  1  0.08389001  0.44910975  0.72926118  1
  O2-  O219  1  0.08196707  0.96564483  0.06581307  1
  O2-  O220  1  0.08501032  0.96174351  0.40182510  1
  O2-  O221  1  0.08163801  0.95669308  0.72862048  1
  O2-  O222  1  0.58809827  0.46302493  0.06108203  1
  O2-  O223  1  0.58276736  0.46429264  0.40214368  1
  O2-  O224  1  0.58536224  0.45801456  0.73166984  1
  O2-  O225  1  0.58449875  0.95005411  0.06004958  1
  O2-  O226  1  0.57824494  0.95524208  0.40229086  1
  O2-  O227  1  0.58810054  0.95243632  0.73321744  1
  O2-  O228  1  0.20805753  0.33673469  0.06054711  1
  O2-  O229  1  0.21373420  0.33128012  0.39955572  1
  O2-  O230  1  0.20799627  0.33446850  0.72928631  1
  O2-  O231  1  0.20682745  0.83369588  0.06847493  1
  O2-  O232  1  0.20737946  0.83047179  0.40131266  1
  O2-  O233  1  0.19890101  0.83461789  0.73191794  1
  O2-  O234  1  0.70484988  0.33873844  0.06223195  1
  O2-  O235  1  0.70311342  0.33432759  0.40508100  1
  O2-  O236  1  0.69686515  0.33029786  0.72953786  1
  O2-  O237  1  0.70882855  0.83677672  0.06281416  1
  O2-  O238  1  0.70436584  0.82802478  0.39963647  1
  O2-  O239  1  0.71115308  0.83654151  0.72862979  1
  O2-  O240  1  0.46036039  0.41830595  0.26557834  1
  O2-  O241  1  0.46300353  0.41399153  0.59618481  1
  O2-  O242  1  0.46224313  0.41744398  0.92995721  1
  O2-  O243  1  0.45592771  0.91939568  0.26498104  1
  O2-  O244  1  0.45514249  0.91594593  0.60771204  1
  O2-  O245  1  0.44847663  0.91881537  0.93950120  1
  O2-  O246  1  0.95108927  0.41857905  0.27256434  1
  O2-  O247  1  0.95013130  0.42412178  0.60133897  1
  O2-  O248  1  0.95176716  0.41861584  0.94214113  1
  O2-  O249  1  0.96176818  0.91576832  0.26566638  1
  O2-  O250  1  0.95868909  0.91453921  0.59573131  1
  O2-  O251  1  0.95860512  0.91819811  0.93014397  1
  O2-  O252  1  0.33588282  0.28886177  0.26230415  1
  O2-  O253  1  0.33496116  0.28785555  0.59798930  1
  O2-  O254  1  0.33092880  0.29661854  0.92864573  1
  O2-  O255  1  0.33232954  0.78878871  0.26508751  1
  O2-  O256  1  0.33083266  0.80073185  0.61096329  1
  O2-  O257  1  0.33266731  0.79779117  0.93821010  1
  O2-  O258  1  0.83049732  0.30020667  0.27503456  1
  O2-  O259  1  0.82670340  0.29667192  0.60262384  1
  O2-  O260  1  0.83339604  0.30047745  0.93910455  1
  O2-  O261  1  0.83317902  0.78974614  0.26444495  1
  O2-  O262  1  0.83466137  0.78497087  0.59664046  1
  O2-  O263  1  0.83186113  0.79216123  0.93113647  1
  O2-  O264  1  0.41845970  0.05267357  0.06256538  1
  O2-  O265  1  0.41679611  0.05203362  0.39218287  1
  O2-  O266  1  0.41606738  0.04115816  0.73862051  1
  O2-  O267  1  0.41433997  0.54026306  0.06377656  1
  O2-  O268  1  0.41599965  0.54624007  0.39479020  1
  O2-  O269  1  0.41787942  0.53580280  0.73387254  1
  O2-  O270  1  0.91057017  0.04171664  0.05955819  1
  O2-  O271  1  0.91892982  0.03783610  0.40332502  1
  O2-  O272  1  0.91285160  0.03901018  0.72966010  1
  O2-  O273  1  0.91395108  0.54784775  0.06378394  1
  O2-  O274  1  0.91580296  0.55004728  0.39671731  1
  O2-  O275  1  0.91842536  0.54528381  0.73689420  1
  O2-  O276  1  0.29608307  0.16981258  0.06096844  1
  O2-  O277  1  0.29134555  0.16427830  0.39221435  1
  O2-  O278  1  0.28844779  0.16703536  0.73513883  1
  O2-  O279  1  0.29886206  0.66337908  0.06286734  1
  O2-  O280  1  0.29734709  0.66425466  0.39703571  1
  O2-  O281  1  0.29540139  0.66737924  0.73792185  1
  O2-  O282  1  0.79414048  0.16453534  0.06044423  1
  O2-  O283  1  0.79800261  0.16851597  0.40512687  1
  O2-  O284  1  0.79533641  0.16234578  0.73106905  1
  O2-  O285  1  0.78994202  0.66410961  0.06268122  1
  O2-  O286  1  0.79359762  0.66470013  0.39453650  1
  O2-  O287  1  0.78359203  0.66591689  0.73571632  1
