# generated using pymatgen
data_Ca2Al2SiO7
_symmetry_space_group_name_H-M   'P 1'
_cell_length_a   15.45401426
_cell_length_b   15.45451618
_cell_length_c   15.28043851
_cell_angle_alpha   90.00040837
_cell_angle_beta   89.99933165
_cell_angle_gamma   89.99835525
_symmetry_Int_Tables_number   1
_chemical_formula_structural   Ca2Al2SiO7
_chemical_formula_sum   'Ca48 Al48 Si24 O168'
_cell_volume   3649.49303740
_cell_formula_units_Z   24
loop_
 _symmetry_equiv_pos_site_id
 _symmetry_equiv_pos_as_xyz
  1  'x, y, z'
loop_
 _atom_type_symbol
 _atom_type_oxidation_number
  Ca2+  2.0
  Al0+  0.0
  Si0+  0.0
  O2-  -2.0
loop_
 _atom_site_type_symbol
 _atom_site_label
 _atom_site_symmetry_multiplicity
 _atom_site_fract_x
 _atom_site_fract_y
 _atom_site_fract_z
 _atom_site_occupancy
  Ca2+  Ca0  1  0.16634680  0.08004593  0.17335590  1
  Ca2+  Ca1  1  0.17135323  0.08401570  0.50438644  1
  Ca2+  Ca2  1  0.16119664  0.06980312  0.83820016  1
  Ca2+  Ca3  1  0.17009924  0.57639267  0.17400272  1
  Ca2+  Ca4  1  0.16773375  0.58293457  0.50500684  1
  Ca2+  Ca5  1  0.15816527  0.57082148  0.83314786  1
  Ca2+  Ca6  1  0.67080451  0.08396168  0.17647887  1
  Ca2+  Ca7  1  0.67313970  0.08876389  0.50871521  1
  Ca2+  Ca8  1  0.67014233  0.08543386  0.82622414  1
  Ca2+  Ca9  1  0.67949378  0.58616825  0.17294609  1
  Ca2+  Ca10  1  0.67280599  0.57642555  0.50586326  1
  Ca2+  Ca11  1  0.67231683  0.57822908  0.83577289  1
  Ca2+  Ca12  1  0.09027090  0.31978233  0.16285589  1
  Ca2+  Ca13  1  0.07900379  0.33171869  0.49796202  1
  Ca2+  Ca14  1  0.08183968  0.33181593  0.82700861  1
  Ca2+  Ca15  1  0.08657596  0.82748726  0.16405976  1
  Ca2+  Ca16  1  0.08399384  0.82610575  0.50123691  1
  Ca2+  Ca17  1  0.08323338  0.82785010  0.82046683  1
  Ca2+  Ca18  1  0.57865828  0.33044016  0.16973170  1
  Ca2+  Ca19  1  0.57897434  0.32739306  0.49740067  1
  Ca2+  Ca20  1  0.57902832  0.33020604  0.81858981  1
  Ca2+  Ca21  1  0.57461423  0.83305426  0.16050094  1
  Ca2+  Ca22  1  0.57901281  0.84216063  0.50203094  1
  Ca2+  Ca23  1  0.57300813  0.83738677  0.82472658  1
  Ca2+  Ca24  1  0.32894917  0.41733959  0.17491283  1
  Ca2+  Ca25  1  0.33302405  0.41746898  0.50573285  1
  Ca2+  Ca26  1  0.32128152  0.40981152  0.83396823  1
  Ca2+  Ca27  1  0.32845286  0.91994752  0.17036907  1
  Ca2+  Ca28  1  0.33008089  0.92287370  0.50730628  1
  Ca2+  Ca29  1  0.32463946  0.90979530  0.83578064  1
  Ca2+  Ca30  1  0.83588045  0.42823612  0.17106748  1
  Ca2+  Ca31  1  0.83161947  0.41699118  0.50862012  1
  Ca2+  Ca32  1  0.83138557  0.41732331  0.83281065  1
  Ca2+  Ca33  1  0.82939529  0.92306013  0.17514136  1
  Ca2+  Ca34  1  0.83128479  0.92901833  0.51093659  1
  Ca2+  Ca35  1  0.83418372  0.91887832  0.82952100  1
  Ca2+  Ca36  1  0.41520615  0.16750900  0.17004145  1
  Ca2+  Ca37  1  0.42425178  0.17467981  0.49250457  1
  Ca2+  Ca38  1  0.42453539  0.17282375  0.82173676  1
  Ca2+  Ca39  1  0.41325094  0.67061785  0.16342525  1
  Ca2+  Ca40  1  0.41280329  0.67135438  0.49728043  1
  Ca2+  Ca41  1  0.41263194  0.67861023  0.82789872  1
  Ca2+  Ca42  1  0.92794571  0.16086153  0.16560415  1
  Ca2+  Ca43  1  0.91552661  0.16841089  0.49601078  1
  Ca2+  Ca44  1  0.92224584  0.16959771  0.82492480  1
  Ca2+  Ca45  1  0.91903888  0.66138714  0.16520058  1
  Ca2+  Ca46  1  0.92784783  0.66682622  0.49573815  1
  Ca2+  Ca47  1  0.92111993  0.67144556  0.82327832  1
  Al0+  Al48  1  0.00063826  -0.00136968  0.00144196  1
  Al0+  Al49  1  -0.00305494  -0.00174158  0.33380307  1
  Al0+  Al50  1  0.00139056  -0.00072973  0.67102410  1
  Al0+  Al51  1  0.00009910  0.49818225  0.00919152  1
  Al0+  Al52  1  0.00031319  0.50133389  0.33243512  1
  Al0+  Al53  1  0.00239077  0.49893790  0.66248427  1
  Al0+  Al54  1  0.49993101  0.00045251  -0.00458274  1
  Al0+  Al55  1  0.49738441  0.00061760  0.33149807  1
  Al0+  Al56  1  0.50213479  0.00085551  0.66246811  1
  Al0+  Al57  1  0.50100605  0.49953659  -0.00077819  1
  Al0+  Al58  1  0.49898249  0.50168269  0.33173612  1
  Al0+  Al59  1  0.50033322  0.50232388  0.66927259  1
  Al0+  Al60  1  0.25037322  0.24749618  -0.00139159  1
  Al0+  Al61  1  0.24868048  0.24849888  0.33039552  1
  Al0+  Al62  1  0.25096102  0.25148479  0.66807265  1
  Al0+  Al63  1  0.24864873  0.74957653  -0.00005880  1
  Al0+  Al64  1  0.24802020  0.74747022  0.33178160  1
  Al0+  Al65  1  0.25190760  0.75071104  0.66180549  1
  Al0+  Al66  1  0.75010684  0.25068436  0.00207721  1
  Al0+  Al67  1  0.74901697  0.25071984  0.33032160  1
  Al0+  Al68  1  0.75205214  0.25172431  0.66941949  1
  Al0+  Al69  1  0.74970472  0.75013763  0.00449347  1
  Al0+  Al70  1  0.74942395  0.74978809  0.33825905  1
  Al0+  Al71  1  0.74989308  0.75271498  0.66679271  1
  Al0+  Al72  1  0.92738577  0.82349115  0.65164513  1
  Al0+  Al73  1  0.82037598  0.07139292  0.34610897  1
  Al0+  Al74  1  0.81930872  0.57091526  0.01330173  1
  Al0+  Al75  1  0.18014796  0.42676275  0.01544721  1
  Al0+  Al76  1  0.17936090  0.42901059  0.67891884  1
  Al0+  Al77  1  0.06901650  0.17775133  0.32136059  1
  Al0+  Al78  1  0.42668989  0.32361354  0.65217825  1
  Al0+  Al79  1  0.07130263  0.17755895  0.98494206  1
  Al0+  Al80  1  0.07061166  0.67926097  0.31639881  1
  Al0+  Al81  1  0.17837274  0.92763951  0.01493126  1
  Al0+  Al82  1  0.57175188  0.18067054  0.65148680  1
  Al0+  Al83  1  0.18171082  0.92935606  0.67891056  1
  Al0+  Al84  1  0.42860090  0.81967664  0.98640892  1
  Al0+  Al85  1  0.67898518  0.43015434  0.67933894  1
  Al0+  Al86  1  0.07071224  0.67840708  0.65200935  1
  Al0+  Al87  1  0.67784273  0.92875417  0.68248552  1
  Al0+  Al88  1  0.93059666  0.32029821  0.65471819  1
  Al0+  Al89  1  0.82261299  0.07278086  0.68357349  1
  Al0+  Al90  1  0.42820863  0.32259253  0.31713144  1
  Al0+  Al91  1  0.57149673  0.17833427  0.31659331  1
  Al0+  Al92  1  0.43003059  0.82076804  0.65100310  1
  Al0+  Al93  1  0.82259603  0.57135367  0.35032289  1
  Al0+  Al94  1  0.31959472  0.07099728  0.34717959  1
  Al0+  Al95  1  0.32117000  0.57111515  0.34685202  1
  Si0+  Si96  1  0.92731257  0.82059605  0.98660796  1
  Si0+  Si97  1  0.42827610  0.82052352  0.31772922  1
  Si0+  Si98  1  0.06917980  0.67768244  0.98623068  1
  Si0+  Si99  1  0.07267335  0.17667939  0.65167780  1
  Si0+  Si100  1  0.32352555  0.07048024  0.01580403  1
  Si0+  Si101  1  0.67829176  0.42950484  0.34931936  1
  Si0+  Si102  1  0.57323002  0.17967099  0.98378508  1
  Si0+  Si103  1  0.42961316  0.32166081  0.98446464  1
  Si0+  Si104  1  0.17749265  0.92689085  0.35007682  1
  Si0+  Si105  1  0.67597551  0.92828204  0.34864854  1
  Si0+  Si106  1  0.67750913  0.93043506  0.01522256  1
  Si0+  Si107  1  0.57210643  0.67934200  0.31856740  1
  Si0+  Si108  1  0.57349837  0.67763545  0.65005873  1
  Si0+  Si109  1  0.57423159  0.67836538  0.98385147  1
  Si0+  Si110  1  0.82077759  0.07120441  0.01573449  1
  Si0+  Si111  1  0.92706974  0.32312581  0.31555496  1
  Si0+  Si112  1  0.92659680  0.82031466  0.31574444  1
  Si0+  Si113  1  0.32236224  0.57325737  0.68417923  1
  Si0+  Si114  1  0.67583365  0.42658360  0.01863289  1
  Si0+  Si115  1  0.32283818  0.07275360  0.68291978  1
  Si0+  Si116  1  0.82328969  0.57200790  0.68144639  1
  Si0+  Si117  1  0.17911480  0.42697161  0.35009130  1
  Si0+  Si118  1  0.92876267  0.32228766  0.98475941  1
  Si0+  Si119  1  0.32211174  0.57131780  0.01508451  1
  O2-  O120  1  0.25353629  0.00262615  0.05999118  1
  O2-  O121  1  0.24376614  -0.00227616  0.39392633  1
  O2-  O122  1  0.25468911  0.00441029  0.72872949  1
  O2-  O123  1  0.25724631  0.49994784  0.06055698  1
  O2-  O124  1  0.24879664  0.49486033  0.39349756  1
  O2-  O125  1  0.25536021  0.50228588  0.72746668  1
  O2-  O126  1  0.74813268  0.00140653  0.05798355  1
  O2-  O127  1  0.74263829  -0.00054802  0.39074793  1
  O2-  O128  1  0.75153155  -0.00118633  0.73355608  1
  O2-  O129  1  0.74362994  0.49702247  0.06126935  1
  O2-  O130  1  0.74986500  0.49449004  0.39463167  1
  O2-  O131  1  0.75294199  0.50573279  0.72683325  1
  O2-  O132  1  -0.00557062  0.25235285  0.27234061  1
  O2-  O133  1  0.00351972  0.24446814  0.60750099  1
  O2-  O134  1  -0.00357287  0.25299456  0.94018141  1
  O2-  O135  1  -0.00562579  0.75222443  0.26853853  1
  O2-  O136  1  -0.00239252  0.74974232  0.60223066  1
  O2-  O137  1  -0.00186421  0.74898862  0.94501949  1
  O2-  O138  1  0.49873088  0.24935843  0.26543868  1
  O2-  O139  1  0.49848117  0.25180997  0.60281000  1
  O2-  O140  1  0.50336136  0.25275994  0.94340846  1
  O2-  O141  1  0.50074649  0.75032216  0.27579812  1
  O2-  O142  1  0.50672313  0.74774938  0.60474764  1
  O2-  O143  1  0.50283329  0.74398825  0.93989996  1
  O2-  O144  1  0.06940490  0.17678627  0.09833724  1
  O2-  O145  1  0.06878177  0.17908337  0.43412334  1
  O2-  O146  1  0.07166705  0.17784617  0.75769411  1
  O2-  O147  1  0.06903275  0.67904190  0.09142488  1
  O2-  O148  1  0.07195874  0.68093355  0.42871138  1
  O2-  O149  1  0.06860515  0.67709562  0.76664481  1
  O2-  O150  1  0.57419711  0.17824792  0.08867335  1
  O2-  O151  1  0.57249564  0.17985525  0.42915385  1
  O2-  O152  1  0.56965871  0.18260157  0.76627566  1
  O2-  O153  1  0.57553414  0.68101603  0.08983258  1
  O2-  O154  1  0.57281776  0.67934522  0.42317156  1
  O2-  O155  1  0.57154386  0.67684341  0.75602968  1
  O2-  O156  1  0.18057072  0.42814397  0.24387762  1
  O2-  O157  1  0.17869596  0.42950050  0.56625450  1
  O2-  O158  1  0.17851203  0.42877918  0.90236417  1
  O2-  O159  1  0.17999329  0.92662739  0.24380883  1
  O2-  O160  1  0.18358379  0.93009109  0.56585455  1
  O2-  O161  1  0.17842897  0.92596095  0.90209090  1
  O2-  O162  1  0.67884938  0.43276652  0.24307682  1
  O2-  O163  1  0.68000687  0.43192992  0.56632874  1
  O2-  O164  1  0.67530452  0.42592852  0.91328555  1
  O2-  O165  1  0.67751339  0.92641839  0.24196974  1
  O2-  O166  1  0.67757887  0.93104790  0.56892493  1
  O2-  O167  1  0.67705199  0.92945145  0.91102007  1
  O2-  O168  1  0.43004213  0.32229211  0.08940610  1
  O2-  O169  1  0.43048470  0.32359127  0.42994309  1
  O2-  O170  1  0.42727543  0.32062521  0.76681900  1
  O2-  O171  1  0.43101417  0.81904756  0.10007770  1
  O2-  O172  1  0.42908102  0.82051511  0.42243821  1
  O2-  O173  1  0.42857714  0.81800814  0.76448781  1
  O2-  O174  1  0.92784453  0.32097521  0.09044707  1
  O2-  O175  1  0.92740645  0.32346654  0.42105703  1
  O2-  O176  1  0.93252861  0.32163688  0.76832786  1
  O2-  O177  1  0.92616637  0.82057139  0.09187734  1
  O2-  O178  1  0.92726684  0.82006765  0.42054202  1
  O2-  O179  1  0.92953393  0.82007804  0.76641789  1
  O2-  O180  1  0.31977847  0.06670122  0.23352299  1
  O2-  O181  1  0.32013060  0.07195947  0.57723347  1
  O2-  O182  1  0.32521701  0.06971980  0.91045639  1
  O2-  O183  1  0.31909376  0.57235234  0.23314569  1
  O2-  O184  1  0.32188387  0.57374586  0.57850583  1
  O2-  O185  1  0.32127506  0.57201356  0.90979180  1
  O2-  O186  1  0.82054984  0.06690140  0.23190114  1
  O2-  O187  1  0.82161509  0.07345629  0.57006274  1
  O2-  O188  1  0.82045208  0.07163424  0.91129415  1
  O2-  O189  1  0.81961729  0.57142057  0.23658289  1
  O2-  O190  1  0.82223865  0.56930060  0.57597647  1
  O2-  O191  1  0.81836072  0.57140495  0.90038809  1
  O2-  O192  1  0.03758178  0.08073221  0.26632550  1
  O2-  O193  1  0.04957830  0.08276422  0.60686383  1
  O2-  O194  1  0.03818180  0.08067536  0.93245866  1
  O2-  O195  1  0.04052926  0.58203360  0.26239334  1
  O2-  O196  1  0.04321820  0.58142917  0.59670112  1
  O2-  O197  1  0.03997741  0.58475753  0.94196459  1
  O2-  O198  1  0.54250899  0.07926676  0.26296026  1
  O2-  O199  1  0.54695192  0.08230789  0.59862726  1
  O2-  O200  1  0.54457653  0.08842525  0.93599697  1
  O2-  O201  1  0.54497986  0.58898351  0.26813319  1
  O2-  O202  1  0.54595653  0.58535673  0.60278060  1
  O2-  O203  1  0.55296264  0.58268099  0.93977791  1
  O2-  O204  1  0.16450504  0.20766655  0.26420262  1
  O2-  O205  1  0.16620922  0.20358986  0.60695127  1
  O2-  O206  1  0.16881674  0.20556790  0.93167725  1
  O2-  O207  1  0.16650507  0.71133725  0.26043180  1
  O2-  O208  1  0.16816374  0.70834893  0.59894554  1
  O2-  O209  1  0.16100729  0.70441856  0.93920632  1
  O2-  O210  1  0.66926619  0.20832052  0.26094900  1
  O2-  O211  1  0.67011352  0.21130754  0.60187631  1
  O2-  O212  1  0.66597346  0.20663260  0.93751732  1
  O2-  O213  1  0.66366798  0.70899359  0.27009990  1
  O2-  O214  1  0.66786405  0.70003626  0.60474705  1
  O2-  O215  1  0.66683465  0.70682337  0.93759160  1
  O2-  O216  1  0.08531072  0.45766509  0.07219893  1
  O2-  O217  1  0.08528706  0.45440512  0.39357444  1
  O2-  O218  1  0.08356348  0.46198930  0.73477885  1
  O2-  O219  1  0.08174305  0.95755467  0.07010167  1
  O2-  O220  1  0.08222025  0.94869693  0.39270292  1
  O2-  O221  1  0.08576132  0.95719096  0.73574313  1
  O2-  O222  1  0.58179872  0.45133490  0.06487176  1
  O2-  O223  1  0.58593598  0.45940614  0.39416494  1
  O2-  O224  1  0.58318369  0.46135625  0.73637339  1
  O2-  O225  1  0.58560504  0.95901840  0.06293730  1
  O2-  O226  1  0.58102508  0.95070502  0.39177434  1
  O2-  O227  1  0.57949506  0.95947517  0.73588047  1
  O2-  O228  1  0.21169269  0.32942755  0.06782133  1
  O2-  O229  1  0.20207665  0.33285042  0.39460939  1
  O2-  O230  1  0.20862083  0.33267362  0.73611321  1
  O2-  O231  1  0.21025276  0.83115832  0.06953966  1
  O2-  O232  1  0.20696722  0.83430666  0.39466863  1
  O2-  O233  1  0.21463803  0.83259825  0.73239433  1
  O2-  O234  1  0.70283104  0.33354350  0.06590269  1
  O2-  O235  1  0.70068419  0.33454225  0.39242407  1
  O2-  O236  1  0.71181354  0.33636850  0.73694660  1
  O2-  O237  1  0.70477711  0.83887749  0.06448484  1
  O2-  O238  1  0.70123262  0.83558050  0.39575857  1
  O2-  O239  1  0.70208244  0.82885626  0.73643090  1
  O2-  O240  1  0.45821289  0.42098372  0.26260567  1
  O2-  O241  1  0.45376714  0.42372039  0.60340760  1
  O2-  O242  1  0.45414835  0.41478636  0.93759914  1
  O2-  O243  1  0.45518064  0.91150868  0.26818236  1
  O2-  O244  1  0.45964790  0.91714471  0.59672387  1
  O2-  O245  1  0.46004188  0.91580301  0.93217722  1
  O2-  O246  1  0.95484084  0.41610604  0.26905027  1
  O2-  O247  1  0.96201911  0.41465449  0.59752758  1
  O2-  O248  1  0.95575990  0.41630739  0.94053785  1
  O2-  O249  1  0.95198239  0.91359204  0.26804843  1
  O2-  O250  1  0.95852101  0.92150945  0.60034647  1
  O2-  O251  1  0.95455440  0.91240481  0.94002001  1
  O2-  O252  1  0.33006783  0.29292860  0.26374851  1
  O2-  O253  1  0.32826267  0.29620758  0.59938310  1
  O2-  O254  1  0.33869768  0.29114805  0.93707221  1
  O2-  O255  1  0.33743707  0.79009443  0.26983503  1
  O2-  O256  1  0.33609899  0.78808767  0.59405756  1
  O2-  O257  1  0.33201034  0.78760346  0.93262321  1
  O2-  O258  1  0.83301587  0.30127917  0.26865904  1
  O2-  O259  1  0.83424691  0.29222010  0.60041690  1
  O2-  O260  1  0.83355685  0.29827367  0.94027659  1
  O2-  O261  1  0.83177838  0.79468662  0.27043267  1
  O2-  O262  1  0.82726720  0.80080676  0.60027743  1
  O2-  O263  1  0.83488338  0.79305974  0.94020184  1
  O2-  O264  1  0.41701816  0.04329319  0.06250732  1
  O2-  O265  1  0.41604739  0.03907549  0.40036293  1
  O2-  O266  1  0.41704848  0.04736974  0.72675791  1
  O2-  O267  1  0.41828502  0.55060835  0.05940989  1
  O2-  O268  1  0.41959577  0.54626282  0.39968425  1
  O2-  O269  1  0.41659385  0.55275035  0.73127393  1
  O2-  O270  1  0.91137370  0.04012549  0.06367849  1
  O2-  O271  1  0.91539753  0.03851814  0.40126806  1
  O2-  O272  1  0.92051345  0.04382617  0.73795696  1
  O2-  O273  1  0.91382734  0.53877629  0.07103583  1
  O2-  O274  1  0.92035058  0.54246195  0.40162134  1
  O2-  O275  1  0.91599869  0.54330986  0.72714265  1
  O2-  O276  1  0.29859457  0.16410828  0.06179403  1
  O2-  O277  1  0.28970048  0.16790432  0.40000203  1
  O2-  O278  1  0.29875359  0.16641928  0.72970845  1
  O2-  O279  1  0.29331217  0.66352023  0.06246595  1
  O2-  O280  1  0.28847149  0.66712309  0.40083169  1
  O2-  O281  1  0.29375883  0.66611649  0.72984690  1
  O2-  O282  1  0.79458793  0.16369324  0.06306635  1
  O2-  O283  1  0.79390903  0.17046015  0.39640231  1
  O2-  O284  1  0.79247583  0.16968361  0.73909231  1
  O2-  O285  1  0.78873643  0.66702459  0.07074813  1
  O2-  O286  1  0.78982465  0.66720734  0.40362637  1
  O2-  O287  1  0.79968420  0.66646598  0.72651040  1
