# generated using pymatgen
data_Ca2Al2SiO7
_symmetry_space_group_name_H-M   'P 1'
_cell_length_a   15.45391546
_cell_length_b   15.45345886
_cell_length_c   15.27973672
_cell_angle_alpha   90.01170961
_cell_angle_beta   89.99719518
_cell_angle_gamma   90.00021502
_symmetry_Int_Tables_number   1
_chemical_formula_structural   Ca2Al2SiO7
_chemical_formula_sum   'Ca48 Al48 Si24 O168'
_cell_volume   3649.05235176
_cell_formula_units_Z   24
loop_
 _symmetry_equiv_pos_site_id
 _symmetry_equiv_pos_as_xyz
  1  'x, y, z'
loop_
 _atom_type_symbol
 _atom_type_oxidation_number
  Ca2+  2.0
  Al0+  0.0
  Si0+  0.0
  O2-  -2.0
loop_
 _atom_site_type_symbol
 _atom_site_label
 _atom_site_symmetry_multiplicity
 _atom_site_fract_x
 _atom_site_fract_y
 _atom_site_fract_z
 _atom_site_occupancy
  Ca2+  Ca0  1  0.16501628  0.07573024  0.17290529  1
  Ca2+  Ca1  1  0.17715494  0.07740641  0.49910694  1
  Ca2+  Ca2  1  0.17377159  0.08369132  0.83886007  1
  Ca2+  Ca3  1  0.17166972  0.57647336  0.17245118  1
  Ca2+  Ca4  1  0.17582710  0.57936914  0.50196867  1
  Ca2+  Ca5  1  0.16656199  0.56948375  0.83786410  1
  Ca2+  Ca6  1  0.66952629  0.08021396  0.16964019  1
  Ca2+  Ca7  1  0.67159178  0.07748154  0.50377999  1
  Ca2+  Ca8  1  0.66219845  0.07165073  0.83987254  1
  Ca2+  Ca9  1  0.66870073  0.57872897  0.17332350  1
  Ca2+  Ca10  1  0.66881453  0.59335251  0.49854039  1
  Ca2+  Ca11  1  0.66339761  0.57796108  0.83742372  1
  Ca2+  Ca12  1  0.07924408  0.32827224  0.16076333  1
  Ca2+  Ca13  1  0.07622265  0.33615951  0.49741751  1
  Ca2+  Ca14  1  0.08636484  0.33116559  0.82684689  1
  Ca2+  Ca15  1  0.07383801  0.84514562  0.16168299  1
  Ca2+  Ca16  1  0.07842632  0.83591232  0.48986911  1
  Ca2+  Ca17  1  0.07872828  0.83876500  0.83673001  1
  Ca2+  Ca18  1  0.57892752  0.32871993  0.16120261  1
  Ca2+  Ca19  1  0.56824875  0.33284092  0.49292261  1
  Ca2+  Ca20  1  0.58152882  0.32741696  0.82991192  1
  Ca2+  Ca21  1  0.58167100  0.83100842  0.16503447  1
  Ca2+  Ca22  1  0.57707084  0.82798930  0.49698280  1
  Ca2+  Ca23  1  0.58220570  0.83157234  0.82247533  1
  Ca2+  Ca24  1  0.32999820  0.41813802  0.17376719  1
  Ca2+  Ca25  1  0.33501139  0.41827359  0.50565695  1
  Ca2+  Ca26  1  0.32482139  0.41045358  0.83467374  1
  Ca2+  Ca27  1  0.32086767  0.92008620  0.17933042  1
  Ca2+  Ca28  1  0.34397179  0.92483230  0.50276519  1
  Ca2+  Ca29  1  0.33471601  0.92236635  0.83747742  1
  Ca2+  Ca30  1  0.82620038  0.41711637  0.17582474  1
  Ca2+  Ca31  1  0.83894231  0.42107908  0.50277775  1
  Ca2+  Ca32  1  0.82884445  0.41677411  0.83854162  1
  Ca2+  Ca33  1  0.83289861  0.91869528  0.17347407  1
  Ca2+  Ca34  1  0.83108397  0.92055124  0.50091722  1
  Ca2+  Ca35  1  0.82078877  0.91227602  0.84028286  1
  Ca2+  Ca36  1  0.41727636  0.16748428  0.16613685  1
  Ca2+  Ca37  1  0.40618290  0.17340839  0.49699347  1
  Ca2+  Ca38  1  0.42026167  0.16802048  0.82781199  1
  Ca2+  Ca39  1  0.41459683  0.66888761  0.17109298  1
  Ca2+  Ca40  1  0.42602344  0.67338443  0.48831767  1
  Ca2+  Ca41  1  0.42453024  0.67641275  0.82131045  1
  Ca2+  Ca42  1  0.92054114  0.16641944  0.16284773  1
  Ca2+  Ca43  1  0.91318232  0.17781601  0.49120826  1
  Ca2+  Ca44  1  0.92636856  0.17234863  0.83019249  1
  Ca2+  Ca45  1  0.91104234  0.67734400  0.16760814  1
  Ca2+  Ca46  1  0.91828377  0.67156936  0.48918947  1
  Ca2+  Ca47  1  0.91533400  0.67228639  0.83371249  1
  Al0+  Al48  1  -0.00014393  0.00211635  -0.01012977  1
  Al0+  Al49  1  -0.00158255  0.00115903  0.34029288  1
  Al0+  Al50  1  0.00157655  0.00168723  0.66628290  1
  Al0+  Al51  1  0.00075363  0.50292794  0.00545680  1
  Al0+  Al52  1  -0.00292788  0.49971074  0.33136579  1
  Al0+  Al53  1  0.00048508  0.50098725  0.66890174  1
  Al0+  Al54  1  0.50100592  0.00060714  0.00161391  1
  Al0+  Al55  1  0.49925821  -0.00065414  0.33332667  1
  Al0+  Al56  1  0.50180327  0.00006682  0.67260596  1
  Al0+  Al57  1  0.50054340  0.50110469  0.00303559  1
  Al0+  Al58  1  0.49881887  0.49813803  0.32819548  1
  Al0+  Al59  1  0.50260018  0.50013567  0.66028166  1
  Al0+  Al60  1  0.24939951  0.25160439  0.00132312  1
  Al0+  Al61  1  0.24790002  0.24766787  0.33131072  1
  Al0+  Al62  1  0.25002497  0.24780357  0.67091605  1
  Al0+  Al63  1  0.24864049  0.75098096  0.00167822  1
  Al0+  Al64  1  0.24900664  0.74590360  0.33788964  1
  Al0+  Al65  1  0.24898135  0.75043131  0.66459545  1
  Al0+  Al66  1  0.74842786  0.25032333  -0.00135217  1
  Al0+  Al67  1  0.74871747  0.24988558  0.33435671  1
  Al0+  Al68  1  0.75258780  0.25117130  0.66367136  1
  Al0+  Al69  1  0.74858622  0.75067226  -0.00108276  1
  Al0+  Al70  1  0.75054995  0.74746946  0.32924028  1
  Al0+  Al71  1  0.75225950  0.75017388  0.66793616  1
  Al0+  Al72  1  0.93151785  0.82171981  0.32133707  1
  Al0+  Al73  1  0.57103584  0.67950046  0.31446291  1
  Al0+  Al74  1  0.32234357  0.07064408  0.34786375  1
  Al0+  Al75  1  0.67925791  0.42799569  0.01314730  1
  Al0+  Al76  1  0.82013924  0.07194427  0.34616342  1
  Al0+  Al77  1  0.92749128  0.32211219  0.31842979  1
  Al0+  Al78  1  0.57319200  0.67862525  0.65135847  1
  Al0+  Al79  1  0.93044253  0.32145049  0.65356072  1
  Al0+  Al80  1  0.17872726  0.42818945  0.01527985  1
  Al0+  Al81  1  0.42907038  0.31815834  0.65490950  1
  Al0+  Al82  1  0.07114232  0.18086172  0.98590070  1
  Al0+  Al83  1  0.18056183  0.43148968  0.67883031  1
  Al0+  Al84  1  0.42701200  0.82256087  0.31657055  1
  Al0+  Al85  1  0.17768672  0.92744609  0.34858283  1
  Al0+  Al86  1  0.92866878  0.82049155  0.98529340  1
  Al0+  Al87  1  0.57110605  0.17872009  0.98619687  1
  Al0+  Al88  1  0.42673651  0.31911976  0.31885684  1
  Al0+  Al89  1  0.68365513  0.93064480  0.67949207  1
  Al0+  Al90  1  0.31994879  0.06878003  0.68248536  1
  Al0+  Al91  1  0.17861765  0.93086740  0.01206008  1
  Al0+  Al92  1  0.67815350  0.92814429  0.01526141  1
  Al0+  Al93  1  0.81950412  0.56979132  0.34683701  1
  Al0+  Al94  1  0.42778656  0.82305174  0.65252562  1
  Al0+  Al95  1  0.32200752  0.56811018  0.34788338  1
  Si0+  Si96  1  0.82141856  0.57281196  0.01704881  1
  Si0+  Si97  1  0.82436959  0.07570765  0.68521558  1
  Si0+  Si98  1  0.67845041  0.92655406  0.34911915  1
  Si0+  Si99  1  0.67814883  0.42773605  0.68005111  1
  Si0+  Si100  1  0.67730350  0.42712026  0.35185699  1
  Si0+  Si101  1  0.82152009  0.57027395  0.68260546  1
  Si0+  Si102  1  0.17501956  0.92533667  0.68539732  1
  Si0+  Si103  1  0.57286650  0.17726902  0.31792592  1
  Si0+  Si104  1  0.32499858  0.57285805  0.68250697  1
  Si0+  Si105  1  0.93058050  0.82079707  0.65250602  1
  Si0+  Si106  1  0.82170852  0.07115766  0.01355003  1
  Si0+  Si107  1  0.17685738  0.42677506  0.34940545  1
  Si0+  Si108  1  0.07402228  0.67720089  0.98243067  1
  Si0+  Si109  1  0.57001722  0.67923406  0.98439905  1
  Si0+  Si110  1  0.32210272  0.57277922  0.01559923  1
  Si0+  Si111  1  0.32275277  0.07229095  0.01722374  1
  Si0+  Si112  1  0.57361087  0.17700512  0.65015035  1
  Si0+  Si113  1  0.42730978  0.82061783  0.98612898  1
  Si0+  Si114  1  0.06926705  0.17891431  0.31751399  1
  Si0+  Si115  1  0.07234037  0.67611863  0.31645004  1
  Si0+  Si116  1  0.92798470  0.32481632  0.98459963  1
  Si0+  Si117  1  0.06997685  0.67775489  0.65296330  1
  Si0+  Si118  1  0.07321259  0.17786789  0.64758247  1
  Si0+  Si119  1  0.42895431  0.32361871  0.98314954  1
  O2-  O120  1  0.25317070  0.00422241  0.06013331  1
  O2-  O121  1  0.25635768  -0.00739161  0.39802256  1
  O2-  O122  1  0.24744037  -0.00907561  0.72815455  1
  O2-  O123  1  0.25435428  0.50263288  0.05943061  1
  O2-  O124  1  0.24789409  0.49244270  0.39427206  1
  O2-  O125  1  0.25805536  0.50293325  0.72789471  1
  O2-  O126  1  0.75355175  0.00294080  0.05953787  1
  O2-  O127  1  0.74581184  -0.00303883  0.39300674  1
  O2-  O128  1  0.75679575  0.00612189  0.72916861  1
  O2-  O129  1  0.75682369  0.49967854  0.05959694  1
  O2-  O130  1  0.74572161  0.49598814  0.39672845  1
  O2-  O131  1  0.74902633  0.49955869  0.72266015  1
  O2-  O132  1  0.00131594  0.24766432  0.27181263  1
  O2-  O133  1  0.00163344  0.24446810  0.60494722  1
  O2-  O134  1  -0.00019487  0.25992757  0.93963988  1
  O2-  O135  1  0.00913166  0.75058324  0.27324585  1
  O2-  O136  1  0.00638319  0.75535798  0.61074357  1
  O2-  O137  1  0.00407651  0.74550011  0.93876930  1
  O2-  O138  1  0.50087785  0.24303296  0.27407824  1
  O2-  O139  1  0.50453331  0.24512367  0.60611123  1
  O2-  O140  1  0.49658634  0.25377843  0.93928222  1
  O2-  O141  1  0.49972957  0.75228601  0.26424324  1
  O2-  O142  1  0.49682745  0.74729256  0.60392327  1
  O2-  O143  1  0.49940990  0.75074559  0.94313293  1
  O2-  O144  1  0.06792916  0.17944022  0.09887406  1
  O2-  O145  1  0.06900374  0.18103754  0.42314069  1
  O2-  O146  1  0.07261102  0.17917116  0.75357523  1
  O2-  O147  1  0.07571253  0.67548049  0.08747046  1
  O2-  O148  1  0.06829656  0.67315417  0.42255522  1
  O2-  O149  1  0.06656280  0.67490137  0.75809959  1
  O2-  O150  1  0.57063063  0.17955635  0.09918433  1
  O2-  O151  1  0.57581389  0.18010960  0.42353912  1
  O2-  O152  1  0.57334588  0.17914251  0.75606090  1
  O2-  O153  1  0.57053712  0.67817002  0.08898169  1
  O2-  O154  1  0.57174045  0.68243008  0.42803998  1
  O2-  O155  1  0.57310419  0.67860958  0.76590107  1
  O2-  O156  1  0.17722223  0.42859906  0.24353630  1
  O2-  O157  1  0.17827919  0.43455269  0.56607568  1
  O2-  O158  1  0.17935632  0.42930744  0.90175420  1
  O2-  O159  1  0.17416685  0.93328398  0.23473947  1
  O2-  O160  1  0.16950331  0.92701719  0.58047681  1
  O2-  O161  1  0.18217855  0.93107681  0.89883838  1
  O2-  O162  1  0.67955188  0.42663435  0.24587329  1
  O2-  O163  1  0.67888945  0.42567556  0.57552173  1
  O2-  O164  1  0.67928560  0.43064223  0.89924322  1
  O2-  O165  1  0.68016048  0.92810692  0.24321548  1
  O2-  O166  1  0.68741744  0.93096109  0.56649577  1
  O2-  O167  1  0.67893924  0.92684451  0.90187983  1
  O2-  O168  1  0.42972074  0.32396418  0.08870560  1
  O2-  O169  1  0.42752539  0.31902629  0.43228335  1
  O2-  O170  1  0.43096204  0.31755914  0.76828984  1
  O2-  O171  1  0.42594804  0.81865348  0.09079135  1
  O2-  O172  1  0.43134110  0.82250902  0.43001381  1
  O2-  O173  1  0.42962062  0.82105893  0.76724367  1
  O2-  O174  1  0.92735820  0.32215859  0.09003470  1
  O2-  O175  1  0.93029047  0.32244801  0.43181168  1
  O2-  O176  1  0.93104747  0.32210978  0.76694678  1
  O2-  O177  1  0.92893898  0.82072664  0.09818353  1
  O2-  O178  1  0.93152093  0.81906910  0.43517203  1
  O2-  O179  1  0.92895802  0.81783544  0.75770341  1
  O2-  O180  1  0.31816488  0.07277823  0.23418534  1
  O2-  O181  1  0.31762439  0.07087343  0.56988455  1
  O2-  O182  1  0.32314445  0.07072038  0.91127345  1
  O2-  O183  1  0.31884460  0.56643319  0.23433694  1
  O2-  O184  1  0.32248463  0.57127270  0.57723902  1
  O2-  O185  1  0.32225226  0.57293392  0.90978728  1
  O2-  O186  1  0.82058372  0.07114200  0.23279698  1
  O2-  O187  1  0.82331701  0.07569505  0.57956906  1
  O2-  O188  1  0.81987954  0.07010114  0.90778303  1
  O2-  O189  1  0.81831709  0.56853933  0.23382472  1
  O2-  O190  1  0.82405624  0.57114212  0.57780067  1
  O2-  O191  1  0.82048584  0.57292851  0.91069187  1
  O2-  O192  1  0.04019497  0.08585395  0.27303052  1
  O2-  O193  1  0.05014043  0.08309847  0.60259231  1
  O2-  O194  1  0.03804171  0.08838385  0.92501752  1
  O2-  O195  1  0.04023238  0.58559308  0.26767270  1
  O2-  O196  1  0.03502174  0.58997700  0.60314364  1
  O2-  O197  1  0.04593443  0.58366389  0.93563172  1
  O2-  O198  1  0.55093283  0.08280268  0.27240915  1
  O2-  O199  1  0.54924761  0.08294671  0.60640399  1
  O2-  O200  1  0.53977585  0.08194392  0.93145786  1
  O2-  O201  1  0.54188949  0.58064389  0.26295541  1
  O2-  O202  1  0.55171613  0.57951361  0.59747937  1
  O2-  O203  1  0.54183806  0.58702303  0.93673745  1
  O2-  O204  1  0.16188367  0.20302833  0.26904500  1
  O2-  O205  1  0.16534159  0.20704273  0.60241472  1
  O2-  O206  1  0.16887322  0.21026859  0.93222157  1
  O2-  O207  1  0.16808759  0.69314020  0.27282825  1
  O2-  O208  1  0.16413086  0.69740198  0.60657715  1
  O2-  O209  1  0.16666180  0.70384626  0.93419297  1
  O2-  O210  1  0.66421706  0.20653254  0.26918787  1
  O2-  O211  1  0.66766347  0.20205868  0.60473742  1
  O2-  O212  1  0.66710247  0.20948038  0.92998444  1
  O2-  O213  1  0.66970027  0.70603155  0.26103223  1
  O2-  O214  1  0.67158335  0.71079581  0.60014237  1
  O2-  O215  1  0.66166078  0.70601918  0.93611727  1
  O2-  O216  1  0.08226336  0.45865770  0.06988609  1
  O2-  O217  1  0.08378726  0.45613769  0.39421456  1
  O2-  O218  1  0.08578976  0.46612705  0.73552503  1
  O2-  O219  1  0.08049316  0.96400001  0.06114713  1
  O2-  O220  1  0.08296602  0.96251684  0.40547680  1
  O2-  O221  1  0.08232993  0.95540673  0.73291601  1
  O2-  O222  1  0.58363333  0.46031133  0.06801400  1
  O2-  O223  1  0.58297568  0.45302667  0.39485421  1
  O2-  O224  1  0.58673186  0.45576588  0.72870852  1
  O2-  O225  1  0.58224295  0.95950406  0.06955250  1
  O2-  O226  1  0.58482294  0.95132826  0.39475128  1
  O2-  O227  1  0.58771501  0.95957735  0.73621269  1
  O2-  O228  1  0.20840777  0.33210598  0.07029439  1
  O2-  O229  1  0.19875305  0.33200508  0.39339554  1
  O2-  O230  1  0.20931339  0.33455858  0.73340858  1
  O2-  O231  1  0.20445186  0.83284270  0.06554156  1
  O2-  O232  1  0.19446029  0.82525073  0.39737027  1
  O2-  O233  1  0.19484476  0.82924281  0.72959226  1
  O2-  O234  1  0.70735292  0.33104466  0.06770028  1
  O2-  O235  1  0.70232294  0.33402489  0.39834672  1
  O2-  O236  1  0.70760699  0.33624955  0.72845009  1
  O2-  O237  1  0.70890975  0.83131481  0.06782561  1
  O2-  O238  1  0.70752613  0.83384308  0.39356139  1
  O2-  O239  1  0.71673057  0.83454167  0.73516947  1
  O2-  O240  1  0.45864308  0.41363211  0.26243551  1
  O2-  O241  1  0.45830409  0.41488041  0.60041234  1
  O2-  O242  1  0.45550040  0.41744688  0.93757290  1
  O2-  O243  1  0.45246163  0.92232841  0.26428380  1
  O2-  O244  1  0.46176307  0.92069644  0.60243926  1
  O2-  O245  1  0.45531822  0.91310471  0.94043363  1
  O2-  O246  1  0.95685335  0.41815281  0.26306199  1
  O2-  O247  1  0.96348437  0.41815283  0.60088496  1
  O2-  O248  1  0.94979579  0.42115264  0.94215296  1
  O2-  O249  1  0.95909281  0.92007994  0.26934801  1
  O2-  O250  1  0.95274906  0.91547017  0.60776726  1
  O2-  O251  1  0.95901836  0.91508676  0.92710185  1
  O2-  O252  1  0.32987712  0.28973729  0.26428067  1
  O2-  O253  1  0.33232238  0.28678579  0.60213694  1
  O2-  O254  1  0.33472541  0.29805216  0.93864042  1
  O2-  O255  1  0.32747205  0.79001708  0.26744818  1
  O2-  O256  1  0.32651941  0.80214429  0.60241775  1
  O2-  O257  1  0.33589401  0.79257146  0.93733609  1
  O2-  O258  1  0.83003781  0.29147384  0.26660092  1
  O2-  O259  1  0.83342453  0.29454072  0.59783936  1
  O2-  O260  1  0.83539025  0.29682672  0.93739074  1
  O2-  O261  1  0.83680336  0.78793599  0.26610398  1
  O2-  O262  1  0.84144925  0.78808423  0.60422164  1
  O2-  O263  1  0.83294688  0.78572624  0.93006545  1
  O2-  O264  1  0.41588649  0.04687055  0.06308714  1
  O2-  O265  1  0.42282368  0.04922838  0.40074905  1
  O2-  O266  1  0.41741752  0.04179500  0.73777309  1
  O2-  O267  1  0.41529795  0.54823095  0.06268922  1
  O2-  O268  1  0.41894947  0.53699496  0.40033963  1
  O2-  O269  1  0.42022384  0.54898596  0.72626012  1
  O2-  O270  1  0.91551638  0.04440495  0.05726006  1
  O2-  O271  1  0.91392786  0.04192265  0.40540345  1
  O2-  O272  1  0.91941693  0.05081823  0.72900996  1
  O2-  O273  1  0.91680842  0.55560864  0.06234234  1
  O2-  O274  1  0.91634639  0.53952373  0.40170808  1
  O2-  O275  1  0.91139899  0.54084460  0.73315841  1
  O2-  O276  1  0.29877394  0.16699232  0.06081740  1
  O2-  O277  1  0.28680310  0.16740359  0.40125987  1
  O2-  O278  1  0.28646494  0.16346561  0.73938224  1
  O2-  O279  1  0.29428704  0.66523991  0.06270941  1
  O2-  O280  1  0.29138534  0.66313559  0.40485377  1
  O2-  O281  1  0.29750527  0.66651989  0.72833862  1
  O2-  O282  1  0.79690192  0.16514179  0.05905310  1
  O2-  O283  1  0.78825631  0.16763917  0.40223920  1
  O2-  O284  1  0.79966476  0.16991834  0.73078114  1
  O2-  O285  1  0.78974652  0.66430688  0.06265268  1
  O2-  O286  1  0.78971897  0.66687756  0.40138114  1
  O2-  O287  1  0.79404128  0.66157380  0.73161642  1
