# generated using pymatgen
data_Ca2Al2SiO7
_symmetry_space_group_name_H-M   'P 1'
_cell_length_a   15.45975331
_cell_length_b   15.46107646
_cell_length_c   15.28469662
_cell_angle_alpha   90.00000269
_cell_angle_beta   89.99700782
_cell_angle_gamma   90.00956895
_symmetry_Int_Tables_number   1
_chemical_formula_structural   Ca2Al2SiO7
_chemical_formula_sum   'Ca48 Al48 Si24 O168'
_cell_volume   3653.41581155
_cell_formula_units_Z   24
loop_
 _symmetry_equiv_pos_site_id
 _symmetry_equiv_pos_as_xyz
  1  'x, y, z'
loop_
 _atom_type_symbol
 _atom_type_oxidation_number
  Ca2+  2.0
  Al0+  0.0
  Si0+  0.0
  O2-  -2.0
loop_
 _atom_site_type_symbol
 _atom_site_label
 _atom_site_symmetry_multiplicity
 _atom_site_fract_x
 _atom_site_fract_y
 _atom_site_fract_z
 _atom_site_occupancy
  Ca2+  Ca0  1  0.16335218  0.08097195  0.17372017  1
  Ca2+  Ca1  1  0.16610408  0.07722760  0.50249397  1
  Ca2+  Ca2  1  0.17299984  0.08547143  0.83598500  1
  Ca2+  Ca3  1  0.16865875  0.58426930  0.16794506  1
  Ca2+  Ca4  1  0.17515209  0.58781005  0.50768780  1
  Ca2+  Ca5  1  0.16613957  0.58363852  0.83707713  1
  Ca2+  Ca6  1  0.67871569  0.07250662  0.17142118  1
  Ca2+  Ca7  1  0.67565369  0.07455289  0.50844266  1
  Ca2+  Ca8  1  0.67272717  0.07696999  0.83563812  1
  Ca2+  Ca9  1  0.66106227  0.57182636  0.17057237  1
  Ca2+  Ca10  1  0.67093540  0.57807907  0.50426957  1
  Ca2+  Ca11  1  0.67202565  0.57994107  0.83392467  1
  Ca2+  Ca12  1  0.08546915  0.32185250  0.15887430  1
  Ca2+  Ca13  1  0.08007468  0.32445347  0.49521759  1
  Ca2+  Ca14  1  0.08688804  0.32975762  0.83291052  1
  Ca2+  Ca15  1  0.07790883  0.83412253  0.16505021  1
  Ca2+  Ca16  1  0.07141233  0.83587455  0.49673417  1
  Ca2+  Ca17  1  0.07546695  0.82016162  0.82481342  1
  Ca2+  Ca18  1  0.58710864  0.33609620  0.16179961  1
  Ca2+  Ca19  1  0.58207729  0.32985400  0.49828187  1
  Ca2+  Ca20  1  0.58146958  0.32709248  0.82301008  1
  Ca2+  Ca21  1  0.57842954  0.84161751  0.16113105  1
  Ca2+  Ca22  1  0.58058614  0.84287453  0.49940058  1
  Ca2+  Ca23  1  0.57673567  0.84485788  0.82782359  1
  Ca2+  Ca24  1  0.32542685  0.42415310  0.17200144  1
  Ca2+  Ca25  1  0.33575704  0.42734527  0.50716024  1
  Ca2+  Ca26  1  0.33146357  0.42163510  0.83501526  1
  Ca2+  Ca27  1  0.32630414  0.91431998  0.17069687  1
  Ca2+  Ca28  1  0.32516731  0.91720512  0.50877824  1
  Ca2+  Ca29  1  0.34188125  0.92002926  0.83392009  1
  Ca2+  Ca30  1  0.82297530  0.41646795  0.16892374  1
  Ca2+  Ca31  1  0.82874807  0.42028216  0.50542476  1
  Ca2+  Ca32  1  0.83051075  0.42224090  0.83683440  1
  Ca2+  Ca33  1  0.83179759  0.92319175  0.17533732  1
  Ca2+  Ca34  1  0.83070828  0.92047767  0.50758275  1
  Ca2+  Ca35  1  0.82694598  0.92162966  0.83543072  1
  Ca2+  Ca36  1  0.42095912  0.16910412  0.16099388  1
  Ca2+  Ca37  1  0.42144554  0.16479211  0.50468046  1
  Ca2+  Ca38  1  0.42414849  0.17201367  0.81774026  1
  Ca2+  Ca39  1  0.41557004  0.67244614  0.16224066  1
  Ca2+  Ca40  1  0.41203241  0.66816343  0.49963936  1
  Ca2+  Ca41  1  0.41708934  0.67794012  0.82602620  1
  Ca2+  Ca42  1  0.92405143  0.15665876  0.16414410  1
  Ca2+  Ca43  1  0.91838430  0.15775318  0.49289696  1
  Ca2+  Ca44  1  0.91631143  0.16095813  0.83244531  1
  Ca2+  Ca45  1  0.92023549  0.67574812  0.16054642  1
  Ca2+  Ca46  1  0.91258339  0.67757168  0.50023897  1
  Ca2+  Ca47  1  0.92437537  0.66608144  0.82155321  1
  Al0+  Al48  1  0.00294462  -0.00021282  -0.00405830  1
  Al0+  Al49  1  0.00196125  -0.00147067  0.33180909  1
  Al0+  Al50  1  0.00003021  -0.00190928  0.66902877  1
  Al0+  Al51  1  0.00110023  0.49800368  0.00259758  1
  Al0+  Al52  1  0.00040934  0.49903021  0.33168456  1
  Al0+  Al53  1  0.00092758  0.49740136  0.66463239  1
  Al0+  Al54  1  0.50060255  0.00312005  0.00088314  1
  Al0+  Al55  1  0.50030679  0.00222402  0.33248996  1
  Al0+  Al56  1  0.49841766  0.00115953  0.66316868  1
  Al0+  Al57  1  0.49926923  0.50298495  0.00233031  1
  Al0+  Al58  1  0.49896710  0.50049252  0.33980381  1
  Al0+  Al59  1  0.49705986  0.50068752  0.66830311  1
  Al0+  Al60  1  0.25029868  0.25165543  0.00019883  1
  Al0+  Al61  1  0.25086143  0.25202765  0.32879967  1
  Al0+  Al62  1  0.24980936  0.24990166  0.66451680  1
  Al0+  Al63  1  0.25068134  0.75214573  -0.00843403  1
  Al0+  Al64  1  0.24992849  0.75124042  0.34040477  1
  Al0+  Al65  1  0.25081113  0.74797392  0.66509085  1
  Al0+  Al66  1  0.75212500  0.25012725  0.00724405  1
  Al0+  Al67  1  0.74939074  0.25000037  0.33920165  1
  Al0+  Al68  1  0.75070400  0.24793172  0.66560542  1
  Al0+  Al69  1  0.74763752  0.74989230  0.00252040  1
  Al0+  Al70  1  0.74752370  0.74871205  0.32855039  1
  Al0+  Al71  1  0.74945556  0.74805577  0.67236057  1
  Al0+  Al72  1  0.31809218  0.57020748  0.34691160  1
  Al0+  Al73  1  0.43147025  0.82195807  0.98683302  1
  Al0+  Al74  1  0.82394389  0.06902453  0.01680058  1
  Al0+  Al75  1  0.82181556  0.56944155  0.67864237  1
  Al0+  Al76  1  0.18058331  0.93052451  0.34634852  1
  Al0+  Al77  1  0.31829906  0.07043621  0.67896894  1
  Al0+  Al78  1  0.42776091  0.32236344  0.65089111  1
  Al0+  Al79  1  0.67803001  0.92841103  0.68186063  1
  Al0+  Al80  1  0.92742493  0.82023514  0.65263709  1
  Al0+  Al81  1  0.07232709  0.17829520  0.98419425  1
  Al0+  Al82  1  0.67943827  0.42926917  0.34887072  1
  Al0+  Al83  1  0.06911039  0.67825742  0.98735982  1
  Al0+  Al84  1  0.67672190  0.92657332  0.34893970  1
  Al0+  Al85  1  0.57283180  0.17877225  0.65031253  1
  Al0+  Al86  1  0.82378279  0.07204879  0.68339474  1
  Al0+  Al87  1  0.82199704  0.06805461  0.34877360  1
  Al0+  Al88  1  0.43076190  0.82111754  0.65122696  1
  Al0+  Al89  1  0.67882568  0.43090718  0.01148632  1
  Al0+  Al90  1  0.67663479  0.92883161  0.01620257  1
  Al0+  Al91  1  0.92821530  0.81920712  0.31888622  1
  Al0+  Al92  1  0.07096816  0.67577850  0.64969456  1
  Al0+  Al93  1  0.32075731  0.57189558  0.68362094  1
  Al0+  Al94  1  0.17925377  0.42845801  0.01440298  1
  Al0+  Al95  1  0.07031008  0.18040363  0.31997030  1
  Si0+  Si96  1  0.43113474  0.32353143  0.31615190  1
  Si0+  Si97  1  0.17699674  0.42595176  0.35017932  1
  Si0+  Si98  1  0.56877031  0.67677091  0.31853457  1
  Si0+  Si99  1  0.92623758  0.82194461  0.98318458  1
  Si0+  Si100  1  0.57217559  0.67639246  0.65001439  1
  Si0+  Si101  1  0.57166570  0.18257119  0.98701117  1
  Si0+  Si102  1  0.07444351  0.67800551  0.31725718  1
  Si0+  Si103  1  0.42830320  0.82168653  0.31917698  1
  Si0+  Si104  1  0.32116799  0.07282039  0.01469826  1
  Si0+  Si105  1  0.82356149  0.57242272  0.34776023  1
  Si0+  Si106  1  0.67785849  0.42764481  0.68218763  1
  Si0+  Si107  1  0.57213844  0.67543623  0.98284342  1
  Si0+  Si108  1  0.17793565  0.42715718  0.68281407  1
  Si0+  Si109  1  0.07093835  0.17836890  0.65239618  1
  Si0+  Si110  1  0.32322099  0.07561925  0.34839117  1
  Si0+  Si111  1  0.18190773  0.92879139  0.01253745  1
  Si0+  Si112  1  0.92761393  0.32069678  0.98361033  1
  Si0+  Si113  1  0.92577765  0.32371822  0.31580733  1
  Si0+  Si114  1  0.82376770  0.57230438  0.01690826  1
  Si0+  Si115  1  0.31972800  0.57427053  0.01604848  1
  Si0+  Si116  1  0.17788116  0.92691936  0.68578544  1
  Si0+  Si117  1  0.57143446  0.17993767  0.31583022  1
  Si0+  Si118  1  0.42911140  0.32319846  0.98654922  1
  Si0+  Si119  1  0.92867536  0.32047401  0.65247094  1
  O2-  O120  1  0.25013665  0.00210398  0.05675957  1
  O2-  O121  1  0.25479956  0.00656692  0.39126116  1
  O2-  O122  1  0.24715022  -0.00490414  0.73035508  1
  O2-  O123  1  0.25155897  0.50560496  0.06117306  1
  O2-  O124  1  0.24113282  0.49809201  0.39427052  1
  O2-  O125  1  0.24486270  0.49728144  0.72752653  1
  O2-  O126  1  0.75500520  -0.00639496  0.06598007  1
  O2-  O127  1  0.75101501  -0.00449102  0.39852083  1
  O2-  O128  1  0.75106563  -0.00009445  0.73114888  1
  O2-  O129  1  0.75097374  0.50720800  0.06046071  1
  O2-  O130  1  0.75775289  0.50109529  0.39250317  1
  O2-  O131  1  0.74688723  0.49541232  0.72654876  1
  O2-  O132  1  -0.00463930  0.25526411  0.27255638  1
  O2-  O133  1  -0.00482250  0.24468689  0.61109825  1
  O2-  O134  1  -0.00395352  0.25195243  0.93852067  1
  O2-  O135  1  0.00186224  0.74210719  0.27261970  1
  O2-  O136  1  -0.00042881  0.74869319  0.60102919  1
  O2-  O137  1  -0.01060432  0.74726181  0.94061884  1
  O2-  O138  1  0.50042943  0.25145206  0.27231437  1
  O2-  O139  1  0.50173942  0.25276461  0.60044563  1
  O2-  O140  1  0.50303481  0.25586306  0.94467778  1
  O2-  O141  1  0.50182168  0.75284241  0.27712365  1
  O2-  O142  1  0.50664269  0.74752477  0.60446766  1
  O2-  O143  1  0.50951369  0.75035513  0.94066582  1
  O2-  O144  1  0.07433376  0.17959136  0.09726141  1
  O2-  O145  1  0.07150093  0.18240918  0.43332171  1
  O2-  O146  1  0.07399153  0.18161288  0.75742505  1
  O2-  O147  1  0.07016019  0.68210784  0.10095214  1
  O2-  O148  1  0.07548067  0.67906498  0.42212375  1
  O2-  O149  1  0.06842905  0.67540174  0.76382402  1
  O2-  O150  1  0.56771763  0.18340632  0.09253038  1
  O2-  O151  1  0.56902972  0.18016060  0.42021566  1
  O2-  O152  1  0.57174178  0.18205352  0.76486842  1
  O2-  O153  1  0.56709379  0.66897327  0.08850432  1
  O2-  O154  1  0.56718110  0.67236430  0.42306567  1
  O2-  O155  1  0.56931507  0.67298033  0.75564290  1
  O2-  O156  1  0.18023751  0.42440661  0.24447062  1
  O2-  O157  1  0.17804413  0.42560746  0.57713017  1
  O2-  O158  1  0.18308874  0.42649319  0.90163621  1
  O2-  O159  1  0.18314187  0.92924095  0.23236913  1
  O2-  O160  1  0.17742075  0.93043407  0.57992653  1
  O2-  O161  1  0.18428330  0.92918087  0.90792146  1
  O2-  O162  1  0.67788344  0.43165564  0.23533357  1
  O2-  O163  1  0.67926644  0.42901238  0.57651050  1
  O2-  O164  1  0.67954565  0.43091353  0.89867636  1
  O2-  O165  1  0.67456573  0.93057180  0.23536641  1
  O2-  O166  1  0.67932788  0.92967065  0.56837361  1
  O2-  O167  1  0.67297113  0.93419246  0.90346067  1
  O2-  O168  1  0.42885849  0.32158332  0.09215775  1
  O2-  O169  1  0.43138217  0.32421695  0.42054114  1
  O2-  O170  1  0.42906903  0.32086436  0.76537116  1
  O2-  O171  1  0.42818135  0.81930352  0.10071437  1
  O2-  O172  1  0.42717003  0.82107186  0.42372313  1
  O2-  O173  1  0.43173646  0.82070254  0.76459256  1
  O2-  O174  1  0.92787342  0.32169146  0.08913447  1
  O2-  O175  1  0.92790800  0.32638441  0.42155542  1
  O2-  O176  1  0.93014840  0.32377760  0.75747481  1
  O2-  O177  1  0.92974595  0.82228702  0.08923020  1
  O2-  O178  1  0.92819621  0.81864417  0.43138960  1
  O2-  O179  1  0.92976303  0.81856955  0.76650067  1
  O2-  O180  1  0.32417446  0.07505614  0.24201587  1
  O2-  O181  1  0.31383213  0.07038600  0.56579850  1
  O2-  O182  1  0.32209279  0.07380252  0.90991952  1
  O2-  O183  1  0.31782686  0.56975816  0.23315443  1
  O2-  O184  1  0.32029374  0.56977826  0.57032623  1
  O2-  O185  1  0.32035166  0.57249216  0.91100184  1
  O2-  O186  1  0.82159115  0.06756536  0.23514995  1
  O2-  O187  1  0.82507518  0.07176210  0.57017487  1
  O2-  O188  1  0.82118738  0.07035319  0.90370650  1
  O2-  O189  1  0.82227960  0.57117960  0.24188115  1
  O2-  O190  1  0.81989494  0.56601731  0.56537439  1
  O2-  O191  1  0.82490922  0.56895481  0.91143545  1
  O2-  O192  1  0.04182105  0.08365319  0.26515395  1
  O2-  O193  1  0.04763752  0.08472984  0.60711520  1
  O2-  O194  1  0.04670104  0.08108822  0.92902903  1
  O2-  O195  1  0.05444611  0.58156965  0.27298434  1
  O2-  O196  1  0.04468056  0.57656214  0.59715488  1
  O2-  O197  1  0.04424604  0.57883852  0.93591883  1
  O2-  O198  1  0.54159609  0.08907578  0.26631186  1
  O2-  O199  1  0.53873597  0.08371813  0.59530804  1
  O2-  O200  1  0.54021614  0.09256379  0.93947452  1
  O2-  O201  1  0.53393087  0.58715274  0.26935563  1
  O2-  O202  1  0.54312706  0.58408264  0.60281871  1
  O2-  O203  1  0.54102619  0.58467316  0.93332013  1
  O2-  O204  1  0.16753421  0.21079864  0.26432512  1
  O2-  O205  1  0.15975560  0.21054754  0.60212969  1
  O2-  O206  1  0.16881290  0.21293912  0.93106553  1
  O2-  O207  1  0.16695727  0.70893551  0.27100960  1
  O2-  O208  1  0.16995325  0.70395393  0.59955292  1
  O2-  O209  1  0.16360407  0.71232844  0.93154964  1
  O2-  O210  1  0.66364981  0.20934417  0.27010673  1
  O2-  O211  1  0.67129924  0.20628570  0.59681584  1
  O2-  O212  1  0.66460330  0.20928617  0.94240947  1
  O2-  O213  1  0.66118475  0.69672588  0.26869916  1
  O2-  O214  1  0.66752683  0.69701905  0.60633284  1
  O2-  O215  1  0.66903833  0.69279829  0.94044122  1
  O2-  O216  1  0.08216294  0.45451967  0.06979040  1
  O2-  O217  1  0.08081917  0.44517064  0.39334157  1
  O2-  O218  1  0.08423964  0.45045073  0.72948300  1
  O2-  O219  1  0.08944463  0.95433188  0.05927853  1
  O2-  O220  1  0.08574239  0.96221354  0.40135657  1
  O2-  O221  1  0.08550219  0.95347656  0.73289349  1
  O2-  O222  1  0.58172757  0.46067820  0.06750567  1
  O2-  O223  1  0.58486180  0.46319352  0.40344600  1
  O2-  O224  1  0.58449026  0.45366476  0.72768964  1
  O2-  O225  1  0.58040089  0.96510460  0.07089795  1
  O2-  O226  1  0.57813847  0.95851812  0.39960266  1
  O2-  O227  1  0.57934720  0.96041299  0.73182767  1
  O2-  O228  1  0.21455569  0.33369995  0.07042102  1
  O2-  O229  1  0.20707127  0.33385638  0.39662398  1
  O2-  O230  1  0.20567446  0.33444473  0.72950614  1
  O2-  O231  1  0.21340966  0.83834282  0.06080380  1
  O2-  O232  1  0.21188263  0.83659354  0.40378790  1
  O2-  O233  1  0.20362553  0.83269929  0.72883860  1
  O2-  O234  1  0.71040053  0.33637988  0.06928216  1
  O2-  O235  1  0.70673619  0.33306214  0.40396536  1
  O2-  O236  1  0.70397449  0.33418299  0.72723820  1
  O2-  O237  1  0.69274264  0.82550614  0.06481552  1
  O2-  O238  1  0.69695446  0.82400656  0.39543590  1
  O2-  O239  1  0.70134202  0.82909059  0.73534494  1
  O2-  O240  1  0.46097634  0.41501685  0.26865447  1
  O2-  O241  1  0.45523443  0.42139067  0.59904854  1
  O2-  O242  1  0.45282989  0.41703208  0.94154154  1
  O2-  O243  1  0.45257195  0.91492984  0.27130096  1
  O2-  O244  1  0.45642296  0.91787051  0.59579955  1
  O2-  O245  1  0.45911391  0.92083667  0.93493704  1
  O2-  O246  1  0.94973719  0.41765545  0.26814769  1
  O2-  O247  1  0.96100775  0.40852701  0.60046147  1
  O2-  O248  1  0.95428220  0.41414535  0.93758898  1
  O2-  O249  1  0.96530380  0.91316942  0.26357307  1
  O2-  O250  1  0.95855750  0.91870800  0.60023681  1
  O2-  O251  1  0.95839394  0.91250383  0.93602398  1
  O2-  O252  1  0.33880452  0.29731545  0.26774802  1
  O2-  O253  1  0.33020132  0.29200314  0.59694117  1
  O2-  O254  1  0.33908993  0.29255537  0.93863201  1
  O2-  O255  1  0.33705116  0.79021171  0.27181608  1
  O2-  O256  1  0.33416621  0.78876281  0.59842686  1
  O2-  O257  1  0.33721932  0.79042411  0.92953259  1
  O2-  O258  1  0.83101488  0.29838238  0.27187984  1
  O2-  O259  1  0.83575212  0.29852678  0.60489596  1
  O2-  O260  1  0.83363702  0.29540932  0.93772744  1
  O2-  O261  1  0.83157074  0.78958891  0.26256581  1
  O2-  O262  1  0.82876984  0.78946031  0.60166654  1
  O2-  O263  1  0.82937169  0.80266231  0.94170422  1
  O2-  O264  1  0.41209541  0.04539140  0.06415321  1
  O2-  O265  1  0.41657690  0.05042679  0.39343580  1
  O2-  O266  1  0.41557817  0.04252689  0.73224950  1
  O2-  O267  1  0.41308619  0.54891334  0.06319531  1
  O2-  O268  1  0.41242068  0.53661720  0.40242943  1
  O2-  O269  1  0.41672618  0.54033223  0.73878881  1
  O2-  O270  1  0.92510187  0.04239200  0.06577400  1
  O2-  O271  1  0.92119826  0.04091720  0.39903447  1
  O2-  O272  1  0.92254000  0.04443156  0.73652044  1
  O2-  O273  1  0.91498380  0.54318410  0.06560584  1
  O2-  O274  1  0.91863478  0.55055331  0.39247404  1
  O2-  O275  1  0.91741287  0.53471863  0.73260763  1
  O2-  O276  1  0.29393319  0.16422963  0.06334134  1
  O2-  O277  1  0.29832398  0.16986960  0.39244447  1
  O2-  O278  1  0.28668142  0.16698685  0.73358224  1
  O2-  O279  1  0.29220005  0.66812593  0.06075977  1
  O2-  O280  1  0.29113729  0.66641823  0.40237135  1
  O2-  O281  1  0.29104781  0.66866077  0.73735370  1
  O2-  O282  1  0.79504974  0.16717282  0.07032576  1
  O2-  O283  1  0.79547610  0.16760992  0.39965453  1
  O2-  O284  1  0.79672608  0.17183362  0.73510228  1
  O2-  O285  1  0.80197480  0.66727401  0.06158990  1
  O2-  O286  1  0.79321915  0.66431784  0.39307945  1
  O2-  O287  1  0.79218259  0.66341053  0.73724799  1
