# generated using pymatgen
data_Ca2Al2SiO7
_symmetry_space_group_name_H-M   'P 1'
_cell_length_a   15.46354735
_cell_length_b   15.46607715
_cell_length_c   15.28925660
_cell_angle_alpha   90.01222941
_cell_angle_beta   90.00235749
_cell_angle_gamma   89.98376905
_symmetry_Int_Tables_number   1
_chemical_formula_structural   Ca2Al2SiO7
_chemical_formula_sum   'Ca48 Al48 Si24 O168'
_cell_volume   3656.58474014
_cell_formula_units_Z   24
loop_
 _symmetry_equiv_pos_site_id
 _symmetry_equiv_pos_as_xyz
  1  'x, y, z'
loop_
 _atom_type_symbol
 _atom_type_oxidation_number
  Ca2+  2.0
  Al0+  0.0
  Si0+  0.0
  O2-  -2.0
loop_
 _atom_site_type_symbol
 _atom_site_label
 _atom_site_symmetry_multiplicity
 _atom_site_fract_x
 _atom_site_fract_y
 _atom_site_fract_z
 _atom_site_occupancy
  Ca2+  Ca0  1  0.16985765  0.09395935  0.17340877  1
  Ca2+  Ca1  1  0.17351797  0.09730036  0.49742747  1
  Ca2+  Ca2  1  0.16589923  0.08652647  0.83896360  1
  Ca2+  Ca3  1  0.17217658  0.57038980  0.17062687  1
  Ca2+  Ca4  1  0.16413902  0.57125979  0.50880791  1
  Ca2+  Ca5  1  0.16791927  0.57254595  0.83897989  1
  Ca2+  Ca6  1  0.67658439  0.07824763  0.17733171  1
  Ca2+  Ca7  1  0.66224801  0.07934101  0.50483609  1
  Ca2+  Ca8  1  0.67269794  0.07664991  0.83992465  1
  Ca2+  Ca9  1  0.66508313  0.57331616  0.16497827  1
  Ca2+  Ca10  1  0.66714245  0.58179353  0.50499458  1
  Ca2+  Ca11  1  0.66502568  0.57885717  0.83837941  1
  Ca2+  Ca12  1  0.08394091  0.32642703  0.16669872  1
  Ca2+  Ca13  1  0.07624907  0.33677449  0.49295694  1
  Ca2+  Ca14  1  0.08415149  0.33274785  0.82962637  1
  Ca2+  Ca15  1  0.07514831  0.83468231  0.15608847  1
  Ca2+  Ca16  1  0.08105595  0.82798965  0.49955258  1
  Ca2+  Ca17  1  0.06920366  0.82762490  0.82593783  1
  Ca2+  Ca18  1  0.57568697  0.32890135  0.16037817  1
  Ca2+  Ca19  1  0.57282478  0.31982451  0.49232140  1
  Ca2+  Ca20  1  0.57403312  0.33402916  0.82528035  1
  Ca2+  Ca21  1  0.59055656  0.83718569  0.16502891  1
  Ca2+  Ca22  1  0.59601662  0.83063286  0.49933652  1
  Ca2+  Ca23  1  0.59068363  0.82900956  0.82587914  1
  Ca2+  Ca24  1  0.32503662  0.40554857  0.16780540  1
  Ca2+  Ca25  1  0.32301348  0.40252917  0.50311910  1
  Ca2+  Ca26  1  0.32693455  0.41594057  0.84196348  1
  Ca2+  Ca27  1  0.32964037  0.92646627  0.17566583  1
  Ca2+  Ca28  1  0.33466160  0.92648739  0.50118108  1
  Ca2+  Ca29  1  0.33060984  0.91897154  0.83659654  1
  Ca2+  Ca30  1  0.82964206  0.41209134  0.17031610  1
  Ca2+  Ca31  1  0.83977646  0.41407147  0.50612040  1
  Ca2+  Ca32  1  0.82755173  0.41453947  0.83684296  1
  Ca2+  Ca33  1  0.82942633  0.92702419  0.16819386  1
  Ca2+  Ca34  1  0.82776429  0.92614445  0.50461396  1
  Ca2+  Ca35  1  0.82769922  0.91647340  0.84086993  1
  Ca2+  Ca36  1  0.41777529  0.17351582  0.16734614  1
  Ca2+  Ca37  1  0.42343539  0.17101324  0.49413473  1
  Ca2+  Ca38  1  0.42391950  0.17985090  0.82733752  1
  Ca2+  Ca39  1  0.41423121  0.66782831  0.16049523  1
  Ca2+  Ca40  1  0.42322478  0.66801224  0.50006336  1
  Ca2+  Ca41  1  0.42060442  0.66427398  0.83040158  1
  Ca2+  Ca42  1  0.92508912  0.15817005  0.16379824  1
  Ca2+  Ca43  1  0.91941963  0.17811108  0.49042121  1
  Ca2+  Ca44  1  0.91930689  0.16923775  0.83256747  1
  Ca2+  Ca45  1  0.91710585  0.67517707  0.16081585  1
  Ca2+  Ca46  1  0.91991414  0.67203483  0.50201398  1
  Ca2+  Ca47  1  0.91692357  0.67831152  0.82466509  1
  Al0+  Al48  1  -0.00053328  -0.00103015  -0.00788425  1
  Al0+  Al49  1  -0.00197802  -0.00174164  0.33515579  1
  Al0+  Al50  1  0.00077233  0.00102639  0.66256982  1
  Al0+  Al51  1  0.00075831  0.49904609  0.00494427  1
  Al0+  Al52  1  0.00038941  0.50149183  0.33195775  1
  Al0+  Al53  1  0.00071319  0.50069384  0.66744864  1
  Al0+  Al54  1  0.49875291  -0.00095997  0.00174801  1
  Al0+  Al55  1  0.49842929  -0.00255171  0.33777899  1
  Al0+  Al56  1  0.49989915  -0.00050793  0.67152617  1
  Al0+  Al57  1  0.49997682  0.50179903  0.00356746  1
  Al0+  Al58  1  0.49979213  0.50239611  0.32987538  1
  Al0+  Al59  1  0.49780001  0.50196828  0.65681980  1
  Al0+  Al60  1  0.25040181  0.24983500  -0.00572961  1
  Al0+  Al61  1  0.24899548  0.25041766  0.33640219  1
  Al0+  Al62  1  0.25008711  0.25055809  0.67207397  1
  Al0+  Al63  1  0.25052645  0.74923440  0.00195743  1
  Al0+  Al64  1  0.25178633  0.74793433  0.33366634  1
  Al0+  Al65  1  0.25051258  0.75004880  0.66387578  1
  Al0+  Al66  1  0.75195358  0.24834047  0.00793503  1
  Al0+  Al67  1  0.74852696  0.25062146  0.33103321  1
  Al0+  Al68  1  0.75058232  0.24901659  0.66147956  1
  Al0+  Al69  1  0.74937052  0.74997501  -0.00016706  1
  Al0+  Al70  1  0.75095963  0.74805492  0.33470814  1
  Al0+  Al71  1  0.75021286  0.75077976  0.66150854  1
  Al0+  Al72  1  0.82254154  0.07381923  0.35113940  1
  Al0+  Al73  1  0.17849139  0.42602865  0.01736149  1
  Al0+  Al74  1  0.67774731  0.92782734  0.01479166  1
  Al0+  Al75  1  0.82324109  0.07034783  0.01445528  1
  Al0+  Al76  1  0.92990581  0.32029960  0.65639890  1
  Al0+  Al77  1  0.32117743  0.57155346  0.01520922  1
  Al0+  Al78  1  0.68082917  0.92964568  0.68227667  1
  Al0+  Al79  1  0.17923960  0.42983216  0.68243491  1
  Al0+  Al80  1  0.06852148  0.17887595  0.31997322  1
  Al0+  Al81  1  0.67900501  0.42839049  0.01127230  1
  Al0+  Al82  1  0.07019945  0.18079775  0.98514301  1
  Al0+  Al83  1  0.68020596  0.92888480  0.35047336  1
  Al0+  Al84  1  0.92781965  0.82316333  0.64869526  1
  Al0+  Al85  1  0.92750422  0.32439790  0.31678072  1
  Al0+  Al86  1  0.42889795  0.32103063  0.31684371  1
  Al0+  Al87  1  0.42732506  0.32188994  0.65154831  1
  Al0+  Al88  1  0.43204574  0.32106580  0.98549031  1
  Al0+  Al89  1  0.31840529  0.07029016  0.34692322  1
  Al0+  Al90  1  0.57106273  0.17754151  0.65408827  1
  Al0+  Al91  1  0.92885320  0.81892115  0.98609035  1
  Al0+  Al92  1  0.18097732  0.43134216  0.34885536  1
  Al0+  Al93  1  0.57049133  0.17486395  0.31683508  1
  Al0+  Al94  1  0.07162116  0.67899827  0.65270337  1
  Al0+  Al95  1  0.57057846  0.68014598  0.65327562  1
  Si0+  Si96  1  0.57417030  0.17627772  0.98484594  1
  Si0+  Si97  1  0.07349022  0.67685526  0.98463842  1
  Si0+  Si98  1  0.07280516  0.67933180  0.31679139  1
  Si0+  Si99  1  0.17950825  0.92906022  0.01170940  1
  Si0+  Si100  1  0.67655678  0.42976552  0.34870281  1
  Si0+  Si101  1  0.56963288  0.68090007  0.98617164  1
  Si0+  Si102  1  0.82400316  0.07414898  0.68390953  1
  Si0+  Si103  1  0.82012958  0.56958557  0.34876555  1
  Si0+  Si104  1  0.32386466  0.57464686  0.35333085  1
  Si0+  Si105  1  0.31999938  0.07061462  0.01361153  1
  Si0+  Si106  1  0.07331371  0.17795023  0.65057999  1
  Si0+  Si107  1  0.67763786  0.42923584  0.67709194  1
  Si0+  Si108  1  0.17676489  0.92396167  0.34947001  1
  Si0+  Si109  1  0.31996104  0.07037662  0.68481598  1
  Si0+  Si110  1  0.17837987  0.92726274  0.68194911  1
  Si0+  Si111  1  0.82003503  0.57057639  0.68065304  1
  Si0+  Si112  1  0.92943482  0.81863498  0.31741624  1
  Si0+  Si113  1  0.92596485  0.32427462  0.98380645  1
  Si0+  Si114  1  0.42641521  0.82280151  0.98555469  1
  Si0+  Si115  1  0.57269556  0.68016914  0.31522999  1
  Si0+  Si116  1  0.32331813  0.57425813  0.68256500  1
  Si0+  Si117  1  0.82168486  0.57261001  0.01498185  1
  Si0+  Si118  1  0.42798757  0.81952972  0.31790569  1
  Si0+  Si119  1  0.42698261  0.82355671  0.65026294  1
  O2-  O120  1  0.24898940  -0.00041734  0.05596540  1
  O2-  O121  1  0.24107255  -0.00318963  0.39354885  1
  O2-  O122  1  0.24739891  -0.00041784  0.72571025  1
  O2-  O123  1  0.25134389  0.49847419  0.06587648  1
  O2-  O124  1  0.25801956  0.50376065  0.39683147  1
  O2-  O125  1  0.25581766  0.50466029  0.72621090  1
  O2-  O126  1  0.74614710  0.00300243  0.06356366  1
  O2-  O127  1  0.74641103  0.00555289  0.40096387  1
  O2-  O128  1  0.75647736  0.00370270  0.72781954  1
  O2-  O129  1  0.75816733  0.49911154  0.05882717  1
  O2-  O130  1  0.75333814  0.49486690  0.39127247  1
  O2-  O131  1  0.74847102  0.49965166  0.72180486  1
  O2-  O132  1  -0.00555063  0.24727317  0.26755368  1
  O2-  O133  1  0.00368886  0.24590773  0.60861707  1
  O2-  O134  1  -0.00363461  0.25722814  0.93991418  1
  O2-  O135  1  0.00583112  0.75366847  0.27397374  1
  O2-  O136  1  0.00237638  0.75243722  0.60025579  1
  O2-  O137  1  0.00132752  0.74140721  0.94037162  1
  O2-  O138  1  0.50213791  0.25040382  0.26641797  1
  O2-  O139  1  0.50013713  0.25013364  0.60381076  1
  O2-  O140  1  0.51018800  0.24905845  0.93966036  1
  O2-  O141  1  0.50073516  0.75079379  0.27455884  1
  O2-  O142  1  0.49763866  0.75671220  0.60640420  1
  O2-  O143  1  0.49982759  0.75368582  0.94457537  1
  O2-  O144  1  0.07173749  0.17829529  0.09755662  1
  O2-  O145  1  0.06991233  0.18271496  0.43362955  1
  O2-  O146  1  0.07310917  0.17710012  0.75639257  1
  O2-  O147  1  0.07366892  0.68141380  0.09061550  1
  O2-  O148  1  0.07132698  0.67981751  0.42168685  1
  O2-  O149  1  0.06877825  0.68039823  0.76639776  1
  O2-  O150  1  0.56965228  0.17494533  0.08999573  1
  O2-  O151  1  0.56682269  0.17565815  0.43050397  1
  O2-  O152  1  0.57024704  0.17971591  0.76817593  1
  O2-  O153  1  0.57033223  0.68148336  0.09133674  1
  O2-  O154  1  0.57359587  0.67983142  0.42031143  1
  O2-  O155  1  0.57004318  0.67872662  0.76661884  1
  O2-  O156  1  0.18094470  0.43274720  0.23612135  1
  O2-  O157  1  0.17843081  0.43032139  0.56942305  1
  O2-  O158  1  0.17899054  0.42805022  0.90357916  1
  O2-  O159  1  0.18042447  0.91904466  0.24364927  1
  O2-  O160  1  0.18097966  0.92541201  0.57700054  1
  O2-  O161  1  0.18286328  0.92821263  0.90649666  1
  O2-  O162  1  0.67482278  0.43583992  0.24356361  1
  O2-  O163  1  0.68001104  0.43222348  0.57209286  1
  O2-  O164  1  0.67839000  0.43243880  0.89745244  1
  O2-  O165  1  0.68427612  0.92525210  0.23704590  1
  O2-  O166  1  0.68152702  0.92960566  0.56970227  1
  O2-  O167  1  0.67909865  0.92613711  0.90115620  1
  O2-  O168  1  0.43077677  0.31730467  0.09810366  1
  O2-  O169  1  0.43001842  0.31918489  0.43030260  1
  O2-  O170  1  0.42948306  0.32232674  0.76558280  1
  O2-  O171  1  0.42293038  0.82272326  0.09043471  1
  O2-  O172  1  0.42419640  0.81677985  0.42272982  1
  O2-  O173  1  0.42493919  0.82234602  0.75609501  1
  O2-  O174  1  0.92606521  0.32562298  0.08874391  1
  O2-  O175  1  0.93303634  0.32821454  0.43054010  1
  O2-  O176  1  0.92810293  0.32001272  0.76950858  1
  O2-  O177  1  0.93172488  0.81739264  0.09966134  1
  O2-  O178  1  0.92949401  0.81482537  0.42210620  1
  O2-  O179  1  0.92793822  0.82006294  0.76250159  1
  O2-  O180  1  0.31726356  0.06712771  0.23335180  1
  O2-  O181  1  0.31929228  0.06962606  0.57978044  1
  O2-  O182  1  0.31998771  0.06741754  0.90830571  1
  O2-  O183  1  0.32076203  0.58078978  0.24821234  1
  O2-  O184  1  0.32261190  0.57735951  0.57720806  1
  O2-  O185  1  0.32071172  0.57360923  0.90148471  1
  O2-  O186  1  0.82629616  0.06631056  0.23779255  1
  O2-  O187  1  0.82384667  0.07438951  0.57882013  1
  O2-  O188  1  0.82339725  0.06910813  0.90051134  1
  O2-  O189  1  0.81744721  0.57369905  0.24364424  1
  O2-  O190  1  0.81992256  0.57028223  0.57525804  1
  O2-  O191  1  0.81868860  0.57519003  0.90929829  1
  O2-  O192  1  0.04723698  0.07649744  0.26953109  1
  O2-  O193  1  0.05366291  0.08367485  0.60404084  1
  O2-  O194  1  0.04073503  0.08439289  0.92866206  1
  O2-  O195  1  0.03992893  0.59055232  0.26773782  1
  O2-  O196  1  0.03879581  0.58293048  0.59857630  1
  O2-  O197  1  0.05161727  0.58110852  0.94224896  1
  O2-  O198  1  0.53892191  0.07603326  0.26656273  1
  O2-  O199  1  0.53958786  0.07919240  0.60331761  1
  O2-  O200  1  0.54329338  0.08370656  0.93843859  1
  O2-  O201  1  0.54463994  0.58926760  0.26656286  1
  O2-  O202  1  0.53968273  0.58668035  0.59311798  1
  O2-  O203  1  0.54106443  0.59011179  0.93759497  1
  O2-  O204  1  0.16679044  0.20972785  0.26837083  1
  O2-  O205  1  0.16719095  0.20503214  0.60737468  1
  O2-  O206  1  0.16641644  0.20915554  0.92838226  1
  O2-  O207  1  0.16639169  0.70344026  0.27109870  1
  O2-  O208  1  0.17017130  0.70588288  0.59877272  1
  O2-  O209  1  0.16555016  0.70664910  0.93800799  1
  O2-  O210  1  0.66993269  0.20109291  0.26619882  1
  O2-  O211  1  0.66865965  0.20359851  0.59970276  1
  O2-  O212  1  0.67062841  0.19688843  0.94327872  1
  O2-  O213  1  0.66440997  0.70840188  0.26769876  1
  O2-  O214  1  0.66618293  0.70878503  0.59652496  1
  O2-  O215  1  0.66147298  0.70646385  0.93765728  1
  O2-  O216  1  0.07964003  0.45301550  0.07045302  1
  O2-  O217  1  0.08429256  0.46734069  0.40054494  1
  O2-  O218  1  0.08307030  0.46296079  0.73685003  1
  O2-  O219  1  0.08693264  0.95504215  0.05690314  1
  O2-  O220  1  0.08158148  0.94270354  0.39348772  1
  O2-  O221  1  0.08557134  0.95418037  0.72817548  1
  O2-  O222  1  0.58686043  0.46632680  0.06869400  1
  O2-  O223  1  0.58738465  0.46576435  0.39642980  1
  O2-  O224  1  0.58525467  0.45972201  0.72206139  1
  O2-  O225  1  0.57624350  0.94906789  0.06532189  1
  O2-  O226  1  0.57836603  0.94692777  0.40045933  1
  O2-  O227  1  0.58214533  0.95526490  0.73608378  1
  O2-  O228  1  0.21086625  0.32743608  0.06728386  1
  O2-  O229  1  0.20924120  0.33471977  0.40323111  1
  O2-  O230  1  0.20883027  0.33321737  0.73764398  1
  O2-  O231  1  0.20683797  0.83818074  0.06130663  1
  O2-  O232  1  0.20877370  0.83262944  0.39760317  1
  O2-  O233  1  0.20826798  0.83625538  0.73040704  1
  O2-  O234  1  0.70421329  0.33225750  0.06777394  1
  O2-  O235  1  0.69615132  0.33563855  0.39340886  1
  O2-  O236  1  0.70509593  0.33748809  0.72435814  1
  O2-  O237  1  0.70806410  0.82966752  0.06763345  1
  O2-  O238  1  0.71399298  0.83011973  0.40140204  1
  O2-  O239  1  0.71154288  0.83074377  0.73291986  1
  O2-  O240  1  0.45468691  0.42173248  0.26654521  1
  O2-  O241  1  0.45035987  0.42002771  0.59705966  1
  O2-  O242  1  0.46120879  0.41976170  0.93462992  1
  O2-  O243  1  0.45299679  0.91148282  0.27067230  1
  O2-  O244  1  0.45068284  0.91777351  0.60609023  1
  O2-  O245  1  0.45044686  0.91505832  0.93679343  1
  O2-  O246  1  0.95806010  0.42262200  0.26336481  1
  O2-  O247  1  0.95904712  0.41724455  0.60285276  1
  O2-  O248  1  0.94826509  0.42008967  0.93946095  1
  O2-  O249  1  0.95269393  0.91151292  0.27114395  1
  O2-  O250  1  0.95661412  0.92138177  0.59646498  1
  O2-  O251  1  0.96283117  0.91186299  0.92821597  1
  O2-  O252  1  0.33094831  0.28841739  0.26655158  1
  O2-  O253  1  0.32936000  0.28813200  0.60197583  1
  O2-  O254  1  0.33724825  0.28681130  0.93034540  1
  O2-  O255  1  0.33701998  0.79012589  0.26814619  1
  O2-  O256  1  0.33495901  0.79737229  0.60149181  1
  O2-  O257  1  0.33570744  0.79299773  0.93598284  1
  O2-  O258  1  0.82546456  0.30551873  0.26892478  1
  O2-  O259  1  0.83401991  0.29340179  0.59923413  1
  O2-  O260  1  0.83191561  0.29724011  0.93844212  1
  O2-  O261  1  0.84048188  0.78187889  0.27004356  1
  O2-  O262  1  0.83266610  0.78946377  0.59410603  1
  O2-  O263  1  0.83232167  0.78720484  0.93234061  1
  O2-  O264  1  0.41068444  0.04222228  0.06225307  1
  O2-  O265  1  0.41174849  0.03413103  0.40362657  1
  O2-  O266  1  0.40997136  0.04041141  0.73441544  1
  O2-  O267  1  0.42056674  0.54958248  0.06829805  1
  O2-  O268  1  0.42029956  0.55351696  0.39532216  1
  O2-  O269  1  0.41861207  0.54985708  0.72638618  1
  O2-  O270  1  0.92045540  0.03364280  0.06539170  1
  O2-  O271  1  0.91982041  0.04050830  0.40509686  1
  O2-  O272  1  0.91970466  0.05032912  0.72745274  1
  O2-  O273  1  0.91684185  0.55470685  0.06102628  1
  O2-  O274  1  0.91339131  0.54700709  0.39544542  1
  O2-  O275  1  0.91072073  0.54363146  0.72985953  1
  O2-  O276  1  0.29056699  0.16161510  0.05956931  1
  O2-  O277  1  0.28804052  0.16514618  0.40388331  1
  O2-  O278  1  0.29160678  0.16093444  0.73430569  1
  O2-  O279  1  0.29193348  0.67022901  0.06989102  1
  O2-  O280  1  0.29674684  0.66750359  0.40115065  1
  O2-  O281  1  0.29913890  0.66868768  0.72892624  1
  O2-  O282  1  0.80390796  0.16955836  0.06874083  1
  O2-  O283  1  0.79967761  0.17564650  0.39931971  1
  O2-  O284  1  0.79635623  0.16738266  0.73042628  1
  O2-  O285  1  0.78966436  0.66282240  0.06443552  1
  O2-  O286  1  0.78707289  0.65859911  0.39872306  1
  O2-  O287  1  0.79034220  0.66208913  0.72712316  1
