# generated using pymatgen
data_Ca2Al2SiO7
_symmetry_space_group_name_H-M   'P 1'
_cell_length_a   15.46096644
_cell_length_b   15.46276211
_cell_length_c   15.28599453
_cell_angle_alpha   90.02832133
_cell_angle_beta   89.97682462
_cell_angle_gamma   90.00384031
_symmetry_Int_Tables_number   1
_chemical_formula_structural   Ca2Al2SiO7
_chemical_formula_sum   'Ca48 Al48 Si24 O168'
_cell_volume   3654.41043527
_cell_formula_units_Z   24
loop_
 _symmetry_equiv_pos_site_id
 _symmetry_equiv_pos_as_xyz
  1  'x, y, z'
loop_
 _atom_type_symbol
 _atom_type_oxidation_number
  Ca2+  2.0
  Al0+  0.0
  Si0+  0.0
  O2-  -2.0
loop_
 _atom_site_type_symbol
 _atom_site_label
 _atom_site_symmetry_multiplicity
 _atom_site_fract_x
 _atom_site_fract_y
 _atom_site_fract_z
 _atom_site_occupancy
  Ca2+  Ca0  1  0.16497982  0.07644867  0.16648091  1
  Ca2+  Ca1  1  0.17472695  0.08493639  0.50615142  1
  Ca2+  Ca2  1  0.17051960  0.07841265  0.83472091  1
  Ca2+  Ca3  1  0.17633970  0.57272321  0.16829303  1
  Ca2+  Ca4  1  0.17234632  0.57272456  0.49752000  1
  Ca2+  Ca5  1  0.17015131  0.57183386  0.83941735  1
  Ca2+  Ca6  1  0.66251402  0.08495429  0.17147591  1
  Ca2+  Ca7  1  0.66874103  0.07948778  0.50721102  1
  Ca2+  Ca8  1  0.67089241  0.08072667  0.83053874  1
  Ca2+  Ca9  1  0.67523941  0.57166038  0.16898394  1
  Ca2+  Ca10  1  0.66906691  0.57775562  0.49545886  1
  Ca2+  Ca11  1  0.67613760  0.57678482  0.84173344  1
  Ca2+  Ca12  1  0.07542484  0.34929669  0.16489653  1
  Ca2+  Ca13  1  0.07632063  0.34169754  0.49723884  1
  Ca2+  Ca14  1  0.07467355  0.34486937  0.82933603  1
  Ca2+  Ca15  1  0.08081351  0.83019436  0.16077056  1
  Ca2+  Ca16  1  0.07004051  0.83417564  0.49290198  1
  Ca2+  Ca17  1  0.08141883  0.83088874  0.82862926  1
  Ca2+  Ca18  1  0.57898170  0.34165637  0.16418863  1
  Ca2+  Ca19  1  0.57381365  0.32813481  0.48886469  1
  Ca2+  Ca20  1  0.57065012  0.34288826  0.83194932  1
  Ca2+  Ca21  1  0.56991488  0.82752843  0.16277417  1
  Ca2+  Ca22  1  0.58181023  0.83324042  0.49305596  1
  Ca2+  Ca23  1  0.58287165  0.83160650  0.83004346  1
  Ca2+  Ca24  1  0.33066326  0.41929565  0.17691542  1
  Ca2+  Ca25  1  0.32467068  0.40532338  0.50490897  1
  Ca2+  Ca26  1  0.32447573  0.41558444  0.84334926  1
  Ca2+  Ca27  1  0.32978777  0.90915885  0.17023252  1
  Ca2+  Ca28  1  0.33829213  0.92468968  0.50543521  1
  Ca2+  Ca29  1  0.33237128  0.92404964  0.84219752  1
  Ca2+  Ca30  1  0.82972062  0.42040489  0.17588005  1
  Ca2+  Ca31  1  0.83123927  0.41252244  0.50125421  1
  Ca2+  Ca32  1  0.83100266  0.41741052  0.84661190  1
  Ca2+  Ca33  1  0.83307209  0.91955656  0.17394261  1
  Ca2+  Ca34  1  0.83070473  0.92138551  0.51130690  1
  Ca2+  Ca35  1  0.83376339  0.91979390  0.83172675  1
  Ca2+  Ca36  1  0.42402700  0.18029705  0.16609805  1
  Ca2+  Ca37  1  0.41977511  0.17276241  0.49515415  1
  Ca2+  Ca38  1  0.41154579  0.17796844  0.82930241  1
  Ca2+  Ca39  1  0.40301549  0.67099616  0.16106047  1
  Ca2+  Ca40  1  0.41522519  0.67329629  0.49110112  1
  Ca2+  Ca41  1  0.41158628  0.66863403  0.83561485  1
  Ca2+  Ca42  1  0.91787128  0.18245185  0.16393229  1
  Ca2+  Ca43  1  0.91342953  0.17590038  0.49715355  1
  Ca2+  Ca44  1  0.91767640  0.17722892  0.82779425  1
  Ca2+  Ca45  1  0.91013563  0.66564120  0.16520304  1
  Ca2+  Ca46  1  0.91177407  0.67658914  0.49233070  1
  Ca2+  Ca47  1  0.91713568  0.66816999  0.82648762  1
  Al0+  Al48  1  0.00019281  0.00116895  0.00292995  1
  Al0+  Al49  1  -0.00103247  -0.00014905  0.32959960  1
  Al0+  Al50  1  0.00001236  0.00069698  0.66682749  1
  Al0+  Al51  1  0.00211333  0.50443634  0.00147773  1
  Al0+  Al52  1  0.00219817  0.50346299  0.33787823  1
  Al0+  Al53  1  0.00150616  0.50123915  0.66426496  1
  Al0+  Al54  1  0.50046909  0.00056527  -0.00405116  1
  Al0+  Al55  1  0.49902938  -0.00130340  0.32468585  1
  Al0+  Al56  1  0.50012249  0.00033660  0.67721396  1
  Al0+  Al57  1  0.50252738  0.50309515  0.00089435  1
  Al0+  Al58  1  0.50245882  0.50239456  0.33825252  1
  Al0+  Al59  1  0.49964958  0.50229135  0.66079334  1
  Al0+  Al60  1  0.24889464  0.24612344  0.00180709  1
  Al0+  Al61  1  0.25040807  0.24629842  0.33299255  1
  Al0+  Al62  1  0.24765613  0.24954825  0.67349131  1
  Al0+  Al63  1  0.24689006  0.75118543  -0.00045721  1
  Al0+  Al64  1  0.24591402  0.74893001  0.33577911  1
  Al0+  Al65  1  0.25063079  0.74787091  0.66325940  1
  Al0+  Al66  1  0.75043626  0.24787036  -0.00136141  1
  Al0+  Al67  1  0.75187384  0.24809065  0.33029487  1
  Al0+  Al68  1  0.74864973  0.24906544  0.66836651  1
  Al0+  Al69  1  0.74800342  0.75215593  0.00271741  1
  Al0+  Al70  1  0.74790936  0.75122189  0.33058420  1
  Al0+  Al71  1  0.74881717  0.74905200  0.66629599  1
  Al0+  Al72  1  0.42702652  0.81965679  0.98443500  1
  Al0+  Al73  1  0.92724260  0.82143942  0.31792987  1
  Al0+  Al74  1  0.92993712  0.82011831  0.65415103  1
  Al0+  Al75  1  0.18173831  0.42610576  0.35025320  1
  Al0+  Al76  1  0.67939324  0.92673895  0.68233411  1
  Al0+  Al77  1  0.68031388  0.42553225  0.35059748  1
  Al0+  Al78  1  0.82113425  0.57228619  0.35026040  1
  Al0+  Al79  1  0.32269965  0.57251509  0.34949476  1
  Al0+  Al80  1  0.92772209  0.32156459  0.65362188  1
  Al0+  Al81  1  0.82277775  0.57300169  0.01352374  1
  Al0+  Al82  1  0.17968482  0.93043282  0.01308335  1
  Al0+  Al83  1  0.17958664  0.43070909  0.68191470  1
  Al0+  Al84  1  0.42788351  0.81837681  0.32095738  1
  Al0+  Al85  1  0.57212499  0.17833174  0.31991737  1
  Al0+  Al86  1  0.42755466  0.32087972  0.65425914  1
  Al0+  Al87  1  0.93246426  0.32192040  0.32074449  1
  Al0+  Al88  1  0.17945712  0.42552445  0.01483721  1
  Al0+  Al89  1  0.32095163  0.56987522  0.01209141  1
  Al0+  Al90  1  0.42889917  0.32262365  0.31989994  1
  Al0+  Al91  1  0.68001035  0.42671168  0.01357283  1
  Al0+  Al92  1  0.93226660  0.32220060  0.98789962  1
  Al0+  Al93  1  0.42965176  0.32241053  0.98743763  1
  Al0+  Al94  1  0.82271458  0.07298101  0.68244278  1
  Al0+  Al95  1  0.32070709  0.07065008  0.68114340  1
  Si0+  Si96  1  0.57303394  0.67799573  0.31508410  1
  Si0+  Si97  1  0.42953036  0.82218629  0.65348806  1
  Si0+  Si98  1  0.07350315  0.67754518  0.64675100  1
  Si0+  Si99  1  0.32478086  0.07150234  0.02024389  1
  Si0+  Si100  1  0.92695616  0.82347014  0.98465734  1
  Si0+  Si101  1  0.82256280  0.06992335  0.34775160  1
  Si0+  Si102  1  0.82078898  0.06954564  0.01693469  1
  Si0+  Si103  1  0.07342094  0.17572022  0.31622091  1
  Si0+  Si104  1  0.07088619  0.17433519  0.98230739  1
  Si0+  Si105  1  0.81991858  0.56986746  0.67964058  1
  Si0+  Si106  1  0.57039727  0.17717325  0.65233839  1
  Si0+  Si107  1  0.32129222  0.06679751  0.34670956  1
  Si0+  Si108  1  0.07146413  0.17759700  0.65118723  1
  Si0+  Si109  1  0.57317625  0.17675679  0.97953195  1
  Si0+  Si110  1  0.67782863  0.93137943  0.34542435  1
  Si0+  Si111  1  0.06955691  0.68202403  0.98353607  1
  Si0+  Si112  1  0.17829774  0.92566869  0.68056555  1
  Si0+  Si113  1  0.57167089  0.67969569  0.64992366  1
  Si0+  Si114  1  0.32463774  0.57367001  0.68356901  1
  Si0+  Si115  1  0.57370865  0.68030300  0.98152263  1
  Si0+  Si116  1  0.67740579  0.42867451  0.68025856  1
  Si0+  Si117  1  0.67762296  0.92969062  0.01739017  1
  Si0+  Si118  1  0.17629925  0.92871462  0.34915958  1
  Si0+  Si119  1  0.07058170  0.68005481  0.31423724  1
  O2-  O120  1  0.25630330  0.00137427  0.06293725  1
  O2-  O121  1  0.24925197  -0.00265397  0.39111287  1
  O2-  O122  1  0.24853083  -0.00816827  0.72549576  1
  O2-  O123  1  0.26016138  0.48886367  0.06287653  1
  O2-  O124  1  0.25985611  0.49248912  0.40026542  1
  O2-  O125  1  0.25758652  0.50319816  0.72632046  1
  O2-  O126  1  0.74809609  0.00057818  0.06002768  1
  O2-  O127  1  0.74982482  0.00017404  0.38900112  1
  O2-  O128  1  0.75281877  -0.00203428  0.73203381  1
  O2-  O129  1  0.75709456  0.49458301  0.06177830  1
  O2-  O130  1  0.75372854  0.49651098  0.40162834  1
  O2-  O131  1  0.75390313  0.49448583  0.72216754  1
  O2-  O132  1  0.01064119  0.25045036  0.27368838  1
  O2-  O133  1  0.00120858  0.24477522  0.60753987  1
  O2-  O134  1  0.00976751  0.25044968  0.93948568  1
  O2-  O135  1  -0.00103003  0.74582878  0.26919056  1
  O2-  O136  1  0.00606576  0.74880277  0.60444307  1
  O2-  O137  1  -0.00581749  0.74970745  0.94201224  1
  O2-  O138  1  0.50707858  0.25667629  0.27020919  1
  O2-  O139  1  0.50289814  0.24637499  0.60808501  1
  O2-  O140  1  0.50540163  0.24815390  0.93839247  1
  O2-  O141  1  0.49573631  0.73842014  0.27264768  1
  O2-  O142  1  0.49981736  0.75166322  0.60991138  1
  O2-  O143  1  0.50158140  0.74559449  0.93642846  1
  O2-  O144  1  0.06450577  0.16569186  0.08734545  1
  O2-  O145  1  0.07114034  0.16915980  0.42162642  1
  O2-  O146  1  0.07103730  0.17613080  0.75667215  1
  O2-  O147  1  0.07136803  0.68519420  0.08821862  1
  O2-  O148  1  0.07171750  0.68529424  0.41995168  1
  O2-  O149  1  0.07310645  0.67830056  0.75268932  1
  O2-  O150  1  0.57165377  0.17222118  0.08481867  1
  O2-  O151  1  0.56759047  0.17257296  0.43361617  1
  O2-  O152  1  0.57011306  0.17802023  0.75786310  1
  O2-  O153  1  0.57823237  0.68500822  0.08639020  1
  O2-  O154  1  0.57712297  0.68509682  0.42107175  1
  O2-  O155  1  0.57297075  0.67854069  0.75484293  1
  O2-  O156  1  0.18083196  0.42859759  0.23706695  1
  O2-  O157  1  0.17915746  0.43114468  0.56919637  1
  O2-  O158  1  0.17696634  0.43105243  0.90099399  1
  O2-  O159  1  0.17554199  0.92985082  0.24404060  1
  O2-  O160  1  0.17900566  0.92697387  0.57476403  1
  O2-  O161  1  0.17902293  0.93229364  0.89972360  1
  O2-  O162  1  0.68277269  0.42642672  0.23730295  1
  O2-  O163  1  0.67700963  0.43019825  0.57558890  1
  O2-  O164  1  0.68062289  0.43013172  0.89884767  1
  O2-  O165  1  0.67842436  0.93320073  0.24017587  1
  O2-  O166  1  0.67784887  0.92765590  0.56828511  1
  O2-  O167  1  0.67947469  0.92837642  0.91251886  1
  O2-  O168  1  0.43111733  0.32072511  0.10005691  1
  O2-  O169  1  0.42616026  0.31467219  0.43366650  1
  O2-  O170  1  0.42893900  0.32175699  0.76756418  1
  O2-  O171  1  0.42773388  0.81825364  0.09754297  1
  O2-  O172  1  0.43283057  0.82348389  0.43459616  1
  O2-  O173  1  0.42825532  0.81979261  0.75830567  1
  O2-  O174  1  0.93201076  0.32009144  0.10086933  1
  O2-  O175  1  0.93141518  0.31748976  0.43401592  1
  O2-  O176  1  0.92885016  0.32329680  0.76682988  1
  O2-  O177  1  0.92849820  0.82485848  0.08964585  1
  O2-  O178  1  0.92877811  0.82406310  0.43114723  1
  O2-  O179  1  0.93100851  0.81691205  0.76773976  1
  O2-  O180  1  0.32027064  0.06406796  0.24195536  1
  O2-  O181  1  0.32132580  0.06797775  0.56740436  1
  O2-  O182  1  0.32369335  0.07032484  0.91433828  1
  O2-  O183  1  0.31577552  0.57628186  0.23645098  1
  O2-  O184  1  0.32419368  0.57821677  0.57855257  1
  O2-  O185  1  0.31596232  0.57161923  0.89809337  1
  O2-  O186  1  0.82443769  0.06708582  0.24244167  1
  O2-  O187  1  0.82034919  0.07194881  0.56851803  1
  O2-  O188  1  0.82191669  0.06739585  0.91207904  1
  O2-  O189  1  0.81798128  0.57278241  0.23695481  1
  O2-  O190  1  0.81711492  0.57284706  0.57505979  1
  O2-  O191  1  0.82053679  0.57504567  0.89899765  1
  O2-  O192  1  0.04081859  0.08548553  0.26627480  1
  O2-  O193  1  0.05016121  0.08321804  0.60379346  1
  O2-  O194  1  0.03687932  0.08434544  0.93225317  1
  O2-  O195  1  0.04842694  0.58568679  0.26981648  1
  O2-  O196  1  0.04489459  0.58609438  0.59943880  1
  O2-  O197  1  0.04462800  0.59059914  0.93378295  1
  O2-  O198  1  0.53662073  0.08405441  0.26146162  1
  O2-  O199  1  0.54375302  0.08234462  0.60872435  1
  O2-  O200  1  0.54594818  0.08395119  0.93177228  1
  O2-  O201  1  0.55886004  0.58110185  0.27386017  1
  O2-  O202  1  0.54386753  0.58969195  0.59910525  1
  O2-  O203  1  0.55286537  0.58617193  0.93484059  1
  O2-  O204  1  0.16892871  0.19246132  0.27118255  1
  O2-  O205  1  0.16466112  0.20461201  0.60535213  1
  O2-  O206  1  0.16832502  0.18899148  0.94083687  1
  O2-  O207  1  0.16167998  0.71124390  0.26667610  1
  O2-  O208  1  0.16774041  0.70104715  0.60031662  1
  O2-  O209  1  0.15764290  0.71566256  0.93230153  1
  O2-  O210  1  0.67290651  0.19630094  0.26783152  1
  O2-  O211  1  0.66462653  0.19992496  0.60653885  1
  O2-  O212  1  0.66818096  0.19803927  0.93439209  1
  O2-  O213  1  0.66109777  0.71393953  0.26479436  1
  O2-  O214  1  0.66201959  0.70887277  0.60064415  1
  O2-  O215  1  0.66508330  0.71294581  0.93253827  1
  O2-  O216  1  0.08547702  0.46620629  0.06789838  1
  O2-  O217  1  0.08556627  0.46212187  0.40380219  1
  O2-  O218  1  0.08350734  0.46688507  0.73509956  1
  O2-  O219  1  0.08385427  0.96274087  0.06895738  1
  O2-  O220  1  0.08521528  0.96044154  0.39628399  1
  O2-  O221  1  0.08564017  0.95222469  0.72769447  1
  O2-  O222  1  0.58429784  0.46119028  0.06743018  1
  O2-  O223  1  0.58248045  0.45534184  0.40488165  1
  O2-  O224  1  0.58716195  0.46388743  0.72680741  1
  O2-  O225  1  0.58516237  0.95801087  0.06311529  1
  O2-  O226  1  0.58592790  0.96024161  0.39232443  1
  O2-  O227  1  0.58307715  0.95546225  0.73943762  1
  O2-  O228  1  0.19277176  0.32240549  0.06283949  1
  O2-  O229  1  0.20288061  0.32394043  0.40073767  1
  O2-  O230  1  0.20453129  0.33355133  0.73658283  1
  O2-  O231  1  0.20804006  0.83432051  0.06810529  1
  O2-  O232  1  0.19985521  0.83692262  0.39712742  1
  O2-  O233  1  0.20157863  0.83065517  0.72501001  1
  O2-  O234  1  0.70122373  0.32553190  0.06314758  1
  O2-  O235  1  0.70810126  0.32550941  0.40161845  1
  O2-  O236  1  0.69784804  0.33529189  0.72672200  1
  O2-  O237  1  0.70511404  0.83889177  0.06610301  1
  O2-  O238  1  0.70325200  0.83919168  0.39228715  1
  O2-  O239  1  0.70793802  0.82836277  0.73614261  1
  O2-  O240  1  0.45167284  0.42464012  0.27289028  1
  O2-  O241  1  0.45604366  0.41792323  0.60017502  1
  O2-  O242  1  0.45979620  0.41997679  0.93355055  1
  O2-  O243  1  0.46252804  0.91112971  0.26240775  1
  O2-  O244  1  0.45784333  0.91517311  0.60892657  1
  O2-  O245  1  0.45923180  0.91674281  0.93183564  1
  O2-  O246  1  0.96033102  0.42086647  0.27049940  1
  O2-  O247  1  0.95985315  0.41777828  0.59980047  1
  O2-  O248  1  0.95975532  0.42087333  0.93534716  1
  O2-  O249  1  0.96084531  0.91690168  0.26281607  1
  O2-  O250  1  0.95770716  0.91818126  0.60090146  1
  O2-  O251  1  0.95910523  0.91416432  0.93771907  1
  O2-  O252  1  0.33262686  0.28658964  0.26668544  1
  O2-  O253  1  0.33051125  0.28614835  0.60419824  1
  O2-  O254  1  0.33183526  0.28843440  0.93557870  1
  O2-  O255  1  0.32785328  0.79369622  0.27093477  1
  O2-  O256  1  0.33731656  0.79661458  0.60472419  1
  O2-  O257  1  0.32997204  0.79049936  0.93030050  1
  O2-  O258  1  0.83799353  0.28660770  0.26583346  1
  O2-  O259  1  0.83008440  0.29106918  0.60106704  1
  O2-  O260  1  0.83587015  0.28767158  0.93459687  1
  O2-  O261  1  0.82959994  0.79481156  0.26419484  1
  O2-  O262  1  0.83311409  0.78823926  0.60114128  1
  O2-  O263  1  0.83315673  0.79965403  0.93954492  1
  O2-  O264  1  0.41920817  0.04576912  0.06337529  1
  O2-  O265  1  0.41222487  0.03485076  0.39366004  1
  O2-  O266  1  0.41514665  0.04180149  0.73942102  1
  O2-  O267  1  0.42383028  0.55846135  0.06011129  1
  O2-  O268  1  0.42578656  0.56093378  0.39775520  1
  O2-  O269  1  0.41982973  0.55142845  0.72770731  1
  O2-  O270  1  0.91073654  0.03867945  0.06565857  1
  O2-  O271  1  0.91350665  0.03967150  0.39559212  1
  O2-  O272  1  0.92169677  0.04560285  0.73518361  1
  O2-  O273  1  0.92302310  0.55430839  0.06454907  1
  O2-  O274  1  0.92182349  0.55315321  0.40135727  1
  O2-  O275  1  0.91422284  0.54847868  0.72453158  1
  O2-  O276  1  0.29719078  0.16344153  0.06758322  1
  O2-  O277  1  0.29464623  0.15783794  0.39577352  1
  O2-  O278  1  0.28529723  0.16344863  0.73892095  1
  O2-  O279  1  0.28195563  0.66536240  0.06409792  1
  O2-  O280  1  0.28468300  0.66837768  0.40511518  1
  O2-  O281  1  0.29693661  0.66752861  0.72967422  1
  O2-  O282  1  0.79406741  0.16147543  0.06399018  1
  O2-  O283  1  0.79704897  0.16150339  0.39524803  1
  O2-  O284  1  0.79067835  0.16958417  0.73811169  1
  O2-  O285  1  0.78973927  0.67047862  0.06665740  1
  O2-  O286  1  0.78640567  0.67116401  0.40114392  1
  O2-  O287  1  0.78770519  0.65946931  0.72890843  1
