# generated using pymatgen
data_Ca2Al2SiO7
_symmetry_space_group_name_H-M   'P 1'
_cell_length_a   15.45454950
_cell_length_b   15.45459628
_cell_length_c   15.28147585
_cell_angle_alpha   89.99984239
_cell_angle_beta   90.00967359
_cell_angle_gamma   90.00557106
_symmetry_Int_Tables_number   1
_chemical_formula_structural   Ca2Al2SiO7
_chemical_formula_sum   'Ca48 Al48 Si24 O168'
_cell_volume   3649.88604679
_cell_formula_units_Z   24
loop_
 _symmetry_equiv_pos_site_id
 _symmetry_equiv_pos_as_xyz
  1  'x, y, z'
loop_
 _atom_type_symbol
 _atom_type_oxidation_number
  Ca2+  2.0
  Al0+  0.0
  Si0+  0.0
  O2-  -2.0
loop_
 _atom_site_type_symbol
 _atom_site_label
 _atom_site_symmetry_multiplicity
 _atom_site_fract_x
 _atom_site_fract_y
 _atom_site_fract_z
 _atom_site_occupancy
  Ca2+  Ca0  1  0.16369114  0.07743162  0.17622450  1
  Ca2+  Ca1  1  0.17575155  0.08844861  0.49901229  1
  Ca2+  Ca2  1  0.17057553  0.08169814  0.83854548  1
  Ca2+  Ca3  1  0.16720607  0.58328777  0.17487149  1
  Ca2+  Ca4  1  0.17012221  0.58003932  0.50724665  1
  Ca2+  Ca5  1  0.16794521  0.57896482  0.83266058  1
  Ca2+  Ca6  1  0.66849539  0.08759399  0.16877055  1
  Ca2+  Ca7  1  0.67104887  0.07766704  0.50977318  1
  Ca2+  Ca8  1  0.67834975  0.07731243  0.84143719  1
  Ca2+  Ca9  1  0.66240810  0.57242250  0.17382167  1
  Ca2+  Ca10  1  0.65734749  0.57363622  0.50464840  1
  Ca2+  Ca11  1  0.66240139  0.57255939  0.83343485  1
  Ca2+  Ca12  1  0.08522461  0.31643173  0.16151957  1
  Ca2+  Ca13  1  0.07858885  0.33207550  0.49626733  1
  Ca2+  Ca14  1  0.07617104  0.32793704  0.82426415  1
  Ca2+  Ca15  1  0.08304567  0.83908751  0.16630632  1
  Ca2+  Ca16  1  0.07366753  0.83466109  0.49081965  1
  Ca2+  Ca17  1  0.07774269  0.83773174  0.82850302  1
  Ca2+  Ca18  1  0.58437916  0.32599312  0.16683327  1
  Ca2+  Ca19  1  0.57889106  0.32936631  0.48995804  1
  Ca2+  Ca20  1  0.59175752  0.32832404  0.83111591  1
  Ca2+  Ca21  1  0.58557002  0.83036707  0.16254287  1
  Ca2+  Ca22  1  0.59022229  0.82098502  0.49667359  1
  Ca2+  Ca23  1  0.59219030  0.82910718  0.82429929  1
  Ca2+  Ca24  1  0.33621910  0.41463939  0.17272926  1
  Ca2+  Ca25  1  0.32869926  0.41844578  0.50785617  1
  Ca2+  Ca26  1  0.33054316  0.42245333  0.82874365  1
  Ca2+  Ca27  1  0.32165429  0.92493731  0.17582985  1
  Ca2+  Ca28  1  0.33012928  0.92827556  0.50237738  1
  Ca2+  Ca29  1  0.32914064  0.92290260  0.83704343  1
  Ca2+  Ca30  1  0.82034843  0.41290250  0.17074037  1
  Ca2+  Ca31  1  0.82190219  0.41331073  0.50719887  1
  Ca2+  Ca32  1  0.82368675  0.40904155  0.83426311  1
  Ca2+  Ca33  1  0.83203096  0.92096790  0.16699476  1
  Ca2+  Ca34  1  0.83392035  0.91917110  0.50729862  1
  Ca2+  Ca35  1  0.82789228  0.92202549  0.83518406  1
  Ca2+  Ca36  1  0.42461208  0.16630780  0.16722398  1
  Ca2+  Ca37  1  0.41848405  0.16939840  0.49004336  1
  Ca2+  Ca38  1  0.42420651  0.16182800  0.82988871  1
  Ca2+  Ca39  1  0.42261464  0.66718519  0.16678575  1
  Ca2+  Ca40  1  0.42513655  0.66083099  0.49791399  1
  Ca2+  Ca41  1  0.42173516  0.66952855  0.82381278  1
  Ca2+  Ca42  1  0.92645950  0.15818511  0.16229820  1
  Ca2+  Ca43  1  0.91803097  0.16952723  0.49858942  1
  Ca2+  Ca44  1  0.91775914  0.16235369  0.82887996  1
  Ca2+  Ca45  1  0.92002541  0.67326139  0.16959143  1
  Ca2+  Ca46  1  0.91906868  0.68053736  0.49205844  1
  Ca2+  Ca47  1  0.91491614  0.67612172  0.82323494  1
  Al0+  Al48  1  0.00049707  -0.00082890  0.00070105  1
  Al0+  Al49  1  -0.00217976  0.00037396  0.33145798  1
  Al0+  Al50  1  0.00153602  0.00085607  0.66379402  1
  Al0+  Al51  1  0.00116784  0.50049502  0.00041675  1
  Al0+  Al52  1  -0.00236781  0.50304338  0.32976978  1
  Al0+  Al53  1  -0.00129409  0.49825144  0.66591897  1
  Al0+  Al54  1  0.49919755  -0.00011094  -0.00126577  1
  Al0+  Al55  1  0.50069502  -0.00066409  0.33388513  1
  Al0+  Al56  1  0.49911182  -0.00229234  0.67324690  1
  Al0+  Al57  1  0.49940791  0.50113281  0.00279352  1
  Al0+  Al58  1  0.49911437  0.49941265  0.32896461  1
  Al0+  Al59  1  0.49888361  0.49914878  0.67222606  1
  Al0+  Al60  1  0.25072271  0.25222598  -0.00636578  1
  Al0+  Al61  1  0.24928196  0.25130636  0.32873055  1
  Al0+  Al62  1  0.25127002  0.24970140  0.67625660  1
  Al0+  Al63  1  0.25097643  0.74980775  0.00244557  1
  Al0+  Al64  1  0.24937889  0.75020479  0.33595554  1
  Al0+  Al65  1  0.25186612  0.75095523  0.66943457  1
  Al0+  Al66  1  0.74962768  0.25063446  0.00560935  1
  Al0+  Al67  1  0.74849132  0.25029538  0.33573790  1
  Al0+  Al68  1  0.75178265  0.24844793  0.66895580  1
  Al0+  Al69  1  0.75127312  0.74916680  0.00205792  1
  Al0+  Al70  1  0.75122486  0.74925728  0.32284985  1
  Al0+  Al71  1  0.75015260  0.74776648  0.65917750  1
  Al0+  Al72  1  0.06905509  0.18228099  0.32166381  1
  Al0+  Al73  1  0.67911679  0.43017553  0.34894119  1
  Al0+  Al74  1  0.32198557  0.07174854  0.68202368  1
  Al0+  Al75  1  0.67936592  0.43058474  0.01576102  1
  Al0+  Al76  1  0.57085421  0.17970258  0.98444187  1
  Al0+  Al77  1  0.56949203  0.67892515  0.31800564  1
  Al0+  Al78  1  0.82255783  0.07079693  0.68057783  1
  Al0+  Al79  1  0.17580237  0.42865491  0.68154348  1
  Al0+  Al80  1  0.56877138  0.67847763  0.65350741  1
  Al0+  Al81  1  0.32172855  0.07279824  0.34710349  1
  Al0+  Al82  1  0.67877250  0.42852422  0.67967534  1
  Al0+  Al83  1  0.18081794  0.93016886  0.01329109  1
  Al0+  Al84  1  0.07298423  0.67918192  0.31887534  1
  Al0+  Al85  1  0.82046635  0.07049518  0.01694883  1
  Al0+  Al86  1  0.92768884  0.32040629  0.65279212  1
  Al0+  Al87  1  0.42817660  0.32088971  0.31990294  1
  Al0+  Al88  1  0.67728240  0.92714457  0.01621946  1
  Al0+  Al89  1  0.17679693  0.92904464  0.35070226  1
  Al0+  Al90  1  0.07076956  0.17721290  0.98420448  1
  Al0+  Al91  1  0.92912479  0.82304052  0.31441543  1
  Al0+  Al92  1  0.93054328  0.82133008  0.65328150  1
  Al0+  Al93  1  0.57268074  0.17630559  0.32064818  1
  Al0+  Al94  1  0.32094794  0.57197258  0.68140520  1
  Al0+  Al95  1  0.68031447  0.92561920  0.67876659  1
  Si0+  Si96  1  0.82170986  0.57173944  0.68049120  1
  Si0+  Si97  1  0.93013441  0.81915380  0.98312064  1
  Si0+  Si98  1  0.92585017  0.32390464  0.31666831  1
  Si0+  Si99  1  0.92925026  0.32298719  0.98452585  1
  Si0+  Si100  1  0.32230249  0.07496257  0.01728792  1
  Si0+  Si101  1  0.42608466  0.82405699  0.64925245  1
  Si0+  Si102  1  0.07403950  0.67739329  0.65198201  1
  Si0+  Si103  1  0.42797734  0.81957226  0.98559651  1
  Si0+  Si104  1  0.17833548  0.92867503  0.68253897  1
  Si0+  Si105  1  0.17820371  0.42928141  0.01611180  1
  Si0+  Si106  1  0.57083591  0.67934089  0.98437718  1
  Si0+  Si107  1  0.32074914  0.57089633  0.34735652  1
  Si0+  Si108  1  0.57096510  0.17744369  0.65414400  1
  Si0+  Si109  1  0.42848637  0.32522754  0.97918716  1
  Si0+  Si110  1  0.42780036  0.82282857  0.31724626  1
  Si0+  Si111  1  0.67921914  0.92637681  0.34716204  1
  Si0+  Si112  1  0.17677496  0.42944302  0.34523633  1
  Si0+  Si113  1  0.31943182  0.57049264  0.01711649  1
  Si0+  Si114  1  0.82153991  0.57329577  0.35053874  1
  Si0+  Si115  1  0.82017936  0.07081786  0.34926005  1
  Si0+  Si116  1  0.82487440  0.57334906  0.01739131  1
  Si0+  Si117  1  0.42958951  0.31925973  0.65423023  1
  Si0+  Si118  1  0.07345148  0.67778954  0.98334180  1
  Si0+  Si119  1  0.07467879  0.17914253  0.64960773  1
  O2-  O120  1  0.25077548  0.00891998  0.06052760  1
  O2-  O121  1  0.24972463  0.00123522  0.39859066  1
  O2-  O122  1  0.24703807  -0.00324777  0.72753027  1
  O2-  O123  1  0.24969726  0.49885051  0.06002322  1
  O2-  O124  1  0.24649720  0.50201459  0.38721842  1
  O2-  O125  1  0.24510683  0.50393496  0.73161646  1
  O2-  O126  1  0.74567020  0.00142890  0.06790842  1
  O2-  O127  1  0.74772503  -0.00012944  0.38922343  1
  O2-  O128  1  0.75036866  -0.00144441  0.72955004  1
  O2-  O129  1  0.75574041  0.50472923  0.06092101  1
  O2-  O130  1  0.75383761  0.50462773  0.39609748  1
  O2-  O131  1  0.75539165  0.50167377  0.72644404  1
  O2-  O132  1  -0.00469698  0.25665807  0.27199845  1
  O2-  O133  1  0.00501502  0.24782861  0.60671356  1
  O2-  O134  1  -0.00409133  0.25279037  0.93941418  1
  O2-  O135  1  0.00518380  0.75346944  0.26603025  1
  O2-  O136  1  0.00682194  0.74711222  0.60809784  1
  O2-  O137  1  0.00110665  0.74712459  0.94111692  1
  O2-  O138  1  0.49939814  0.24763600  0.27116170  1
  O2-  O139  1  0.49937927  0.24768483  0.61141048  1
  O2-  O140  1  0.49611428  0.25477254  0.93606539  1
  O2-  O141  1  0.49711222  0.75562436  0.27077751  1
  O2-  O142  1  0.49529692  0.75483916  0.60650310  1
  O2-  O143  1  0.50458087  0.75467287  0.94243185  1
  O2-  O144  1  0.07111849  0.17879968  0.09750991  1
  O2-  O145  1  0.06951620  0.18574583  0.43470798  1
  O2-  O146  1  0.07409354  0.17887787  0.75542165  1
  O2-  O147  1  0.07453246  0.67662000  0.08796179  1
  O2-  O148  1  0.07035767  0.67628591  0.43237399  1
  O2-  O149  1  0.07237065  0.67873104  0.75829629  1
  O2-  O150  1  0.56881838  0.18106485  0.09724955  1
  O2-  O151  1  0.57364381  0.17743393  0.43481354  1
  O2-  O152  1  0.57035916  0.17957171  0.75936597  1
  O2-  O153  1  0.56719886  0.67756108  0.08946972  1
  O2-  O154  1  0.56733942  0.67743549  0.43107065  1
  O2-  O155  1  0.56775476  0.67845213  0.76720084  1
  O2-  O156  1  0.17857669  0.43014907  0.23973965  1
  O2-  O157  1  0.17831528  0.42819681  0.56743931  1
  O2-  O158  1  0.17687055  0.43248357  0.91143563  1
  O2-  O159  1  0.17926824  0.93072447  0.23673093  1
  O2-  O160  1  0.17901492  0.92848028  0.57745255  1
  O2-  O161  1  0.18361895  0.92802410  0.89993802  1
  O2-  O162  1  0.68044386  0.43124547  0.23566951  1
  O2-  O163  1  0.67671145  0.42909909  0.56683589  1
  O2-  O164  1  0.67967293  0.43228168  0.90235253  1
  O2-  O165  1  0.68003747  0.92629183  0.24216005  1
  O2-  O166  1  0.68086663  0.92675490  0.56469949  1
  O2-  O167  1  0.68202027  0.92349176  0.90294390  1
  O2-  O168  1  0.42753823  0.32685974  0.08454013  1
  O2-  O169  1  0.42804966  0.32284740  0.43400856  1
  O2-  O170  1  0.43088334  0.31938972  0.75941747  1
  O2-  O171  1  0.42540789  0.81436438  0.09055559  1
  O2-  O172  1  0.42918465  0.82181700  0.42269590  1
  O2-  O173  1  0.42446508  0.82247196  0.75527859  1
  O2-  O174  1  0.93365083  0.32583491  0.09017046  1
  O2-  O175  1  0.92670809  0.32301559  0.42238817  1
  O2-  O176  1  0.92778918  0.31908391  0.76603576  1
  O2-  O177  1  0.93071542  0.81789053  0.08779993  1
  O2-  O178  1  0.92780691  0.82138583  0.42817054  1
  O2-  O179  1  0.93156469  0.81955249  0.76705511  1
  O2-  O180  1  0.32057213  0.07118968  0.23349232  1
  O2-  O181  1  0.32187845  0.07402282  0.56927399  1
  O2-  O182  1  0.32207992  0.07136179  0.91135135  1
  O2-  O183  1  0.32114725  0.57021467  0.24169668  1
  O2-  O184  1  0.32198684  0.56800076  0.56770199  1
  O2-  O185  1  0.31869355  0.57129157  0.91233802  1
  O2-  O186  1  0.82103619  0.07109162  0.24428788  1
  O2-  O187  1  0.82054526  0.07140814  0.56651569  1
  O2-  O188  1  0.82170520  0.06762529  0.90350637  1
  O2-  O189  1  0.82101484  0.57107613  0.24457263  1
  O2-  O190  1  0.82053853  0.57143047  0.57523871  1
  O2-  O191  1  0.82530923  0.57548703  0.91171030  1
  O2-  O192  1  0.03701551  0.08645296  0.26784193  1
  O2-  O193  1  0.05071596  0.08578968  0.60294009  1
  O2-  O194  1  0.04068557  0.08038954  0.93029578  1
  O2-  O195  1  0.04169981  0.58204362  0.26206757  1
  O2-  O196  1  0.04983694  0.58328736  0.60710574  1
  O2-  O197  1  0.04699980  0.58509241  0.93623803  1
  O2-  O198  1  0.54694337  0.07761069  0.26672046  1
  O2-  O199  1  0.54350847  0.08427044  0.60967175  1
  O2-  O200  1  0.54049676  0.08202783  0.93081734  1
  O2-  O201  1  0.53384440  0.58524773  0.26157415  1
  O2-  O202  1  0.53357605  0.58183752  0.60118630  1
  O2-  O203  1  0.53723835  0.58901877  0.93721573  1
  O2-  O204  1  0.16378553  0.21256914  0.26398176  1
  O2-  O205  1  0.16880504  0.20783633  0.60646304  1
  O2-  O206  1  0.16753315  0.20906490  0.93035416  1
  O2-  O207  1  0.17340365  0.70220905  0.26668619  1
  O2-  O208  1  0.16916757  0.70051586  0.60807495  1
  O2-  O209  1  0.16531304  0.70705090  0.93646040  1
  O2-  O210  1  0.66977336  0.20854552  0.26669257  1
  O2-  O211  1  0.66269693  0.20510450  0.60753247  1
  O2-  O212  1  0.66877505  0.21220539  0.93333989  1
  O2-  O213  1  0.66553528  0.70597805  0.26197333  1
  O2-  O214  1  0.66463183  0.70549041  0.59636479  1
  O2-  O215  1  0.66535148  0.70135279  0.93970020  1
  O2-  O216  1  0.08692923  0.45728512  0.06443272  1
  O2-  O217  1  0.08382982  0.45596602  0.39127814  1
  O2-  O218  1  0.07702089  0.45472401  0.73578636  1
  O2-  O219  1  0.08342449  0.95682153  0.06606338  1
  O2-  O220  1  0.07767061  0.95854500  0.40066665  1
  O2-  O221  1  0.08546204  0.95562774  0.72914970  1
  O2-  O222  1  0.58304056  0.46439513  0.06869377  1
  O2-  O223  1  0.58135841  0.46311771  0.39934920  1
  O2-  O224  1  0.58456039  0.46069780  0.73688561  1
  O2-  O225  1  0.57566275  0.94955742  0.06513457  1
  O2-  O226  1  0.58634994  0.94904932  0.39433946  1
  O2-  O227  1  0.58099377  0.94837915  0.73202522  1
  O2-  O228  1  0.20683856  0.33646221  0.06113684  1
  O2-  O229  1  0.20539855  0.33880627  0.39326427  1
  O2-  O230  1  0.20840747  0.33380772  0.73864052  1
  O2-  O231  1  0.21397554  0.83392355  0.06742538  1
  O2-  O232  1  0.20409728  0.82964636  0.40242872  1
  O2-  O233  1  0.20223120  0.83496415  0.72980823  1
  O2-  O234  1  0.70948104  0.33519095  0.07138274  1
  O2-  O235  1  0.70908451  0.33324630  0.40299084  1
  O2-  O236  1  0.71115369  0.33296438  0.73429411  1
  O2-  O237  1  0.70774438  0.82844647  0.06877520  1
  O2-  O238  1  0.71019013  0.83390925  0.39154923  1
  O2-  O239  1  0.71019598  0.82669670  0.73020565  1
  O2-  O240  1  0.45758763  0.41733196  0.26320680  1
  O2-  O241  1  0.45704667  0.41137542  0.60792751  1
  O2-  O242  1  0.45607957  0.41944713  0.93452699  1
  O2-  O243  1  0.45235171  0.91582553  0.26985341  1
  O2-  O244  1  0.45117120  0.91813774  0.60408973  1
  O2-  O245  1  0.44736109  0.91365821  0.93952432  1
  O2-  O246  1  0.94766348  0.41815553  0.27086498  1
  O2-  O247  1  0.95510323  0.41800175  0.59799609  1
  O2-  O248  1  0.95640097  0.41644791  0.93741510  1
  O2-  O249  1  0.95507803  0.92149822  0.26146106  1
  O2-  O250  1  0.96073703  0.91760629  0.59817055  1
  O2-  O251  1  0.95984072  0.91005962  0.93597370  1
  O2-  O252  1  0.33053643  0.29580741  0.26336030  1
  O2-  O253  1  0.33634072  0.29262451  0.60917442  1
  O2-  O254  1  0.33401889  0.30307210  0.93285189  1
  O2-  O255  1  0.33470807  0.79482332  0.27152632  1
  O2-  O256  1  0.33245125  0.79875885  0.60288027  1
  O2-  O257  1  0.33908460  0.78454660  0.93581088  1
  O2-  O258  1  0.83288232  0.29579423  0.27157026  1
  O2-  O259  1  0.83218664  0.28709916  0.59699805  1
  O2-  O260  1  0.83389417  0.29971876  0.94217435  1
  O2-  O261  1  0.83412315  0.78959930  0.25730608  1
  O2-  O262  1  0.83624138  0.78815560  0.59649729  1
  O2-  O263  1  0.83813688  0.78980656  0.93630956  1
  O2-  O264  1  0.41476991  0.04605496  0.06260763  1
  O2-  O265  1  0.42043232  0.04384726  0.40053102  1
  O2-  O266  1  0.41639606  0.03893982  0.73947164  1
  O2-  O267  1  0.41131005  0.54339194  0.06497030  1
  O2-  O268  1  0.41123577  0.53952690  0.39446623  1
  O2-  O269  1  0.41525870  0.53781921  0.73936964  1
  O2-  O270  1  0.91794394  0.03717345  0.06899783  1
  O2-  O271  1  0.91095214  0.04214217  0.39743504  1
  O2-  O272  1  0.92221052  0.04381063  0.73149871  1
  O2-  O273  1  0.91891072  0.54813676  0.06365240  1
  O2-  O274  1  0.91612013  0.55008852  0.39590574  1
  O2-  O275  1  0.91601758  0.55055375  0.72718026  1
  O2-  O276  1  0.30077713  0.17154783  0.05787685  1
  O2-  O277  1  0.29109835  0.17187880  0.39862588  1
  O2-  O278  1  0.29309823  0.16620150  0.74059991  1
  O2-  O279  1  0.29065171  0.66122037  0.06584092  1
  O2-  O280  1  0.29746343  0.66284179  0.39597763  1
  O2-  O281  1  0.29777937  0.67157770  0.73552535  1
  O2-  O282  1  0.79705349  0.16992319  0.06977227  1
  O2-  O283  1  0.79378126  0.16297174  0.39680467  1
  O2-  O284  1  0.79384286  0.16757076  0.73572159  1
  O2-  O285  1  0.79911108  0.66594272  0.06480303  1
  O2-  O286  1  0.79520941  0.66819004  0.39285717  1
  O2-  O287  1  0.79314272  0.66398492  0.72766524  1
