# generated using pymatgen
data_Ca2Al2SiO7
_symmetry_space_group_name_H-M   'P 1'
_cell_length_a   15.45644548
_cell_length_b   15.45713734
_cell_length_c   15.28303273
_cell_angle_alpha   89.99322660
_cell_angle_beta   89.99386040
_cell_angle_gamma   90.00004704
_symmetry_Int_Tables_number   1
_chemical_formula_structural   Ca2Al2SiO7
_chemical_formula_sum   'Ca48 Al48 Si24 O168'
_cell_volume   3651.30599064
_cell_formula_units_Z   24
loop_
 _symmetry_equiv_pos_site_id
 _symmetry_equiv_pos_as_xyz
  1  'x, y, z'
loop_
 _atom_type_symbol
 _atom_type_oxidation_number
  Ca2+  2.0
  Al0+  0.0
  Si0+  0.0
  O2-  -2.0
loop_
 _atom_site_type_symbol
 _atom_site_label
 _atom_site_symmetry_multiplicity
 _atom_site_fract_x
 _atom_site_fract_y
 _atom_site_fract_z
 _atom_site_occupancy
  Ca2+  Ca0  1  0.16289025  0.08061015  0.16961798  1
  Ca2+  Ca1  1  0.17597348  0.07887689  0.50690607  1
  Ca2+  Ca2  1  0.17138722  0.08746977  0.83502034  1
  Ca2+  Ca3  1  0.16521670  0.57543317  0.17720607  1
  Ca2+  Ca4  1  0.17533880  0.57775752  0.50404398  1
  Ca2+  Ca5  1  0.16914250  0.57410101  0.83521172  1
  Ca2+  Ca6  1  0.68023172  0.08303886  0.17278225  1
  Ca2+  Ca7  1  0.66464601  0.07845142  0.50776340  1
  Ca2+  Ca8  1  0.66607418  0.07670144  0.83454286  1
  Ca2+  Ca9  1  0.66994872  0.59110686  0.17306370  1
  Ca2+  Ca10  1  0.67452537  0.58538887  0.50691246  1
  Ca2+  Ca11  1  0.66898929  0.58172325  0.83275849  1
  Ca2+  Ca12  1  0.08539055  0.33243654  0.16052488  1
  Ca2+  Ca13  1  0.08211147  0.34375916  0.50048842  1
  Ca2+  Ca14  1  0.08316647  0.33427182  0.82791997  1
  Ca2+  Ca15  1  0.08582358  0.81555759  0.16273632  1
  Ca2+  Ca16  1  0.07715526  0.82483153  0.49596147  1
  Ca2+  Ca17  1  0.07603067  0.82620368  0.82709810  1
  Ca2+  Ca18  1  0.57173217  0.34098067  0.16636514  1
  Ca2+  Ca19  1  0.57282536  0.34085663  0.50124939  1
  Ca2+  Ca20  1  0.58093324  0.32520431  0.81847893  1
  Ca2+  Ca21  1  0.58090700  0.82148603  0.16790291  1
  Ca2+  Ca22  1  0.57544525  0.83012447  0.49670986  1
  Ca2+  Ca23  1  0.58338982  0.82897788  0.82448731  1
  Ca2+  Ca24  1  0.32173998  0.42147162  0.17721560  1
  Ca2+  Ca25  1  0.33041074  0.42358310  0.50726577  1
  Ca2+  Ca26  1  0.32683635  0.41648967  0.83288756  1
  Ca2+  Ca27  1  0.33438540  0.91575556  0.17185451  1
  Ca2+  Ca28  1  0.34201427  0.91878372  0.50925806  1
  Ca2+  Ca29  1  0.34199619  0.92354992  0.83006016  1
  Ca2+  Ca30  1  0.82817615  0.42328195  0.17511847  1
  Ca2+  Ca31  1  0.83030649  0.42796112  0.50990275  1
  Ca2+  Ca32  1  0.83117009  0.41477694  0.82722295  1
  Ca2+  Ca33  1  0.83956318  0.92924184  0.17098921  1
  Ca2+  Ca34  1  0.82771264  0.91955109  0.50877199  1
  Ca2+  Ca35  1  0.83053760  0.91737413  0.83406457  1
  Ca2+  Ca36  1  0.41384025  0.17611217  0.16677713  1
  Ca2+  Ca37  1  0.41785895  0.17680664  0.50300944  1
  Ca2+  Ca38  1  0.42088114  0.17257655  0.81819559  1
  Ca2+  Ca39  1  0.42388471  0.66271874  0.16681810  1
  Ca2+  Ca40  1  0.41492201  0.67126076  0.49098911  1
  Ca2+  Ca41  1  0.42078461  0.66938345  0.82518250  1
  Ca2+  Ca42  1  0.91977045  0.16554668  0.15869644  1
  Ca2+  Ca43  1  0.91176310  0.17547537  0.49793139  1
  Ca2+  Ca44  1  0.92149936  0.16935183  0.82819380  1
  Ca2+  Ca45  1  0.92801438  0.65724119  0.16562325  1
  Ca2+  Ca46  1  0.91616846  0.66500716  0.49600842  1
  Ca2+  Ca47  1  0.92245592  0.66456382  0.82481031  1
  Al0+  Al48  1  0.00160633  0.00102597  -0.00067706  1
  Al0+  Al49  1  0.00028285  0.00197576  0.33980876  1
  Al0+  Al50  1  0.00115041  -0.00204555  0.66202883  1
  Al0+  Al51  1  -0.00096434  0.49903333  -0.00152061  1
  Al0+  Al52  1  -0.00316765  0.49866664  0.33614646  1
  Al0+  Al53  1  0.00148697  0.49829072  0.67007474  1
  Al0+  Al54  1  0.50074566  0.00068827  0.00565814  1
  Al0+  Al55  1  0.50094667  0.00084689  0.32632663  1
  Al0+  Al56  1  0.50169814  -0.00103978  0.66863182  1
  Al0+  Al57  1  0.49912990  0.50163141  -0.00522958  1
  Al0+  Al58  1  0.49820053  0.49962518  0.32654744  1
  Al0+  Al59  1  0.50138628  0.49945754  0.67107439  1
  Al0+  Al60  1  0.24835491  0.25089036  0.00075450  1
  Al0+  Al61  1  0.24859288  0.24763954  0.33262802  1
  Al0+  Al62  1  0.25142955  0.24800303  0.67014540  1
  Al0+  Al63  1  0.25086330  0.75130460  -0.00582787  1
  Al0+  Al64  1  0.24730195  0.75000428  0.32779829  1
  Al0+  Al65  1  0.24967965  0.74980580  0.66773733  1
  Al0+  Al66  1  0.74818425  0.25073040  0.00580252  1
  Al0+  Al67  1  0.75045255  0.24981964  0.33596356  1
  Al0+  Al68  1  0.75355795  0.24931434  0.66170279  1
  Al0+  Al69  1  0.74792087  0.75017397  -0.00188976  1
  Al0+  Al70  1  0.74954607  0.75399558  0.33233199  1
  Al0+  Al71  1  0.75201351  0.75228502  0.67145917  1
  Al0+  Al72  1  0.17919126  0.43052518  0.01542596  1
  Al0+  Al73  1  0.82056709  0.07001925  0.01211161  1
  Al0+  Al74  1  0.32065015  0.06826604  0.67941248  1
  Al0+  Al75  1  0.57277101  0.17736945  0.65260837  1
  Al0+  Al76  1  0.42829484  0.32294302  0.65251906  1
  Al0+  Al77  1  0.17790391  0.42649784  0.34899339  1
  Al0+  Al78  1  0.67922286  0.42718643  0.68043009  1
  Al0+  Al79  1  0.57104749  0.67957983  0.98274553  1
  Al0+  Al80  1  0.82116775  0.57204837  0.68310042  1
  Al0+  Al81  1  0.92830425  0.82059112  0.65271026  1
  Al0+  Al82  1  0.42742410  0.32020391  0.31908250  1
  Al0+  Al83  1  0.07118454  0.67625826  0.98450193  1
  Al0+  Al84  1  0.07054855  0.17902181  0.98621617  1
  Al0+  Al85  1  0.82247292  0.07201898  0.35009886  1
  Al0+  Al86  1  0.57220587  0.67849470  0.32027841  1
  Al0+  Al87  1  0.18045571  0.42859961  0.68299925  1
  Al0+  Al88  1  0.67997022  0.93065540  0.68023304  1
  Al0+  Al89  1  0.81876650  0.57232210  0.34525206  1
  Al0+  Al90  1  0.32324110  0.57422876  0.68222928  1
  Al0+  Al91  1  0.93162002  0.32047748  0.65228313  1
  Al0+  Al92  1  0.42692084  0.82264226  0.31710011  1
  Al0+  Al93  1  0.42963334  0.81876117  0.65508123  1
  Al0+  Al94  1  0.32125117  0.57194151  0.34614383  1
  Al0+  Al95  1  0.06724222  0.67809522  0.32131440  1
  Si0+  Si96  1  0.67606663  0.42781722  0.34822175  1
  Si0+  Si97  1  0.17937030  0.92890602  0.01464679  1
  Si0+  Si98  1  0.32181395  0.06954595  0.34684070  1
  Si0+  Si99  1  0.07356383  0.17659009  0.64838784  1
  Si0+  Si100  1  0.17586171  0.92727178  0.68399127  1
  Si0+  Si101  1  0.81940798  0.57145569  0.01478537  1
  Si0+  Si102  1  0.92827429  0.82508231  0.31670995  1
  Si0+  Si103  1  0.67704676  0.92654564  0.02027779  1
  Si0+  Si104  1  0.67685581  0.42919156  0.01559910  1
  Si0+  Si105  1  0.07147184  0.67706743  0.64948162  1
  Si0+  Si106  1  0.67773469  0.93078803  0.34995838  1
  Si0+  Si107  1  0.42878716  0.82482281  0.98162744  1
  Si0+  Si108  1  0.17897488  0.92821380  0.34748844  1
  Si0+  Si109  1  0.32147924  0.07153163  0.01653625  1
  Si0+  Si110  1  0.57316658  0.67767278  0.65159528  1
  Si0+  Si111  1  0.32230935  0.57365738  0.01691552  1
  Si0+  Si112  1  0.57314048  0.17844189  0.31414530  1
  Si0+  Si113  1  0.92503558  0.32145734  0.98438288  1
  Si0+  Si114  1  0.07003406  0.17777324  0.31880134  1
  Si0+  Si115  1  0.57152485  0.17972342  0.98724971  1
  Si0+  Si116  1  0.92823390  0.32014673  0.31761441  1
  Si0+  Si117  1  0.92971478  0.82234072  0.98516377  1
  Si0+  Si118  1  0.82506867  0.07219853  0.68297283  1
  Si0+  Si119  1  0.42861327  0.31929880  0.98469537  1
  O2-  O120  1  0.25166421  -0.00116862  0.05820188  1
  O2-  O121  1  0.25580118  -0.00636549  0.38845289  1
  O2-  O122  1  0.24540590  -0.00504083  0.72857922  1
  O2-  O123  1  0.25072529  0.50831003  0.06179037  1
  O2-  O124  1  0.25180429  0.49766338  0.39622819  1
  O2-  O125  1  0.25343037  0.49991742  0.73261050  1
  O2-  O126  1  0.74786325  -0.00540283  0.06226074  1
  O2-  O127  1  0.74652292  -0.00122412  0.39480786  1
  O2-  O128  1  0.75526863  0.00511740  0.72744876  1
  O2-  O129  1  0.74708475  0.50144915  0.05736737  1
  O2-  O130  1  0.74019390  0.50137600  0.39043872  1
  O2-  O131  1  0.74864466  0.50038521  0.73339363  1
  O2-  O132  1  -0.00029426  0.24923757  0.27570503  1
  O2-  O133  1  0.00621585  0.24596024  0.60375208  1
  O2-  O134  1  -0.00523489  0.25296072  0.94162084  1
  O2-  O135  1  -0.00760462  0.75263558  0.27174710  1
  O2-  O136  1  0.00098153  0.74451800  0.60586886  1
  O2-  O137  1  -0.00561555  0.75031607  0.94030544  1
  O2-  O138  1  0.50486639  0.24805641  0.27006675  1
  O2-  O139  1  0.50441230  0.25365970  0.60388310  1
  O2-  O140  1  0.49974177  0.24817174  0.94348297  1
  O2-  O141  1  0.49665053  0.74732466  0.26906837  1
  O2-  O142  1  0.49901715  0.74019416  0.60741783  1
  O2-  O143  1  0.49699032  0.75578119  0.93835311  1
  O2-  O144  1  0.06939453  0.17811927  0.09985708  1
  O2-  O145  1  0.07046357  0.17465632  0.42326361  1
  O2-  O146  1  0.07124589  0.17488646  0.75428348  1
  O2-  O147  1  0.06962854  0.67657604  0.09798364  1
  O2-  O148  1  0.06648971  0.68125515  0.43383476  1
  O2-  O149  1  0.07034945  0.67956641  0.75562203  1
  O2-  O150  1  0.57092187  0.18173720  0.09242218  1
  O2-  O151  1  0.57196444  0.17519304  0.41892618  1
  O2-  O152  1  0.56983220  0.17673548  0.76737216  1
  O2-  O153  1  0.57180954  0.67977540  0.09571201  1
  O2-  O154  1  0.57539615  0.68159762  0.43329373  1
  O2-  O155  1  0.57351250  0.68179008  0.75760035  1
  O2-  O156  1  0.17757044  0.42658190  0.23469393  1
  O2-  O157  1  0.18027652  0.43110015  0.56964960  1
  O2-  O158  1  0.18180678  0.42835263  0.90309418  1
  O2-  O159  1  0.17589506  0.93199827  0.24190946  1
  O2-  O160  1  0.17498916  0.92908470  0.57813236  1
  O2-  O161  1  0.17858264  0.93039061  0.90999933  1
  O2-  O162  1  0.68012746  0.42499932  0.24169863  1
  O2-  O163  1  0.68040775  0.42991194  0.56679870  1
  O2-  O164  1  0.67807906  0.42529511  0.91132641  1
  O2-  O165  1  0.67946829  0.93274833  0.24394380  1
  O2-  O166  1  0.67989287  0.93122617  0.56719424  1
  O2-  O167  1  0.67454751  0.92814288  0.91493972  1
  O2-  O168  1  0.42932769  0.31761368  0.09021058  1
  O2-  O169  1  0.42701043  0.31802575  0.43123846  1
  O2-  O170  1  0.42770963  0.31766113  0.76679262  1
  O2-  O171  1  0.42835679  0.82606412  0.08709612  1
  O2-  O172  1  0.43003766  0.82638999  0.43022292  1
  O2-  O173  1  0.43380801  0.82094257  0.76840937  1
  O2-  O174  1  0.92367708  0.32089024  0.09048723  1
  O2-  O175  1  0.92771597  0.31984069  0.42219983  1
  O2-  O176  1  0.93148383  0.31716733  0.76581161  1
  O2-  O177  1  0.93312504  0.82404515  0.09098305  1
  O2-  O178  1  0.93069124  0.82621585  0.42200628  1
  O2-  O179  1  0.93166056  0.82207671  0.76629364  1
  O2-  O180  1  0.31790931  0.07113240  0.24104647  1
  O2-  O181  1  0.31943293  0.06703546  0.56595395  1
  O2-  O182  1  0.32345429  0.07101745  0.91185417  1
  O2-  O183  1  0.31900190  0.56998916  0.23189629  1
  O2-  O184  1  0.32037298  0.57749001  0.56884986  1
  O2-  O185  1  0.32340531  0.57110593  0.91166936  1
  O2-  O186  1  0.82387346  0.07070686  0.23618035  1
  O2-  O187  1  0.82548027  0.06938587  0.57743060  1
  O2-  O188  1  0.81854609  0.06955930  0.89958685  1
  O2-  O189  1  0.82044841  0.56782376  0.23124130  1
  O2-  O190  1  0.81982665  0.57254807  0.56935938  1
  O2-  O191  1  0.81943941  0.57114324  0.91029772  1
  O2-  O192  1  0.04044212  0.08604092  0.27062308  1
  O2-  O193  1  0.04886908  0.08300462  0.60160927  1
  O2-  O194  1  0.04196030  0.08240556  0.93123068  1
  O2-  O195  1  0.03395481  0.58183179  0.26655397  1
  O2-  O196  1  0.04687068  0.58321888  0.60566651  1
  O2-  O197  1  0.03889372  0.58062643  0.93029899  1
  O2-  O198  1  0.54696221  0.08654422  0.26413723  1
  O2-  O199  1  0.53834296  0.08159604  0.59900062  1
  O2-  O200  1  0.54618323  0.08550997  0.94348631  1
  O2-  O201  1  0.54911952  0.57985517  0.26387817  1
  O2-  O202  1  0.55628281  0.58129762  0.60986032  1
  O2-  O203  1  0.54130052  0.58275785  0.92853920  1
  O2-  O204  1  0.16176865  0.20227904  0.26919930  1
  O2-  O205  1  0.16816740  0.19988733  0.60443516  1
  O2-  O206  1  0.16753039  0.20929795  0.93286727  1
  O2-  O207  1  0.16163169  0.71008732  0.26319376  1
  O2-  O208  1  0.16391391  0.70622329  0.60386990  1
  O2-  O209  1  0.16711150  0.70922193  0.93090652  1
  O2-  O210  1  0.66773685  0.20479069  0.26903288  1
  O2-  O211  1  0.67293120  0.19789050  0.60120737  1
  O2-  O212  1  0.66305118  0.20845776  0.94044040  1
  O2-  O213  1  0.66891922  0.71308352  0.26366647  1
  O2-  O214  1  0.66526600  0.70997514  0.60740754  1
  O2-  O215  1  0.66821268  0.70970496  0.92909901  1
  O2-  O216  1  0.07938400  0.45646338  0.06664910  1
  O2-  O217  1  0.07941711  0.45584188  0.39969473  1
  O2-  O218  1  0.08291724  0.45714494  0.73759371  1
  O2-  O219  1  0.08916939  0.95874415  0.06412703  1
  O2-  O220  1  0.09087494  0.96193639  0.39840110  1
  O2-  O221  1  0.08313139  0.95524561  0.73117945  1
  O2-  O222  1  0.58400629  0.45763918  0.06136466  1
  O2-  O223  1  0.58005378  0.44772219  0.38937044  1
  O2-  O224  1  0.58095350  0.45006664  0.73598270  1
  O2-  O225  1  0.58476439  0.95468976  0.06841644  1
  O2-  O226  1  0.58353493  0.95843299  0.39357569  1
  O2-  O227  1  0.58596246  0.96289179  0.73833208  1
  O2-  O228  1  0.21136634  0.33335293  0.06930418  1
  O2-  O229  1  0.20276020  0.32594327  0.39871982  1
  O2-  O230  1  0.20617899  0.32894890  0.73509588  1
  O2-  O231  1  0.20719916  0.83639004  0.06178329  1
  O2-  O232  1  0.19967589  0.83476598  0.39309513  1
  O2-  O233  1  0.19905309  0.83367151  0.72995815  1
  O2-  O234  1  0.70422006  0.33886134  0.06710734  1
  O2-  O235  1  0.70493947  0.33590162  0.39454647  1
  O2-  O236  1  0.71195379  0.32859408  0.73266360  1
  O2-  O237  1  0.70233158  0.83239344  0.06533217  1
  O2-  O238  1  0.70220804  0.83754622  0.39592345  1
  O2-  O239  1  0.71214497  0.83652330  0.73801738  1
  O2-  O240  1  0.45603009  0.41522110  0.26010290  1
  O2-  O241  1  0.45506783  0.42241661  0.60083114  1
  O2-  O242  1  0.45484649  0.41155185  0.93903242  1
  O2-  O243  1  0.45781350  0.91997396  0.26053877  1
  O2-  O244  1  0.46450026  0.91392325  0.60158404  1
  O2-  O245  1  0.45603229  0.92000754  0.93861221  1
  O2-  O246  1  0.95495218  0.41149918  0.26878483  1
  O2-  O247  1  0.96229845  0.41752279  0.59881093  1
  O2-  O248  1  0.94999693  0.41441908  0.93802527  1
  O2-  O249  1  0.96050409  0.91786091  0.27152277  1
  O2-  O250  1  0.96040081  0.91583050  0.59613655  1
  O2-  O251  1  0.95931864  0.91386467  0.93744609  1
  O2-  O252  1  0.33253719  0.28311363  0.26335566  1
  O2-  O253  1  0.33173922  0.28767711  0.60032772  1
  O2-  O254  1  0.33742740  0.28934225  0.93873984  1
  O2-  O255  1  0.32714305  0.79984932  0.26383562  1
  O2-  O256  1  0.32983973  0.79730124  0.60282713  1
  O2-  O257  1  0.33458342  0.80337630  0.93531819  1
  O2-  O258  1  0.83631824  0.29181409  0.26938460  1
  O2-  O259  1  0.83677516  0.29044496  0.59472571  1
  O2-  O260  1  0.83119954  0.29411328  0.93966483  1
  O2-  O261  1  0.83310177  0.80712871  0.27144562  1
  O2-  O262  1  0.83101738  0.79288650  0.59924277  1
  O2-  O263  1  0.83377223  0.80155374  0.94256864  1
  O2-  O264  1  0.41331406  0.04597499  0.06640507  1
  O2-  O265  1  0.41616402  0.04659963  0.39009296  1
  O2-  O266  1  0.41539771  0.03579749  0.73606541  1
  O2-  O267  1  0.41588712  0.54410469  0.06183447  1
  O2-  O268  1  0.42178747  0.54676243  0.39531810  1
  O2-  O269  1  0.42219136  0.54916016  0.73526055  1
  O2-  O270  1  0.91801681  0.03969539  0.06668666  1
  O2-  O271  1  0.91827735  0.04232854  0.40538510  1
  O2-  O272  1  0.91873545  0.04368464  0.72800713  1
  O2-  O273  1  0.91076338  0.54141130  0.06214048  1
  O2-  O274  1  0.91200120  0.53695546  0.40125715  1
  O2-  O275  1  0.91870925  0.54090320  0.73566163  1
  O2-  O276  1  0.29079763  0.16224244  0.06447725  1
  O2-  O277  1  0.28849902  0.15842319  0.39534361  1
  O2-  O278  1  0.29013076  0.16298021  0.73689733  1
  O2-  O279  1  0.30142407  0.67044613  0.05834765  1
  O2-  O280  1  0.29147578  0.67143538  0.39578219  1
  O2-  O281  1  0.29262668  0.67180676  0.73738899  1
  O2-  O282  1  0.78878883  0.16583528  0.06918867  1
  O2-  O283  1  0.79247222  0.16916577  0.40237085  1
  O2-  O284  1  0.80349108  0.16670514  0.72728720  1
  O2-  O285  1  0.79308011  0.66424971  0.06156957  1
  O2-  O286  1  0.79505189  0.67210514  0.39596115  1
  O2-  O287  1  0.79511956  0.67018449  0.73740609  1
