# generated using pymatgen
data_Ca2Al2SiO7
_symmetry_space_group_name_H-M   'P 1'
_cell_length_a   15.45999216
_cell_length_b   15.46134194
_cell_length_c   15.28579778
_cell_angle_alpha   89.99994184
_cell_angle_beta   89.99475443
_cell_angle_gamma   90.00516296
_symmetry_Int_Tables_number   1
_chemical_formula_structural   Ca2Al2SiO7
_chemical_formula_sum   'Ca48 Al48 Si24 O168'
_cell_volume   3653.79822667
_cell_formula_units_Z   24
loop_
 _symmetry_equiv_pos_site_id
 _symmetry_equiv_pos_as_xyz
  1  'x, y, z'
loop_
 _atom_type_symbol
 _atom_type_oxidation_number
  Ca2+  2.0
  Al0+  0.0
  Si0+  0.0
  O2-  -2.0
loop_
 _atom_site_type_symbol
 _atom_site_label
 _atom_site_symmetry_multiplicity
 _atom_site_fract_x
 _atom_site_fract_y
 _atom_site_fract_z
 _atom_site_occupancy
  Ca2+  Ca0  1  0.16717025  0.07978194  0.16660713  1
  Ca2+  Ca1  1  0.17334077  0.08207030  0.50801865  1
  Ca2+  Ca2  1  0.18143669  0.07878886  0.84071067  1
  Ca2+  Ca3  1  0.17038578  0.57436496  0.17685182  1
  Ca2+  Ca4  1  0.16224947  0.57348500  0.49980984  1
  Ca2+  Ca5  1  0.16506681  0.57228860  0.83613273  1
  Ca2+  Ca6  1  0.66323475  0.08368938  0.16667765  1
  Ca2+  Ca7  1  0.67093402  0.07763412  0.51363373  1
  Ca2+  Ca8  1  0.66341573  0.08479979  0.83143986  1
  Ca2+  Ca9  1  0.67730415  0.58570493  0.17497962  1
  Ca2+  Ca10  1  0.67399302  0.58318853  0.50788546  1
  Ca2+  Ca11  1  0.67469745  0.58240002  0.83197800  1
  Ca2+  Ca12  1  0.07514896  0.34771898  0.16473674  1
  Ca2+  Ca13  1  0.07489663  0.34182510  0.49731268  1
  Ca2+  Ca14  1  0.07472657  0.34324206  0.82934842  1
  Ca2+  Ca15  1  0.08268979  0.82837796  0.16502715  1
  Ca2+  Ca16  1  0.07429474  0.82416463  0.48880984  1
  Ca2+  Ca17  1  0.08483589  0.83337422  0.82985034  1
  Ca2+  Ca18  1  0.57355235  0.33072019  0.16190618  1
  Ca2+  Ca19  1  0.58495367  0.32967748  0.49699877  1
  Ca2+  Ca20  1  0.58676787  0.32274192  0.82459434  1
  Ca2+  Ca21  1  0.58381252  0.82463541  0.16693749  1
  Ca2+  Ca22  1  0.58384530  0.82465343  0.50255835  1
  Ca2+  Ca23  1  0.57977672  0.82967380  0.81993943  1
  Ca2+  Ca24  1  0.32304602  0.41628347  0.17870385  1
  Ca2+  Ca25  1  0.32565570  0.41612353  0.50050298  1
  Ca2+  Ca26  1  0.31932146  0.41145429  0.83662459  1
  Ca2+  Ca27  1  0.33133542  0.92187681  0.16475374  1
  Ca2+  Ca28  1  0.33796952  0.92206253  0.50854509  1
  Ca2+  Ca29  1  0.33783373  0.92519366  0.83646412  1
  Ca2+  Ca30  1  0.83913091  0.42457000  0.17112483  1
  Ca2+  Ca31  1  0.83348732  0.42506742  0.50828428  1
  Ca2+  Ca32  1  0.83355599  0.42173389  0.83311498  1
  Ca2+  Ca33  1  0.83458786  0.91786933  0.17426767  1
  Ca2+  Ca34  1  0.82961483  0.92098544  0.50862049  1
  Ca2+  Ca35  1  0.82692422  0.92306076  0.83119243  1
  Ca2+  Ca36  1  0.41827866  0.17082459  0.16173467  1
  Ca2+  Ca37  1  0.42024479  0.17105995  0.50009264  1
  Ca2+  Ca38  1  0.42369643  0.15862775  0.82758635  1
  Ca2+  Ca39  1  0.42248726  0.65641969  0.16757275  1
  Ca2+  Ca40  1  0.42903314  0.65986668  0.49521030  1
  Ca2+  Ca41  1  0.42270834  0.67674823  0.81984143  1
  Ca2+  Ca42  1  0.91873561  0.18306675  0.16061072  1
  Ca2+  Ca43  1  0.91002087  0.17998075  0.49856024  1
  Ca2+  Ca44  1  0.91521817  0.17984780  0.82411977  1
  Ca2+  Ca45  1  0.91906640  0.66248708  0.16857236  1
  Ca2+  Ca46  1  0.91658316  0.66620650  0.49015716  1
  Ca2+  Ca47  1  0.91359839  0.66115122  0.82975956  1
  Al0+  Al48  1  -0.00096247  0.00007318  0.00230854  1
  Al0+  Al49  1  -0.00031165  0.00110316  0.33149641  1
  Al0+  Al50  1  0.00084951  0.00111520  0.67022176  1
  Al0+  Al51  1  -0.00036431  0.50296389  0.00254989  1
  Al0+  Al52  1  -0.00009761  0.50145276  0.33320415  1
  Al0+  Al53  1  0.00018140  0.50039657  0.66984787  1
  Al0+  Al54  1  0.50054781  -0.00127046  0.00274843  1
  Al0+  Al55  1  0.50048957  -0.00222580  0.33330203  1
  Al0+  Al56  1  0.50025794  -0.00001857  0.66480006  1
  Al0+  Al57  1  0.50157018  0.49821104  -0.00471391  1
  Al0+  Al58  1  0.50004099  0.49758568  0.32660184  1
  Al0+  Al59  1  0.49924851  0.49953383  0.66808328  1
  Al0+  Al60  1  0.24829693  0.24926159  0.00916116  1
  Al0+  Al61  1  0.25034162  0.24811570  0.33441002  1
  Al0+  Al62  1  0.24906293  0.24811958  0.67595013  1
  Al0+  Al63  1  0.25000274  0.74984665  0.00170064  1
  Al0+  Al64  1  0.25170308  0.75103216  0.33291053  1
  Al0+  Al65  1  0.24889988  0.74978790  0.66082510  1
  Al0+  Al66  1  0.74905972  0.25075729  -0.00672782  1
  Al0+  Al67  1  0.75121032  0.24840744  0.32678704  1
  Al0+  Al68  1  0.75034555  0.25170390  0.66345851  1
  Al0+  Al69  1  0.75128287  0.75067937  0.00316934  1
  Al0+  Al70  1  0.74805348  0.75133508  0.32950977  1
  Al0+  Al71  1  0.75067345  0.75155547  0.67111632  1
  Al0+  Al72  1  0.17890152  0.42862728  0.35055961  1
  Al0+  Al73  1  0.32283405  0.06971808  0.01809901  1
  Al0+  Al74  1  0.57043551  0.18080125  0.65197266  1
  Al0+  Al75  1  0.56826849  0.17889726  0.98535071  1
  Al0+  Al76  1  0.67963825  0.93032806  0.68136957  1
  Al0+  Al77  1  0.57247603  0.67716256  0.65227956  1
  Al0+  Al78  1  0.17701802  0.92716319  0.01605411  1
  Al0+  Al79  1  0.42858803  0.31909855  0.32091778  1
  Al0+  Al80  1  0.92796819  0.82216754  0.31862569  1
  Al0+  Al81  1  0.32062133  0.06906079  0.67931199  1
  Al0+  Al82  1  0.82100240  0.57150657  0.68085214  1
  Al0+  Al83  1  0.18032341  0.43037541  0.68124234  1
  Al0+  Al84  1  0.81802456  0.57068185  0.01645214  1
  Al0+  Al85  1  0.81865073  0.57055410  0.34656370  1
  Al0+  Al86  1  0.32457164  0.57219247  0.34864730  1
  Al0+  Al87  1  0.67585304  0.42797452  0.68009485  1
  Al0+  Al88  1  0.17961757  0.43094340  0.01502961  1
  Al0+  Al89  1  0.93183382  0.32294807  0.98426865  1
  Al0+  Al90  1  0.82294344  0.07370156  0.68137254  1
  Al0+  Al91  1  0.07209989  0.67938623  0.31735119  1
  Al0+  Al92  1  0.93060614  0.32147135  0.65210280  1
  Al0+  Al93  1  0.92998253  0.32099456  0.31955077  1
  Al0+  Al94  1  0.56967806  0.67855868  0.31885641  1
  Al0+  Al95  1  0.42805949  0.82147238  0.65101371  1
  Si0+  Si96  1  0.82131426  0.07200480  0.34673882  1
  Si0+  Si97  1  0.07319967  0.17681375  0.31692313  1
  Si0+  Si98  1  0.07193098  0.17556127  0.98283818  1
  Si0+  Si99  1  0.17700504  0.92549280  0.68109613  1
  Si0+  Si100  1  0.17758586  0.92932626  0.34916558  1
  Si0+  Si101  1  0.42827929  0.82467076  0.31413896  1
  Si0+  Si102  1  0.93012112  0.82325598  0.65419319  1
  Si0+  Si103  1  0.32241155  0.57405607  0.68256941  1
  Si0+  Si104  1  0.67866276  0.93001125  0.34846850  1
  Si0+  Si105  1  0.92748242  0.82331619  0.98294103  1
  Si0+  Si106  1  0.68020095  0.92944386  0.01700052  1
  Si0+  Si107  1  0.67725044  0.42552600  0.01729430  1
  Si0+  Si108  1  0.32432127  0.57199862  0.01384187  1
  Si0+  Si109  1  0.07048948  0.68171668  0.98410705  1
  Si0+  Si110  1  0.57393731  0.67822739  0.98431595  1
  Si0+  Si111  1  0.42495139  0.32198266  0.98242421  1
  Si0+  Si112  1  0.07006472  0.67872589  0.65234501  1
  Si0+  Si113  1  0.82014430  0.07307329  0.01549235  1
  Si0+  Si114  1  0.32192205  0.06902036  0.34983101  1
  Si0+  Si115  1  0.57165789  0.17592215  0.31671818  1
  Si0+  Si116  1  0.43026713  0.81817229  0.98638418  1
  Si0+  Si117  1  0.67798605  0.42512943  0.34650514  1
  Si0+  Si118  1  0.42377134  0.32166360  0.65232375  1
  Si0+  Si119  1  0.07312872  0.17744341  0.65218915  1
  O2-  O120  1  0.24701620  0.00070018  0.06716781  1
  O2-  O121  1  0.25039483  -0.00172246  0.39179460  1
  O2-  O122  1  0.24770039  -0.00817338  0.72476238  1
  O2-  O123  1  0.26058770  0.49981125  0.05906860  1
  O2-  O124  1  0.25061238  0.50229685  0.39910353  1
  O2-  O125  1  0.25673860  0.50344385  0.72833671  1
  O2-  O126  1  0.75048220  0.00117576  0.05956627  1
  O2-  O127  1  0.75075989  0.00069514  0.38864090  1
  O2-  O128  1  0.74921747  0.00408371  0.73280029  1
  O2-  O129  1  0.74301796  0.49603406  0.06275687  1
  O2-  O130  1  0.74533493  0.49422689  0.39150691  1
  O2-  O131  1  0.74733229  0.50075428  0.73020886  1
  O2-  O132  1  0.00744324  0.24846795  0.27313166  1
  O2-  O133  1  0.00405247  0.24445226  0.60629999  1
  O2-  O134  1  0.00673354  0.24719596  0.93838170  1
  O2-  O135  1  -0.00036520  0.75118439  0.26645245  1
  O2-  O136  1  0.00037591  0.75196086  0.61229469  1
  O2-  O137  1  0.00094493  0.75448956  0.94124898  1
  O2-  O138  1  0.50405421  0.24529240  0.27312605  1
  O2-  O139  1  0.49775021  0.25866372  0.60736644  1
  O2-  O140  1  0.49291138  0.25286277  0.93827928  1
  O2-  O141  1  0.49144254  0.75020450  0.27081615  1
  O2-  O142  1  0.49711143  0.74610588  0.60226625  1
  O2-  O143  1  0.49795573  0.74444506  0.94385114  1
  O2-  O144  1  0.06759195  0.17236499  0.08854269  1
  O2-  O145  1  0.07199534  0.17220894  0.42238823  1
  O2-  O146  1  0.07302375  0.17742308  0.75751215  1
  O2-  O147  1  0.07031186  0.68223193  0.08859910  1
  O2-  O148  1  0.06929952  0.68145494  0.43140813  1
  O2-  O149  1  0.07145539  0.67982920  0.75799609  1
  O2-  O150  1  0.56755528  0.17969392  0.09902045  1
  O2-  O151  1  0.57200371  0.17410707  0.42186443  1
  O2-  O152  1  0.56716148  0.17919945  0.76507218  1
  O2-  O153  1  0.57417353  0.68034896  0.08956531  1
  O2-  O154  1  0.57242485  0.68135800  0.43116221  1
  O2-  O155  1  0.57083429  0.68107498  0.76667488  1
  O2-  O156  1  0.18026909  0.42970705  0.23689867  1
  O2-  O157  1  0.17914062  0.43103732  0.56872754  1
  O2-  O158  1  0.17896418  0.43424435  0.90166672  1
  O2-  O159  1  0.17693038  0.93191105  0.24431529  1
  O2-  O160  1  0.17434605  0.92809693  0.57540239  1
  O2-  O161  1  0.17956646  0.92645121  0.90242629  1
  O2-  O162  1  0.67936858  0.42470420  0.24057554  1
  O2-  O163  1  0.67830714  0.42755842  0.56619572  1
  O2-  O164  1  0.67699102  0.42610946  0.91209584  1
  O2-  O165  1  0.67679586  0.93219644  0.24265055  1
  O2-  O166  1  0.68323435  0.92961233  0.56746849  1
  O2-  O167  1  0.68025027  0.92770559  0.91258247  1
  O2-  O168  1  0.42797423  0.32287107  0.08811458  1
  O2-  O169  1  0.42847395  0.31545120  0.43396860  1
  O2-  O170  1  0.42144354  0.31779589  0.75796433  1
  O2-  O171  1  0.43213565  0.81848109  0.09154154  1
  O2-  O172  1  0.43283847  0.83245165  0.41876149  1
  O2-  O173  1  0.42796098  0.82015831  0.76554702  1
  O2-  O174  1  0.93251562  0.32136690  0.09765349  1
  O2-  O175  1  0.92756752  0.31843193  0.43229592  1
  O2-  O176  1  0.93385160  0.32296494  0.76531256  1
  O2-  O177  1  0.92541447  0.82367473  0.08766752  1
  O2-  O178  1  0.92974057  0.82463894  0.43251438  1
  O2-  O179  1  0.93242948  0.82453532  0.75968112  1
  O2-  O180  1  0.32332850  0.06708406  0.24504438  1
  O2-  O181  1  0.31783579  0.06997722  0.56571046  1
  O2-  O182  1  0.32495005  0.06558112  0.90471648  1
  O2-  O183  1  0.32377480  0.56790628  0.23434897  1
  O2-  O184  1  0.32077011  0.57451351  0.57754395  1
  O2-  O185  1  0.32134474  0.57469858  0.90819987  1
  O2-  O186  1  0.81944123  0.07218267  0.24115604  1
  O2-  O187  1  0.82298050  0.06961189  0.56720168  1
  O2-  O188  1  0.81990665  0.07111185  0.91092907  1
  O2-  O189  1  0.81743769  0.56948653  0.23317430  1
  O2-  O190  1  0.82275359  0.57171288  0.56736524  1
  O2-  O191  1  0.81672895  0.57279501  0.90377608  1
  O2-  O192  1  0.04406289  0.08539857  0.26773785  1
  O2-  O193  1  0.05014622  0.08266949  0.60590434  1
  O2-  O194  1  0.04498668  0.08227938  0.93632253  1
  O2-  O195  1  0.04262395  0.58190496  0.26397845  1
  O2-  O196  1  0.03934482  0.58851202  0.60498346  1
  O2-  O197  1  0.03880926  0.59157981  0.93593462  1
  O2-  O198  1  0.54347804  0.08290873  0.26981284  1
  O2-  O199  1  0.53793148  0.08525650  0.59737170  1
  O2-  O200  1  0.53905050  0.08017395  0.93414037  1
  O2-  O201  1  0.54305511  0.58219157  0.26157438  1
  O2-  O202  1  0.54675945  0.57740783  0.60039805  1
  O2-  O203  1  0.55302432  0.58408924  0.93834736  1
  O2-  O204  1  0.16798375  0.19754766  0.27167475  1
  O2-  O205  1  0.16694639  0.20395139  0.60677730  1
  O2-  O206  1  0.16875923  0.19790067  0.94239969  1
  O2-  O207  1  0.17138023  0.70781717  0.26528863  1
  O2-  O208  1  0.16128894  0.70332066  0.60261317  1
  O2-  O209  1  0.16318724  0.70754979  0.93616972  1
  O2-  O210  1  0.66508541  0.19907348  0.26871111  1
  O2-  O211  1  0.66723141  0.20802295  0.59668301  1
  O2-  O212  1  0.66481073  0.20787322  0.93075923  1
  O2-  O213  1  0.66270518  0.71608164  0.26147160  1
  O2-  O214  1  0.67064023  0.71070900  0.60145853  1
  O2-  O215  1  0.66378772  0.71303424  0.93811592  1
  O2-  O216  1  0.08588503  0.46926739  0.06858020  1
  O2-  O217  1  0.08085535  0.45967917  0.40218845  1
  O2-  O218  1  0.08642775  0.46667450  0.73660659  1
  O2-  O219  1  0.07751628  0.95368874  0.06889598  1
  O2-  O220  1  0.08618469  0.95929476  0.39682989  1
  O2-  O221  1  0.08521207  0.95201164  0.73030113  1
  O2-  O222  1  0.58141179  0.44917902  0.06107857  1
  O2-  O223  1  0.58334553  0.44794576  0.38984012  1
  O2-  O224  1  0.57657681  0.45143191  0.73519269  1
  O2-  O225  1  0.58923452  0.95692049  0.06623829  1
  O2-  O226  1  0.58748862  0.95855720  0.39641304  1
  O2-  O227  1  0.58111825  0.95750969  0.73352845  1
  O2-  O228  1  0.20055393  0.33236171  0.06902789  1
  O2-  O229  1  0.20668884  0.32856394  0.40110338  1
  O2-  O230  1  0.20813518  0.33426011  0.73769401  1
  O2-  O231  1  0.20847106  0.82967187  0.06979303  1
  O2-  O232  1  0.20224774  0.83669120  0.39542833  1
  O2-  O233  1  0.19935204  0.83060439  0.72600848  1
  O2-  O234  1  0.70360890  0.33183329  0.06266900  1
  O2-  O235  1  0.70366411  0.33025657  0.39053763  1
  O2-  O236  1  0.70662600  0.33057649  0.73290928  1
  O2-  O237  1  0.70986798  0.83881944  0.06612111  1
  O2-  O238  1  0.70601941  0.83842745  0.39455179  1
  O2-  O239  1  0.71045249  0.83455348  0.73802828  1
  O2-  O240  1  0.45759239  0.41338864  0.26176743  1
  O2-  O241  1  0.44177375  0.41793324  0.60962423  1
  O2-  O242  1  0.44903695  0.41598637  0.93522986  1
  O2-  O243  1  0.46208676  0.91484929  0.26384701  1
  O2-  O244  1  0.45965343  0.91785386  0.59684008  1
  O2-  O245  1  0.46193858  0.90908571  0.94010452  1
  O2-  O246  1  0.95973635  0.41753564  0.26586912  1
  O2-  O247  1  0.96525390  0.41772591  0.59962001  1
  O2-  O248  1  0.96432519  0.42008601  0.93234179  1
  O2-  O249  1  0.95669191  0.92101970  0.26502666  1
  O2-  O250  1  0.95789658  0.91495736  0.60586178  1
  O2-  O251  1  0.95315138  0.91605517  0.93604613  1
  O2-  O252  1  0.33305879  0.28544203  0.26580132  1
  O2-  O253  1  0.33238837  0.28826193  0.60596435  1
  O2-  O254  1  0.32924949  0.29684802  0.94084479  1
  O2-  O255  1  0.33237129  0.80690676  0.27057913  1
  O2-  O256  1  0.32778509  0.79942937  0.59830712  1
  O2-  O257  1  0.33727806  0.79411442  0.93927197  1
  O2-  O258  1  0.83525350  0.28723016  0.26179985  1
  O2-  O259  1  0.83466669  0.29228755  0.59693404  1
  O2-  O260  1  0.83484034  0.29195896  0.93187177  1
  O2-  O261  1  0.82955265  0.79682046  0.26459662  1
  O2-  O262  1  0.83783100  0.79726642  0.60826433  1
  O2-  O263  1  0.83612996  0.79241205  0.93608294  1
  O2-  O264  1  0.41908106  0.03526037  0.07291234  1
  O2-  O265  1  0.41403318  0.03969354  0.39632713  1
  O2-  O266  1  0.41624133  0.03742931  0.73322319  1
  O2-  O267  1  0.42081279  0.55063235  0.05646585  1
  O2-  O268  1  0.42296604  0.53953184  0.39910210  1
  O2-  O269  1  0.41669738  0.55358377  0.72901467  1
  O2-  O270  1  0.91177013  0.04596749  0.06338552  1
  O2-  O271  1  0.91348674  0.04614835  0.39368606  1
  O2-  O272  1  0.92034739  0.04371614  0.73633798  1
  O2-  O273  1  0.91502715  0.54030764  0.06885081  1
  O2-  O274  1  0.91610908  0.54299504  0.39879338  1
  O2-  O275  1  0.91778868  0.54088698  0.73619921  1
  O2-  O276  1  0.29711363  0.16828912  0.07155223  1
  O2-  O277  1  0.29450273  0.16025976  0.39743892  1
  O2-  O278  1  0.28907314  0.16235546  0.73859027  1
  O2-  O279  1  0.29711210  0.66423954  0.06138825  1
  O2-  O280  1  0.30390399  0.67434119  0.39723766  1
  O2-  O281  1  0.29272901  0.66734847  0.72839365  1
  O2-  O282  1  0.78977334  0.16461491  0.06221229  1
  O2-  O283  1  0.79213032  0.16354246  0.39371203  1
  O2-  O284  1  0.79559676  0.17220251  0.73214707  1
  O2-  O285  1  0.78812438  0.66811486  0.07036118  1
  O2-  O286  1  0.78777548  0.66889471  0.39697567  1
  O2-  O287  1  0.79591077  0.66995736  0.73550519  1
