# generated using pymatgen
data_Ca2Al2SiO7
_symmetry_space_group_name_H-M   'P 1'
_cell_length_a   15.46383162
_cell_length_b   15.46524608
_cell_length_c   15.28771148
_cell_angle_alpha   89.98788461
_cell_angle_beta   89.99089347
_cell_angle_gamma   90.01409987
_symmetry_Int_Tables_number   1
_chemical_formula_structural   Ca2Al2SiO7
_chemical_formula_sum   'Ca48 Al48 Si24 O168'
_cell_volume   3656.08594506
_cell_formula_units_Z   24
loop_
 _symmetry_equiv_pos_site_id
 _symmetry_equiv_pos_as_xyz
  1  'x, y, z'
loop_
 _atom_type_symbol
 _atom_type_oxidation_number
  Ca2+  2.0
  Al0+  0.0
  Si0+  0.0
  O2-  -2.0
loop_
 _atom_site_type_symbol
 _atom_site_label
 _atom_site_symmetry_multiplicity
 _atom_site_fract_x
 _atom_site_fract_y
 _atom_site_fract_z
 _atom_site_occupancy
  Ca2+  Ca0  1  0.17022881  0.07629727  0.17023783  1
  Ca2+  Ca1  1  0.17393241  0.08364415  0.49974256  1
  Ca2+  Ca2  1  0.16681564  0.07616482  0.84045240  1
  Ca2+  Ca3  1  0.17207880  0.57759338  0.18049518  1
  Ca2+  Ca4  1  0.17044427  0.57583457  0.50383296  1
  Ca2+  Ca5  1  0.17407017  0.58071336  0.83296115  1
  Ca2+  Ca6  1  0.67637101  0.08571982  0.17442161  1
  Ca2+  Ca7  1  0.67455359  0.08541951  0.50118925  1
  Ca2+  Ca8  1  0.67780248  0.08352795  0.83839165  1
  Ca2+  Ca9  1  0.67194216  0.58471635  0.16776570  1
  Ca2+  Ca10  1  0.67198117  0.58674400  0.50669914  1
  Ca2+  Ca11  1  0.66780722  0.57866811  0.83746562  1
  Ca2+  Ca12  1  0.07727227  0.33463966  0.16211379  1
  Ca2+  Ca13  1  0.08586369  0.33798215  0.49637516  1
  Ca2+  Ca14  1  0.07514795  0.33825352  0.83027859  1
  Ca2+  Ca15  1  0.07578271  0.82941641  0.16358762  1
  Ca2+  Ca16  1  0.07479010  0.82151530  0.48926590  1
  Ca2+  Ca17  1  0.07941048  0.83423139  0.83423437  1
  Ca2+  Ca18  1  0.58122775  0.33104898  0.15999445  1
  Ca2+  Ca19  1  0.57973442  0.33580178  0.49870033  1
  Ca2+  Ca20  1  0.57677071  0.34542293  0.82933622  1
  Ca2+  Ca21  1  0.58465713  0.82046095  0.16418762  1
  Ca2+  Ca22  1  0.58466059  0.81937394  0.49397108  1
  Ca2+  Ca23  1  0.58931713  0.81867946  0.83098096  1
  Ca2+  Ca24  1  0.32774579  0.41725463  0.17351355  1
  Ca2+  Ca25  1  0.32552473  0.42401343  0.50518669  1
  Ca2+  Ca26  1  0.33643094  0.41566247  0.83225680  1
  Ca2+  Ca27  1  0.32726600  0.91881314  0.17253162  1
  Ca2+  Ca28  1  0.33975843  0.92406806  0.50020026  1
  Ca2+  Ca29  1  0.32468264  0.91487249  0.84138607  1
  Ca2+  Ca30  1  0.83177979  0.42593442  0.16804966  1
  Ca2+  Ca31  1  0.82580856  0.43200210  0.50635866  1
  Ca2+  Ca32  1  0.82098337  0.42573181  0.84270591  1
  Ca2+  Ca33  1  0.84197939  0.92370742  0.17026377  1
  Ca2+  Ca34  1  0.83868336  0.92468196  0.50018522  1
  Ca2+  Ca35  1  0.84000592  0.92724997  0.84029680  1
  Ca2+  Ca36  1  0.42078434  0.16959395  0.16295314  1
  Ca2+  Ca37  1  0.42274680  0.17261823  0.49019592  1
  Ca2+  Ca38  1  0.41734396  0.18164658  0.82685330  1
  Ca2+  Ca39  1  0.42936549  0.65284128  0.16536198  1
  Ca2+  Ca40  1  0.42484899  0.65423177  0.49681010  1
  Ca2+  Ca41  1  0.42916683  0.65892079  0.82703157  1
  Ca2+  Ca42  1  0.91106273  0.17258149  0.15918557  1
  Ca2+  Ca43  1  0.91263628  0.16750260  0.49549679  1
  Ca2+  Ca44  1  0.90872491  0.17170662  0.83325662  1
  Ca2+  Ca45  1  0.91365314  0.67307758  0.16256322  1
  Ca2+  Ca46  1  0.91659084  0.66714790  0.48656199  1
  Ca2+  Ca47  1  0.90618593  0.66979102  0.83136646  1
  Al0+  Al48  1  0.00251053  -0.00188809  0.00505140  1
  Al0+  Al49  1  0.00091770  0.00116215  0.33515858  1
  Al0+  Al50  1  0.00118344  0.00124087  0.66842486  1
  Al0+  Al51  1  0.00131082  0.50005358  -0.00239699  1
  Al0+  Al52  1  -0.00185398  0.49894376  0.33656123  1
  Al0+  Al53  1  0.00064152  0.50103762  0.67245431  1
  Al0+  Al54  1  0.50092345  -0.00040307  -0.00186922  1
  Al0+  Al55  1  0.50163671  -0.00023092  0.33245237  1
  Al0+  Al56  1  0.50073885  0.00067303  0.66894191  1
  Al0+  Al57  1  0.50054792  0.49811820  -0.00389343  1
  Al0+  Al58  1  0.49803514  0.49714875  0.33086665  1
  Al0+  Al59  1  0.49901647  0.49998375  0.66161813  1
  Al0+  Al60  1  0.25110140  0.24934145  -0.00441630  1
  Al0+  Al61  1  0.24875077  0.24815953  0.33925109  1
  Al0+  Al62  1  0.24872049  0.24969203  0.66551146  1
  Al0+  Al63  1  0.24975551  0.74945055  0.00588610  1
  Al0+  Al64  1  0.25008514  0.74932079  0.33455305  1
  Al0+  Al65  1  0.24903860  0.75110642  0.66888627  1
  Al0+  Al66  1  0.74998876  0.25075047  0.00242804  1
  Al0+  Al67  1  0.74935644  0.24947890  0.33412043  1
  Al0+  Al68  1  0.75020296  0.25025435  0.67263657  1
  Al0+  Al69  1  0.75129981  0.75174539  -0.00647737  1
  Al0+  Al70  1  0.74845859  0.75223222  0.32782248  1
  Al0+  Al71  1  0.74934894  0.75406381  0.66303606  1
  Al0+  Al72  1  0.32240395  0.06887046  0.34595663  1
  Al0+  Al73  1  0.42831658  0.32003965  0.64915786  1
  Al0+  Al74  1  0.56999655  0.68014223  0.98524215  1
  Al0+  Al75  1  0.57187804  0.17867238  0.31974926  1
  Al0+  Al76  1  0.07139422  0.67569241  0.31894569  1
  Al0+  Al77  1  0.18040645  0.92769257  0.01584870  1
  Al0+  Al78  1  0.32285579  0.57161942  0.34778479  1
  Al0+  Al79  1  0.56927643  0.67686922  0.31871015  1
  Al0+  Al80  1  0.82161956  0.07167411  0.34734072  1
  Al0+  Al81  1  0.81740442  0.57275649  0.34458256  1
  Al0+  Al82  1  0.93184791  0.82066581  0.98466063  1
  Al0+  Al83  1  0.42931959  0.31870992  0.98595885  1
  Al0+  Al84  1  0.56975247  0.68106227  0.65148027  1
  Al0+  Al85  1  0.17678313  0.42825281  0.34711712  1
  Al0+  Al86  1  0.17867336  0.42650932  0.68512617  1
  Al0+  Al87  1  0.82215830  0.57333802  0.01581886  1
  Al0+  Al88  1  0.82153048  0.57552126  0.68049046  1
  Al0+  Al89  1  0.92922850  0.82213068  0.31770434  1
  Al0+  Al90  1  0.67694090  0.43036839  0.01710528  1
  Al0+  Al91  1  0.32023800  0.57134131  0.68266158  1
  Al0+  Al92  1  0.67870559  0.43029431  0.68007368  1
  Al0+  Al93  1  0.82162796  0.06962917  0.68134870  1
  Al0+  Al94  1  0.81975404  0.06975707  0.01503509  1
  Al0+  Al95  1  0.92849719  0.32207386  0.98611814  1
  Si0+  Si96  1  0.32249884  0.07158023  0.68194079  1
  Si0+  Si97  1  0.17919676  0.42711314  0.01409634  1
  Si0+  Si98  1  0.67657769  0.92895044  0.68385983  1
  Si0+  Si99  1  0.42652297  0.31859400  0.31619625  1
  Si0+  Si100  1  0.32256190  0.07293730  0.01484314  1
  Si0+  Si101  1  0.07156498  0.17836260  0.98430153  1
  Si0+  Si102  1  0.57301215  0.17626761  0.64995366  1
  Si0+  Si103  1  0.57358513  0.17628771  0.98238396  1
  Si0+  Si104  1  0.67664354  0.92742585  0.01688369  1
  Si0+  Si105  1  0.92830330  0.32132181  0.65196584  1
  Si0+  Si106  1  0.42490831  0.82405083  0.65087862  1
  Si0+  Si107  1  0.07267314  0.17902719  0.31886721  1
  Si0+  Si108  1  0.42798034  0.82345717  0.31724030  1
  Si0+  Si109  1  0.42619699  0.82301630  0.98469929  1
  Si0+  Si110  1  0.32082149  0.56930101  0.01439699  1
  Si0+  Si111  1  0.92850441  0.31964439  0.32030547  1
  Si0+  Si112  1  0.07503551  0.67723561  0.98206540  1
  Si0+  Si113  1  0.17791830  0.92783541  0.35216482  1
  Si0+  Si114  1  0.06935947  0.17772499  0.65093515  1
  Si0+  Si115  1  0.67773494  0.42695874  0.34868865  1
  Si0+  Si116  1  0.67796708  0.92844038  0.34989310  1
  Si0+  Si117  1  0.93100173  0.82333788  0.65171262  1
  Si0+  Si118  1  0.18038058  0.93076890  0.68092213  1
  Si0+  Si119  1  0.07182802  0.67962621  0.65267709  1
  O2-  O120  1  0.25809957  0.00088954  0.05955670  1
  O2-  O121  1  0.25024525  -0.00696947  0.39619809  1
  O2-  O122  1  0.25445719  -0.00191447  0.72442556  1
  O2-  O123  1  0.24823838  0.49961330  0.05611076  1
  O2-  O124  1  0.24678391  0.50278276  0.39567051  1
  O2-  O125  1  0.25147773  0.49743944  0.73530736  1
  O2-  O126  1  0.74331542  -0.00271587  0.06207037  1
  O2-  O127  1  0.74839633  -0.00411288  0.39406012  1
  O2-  O128  1  0.74542808  -0.00277603  0.72823639  1
  O2-  O129  1  0.75028227  0.50131720  0.06623282  1
  O2-  O130  1  0.74019234  0.50139902  0.39222752  1
  O2-  O131  1  0.75002986  0.50307469  0.72980520  1
  O2-  O132  1  0.00084126  0.24919042  0.27806797  1
  O2-  O133  1  0.00045708  0.25094058  0.60887270  1
  O2-  O134  1  0.00269287  0.24590995  0.93900601  1
  O2-  O135  1  -0.00064466  0.74753306  0.26856232  1
  O2-  O136  1  -0.00526537  0.74516995  0.61117837  1
  O2-  O137  1  0.00316232  0.74268346  0.93699106  1
  O2-  O138  1  0.49672013  0.25180721  0.27177498  1
  O2-  O139  1  0.50460274  0.24492809  0.60530775  1
  O2-  O140  1  0.50434437  0.24428063  0.93850311  1
  O2-  O141  1  0.49012250  0.74875643  0.27341949  1
  O2-  O142  1  0.49262010  0.75521170  0.60651165  1
  O2-  O143  1  0.49514626  0.75607854  0.93929516  1
  O2-  O144  1  0.07420693  0.18078671  0.09000785  1
  O2-  O145  1  0.07311848  0.17786460  0.42422598  1
  O2-  O146  1  0.06870668  0.17306363  0.75579571  1
  O2-  O147  1  0.07799167  0.67878107  0.08720075  1
  O2-  O148  1  0.06872385  0.67789684  0.43330817  1
  O2-  O149  1  0.07651189  0.68429925  0.75757711  1
  O2-  O150  1  0.57131835  0.17486303  0.08798905  1
  O2-  O151  1  0.57159994  0.18072328  0.43303393  1
  O2-  O152  1  0.57013827  0.17231405  0.75539076  1
  O2-  O153  1  0.56750793  0.68062889  0.09840072  1
  O2-  O154  1  0.57007924  0.67959722  0.43171943  1
  O2-  O155  1  0.56952576  0.68358679  0.76458399  1
  O2-  O156  1  0.17932711  0.42486994  0.23286800  1
  O2-  O157  1  0.17774494  0.42776161  0.57191243  1
  O2-  O158  1  0.18032353  0.42635592  0.90942484  1
  O2-  O159  1  0.17779852  0.93140539  0.24666258  1
  O2-  O160  1  0.17950423  0.93343201  0.57630033  1
  O2-  O161  1  0.18115016  0.93012627  0.90185397  1
  O2-  O162  1  0.68060040  0.42422354  0.24337180  1
  O2-  O163  1  0.68185229  0.42910933  0.56603865  1
  O2-  O164  1  0.67565082  0.43278381  0.90363820  1
  O2-  O165  1  0.67605013  0.93016221  0.24449710  1
  O2-  O166  1  0.67579056  0.92947499  0.57842302  1
  O2-  O167  1  0.67672234  0.92987002  0.91099679  1
  O2-  O168  1  0.42545800  0.31527255  0.09895107  1
  O2-  O169  1  0.42666520  0.31692476  0.42163395  1
  O2-  O170  1  0.42809468  0.31676409  0.76245418  1
  O2-  O171  1  0.42593424  0.82460302  0.08991871  1
  O2-  O172  1  0.43268443  0.82888952  0.42271134  1
  O2-  O173  1  0.42359555  0.82591313  0.75645574  1
  O2-  O174  1  0.93188204  0.32088065  0.09964730  1
  O2-  O175  1  0.92787036  0.31761278  0.42568635  1
  O2-  O176  1  0.92946689  0.31843153  0.75684376  1
  O2-  O177  1  0.93460410  0.82315080  0.09706860  1
  O2-  O178  1  0.93178045  0.82357028  0.43215469  1
  O2-  O179  1  0.93526277  0.82741065  0.75664108  1
  O2-  O180  1  0.31914492  0.06837513  0.23283027  1
  O2-  O181  1  0.32195635  0.07011295  0.57698346  1
  O2-  O182  1  0.31947042  0.07252238  0.90888661  1
  O2-  O183  1  0.32399086  0.56587753  0.23350996  1
  O2-  O184  1  0.31622760  0.57217333  0.56964575  1
  O2-  O185  1  0.31973277  0.57043995  0.90952309  1
  O2-  O186  1  0.82084785  0.07290849  0.23463991  1
  O2-  O187  1  0.82330435  0.06783377  0.56825187  1
  O2-  O188  1  0.81980838  0.06823318  0.90161516  1
  O2-  O189  1  0.81859964  0.57053050  0.23199256  1
  O2-  O190  1  0.82118768  0.57462546  0.56641128  1
  O2-  O191  1  0.81949877  0.57197030  0.90230081  1
  O2-  O192  1  0.04641905  0.08704659  0.27169000  1
  O2-  O193  1  0.03958646  0.08716550  0.60111189  1
  O2-  O194  1  0.04691780  0.08398330  0.93986824  1
  O2-  O195  1  0.04529478  0.57605880  0.26774046  1
  O2-  O196  1  0.04980568  0.58514436  0.60849870  1
  O2-  O197  1  0.05500928  0.58242904  0.93654395  1
  O2-  O198  1  0.54207702  0.08209172  0.26534653  1
  O2-  O199  1  0.54682834  0.08244604  0.60335843  1
  O2-  O200  1  0.55000940  0.08191433  0.93545741  1
  O2-  O201  1  0.54023328  0.57946016  0.26446198  1
  O2-  O202  1  0.54080975  0.58494422  0.59679554  1
  O2-  O203  1  0.53624652  0.58488704  0.93134707  1
  O2-  O204  1  0.16401448  0.20657842  0.27029195  1
  O2-  O205  1  0.16187594  0.20274056  0.60327601  1
  O2-  O206  1  0.16457418  0.20294112  0.93581740  1
  O2-  O207  1  0.17121418  0.70349668  0.26747695  1
  O2-  O208  1  0.16094941  0.71402288  0.60349234  1
  O2-  O209  1  0.16761289  0.70882055  0.93561311  1
  O2-  O210  1  0.66797270  0.21037700  0.26520998  1
  O2-  O211  1  0.66807468  0.20166891  0.60665688  1
  O2-  O212  1  0.66712099  0.20182471  0.93735681  1
  O2-  O213  1  0.66302067  0.71271687  0.26296018  1
  O2-  O214  1  0.66544879  0.71586848  0.59633625  1
  O2-  O215  1  0.66522346  0.71203650  0.92956764  1
  O2-  O216  1  0.08694519  0.45248308  0.06090628  1
  O2-  O217  1  0.07844018  0.45280021  0.40190780  1
  O2-  O218  1  0.08101666  0.45651726  0.73831289  1
  O2-  O219  1  0.08742376  0.96246332  0.07248618  1
  O2-  O220  1  0.08722284  0.95959487  0.40030462  1
  O2-  O221  1  0.09104711  0.96373333  0.73033433  1
  O2-  O222  1  0.57794259  0.45851645  0.06937368  1
  O2-  O223  1  0.58141616  0.44599526  0.39077050  1
  O2-  O224  1  0.57939840  0.45770961  0.72987031  1
  O2-  O225  1  0.58125979  0.94922071  0.06194039  1
  O2-  O226  1  0.58590491  0.95552275  0.39802096  1
  O2-  O227  1  0.58301224  0.95259603  0.73189973  1
  O2-  O228  1  0.20843717  0.33487513  0.06029052  1
  O2-  O229  1  0.20542494  0.33061931  0.40189042  1
  O2-  O230  1  0.20390976  0.32606158  0.73568461  1
  O2-  O231  1  0.20988279  0.83210804  0.07217460  1
  O2-  O232  1  0.19875054  0.83300271  0.39689115  1
  O2-  O233  1  0.20454164  0.83923910  0.73031915  1
  O2-  O234  1  0.70367573  0.33076354  0.06765638  1
  O2-  O235  1  0.70889122  0.33639903  0.39739780  1
  O2-  O236  1  0.70516970  0.33210360  0.73457001  1
  O2-  O237  1  0.70408402  0.83422015  0.06079667  1
  O2-  O238  1  0.70373305  0.83525646  0.39622210  1
  O2-  O239  1  0.70407275  0.83637739  0.72977925  1
  O2-  O240  1  0.45009936  0.41192654  0.26931180  1
  O2-  O241  1  0.45773056  0.41600175  0.59440444  1
  O2-  O242  1  0.45922112  0.41453308  0.93058843  1
  O2-  O243  1  0.45849784  0.91411365  0.26749981  1
  O2-  O244  1  0.45206785  0.91848616  0.60575829  1
  O2-  O245  1  0.44795119  0.91774960  0.93749038  1
  O2-  O246  1  0.95577893  0.41082743  0.27239335  1
  O2-  O247  1  0.95586049  0.41438757  0.60652402  1
  O2-  O248  1  0.96142742  0.41708900  0.93012634  1
  O2-  O249  1  0.96199895  0.92075177  0.26677298  1
  O2-  O250  1  0.96690770  0.91242574  0.60319524  1
  O2-  O251  1  0.96890948  0.91664057  0.93131452  1
  O2-  O252  1  0.33300851  0.28923021  0.27172639  1
  O2-  O253  1  0.33129454  0.28674983  0.59707828  1
  O2-  O254  1  0.33386383  0.28670515  0.92863684  1
  O2-  O255  1  0.33111902  0.80619952  0.27516284  1
  O2-  O256  1  0.33041042  0.80192969  0.60470125  1
  O2-  O257  1  0.33214117  0.79603412  0.93967994  1
  O2-  O258  1  0.83839975  0.28928557  0.27174904  1
  O2-  O259  1  0.83706972  0.29066971  0.60499728  1
  O2-  O260  1  0.83203025  0.28994632  0.93264445  1
  O2-  O261  1  0.82997327  0.79983795  0.26510536  1
  O2-  O262  1  0.83655001  0.80567763  0.60603786  1
  O2-  O263  1  0.83452924  0.79681047  0.92848816  1
  O2-  O264  1  0.41826094  0.05173345  0.05808436  1
  O2-  O265  1  0.41884748  0.03927832  0.40120054  1
  O2-  O266  1  0.41499521  0.04804797  0.72995808  1
  O2-  O267  1  0.41153502  0.53781340  0.06040714  1
  O2-  O268  1  0.41953131  0.53762094  0.40110582  1
  O2-  O269  1  0.41936386  0.54273372  0.73226002  1
  O2-  O270  1  0.91698463  0.03957078  0.06724995  1
  O2-  O271  1  0.91901419  0.04335414  0.40185344  1
  O2-  O272  1  0.91780344  0.03683185  0.73545531  1
  O2-  O273  1  0.92268075  0.54511594  0.06490975  1
  O2-  O274  1  0.91237235  0.53905806  0.39981150  1
  O2-  O275  1  0.92043536  0.55107775  0.73286465  1
  O2-  O276  1  0.29233549  0.16458010  0.06183536  1
  O2-  O277  1  0.28815121  0.16247838  0.40316146  1
  O2-  O278  1  0.28986002  0.16118417  0.72947857  1
  O2-  O279  1  0.29630115  0.66123759  0.06270628  1
  O2-  O280  1  0.30318859  0.67300598  0.39820396  1
  O2-  O281  1  0.29063908  0.67031736  0.73581820  1
  O2-  O282  1  0.79110041  0.16687684  0.06806676  1
  O2-  O283  1  0.78838416  0.16708393  0.40270853  1
  O2-  O284  1  0.79275895  0.16594388  0.73593518  1
  O2-  O285  1  0.79377388  0.67368436  0.06413327  1
  O2-  O286  1  0.79029044  0.67129791  0.39638783  1
  O2-  O287  1  0.79432550  0.67579126  0.72981999  1
