# generated using pymatgen
data_Ca2Al2SiO7
_symmetry_space_group_name_H-M   'P 1'
_cell_length_a   15.45914072
_cell_length_b   15.45807370
_cell_length_c   15.28324915
_cell_angle_alpha   90.01472402
_cell_angle_beta   89.99502217
_cell_angle_gamma   89.98477982
_symmetry_Int_Tables_number   1
_chemical_formula_structural   Ca2Al2SiO7
_chemical_formula_sum   'Ca48 Al48 Si24 O168'
_cell_volume   3652.21542099
_cell_formula_units_Z   24
loop_
 _symmetry_equiv_pos_site_id
 _symmetry_equiv_pos_as_xyz
  1  'x, y, z'
loop_
 _atom_type_symbol
 _atom_type_oxidation_number
  Ca2+  2.0
  Al0+  0.0
  Si0+  0.0
  O2-  -2.0
loop_
 _atom_site_type_symbol
 _atom_site_label
 _atom_site_symmetry_multiplicity
 _atom_site_fract_x
 _atom_site_fract_y
 _atom_site_fract_z
 _atom_site_occupancy
  Ca2+  Ca0  1  0.17755480  0.08778584  0.16854457  1
  Ca2+  Ca1  1  0.17462777  0.07673200  0.50467977  1
  Ca2+  Ca2  1  0.16986184  0.07600408  0.84022738  1
  Ca2+  Ca3  1  0.16026822  0.57612593  0.17060155  1
  Ca2+  Ca4  1  0.16073149  0.57597859  0.50287632  1
  Ca2+  Ca5  1  0.15629044  0.57409365  0.83507483  1
  Ca2+  Ca6  1  0.67209281  0.08690401  0.17675387  1
  Ca2+  Ca7  1  0.67759068  0.09362757  0.50024613  1
  Ca2+  Ca8  1  0.67505165  0.08346193  0.83347334  1
  Ca2+  Ca9  1  0.66978454  0.57627592  0.17484415  1
  Ca2+  Ca10  1  0.66328692  0.57024559  0.50493388  1
  Ca2+  Ca11  1  0.66406882  0.57949145  0.83497481  1
  Ca2+  Ca12  1  0.08458844  0.33230282  0.16283393  1
  Ca2+  Ca13  1  0.07918208  0.33781140  0.49263429  1
  Ca2+  Ca14  1  0.09367125  0.32751630  0.83212198  1
  Ca2+  Ca15  1  0.08120538  0.81919827  0.15884592  1
  Ca2+  Ca16  1  0.08712832  0.82447991  0.49980672  1
  Ca2+  Ca17  1  0.08192443  0.82391828  0.82256304  1
  Ca2+  Ca18  1  0.57456531  0.32980236  0.16817562  1
  Ca2+  Ca19  1  0.57505583  0.33429632  0.49147134  1
  Ca2+  Ca20  1  0.56991098  0.33596810  0.82581152  1
  Ca2+  Ca21  1  0.57185848  0.83942359  0.16480343  1
  Ca2+  Ca22  1  0.57227818  0.83648526  0.49652599  1
  Ca2+  Ca23  1  0.57080072  0.83589178  0.82966317  1
  Ca2+  Ca24  1  0.32373881  0.41020208  0.17144491  1
  Ca2+  Ca25  1  0.32472233  0.41114563  0.50545931  1
  Ca2+  Ca26  1  0.32574670  0.41312471  0.83944806  1
  Ca2+  Ca27  1  0.34019662  0.92660445  0.17259317  1
  Ca2+  Ca28  1  0.33389641  0.91920103  0.50426707  1
  Ca2+  Ca29  1  0.33088292  0.91670907  0.83919104  1
  Ca2+  Ca30  1  0.82914801  0.41395753  0.17774753  1
  Ca2+  Ca31  1  0.82057384  0.40776316  0.50239625  1
  Ca2+  Ca32  1  0.82493045  0.41686078  0.83460723  1
  Ca2+  Ca33  1  0.83455956  0.92036260  0.17197159  1
  Ca2+  Ca34  1  0.83917066  0.92873841  0.50784399  1
  Ca2+  Ca35  1  0.84155165  0.91552192  0.83511388  1
  Ca2+  Ca36  1  0.40934721  0.17455434  0.16482915  1
  Ca2+  Ca37  1  0.42025552  0.17703356  0.48983213  1
  Ca2+  Ca38  1  0.40802880  0.17690539  0.83257272  1
  Ca2+  Ca39  1  0.41287669  0.67995563  0.16462956  1
  Ca2+  Ca40  1  0.40916899  0.67961683  0.49770933  1
  Ca2+  Ca41  1  0.41075839  0.67822390  0.82939394  1
  Ca2+  Ca42  1  0.92101947  0.17119530  0.16609401  1
  Ca2+  Ca43  1  0.91527801  0.16811198  0.49314349  1
  Ca2+  Ca44  1  0.92478692  0.16249939  0.83008067  1
  Ca2+  Ca45  1  0.92800250  0.66786369  0.15973045  1
  Ca2+  Ca46  1  0.92934368  0.66544783  0.49658306  1
  Ca2+  Ca47  1  0.92620186  0.67686181  0.82815849  1
  Al0+  Al48  1  0.00041501  0.00140730  -0.00264308  1
  Al0+  Al49  1  0.00102928  -0.00101129  0.33697610  1
  Al0+  Al50  1  0.00297739  0.00014384  0.67098351  1
  Al0+  Al51  1  -0.00350541  0.49902092  -0.00016322  1
  Al0+  Al52  1  -0.00061525  0.49994121  0.32881207  1
  Al0+  Al53  1  -0.00163651  0.49890986  0.66884047  1
  Al0+  Al54  1  0.50226016  0.00110865  -0.00087005  1
  Al0+  Al55  1  0.50183237  0.00145441  0.33195116  1
  Al0+  Al56  1  0.50401383  0.00301431  0.66349517  1
  Al0+  Al57  1  0.49850273  0.49974651  -0.00091303  1
  Al0+  Al58  1  0.49816810  0.50205494  0.33350799  1
  Al0+  Al59  1  0.49791781  0.50030656  0.66791751  1
  Al0+  Al60  1  0.24915006  0.24957154  -0.00015048  1
  Al0+  Al61  1  0.24913360  0.24902120  0.34030240  1
  Al0+  Al62  1  0.25015818  0.24975871  0.66468983  1
  Al0+  Al63  1  0.24965272  0.74744569  -0.00740093  1
  Al0+  Al64  1  0.24924104  0.74916470  0.32315547  1
  Al0+  Al65  1  0.24979749  0.74956436  0.66181633  1
  Al0+  Al66  1  0.74880626  0.24906975  0.00059730  1
  Al0+  Al67  1  0.75007143  0.25071430  0.33278241  1
  Al0+  Al68  1  0.75076405  0.24960869  0.67974060  1
  Al0+  Al69  1  0.74983388  0.74932435  -0.00081050  1
  Al0+  Al70  1  0.75025819  0.75046550  0.33596304  1
  Al0+  Al71  1  0.74959225  0.75142027  0.66301119  1
  Al0+  Al72  1  0.82153292  0.06960334  0.34569548  1
  Al0+  Al73  1  0.17817746  0.42864201  0.68086213  1
  Al0+  Al74  1  0.92971590  0.31922585  0.32227954  1
  Al0+  Al75  1  0.07107613  0.67604626  0.98223031  1
  Al0+  Al76  1  0.17920039  0.43040123  0.01425393  1
  Al0+  Al77  1  0.43032060  0.82249105  0.98602114  1
  Al0+  Al78  1  0.42993042  0.82271641  0.65268484  1
  Al0+  Al79  1  0.07068605  0.18145788  0.98728645  1
  Al0+  Al80  1  0.92831563  0.82117394  0.98624902  1
  Al0+  Al81  1  0.92890728  0.82384216  0.64928966  1
  Al0+  Al82  1  0.32088421  0.06882130  0.01290768  1
  Al0+  Al83  1  0.67719667  0.42992831  0.68244015  1
  Al0+  Al84  1  0.43037933  0.82137547  0.31912192  1
  Al0+  Al85  1  0.42545065  0.32259924  0.31807415  1
  Al0+  Al86  1  0.06935412  0.67893730  0.31737142  1
  Al0+  Al87  1  0.42822456  0.32060345  0.65220045  1
  Al0+  Al88  1  0.18280241  0.92847903  0.67970305  1
  Al0+  Al89  1  0.42968980  0.31972942  0.98628094  1
  Al0+  Al90  1  0.67820865  0.43054085  0.34608839  1
  Al0+  Al91  1  0.57159963  0.18088889  0.31905600  1
  Al0+  Al92  1  0.82193744  0.06966820  0.68291860  1
  Al0+  Al93  1  0.32225025  0.07061578  0.34822013  1
  Al0+  Al94  1  0.17903861  0.43032991  0.34689182  1
  Al0+  Al95  1  0.06986712  0.67662384  0.64888974  1
  Si0+  Si96  1  0.32396645  0.57344130  0.01749990  1
  Si0+  Si97  1  0.67660586  0.42834781  0.01672474  1
  Si0+  Si98  1  0.92443937  0.32134904  0.98203162  1
  Si0+  Si99  1  0.32467383  0.07170311  0.68267184  1
  Si0+  Si100  1  0.07260105  0.17532654  0.31889831  1
  Si0+  Si101  1  0.67792900  0.92662769  0.35099297  1
  Si0+  Si102  1  0.07147440  0.17918181  0.65095802  1
  Si0+  Si103  1  0.57421293  0.67783055  0.31762324  1
  Si0+  Si104  1  0.82086827  0.57337753  0.68385618  1
  Si0+  Si105  1  0.82245979  0.57303588  0.35019685  1
  Si0+  Si106  1  0.68030025  0.92899156  0.01490738  1
  Si0+  Si107  1  0.57566556  0.18093172  0.65101865  1
  Si0+  Si108  1  0.92715879  0.82385397  0.31772790  1
  Si0+  Si109  1  0.92769944  0.31901713  0.65441528  1
  Si0+  Si110  1  0.32106253  0.57490092  0.34905518  1
  Si0+  Si111  1  0.81807736  0.57017314  0.01534566  1
  Si0+  Si112  1  0.17746668  0.92561187  0.01614227  1
  Si0+  Si113  1  0.17961005  0.92555595  0.34796707  1
  Si0+  Si114  1  0.57485887  0.17791683  0.98105605  1
  Si0+  Si115  1  0.57205300  0.67752325  0.98443281  1
  Si0+  Si116  1  0.82273446  0.07163238  0.01689700  1
  Si0+  Si117  1  0.57229097  0.67728809  0.64995966  1
  Si0+  Si118  1  0.67714353  0.92673763  0.68410425  1
  Si0+  Si119  1  0.32118822  0.57247890  0.68300755  1
  O2-  O120  1  0.24903302  -0.00883511  0.06096310  1
  O2-  O121  1  0.24837268  -0.00587882  0.39278547  1
  O2-  O122  1  0.26067320  -0.00067003  0.72756241  1
  O2-  O123  1  0.25288176  0.50655080  0.06078399  1
  O2-  O124  1  0.25629460  0.50263075  0.39349245  1
  O2-  O125  1  0.25296346  0.50329958  0.72729050  1
  O2-  O126  1  0.75271654  -0.00122185  0.05730853  1
  O2-  O127  1  0.74880250  -0.00634588  0.39393793  1
  O2-  O128  1  0.75005130  -0.00885970  0.72867664  1
  O2-  O129  1  0.74874047  0.49798089  0.05887358  1
  O2-  O130  1  0.75141532  0.50665474  0.39405326  1
  O2-  O131  1  0.74970079  0.50717314  0.72925937  1
  O2-  O132  1  0.00515487  0.24565993  0.27535792  1
  O2-  O133  1  0.00013655  0.25063993  0.61038704  1
  O2-  O134  1  -0.00473275  0.25489707  0.93833678  1
  O2-  O135  1  -0.00641424  0.75393803  0.27295378  1
  O2-  O136  1  -0.00182150  0.74958560  0.59922067  1
  O2-  O137  1  0.00419607  0.75432026  0.93523923  1
  O2-  O138  1  0.49612446  0.24877560  0.26816125  1
  O2-  O139  1  0.50515466  0.24753625  0.60744298  1
  O2-  O140  1  0.50538690  0.24629828  0.93822563  1
  O2-  O141  1  0.50705853  0.74770256  0.27304900  1
  O2-  O142  1  0.50536931  0.74806439  0.60649382  1
  O2-  O143  1  0.50252726  0.74494927  0.93982081  1
  O2-  O144  1  0.06882805  0.18223014  0.10051977  1
  O2-  O145  1  0.07078082  0.17371480  0.42468514  1
  O2-  O146  1  0.07212271  0.18005025  0.75629279  1
  O2-  O147  1  0.06769759  0.67560751  0.09607229  1
  O2-  O148  1  0.06936914  0.67861019  0.43007277  1
  O2-  O149  1  0.06751011  0.67590829  0.76215729  1
  O2-  O150  1  0.57986125  0.17917148  0.08615513  1
  O2-  O151  1  0.57293414  0.18441305  0.43279541  1
  O2-  O152  1  0.57606230  0.18125726  0.75690473  1
  O2-  O153  1  0.57387363  0.67842260  0.08997137  1
  O2-  O154  1  0.57459005  0.67812047  0.42304698  1
  O2-  O155  1  0.57161227  0.67755386  0.75590690  1
  O2-  O156  1  0.17813481  0.43114077  0.23367313  1
  O2-  O157  1  0.17742511  0.42844550  0.56788042  1
  O2-  O158  1  0.18188012  0.42972039  0.90104243  1
  O2-  O159  1  0.17888852  0.92635907  0.24229958  1
  O2-  O160  1  0.18356501  0.93111417  0.56628858  1
  O2-  O161  1  0.17830758  0.92816302  0.91048659  1
  O2-  O162  1  0.68088060  0.43218178  0.23250062  1
  O2-  O163  1  0.67930481  0.42861405  0.56942990  1
  O2-  O164  1  0.67725601  0.42992311  0.91153284  1
  O2-  O165  1  0.67946974  0.92501780  0.24491535  1
  O2-  O166  1  0.67390639  0.92885291  0.57891864  1
  O2-  O167  1  0.67922046  0.92981144  0.90995343  1
  O2-  O168  1  0.43041598  0.31949227  0.09892467  1
  O2-  O169  1  0.42692797  0.32186755  0.43175481  1
  O2-  O170  1  0.42755840  0.31838373  0.76576309  1
  O2-  O171  1  0.43364463  0.82331159  0.09903320  1
  O2-  O172  1  0.43026605  0.81968096  0.43225648  1
  O2-  O173  1  0.43160614  0.82183416  0.76595361  1
  O2-  O174  1  0.92084016  0.31954514  0.08759591  1
  O2-  O175  1  0.92903451  0.31775392  0.43580855  1
  O2-  O176  1  0.92701517  0.31710435  0.75969639  1
  O2-  O177  1  0.92654229  0.81791764  0.10021516  1
  O2-  O178  1  0.92809889  0.82479024  0.42283599  1
  O2-  O179  1  0.93148274  0.82155249  0.76285277  1
  O2-  O180  1  0.31980970  0.07059750  0.23477395  1
  O2-  O181  1  0.32220975  0.07153496  0.57708996  1
  O2-  O182  1  0.31882983  0.06820720  0.89961576  1
  O2-  O183  1  0.31963635  0.57735272  0.24346406  1
  O2-  O184  1  0.32219333  0.57217225  0.57734214  1
  O2-  O185  1  0.32862129  0.57205868  0.91210172  1
  O2-  O186  1  0.82149596  0.06751458  0.23222450  1
  O2-  O187  1  0.81944193  0.07332039  0.56988622  1
  O2-  O188  1  0.82097504  0.07372177  0.91193114  1
  O2-  O189  1  0.82033632  0.57278905  0.24410069  1
  O2-  O190  1  0.82093269  0.57044700  0.57837154  1
  O2-  O191  1  0.81501356  0.56955948  0.91035952  1
  O2-  O192  1  0.04621005  0.08232898  0.27177204  1
  O2-  O193  1  0.04326821  0.08777160  0.60435846  1
  O2-  O194  1  0.04086913  0.08514071  0.93193576  1
  O2-  O195  1  0.03580397  0.58424859  0.26165969  1
  O2-  O196  1  0.03762214  0.57781648  0.59750347  1
  O2-  O197  1  0.03467716  0.57940800  0.93052780  1
  O2-  O198  1  0.55122201  0.08026342  0.26751339  1
  O2-  O199  1  0.55558695  0.08649385  0.60471896  1
  O2-  O200  1  0.55090174  0.08408493  0.93543399  1
  O2-  O201  1  0.54797510  0.58539165  0.26977579  1
  O2-  O202  1  0.54424856  0.58453372  0.60388954  1
  O2-  O203  1  0.54790417  0.58375439  0.93801481  1
  O2-  O204  1  0.16603171  0.20194050  0.27430744  1
  O2-  O205  1  0.16252534  0.20658824  0.60243135  1
  O2-  O206  1  0.16529255  0.21276823  0.93045944  1
  O2-  O207  1  0.16405769  0.70927251  0.25989663  1
  O2-  O208  1  0.16844562  0.70444618  0.59667332  1
  O2-  O209  1  0.17122766  0.69616529  0.93020121  1
  O2-  O210  1  0.66788332  0.21276201  0.26358850  1
  O2-  O211  1  0.66969968  0.21001458  0.60803864  1
  O2-  O212  1  0.66793660  0.20471236  0.93345667  1
  O2-  O213  1  0.66894052  0.70134035  0.27147755  1
  O2-  O214  1  0.66638151  0.69865203  0.60341399  1
  O2-  O215  1  0.66452898  0.70396958  0.93666707  1
  O2-  O216  1  0.07917444  0.45645218  0.06508417  1
  O2-  O217  1  0.08166979  0.46324883  0.39889220  1
  O2-  O218  1  0.08046916  0.45622788  0.73523662  1
  O2-  O219  1  0.08425029  0.95401579  0.06177833  1
  O2-  O220  1  0.08653760  0.95055507  0.39565870  1
  O2-  O221  1  0.08850903  0.96222713  0.73592911  1
  O2-  O222  1  0.58530694  0.45745079  0.06389273  1
  O2-  O223  1  0.58136521  0.46131860  0.40031177  1
  O2-  O224  1  0.58062984  0.46136722  0.73686401  1
  O2-  O225  1  0.58990290  0.95904820  0.06395811  1
  O2-  O226  1  0.58526373  0.95382600  0.39714021  1
  O2-  O227  1  0.58580693  0.95889784  0.73299997  1
  O2-  O228  1  0.21144016  0.33406212  0.06758419  1
  O2-  O229  1  0.20422618  0.33311365  0.40236589  1
  O2-  O230  1  0.21077109  0.33129611  0.73336016  1
  O2-  O231  1  0.20006175  0.82940090  0.05793949  1
  O2-  O232  1  0.20727390  0.83184131  0.39223077  1
  O2-  O233  1  0.21068743  0.83049766  0.73230326  1
  O2-  O234  1  0.70444845  0.33552061  0.06191545  1
  O2-  O235  1  0.71294498  0.33579460  0.40039272  1
  O2-  O236  1  0.71117377  0.33684754  0.74122448  1
  O2-  O237  1  0.70579204  0.83643409  0.06264738  1
  O2-  O238  1  0.69925952  0.83208201  0.39774116  1
  O2-  O239  1  0.69615891  0.83083381  0.72874866  1
  O2-  O240  1  0.45302995  0.42220866  0.26716343  1
  O2-  O241  1  0.45649157  0.41885999  0.60119172  1
  O2-  O242  1  0.45950160  0.41704735  0.93261090  1
  O2-  O243  1  0.46302008  0.91703463  0.26494264  1
  O2-  O244  1  0.46155068  0.91970550  0.59948072  1
  O2-  O245  1  0.46539067  0.91734009  0.93129108  1
  O2-  O246  1  0.95690887  0.41519849  0.26556899  1
  O2-  O247  1  0.95143007  0.41169879  0.60804391  1
  O2-  O248  1  0.94554394  0.41603808  0.93765347  1
  O2-  O249  1  0.95408645  0.91709718  0.27111743  1
  O2-  O250  1  0.96110298  0.92252539  0.59929262  1
  O2-  O251  1  0.94916296  0.92221081  0.93670948  1
  O2-  O252  1  0.32643386  0.29096533  0.26789324  1
  O2-  O253  1  0.33279299  0.28764474  0.59741078  1
  O2-  O254  1  0.33428267  0.28624407  0.93216504  1
  O2-  O255  1  0.33594666  0.79001252  0.26183595  1
  O2-  O256  1  0.33508591  0.79054139  0.59703484  1
  O2-  O257  1  0.33377030  0.79362596  0.93162792  1
  O2-  O258  1  0.83531283  0.28739606  0.26520980  1
  O2-  O259  1  0.83550114  0.28798312  0.60965927  1
  O2-  O260  1  0.83157349  0.29299672  0.93503105  1
  O2-  O261  1  0.83162038  0.80111967  0.27355863  1
  O2-  O262  1  0.82731115  0.80228338  0.59953448  1
  O2-  O263  1  0.83057998  0.78973754  0.93250991  1
  O2-  O264  1  0.41969533  0.04204540  0.06522655  1
  O2-  O265  1  0.41988693  0.04127304  0.40066739  1
  O2-  O266  1  0.42108600  0.05308928  0.72568609  1
  O2-  O267  1  0.41740657  0.54780579  0.06492084  1
  O2-  O268  1  0.41643417  0.55637230  0.39441452  1
  O2-  O269  1  0.41481753  0.54947301  0.73050797  1
  O2-  O270  1  0.91523813  0.04671842  0.06410654  1
  O2-  O271  1  0.91845329  0.04180724  0.40173907  1
  O2-  O272  1  0.91908261  0.04171722  0.73702057  1
  O2-  O273  1  0.90933944  0.54259795  0.06369478  1
  O2-  O274  1  0.91479346  0.54385070  0.39520673  1
  O2-  O275  1  0.91195365  0.54315334  0.73224564  1
  O2-  O276  1  0.28547938  0.16389811  0.06687122  1
  O2-  O277  1  0.28980190  0.16478058  0.40560371  1
  O2-  O278  1  0.29214650  0.16338744  0.72857053  1
  O2-  O279  1  0.29928844  0.66859052  0.06160502  1
  O2-  O280  1  0.29025651  0.66756335  0.39485609  1
  O2-  O281  1  0.29545222  0.66625707  0.72829646  1
  O2-  O282  1  0.79229730  0.16331878  0.06396180  1
  O2-  O283  1  0.78870905  0.16555768  0.39970740  1
  O2-  O284  1  0.78894253  0.16295454  0.74283936  1
  O2-  O285  1  0.78930644  0.66133629  0.06423190  1
  O2-  O286  1  0.80086880  0.66761590  0.39642394  1
  O2-  O287  1  0.79660149  0.66824929  0.72858630  1
