# generated using pymatgen
data_Ca2Al2SiO7
_symmetry_space_group_name_H-M   'P 1'
_cell_length_a   15.45730387
_cell_length_b   15.45647766
_cell_length_c   15.28335771
_cell_angle_alpha   90.00259117
_cell_angle_beta   90.00025056
_cell_angle_gamma   89.99622584
_symmetry_Int_Tables_number   1
_chemical_formula_structural   Ca2Al2SiO7
_chemical_formula_sum   'Ca48 Al48 Si24 O168'
_cell_volume   3651.43060878
_cell_formula_units_Z   24
loop_
 _symmetry_equiv_pos_site_id
 _symmetry_equiv_pos_as_xyz
  1  'x, y, z'
loop_
 _atom_type_symbol
 _atom_type_oxidation_number
  Ca2+  2.0
  Al0+  0.0
  Si0+  0.0
  O2-  -2.0
loop_
 _atom_site_type_symbol
 _atom_site_label
 _atom_site_symmetry_multiplicity
 _atom_site_fract_x
 _atom_site_fract_y
 _atom_site_fract_z
 _atom_site_occupancy
  Ca2+  Ca0  1  0.17294270  0.07486639  0.17156166  1
  Ca2+  Ca1  1  0.16748103  0.07089014  0.51061286  1
  Ca2+  Ca2  1  0.16928019  0.07912071  0.83422094  1
  Ca2+  Ca3  1  0.16958751  0.58548020  0.17148465  1
  Ca2+  Ca4  1  0.15133431  0.57369456  0.50183619  1
  Ca2+  Ca5  1  0.16404174  0.58251203  0.83762321  1
  Ca2+  Ca6  1  0.66858601  0.07868344  0.16357178  1
  Ca2+  Ca7  1  0.67073364  0.08166556  0.50314229  1
  Ca2+  Ca8  1  0.67534787  0.07466656  0.84567217  1
  Ca2+  Ca9  1  0.66884885  0.58173338  0.17599152  1
  Ca2+  Ca10  1  0.67722574  0.58704382  0.50021060  1
  Ca2+  Ca11  1  0.67385951  0.58926134  0.83835463  1
  Ca2+  Ca12  1  0.07107185  0.34202094  0.16431332  1
  Ca2+  Ca13  1  0.08671601  0.33075423  0.49510417  1
  Ca2+  Ca14  1  0.08176684  0.32862213  0.82803438  1
  Ca2+  Ca15  1  0.09033300  0.82157369  0.16446766  1
  Ca2+  Ca16  1  0.08635176  0.82536039  0.49568846  1
  Ca2+  Ca17  1  0.08266406  0.82349572  0.82431957  1
  Ca2+  Ca18  1  0.57961696  0.33592715  0.15977570  1
  Ca2+  Ca19  1  0.58418401  0.33319194  0.49404834  1
  Ca2+  Ca20  1  0.57308181  0.33422109  0.83428067  1
  Ca2+  Ca21  1  0.57693359  0.82405503  0.15971741  1
  Ca2+  Ca22  1  0.57417331  0.82721968  0.48928777  1
  Ca2+  Ca23  1  0.58112297  0.83566745  0.83652680  1
  Ca2+  Ca24  1  0.33064667  0.42306264  0.16918334  1
  Ca2+  Ca25  1  0.32072565  0.42059296  0.50498303  1
  Ca2+  Ca26  1  0.32576160  0.42145993  0.84094963  1
  Ca2+  Ca27  1  0.33562204  0.91473562  0.16929482  1
  Ca2+  Ca28  1  0.32218176  0.91449768  0.50371066  1
  Ca2+  Ca29  1  0.33074595  0.92391735  0.83992727  1
  Ca2+  Ca30  1  0.83008879  0.41896854  0.17809806  1
  Ca2+  Ca31  1  0.83851633  0.42917080  0.49716491  1
  Ca2+  Ca32  1  0.83771136  0.42247114  0.83665743  1
  Ca2+  Ca33  1  0.83021000  0.91933034  0.16545382  1
  Ca2+  Ca34  1  0.83268956  0.91030745  0.50720962  1
  Ca2+  Ca35  1  0.83111253  0.91720227  0.84214054  1
  Ca2+  Ca36  1  0.41451992  0.17308283  0.15791827  1
  Ca2+  Ca37  1  0.41325307  0.16476332  0.50013147  1
  Ca2+  Ca38  1  0.40465702  0.16820088  0.83189925  1
  Ca2+  Ca39  1  0.42262072  0.67409796  0.15650607  1
  Ca2+  Ca40  1  0.42236205  0.67273848  0.48878706  1
  Ca2+  Ca41  1  0.41882055  0.66773518  0.83754653  1
  Ca2+  Ca42  1  0.91313614  0.17886423  0.15991746  1
  Ca2+  Ca43  1  0.92692257  0.17251947  0.49462005  1
  Ca2+  Ca44  1  0.91922179  0.17026891  0.82962939  1
  Ca2+  Ca45  1  0.92898436  0.65725787  0.16449789  1
  Ca2+  Ca46  1  0.92167026  0.66507934  0.49987600  1
  Ca2+  Ca47  1  0.92589341  0.67020071  0.82481158  1
  Al0+  Al48  1  0.00046141  0.00065565  0.00735951  1
  Al0+  Al49  1  0.00192783  0.00012904  0.33598344  1
  Al0+  Al50  1  -0.00072584  0.00120401  0.66372903  1
  Al0+  Al51  1  -0.00091500  0.49848225  -0.00925676  1
  Al0+  Al52  1  -0.00043711  0.49987890  0.33278474  1
  Al0+  Al53  1  -0.00252718  0.50031438  0.67374648  1
  Al0+  Al54  1  0.50052146  -0.00053979  0.00540906  1
  Al0+  Al55  1  0.50169713  0.00207862  0.33029932  1
  Al0+  Al56  1  0.50070620  0.00138896  0.66843972  1
  Al0+  Al57  1  0.49897336  0.49998824  -0.00574306  1
  Al0+  Al58  1  0.50035773  0.49826588  0.33522519  1
  Al0+  Al59  1  0.49968493  0.49885518  0.66455770  1
  Al0+  Al60  1  0.24732464  0.24932964  0.00214688  1
  Al0+  Al61  1  0.25115668  0.24911614  0.33564155  1
  Al0+  Al62  1  0.24880498  0.25190627  0.66808430  1
  Al0+  Al63  1  0.25209182  0.74798807  -0.00566905  1
  Al0+  Al64  1  0.25015088  0.75209790  0.33026357  1
  Al0+  Al65  1  0.25121219  0.74828468  0.66502921  1
  Al0+  Al66  1  0.74986608  0.25146733  -0.00317057  1
  Al0+  Al67  1  0.74991590  0.24984569  0.33413911  1
  Al0+  Al68  1  0.74681457  0.25079942  0.66615559  1
  Al0+  Al69  1  0.75114244  0.74936254  0.00364608  1
  Al0+  Al70  1  0.75061129  0.75166954  0.33393751  1
  Al0+  Al71  1  0.74990949  0.74884933  0.66821104  1
  Al0+  Al72  1  0.31956382  0.07188061  0.01524340  1
  Al0+  Al73  1  0.82147760  0.57270043  0.34759530  1
  Al0+  Al74  1  0.92748003  0.32006259  0.98453458  1
  Al0+  Al75  1  0.67950862  0.92683666  0.01746666  1
  Al0+  Al76  1  0.82307610  0.07354445  0.01557478  1
  Al0+  Al77  1  0.32084483  0.06948083  0.68168542  1
  Al0+  Al78  1  0.42992820  0.82280719  0.98222054  1
  Al0+  Al79  1  0.17675354  0.92602759  0.68270599  1
  Al0+  Al80  1  0.81814068  0.56989132  0.68316714  1
  Al0+  Al81  1  0.42878768  0.82178833  0.31777546  1
  Al0+  Al82  1  0.07132507  0.18083140  0.65302594  1
  Al0+  Al83  1  0.06812590  0.67954134  0.31943830  1
  Al0+  Al84  1  0.57340964  0.67809405  0.98366985  1
  Al0+  Al85  1  0.67690641  0.42724345  0.34822749  1
  Al0+  Al86  1  0.42678107  0.32017605  0.98680899  1
  Al0+  Al87  1  0.32082623  0.57018788  0.01300064  1
  Al0+  Al88  1  0.07122160  0.67931237  0.98530518  1
  Al0+  Al89  1  0.57235799  0.67733077  0.31896955  1
  Al0+  Al90  1  0.93159107  0.31877974  0.32141567  1
  Al0+  Al91  1  0.92790131  0.82148887  0.65325015  1
  Al0+  Al92  1  0.17954299  0.43006342  0.34502211  1
  Al0+  Al93  1  0.17984136  0.92824937  0.34720976  1
  Al0+  Al94  1  0.07236532  0.67801076  0.65038837  1
  Al0+  Al95  1  0.17864857  0.43101753  0.68160807  1
  Si0+  Si96  1  0.67974110  0.92974121  0.68028860  1
  Si0+  Si97  1  0.07117243  0.17604161  0.98505636  1
  Si0+  Si98  1  0.67855626  0.43037589  0.01238184  1
  Si0+  Si99  1  0.67519478  0.42657689  0.68583070  1
  Si0+  Si100  1  0.42755047  0.31979058  0.31962284  1
  Si0+  Si101  1  0.82240326  0.56955166  0.01462922  1
  Si0+  Si102  1  0.17872147  0.92581122  0.01669158  1
  Si0+  Si103  1  0.57104702  0.67858148  0.65114595  1
  Si0+  Si104  1  0.57232634  0.17963074  0.31716830  1
  Si0+  Si105  1  0.43100763  0.82328957  0.65176814  1
  Si0+  Si106  1  0.82113889  0.07206870  0.34970066  1
  Si0+  Si107  1  0.92516216  0.32176112  0.64896469  1
  Si0+  Si108  1  0.17627556  0.42876364  0.01694306  1
  Si0+  Si109  1  0.07423708  0.17619841  0.31574552  1
  Si0+  Si110  1  0.92930116  0.82332180  0.98696277  1
  Si0+  Si111  1  0.82054979  0.07345693  0.67948551  1
  Si0+  Si112  1  0.57105371  0.17857059  0.65140576  1
  Si0+  Si113  1  0.67967886  0.93115759  0.34936312  1
  Si0+  Si114  1  0.32199762  0.57258448  0.34859437  1
  Si0+  Si115  1  0.42872405  0.32088475  0.65030125  1
  Si0+  Si116  1  0.92705306  0.82579667  0.31541328  1
  Si0+  Si117  1  0.32628461  0.57172214  0.68291973  1
  Si0+  Si118  1  0.32385348  0.07230039  0.35039611  1
  Si0+  Si119  1  0.57106977  0.17862035  0.98323471  1
  O2-  O120  1  0.24798832  -0.00563130  0.06120875  1
  O2-  O121  1  0.25545749  0.00315526  0.39282780  1
  O2-  O122  1  0.24973820  -0.00254456  0.73243168  1
  O2-  O123  1  0.24518587  0.49699721  0.06091553  1
  O2-  O124  1  0.25215009  0.50582960  0.39410909  1
  O2-  O125  1  0.25170312  0.50850275  0.72564066  1
  O2-  O126  1  0.75210168  0.00029150  0.06563268  1
  O2-  O127  1  0.75409850  -0.00224901  0.39359198  1
  O2-  O128  1  0.75387901  -0.00186382  0.72121922  1
  O2-  O129  1  0.74883122  0.50093904  0.05577606  1
  O2-  O130  1  0.74634269  0.50228065  0.39702362  1
  O2-  O131  1  0.74377238  0.49440723  0.73036999  1
  O2-  O132  1  0.00646901  0.24556817  0.27161807  1
  O2-  O133  1  -0.00411767  0.25495346  0.60543310  1
  O2-  O134  1  0.00020585  0.24244537  0.94066101  1
  O2-  O135  1  -0.00607722  0.75513741  0.27188522  1
  O2-  O136  1  0.00320186  0.75395883  0.60176492  1
  O2-  O137  1  -0.00150013  0.75701726  0.94113346  1
  O2-  O138  1  0.50143419  0.25160072  0.27733263  1
  O2-  O139  1  0.49978428  0.24908396  0.60857913  1
  O2-  O140  1  0.49794939  0.24218375  0.93816713  1
  O2-  O141  1  0.49866759  0.74712984  0.26915119  1
  O2-  O142  1  0.49851465  0.74837685  0.60976977  1
  O2-  O143  1  0.50353186  0.75175831  0.93231789  1
  O2-  O144  1  0.07185831  0.17727467  0.09067334  1
  O2-  O145  1  0.07281910  0.17658328  0.42149804  1
  O2-  O146  1  0.06906491  0.18187478  0.76627134  1
  O2-  O147  1  0.06996031  0.67705255  0.09868509  1
  O2-  O148  1  0.06648833  0.67875015  0.43201862  1
  O2-  O149  1  0.06935674  0.67822611  0.76403374  1
  O2-  O150  1  0.57299076  0.18327018  0.08910417  1
  O2-  O151  1  0.57230902  0.17691948  0.42273228  1
  O2-  O152  1  0.57434141  0.17845640  0.75576792  1
  O2-  O153  1  0.57249248  0.67606863  0.09681251  1
  O2-  O154  1  0.57083935  0.68168542  0.43359894  1
  O2-  O155  1  0.57172536  0.67899690  0.75585949  1
  O2-  O156  1  0.18170566  0.42982400  0.23209835  1
  O2-  O157  1  0.18114532  0.42977370  0.56809276  1
  O2-  O158  1  0.17737974  0.42838449  0.91119627  1
  O2-  O159  1  0.17971006  0.93040284  0.23407638  1
  O2-  O160  1  0.17981918  0.92692613  0.56888501  1
  O2-  O161  1  0.17666676  0.92814262  0.91133977  1
  O2-  O162  1  0.67827058  0.42389230  0.23436642  1
  O2-  O163  1  0.67348276  0.42575920  0.58064424  1
  O2-  O164  1  0.67962791  0.42985469  0.90709298  1
  O2-  O165  1  0.67911004  0.93411145  0.24506770  1
  O2-  O166  1  0.67769298  0.93232409  0.57475639  1
  O2-  O167  1  0.68220247  0.92909550  0.90287262  1
  O2-  O168  1  0.43035708  0.32021453  0.10024061  1
  O2-  O169  1  0.42637043  0.31662659  0.42494904  1
  O2-  O170  1  0.43047085  0.32151628  0.75520610  1
  O2-  O171  1  0.43039902  0.82059102  0.09552762  1
  O2-  O172  1  0.43155429  0.82232876  0.43243136  1
  O2-  O173  1  0.43453721  0.82665676  0.75625832  1
  O2-  O174  1  0.92778523  0.32245061  0.09777996  1
  O2-  O175  1  0.93266134  0.31628245  0.43449862  1
  O2-  O176  1  0.92299574  0.31745701  0.75468174  1
  O2-  O177  1  0.93010470  0.82210939  0.09261594  1
  O2-  O178  1  0.92749073  0.82803769  0.42085700  1
  O2-  O179  1  0.92420028  0.81933091  0.76690830  1
  O2-  O180  1  0.32350173  0.07512673  0.24494838  1
  O2-  O181  1  0.32346536  0.06657295  0.56787259  1
  O2-  O182  1  0.31553215  0.07282695  0.90245430  1
  O2-  O183  1  0.32260818  0.56942618  0.24310654  1
  O2-  O184  1  0.33464763  0.56715032  0.57752867  1
  O2-  O185  1  0.31999577  0.56704747  0.89978095  1
  O2-  O186  1  0.81767505  0.07365852  0.24507220  1
  O2-  O187  1  0.81541352  0.07629370  0.57418612  1
  O2-  O188  1  0.82136515  0.07256214  0.90134489  1
  O2-  O189  1  0.82290348  0.56795105  0.23366443  1
  O2-  O190  1  0.81679662  0.57028960  0.57032449  1
  O2-  O191  1  0.82147220  0.56846999  0.90945868  1
  O2-  O192  1  0.04744499  0.08293193  0.27007275  1
  O2-  O193  1  0.04055869  0.08501279  0.59722306  1
  O2-  O194  1  0.04741308  0.08135705  0.94008864  1
  O2-  O195  1  0.03782864  0.58348853  0.26403421  1
  O2-  O196  1  0.03624846  0.57940803  0.60164107  1
  O2-  O197  1  0.03737170  0.58488879  0.92945614  1
  O2-  O198  1  0.54421470  0.08927290  0.26753861  1
  O2-  O199  1  0.54371571  0.08707788  0.60173441  1
  O2-  O200  1  0.55161821  0.08270025  0.94113978  1
  O2-  O201  1  0.54839840  0.57618608  0.26993069  1
  O2-  O202  1  0.54519907  0.58563048  0.60455349  1
  O2-  O203  1  0.54330412  0.58130430  0.92798781  1
  O2-  O204  1  0.16917863  0.20028542  0.27207295  1
  O2-  O205  1  0.16735890  0.21292351  0.59807013  1
  O2-  O206  1  0.16296606  0.20482039  0.93763277  1
  O2-  O207  1  0.16538937  0.71007454  0.26645767  1
  O2-  O208  1  0.17376417  0.69814915  0.59881053  1
  O2-  O209  1  0.16760757  0.70628930  0.93049194  1
  O2-  O210  1  0.66362953  0.20655456  0.26916918  1
  O2-  O211  1  0.66171077  0.20736661  0.60055933  1
  O2-  O212  1  0.66214243  0.20891224  0.93429865  1
  O2-  O213  1  0.67092969  0.70720207  0.26777002  1
  O2-  O214  1  0.66161911  0.70911353  0.60372438  1
  O2-  O215  1  0.67339027  0.70675840  0.93283679  1
  O2-  O216  1  0.08193717  0.45718965  0.05989819  1
  O2-  O217  1  0.08339056  0.45909050  0.39980741  1
  O2-  O218  1  0.08156355  0.45613864  0.73662733  1
  O2-  O219  1  0.08600811  0.95080872  0.06531513  1
  O2-  O220  1  0.08335691  0.95900328  0.40229130  1
  O2-  O221  1  0.07756896  0.95635034  0.73325489  1
  O2-  O222  1  0.58625834  0.45655470  0.05893023  1
  O2-  O223  1  0.57709573  0.44953564  0.40247612  1
  O2-  O224  1  0.58102705  0.45246999  0.73085724  1
  O2-  O225  1  0.58281443  0.95732610  0.07183461  1
  O2-  O226  1  0.58929730  0.96445991  0.39772716  1
  O2-  O227  1  0.59041290  0.96213276  0.72926309  1
  O2-  O228  1  0.19968385  0.33505850  0.06301424  1
  O2-  O229  1  0.21162589  0.33331069  0.39954560  1
  O2-  O230  1  0.21320598  0.33619021  0.73631190  1
  O2-  O231  1  0.20624440  0.83206912  0.06046476  1
  O2-  O232  1  0.21138138  0.83216520  0.40202332  1
  O2-  O233  1  0.20525834  0.82643167  0.73283489  1
  O2-  O234  1  0.70516666  0.33810430  0.05913874  1
  O2-  O235  1  0.70664502  0.32891729  0.40226900  1
  O2-  O236  1  0.69901992  0.33183267  0.73125845  1
  O2-  O237  1  0.70956150  0.82961848  0.07219253  1
  O2-  O238  1  0.70328252  0.83861953  0.39734618  1
  O2-  O239  1  0.70401142  0.83755109  0.72750380  1
  O2-  O240  1  0.45203484  0.41259513  0.27335154  1
  O2-  O241  1  0.45813483  0.41153902  0.60096308  1
  O2-  O242  1  0.46140931  0.41314730  0.92875061  1
  O2-  O243  1  0.45982781  0.92046328  0.26672500  1
  O2-  O244  1  0.46381165  0.91338970  0.60311191  1
  O2-  O245  1  0.45911467  0.92265996  0.93189121  1
  O2-  O246  1  0.96100914  0.41469191  0.26605391  1
  O2-  O247  1  0.94983364  0.41686818  0.60796618  1
  O2-  O248  1  0.96113916  0.41320736  0.92624566  1
  O2-  O249  1  0.95368423  0.91965249  0.26972228  1
  O2-  O250  1  0.94638665  0.92259423  0.60151876  1
  O2-  O251  1  0.95099887  0.91913726  0.94323075  1
  O2-  O252  1  0.33759165  0.28923333  0.27000653  1
  O2-  O253  1  0.33767289  0.29289458  0.60222175  1
  O2-  O254  1  0.32891221  0.29131117  0.93414859  1
  O2-  O255  1  0.33039959  0.79732633  0.26457551  1
  O2-  O256  1  0.33853571  0.79776004  0.60507635  1
  O2-  O257  1  0.33311085  0.79250633  0.92781772  1
  O2-  O258  1  0.83458653  0.28623916  0.26835932  1
  O2-  O259  1  0.83136513  0.29463354  0.60340455  1
  O2-  O260  1  0.83088821  0.29211029  0.92846520  1
  O2-  O261  1  0.83192020  0.80405699  0.27141303  1
  O2-  O262  1  0.82959923  0.78966304  0.59915102  1
  O2-  O263  1  0.83560881  0.79755688  0.94184174  1
  O2-  O264  1  0.41809610  0.04755008  0.06810135  1
  O2-  O265  1  0.41913518  0.04917398  0.39503173  1
  O2-  O266  1  0.42089188  0.04437788  0.73439150  1
  O2-  O267  1  0.41739530  0.53653833  0.06562982  1
  O2-  O268  1  0.41442421  0.54478879  0.39654050  1
  O2-  O269  1  0.41714223  0.53959737  0.73177605  1
  O2-  O270  1  0.92071796  0.04838243  0.07201913  1
  O2-  O271  1  0.91487579  0.04905702  0.39528291  1
  O2-  O272  1  0.91362526  0.05209989  0.72552104  1
  O2-  O273  1  0.91359740  0.53640178  0.05969035  1
  O2-  O274  1  0.91721973  0.53819889  0.40209888  1
  O2-  O275  1  0.91285127  0.53902241  0.74002504  1
  O2-  O276  1  0.28711800  0.16777453  0.07118683  1
  O2-  O277  1  0.29840706  0.16528435  0.39808133  1
  O2-  O278  1  0.29306252  0.16916178  0.73136975  1
  O2-  O279  1  0.29198878  0.66760014  0.06576225  1
  O2-  O280  1  0.29977972  0.66745146  0.39238395  1
  O2-  O281  1  0.30740606  0.66769356  0.72547312  1
  O2-  O282  1  0.78958154  0.17169947  0.06705733  1
  O2-  O283  1  0.78807049  0.16089354  0.39960848  1
  O2-  O284  1  0.78731253  0.16327046  0.72817720  1
  O2-  O285  1  0.80036129  0.66212423  0.06206222  1
  O2-  O286  1  0.79623285  0.67244142  0.40076049  1
  O2-  O287  1  0.78504392  0.66596860  0.73763967  1
