# generated using pymatgen
data_Ca2Al2SiO7
_symmetry_space_group_name_H-M   'P 1'
_cell_length_a   15.47804367
_cell_length_b   15.47271659
_cell_length_c   15.29592523
_cell_angle_alpha   89.98925339
_cell_angle_beta   90.02389113
_cell_angle_gamma   90.01478219
_symmetry_Int_Tables_number   1
_chemical_formula_structural   Ca2Al2SiO7
_chemical_formula_sum   'Ca48 Al48 Si24 O168'
_cell_volume   3663.18060008
_cell_formula_units_Z   24
loop_
 _symmetry_equiv_pos_site_id
 _symmetry_equiv_pos_as_xyz
  1  'x, y, z'
loop_
 _atom_type_symbol
 _atom_type_oxidation_number
  Ca2+  2.0
  Al0+  0.0
  Si0+  0.0
  O2-  -2.0
loop_
 _atom_site_type_symbol
 _atom_site_label
 _atom_site_symmetry_multiplicity
 _atom_site_fract_x
 _atom_site_fract_y
 _atom_site_fract_z
 _atom_site_occupancy
  Ca2+  Ca0  1  0.17344652  0.07873196  0.16535181  1
  Ca2+  Ca1  1  0.17707132  0.07810505  0.51195061  1
  Ca2+  Ca2  1  0.17021304  0.07680930  0.84209411  1
  Ca2+  Ca3  1  0.16001996  0.57928950  0.16865304  1
  Ca2+  Ca4  1  0.16276974  0.57628243  0.51086237  1
  Ca2+  Ca5  1  0.17101110  0.58223981  0.83931916  1
  Ca2+  Ca6  1  0.67056364  0.07320197  0.17374369  1
  Ca2+  Ca7  1  0.66500694  0.07995925  0.50497851  1
  Ca2+  Ca8  1  0.66675670  0.08481600  0.83411552  1
  Ca2+  Ca9  1  0.66646820  0.58240924  0.17172084  1
  Ca2+  Ca10  1  0.67235352  0.57202363  0.51161140  1
  Ca2+  Ca11  1  0.67251562  0.59070214  0.83533219  1
  Ca2+  Ca12  1  0.09481057  0.32970486  0.16037099  1
  Ca2+  Ca13  1  0.09609043  0.32978350  0.49899865  1
  Ca2+  Ca14  1  0.10002832  0.32406214  0.82962586  1
  Ca2+  Ca15  1  0.08198677  0.82421750  0.15556337  1
  Ca2+  Ca16  1  0.09249659  0.81930191  0.50041027  1
  Ca2+  Ca17  1  0.09310332  0.82655311  0.82903647  1
  Ca2+  Ca18  1  0.58075030  0.33339443  0.16233502  1
  Ca2+  Ca19  1  0.58697176  0.33211912  0.49869238  1
  Ca2+  Ca20  1  0.57989078  0.32765923  0.82242884  1
  Ca2+  Ca21  1  0.57898207  0.82932012  0.15700597  1
  Ca2+  Ca22  1  0.57615550  0.83589314  0.49840487  1
  Ca2+  Ca23  1  0.56692108  0.82761174  0.83265084  1
  Ca2+  Ca24  1  0.32267973  0.42487713  0.16461796  1
  Ca2+  Ca25  1  0.32301290  0.42686443  0.50671848  1
  Ca2+  Ca26  1  0.32449761  0.42774821  0.83503377  1
  Ca2+  Ca27  1  0.33437617  0.92282816  0.16331435  1
  Ca2+  Ca28  1  0.33086976  0.92419923  0.50959028  1
  Ca2+  Ca29  1  0.32767478  0.92141710  0.83533314  1
  Ca2+  Ca30  1  0.82576073  0.41805711  0.17285707  1
  Ca2+  Ca31  1  0.82389083  0.42015107  0.50810149  1
  Ca2+  Ca32  1  0.82949816  0.41962406  0.82919636  1
  Ca2+  Ca33  1  0.82924321  0.90955565  0.16835531  1
  Ca2+  Ca34  1  0.82341494  0.91149204  0.50301758  1
  Ca2+  Ca35  1  0.83432252  0.91234763  0.83992255  1
  Ca2+  Ca36  1  0.41052271  0.16426264  0.16242784  1
  Ca2+  Ca37  1  0.41605119  0.16237928  0.49943801  1
  Ca2+  Ca38  1  0.41649523  0.16353185  0.82416659  1
  Ca2+  Ca39  1  0.42454221  0.67071831  0.15169579  1
  Ca2+  Ca40  1  0.40551044  0.67449255  0.50181170  1
  Ca2+  Ca41  1  0.40426185  0.67441019  0.82925000  1
  Ca2+  Ca42  1  0.92527625  0.17243129  0.15757142  1
  Ca2+  Ca43  1  0.92515093  0.16851147  0.50156995  1
  Ca2+  Ca44  1  0.93384338  0.16754629  0.82907914  1
  Ca2+  Ca45  1  0.92718868  0.67112515  0.16038447  1
  Ca2+  Ca46  1  0.92720055  0.65626706  0.50150066  1
  Ca2+  Ca47  1  0.92812247  0.66877772  0.83123460  1
  Al0+  Al48  1  -0.00070571  0.00330404  -0.00075545  1
  Al0+  Al49  1  0.00053627  0.00061975  0.33287625  1
  Al0+  Al50  1  -0.00259728  0.00000594  0.66191402  1
  Al0+  Al51  1  -0.00492804  0.50012694  0.00140653  1
  Al0+  Al52  1  -0.00111523  0.49757372  0.33213034  1
  Al0+  Al53  1  -0.00439256  0.49768390  0.67167479  1
  Al0+  Al54  1  0.50295357  -0.00128976  0.00060418  1
  Al0+  Al55  1  0.50210786  0.00060488  0.33882840  1
  Al0+  Al56  1  0.50091303  -0.00090431  0.66129425  1
  Al0+  Al57  1  0.50155841  0.49698312  -0.00104534  1
  Al0+  Al58  1  0.49866109  0.49874910  0.33635152  1
  Al0+  Al59  1  0.49912317  0.49894171  0.67191319  1
  Al0+  Al60  1  0.25259374  0.25176488  0.00205685  1
  Al0+  Al61  1  0.25337121  0.25149952  0.33871221  1
  Al0+  Al62  1  0.25438049  0.25094131  0.66458519  1
  Al0+  Al63  1  0.25144251  0.75233230  0.00151697  1
  Al0+  Al64  1  0.25086895  0.75172364  0.32421729  1
  Al0+  Al65  1  0.24865358  0.75241734  0.66145528  1
  Al0+  Al66  1  0.75116366  0.24994299  0.00087275  1
  Al0+  Al67  1  0.75071502  0.24864656  0.33491193  1
  Al0+  Al68  1  0.74967299  0.24767813  0.66496142  1
  Al0+  Al69  1  0.75002571  0.74908327  -0.00495961  1
  Al0+  Al70  1  0.75036089  0.75034427  0.33924543  1
  Al0+  Al71  1  0.74820492  0.74929809  0.67046937  1
  Al0+  Al72  1  0.07015180  0.67813217  0.31944546  1
  Al0+  Al73  1  0.31848104  0.57396393  0.67959309  1
  Al0+  Al74  1  0.92949888  0.82229557  0.98638504  1
  Al0+  Al75  1  0.17602080  0.92891384  0.01568743  1
  Al0+  Al76  1  0.07180941  0.67827086  0.98476273  1
  Al0+  Al77  1  0.31978864  0.06949922  0.34820067  1
  Al0+  Al78  1  0.17888613  0.43164947  0.34718787  1
  Al0+  Al79  1  0.32262536  0.57338053  0.01474897  1
  Al0+  Al80  1  0.42876971  0.82231203  0.98506271  1
  Al0+  Al81  1  0.57073876  0.67565846  0.98528395  1
  Al0+  Al82  1  0.06848338  0.67902925  0.65412020  1
  Al0+  Al83  1  0.17732716  0.43180767  0.01476760  1
  Al0+  Al84  1  0.32356580  0.07070186  0.01408678  1
  Al0+  Al85  1  0.67716024  0.42856501  0.34645897  1
  Al0+  Al86  1  0.67841307  0.42661064  0.68324162  1
  Al0+  Al87  1  0.68102234  0.92875513  0.34753526  1
  Al0+  Al88  1  0.82013473  0.57210372  0.68493170  1
  Al0+  Al89  1  0.17707525  0.42784937  0.68104285  1
  Al0+  Al90  1  0.07355816  0.17956115  0.65211180  1
  Al0+  Al91  1  0.17632807  0.93053137  0.67953749  1
  Al0+  Al92  1  0.42921493  0.81902301  0.65099488  1
  Al0+  Al93  1  0.57053428  0.17974455  0.65140482  1
  Al0+  Al94  1  0.07233644  0.18354781  0.98817387  1
  Al0+  Al95  1  0.32287835  0.06993116  0.68072896  1
  Si0+  Si96  1  0.57093217  0.67837971  0.32212116  1
  Si0+  Si97  1  0.43153359  0.82327202  0.31700720  1
  Si0+  Si98  1  0.32191605  0.57469124  0.34744729  1
  Si0+  Si99  1  0.92614764  0.82305039  0.31843300  1
  Si0+  Si100  1  0.57279767  0.67713164  0.64906660  1
  Si0+  Si101  1  0.67994402  0.42594359  0.01576387  1
  Si0+  Si102  1  0.82107496  0.57085873  0.34947484  1
  Si0+  Si103  1  0.57191286  0.17879215  0.31658363  1
  Si0+  Si104  1  0.07394980  0.18025995  0.31864388  1
  Si0+  Si105  1  0.82133166  0.07346441  0.01515998  1
  Si0+  Si106  1  0.17647870  0.92667077  0.34916038  1
  Si0+  Si107  1  0.43052432  0.31950274  0.98464732  1
  Si0+  Si108  1  0.81790178  0.57229421  0.01779294  1
  Si0+  Si109  1  0.67831764  0.92875481  0.68381704  1
  Si0+  Si110  1  0.92386671  0.82257653  0.64828236  1
  Si0+  Si111  1  0.68219566  0.92936750  0.01360576  1
  Si0+  Si112  1  0.82014926  0.06974960  0.68190419  1
  Si0+  Si113  1  0.42976216  0.32090525  0.31659956  1
  Si0+  Si114  1  0.82394333  0.07291130  0.35091071  1
  Si0+  Si115  1  0.92379409  0.32229532  0.98277489  1
  Si0+  Si116  1  0.92760418  0.31838698  0.31835295  1
  Si0+  Si117  1  0.92694309  0.31940808  0.64926412  1
  Si0+  Si118  1  0.57334724  0.17881456  0.98749528  1
  Si0+  Si119  1  0.42902957  0.32457139  0.64662435  1
  O2-  O120  1  0.25115250  -0.00066137  0.06456966  1
  O2-  O121  1  0.24409730  -0.00408000  0.39341373  1
  O2-  O122  1  0.24411657  0.00611311  0.72982903  1
  O2-  O123  1  0.24395612  0.50877063  0.06592883  1
  O2-  O124  1  0.24733948  0.51265527  0.39125986  1
  O2-  O125  1  0.24434159  0.50441304  0.72939647  1
  O2-  O126  1  0.75427929  -0.00122372  0.05724422  1
  O2-  O127  1  0.75785625  0.00147397  0.39430846  1
  O2-  O128  1  0.75263131  -0.00369918  0.72561909  1
  O2-  O129  1  0.74699505  0.50007716  0.05895952  1
  O2-  O130  1  0.74955211  0.50471912  0.39261723  1
  O2-  O131  1  0.74514961  0.50223043  0.73459974  1
  O2-  O132  1  0.00133923  0.25016061  0.27636741  1
  O2-  O133  1  0.00237271  0.25819285  0.60433759  1
  O2-  O134  1  0.00041863  0.26156178  0.94145691  1
  O2-  O135  1  -0.00247797  0.75703991  0.27574215  1
  O2-  O136  1  -0.00672521  0.75401919  0.60556568  1
  O2-  O137  1  0.00599095  0.75679630  0.93543916  1
  O2-  O138  1  0.50175161  0.24987282  0.27356424  1
  O2-  O139  1  0.49823797  0.25538374  0.60273889  1
  O2-  O140  1  0.50009326  0.24573904  0.94466404  1
  O2-  O141  1  0.50014161  0.74823988  0.27741524  1
  O2-  O142  1  0.50163831  0.74175798  0.60285516  1
  O2-  O143  1  0.49206620  0.74097041  0.93691152  1
  O2-  O144  1  0.06931676  0.18433429  0.10217440  1
  O2-  O145  1  0.07236787  0.18066433  0.42352605  1
  O2-  O146  1  0.07058576  0.17864592  0.76495917  1
  O2-  O147  1  0.06482242  0.67621710  0.09894153  1
  O2-  O148  1  0.06834388  0.67633236  0.43248876  1
  O2-  O149  1  0.06918050  0.68036547  0.76629755  1
  O2-  O150  1  0.57674659  0.18098764  0.09292537  1
  O2-  O151  1  0.57310113  0.17912540  0.42115739  1
  O2-  O152  1  0.57128911  0.17982172  0.76501920  1
  O2-  O153  1  0.57442184  0.67929885  0.10024178  1
  O2-  O154  1  0.57068456  0.67891582  0.42670799  1
  O2-  O155  1  0.57592643  0.68217156  0.75401654  1
  O2-  O156  1  0.18116171  0.42906226  0.23443008  1
  O2-  O157  1  0.18019066  0.42985259  0.56680597  1
  O2-  O158  1  0.18197524  0.42817111  0.90224572  1
  O2-  O159  1  0.17553147  0.92815126  0.24389249  1
  O2-  O160  1  0.17947713  0.92995943  0.56511261  1
  O2-  O161  1  0.17324694  0.93342053  0.90280679  1
  O2-  O162  1  0.67912655  0.42877491  0.23291311  1
  O2-  O163  1  0.68276410  0.42657388  0.56913549  1
  O2-  O164  1  0.68358331  0.41886384  0.91186067  1
  O2-  O165  1  0.68168394  0.92975630  0.23408022  1
  O2-  O166  1  0.67960474  0.92982949  0.57827613  1
  O2-  O167  1  0.68198991  0.93288576  0.90884852  1
  O2-  O168  1  0.43309553  0.32040534  0.09039923  1
  O2-  O169  1  0.43104214  0.32110936  0.42101932  1
  O2-  O170  1  0.43022713  0.32352931  0.75223393  1
  O2-  O171  1  0.43823849  0.82677373  0.09937200  1
  O2-  O172  1  0.43179321  0.82311194  0.42200640  1
  O2-  O173  1  0.43168024  0.82105911  0.76326233  1
  O2-  O174  1  0.91505702  0.31670768  0.08851100  1
  O2-  O175  1  0.92396232  0.31625827  0.42282396  1
  O2-  O176  1  0.92054714  0.31321935  0.75425087  1
  O2-  O177  1  0.92486559  0.81688986  0.10047461  1
  O2-  O178  1  0.92257759  0.82346913  0.42344090  1
  O2-  O179  1  0.92140583  0.82334195  0.75330391  1
  O2-  O180  1  0.32010217  0.06934541  0.23522653  1
  O2-  O181  1  0.32274695  0.06637919  0.56672931  1
  O2-  O182  1  0.32562357  0.07134057  0.90144939  1
  O2-  O183  1  0.32689752  0.57132519  0.24239865  1
  O2-  O184  1  0.31701339  0.57261645  0.56513047  1
  O2-  O185  1  0.32434623  0.56752198  0.90201288  1
  O2-  O186  1  0.82194250  0.07561370  0.24520584  1
  O2-  O187  1  0.81856784  0.06947340  0.57649494  1
  O2-  O188  1  0.81733015  0.07760424  0.91049248  1
  O2-  O189  1  0.81888941  0.57046572  0.24361189  1
  O2-  O190  1  0.81874599  0.57014507  0.57051798  1
  O2-  O191  1  0.81692155  0.57294437  0.91344101  1
  O2-  O192  1  0.04695306  0.08742700  0.27220062  1
  O2-  O193  1  0.03607281  0.08537104  0.59567287  1
  O2-  O194  1  0.03641296  0.08929162  0.93409597  1
  O2-  O195  1  0.03532070  0.58209388  0.26577645  1
  O2-  O196  1  0.03480752  0.58098144  0.60242957  1
  O2-  O197  1  0.03575128  0.58095872  0.93411605  1
  O2-  O198  1  0.54382140  0.08631150  0.27035416  1
  O2-  O199  1  0.54094883  0.08383328  0.59528198  1
  O2-  O200  1  0.55149704  0.08572777  0.94121160  1
  O2-  O201  1  0.54491112  0.58564768  0.27469288  1
  O2-  O202  1  0.55211833  0.58045921  0.60775160  1
  O2-  O203  1  0.55527178  0.57346049  0.93635284  1
  O2-  O204  1  0.16534869  0.21145318  0.27300139  1
  O2-  O205  1  0.17083289  0.20822757  0.59777021  1
  O2-  O206  1  0.16959563  0.21186124  0.93517399  1
  O2-  O207  1  0.16728435  0.70556077  0.26416776  1
  O2-  O208  1  0.16304414  0.71072974  0.59623537  1
  O2-  O209  1  0.17325407  0.69969599  0.93754459  1
  O2-  O210  1  0.66476221  0.20529577  0.26946828  1
  O2-  O211  1  0.66765843  0.20840986  0.59608152  1
  O2-  O212  1  0.66384868  0.20948989  0.93897728  1
  O2-  O213  1  0.66400076  0.70595051  0.27610499  1
  O2-  O214  1  0.66526244  0.70681206  0.60180683  1
  O2-  O215  1  0.66517322  0.71242442  0.93099585  1
  O2-  O216  1  0.07469302  0.45038024  0.06540294  1
  O2-  O217  1  0.07899927  0.45339855  0.39856387  1
  O2-  O218  1  0.07521963  0.44296202  0.72965844  1
  O2-  O219  1  0.07812012  0.96129175  0.06980621  1
  O2-  O220  1  0.08169693  0.94942131  0.39400023  1
  O2-  O221  1  0.07460156  0.95213667  0.72747717  1
  O2-  O222  1  0.58736964  0.44924873  0.06315083  1
  O2-  O223  1  0.58064281  0.45614327  0.40120522  1
  O2-  O224  1  0.57824414  0.44699447  0.73349302  1
  O2-  O225  1  0.59305705  0.95977107  0.06426539  1
  O2-  O226  1  0.58743949  0.96326769  0.40386197  1
  O2-  O227  1  0.58886867  0.96250623  0.72980977  1
  O2-  O228  1  0.21470224  0.33594862  0.06906112  1
  O2-  O229  1  0.21578841  0.33755777  0.40164089  1
  O2-  O230  1  0.21327080  0.33156394  0.73205521  1
  O2-  O231  1  0.20219948  0.83045020  0.06912718  1
  O2-  O232  1  0.20491530  0.83236083  0.39214024  1
  O2-  O233  1  0.20933854  0.83375348  0.73009585  1
  O2-  O234  1  0.71187288  0.33603183  0.06671124  1
  O2-  O235  1  0.70973490  0.33176491  0.39839911  1
  O2-  O236  1  0.71175880  0.32860654  0.73428882  1
  O2-  O237  1  0.71006186  0.83738628  0.06099598  1
  O2-  O238  1  0.70915915  0.83294264  0.40497087  1
  O2-  O239  1  0.70232945  0.83661912  0.73075100  1
  O2-  O240  1  0.45865300  0.41257845  0.26859982  1
  O2-  O241  1  0.45511597  0.41824181  0.60009078  1
  O2-  O242  1  0.46197933  0.40865244  0.93556066  1
  O2-  O243  1  0.46614174  0.91364425  0.27132312  1
  O2-  O244  1  0.46689277  0.91265762  0.59466323  1
  O2-  O245  1  0.46955521  0.91668553  0.93132729  1
  O2-  O246  1  0.95052729  0.41108635  0.27060462  1
  O2-  O247  1  0.94251111  0.41601085  0.60653885  1
  O2-  O248  1  0.93846387  0.41900260  0.94172289  1
  O2-  O249  1  0.94640829  0.91893360  0.27315402  1
  O2-  O250  1  0.94459149  0.91676119  0.60078312  1
  O2-  O251  1  0.94476458  0.92521137  0.93845119  1
  O2-  O252  1  0.33887726  0.29027874  0.26894754  1
  O2-  O253  1  0.33701324  0.29848693  0.59769751  1
  O2-  O254  1  0.33958240  0.29307642  0.93688189  1
  O2-  O255  1  0.33888106  0.80186532  0.26873737  1
  O2-  O256  1  0.33375070  0.79100448  0.59274478  1
  O2-  O257  1  0.32770470  0.80559268  0.93537190  1
  O2-  O258  1  0.83715676  0.28732883  0.26811760  1
  O2-  O259  1  0.83761520  0.28432709  0.59899958  1
  O2-  O260  1  0.83466844  0.28705438  0.93307401  1
  O2-  O261  1  0.83271081  0.79438835  0.27176138  1
  O2-  O262  1  0.82966229  0.79500391  0.60298610  1
  O2-  O263  1  0.83327213  0.78980592  0.93153279  1
  O2-  O264  1  0.42312792  0.04250898  0.06791818  1
  O2-  O265  1  0.41714438  0.04010980  0.40079929  1
  O2-  O266  1  0.42082555  0.03714292  0.73117525  1
  O2-  O267  1  0.42024427  0.53623773  0.06776250  1
  O2-  O268  1  0.41246665  0.54341816  0.39644770  1
  O2-  O269  1  0.41720582  0.54702808  0.73141481  1
  O2-  O270  1  0.91305627  0.05127236  0.06420738  1
  O2-  O271  1  0.91885605  0.05120556  0.39591404  1
  O2-  O272  1  0.91252737  0.04498991  0.72853388  1
  O2-  O273  1  0.90813744  0.54370431  0.06762737  1
  O2-  O274  1  0.91228195  0.53925762  0.39575160  1
  O2-  O275  1  0.91542169  0.54020383  0.74046607  1
  O2-  O276  1  0.29539876  0.16919963  0.06758270  1
  O2-  O277  1  0.29226872  0.16660995  0.40193059  1
  O2-  O278  1  0.30547930  0.17233663  0.72688284  1
  O2-  O279  1  0.30727097  0.67517143  0.06472976  1
  O2-  O280  1  0.30247216  0.67180199  0.38820176  1
  O2-  O281  1  0.29149148  0.67277570  0.72959174  1
  O2-  O282  1  0.78815793  0.16247488  0.06628622  1
  O2-  O283  1  0.79419894  0.16411165  0.39890339  1
  O2-  O284  1  0.78794252  0.15913422  0.72988006  1
  O2-  O285  1  0.78718327  0.66319275  0.06582644  1
  O2-  O286  1  0.80007040  0.66474121  0.39593842  1
  O2-  O287  1  0.79161720  0.67058498  0.73777047  1
