# generated using pymatgen
data_Ca2Al2SiO7
_symmetry_space_group_name_H-M   'P 1'
_cell_length_a   15.46221409
_cell_length_b   15.46457864
_cell_length_c   15.28768662
_cell_angle_alpha   89.99264996
_cell_angle_beta   89.99547632
_cell_angle_gamma   89.97922127
_symmetry_Int_Tables_number   1
_chemical_formula_structural   Ca2Al2SiO7
_chemical_formula_sum   'Ca48 Al48 Si24 O168'
_cell_volume   3655.53975801
_cell_formula_units_Z   24
loop_
 _symmetry_equiv_pos_site_id
 _symmetry_equiv_pos_as_xyz
  1  'x, y, z'
loop_
 _atom_type_symbol
 _atom_type_oxidation_number
  Ca2+  2.0
  Al0+  0.0
  Si0+  0.0
  O2-  -2.0
loop_
 _atom_site_type_symbol
 _atom_site_label
 _atom_site_symmetry_multiplicity
 _atom_site_fract_x
 _atom_site_fract_y
 _atom_site_fract_z
 _atom_site_occupancy
  Ca2+  Ca0  1  0.16175474  0.07331125  0.17021429  1
  Ca2+  Ca1  1  0.17060699  0.08333305  0.50982228  1
  Ca2+  Ca2  1  0.16288279  0.07938124  0.83418275  1
  Ca2+  Ca3  1  0.17387139  0.58543699  0.17458827  1
  Ca2+  Ca4  1  0.17237673  0.59080879  0.49997634  1
  Ca2+  Ca5  1  0.17484840  0.59410324  0.83843867  1
  Ca2+  Ca6  1  0.67179394  0.08454961  0.17856056  1
  Ca2+  Ca7  1  0.67181270  0.08485830  0.49898289  1
  Ca2+  Ca8  1  0.66961418  0.07795340  0.83603963  1
  Ca2+  Ca9  1  0.67391823  0.57811707  0.17433662  1
  Ca2+  Ca10  1  0.65936154  0.57430624  0.50556008  1
  Ca2+  Ca11  1  0.67506976  0.58124217  0.83511019  1
  Ca2+  Ca12  1  0.07216073  0.34472163  0.16596175  1
  Ca2+  Ca13  1  0.07466343  0.33493755  0.49465800  1
  Ca2+  Ca14  1  0.06990104  0.33336323  0.82541797  1
  Ca2+  Ca15  1  0.08410891  0.82258145  0.16528086  1
  Ca2+  Ca16  1  0.07832475  0.82358726  0.49685914  1
  Ca2+  Ca17  1  0.08329358  0.82476350  0.82893266  1
  Ca2+  Ca18  1  0.58222610  0.33357794  0.16715274  1
  Ca2+  Ca19  1  0.58710773  0.33244897  0.49221118  1
  Ca2+  Ca20  1  0.57625517  0.34086061  0.83024761  1
  Ca2+  Ca21  1  0.57657727  0.82827680  0.17058825  1
  Ca2+  Ca22  1  0.57684734  0.81691765  0.49218527  1
  Ca2+  Ca23  1  0.58137071  0.82240871  0.82474916  1
  Ca2+  Ca24  1  0.32806804  0.42474660  0.17471667  1
  Ca2+  Ca25  1  0.32605861  0.42778267  0.50303495  1
  Ca2+  Ca26  1  0.33112377  0.42757105  0.83943864  1
  Ca2+  Ca27  1  0.32790789  0.91138748  0.17148588  1
  Ca2+  Ca28  1  0.33837621  0.92120172  0.50434807  1
  Ca2+  Ca29  1  0.32548757  0.92402170  0.83895255  1
  Ca2+  Ca30  1  0.83434563  0.41834244  0.17365105  1
  Ca2+  Ca31  1  0.82373533  0.40879928  0.50249326  1
  Ca2+  Ca32  1  0.83152335  0.41550405  0.83703106  1
  Ca2+  Ca33  1  0.83855340  0.92629615  0.17738619  1
  Ca2+  Ca34  1  0.84469084  0.91900200  0.50152646  1
  Ca2+  Ca35  1  0.83637225  0.91275103  0.83554050  1
  Ca2+  Ca36  1  0.42433698  0.17474537  0.16238625  1
  Ca2+  Ca37  1  0.42223365  0.16662506  0.49295882  1
  Ca2+  Ca38  1  0.41155155  0.17420087  0.82964029  1
  Ca2+  Ca39  1  0.41697901  0.65941296  0.16874496  1
  Ca2+  Ca40  1  0.42165731  0.66092967  0.49340900  1
  Ca2+  Ca41  1  0.41880003  0.66097726  0.82660562  1
  Ca2+  Ca42  1  0.91142650  0.17874291  0.16637556  1
  Ca2+  Ca43  1  0.91794654  0.17519884  0.49642672  1
  Ca2+  Ca44  1  0.92254596  0.17726799  0.82606177  1
  Ca2+  Ca45  1  0.93106704  0.65821794  0.16168395  1
  Ca2+  Ca46  1  0.92558905  0.67552808  0.49247372  1
  Ca2+  Ca47  1  0.92884912  0.66605508  0.82604644  1
  Al0+  Al48  1  -0.00075193  -0.00039377  0.00559355  1
  Al0+  Al49  1  0.00117138  0.00125969  0.33701192  1
  Al0+  Al50  1  0.00062668  0.00219576  0.66392242  1
  Al0+  Al51  1  0.00048874  0.50063430  -0.00843301  1
  Al0+  Al52  1  -0.00076927  0.49989060  0.33070244  1
  Al0+  Al53  1  -0.00128652  0.50049781  0.65658841  1
  Al0+  Al54  1  0.50036207  -0.00091726  -0.00050359  1
  Al0+  Al55  1  0.50177512  -0.00052131  0.32504942  1
  Al0+  Al56  1  0.50071286  0.00119737  0.67434251  1
  Al0+  Al57  1  0.50089969  0.49890660  -0.00031134  1
  Al0+  Al58  1  0.49999989  0.49906469  0.33564977  1
  Al0+  Al59  1  0.49908675  0.49836816  0.67156889  1
  Al0+  Al60  1  0.25141911  0.24919924  -0.00375993  1
  Al0+  Al61  1  0.24893249  0.24930297  0.33615860  1
  Al0+  Al62  1  0.25059206  0.25166334  0.66877353  1
  Al0+  Al63  1  0.25117888  0.75209767  0.00444678  1
  Al0+  Al64  1  0.24982739  0.75192492  0.33258335  1
  Al0+  Al65  1  0.25015138  0.75322192  0.66810333  1
  Al0+  Al66  1  0.74920645  0.24757107  -0.00552095  1
  Al0+  Al67  1  0.75127896  0.24845351  0.33329841  1
  Al0+  Al68  1  0.74752614  0.24858854  0.67165078  1
  Al0+  Al69  1  0.74949126  0.74919966  0.00645771  1
  Al0+  Al70  1  0.74818249  0.75247351  0.32587457  1
  Al0+  Al71  1  0.74803754  0.74920852  0.65909607  1
  Al0+  Al72  1  0.42909828  0.82074038  0.31864589  1
  Al0+  Al73  1  0.56806593  0.67683985  0.65474635  1
  Al0+  Al74  1  0.07275896  0.18089695  0.65208081  1
  Al0+  Al75  1  0.92998469  0.31913935  0.31977991  1
  Al0+  Al76  1  0.17981736  0.93108135  0.01496902  1
  Al0+  Al77  1  0.68144890  0.43007953  0.34511966  1
  Al0+  Al78  1  0.32164303  0.57007851  0.01446419  1
  Al0+  Al79  1  0.92546247  0.32093113  0.64986681  1
  Al0+  Al80  1  0.92915562  0.32097180  0.98527216  1
  Al0+  Al81  1  0.82108831  0.06961883  0.34881350  1
  Al0+  Al82  1  0.82274469  0.56975946  0.01200864  1
  Al0+  Al83  1  0.06967113  0.67931387  0.31656598  1
  Al0+  Al84  1  0.31935800  0.57174948  0.34930329  1
  Al0+  Al85  1  0.57082940  0.67395068  0.31608143  1
  Al0+  Al86  1  0.57103220  0.18046492  0.32140900  1
  Al0+  Al87  1  0.92757877  0.82105754  0.65336328  1
  Al0+  Al88  1  0.31802668  0.57130207  0.68099790  1
  Al0+  Al89  1  0.07242822  0.68099963  0.98542271  1
  Al0+  Al90  1  0.32298885  0.07323205  0.68084418  1
  Al0+  Al91  1  0.92911878  0.82415804  0.31678392  1
  Al0+  Al92  1  0.17564688  0.42725293  0.34864571  1
  Al0+  Al93  1  0.42996843  0.32122809  0.98600784  1
  Al0+  Al94  1  0.07482375  0.67875951  0.65064408  1
  Al0+  Al95  1  0.67998787  0.42801279  0.68224389  1
  Si0+  Si96  1  0.42928751  0.82428537  0.65418893  1
  Si0+  Si97  1  0.32386995  0.07355181  0.01885986  1
  Si0+  Si98  1  0.67957397  0.42667982  0.01634630  1
  Si0+  Si99  1  0.07505487  0.17788447  0.31637030  1
  Si0+  Si100  1  0.57165375  0.17590279  0.98047755  1
  Si0+  Si101  1  0.67602446  0.92813179  0.35081132  1
  Si0+  Si102  1  0.42997839  0.32094079  0.65137455  1
  Si0+  Si103  1  0.56967950  0.17687334  0.65302126  1
  Si0+  Si104  1  0.92685069  0.82298329  0.98583693  1
  Si0+  Si105  1  0.82108654  0.06993099  0.68359527  1
  Si0+  Si106  1  0.42976747  0.82172932  0.98303976  1
  Si0+  Si107  1  0.82178980  0.57395752  0.68002182  1
  Si0+  Si108  1  0.17785701  0.42614795  0.01315253  1
  Si0+  Si109  1  0.07094837  0.17464112  0.98525452  1
  Si0+  Si110  1  0.17528701  0.42840885  0.68359498  1
  Si0+  Si111  1  0.17987351  0.93038339  0.35095994  1
  Si0+  Si112  1  0.82209591  0.57511508  0.34937471  1
  Si0+  Si113  1  0.67922935  0.92757566  0.68132498  1
  Si0+  Si114  1  0.17732197  0.93090764  0.68385305  1
  Si0+  Si115  1  0.81857554  0.07001214  0.01471969  1
  Si0+  Si116  1  0.32311698  0.07062932  0.34589640  1
  Si0+  Si117  1  0.57199128  0.67935153  0.98458050  1
  Si0+  Si118  1  0.42574453  0.32127533  0.31876164  1
  Si0+  Si119  1  0.67698537  0.92742574  0.01657695  1
  O2-  O120  1  0.25383907  0.00689191  0.06312404  1
  O2-  O121  1  0.25236803  0.00133348  0.39087407  1
  O2-  O122  1  0.24643378  0.00032118  0.72720986  1
  O2-  O123  1  0.24656880  0.49434654  0.05801915  1
  O2-  O124  1  0.24573105  0.50106647  0.39874516  1
  O2-  O125  1  0.23862724  0.50182054  0.72883601  1
  O2-  O126  1  0.74802134  -0.00110432  0.05738755  1
  O2-  O127  1  0.74998772  -0.00918073  0.39573084  1
  O2-  O128  1  0.75382002  -0.00547312  0.72544815  1
  O2-  O129  1  0.75103610  0.49211203  0.05959463  1
  O2-  O130  1  0.75118340  0.50862246  0.39376069  1
  O2-  O131  1  0.75781906  0.50098910  0.72615347  1
  O2-  O132  1  0.00910306  0.24889667  0.27215419  1
  O2-  O133  1  0.00188809  0.25278678  0.60119245  1
  O2-  O134  1  0.00681344  0.24749035  0.94139746  1
  O2-  O135  1  -0.00542292  0.74784878  0.26505803  1
  O2-  O136  1  -0.00143987  0.74834901  0.60418352  1
  O2-  O137  1  -0.00581119  0.75398025  0.94103738  1
  O2-  O138  1  0.49607715  0.25409973  0.27451203  1
  O2-  O139  1  0.49916331  0.24745279  0.61030474  1
  O2-  O140  1  0.50325331  0.24496249  0.93702318  1
  O2-  O141  1  0.49679357  0.74513086  0.26715186  1
  O2-  O142  1  0.49151898  0.75062344  0.61006127  1
  O2-  O143  1  0.49967439  0.74929438  0.94143319  1
  O2-  O144  1  0.06780215  0.17111886  0.09053788  1
  O2-  O145  1  0.07579188  0.17671259  0.42162365  1
  O2-  O146  1  0.06852641  0.17983377  0.76636376  1
  O2-  O147  1  0.07299996  0.68084980  0.09784237  1
  O2-  O148  1  0.07062263  0.68296660  0.42983358  1
  O2-  O149  1  0.07588066  0.68277040  0.76475611  1
  O2-  O150  1  0.57299863  0.17477074  0.08575361  1
  O2-  O151  1  0.56868825  0.17964434  0.43491178  1
  O2-  O152  1  0.56924575  0.17506958  0.75823070  1
  O2-  O153  1  0.57193402  0.68071849  0.08905335  1
  O2-  O154  1  0.56876779  0.67438686  0.42992265  1
  O2-  O155  1  0.56965348  0.68038748  0.76862909  1
  O2-  O156  1  0.17931627  0.42548155  0.23443958  1
  O2-  O157  1  0.18074260  0.42425174  0.57868145  1
  O2-  O158  1  0.17963298  0.42597889  0.90746856  1
  O2-  O159  1  0.17943024  0.93225288  0.24558819  1
  O2-  O160  1  0.17865925  0.93145860  0.57844712  1
  O2-  O161  1  0.18115775  0.93348343  0.90175081  1
  O2-  O162  1  0.68369928  0.42842623  0.23170639  1
  O2-  O163  1  0.67820301  0.42615511  0.56943240  1
  O2-  O164  1  0.67896867  0.42875018  0.91055583  1
  O2-  O165  1  0.67368175  0.93341224  0.24483873  1
  O2-  O166  1  0.67418288  0.93144354  0.57724012  1
  O2-  O167  1  0.67688243  0.92729642  0.91095914  1
  O2-  O168  1  0.43285427  0.31888497  0.09897521  1
  O2-  O169  1  0.42540460  0.31812418  0.42447366  1
  O2-  O170  1  0.43190919  0.32064535  0.75677408  1
  O2-  O171  1  0.43216237  0.82547056  0.08748945  1
  O2-  O172  1  0.43305378  0.82621729  0.43234369  1
  O2-  O173  1  0.43286435  0.82584117  0.76028875  1
  O2-  O174  1  0.92646272  0.31856230  0.09814721  1
  O2-  O175  1  0.92681073  0.31469891  0.43211695  1
  O2-  O176  1  0.92509763  0.31731230  0.76404427  1
  O2-  O177  1  0.92810096  0.82573618  0.09063887  1
  O2-  O178  1  0.93472119  0.82446693  0.43021041  1
  O2-  O179  1  0.92786930  0.82017781  0.76772689  1
  O2-  O180  1  0.32155593  0.07066346  0.24085275  1
  O2-  O181  1  0.32793710  0.06883328  0.56761499  1
  O2-  O182  1  0.32541291  0.07123946  0.91328841  1
  O2-  O183  1  0.31939933  0.56831976  0.23540429  1
  O2-  O184  1  0.32128460  0.56874889  0.56871777  1
  O2-  O185  1  0.32191125  0.57038753  0.90103487  1
  O2-  O186  1  0.81788713  0.07109180  0.23502626  1
  O2-  O187  1  0.81829738  0.07173499  0.57899912  1
  O2-  O188  1  0.81772570  0.06845242  0.90940394  1
  O2-  O189  1  0.82247971  0.57015875  0.24334383  1
  O2-  O190  1  0.81681870  0.57662680  0.57496395  1
  O2-  O191  1  0.81947249  0.57212953  0.89873788  1
  O2-  O192  1  0.04546825  0.08528435  0.27105876  1
  O2-  O193  1  0.04520391  0.08274273  0.59916130  1
  O2-  O194  1  0.03928055  0.08325803  0.93718545  1
  O2-  O195  1  0.04456575  0.58002164  0.26376730  1
  O2-  O196  1  0.05241572  0.57985019  0.59789474  1
  O2-  O197  1  0.04450965  0.58506115  0.92897740  1
  O2-  O198  1  0.54126847  0.08608208  0.26292628  1
  O2-  O199  1  0.54206906  0.08480479  0.60629494  1
  O2-  O200  1  0.54613071  0.08163561  0.93446007  1
  O2-  O201  1  0.54320846  0.57543535  0.26268993  1
  O2-  O202  1  0.53687441  0.58019507  0.60248093  1
  O2-  O203  1  0.54624613  0.58681123  0.93814441  1
  O2-  O204  1  0.16985358  0.19798017  0.26977610  1
  O2-  O205  1  0.17339708  0.20442809  0.60150446  1
  O2-  O206  1  0.16731720  0.19281659  0.94188121  1
  O2-  O207  1  0.16723939  0.71252760  0.26527333  1
  O2-  O208  1  0.17171999  0.71340157  0.59787990  1
  O2-  O209  1  0.16858273  0.71750626  0.93345909  1
  O2-  O210  1  0.66589409  0.21183499  0.26527887  1
  O2-  O211  1  0.66173706  0.20422755  0.60732069  1
  O2-  O212  1  0.66498757  0.19943985  0.93264246  1
  O2-  O213  1  0.66800804  0.70447260  0.26165254  1
  O2-  O214  1  0.66190876  0.70889863  0.59803438  1
  O2-  O215  1  0.66347366  0.71069369  0.93770986  1
  O2-  O216  1  0.08355050  0.45251899  0.05625328  1
  O2-  O217  1  0.07580066  0.45234933  0.39941451  1
  O2-  O218  1  0.07779808  0.44810086  0.72418753  1
  O2-  O219  1  0.08339756  0.96101586  0.07080955  1
  O2-  O220  1  0.08992799  0.96045221  0.39972849  1
  O2-  O221  1  0.08434792  0.95814034  0.73124837  1
  O2-  O222  1  0.58711823  0.45493059  0.06237142  1
  O2-  O223  1  0.58310823  0.45395860  0.39922583  1
  O2-  O224  1  0.58487500  0.46175612  0.73799485  1
  O2-  O225  1  0.58529893  0.95663982  0.06343237  1
  O2-  O226  1  0.58472479  0.96157341  0.39698508  1
  O2-  O227  1  0.59089203  0.95956900  0.73467646  1
  O2-  O228  1  0.20118604  0.33127598  0.05822345  1
  O2-  O229  1  0.20482572  0.32855913  0.40223090  1
  O2-  O230  1  0.20559971  0.33697336  0.73240733  1
  O2-  O231  1  0.21426552  0.83723457  0.07102092  1
  O2-  O232  1  0.20799580  0.83950849  0.39851696  1
  O2-  O233  1  0.20445664  0.83865984  0.73187505  1
  O2-  O234  1  0.70069502  0.32982571  0.05775802  1
  O2-  O235  1  0.71430029  0.33418663  0.39945455  1
  O2-  O236  1  0.70599579  0.33051562  0.73871821  1
  O2-  O237  1  0.70196384  0.83640226  0.06560610  1
  O2-  O238  1  0.69407481  0.83131593  0.39259272  1
  O2-  O239  1  0.70453121  0.83462216  0.72856002  1
  O2-  O240  1  0.45184350  0.41407812  0.27300636  1
  O2-  O241  1  0.46115231  0.41091137  0.60429676  1
  O2-  O242  1  0.46354071  0.41651697  0.92990139  1
  O2-  O243  1  0.46146545  0.91615417  0.26028993  1
  O2-  O244  1  0.46106786  0.91635141  0.60865590  1
  O2-  O245  1  0.45880880  0.91349075  0.93471573  1
  O2-  O246  1  0.95620620  0.41641475  0.26488930  1
  O2-  O247  1  0.94540855  0.42054709  0.59749896  1
  O2-  O248  1  0.95806178  0.41589772  0.92758418  1
  O2-  O249  1  0.96263109  0.92241174  0.26564448  1
  O2-  O250  1  0.95570533  0.92001822  0.60246790  1
  O2-  O251  1  0.95269964  0.91719803  0.93989486  1
  O2-  O252  1  0.33354908  0.29300685  0.27121436  1
  O2-  O253  1  0.33776622  0.29493548  0.60535819  1
  O2-  O254  1  0.33348010  0.29157535  0.92978051  1
  O2-  O255  1  0.32984658  0.79767080  0.26612720  1
  O2-  O256  1  0.33367345  0.80758290  0.61078143  1
  O2-  O257  1  0.33752927  0.79552548  0.93705467  1
  O2-  O258  1  0.83612223  0.28253897  0.26416926  1
  O2-  O259  1  0.82739790  0.28487527  0.60099249  1
  O2-  O260  1  0.83333234  0.28672864  0.93072084  1
  O2-  O261  1  0.82631227  0.80963337  0.26845044  1
  O2-  O262  1  0.82898478  0.79805835  0.59855225  1
  O2-  O263  1  0.83109462  0.79959954  0.94247352  1
  O2-  O264  1  0.41805437  0.04603861  0.06329086  1
  O2-  O265  1  0.41553340  0.04137003  0.39152231  1
  O2-  O266  1  0.41766172  0.04148185  0.73990248  1
  O2-  O267  1  0.41890919  0.53840508  0.06673398  1
  O2-  O268  1  0.41749024  0.54085624  0.40124368  1
  O2-  O269  1  0.41259914  0.53486796  0.73653539  1
  O2-  O270  1  0.90983423  0.04433170  0.06365098  1
  O2-  O271  1  0.91853433  0.04276855  0.40349603  1
  O2-  O272  1  0.91403163  0.04559825  0.73068736  1
  O2-  O273  1  0.92050988  0.53933750  0.06350236  1
  O2-  O274  1  0.91526112  0.54846687  0.39436273  1
  O2-  O275  1  0.91823846  0.55263950  0.72241084  1
  O2-  O276  1  0.30157675  0.16864284  0.06288605  1
  O2-  O277  1  0.29820237  0.16226521  0.39492839  1
  O2-  O278  1  0.29402175  0.17008066  0.73595028  1
  O2-  O279  1  0.29371225  0.66748825  0.06702424  1
  O2-  O280  1  0.29401894  0.67201232  0.40019578  1
  O2-  O281  1  0.29461581  0.67132010  0.73372322  1
  O2-  O282  1  0.78878865  0.16181805  0.06122489  1
  O2-  O283  1  0.78415823  0.16322083  0.40367546  1
  O2-  O284  1  0.78684987  0.15802186  0.73457842  1
  O2-  O285  1  0.79099828  0.66495598  0.06852891  1
  O2-  O286  1  0.79943251  0.67149478  0.39041796  1
  O2-  O287  1  0.79070290  0.66590891  0.72778982  1
