# generated using pymatgen
data_Ca2Al2SiO7
_symmetry_space_group_name_H-M   'P 1'
_cell_length_a   15.46148467
_cell_length_b   15.46057138
_cell_length_c   15.28686570
_cell_angle_alpha   90.00750828
_cell_angle_beta   90.00522575
_cell_angle_gamma   90.00622667
_symmetry_Int_Tables_number   1
_chemical_formula_structural   Ca2Al2SiO7
_chemical_formula_sum   'Ca48 Al48 Si24 O168'
_cell_volume   3654.22409294
_cell_formula_units_Z   24
loop_
 _symmetry_equiv_pos_site_id
 _symmetry_equiv_pos_as_xyz
  1  'x, y, z'
loop_
 _atom_type_symbol
 _atom_type_oxidation_number
  Ca2+  2.0
  Al0+  0.0
  Si0+  0.0
  O2-  -2.0
loop_
 _atom_site_type_symbol
 _atom_site_label
 _atom_site_symmetry_multiplicity
 _atom_site_fract_x
 _atom_site_fract_y
 _atom_site_fract_z
 _atom_site_occupancy
  Ca2+  Ca0  1  0.17724663  0.07813745  0.16764941  1
  Ca2+  Ca1  1  0.17381945  0.07686548  0.50224840  1
  Ca2+  Ca2  1  0.16762235  0.07856830  0.83974311  1
  Ca2+  Ca3  1  0.17620942  0.57398128  0.17793656  1
  Ca2+  Ca4  1  0.17490403  0.57360353  0.50362674  1
  Ca2+  Ca5  1  0.16746006  0.57396396  0.83413402  1
  Ca2+  Ca6  1  0.66822649  0.07837638  0.16539408  1
  Ca2+  Ca7  1  0.66593804  0.08429767  0.50585275  1
  Ca2+  Ca8  1  0.66986562  0.08414273  0.84348030  1
  Ca2+  Ca9  1  0.65841299  0.57925542  0.16856080  1
  Ca2+  Ca10  1  0.66599296  0.58415760  0.50979319  1
  Ca2+  Ca11  1  0.66096893  0.57595172  0.83042087  1
  Ca2+  Ca12  1  0.08740605  0.32615280  0.15912617  1
  Ca2+  Ca13  1  0.09430203  0.33041936  0.49834721  1
  Ca2+  Ca14  1  0.08646901  0.31922970  0.82503965  1
  Ca2+  Ca15  1  0.08354433  0.84404152  0.16439659  1
  Ca2+  Ca16  1  0.08050770  0.83913095  0.49346917  1
  Ca2+  Ca17  1  0.08549809  0.83812278  0.82935290  1
  Ca2+  Ca18  1  0.57028673  0.33452113  0.15963801  1
  Ca2+  Ca19  1  0.57374733  0.33509448  0.49848916  1
  Ca2+  Ca20  1  0.57616443  0.33347926  0.82542327  1
  Ca2+  Ca21  1  0.57254129  0.83037167  0.16263697  1
  Ca2+  Ca22  1  0.57802671  0.81986915  0.49046294  1
  Ca2+  Ca23  1  0.57736314  0.83648158  0.82935757  1
  Ca2+  Ca24  1  0.33467639  0.41844281  0.17691325  1
  Ca2+  Ca25  1  0.33212223  0.41354049  0.49934269  1
  Ca2+  Ca26  1  0.33538739  0.40980091  0.83370815  1
  Ca2+  Ca27  1  0.33156559  0.92293412  0.17559933  1
  Ca2+  Ca28  1  0.32689820  0.91409348  0.50177363  1
  Ca2+  Ca29  1  0.32576061  0.92464243  0.84584854  1
  Ca2+  Ca30  1  0.82394369  0.41486815  0.16877174  1
  Ca2+  Ca31  1  0.82409633  0.42699310  0.51291576  1
  Ca2+  Ca32  1  0.81868640  0.41742127  0.83659847  1
  Ca2+  Ca33  1  0.83175053  0.91875471  0.16618841  1
  Ca2+  Ca34  1  0.83438613  0.91416622  0.50214360  1
  Ca2+  Ca35  1  0.82290355  0.92421866  0.84269227  1
  Ca2+  Ca36  1  0.40325763  0.17511104  0.16211926  1
  Ca2+  Ca37  1  0.41548232  0.17474906  0.49854152  1
  Ca2+  Ca38  1  0.41691093  0.17534363  0.82835304  1
  Ca2+  Ca39  1  0.41026806  0.67736121  0.16631350  1
  Ca2+  Ca40  1  0.42563083  0.66553232  0.49098310  1
  Ca2+  Ca41  1  0.42180166  0.67573417  0.82984983  1
  Ca2+  Ca42  1  0.92467356  0.16353219  0.15802961  1
  Ca2+  Ca43  1  0.92561504  0.16773806  0.49860717  1
  Ca2+  Ca44  1  0.92689977  0.15854761  0.83092214  1
  Ca2+  Ca45  1  0.92081249  0.67297266  0.16651647  1
  Ca2+  Ca46  1  0.91677318  0.67030796  0.49377906  1
  Ca2+  Ca47  1  0.91479814  0.66762905  0.82793439  1
  Al0+  Al48  1  -0.00107482  -0.00065440  0.00097925  1
  Al0+  Al49  1  -0.00054724  0.00114920  0.33213348  1
  Al0+  Al50  1  0.00022418  0.00012063  0.66483957  1
  Al0+  Al51  1  -0.00132124  0.50043507  -0.00066313  1
  Al0+  Al52  1  -0.00298810  0.49903332  0.33539493  1
  Al0+  Al53  1  0.00145310  0.50165299  0.67419643  1
  Al0+  Al54  1  0.49975944  0.00159588  0.00401530  1
  Al0+  Al55  1  0.50322333  -0.00043854  0.33612706  1
  Al0+  Al56  1  0.49830601  0.00193346  0.66241220  1
  Al0+  Al57  1  0.49921031  0.50071922  -0.00087614  1
  Al0+  Al58  1  0.50048780  0.49672116  0.33008983  1
  Al0+  Al59  1  0.49969202  0.50273616  0.66345090  1
  Al0+  Al60  1  0.24744090  0.24845849  -0.00723894  1
  Al0+  Al61  1  0.25056220  0.24673244  0.33581930  1
  Al0+  Al62  1  0.24985272  0.24904858  0.66178785  1
  Al0+  Al63  1  0.24911274  0.74810639  -0.00314716  1
  Al0+  Al64  1  0.25001625  0.74754952  0.33849395  1
  Al0+  Al65  1  0.24715525  0.74945032  0.67072606  1
  Al0+  Al66  1  0.75001592  0.25294001  0.01000970  1
  Al0+  Al67  1  0.75140737  0.24895995  0.33425073  1
  Al0+  Al68  1  0.75209578  0.25071779  0.66747895  1
  Al0+  Al69  1  0.75134998  0.74799147  0.00254057  1
  Al0+  Al70  1  0.75172022  0.74970055  0.32331294  1
  Al0+  Al71  1  0.75015148  0.75251142  0.66809990  1
  Al0+  Al72  1  0.17964981  0.92660108  0.01460263  1
  Al0+  Al73  1  0.93166799  0.82167229  0.31811768  1
  Al0+  Al74  1  0.67754159  0.43144070  0.01560431  1
  Al0+  Al75  1  0.82108373  0.57491468  0.68183782  1
  Al0+  Al76  1  0.42986530  0.32176737  0.64985867  1
  Al0+  Al77  1  0.17692783  0.42729714  0.34668465  1
  Al0+  Al78  1  0.42983470  0.31577492  0.31851128  1
  Al0+  Al79  1  0.67666584  0.92662617  0.01569180  1
  Al0+  Al80  1  0.82092169  0.07135616  0.01517585  1
  Al0+  Al81  1  0.42873066  0.32136988  0.98569145  1
  Al0+  Al82  1  0.42692376  0.82134163  0.31962249  1
  Al0+  Al83  1  0.17857731  0.92963341  0.68145254  1
  Al0+  Al84  1  0.57037519  0.68363402  0.65475436  1
  Al0+  Al85  1  0.17842544  0.92913912  0.34873149  1
  Al0+  Al86  1  0.42828725  0.82338761  0.98640874  1
  Al0+  Al87  1  0.32093327  0.07298587  0.01327283  1
  Al0+  Al88  1  0.06782573  0.17891242  0.98558988  1
  Al0+  Al89  1  0.57167156  0.67708450  0.31635039  1
  Al0+  Al90  1  0.57479947  0.17773690  0.65319764  1
  Al0+  Al91  1  0.06973330  0.17831737  0.65012910  1
  Al0+  Al92  1  0.32507810  0.07089742  0.35081265  1
  Al0+  Al93  1  0.18121868  0.42765210  0.68204512  1
  Al0+  Al94  1  0.32331086  0.57020282  0.34848744  1
  Al0+  Al95  1  0.67762043  0.42910660  0.68104584  1
  Si0+  Si96  1  0.07114723  0.67643314  0.98350568  1
  Si0+  Si97  1  0.92678850  0.32193076  0.31884480  1
  Si0+  Si98  1  0.82106491  0.07075645  0.35042388  1
  Si0+  Si99  1  0.81953989  0.57173836  0.34728248  1
  Si0+  Si100  1  0.82139552  0.07089988  0.67937670  1
  Si0+  Si101  1  0.17833774  0.42873888  0.01203057  1
  Si0+  Si102  1  0.07167320  0.67671482  0.65144573  1
  Si0+  Si103  1  0.32017434  0.56983504  0.01339662  1
  Si0+  Si104  1  0.92631926  0.32420753  0.98316133  1
  Si0+  Si105  1  0.92948659  0.81942212  0.98322218  1
  Si0+  Si106  1  0.93069755  0.81976549  0.65319732  1
  Si0+  Si107  1  0.92941713  0.32424710  0.65095188  1
  Si0+  Si108  1  0.32254397  0.57285714  0.68547174  1
  Si0+  Si109  1  0.07124802  0.67512503  0.31827317  1
  Si0+  Si110  1  0.57205594  0.67913661  0.98217682  1
  Si0+  Si111  1  0.67992159  0.42819712  0.34855057  1
  Si0+  Si112  1  0.32233581  0.07137807  0.68388936  1
  Si0+  Si113  1  0.57667814  0.17730337  0.31536846  1
  Si0+  Si114  1  0.82448720  0.57148757  0.02011529  1
  Si0+  Si115  1  0.68176983  0.92705100  0.34898054  1
  Si0+  Si116  1  0.42461277  0.82298379  0.65094130  1
  Si0+  Si117  1  0.57430363  0.17985161  0.98678096  1
  Si0+  Si118  1  0.06943239  0.18081051  0.31774531  1
  Si0+  Si119  1  0.67850479  0.93058055  0.67823085  1
  O2-  O120  1  0.25561336  -0.00548194  0.06320135  1
  O2-  O121  1  0.25558447  -0.00503659  0.39935714  1
  O2-  O122  1  0.25576280  0.00068061  0.72794791  1
  O2-  O123  1  0.25032842  0.49727863  0.05514093  1
  O2-  O124  1  0.24896217  0.49923705  0.39668175  1
  O2-  O125  1  0.25703845  0.50078141  0.72994010  1
  O2-  O126  1  0.74817654  0.00013275  0.06539531  1
  O2-  O127  1  0.75018465  0.00017077  0.39302646  1
  O2-  O128  1  0.74245415  0.00822023  0.72023618  1
  O2-  O129  1  0.75319530  0.50545815  0.06355967  1
  O2-  O130  1  0.74810629  0.50220408  0.39011772  1
  O2-  O131  1  0.75077972  0.50097219  0.73086284  1
  O2-  O132  1  0.00225761  0.25635224  0.27641902  1
  O2-  O133  1  -0.00145725  0.25744380  0.60393430  1
  O2-  O134  1  -0.00806072  0.25326790  0.93868687  1
  O2-  O135  1  0.00991051  0.74988492  0.27207933  1
  O2-  O136  1  0.00018157  0.74782394  0.61037285  1
  O2-  O137  1  0.00138604  0.74932312  0.94130471  1
  O2-  O138  1  0.50316877  0.24004818  0.27080916  1
  O2-  O139  1  0.50489994  0.25091870  0.60224232  1
  O2-  O140  1  0.50421204  0.24616472  0.94161232  1
  O2-  O141  1  0.49688431  0.74733283  0.26859932  1
  O2-  O142  1  0.49452872  0.75585449  0.60699077  1
  O2-  O143  1  0.50804474  0.75310010  0.93928348  1
  O2-  O144  1  0.06763615  0.18268578  0.09900478  1
  O2-  O145  1  0.06568504  0.17974276  0.42292298  1
  O2-  O146  1  0.06592228  0.17645510  0.76311079  1
  O2-  O147  1  0.06900775  0.67153431  0.08827579  1
  O2-  O148  1  0.06456719  0.67149992  0.42366137  1
  O2-  O149  1  0.07183731  0.67749088  0.75678303  1
  O2-  O150  1  0.57687210  0.18322810  0.09227368  1
  O2-  O151  1  0.58312516  0.18293667  0.42055333  1
  O2-  O152  1  0.57454237  0.17511563  0.76681676  1
  O2-  O153  1  0.56915702  0.67730522  0.08748259  1
  O2-  O154  1  0.57553703  0.68010509  0.43018130  1
  O2-  O155  1  0.57000709  0.68724911  0.76797715  1
  O2-  O156  1  0.17570557  0.42869094  0.23228015  1
  O2-  O157  1  0.17975971  0.43153017  0.56939991  1
  O2-  O158  1  0.17753909  0.43143836  0.90709816  1
  O2-  O159  1  0.17508365  0.93454763  0.23568275  1
  O2-  O160  1  0.17653702  0.93023328  0.56873835  1
  O2-  O161  1  0.17901553  0.92880923  0.90077753  1
  O2-  O162  1  0.68311548  0.42744981  0.24333688  1
  O2-  O163  1  0.68033539  0.43087310  0.56707797  1
  O2-  O164  1  0.67790636  0.43271606  0.90286389  1
  O2-  O165  1  0.68392009  0.92813272  0.24424858  1
  O2-  O166  1  0.68392217  0.92724903  0.57322385  1
  O2-  O167  1  0.67966004  0.92735080  0.90110603  1
  O2-  O168  1  0.42819744  0.32268534  0.09874368  1
  O2-  O169  1  0.43247283  0.31756408  0.43103266  1
  O2-  O170  1  0.43054126  0.31917723  0.76384288  1
  O2-  O171  1  0.42548654  0.81882820  0.09889819  1
  O2-  O172  1  0.43167166  0.82039801  0.43352032  1
  O2-  O173  1  0.42640132  0.82280583  0.75683882  1
  O2-  O174  1  0.93032045  0.32707791  0.08918119  1
  O2-  O175  1  0.92220236  0.31959096  0.42356662  1
  O2-  O176  1  0.92879058  0.32138765  0.75639571  1
  O2-  O177  1  0.92997933  0.81846232  0.08826764  1
  O2-  O178  1  0.92907823  0.81932693  0.43177720  1
  O2-  O179  1  0.93051400  0.82044810  0.75829514  1
  O2-  O180  1  0.31946914  0.07412753  0.23741688  1
  O2-  O181  1  0.32212155  0.06952773  0.57846062  1
  O2-  O182  1  0.31783824  0.07424089  0.89951455  1
  O2-  O183  1  0.32052127  0.56846705  0.23405870  1
  O2-  O184  1  0.31999199  0.57617280  0.58036812  1
  O2-  O185  1  0.31880879  0.57062190  0.90824720  1
  O2-  O186  1  0.82131868  0.07179774  0.24574345  1
  O2-  O187  1  0.82419568  0.06691376  0.57402706  1
  O2-  O188  1  0.82069835  0.06860685  0.90092603  1
  O2-  O189  1  0.82261058  0.56892073  0.24228020  1
  O2-  O190  1  0.81995606  0.57583874  0.56769085  1
  O2-  O191  1  0.82774739  0.57120887  0.91497319  1
  O2-  O192  1  0.03472641  0.09189230  0.26991844  1
  O2-  O193  1  0.03201562  0.08421324  0.59511438  1
  O2-  O194  1  0.03525448  0.08235194  0.93162865  1
  O2-  O195  1  0.03750101  0.58452218  0.26887178  1
  O2-  O196  1  0.04393243  0.58511142  0.60401425  1
  O2-  O197  1  0.04000298  0.58586972  0.93394223  1
  O2-  O198  1  0.55915821  0.08016882  0.27483272  1
  O2-  O199  1  0.54624422  0.07986269  0.59692086  1
  O2-  O200  1  0.55428910  0.08425811  0.94305530  1
  O2-  O201  1  0.54718576  0.57726866  0.26561468  1
  O2-  O202  1  0.54302874  0.58697554  0.60015435  1
  O2-  O203  1  0.53926853  0.58831218  0.93480025  1
  O2-  O204  1  0.16189830  0.20514826  0.27128420  1
  O2-  O205  1  0.16618658  0.20655747  0.59618332  1
  O2-  O206  1  0.16146314  0.21147302  0.92763661  1
  O2-  O207  1  0.16767652  0.69214560  0.27637199  1
  O2-  O208  1  0.16339538  0.70471061  0.60434406  1
  O2-  O209  1  0.16237237  0.70108359  0.93371925  1
  O2-  O210  1  0.66893429  0.20717833  0.26745556  1
  O2-  O211  1  0.67566639  0.20066213  0.60115058  1
  O2-  O212  1  0.66855542  0.20754762  0.94212890  1
  O2-  O213  1  0.66845087  0.70716563  0.26073135  1
  O2-  O214  1  0.66692206  0.71613678  0.60056330  1
  O2-  O215  1  0.66916190  0.69738032  0.94009604  1
  O2-  O216  1  0.08648726  0.45748892  0.05933929  1
  O2-  O217  1  0.07719014  0.45356700  0.39925580  1
  O2-  O218  1  0.08579566  0.45992531  0.73793419  1
  O2-  O219  1  0.08150591  0.95747128  0.06524376  1
  O2-  O220  1  0.08031748  0.96342385  0.40110931  1
  O2-  O221  1  0.08150558  0.96257204  0.73406037  1
  O2-  O222  1  0.58151692  0.46476939  0.06957082  1
  O2-  O223  1  0.58750454  0.45261319  0.39425684  1
  O2-  O224  1  0.57989839  0.46101318  0.73319325  1
  O2-  O225  1  0.57937664  0.95358029  0.07024260  1
  O2-  O226  1  0.59034074  0.95102488  0.39816395  1
  O2-  O227  1  0.58357328  0.95094405  0.72246052  1
  O2-  O228  1  0.20332568  0.33582997  0.05682680  1
  O2-  O229  1  0.20581137  0.32960891  0.39884865  1
  O2-  O230  1  0.20970471  0.32927911  0.73360276  1
  O2-  O231  1  0.19979091  0.82450063  0.06339813  1
  O2-  O232  1  0.19684480  0.82744342  0.39924058  1
  O2-  O233  1  0.20262641  0.83079115  0.73472422  1
  O2-  O234  1  0.70837004  0.33725269  0.07409785  1
  O2-  O235  1  0.71206974  0.33755442  0.39553459  1
  O2-  O236  1  0.70741838  0.33061022  0.73423626  1
  O2-  O237  1  0.70871272  0.82880630  0.06772369  1
  O2-  O238  1  0.71525212  0.83561924  0.39408503  1
  O2-  O239  1  0.71316886  0.84343752  0.72974367  1
  O2-  O240  1  0.46184168  0.41193059  0.26419887  1
  O2-  O241  1  0.45510354  0.42140944  0.59843312  1
  O2-  O242  1  0.45939093  0.41835574  0.93198140  1
  O2-  O243  1  0.45895482  0.92009094  0.26886892  1
  O2-  O244  1  0.44723656  0.91693669  0.60543648  1
  O2-  O245  1  0.45600645  0.92166042  0.93345009  1
  O2-  O246  1  0.94797089  0.41559507  0.27171082  1
  O2-  O247  1  0.95342570  0.41973168  0.60786419  1
  O2-  O248  1  0.95292395  0.41716042  0.93615444  1
  O2-  O249  1  0.95838653  0.91954608  0.26428103  1
  O2-  O250  1  0.95954695  0.91015867  0.60355541  1
  O2-  O251  1  0.95521528  0.91148883  0.93579387  1
  O2-  O252  1  0.33144218  0.28736809  0.26581083  1
  O2-  O253  1  0.33252868  0.29093446  0.59677043  1
  O2-  O254  1  0.33266152  0.29104804  0.93060077  1
  O2-  O255  1  0.32676403  0.79443964  0.26861709  1
  O2-  O256  1  0.33069691  0.79494800  0.60727839  1
  O2-  O257  1  0.33345664  0.78705423  0.93068488  1
  O2-  O258  1  0.83763500  0.28858953  0.26863835  1
  O2-  O259  1  0.83659781  0.29778104  0.60340744  1
  O2-  O260  1  0.83052589  0.30091289  0.94151746  1
  O2-  O261  1  0.83860617  0.78724243  0.26017007  1
  O2-  O262  1  0.83876715  0.79378116  0.60491815  1
  O2-  O263  1  0.83763353  0.79005344  0.93575940  1
  O2-  O264  1  0.42154235  0.05593577  0.06480654  1
  O2-  O265  1  0.42644906  0.05032177  0.40166398  1
  O2-  O266  1  0.41741115  0.04892002  0.72910400  1
  O2-  O267  1  0.41167636  0.54403990  0.06089840  1
  O2-  O268  1  0.42149376  0.53863286  0.40006733  1
  O2-  O269  1  0.41711302  0.55108530  0.73036036  1
  O2-  O270  1  0.91704766  0.03835559  0.06954266  1
  O2-  O271  1  0.91190032  0.04148344  0.39849820  1
  O2-  O272  1  0.90902048  0.03364485  0.72843047  1
  O2-  O273  1  0.91704171  0.54292076  0.06792159  1
  O2-  O274  1  0.91019767  0.54381543  0.39703842  1
  O2-  O275  1  0.92011839  0.55074545  0.73512433  1
  O2-  O276  1  0.28262953  0.16922355  0.06577301  1
  O2-  O277  1  0.28935503  0.16605236  0.40541492  1
  O2-  O278  1  0.29361870  0.16455409  0.72762519  1
  O2-  O279  1  0.28886471  0.66017891  0.06101664  1
  O2-  O280  1  0.29793424  0.66784555  0.40390915  1
  O2-  O281  1  0.29183633  0.66437309  0.73404780  1
  O2-  O282  1  0.79847914  0.17018387  0.07003747  1
  O2-  O283  1  0.79405344  0.16280961  0.39860430  1
  O2-  O284  1  0.80473187  0.16501753  0.72590744  1
  O2-  O285  1  0.80218884  0.66600863  0.06530601  1
  O2-  O286  1  0.79340207  0.66514860  0.39190785  1
  O2-  O287  1  0.79116819  0.67253687  0.73662122  1
