# generated using pymatgen
data_Ca2Al2SiO7
_symmetry_space_group_name_H-M   'P 1'
_cell_length_a   15.46404414
_cell_length_b   15.46640195
_cell_length_c   15.28953945
_cell_angle_alpha   89.98465111
_cell_angle_beta   89.99356435
_cell_angle_gamma   89.98994178
_symmetry_Int_Tables_number   1
_chemical_formula_structural   Ca2Al2SiO7
_chemical_formula_sum   'Ca48 Al48 Si24 O168'
_cell_volume   3656.84667897
_cell_formula_units_Z   24
loop_
 _symmetry_equiv_pos_site_id
 _symmetry_equiv_pos_as_xyz
  1  'x, y, z'
loop_
 _atom_type_symbol
 _atom_type_oxidation_number
  Ca2+  2.0
  Al0+  0.0
  Si0+  0.0
  O2-  -2.0
loop_
 _atom_site_type_symbol
 _atom_site_label
 _atom_site_symmetry_multiplicity
 _atom_site_fract_x
 _atom_site_fract_y
 _atom_site_fract_z
 _atom_site_occupancy
  Ca2+  Ca0  1  0.18070402  0.09034435  0.17215232  1
  Ca2+  Ca1  1  0.16969813  0.08850082  0.50538768  1
  Ca2+  Ca2  1  0.17042300  0.08906677  0.83869589  1
  Ca2+  Ca3  1  0.16906175  0.58056806  0.17551818  1
  Ca2+  Ca4  1  0.16628962  0.57535756  0.50496703  1
  Ca2+  Ca5  1  0.16311647  0.57991893  0.83214172  1
  Ca2+  Ca6  1  0.65785152  0.08274485  0.16755669  1
  Ca2+  Ca7  1  0.67035980  0.08860040  0.50538767  1
  Ca2+  Ca8  1  0.66578602  0.08563645  0.83709507  1
  Ca2+  Ca9  1  0.67135380  0.57277387  0.16624798  1
  Ca2+  Ca10  1  0.67620508  0.57781986  0.50878758  1
  Ca2+  Ca11  1  0.68138673  0.57333880  0.84284313  1
  Ca2+  Ca12  1  0.07399620  0.34491423  0.16568035  1
  Ca2+  Ca13  1  0.07564301  0.34339781  0.50037975  1
  Ca2+  Ca14  1  0.07301521  0.33243327  0.82590263  1
  Ca2+  Ca15  1  0.08241311  0.82135235  0.16524704  1
  Ca2+  Ca16  1  0.07812523  0.82058437  0.49205238  1
  Ca2+  Ca17  1  0.08517467  0.81982245  0.82751116  1
  Ca2+  Ca18  1  0.57196255  0.32495243  0.15829208  1
  Ca2+  Ca19  1  0.57893469  0.32217420  0.49170642  1
  Ca2+  Ca20  1  0.58171632  0.32947425  0.83230948  1
  Ca2+  Ca21  1  0.58480471  0.83323017  0.16138549  1
  Ca2+  Ca22  1  0.58212269  0.82910554  0.49711350  1
  Ca2+  Ca23  1  0.58480349  0.83667501  0.83391993  1
  Ca2+  Ca24  1  0.32863535  0.41568878  0.17922659  1
  Ca2+  Ca25  1  0.32289095  0.42072812  0.50382513  1
  Ca2+  Ca26  1  0.32660469  0.41355612  0.83584179  1
  Ca2+  Ca27  1  0.33509897  0.93105648  0.17026368  1
  Ca2+  Ca28  1  0.33253745  0.92400007  0.50029556  1
  Ca2+  Ca29  1  0.33031587  0.92545078  0.84070589  1
  Ca2+  Ca30  1  0.83420695  0.41286777  0.16533892  1
  Ca2+  Ca31  1  0.83807732  0.41620030  0.50659556  1
  Ca2+  Ca32  1  0.83880805  0.42100576  0.83931359  1
  Ca2+  Ca33  1  0.82977227  0.91514070  0.17039742  1
  Ca2+  Ca34  1  0.83759710  0.92271825  0.50501147  1
  Ca2+  Ca35  1  0.82974236  0.92793844  0.83875739  1
  Ca2+  Ca36  1  0.41640934  0.17428353  0.16046054  1
  Ca2+  Ca37  1  0.42617852  0.17024868  0.49019298  1
  Ca2+  Ca38  1  0.42540275  0.16805368  0.83431990  1
  Ca2+  Ca39  1  0.41507584  0.66494331  0.16366540  1
  Ca2+  Ca40  1  0.41130482  0.66139945  0.49622584  1
  Ca2+  Ca41  1  0.41643639  0.66749682  0.82666567  1
  Ca2+  Ca42  1  0.91892184  0.17998376  0.16272069  1
  Ca2+  Ca43  1  0.91980289  0.17538855  0.49884617  1
  Ca2+  Ca44  1  0.91571997  0.17719668  0.82267483  1
  Ca2+  Ca45  1  0.92909524  0.66249683  0.16139196  1
  Ca2+  Ca46  1  0.92821547  0.66270756  0.49534967  1
  Ca2+  Ca47  1  0.92412922  0.65764709  0.82928042  1
  Al0+  Al48  1  0.00006178  -0.00335257  0.00294064  1
  Al0+  Al49  1  -0.00135506  -0.00033228  0.32798461  1
  Al0+  Al50  1  -0.00073481  0.00040213  0.66994275  1
  Al0+  Al51  1  0.00253811  0.50083644  -0.00434038  1
  Al0+  Al52  1  -0.00010819  0.50092233  0.32852604  1
  Al0+  Al53  1  0.00116427  0.50047914  0.66660117  1
  Al0+  Al54  1  0.49904027  0.00017743  0.00416395  1
  Al0+  Al55  1  0.50131142  -0.00343616  0.33689189  1
  Al0+  Al56  1  0.49889569  -0.00072878  0.66220442  1
  Al0+  Al57  1  0.50106051  0.50073067  -0.00194146  1
  Al0+  Al58  1  0.50210398  0.49849157  0.33432997  1
  Al0+  Al59  1  0.49971479  0.50194223  0.66878597  1
  Al0+  Al60  1  0.24991599  0.25169718  0.00140228  1
  Al0+  Al61  1  0.25020510  0.25083607  0.34278399  1
  Al0+  Al62  1  0.25071608  0.25054523  0.66987939  1
  Al0+  Al63  1  0.24942702  0.75007292  -0.00422329  1
  Al0+  Al64  1  0.25126194  0.75211859  0.33155129  1
  Al0+  Al65  1  0.25008933  0.75189884  0.66487521  1
  Al0+  Al66  1  0.74941184  0.25030065  -0.00307216  1
  Al0+  Al67  1  0.75063171  0.24773875  0.32537913  1
  Al0+  Al68  1  0.74831973  0.24867544  0.66292893  1
  Al0+  Al69  1  0.75204479  0.75131361  0.00749259  1
  Al0+  Al70  1  0.74869516  0.75071668  0.33188844  1
  Al0+  Al71  1  0.74775575  0.74995251  0.67081169  1
  Al0+  Al72  1  0.57072118  0.17653532  0.31670851  1
  Al0+  Al73  1  0.31765832  0.07102162  0.01302701  1
  Al0+  Al74  1  0.67752151  0.42650093  0.01602301  1
  Al0+  Al75  1  0.42631012  0.32414301  0.98353485  1
  Al0+  Al76  1  0.32373397  0.57253846  0.34659274  1
  Al0+  Al77  1  0.56887529  0.17760503  0.98406659  1
  Al0+  Al78  1  0.32135382  0.07084155  0.34933356  1
  Al0+  Al79  1  0.93031140  0.31918020  0.98563253  1
  Al0+  Al80  1  0.07042748  0.68040723  0.65144838  1
  Al0+  Al81  1  0.32109162  0.57325732  0.68355838  1
  Al0+  Al82  1  0.82413484  0.56889582  0.01729536  1
  Al0+  Al83  1  0.07146012  0.67970660  0.31737977  1
  Al0+  Al84  1  0.92696002  0.82271156  0.31781736  1
  Al0+  Al85  1  0.82029334  0.07121480  0.67887240  1
  Al0+  Al86  1  0.17952178  0.42864777  0.68524650  1
  Al0+  Al87  1  0.07292593  0.17657556  0.65324639  1
  Al0+  Al88  1  0.42803196  0.32089767  0.32065118  1
  Al0+  Al89  1  0.17630207  0.43016626  0.34922112  1
  Al0+  Al90  1  0.82095567  0.57054320  0.67867765  1
  Al0+  Al91  1  0.93042150  0.32062767  0.31857050  1
  Al0+  Al92  1  0.56849233  0.17905168  0.65169033  1
  Al0+  Al93  1  0.07075213  0.68107967  0.98314021  1
  Al0+  Al94  1  0.92973259  0.32079354  0.65146742  1
  Al0+  Al95  1  0.68016382  0.93148557  0.01419691  1
  Si0+  Si96  1  0.17700714  0.92932862  0.34965588  1
  Si0+  Si97  1  0.57154684  0.67924236  0.65282844  1
  Si0+  Si98  1  0.57188121  0.67798770  0.31868226  1
  Si0+  Si99  1  0.32249060  0.07013104  0.68187942  1
  Si0+  Si100  1  0.57350615  0.67942280  0.98541537  1
  Si0+  Si101  1  0.68081122  0.42655945  0.34799799  1
  Si0+  Si102  1  0.82435265  0.07329895  0.01812023  1
  Si0+  Si103  1  0.07318038  0.17635585  0.31770155  1
  Si0+  Si104  1  0.92531927  0.82224806  0.65306494  1
  Si0+  Si105  1  0.32195387  0.57351974  0.01314019  1
  Si0+  Si106  1  0.81885127  0.57104097  0.34745153  1
  Si0+  Si107  1  0.18124640  0.43082896  0.01482381  1
  Si0+  Si108  1  0.42923479  0.82096615  0.65066495  1
  Si0+  Si109  1  0.42994214  0.82030406  0.31786090  1
  Si0+  Si110  1  0.17891972  0.92966183  0.68093175  1
  Si0+  Si111  1  0.17796165  0.92464066  0.01712256  1
  Si0+  Si112  1  0.67970411  0.92705081  0.35112313  1
  Si0+  Si113  1  0.82100434  0.07113106  0.34724944  1
  Si0+  Si114  1  0.67580234  0.92841824  0.68272607  1
  Si0+  Si115  1  0.92567137  0.82286811  0.98119103  1
  Si0+  Si116  1  0.42765405  0.32479688  0.64949855  1
  Si0+  Si117  1  0.07206025  0.17560783  0.98696776  1
  Si0+  Si118  1  0.43060125  0.81987280  0.98557735  1
  Si0+  Si119  1  0.67723617  0.42694220  0.68149064  1
  O2-  O120  1  0.23954247  -0.00030070  0.06065083  1
  O2-  O121  1  0.24243303  -0.00002115  0.39619235  1
  O2-  O122  1  0.24554403  0.00500451  0.72368865  1
  O2-  O123  1  0.25632103  0.49853267  0.05542918  1
  O2-  O124  1  0.25051923  0.50226480  0.39642146  1
  O2-  O125  1  0.25233023  0.50034478  0.73593357  1
  O2-  O126  1  0.75405046  0.00592491  0.06258569  1
  O2-  O127  1  0.75065894  -0.00113911  0.39037645  1
  O2-  O128  1  0.74492882  -0.00340820  0.72542751  1
  O2-  O129  1  0.75220995  0.49620124  0.06674699  1
  O2-  O130  1  0.75194555  0.49702975  0.39135397  1
  O2-  O131  1  0.74847740  0.49346594  0.72461783  1
  O2-  O132  1  0.00864941  0.24857185  0.27313064  1
  O2-  O133  1  0.00318896  0.24961766  0.60172459  1
  O2-  O134  1  -0.00101466  0.23782653  0.94156442  1
  O2-  O135  1  -0.00187778  0.75068582  0.26742654  1
  O2-  O136  1  -0.00855041  0.75231297  0.60742683  1
  O2-  O137  1  -0.00548356  0.75496185  0.93680307  1
  O2-  O138  1  0.49587389  0.24608619  0.26890354  1
  O2-  O139  1  0.49531280  0.25497893  0.60550671  1
  O2-  O140  1  0.50046207  0.25340274  0.93447480  1
  O2-  O141  1  0.49587893  0.74417934  0.27683618  1
  O2-  O142  1  0.49790072  0.74710360  0.60943280  1
  O2-  O143  1  0.50126945  0.74929655  0.94228322  1
  O2-  O144  1  0.07316771  0.17775819  0.09262992  1
  O2-  O145  1  0.06802652  0.17063648  0.42269724  1
  O2-  O146  1  0.07018287  0.17511333  0.76711651  1
  O2-  O147  1  0.07410846  0.68289944  0.09582738  1
  O2-  O148  1  0.06977408  0.68053542  0.43094481  1
  O2-  O149  1  0.07127019  0.68320452  0.76454071  1
  O2-  O150  1  0.56281296  0.17487076  0.09717220  1
  O2-  O151  1  0.57199026  0.17849746  0.43067057  1
  O2-  O152  1  0.56595618  0.17517317  0.76423947  1
  O2-  O153  1  0.57069111  0.68053515  0.09081893  1
  O2-  O154  1  0.57574247  0.68166447  0.42396823  1
  O2-  O155  1  0.57262801  0.68288261  0.75764898  1
  O2-  O156  1  0.17600194  0.43265358  0.23493074  1
  O2-  O157  1  0.17909906  0.43102566  0.57204197  1
  O2-  O158  1  0.18034565  0.43082395  0.91010444  1
  O2-  O159  1  0.18104501  0.92917517  0.24405814  1
  O2-  O160  1  0.18209920  0.92796507  0.57600191  1
  O2-  O161  1  0.18196799  0.92243229  0.91127634  1
  O2-  O162  1  0.68015919  0.42936859  0.24339314  1
  O2-  O163  1  0.67576125  0.43065947  0.57532357  1
  O2-  O164  1  0.67602900  0.43119951  0.90228440  1
  O2-  O165  1  0.67787735  0.92477082  0.24634714  1
  O2-  O166  1  0.67464367  0.92602699  0.57713433  1
  O2-  O167  1  0.68021957  0.93120320  0.90095898  1
  O2-  O168  1  0.42298189  0.32293866  0.09685645  1
  O2-  O169  1  0.43281007  0.32096792  0.43432730  1
  O2-  O170  1  0.42954001  0.32402860  0.75509407  1
  O2-  O171  1  0.43047473  0.81812080  0.09072158  1
  O2-  O172  1  0.43267334  0.82304317  0.42314878  1
  O2-  O173  1  0.43091268  0.82431197  0.75587364  1
  O2-  O174  1  0.93413076  0.31997761  0.09894157  1
  O2-  O175  1  0.92700306  0.31949742  0.43112771  1
  O2-  O176  1  0.92953907  0.31941930  0.76496644  1
  O2-  O177  1  0.92676665  0.82329186  0.08653636  1
  O2-  O178  1  0.92738160  0.82205749  0.43182997  1
  O2-  O179  1  0.92653449  0.82252371  0.75851254  1
  O2-  O180  1  0.32211336  0.06769780  0.23613893  1
  O2-  O181  1  0.32534715  0.06515319  0.57700472  1
  O2-  O182  1  0.31750214  0.06703175  0.89944708  1
  O2-  O183  1  0.32347622  0.57269847  0.23238785  1
  O2-  O184  1  0.32087466  0.57357696  0.57046254  1
  O2-  O185  1  0.31954620  0.57763708  0.90849508  1
  O2-  O186  1  0.82018564  0.07031617  0.24234450  1
  O2-  O187  1  0.81970794  0.06863527  0.56540564  1
  O2-  O188  1  0.82612210  0.06987832  0.91254376  1
  O2-  O189  1  0.81579341  0.57190051  0.24277260  1
  O2-  O190  1  0.81731694  0.57296476  0.56497112  1
  O2-  O191  1  0.82238948  0.56825676  0.90346609  1
  O2-  O192  1  0.04620709  0.08491996  0.26747787  1
  O2-  O193  1  0.04461682  0.07748692  0.60075172  1
  O2-  O194  1  0.05511675  0.07801594  0.94489220  1
  O2-  O195  1  0.04145573  0.58328516  0.26249742  1
  O2-  O196  1  0.04021314  0.58422463  0.59840168  1
  O2-  O197  1  0.04018723  0.58522904  0.92884147  1
  O2-  O198  1  0.54589181  0.07463965  0.27008679  1
  O2-  O199  1  0.53726676  0.08224786  0.59689625  1
  O2-  O200  1  0.53553378  0.07948758  0.93167120  1
  O2-  O201  1  0.54925862  0.58530172  0.27152279  1
  O2-  O202  1  0.54764056  0.58687648  0.60454066  1
  O2-  O203  1  0.54721447  0.58878734  0.93618142  1
  O2-  O204  1  0.16935951  0.19891171  0.27717046  1
  O2-  O205  1  0.17432132  0.19964878  0.60420046  1
  O2-  O206  1  0.16377633  0.20545883  0.94013191  1
  O2-  O207  1  0.16999149  0.71052258  0.26512230  1
  O2-  O208  1  0.16576662  0.71633773  0.59840318  1
  O2-  O209  1  0.16657596  0.71470151  0.92797703  1
  O2-  O210  1  0.66776437  0.20476985  0.26266316  1
  O2-  O211  1  0.66487788  0.20779021  0.59669763  1
  O2-  O212  1  0.66957595  0.20003903  0.93382367  1
  O2-  O213  1  0.65991980  0.71232126  0.26867219  1
  O2-  O214  1  0.66151191  0.71061850  0.60260429  1
  O2-  O215  1  0.66505859  0.71076975  0.94005712  1
  O2-  O216  1  0.09141018  0.46426359  0.06173354  1
  O2-  O217  1  0.07792713  0.46237605  0.40114847  1
  O2-  O218  1  0.08154520  0.45977852  0.73702428  1
  O2-  O219  1  0.08162135  0.94056405  0.06083231  1
  O2-  O220  1  0.08121982  0.95096731  0.39277382  1
  O2-  O221  1  0.08630206  0.95054961  0.72954657  1
  O2-  O222  1  0.58013327  0.46115273  0.06916196  1
  O2-  O223  1  0.59040974  0.45578226  0.39724081  1
  O2-  O224  1  0.58538486  0.45594323  0.72870099  1
  O2-  O225  1  0.58303100  0.95882803  0.06968832  1
  O2-  O226  1  0.58828427  0.95245668  0.40078280  1
  O2-  O227  1  0.58196117  0.95510867  0.72827837  1
  O2-  O228  1  0.20395278  0.33828047  0.06294800  1
  O2-  O229  1  0.19982009  0.33159912  0.40384959  1
  O2-  O230  1  0.20671433  0.32928703  0.73871801  1
  O2-  O231  1  0.21303739  0.83470643  0.06482339  1
  O2-  O232  1  0.20737668  0.83740936  0.39664651  1
  O2-  O233  1  0.21359228  0.84109840  0.73059425  1
  O2-  O234  1  0.70260088  0.32678395  0.06719719  1
  O2-  O235  1  0.70939049  0.33381783  0.39291759  1
  O2-  O236  1  0.69903612  0.33232537  0.72531589  1
  O2-  O237  1  0.70892319  0.83538105  0.07117854  1
  O2-  O238  1  0.70736115  0.83538180  0.40038104  1
  O2-  O239  1  0.69866156  0.83496546  0.73039603  1
  O2-  O240  1  0.45882690  0.41892980  0.26760858  1
  O2-  O241  1  0.45335639  0.41908167  0.60488834  1
  O2-  O242  1  0.45259497  0.42365050  0.93107923  1
  O2-  O243  1  0.46489195  0.90892084  0.26908942  1
  O2-  O244  1  0.46073479  0.90976234  0.59922784  1
  O2-  O245  1  0.45960755  0.91079480  0.93764461  1
  O2-  O246  1  0.95805717  0.41729624  0.26351018  1
  O2-  O247  1  0.95809768  0.41925896  0.59888294  1
  O2-  O248  1  0.96706859  0.41351298  0.93196676  1
  O2-  O249  1  0.95367116  0.92041940  0.26191478  1
  O2-  O250  1  0.95317501  0.91503832  0.60708489  1
  O2-  O251  1  0.95105251  0.91751832  0.93592832  1
  O2-  O252  1  0.32695430  0.29566264  0.27202390  1
  O2-  O253  1  0.33335676  0.29932513  0.60647761  1
  O2-  O254  1  0.32869243  0.29149545  0.93059782  1
  O2-  O255  1  0.33744902  0.80022832  0.26893515  1
  O2-  O256  1  0.33763207  0.79658433  0.60194077  1
  O2-  O257  1  0.33956307  0.79277461  0.93614817  1
  O2-  O258  1  0.83648416  0.28600978  0.26206120  1
  O2-  O259  1  0.83099904  0.29281438  0.59900073  1
  O2-  O260  1  0.83186908  0.29580277  0.93281221  1
  O2-  O261  1  0.82731556  0.79580346  0.26652975  1
  O2-  O262  1  0.82968860  0.80058411  0.60871407  1
  O2-  O263  1  0.83099633  0.79885176  0.93711018  1
  O2-  O264  1  0.41087152  0.03335740  0.06804648  1
  O2-  O265  1  0.41578357  0.03140171  0.40339689  1
  O2-  O266  1  0.41122922  0.03288276  0.72960849  1
  O2-  O267  1  0.41653788  0.55362105  0.05767328  1
  O2-  O268  1  0.42372853  0.54705710  0.39947127  1
  O2-  O269  1  0.42263916  0.55105832  0.73430226  1
  O2-  O270  1  0.91754404  0.04587102  0.06555286  1
  O2-  O271  1  0.91338748  0.04336086  0.39379304  1
  O2-  O272  1  0.91547391  0.04025179  0.73624588  1
  O2-  O273  1  0.92319971  0.53925710  0.06797563  1
  O2-  O274  1  0.91213343  0.54568805  0.39180405  1
  O2-  O275  1  0.91726729  0.54216573  0.73239617  1
  O2-  O276  1  0.28818062  0.16749483  0.06816191  1
  O2-  O277  1  0.29582282  0.16667083  0.40606269  1
  O2-  O278  1  0.30243652  0.16342510  0.72855521  1
  O2-  O279  1  0.29091442  0.66463949  0.06101787  1
  O2-  O280  1  0.30065441  0.67431466  0.39607112  1
  O2-  O281  1  0.29406663  0.67389570  0.73396692  1
  O2-  O282  1  0.80099972  0.16779611  0.06166608  1
  O2-  O283  1  0.79098094  0.16237887  0.39439039  1
  O2-  O284  1  0.78785195  0.16711046  0.73275002  1
  O2-  O285  1  0.79559555  0.66759232  0.06918311  1
  O2-  O286  1  0.78671933  0.66177578  0.39491201  1
  O2-  O287  1  0.78756592  0.66605266  0.73421156  1
