# generated using pymatgen
data_Ca2Al2SiO7
_symmetry_space_group_name_H-M   'P 1'
_cell_length_a   15.46488633
_cell_length_b   15.46560529
_cell_length_c   15.28766108
_cell_angle_alpha   90.01357685
_cell_angle_beta   90.00190050
_cell_angle_gamma   90.00273844
_symmetry_Int_Tables_number   1
_chemical_formula_structural   Ca2Al2SiO7
_chemical_formula_sum   'Ca48 Al48 Si24 O168'
_cell_volume   3656.40830905
_cell_formula_units_Z   24
loop_
 _symmetry_equiv_pos_site_id
 _symmetry_equiv_pos_as_xyz
  1  'x, y, z'
loop_
 _atom_type_symbol
 _atom_type_oxidation_number
  Ca2+  2.0
  Al0+  0.0
  Si0+  0.0
  O2-  -2.0
loop_
 _atom_site_type_symbol
 _atom_site_label
 _atom_site_symmetry_multiplicity
 _atom_site_fract_x
 _atom_site_fract_y
 _atom_site_fract_z
 _atom_site_occupancy
  Ca2+  Ca0  1  0.16223853  0.07922221  0.16978110  1
  Ca2+  Ca1  1  0.16994655  0.08128612  0.50204951  1
  Ca2+  Ca2  1  0.17911822  0.08240794  0.84241607  1
  Ca2+  Ca3  1  0.16956138  0.58514445  0.17039829  1
  Ca2+  Ca4  1  0.16988393  0.57727038  0.50664643  1
  Ca2+  Ca5  1  0.17844310  0.57841404  0.83457909  1
  Ca2+  Ca6  1  0.67050994  0.07849081  0.17130617  1
  Ca2+  Ca7  1  0.65953467  0.07650444  0.49856564  1
  Ca2+  Ca8  1  0.66834364  0.07179033  0.84194195  1
  Ca2+  Ca9  1  0.66733029  0.57512774  0.16814715  1
  Ca2+  Ca10  1  0.66862520  0.57576419  0.50540634  1
  Ca2+  Ca11  1  0.66160355  0.56911500  0.83704493  1
  Ca2+  Ca12  1  0.07293467  0.31961769  0.16110218  1
  Ca2+  Ca13  1  0.08324826  0.32845560  0.48955059  1
  Ca2+  Ca14  1  0.08384741  0.32983500  0.83158183  1
  Ca2+  Ca15  1  0.08963313  0.83384655  0.16408498  1
  Ca2+  Ca16  1  0.08049900  0.82675216  0.48551153  1
  Ca2+  Ca17  1  0.08710457  0.83731385  0.83329560  1
  Ca2+  Ca18  1  0.58283121  0.32733929  0.16467898  1
  Ca2+  Ca19  1  0.57237029  0.33137737  0.49355279  1
  Ca2+  Ca20  1  0.57994213  0.33404958  0.82637960  1
  Ca2+  Ca21  1  0.57926021  0.84269313  0.16549343  1
  Ca2+  Ca22  1  0.57321352  0.84204664  0.49557715  1
  Ca2+  Ca23  1  0.57977372  0.83646165  0.82456029  1
  Ca2+  Ca24  1  0.33877430  0.42388954  0.17118109  1
  Ca2+  Ca25  1  0.33155975  0.41871046  0.51066997  1
  Ca2+  Ca26  1  0.33431288  0.42337213  0.83420648  1
  Ca2+  Ca27  1  0.32453969  0.92260255  0.17077937  1
  Ca2+  Ca28  1  0.33389388  0.92003436  0.50309083  1
  Ca2+  Ca29  1  0.33451577  0.92830918  0.83859213  1
  Ca2+  Ca30  1  0.83359034  0.40560139  0.16820474  1
  Ca2+  Ca31  1  0.83043283  0.41398928  0.50417379  1
  Ca2+  Ca32  1  0.82201963  0.40935314  0.84030482  1
  Ca2+  Ca33  1  0.82613267  0.91888747  0.17394438  1
  Ca2+  Ca34  1  0.82293449  0.91150371  0.50196277  1
  Ca2+  Ca35  1  0.82184167  0.92217224  0.84207588  1
  Ca2+  Ca36  1  0.41947228  0.16687888  0.16597262  1
  Ca2+  Ca37  1  0.41697413  0.17636802  0.49478616  1
  Ca2+  Ca38  1  0.41477244  0.16637908  0.82455312  1
  Ca2+  Ca39  1  0.41306908  0.67414038  0.16370327  1
  Ca2+  Ca40  1  0.41168251  0.67814734  0.49779232  1
  Ca2+  Ca41  1  0.41168589  0.67132289  0.82723618  1
  Ca2+  Ca42  1  0.92365430  0.16600299  0.15851757  1
  Ca2+  Ca43  1  0.92549374  0.17416828  0.48936304  1
  Ca2+  Ca44  1  0.91952359  0.16279673  0.83892719  1
  Ca2+  Ca45  1  0.92137741  0.67362124  0.16882654  1
  Ca2+  Ca46  1  0.92486368  0.67189813  0.48881671  1
  Ca2+  Ca47  1  0.91829953  0.66867020  0.83057395  1
  Al0+  Al48  1  -0.00045788  -0.00092079  -0.00071035  1
  Al0+  Al49  1  -0.00152644  -0.00055654  0.33368127  1
  Al0+  Al50  1  -0.00124923  0.00011250  0.66458513  1
  Al0+  Al51  1  -0.00066168  0.50158728  -0.00631162  1
  Al0+  Al52  1  0.00097837  0.50103605  0.32601320  1
  Al0+  Al53  1  0.00004843  0.50002373  0.67047788  1
  Al0+  Al54  1  0.49743265  0.00079034  0.00536289  1
  Al0+  Al55  1  0.49967177  0.00112391  0.32949729  1
  Al0+  Al56  1  0.50023984  -0.00055297  0.66954305  1
  Al0+  Al57  1  0.50123271  0.50135954  0.00830201  1
  Al0+  Al58  1  0.50047503  0.50234600  0.33299604  1
  Al0+  Al59  1  0.50116594  0.50105445  0.66909444  1
  Al0+  Al60  1  0.24998358  0.25270188  -0.00010710  1
  Al0+  Al61  1  0.25004651  0.25261393  0.32505028  1
  Al0+  Al62  1  0.24982698  0.24918434  0.66930962  1
  Al0+  Al63  1  0.25151692  0.74954730  0.00388907  1
  Al0+  Al64  1  0.25156315  0.75131252  0.33020787  1
  Al0+  Al65  1  0.24891816  0.74946020  0.66456887  1
  Al0+  Al66  1  0.74804997  0.24804369  0.00278841  1
  Al0+  Al67  1  0.74718058  0.24927732  0.33133279  1
  Al0+  Al68  1  0.75253427  0.24807423  0.66899073  1
  Al0+  Al69  1  0.74876395  0.74581310  0.00107565  1
  Al0+  Al70  1  0.75026013  0.74757979  0.33540988  1
  Al0+  Al71  1  0.74992995  0.74943974  0.66994583  1
  Al0+  Al72  1  0.92681273  0.82088372  0.31893626  1
  Al0+  Al73  1  0.07266105  0.68002506  0.31744870  1
  Al0+  Al74  1  0.32020808  0.56914938  0.01549100  1
  Al0+  Al75  1  0.67772155  0.92556814  0.01574690  1
  Al0+  Al76  1  0.92827652  0.32171479  0.32032658  1
  Al0+  Al77  1  0.43017925  0.82121868  0.31845220  1
  Al0+  Al78  1  0.92744631  0.32019769  0.98173490  1
  Al0+  Al79  1  0.42963067  0.32130775  0.65554750  1
  Al0+  Al80  1  0.31991415  0.06985629  0.67686859  1
  Al0+  Al81  1  0.67900013  0.92831838  0.34902685  1
  Al0+  Al82  1  0.68033213  0.42800543  0.67828942  1
  Al0+  Al83  1  0.07169711  0.17715004  0.31899324  1
  Al0+  Al84  1  0.17843160  0.92968794  0.34814802  1
  Al0+  Al85  1  0.32148791  0.07592006  0.01676683  1
  Al0+  Al86  1  0.67968568  0.93002115  0.67981567  1
  Al0+  Al87  1  0.68060127  0.42881681  0.01534915  1
  Al0+  Al88  1  0.81971554  0.06908314  0.01575575  1
  Al0+  Al89  1  0.17743203  0.42714859  0.68110877  1
  Al0+  Al90  1  0.32117218  0.57275687  0.68003795  1
  Al0+  Al91  1  0.42926091  0.82155851  0.65415918  1
  Al0+  Al92  1  0.07235877  0.17688311  0.98135494  1
  Al0+  Al93  1  0.56938272  0.17900650  0.31795036  1
  Al0+  Al94  1  0.18017870  0.92996717  0.01343916  1
  Al0+  Al95  1  0.42841815  0.32439414  0.31756013  1
  Si0+  Si96  1  0.82548249  0.07143756  0.68364873  1
  Si0+  Si97  1  0.92867973  0.32133442  0.65238393  1
  Si0+  Si98  1  0.57384619  0.67796425  0.65031132  1
  Si0+  Si99  1  0.82439704  0.57183249  0.01775965  1
  Si0+  Si100  1  0.17975120  0.43106239  0.34542009  1
  Si0+  Si101  1  0.82256981  0.57180635  0.68366057  1
  Si0+  Si102  1  0.57284082  0.67746075  0.31663639  1
  Si0+  Si103  1  0.06974204  0.67885529  0.65240925  1
  Si0+  Si104  1  0.92780504  0.82076029  0.65260150  1
  Si0+  Si105  1  0.32095256  0.07414607  0.35021883  1
  Si0+  Si106  1  0.07133920  0.17884013  0.65156560  1
  Si0+  Si107  1  0.57089618  0.67725296  0.98467958  1
  Si0+  Si108  1  0.17586362  0.92769881  0.68036986  1
  Si0+  Si109  1  0.43055377  0.32485705  0.98486155  1
  Si0+  Si110  1  0.82223396  0.56890757  0.34819680  1
  Si0+  Si111  1  0.56791592  0.17867625  0.98376675  1
  Si0+  Si112  1  0.07337415  0.68033185  0.98154086  1
  Si0+  Si113  1  0.32258421  0.57208902  0.34982157  1
  Si0+  Si114  1  0.67828705  0.42814742  0.34957298  1
  Si0+  Si115  1  0.57409360  0.17754086  0.65199083  1
  Si0+  Si116  1  0.92701041  0.81935192  0.98385265  1
  Si0+  Si117  1  0.17538068  0.42933646  0.01798553  1
  Si0+  Si118  1  0.43016980  0.82001697  0.98462457  1
  Si0+  Si119  1  0.82119942  0.07354986  0.35194737  1
  O2-  O120  1  0.24549784  0.00708540  0.06442359  1
  O2-  O121  1  0.25119840  0.00635545  0.39502696  1
  O2-  O122  1  0.24601145  -0.00558345  0.72371765  1
  O2-  O123  1  0.24606347  0.49513523  0.06362081  1
  O2-  O124  1  0.25244335  0.49943566  0.39011114  1
  O2-  O125  1  0.25229038  0.49744467  0.72965211  1
  O2-  O126  1  0.75076964  -0.00494113  0.06646149  1
  O2-  O127  1  0.75467935  0.00231132  0.39651910  1
  O2-  O128  1  0.75412668  0.00448357  0.72583795  1
  O2-  O129  1  0.76058308  0.49851644  0.06144080  1
  O2-  O130  1  0.75289713  0.49620558  0.39100992  1
  O2-  O131  1  0.75462066  0.50239196  0.72696682  1
  O2-  O132  1  -0.00485415  0.24540350  0.27105758  1
  O2-  O133  1  0.00165512  0.25238942  0.61040308  1
  O2-  O134  1  0.00133366  0.25054958  0.93059880  1
  O2-  O135  1  0.00467877  0.75606311  0.26733867  1
  O2-  O136  1  -0.00017711  0.75092144  0.61049200  1
  O2-  O137  1  0.00088967  0.75089736  0.94014820  1
  O2-  O138  1  0.49854560  0.25158869  0.26683933  1
  O2-  O139  1  0.50673854  0.24853211  0.60923753  1
  O2-  O140  1  0.49587157  0.24894559  0.94140636  1
  O2-  O141  1  0.50716409  0.74841388  0.27206439  1
  O2-  O142  1  0.50471278  0.74667029  0.60717001  1
  O2-  O143  1  0.50487047  0.75261361  0.94227560  1
  O2-  O144  1  0.06998904  0.17752045  0.09451727  1
  O2-  O145  1  0.07313728  0.18174622  0.43374364  1
  O2-  O146  1  0.06979514  0.17632327  0.75605349  1
  O2-  O147  1  0.07367874  0.67990016  0.08620759  1
  O2-  O148  1  0.06945225  0.67708701  0.43174404  1
  O2-  O149  1  0.06888533  0.67966952  0.75765436  1
  O2-  O150  1  0.56792904  0.17967093  0.08849844  1
  O2-  O151  1  0.56826772  0.18132343  0.43232966  1
  O2-  O152  1  0.57391137  0.17768230  0.75782779  1
  O2-  O153  1  0.56962364  0.67482648  0.08960098  1
  O2-  O154  1  0.57110855  0.67345157  0.42226994  1
  O2-  O155  1  0.57589737  0.67868967  0.75601166  1
  O2-  O156  1  0.17995703  0.43460259  0.24067165  1
  O2-  O157  1  0.17493706  0.42948707  0.56696042  1
  O2-  O158  1  0.17679001  0.43210904  0.91216529  1
  O2-  O159  1  0.18181059  0.92824028  0.23567917  1
  O2-  O160  1  0.17336434  0.92902794  0.57499575  1
  O2-  O161  1  0.18536448  0.92671026  0.89909424  1
  O2-  O162  1  0.67692558  0.43109963  0.24472452  1
  O2-  O163  1  0.68310864  0.42980722  0.56499940  1
  O2-  O164  1  0.67806330  0.43176697  0.90186837  1
  O2-  O165  1  0.68087682  0.92824805  0.23656534  1
  O2-  O166  1  0.68035131  0.93016745  0.56684260  1
  O2-  O167  1  0.67836306  0.92677693  0.90152012  1
  O2-  O168  1  0.43544231  0.32740345  0.08962832  1
  O2-  O169  1  0.42919038  0.32594161  0.43167173  1
  O2-  O170  1  0.43168412  0.32044796  0.76884270  1
  O2-  O171  1  0.42985858  0.81740482  0.08959973  1
  O2-  O172  1  0.43019182  0.81975186  0.43202496  1
  O2-  O173  1  0.43067053  0.82116193  0.76744281  1
  O2-  O174  1  0.92971191  0.31923832  0.09493417  1
  O2-  O175  1  0.93157221  0.32302651  0.43500104  1
  O2-  O176  1  0.92639545  0.32043062  0.75680959  1
  O2-  O177  1  0.92488912  0.81543775  0.08825767  1
  O2-  O178  1  0.92608645  0.81447774  0.43334034  1
  O2-  O179  1  0.92782950  0.81954106  0.75789050  1
  O2-  O180  1  0.32068805  0.07271242  0.24497504  1
  O2-  O181  1  0.31851170  0.07082469  0.56389802  1
  O2-  O182  1  0.32482365  0.07103802  0.90260150  1
  O2-  O183  1  0.32351109  0.57116539  0.24464024  1
  O2-  O184  1  0.31709866  0.57449378  0.56635509  1
  O2-  O185  1  0.31994366  0.56993498  0.90244592  1
  O2-  O186  1  0.81888717  0.07440024  0.24683978  1
  O2-  O187  1  0.83010844  0.07101119  0.57846713  1
  O2-  O188  1  0.81610209  0.06678877  0.90135413  1
  O2-  O189  1  0.82045494  0.57028264  0.24341973  1
  O2-  O190  1  0.82378670  0.57203716  0.57791331  1
  O2-  O191  1  0.82139328  0.57547539  0.91194208  1
  O2-  O192  1  0.04675883  0.07781402  0.26854073  1
  O2-  O193  1  0.04132157  0.08752506  0.60307540  1
  O2-  O194  1  0.04303070  0.07789184  0.92820163  1
  O2-  O195  1  0.03991765  0.58499054  0.26104829  1
  O2-  O196  1  0.04054814  0.58692522  0.60536029  1
  O2-  O197  1  0.04543630  0.58951683  0.93205950  1
  O2-  O198  1  0.54227699  0.08206182  0.26304325  1
  O2-  O199  1  0.54541294  0.08506714  0.60604968  1
  O2-  O200  1  0.53990590  0.08595304  0.93703583  1
  O2-  O201  1  0.54423691  0.58590678  0.26804129  1
  O2-  O202  1  0.54956742  0.58431703  0.60399219  1
  O2-  O203  1  0.53740483  0.58697446  0.93703763  1
  O2-  O204  1  0.16713354  0.20849007  0.26362689  1
  O2-  O205  1  0.16300733  0.20529829  0.60407880  1
  O2-  O206  1  0.17229666  0.20698861  0.93031468  1
  O2-  O207  1  0.17139687  0.70471757  0.26491861  1
  O2-  O208  1  0.16104155  0.70442769  0.60351987  1
  O2-  O209  1  0.16486270  0.71079535  0.93446942  1
  O2-  O210  1  0.66701491  0.20747912  0.26441180  1
  O2-  O211  1  0.66909179  0.19979318  0.60673350  1
  O2-  O212  1  0.65957870  0.20659559  0.93662523  1
  O2-  O213  1  0.66761754  0.69831476  0.27204876  1
  O2-  O214  1  0.66829635  0.70233246  0.60427605  1
  O2-  O215  1  0.66458816  0.69773047  0.93698891  1
  O2-  O216  1  0.08211065  0.45944245  0.06129889  1
  O2-  O217  1  0.08802626  0.46098690  0.39270741  1
  O2-  O218  1  0.08062593  0.45835143  0.73634655  1
  O2-  O219  1  0.07863560  0.94843225  0.06223787  1
  O2-  O220  1  0.07946445  0.95441027  0.40183891  1
  O2-  O221  1  0.08231802  0.95368996  0.72702991  1
  O2-  O222  1  0.58827318  0.46649238  0.07216631  1
  O2-  O223  1  0.58827962  0.46213996  0.39757692  1
  O2-  O224  1  0.58521795  0.45962810  0.73442665  1
  O2-  O225  1  0.58009448  0.95598666  0.06679299  1
  O2-  O226  1  0.58162071  0.96246056  0.40083909  1
  O2-  O227  1  0.58431179  0.96022498  0.73565149  1
  O2-  O228  1  0.19745593  0.33476744  0.06168752  1
  O2-  O229  1  0.20536836  0.33803104  0.39177801  1
  O2-  O230  1  0.20396143  0.32950293  0.73479468  1
  O2-  O231  1  0.21306202  0.83350856  0.06741580  1
  O2-  O232  1  0.21181484  0.83226803  0.40089775  1
  O2-  O233  1  0.19836333  0.83311539  0.72485313  1
  O2-  O234  1  0.70607686  0.33155887  0.06871748  1
  O2-  O235  1  0.70140769  0.33545899  0.39686867  1
  O2-  O236  1  0.71049612  0.33143248  0.73288141  1
  O2-  O237  1  0.70210794  0.82488978  0.06512795  1
  O2-  O238  1  0.70847024  0.83009637  0.40219623  1
  O2-  O239  1  0.70932069  0.83277109  0.73376888  1
  O2-  O240  1  0.45988133  0.42252525  0.26578150  1
  O2-  O241  1  0.45862203  0.41913792  0.60230599  1
  O2-  O242  1  0.46509307  0.41538522  0.93842476  1
  O2-  O243  1  0.45877523  0.91718856  0.26416557  1
  O2-  O244  1  0.46163325  0.91760274  0.59962378  1
  O2-  O245  1  0.45499859  0.91379215  0.93944639  1
  O2-  O246  1  0.95778896  0.41770785  0.26457105  1
  O2-  O247  1  0.95255163  0.41556889  0.60736369  1
  O2-  O248  1  0.95155141  0.42136981  0.93014759  1
  O2-  O249  1  0.94452910  0.92219691  0.27097575  1
  O2-  O250  1  0.95266197  0.91307930  0.60505219  1
  O2-  O251  1  0.95196730  0.91104644  0.93536182  1
  O2-  O252  1  0.33065287  0.30084311  0.26268487  1
  O2-  O253  1  0.33270101  0.29008505  0.60173917  1
  O2-  O254  1  0.33536347  0.30622387  0.94096564  1
  O2-  O255  1  0.33617907  0.78712119  0.26286734  1
  O2-  O256  1  0.33216088  0.79133357  0.59963377  1
  O2-  O257  1  0.33983962  0.78683238  0.93757696  1
  O2-  O258  1  0.82732370  0.30006626  0.27185980  1
  O2-  O259  1  0.83776035  0.29180537  0.60319218  1
  O2-  O260  1  0.82769078  0.28919323  0.93148632  1
  O2-  O261  1  0.83146054  0.78381364  0.26539681  1
  O2-  O262  1  0.83636740  0.79084167  0.60544158  1
  O2-  O263  1  0.83643936  0.78645195  0.93509909  1
  O2-  O264  1  0.41683794  0.04248911  0.07151688  1
  O2-  O265  1  0.41434950  0.04638288  0.39511882  1
  O2-  O266  1  0.41570440  0.04032433  0.73317848  1
  O2-  O267  1  0.41557096  0.53968274  0.07184956  1
  O2-  O268  1  0.41501033  0.54628576  0.39724749  1
  O2-  O269  1  0.42085190  0.54987792  0.73228427  1
  O2-  O270  1  0.91909808  0.04294622  0.06555421  1
  O2-  O271  1  0.91583557  0.05183169  0.39761999  1
  O2-  O272  1  0.91702853  0.04173393  0.73240894  1
  O2-  O273  1  0.92055584  0.55290318  0.06034992  1
  O2-  O274  1  0.91491680  0.54189706  0.39508593  1
  O2-  O275  1  0.91564987  0.54822855  0.73132357  1
  O2-  O276  1  0.30134764  0.17730167  0.06605646  1
  O2-  O277  1  0.29583900  0.16986089  0.39321511  1
  O2-  O278  1  0.28968214  0.16460690  0.73379734  1
  O2-  O279  1  0.28841594  0.66478512  0.06979019  1
  O2-  O280  1  0.29319902  0.66356522  0.39595587  1
  O2-  O281  1  0.28753504  0.66945704  0.73468666  1
  O2-  O282  1  0.78966036  0.16611845  0.06852076  1
  O2-  O283  1  0.79173047  0.16635082  0.39948078  1
  O2-  O284  1  0.80268442  0.16536032  0.72972225  1
  O2-  O285  1  0.79286301  0.66220563  0.06646523  1
  O2-  O286  1  0.79272333  0.65857544  0.39924504  1
  O2-  O287  1  0.79714741  0.66477720  0.73126835  1
