# generated using pymatgen
data_Ca2Al2SiO7
_symmetry_space_group_name_H-M   'P 1'
_cell_length_a   15.45775421
_cell_length_b   15.45973609
_cell_length_c   15.28392580
_cell_angle_alpha   89.99610372
_cell_angle_beta   89.99292247
_cell_angle_gamma   89.99493683
_symmetry_Int_Tables_number   1
_chemical_formula_structural   Ca2Al2SiO7
_chemical_formula_sum   'Ca48 Al48 Si24 O168'
_cell_volume   3652.44250334
_cell_formula_units_Z   24
loop_
 _symmetry_equiv_pos_site_id
 _symmetry_equiv_pos_as_xyz
  1  'x, y, z'
loop_
 _atom_type_symbol
 _atom_type_oxidation_number
  Ca2+  2.0
  Al0+  0.0
  Si0+  0.0
  O2-  -2.0
loop_
 _atom_site_type_symbol
 _atom_site_label
 _atom_site_symmetry_multiplicity
 _atom_site_fract_x
 _atom_site_fract_y
 _atom_site_fract_z
 _atom_site_occupancy
  Ca2+  Ca0  1  0.16422319  0.08852267  0.17152160  1
  Ca2+  Ca1  1  0.17265608  0.08617087  0.50422114  1
  Ca2+  Ca2  1  0.17315437  0.08769153  0.83700892  1
  Ca2+  Ca3  1  0.17330881  0.56691596  0.16890492  1
  Ca2+  Ca4  1  0.16480976  0.57801089  0.50360327  1
  Ca2+  Ca5  1  0.17171319  0.57768657  0.84247481  1
  Ca2+  Ca6  1  0.67552146  0.08634529  0.17212608  1
  Ca2+  Ca7  1  0.67131214  0.08302113  0.50667872  1
  Ca2+  Ca8  1  0.67430436  0.09255947  0.83622323  1
  Ca2+  Ca9  1  0.67194547  0.58336770  0.17201590  1
  Ca2+  Ca10  1  0.66714759  0.57654591  0.49685439  1
  Ca2+  Ca11  1  0.67159710  0.58450765  0.84260874  1
  Ca2+  Ca12  1  0.08798050  0.32560499  0.16355039  1
  Ca2+  Ca13  1  0.07718059  0.32906833  0.49337543  1
  Ca2+  Ca14  1  0.07842265  0.33302727  0.83249991  1
  Ca2+  Ca15  1  0.07872092  0.82998407  0.16249232  1
  Ca2+  Ca16  1  0.07895912  0.82838340  0.50088684  1
  Ca2+  Ca17  1  0.07664653  0.82354293  0.82327170  1
  Ca2+  Ca18  1  0.57599973  0.33831593  0.16098386  1
  Ca2+  Ca19  1  0.57486321  0.33046501  0.49571516  1
  Ca2+  Ca20  1  0.57496346  0.32564436  0.82830195  1
  Ca2+  Ca21  1  0.58465998  0.83160083  0.16552710  1
  Ca2+  Ca22  1  0.57481387  0.84112781  0.49458886  1
  Ca2+  Ca23  1  0.58137212  0.82471506  0.83003408  1
  Ca2+  Ca24  1  0.32892994  0.40919351  0.16957026  1
  Ca2+  Ca25  1  0.32876705  0.40561035  0.50235560  1
  Ca2+  Ca26  1  0.33022436  0.41544331  0.84306474  1
  Ca2+  Ca27  1  0.33306412  0.91831722  0.17259667  1
  Ca2+  Ca28  1  0.33797042  0.92080233  0.50986906  1
  Ca2+  Ca29  1  0.33846989  0.92068641  0.83008586  1
  Ca2+  Ca30  1  0.82507601  0.42812893  0.17512175  1
  Ca2+  Ca31  1  0.82954643  0.41460485  0.50279860  1
  Ca2+  Ca32  1  0.83450982  0.42017282  0.83863680  1
  Ca2+  Ca33  1  0.82444033  0.92747058  0.17399659  1
  Ca2+  Ca34  1  0.83069910  0.92692371  0.50412241  1
  Ca2+  Ca35  1  0.83839550  0.92707794  0.83661474  1
  Ca2+  Ca36  1  0.42661252  0.17914204  0.15910423  1
  Ca2+  Ca37  1  0.41909222  0.17125851  0.49779322  1
  Ca2+  Ca38  1  0.42545522  0.17373105  0.82622815  1
  Ca2+  Ca39  1  0.42119116  0.67053328  0.15979860  1
  Ca2+  Ca40  1  0.41446033  0.68114270  0.49437517  1
  Ca2+  Ca41  1  0.41899549  0.66686479  0.83072658  1
  Ca2+  Ca42  1  0.92409244  0.15932208  0.16210788  1
  Ca2+  Ca43  1  0.91593647  0.16650709  0.49649050  1
  Ca2+  Ca44  1  0.91929030  0.16676842  0.82762952  1
  Ca2+  Ca45  1  0.90907060  0.66389864  0.16247350  1
  Ca2+  Ca46  1  0.91717314  0.66830700  0.49857606  1
  Ca2+  Ca47  1  0.92099366  0.67020520  0.82352539  1
  Al0+  Al48  1  0.00034395  0.00023133  -0.00087021  1
  Al0+  Al49  1  0.00095629  -0.00205782  0.33357532  1
  Al0+  Al50  1  0.00028233  -0.00271171  0.66733490  1
  Al0+  Al51  1  0.00184443  0.49983662  0.00897399  1
  Al0+  Al52  1  0.00229056  0.49973051  0.33963926  1
  Al0+  Al53  1  0.00025701  0.49782680  0.65999875  1
  Al0+  Al54  1  0.49969698  -0.00033515  -0.00290801  1
  Al0+  Al55  1  0.49923011  0.00175918  0.32956326  1
  Al0+  Al56  1  0.50122121  -0.00127471  0.66716403  1
  Al0+  Al57  1  0.49994260  0.50402175  -0.00557007  1
  Al0+  Al58  1  0.49924671  0.50357737  0.33396879  1
  Al0+  Al59  1  0.49923070  0.49857765  0.66383720  1
  Al0+  Al60  1  0.24873056  0.24793273  -0.00361027  1
  Al0+  Al61  1  0.24941194  0.24955717  0.33022814  1
  Al0+  Al62  1  0.24969407  0.24917875  0.67115919  1
  Al0+  Al63  1  0.24838404  0.75009194  0.00365899  1
  Al0+  Al64  1  0.24833875  0.74985326  0.32741834  1
  Al0+  Al65  1  0.25050490  0.74766689  0.66034771  1
  Al0+  Al66  1  0.75151676  0.25152981  0.00351994  1
  Al0+  Al67  1  0.75098377  0.25262188  0.33965629  1
  Al0+  Al68  1  0.74993303  0.24949436  0.66461359  1
  Al0+  Al69  1  0.74857791  0.75280350  -0.00135303  1
  Al0+  Al70  1  0.74944392  0.75203763  0.34213536  1
  Al0+  Al71  1  0.75050965  0.74939030  0.66228421  1
  Al0+  Al72  1  0.82102289  0.57309423  0.01053373  1
  Al0+  Al73  1  0.82149835  0.07218590  0.01363089  1
  Al0+  Al74  1  0.32328400  0.57314436  0.01488225  1
  Al0+  Al75  1  0.92916796  0.31960117  0.65386314  1
  Al0+  Al76  1  0.57421709  0.17820227  0.98575822  1
  Al0+  Al77  1  0.18078706  0.42635427  0.01577675  1
  Al0+  Al78  1  0.06938226  0.17767780  0.98450698  1
  Al0+  Al79  1  0.42801918  0.82363972  0.31770937  1
  Al0+  Al80  1  0.82196885  0.57178653  0.35125525  1
  Al0+  Al81  1  0.06795114  0.17920884  0.32104011  1
  Al0+  Al82  1  0.67547701  0.42948112  0.34920951  1
  Al0+  Al83  1  0.82348582  0.07136349  0.34914911  1
  Al0+  Al84  1  0.42989529  0.32151414  0.31928394  1
  Al0+  Al85  1  0.67665734  0.93167646  0.34897314  1
  Al0+  Al86  1  0.82094197  0.07058922  0.68236616  1
  Al0+  Al87  1  0.07111895  0.67725501  0.65151694  1
  Al0+  Al88  1  0.32137171  0.07077224  0.68102898  1
  Al0+  Al89  1  0.18269945  0.42719932  0.34949481  1
  Al0+  Al90  1  0.92763271  0.82239097  0.65007103  1
  Al0+  Al91  1  0.57139814  0.68134021  0.98737649  1
  Al0+  Al92  1  0.57142085  0.17859952  0.65063427  1
  Al0+  Al93  1  0.42897891  0.32203093  0.98465703  1
  Al0+  Al94  1  0.42700273  0.32091395  0.65089808  1
  Al0+  Al95  1  0.43180573  0.81835442  0.65456251  1
  Si0+  Si96  1  0.57412295  0.17926003  0.31701494  1
  Si0+  Si97  1  0.32071984  0.57183719  0.67994986  1
  Si0+  Si98  1  0.57219384  0.68076207  0.31735355  1
  Si0+  Si99  1  0.67797815  0.42926796  0.68302297  1
  Si0+  Si100  1  0.67801081  0.42953710  0.01379187  1
  Si0+  Si101  1  0.92900833  0.81919214  0.31738455  1
  Si0+  Si102  1  0.07014538  0.67842632  0.98779828  1
  Si0+  Si103  1  0.32155481  0.06947945  0.01546929  1
  Si0+  Si104  1  0.07231067  0.17695017  0.65184458  1
  Si0+  Si105  1  0.17838379  0.92909965  0.01492445  1
  Si0+  Si106  1  0.17940326  0.92525320  0.68298729  1
  Si0+  Si107  1  0.92931264  0.82061603  0.98650289  1
  Si0+  Si108  1  0.92678120  0.32425572  0.31589740  1
  Si0+  Si109  1  0.82113760  0.56961960  0.68126330  1
  Si0+  Si110  1  0.32066408  0.57439054  0.35092686  1
  Si0+  Si111  1  0.17880355  0.92598547  0.34833965  1
  Si0+  Si112  1  0.67775708  0.92597507  0.68570893  1
  Si0+  Si113  1  0.07062410  0.67706996  0.31465818  1
  Si0+  Si114  1  0.57421450  0.67536802  0.64777486  1
  Si0+  Si115  1  0.67712196  0.92847026  0.01512758  1
  Si0+  Si116  1  0.42420720  0.82212575  0.98245874  1
  Si0+  Si117  1  0.31873018  0.06956949  0.34571370  1
  Si0+  Si118  1  0.17817852  0.42899145  0.68209290  1
  Si0+  Si119  1  0.92926452  0.32439515  0.98705275  1
  O2-  O120  1  0.25040119  -0.00152562  0.05823412  1
  O2-  O121  1  0.25204679  -0.00529793  0.38920970  1
  O2-  O122  1  0.24578902  -0.00425933  0.72809298  1
  O2-  O123  1  0.25763935  0.49487066  0.06426771  1
  O2-  O124  1  0.25718098  0.50193140  0.39713618  1
  O2-  O125  1  0.25152312  0.49880036  0.72245065  1
  O2-  O126  1  0.74099781  0.00242172  0.05795411  1
  O2-  O127  1  0.74686722  0.00468122  0.39948048  1
  O2-  O128  1  0.74747437  -0.00597533  0.72967614  1
  O2-  O129  1  0.74611083  0.49931847  0.05740466  1
  O2-  O130  1  0.75198530  0.49715172  0.40001523  1
  O2-  O131  1  0.74843892  0.50158220  0.72543109  1
  O2-  O132  1  -0.00871388  0.25114577  0.27226461  1
  O2-  O133  1  0.00100780  0.24199797  0.60741081  1
  O2-  O134  1  -0.00571738  0.25298420  0.94078650  1
  O2-  O135  1  -0.00421074  0.74483436  0.27268923  1
  O2-  O136  1  -0.00110048  0.74890513  0.60099455  1
  O2-  O137  1  -0.00312614  0.74615096  0.94453103  1
  O2-  O138  1  0.51038173  0.25286514  0.27311415  1
  O2-  O139  1  0.49781041  0.24859445  0.60040988  1
  O2-  O140  1  0.50186408  0.25013739  0.93615674  1
  O2-  O141  1  0.50372505  0.74978320  0.27258945  1
  O2-  O142  1  0.50662492  0.74582942  0.60498047  1
  O2-  O143  1  0.49309220  0.75253587  0.94050948  1
  O2-  O144  1  0.06825067  0.17503099  0.09757513  1
  O2-  O145  1  0.07036842  0.18005036  0.43408824  1
  O2-  O146  1  0.07233288  0.17947369  0.75760938  1
  O2-  O147  1  0.06994182  0.68174482  0.09284484  1
  O2-  O148  1  0.07354923  0.68042557  0.41943738  1
  O2-  O149  1  0.06990914  0.67730829  0.76599077  1
  O2-  O150  1  0.57244586  0.17804488  0.09957492  1
  O2-  O151  1  0.56940685  0.17574658  0.42219228  1
  O2-  O152  1  0.57179510  0.18223708  0.76428542  1
  O2-  O153  1  0.57490965  0.68626477  0.10015885  1
  O2-  O154  1  0.56942345  0.68056843  0.42295619  1
  O2-  O155  1  0.57454871  0.67565478  0.75367442  1
  O2-  O156  1  0.18353015  0.42695302  0.23670748  1
  O2-  O157  1  0.17857578  0.42845120  0.57705659  1
  O2-  O158  1  0.17611125  0.43141123  0.90174822  1
  O2-  O159  1  0.17756434  0.92568411  0.24274878  1
  O2-  O160  1  0.18098712  0.92509652  0.57718065  1
  O2-  O161  1  0.17794821  0.92726971  0.91010998  1
  O2-  O162  1  0.67522225  0.43330241  0.23507719  1
  O2-  O163  1  0.67781616  0.43136582  0.57825727  1
  O2-  O164  1  0.68087695  0.42992807  0.90790284  1
  O2-  O165  1  0.67944489  0.93088667  0.23479811  1
  O2-  O166  1  0.67699830  0.92726499  0.58034245  1
  O2-  O167  1  0.68017842  0.92330294  0.90989752  1
  O2-  O168  1  0.43043573  0.31965630  0.09862611  1
  O2-  O169  1  0.42746672  0.31547713  0.43196215  1
  O2-  O170  1  0.42814413  0.32270047  0.76413786  1
  O2-  O171  1  0.42329746  0.82308727  0.08804694  1
  O2-  O172  1  0.42610902  0.82237839  0.43081112  1
  O2-  O173  1  0.43113497  0.81493568  0.76778857  1
  O2-  O174  1  0.93063772  0.32550932  0.09227281  1
  O2-  O175  1  0.93022102  0.32440440  0.42166013  1
  O2-  O176  1  0.93203498  0.32381844  0.76729893  1
  O2-  O177  1  0.93120511  0.82086644  0.09187475  1
  O2-  O178  1  0.93353861  0.82007897  0.42193195  1
  O2-  O179  1  0.92961742  0.81991033  0.76466242  1
  O2-  O180  1  0.31619125  0.06805999  0.24029100  1
  O2-  O181  1  0.31831344  0.06990748  0.56740819  1
  O2-  O182  1  0.32095355  0.06719130  0.91040581  1
  O2-  O183  1  0.31740328  0.57653393  0.24556303  1
  O2-  O184  1  0.31875599  0.57421865  0.57507656  1
  O2-  O185  1  0.31712320  0.57741711  0.90091334  1
  O2-  O186  1  0.82505377  0.06670308  0.23515686  1
  O2-  O187  1  0.82092475  0.06958851  0.56978992  1
  O2-  O188  1  0.82480060  0.06886797  0.90064452  1
  O2-  O189  1  0.81897081  0.57261490  0.23703459  1
  O2-  O190  1  0.82070063  0.56782490  0.57675251  1
  O2-  O191  1  0.82192671  0.57249085  0.89700460  1
  O2-  O192  1  0.04218854  0.08032912  0.26693479  1
  O2-  O193  1  0.05315965  0.08108099  0.60875208  1
  O2-  O194  1  0.03985974  0.08081864  0.92974023  1
  O2-  O195  1  0.04582088  0.58342909  0.26995911  1
  O2-  O196  1  0.04242917  0.58069323  0.59624928  1
  O2-  O197  1  0.04515258  0.58536124  0.94216684  1
  O2-  O198  1  0.54332322  0.08842638  0.26796998  1
  O2-  O199  1  0.54497991  0.07896641  0.60055563  1
  O2-  O200  1  0.54647219  0.07909432  0.93325276  1
  O2-  O201  1  0.54659427  0.58800274  0.27004473  1
  O2-  O202  1  0.54639802  0.58284169  0.60189705  1
  O2-  O203  1  0.54636756  0.58565585  0.92896323  1
  O2-  O204  1  0.16347143  0.21156668  0.26530707  1
  O2-  O205  1  0.16472960  0.20596319  0.60606373  1
  O2-  O206  1  0.16582702  0.20632983  0.92999131  1
  O2-  O207  1  0.15962981  0.70991111  0.26466838  1
  O2-  O208  1  0.16779918  0.70619967  0.59561574  1
  O2-  O209  1  0.16061585  0.70993549  0.93971295  1
  O2-  O210  1  0.67063078  0.20021417  0.27512329  1
  O2-  O211  1  0.66848964  0.20860160  0.59752624  1
  O2-  O212  1  0.67366957  0.20695085  0.93468971  1
  O2-  O213  1  0.66684623  0.70752065  0.27370259  1
  O2-  O214  1  0.66792098  0.69803539  0.60184833  1
  O2-  O215  1  0.66603731  0.71579258  0.92938692  1
  O2-  O216  1  0.08561817  0.45946478  0.07277098  1
  O2-  O217  1  0.08660600  0.45836577  0.40365483  1
  O2-  O218  1  0.08651563  0.45950610  0.72857210  1
  O2-  O219  1  0.08743873  0.95784117  0.06394117  1
  O2-  O220  1  0.08864785  0.95540865  0.39705147  1
  O2-  O221  1  0.08500786  0.94711657  0.72896690  1
  O2-  O222  1  0.58425761  0.45631055  0.05771970  1
  O2-  O223  1  0.57899757  0.46331188  0.40422847  1
  O2-  O224  1  0.58560745  0.45702630  0.72994054  1
  O2-  O225  1  0.58090807  0.94703378  0.05901550  1
  O2-  O226  1  0.57640349  0.95852798  0.39954973  1
  O2-  O227  1  0.58435482  0.94997028  0.73270069  1
  O2-  O228  1  0.20541589  0.32588384  0.06662621  1
  O2-  O229  1  0.21389198  0.33050322  0.40324505  1
  O2-  O230  1  0.20313047  0.33718343  0.73084022  1
  O2-  O231  1  0.20381179  0.83768527  0.06508729  1
  O2-  O232  1  0.20430996  0.83324025  0.39448067  1
  O2-  O233  1  0.20808296  0.83183703  0.72863131  1
  O2-  O234  1  0.70296306  0.33755035  0.06307830  1
  O2-  O235  1  0.69968011  0.33075416  0.40311688  1
  O2-  O236  1  0.70798822  0.33826033  0.72983469  1
  O2-  O237  1  0.70936293  0.83846562  0.06496705  1
  O2-  O238  1  0.70350078  0.83429031  0.40378632  1
  O2-  O239  1  0.70292157  0.83026423  0.72922730  1
  O2-  O240  1  0.45371681  0.42189836  0.26920247  1
  O2-  O241  1  0.45411363  0.41969376  0.59781425  1
  O2-  O242  1  0.45297530  0.42171502  0.93265904  1
  O2-  O243  1  0.45642551  0.92019447  0.26195456  1
  O2-  O244  1  0.45990700  0.91526454  0.60079636  1
  O2-  O245  1  0.45050244  0.91515071  0.93606929  1
  O2-  O246  1  0.95710611  0.41750952  0.27165995  1
  O2-  O247  1  0.96189271  0.41313949  0.59592833  1
  O2-  O248  1  0.95917340  0.41717984  0.94004624  1
  O2-  O249  1  0.96242966  0.90861185  0.26831344  1
  O2-  O250  1  0.95941162  0.91926196  0.59628956  1
  O2-  O251  1  0.96285055  0.90958729  0.93760307  1
  O2-  O252  1  0.33602440  0.28377880  0.26455156  1
  O2-  O253  1  0.32738872  0.29122559  0.60119083  1
  O2-  O254  1  0.33079425  0.29201451  0.93284231  1
  O2-  O255  1  0.33121929  0.79241153  0.26325031  1
  O2-  O256  1  0.33607209  0.78842574  0.59828830  1
  O2-  O257  1  0.33002319  0.79684829  0.93720282  1
  O2-  O258  1  0.83036909  0.30551460  0.27303230  1
  O2-  O259  1  0.83290873  0.29206683  0.59925347  1
  O2-  O260  1  0.83438296  0.30361772  0.94202827  1
  O2-  O261  1  0.83489240  0.79470703  0.27305222  1
  O2-  O262  1  0.82963511  0.79487506  0.59684904  1
  O2-  O263  1  0.83730252  0.79709849  0.93857186  1
  O2-  O264  1  0.41328414  0.04164311  0.06324242  1
  O2-  O265  1  0.41160591  0.04552096  0.39171666  1
  O2-  O266  1  0.41702677  0.03716302  0.73557561  1
  O2-  O267  1  0.42534764  0.55474047  0.06371873  1
  O2-  O268  1  0.41637621  0.55737936  0.39452326  1
  O2-  O269  1  0.41427964  0.54708880  0.72596747  1
  O2-  O270  1  0.91632429  0.03415038  0.06730395  1
  O2-  O271  1  0.92020748  0.03601999  0.40202810  1
  O2-  O272  1  0.91920948  0.03955649  0.73508459  1
  O2-  O273  1  0.91618760  0.54460805  0.06799598  1
  O2-  O274  1  0.92167648  0.54706367  0.40264068  1
  O2-  O275  1  0.91362543  0.53966653  0.72675848  1
  O2-  O276  1  0.29219667  0.16084548  0.06189067  1
  O2-  O277  1  0.28595576  0.15876454  0.39398306  1
  O2-  O278  1  0.28890929  0.16571141  0.73807212  1
  O2-  O279  1  0.28941889  0.66950215  0.07019090  1
  O2-  O280  1  0.28782983  0.66685797  0.39649028  1
  O2-  O281  1  0.29116848  0.66272026  0.72856078  1
  O2-  O282  1  0.79779890  0.17021514  0.06839732  1
  O2-  O283  1  0.80408042  0.17263656  0.39843905  1
  O2-  O284  1  0.79051021  0.16832282  0.73518992  1
  O2-  O285  1  0.79009727  0.67005296  0.06420360  1
  O2-  O286  1  0.79309015  0.66923768  0.40541220  1
  O2-  O287  1  0.79613124  0.66349398  0.72675460  1
