# generated using pymatgen
data_Ca2Al2SiO7
_symmetry_space_group_name_H-M   'P 1'
_cell_length_a   15.46588753
_cell_length_b   15.47024661
_cell_length_c   15.29136118
_cell_angle_alpha   90.00755869
_cell_angle_beta   89.99987061
_cell_angle_gamma   89.99491286
_symmetry_Int_Tables_number   1
_chemical_formula_structural   Ca2Al2SiO7
_chemical_formula_sum   'Ca48 Al48 Si24 O168'
_cell_volume   3658.62776057
_cell_formula_units_Z   24
loop_
 _symmetry_equiv_pos_site_id
 _symmetry_equiv_pos_as_xyz
  1  'x, y, z'
loop_
 _atom_type_symbol
 _atom_type_oxidation_number
  Ca2+  2.0
  Al0+  0.0
  Si0+  0.0
  O2-  -2.0
loop_
 _atom_site_type_symbol
 _atom_site_label
 _atom_site_symmetry_multiplicity
 _atom_site_fract_x
 _atom_site_fract_y
 _atom_site_fract_z
 _atom_site_occupancy
  Ca2+  Ca0  1  0.17864217  0.07655996  0.17398629  1
  Ca2+  Ca1  1  0.17435318  0.08760702  0.49784084  1
  Ca2+  Ca2  1  0.17564299  0.08455007  0.83897933  1
  Ca2+  Ca3  1  0.16769965  0.56922371  0.17202204  1
  Ca2+  Ca4  1  0.16645257  0.57744798  0.49743254  1
  Ca2+  Ca5  1  0.16556775  0.57494819  0.84071632  1
  Ca2+  Ca6  1  0.66853183  0.08725389  0.17219079  1
  Ca2+  Ca7  1  0.65779337  0.07011672  0.50199669  1
  Ca2+  Ca8  1  0.67346280  0.08210659  0.83954041  1
  Ca2+  Ca9  1  0.67100944  0.58831751  0.17652545  1
  Ca2+  Ca10  1  0.66817711  0.58139810  0.50228066  1
  Ca2+  Ca11  1  0.66711609  0.57490527  0.83332565  1
  Ca2+  Ca12  1  0.09168938  0.32786591  0.16608478  1
  Ca2+  Ca13  1  0.08441659  0.32247207  0.49371471  1
  Ca2+  Ca14  1  0.07807287  0.32742747  0.82417054  1
  Ca2+  Ca15  1  0.08096280  0.84615354  0.16525114  1
  Ca2+  Ca16  1  0.07046763  0.84101379  0.49159234  1
  Ca2+  Ca17  1  0.07835322  0.83962405  0.82798226  1
  Ca2+  Ca18  1  0.57157599  0.32267210  0.16101641  1
  Ca2+  Ca19  1  0.57830335  0.32693356  0.49032611  1
  Ca2+  Ca20  1  0.58138383  0.32622751  0.83140682  1
  Ca2+  Ca21  1  0.57268119  0.83750186  0.17164512  1
  Ca2+  Ca22  1  0.58363691  0.83259397  0.48609881  1
  Ca2+  Ca23  1  0.57780011  0.84019835  0.83292106  1
  Ca2+  Ca24  1  0.32757440  0.40351975  0.17088111  1
  Ca2+  Ca25  1  0.32838746  0.40666122  0.49724210  1
  Ca2+  Ca26  1  0.32702140  0.41541707  0.84298331  1
  Ca2+  Ca27  1  0.33247749  0.92232314  0.17496318  1
  Ca2+  Ca28  1  0.33933939  0.93125292  0.50187918  1
  Ca2+  Ca29  1  0.32874484  0.92883958  0.84465797  1
  Ca2+  Ca30  1  0.83079293  0.42651011  0.17605436  1
  Ca2+  Ca31  1  0.82978236  0.42046731  0.50514338  1
  Ca2+  Ca32  1  0.82663991  0.40539338  0.83320264  1
  Ca2+  Ca33  1  0.82716313  0.92167986  0.17463003  1
  Ca2+  Ca34  1  0.82344651  0.90856843  0.50194814  1
  Ca2+  Ca35  1  0.83019031  0.92037026  0.83598040  1
  Ca2+  Ca36  1  0.42122118  0.16520778  0.16479029  1
  Ca2+  Ca37  1  0.41896123  0.16633420  0.48878201  1
  Ca2+  Ca38  1  0.41327000  0.16519220  0.83607478  1
  Ca2+  Ca39  1  0.41377083  0.67999329  0.16602469  1
  Ca2+  Ca40  1  0.42596676  0.67664469  0.48822809  1
  Ca2+  Ca41  1  0.41263832  0.67689510  0.83281706  1
  Ca2+  Ca42  1  0.92486079  0.15798644  0.16384795  1
  Ca2+  Ca43  1  0.93042889  0.16623300  0.49595179  1
  Ca2+  Ca44  1  0.92487144  0.16597889  0.82414099  1
  Ca2+  Ca45  1  0.91419847  0.67228727  0.16959140  1
  Ca2+  Ca46  1  0.91118692  0.67650305  0.49294148  1
  Ca2+  Ca47  1  0.92042003  0.67506430  0.82663619  1
  Al0+  Al48  1  -0.00247766  0.00093766  0.00285219  1
  Al0+  Al49  1  0.00028104  0.00137992  0.32751485  1
  Al0+  Al50  1  0.00012950  -0.00080068  0.65621075  1
  Al0+  Al51  1  -0.00050302  0.50100042  0.00246578  1
  Al0+  Al52  1  -0.00040926  0.50170083  0.34383853  1
  Al0+  Al53  1  -0.00032186  0.50176631  0.66425160  1
  Al0+  Al54  1  0.50204845  -0.00188408  -0.00587748  1
  Al0+  Al55  1  0.50173127  0.00023357  0.33324683  1
  Al0+  Al56  1  0.49915435  0.00131605  0.67770253  1
  Al0+  Al57  1  0.49981796  0.50046571  -0.00362534  1
  Al0+  Al58  1  0.49986962  0.50010681  0.32568752  1
  Al0+  Al59  1  0.50022970  0.50066824  0.67235459  1
  Al0+  Al60  1  0.24989522  0.24822890  0.00243418  1
  Al0+  Al61  1  0.24797445  0.24860697  0.33435169  1
  Al0+  Al62  1  0.25063195  0.25060657  0.66872712  1
  Al0+  Al63  1  0.24775399  0.74705930  -0.00249797  1
  Al0+  Al64  1  0.24615593  0.74775400  0.33486627  1
  Al0+  Al65  1  0.25060643  0.75041355  0.66514365  1
  Al0+  Al66  1  0.74974991  0.25060829  0.00310390  1
  Al0+  Al67  1  0.75257051  0.25218311  0.33190994  1
  Al0+  Al68  1  0.74906310  0.24991483  0.66581358  1
  Al0+  Al69  1  0.75101408  0.74923613  -0.00280650  1
  Al0+  Al70  1  0.75219551  0.75110080  0.33181054  1
  Al0+  Al71  1  0.74893751  0.74821161  0.67107717  1
  Al0+  Al72  1  0.42783464  0.81956302  0.98531683  1
  Al0+  Al73  1  0.18125174  0.42889198  0.34892858  1
  Al0+  Al74  1  0.17786500  0.92725896  0.01285205  1
  Al0+  Al75  1  0.57383210  0.17783755  0.32050815  1
  Al0+  Al76  1  0.07335091  0.17988427  0.65065962  1
  Al0+  Al77  1  0.92610624  0.32216825  0.65100158  1
  Al0+  Al78  1  0.32341117  0.06942443  0.01727392  1
  Al0+  Al79  1  0.92840004  0.81920936  0.65285182  1
  Al0+  Al80  1  0.57356445  0.17841738  0.98233851  1
  Al0+  Al81  1  0.06951775  0.18027696  0.31588759  1
  Al0+  Al82  1  0.67917789  0.92720213  0.68205099  1
  Al0+  Al83  1  0.42766326  0.32027200  0.31975915  1
  Al0+  Al84  1  0.42620197  0.82175758  0.32145303  1
  Al0+  Al85  1  0.93064184  0.82044719  0.31734813  1
  Al0+  Al86  1  0.17931470  0.42928822  0.01221318  1
  Al0+  Al87  1  0.68183439  0.93294633  0.34445529  1
  Al0+  Al88  1  0.17631501  0.92659449  0.34975960  1
  Al0+  Al89  1  0.42734401  0.31982822  0.98251303  1
  Al0+  Al90  1  0.81929861  0.57152713  0.34827182  1
  Al0+  Al91  1  0.57287497  0.67919420  0.31977215  1
  Al0+  Al92  1  0.81914697  0.07208235  0.01280174  1
  Al0+  Al93  1  0.32115957  0.06854578  0.34833737  1
  Al0+  Al94  1  0.67860437  0.42783677  0.68047234  1
  Al0+  Al95  1  0.31997207  0.07208516  0.68287733  1
  Si0+  Si96  1  0.57479940  0.67797696  0.98033625  1
  Si0+  Si97  1  0.82317034  0.07049736  0.67977932  1
  Si0+  Si98  1  0.43028912  0.82243859  0.65317856  1
  Si0+  Si99  1  0.82413346  0.07542774  0.35103797  1
  Si0+  Si100  1  0.17955689  0.43093127  0.68165219  1
  Si0+  Si101  1  0.43014038  0.32297452  0.65345856  1
  Si0+  Si102  1  0.17717033  0.92732921  0.68078317  1
  Si0+  Si103  1  0.57000233  0.17828865  0.65302525  1
  Si0+  Si104  1  0.92966307  0.82103169  0.98416890  1
  Si0+  Si105  1  0.67782826  0.42948066  0.01627557  1
  Si0+  Si106  1  0.32311762  0.57225481  0.01648705  1
  Si0+  Si107  1  0.06862261  0.67575471  0.98531966  1
  Si0+  Si108  1  0.56865446  0.67796722  0.65385622  1
  Si0+  Si109  1  0.67973302  0.92552571  0.01712397  1
  Si0+  Si110  1  0.82216349  0.57142610  0.68558082  1
  Si0+  Si111  1  0.32424596  0.57320723  0.34988307  1
  Si0+  Si112  1  0.92972310  0.32455697  0.98732576  1
  Si0+  Si113  1  0.81985179  0.57129283  0.01427874  1
  Si0+  Si114  1  0.67665034  0.42775466  0.34816771  1
  Si0+  Si115  1  0.06844783  0.17916688  0.98549410  1
  Si0+  Si116  1  0.32140377  0.57307709  0.68220339  1
  Si0+  Si117  1  0.07447667  0.67760564  0.64874543  1
  Si0+  Si118  1  0.92958589  0.32527400  0.31651641  1
  Si0+  Si119  1  0.07090311  0.67485217  0.31590304  1
  O2-  O120  1  0.25449703  -0.00724298  0.06386254  1
  O2-  O121  1  0.25181345  -0.00567153  0.40013180  1
  O2-  O122  1  0.24351729  -0.00302253  0.72615937  1
  O2-  O123  1  0.25949023  0.49834352  0.05896504  1
  O2-  O124  1  0.25888700  0.50145102  0.39531850  1
  O2-  O125  1  0.24858135  0.50359277  0.72419719  1
  O2-  O126  1  0.74254901  -0.00018994  0.05968535  1
  O2-  O127  1  0.75278824  0.00963264  0.39482712  1
  O2-  O128  1  0.75605691  0.00124402  0.72601138  1
  O2-  O129  1  0.74682223  0.50316615  0.05705072  1
  O2-  O130  1  0.74361849  0.49739755  0.39377935  1
  O2-  O131  1  0.75829394  0.49774171  0.72928721  1
  O2-  O132  1  -0.00588521  0.25504937  0.26910784  1
  O2-  O133  1  -0.00029141  0.25183730  0.60191881  1
  O2-  O134  1  -0.00142343  0.25207875  0.94409729  1
  O2-  O135  1  0.00905957  0.74911287  0.27041921  1
  O2-  O136  1  0.00541223  0.74638022  0.60647808  1
  O2-  O137  1  0.00390146  0.75265467  0.94280244  1
  O2-  O138  1  0.50155820  0.24980228  0.27141129  1
  O2-  O139  1  0.49967400  0.25058030  0.61202073  1
  O2-  O140  1  0.49908374  0.24810323  0.93107290  1
  O2-  O141  1  0.49649761  0.74730956  0.27162611  1
  O2-  O142  1  0.50249762  0.75276101  0.61117652  1
  O2-  O143  1  0.50438705  0.74568268  0.93711355  1
  O2-  O144  1  0.06644496  0.17935409  0.09010762  1
  O2-  O145  1  0.07003676  0.18244199  0.42897515  1
  O2-  O146  1  0.07263234  0.18172233  0.76522086  1
  O2-  O147  1  0.06383486  0.66884532  0.08934068  1
  O2-  O148  1  0.06693468  0.67201816  0.42155730  1
  O2-  O149  1  0.07431698  0.67607820  0.75488600  1
  O2-  O150  1  0.57732825  0.18313884  0.09511760  1
  O2-  O151  1  0.57268212  0.17872833  0.43503872  1
  O2-  O152  1  0.57128406  0.17963709  0.75797773  1
  O2-  O153  1  0.57897551  0.67839189  0.08499405  1
  O2-  O154  1  0.57252311  0.68048516  0.43427966  1
  O2-  O155  1  0.56537076  0.67582765  0.75903481  1
  O2-  O156  1  0.17983209  0.43087429  0.23582074  1
  O2-  O157  1  0.18183275  0.43098379  0.57689275  1
  O2-  O158  1  0.17600400  0.43355608  0.89844133  1
  O2-  O159  1  0.17700702  0.93092378  0.23628438  1
  O2-  O160  1  0.18008578  0.92423174  0.57606630  1
  O2-  O161  1  0.17510673  0.93125823  0.89851364  1
  O2-  O162  1  0.68069784  0.42807361  0.24257862  1
  O2-  O163  1  0.67406458  0.43280258  0.56808079  1
  O2-  O164  1  0.68057277  0.42919623  0.91068154  1
  O2-  O165  1  0.68325925  0.93197789  0.23156041  1
  O2-  O166  1  0.67709237  0.92623990  0.56924507  1
  O2-  O167  1  0.68539065  0.92247678  0.91107148  1
  O2-  O168  1  0.42960241  0.32108221  0.09517839  1
  O2-  O169  1  0.43032998  0.32004988  0.43452868  1
  O2-  O170  1  0.42997544  0.32457515  0.75837020  1
  O2-  O171  1  0.42726096  0.81714332  0.09773615  1
  O2-  O172  1  0.43091510  0.82163776  0.43572503  1
  O2-  O173  1  0.42913041  0.81839903  0.75835617  1
  O2-  O174  1  0.93170886  0.32913715  0.09187530  1
  O2-  O175  1  0.93091839  0.32416000  0.42201821  1
  O2-  O176  1  0.92867442  0.32001284  0.76569429  1
  O2-  O177  1  0.92691411  0.81884603  0.08860584  1
  O2-  O178  1  0.92774084  0.81700120  0.43052979  1
  O2-  O179  1  0.93049898  0.81824123  0.76685148  1
  O2-  O180  1  0.32173834  0.06858471  0.23534421  1
  O2-  O181  1  0.32526716  0.07205888  0.57060742  1
  O2-  O182  1  0.31716369  0.07062047  0.90310851  1
  O2-  O183  1  0.32086586  0.57566886  0.24466888  1
  O2-  O184  1  0.32310331  0.57421699  0.57764078  1
  O2-  O185  1  0.31902622  0.57390580  0.91013031  1
  O2-  O186  1  0.82354650  0.07286493  0.24516072  1
  O2-  O187  1  0.82156518  0.07038986  0.57474668  1
  O2-  O188  1  0.82316965  0.06877302  0.89914988  1
  O2-  O189  1  0.81973571  0.56975667  0.23435780  1
  O2-  O190  1  0.81830618  0.57426588  0.58059683  1
  O2-  O191  1  0.82022095  0.57173011  0.90916878  1
  O2-  O192  1  0.03808002  0.08537531  0.26003483  1
  O2-  O193  1  0.04693561  0.08214124  0.59625673  1
  O2-  O194  1  0.03666564  0.08886320  0.93694407  1
  O2-  O195  1  0.03706416  0.58343431  0.26985956  1
  O2-  O196  1  0.04968911  0.58410007  0.60259985  1
  O2-  O197  1  0.03323447  0.58801459  0.93277181  1
  O2-  O198  1  0.54725894  0.08034918  0.26671436  1
  O2-  O199  1  0.53943004  0.08581507  0.60895016  1
  O2-  O200  1  0.55252692  0.07793536  0.93052847  1
  O2-  O201  1  0.55114563  0.58025829  0.26535838  1
  O2-  O202  1  0.53712620  0.58768586  0.60581433  1
  O2-  O203  1  0.55045000  0.58383480  0.93417081  1
  O2-  O204  1  0.16491794  0.21374458  0.26295903  1
  O2-  O205  1  0.17075812  0.21329623  0.59855882  1
  O2-  O206  1  0.16049639  0.20607653  0.93909413  1
  O2-  O207  1  0.16702118  0.69047853  0.27221039  1
  O2-  O208  1  0.16864179  0.70084859  0.60277552  1
  O2-  O209  1  0.16193305  0.69506046  0.93720817  1
  O2-  O210  1  0.67307787  0.20582698  0.26822205  1
  O2-  O211  1  0.66180886  0.20362122  0.60569608  1
  O2-  O212  1  0.67198755  0.21245339  0.92948944  1
  O2-  O213  1  0.66879221  0.71146193  0.26521438  1
  O2-  O214  1  0.66305712  0.70033103  0.61052203  1
  O2-  O215  1  0.66779547  0.70500924  0.93165291  1
  O2-  O216  1  0.08490302  0.46591797  0.06689975  1
  O2-  O217  1  0.08705088  0.46302700  0.40569040  1
  O2-  O218  1  0.08637706  0.45761124  0.72782256  1
  O2-  O219  1  0.08062313  0.95927459  0.06505553  1
  O2-  O220  1  0.07809411  0.96103205  0.39981484  1
  O2-  O221  1  0.08123893  0.95088044  0.72338137  1
  O2-  O222  1  0.58486657  0.45592461  0.06067410  1
  O2-  O223  1  0.58176675  0.45131427  0.39222660  1
  O2-  O224  1  0.58499143  0.46416942  0.73861871  1
  O2-  O225  1  0.58307270  0.94371983  0.05689673  1
  O2-  O226  1  0.58546380  0.95944037  0.40124366  1
  O2-  O227  1  0.58535191  0.96066410  0.73942207  1
  O2-  O228  1  0.20513612  0.33202195  0.06542372  1
  O2-  O229  1  0.21137753  0.33334536  0.40460273  1
  O2-  O230  1  0.20867758  0.34049015  0.73023979  1
  O2-  O231  1  0.19526039  0.82406505  0.05992409  1
  O2-  O232  1  0.19203117  0.82363035  0.39848835  1
  O2-  O233  1  0.20229621  0.83298397  0.72769914  1
  O2-  O234  1  0.70835408  0.33992558  0.06467502  1
  O2-  O235  1  0.70446018  0.33523697  0.39592555  1
  O2-  O236  1  0.70748956  0.33073196  0.73594563  1
  O2-  O237  1  0.71211380  0.83364246  0.06242493  1
  O2-  O238  1  0.71603923  0.83710444  0.39827280  1
  O2-  O239  1  0.70817227  0.83059466  0.73762883  1
  O2-  O240  1  0.45015436  0.41932913  0.26565192  1
  O2-  O241  1  0.45858383  0.41505588  0.60721995  1
  O2-  O242  1  0.45400112  0.42066035  0.93092196  1
  O2-  O243  1  0.45995918  0.91708587  0.26727740  1
  O2-  O244  1  0.45817462  0.91574943  0.61071805  1
  O2-  O245  1  0.45839863  0.91455229  0.92802023  1
  O2-  O246  1  0.95745317  0.41954762  0.27347245  1
  O2-  O247  1  0.95099805  0.42301045  0.60171047  1
  O2-  O248  1  0.95833223  0.41510242  0.93696843  1
  O2-  O249  1  0.95712904  0.91740211  0.26267366  1
  O2-  O250  1  0.95381576  0.91505405  0.59605231  1
  O2-  O251  1  0.95573305  0.91331312  0.93674547  1
  O2-  O252  1  0.32985190  0.29082328  0.26845714  1
  O2-  O253  1  0.33744383  0.29692857  0.60794854  1
  O2-  O254  1  0.32741769  0.29207596  0.93043912  1
  O2-  O255  1  0.32693542  0.79340230  0.27005553  1
  O2-  O256  1  0.33874125  0.79392142  0.60628779  1
  O2-  O257  1  0.33169784  0.78545128  0.92964246  1
  O2-  O258  1  0.83450860  0.30528016  0.27117707  1
  O2-  O259  1  0.82687655  0.29668668  0.59865419  1
  O2-  O260  1  0.83688550  0.29784064  0.94207166  1
  O2-  O261  1  0.83703583  0.78466227  0.26143942  1
  O2-  O262  1  0.83145318  0.78401373  0.60198994  1
  O2-  O263  1  0.83990282  0.78850371  0.93458131  1
  O2-  O264  1  0.42516865  0.04431830  0.06301857  1
  O2-  O265  1  0.42024340  0.04210390  0.40174078  1
  O2-  O266  1  0.41400578  0.04001101  0.74090960  1
  O2-  O267  1  0.41980090  0.55471470  0.05823105  1
  O2-  O268  1  0.41998189  0.55095537  0.39347325  1
  O2-  O269  1  0.41117043  0.54401800  0.73268613  1
  O2-  O270  1  0.91326002  0.03783833  0.06868726  1
  O2-  O271  1  0.91687758  0.04617658  0.39504314  1
  O2-  O272  1  0.91787629  0.04468694  0.72464456  1
  O2-  O273  1  0.90996349  0.54130787  0.06282350  1
  O2-  O274  1  0.91358347  0.54144877  0.40644517  1
  O2-  O275  1  0.91877038  0.55264473  0.72917111  1
  O2-  O276  1  0.29203001  0.16698833  0.06829733  1
  O2-  O277  1  0.28852645  0.16576383  0.40139089  1
  O2-  O278  1  0.28907989  0.16904276  0.73719681  1
  O2-  O279  1  0.29081975  0.66272959  0.06382387  1
  O2-  O280  1  0.29518312  0.66418665  0.40009362  1
  O2-  O281  1  0.29362872  0.66513821  0.73070533  1
  O2-  O282  1  0.79414819  0.16946086  0.06835103  1
  O2-  O283  1  0.80492106  0.17143724  0.39471631  1
  O2-  O284  1  0.79721695  0.16393542  0.72650636  1
  O2-  O285  1  0.79401039  0.66397478  0.06112302  1
  O2-  O286  1  0.78785806  0.66732158  0.40227867  1
  O2-  O287  1  0.79095030  0.66150859  0.73614435  1
