# generated using pymatgen
data_Ca2Al2SiO7
_symmetry_space_group_name_H-M   'P 1'
_cell_length_a   15.45750653
_cell_length_b   15.45726133
_cell_length_c   15.28346927
_cell_angle_alpha   89.99041863
_cell_angle_beta   90.01022370
_cell_angle_gamma   90.00009399
_symmetry_Int_Tables_number   1
_chemical_formula_structural   Ca2Al2SiO7
_chemical_formula_sum   'Ca48 Al48 Si24 O168'
_cell_volume   3651.69017745
_cell_formula_units_Z   24
loop_
 _symmetry_equiv_pos_site_id
 _symmetry_equiv_pos_as_xyz
  1  'x, y, z'
loop_
 _atom_type_symbol
 _atom_type_oxidation_number
  Ca2+  2.0
  Al0+  0.0
  Si0+  0.0
  O2-  -2.0
loop_
 _atom_site_type_symbol
 _atom_site_label
 _atom_site_symmetry_multiplicity
 _atom_site_fract_x
 _atom_site_fract_y
 _atom_site_fract_z
 _atom_site_occupancy
  Ca2+  Ca0  1  0.17366306  0.09147169  0.16609146  1
  Ca2+  Ca1  1  0.17457592  0.08194413  0.51013109  1
  Ca2+  Ca2  1  0.17957286  0.09315670  0.84073026  1
  Ca2+  Ca3  1  0.16341787  0.57503155  0.17303259  1
  Ca2+  Ca4  1  0.16730395  0.58339801  0.49840072  1
  Ca2+  Ca5  1  0.16210836  0.57890291  0.84112460  1
  Ca2+  Ca6  1  0.66382614  0.07847013  0.16592661  1
  Ca2+  Ca7  1  0.65460784  0.07513812  0.50361840  1
  Ca2+  Ca8  1  0.66342404  0.07843634  0.84265522  1
  Ca2+  Ca9  1  0.67778872  0.57783891  0.16911589  1
  Ca2+  Ca10  1  0.67355122  0.58792677  0.50667261  1
  Ca2+  Ca11  1  0.67071462  0.57520911  0.84370252  1
  Ca2+  Ca12  1  0.08046833  0.33627205  0.15584027  1
  Ca2+  Ca13  1  0.07919107  0.33733389  0.49869046  1
  Ca2+  Ca14  1  0.07318008  0.33320518  0.83630474  1
  Ca2+  Ca15  1  0.08372673  0.81822680  0.15873603  1
  Ca2+  Ca16  1  0.08498157  0.82135978  0.49413273  1
  Ca2+  Ca17  1  0.08282329  0.82049966  0.83012475  1
  Ca2+  Ca18  1  0.58750460  0.32320161  0.15857465  1
  Ca2+  Ca19  1  0.57765548  0.32081908  0.49600402  1
  Ca2+  Ca20  1  0.58391688  0.32235830  0.82669212  1
  Ca2+  Ca21  1  0.58138319  0.83775615  0.16044885  1
  Ca2+  Ca22  1  0.58899677  0.83292659  0.49984567  1
  Ca2+  Ca23  1  0.58361569  0.83611253  0.83132625  1
  Ca2+  Ca24  1  0.31824462  0.42033865  0.17313730  1
  Ca2+  Ca25  1  0.33014878  0.41663897  0.50256321  1
  Ca2+  Ca26  1  0.32841495  0.41365449  0.84013932  1
  Ca2+  Ca27  1  0.33791752  0.92026478  0.16260118  1
  Ca2+  Ca28  1  0.33260964  0.92378633  0.50633358  1
  Ca2+  Ca29  1  0.33869257  0.92795727  0.83977903  1
  Ca2+  Ca30  1  0.83493855  0.42246730  0.16209346  1
  Ca2+  Ca31  1  0.83613437  0.42119014  0.50133131  1
  Ca2+  Ca32  1  0.83188896  0.41719877  0.84344880  1
  Ca2+  Ca33  1  0.82356963  0.92136725  0.16906382  1
  Ca2+  Ca34  1  0.82085961  0.91783887  0.50631459  1
  Ca2+  Ca35  1  0.82070508  0.92355064  0.84286561  1
  Ca2+  Ca36  1  0.42715350  0.16286832  0.15858187  1
  Ca2+  Ca37  1  0.42262637  0.16559319  0.50189726  1
  Ca2+  Ca38  1  0.42377772  0.16696169  0.82860433  1
  Ca2+  Ca39  1  0.41165850  0.67402425  0.16027847  1
  Ca2+  Ca40  1  0.42291355  0.66416561  0.49595211  1
  Ca2+  Ca41  1  0.42491677  0.67463638  0.82885914  1
  Ca2+  Ca42  1  0.92302750  0.17328077  0.15117564  1
  Ca2+  Ca43  1  0.91215412  0.17630222  0.49781500  1
  Ca2+  Ca44  1  0.90869591  0.17808737  0.83434991  1
  Ca2+  Ca45  1  0.92269293  0.65621783  0.16217317  1
  Ca2+  Ca46  1  0.92690873  0.66230456  0.49348019  1
  Ca2+  Ca47  1  0.92602668  0.65792287  0.83240094  1
  Al0+  Al48  1  0.00259367  -0.00268365  -0.00154504  1
  Al0+  Al49  1  -0.00113596  0.00036830  0.33477114  1
  Al0+  Al50  1  -0.00096617  -0.00073475  0.66798278  1
  Al0+  Al51  1  0.00090583  0.49857868  -0.00124852  1
  Al0+  Al52  1  -0.00037976  0.49905996  0.33771238  1
  Al0+  Al53  1  0.00134822  0.49976332  0.65840596  1
  Al0+  Al54  1  0.49769542  0.00003950  -0.00023143  1
  Al0+  Al55  1  0.50019177  -0.00042963  0.33347327  1
  Al0+  Al56  1  0.49815562  -0.00088325  0.67109774  1
  Al0+  Al57  1  0.49958675  0.50081231  0.00592979  1
  Al0+  Al58  1  0.49971042  0.49908388  0.33404224  1
  Al0+  Al59  1  0.49983498  0.50082116  0.65942870  1
  Al0+  Al60  1  0.25084454  0.25074680  0.00712526  1
  Al0+  Al61  1  0.25005979  0.25088773  0.33970423  1
  Al0+  Al62  1  0.24887837  0.25160167  0.66772534  1
  Al0+  Al63  1  0.25119413  0.75251802  -0.01148288  1
  Al0+  Al64  1  0.25023378  0.74969863  0.33255908  1
  Al0+  Al65  1  0.25053022  0.74891149  0.66259872  1
  Al0+  Al66  1  0.75004946  0.24892968  -0.00043845  1
  Al0+  Al67  1  0.75035539  0.24972054  0.32793403  1
  Al0+  Al68  1  0.74990197  0.25060036  0.65497878  1
  Al0+  Al69  1  0.75111489  0.74979038  0.00796992  1
  Al0+  Al70  1  0.74990432  0.75126697  0.34101390  1
  Al0+  Al71  1  0.75159389  0.75106712  0.66971123  1
  Al0+  Al72  1  0.07082873  0.67999541  0.65018165  1
  Al0+  Al73  1  0.81865480  0.56899294  0.34935505  1
  Al0+  Al74  1  0.56975732  0.17702394  0.65133612  1
  Al0+  Al75  1  0.67917768  0.93192426  0.34918948  1
  Al0+  Al76  1  0.82400988  0.07171670  0.01380241  1
  Al0+  Al77  1  0.06891157  0.67897849  0.98640952  1
  Al0+  Al78  1  0.31795848  0.07079494  0.68165486  1
  Al0+  Al79  1  0.67582753  0.42649870  0.01315739  1
  Al0+  Al80  1  0.57278206  0.67977852  0.65448433  1
  Al0+  Al81  1  0.17887093  0.42874748  0.35193967  1
  Al0+  Al82  1  0.56811696  0.17894113  0.31658207  1
  Al0+  Al83  1  0.43106111  0.82029404  0.98537511  1
  Al0+  Al84  1  0.56977200  0.18039576  0.98650671  1
  Al0+  Al85  1  0.68034949  0.92994528  0.68261396  1
  Al0+  Al86  1  0.42602135  0.32249466  0.65195891  1
  Al0+  Al87  1  0.92936290  0.32026420  0.65092014  1
  Al0+  Al88  1  0.32210724  0.57337124  0.34895050  1
  Al0+  Al89  1  0.18124595  0.43112609  0.01128020  1
  Al0+  Al90  1  0.31879226  0.07034145  0.01496114  1
  Al0+  Al91  1  0.82208731  0.57020871  0.01293147  1
  Al0+  Al92  1  0.06926877  0.68023379  0.31752253  1
  Al0+  Al93  1  0.92967379  0.31958220  0.98583546  1
  Al0+  Al94  1  0.07495057  0.17612282  0.98628635  1
  Al0+  Al95  1  0.67761849  0.93019768  0.01608533  1
  Si0+  Si96  1  0.82242003  0.56908926  0.68089078  1
  Si0+  Si97  1  0.82365884  0.07371792  0.35074379  1
  Si0+  Si98  1  0.17858111  0.43179913  0.68339914  1
  Si0+  Si99  1  0.42983604  0.81988716  0.31910687  1
  Si0+  Si100  1  0.67751688  0.42514726  0.35150967  1
  Si0+  Si101  1  0.42589148  0.32283608  0.31462362  1
  Si0+  Si102  1  0.57452268  0.67643553  0.98695592  1
  Si0+  Si103  1  0.17730896  0.92855661  0.34684252  1
  Si0+  Si104  1  0.07267429  0.17710871  0.32080948  1
  Si0+  Si105  1  0.57366039  0.67814817  0.31871839  1
  Si0+  Si106  1  0.67853222  0.42910494  0.67769003  1
  Si0+  Si107  1  0.92793934  0.82359582  0.64993849  1
  Si0+  Si108  1  0.42748491  0.32420413  0.98728504  1
  Si0+  Si109  1  0.82310758  0.07530137  0.68222026  1
  Si0+  Si110  1  0.17850267  0.92405014  0.01562316  1
  Si0+  Si111  1  0.17655025  0.92531499  0.68348287  1
  Si0+  Si112  1  0.93075494  0.31999278  0.31652326  1
  Si0+  Si113  1  0.92617426  0.82316390  0.31683946  1
  Si0+  Si114  1  0.32229763  0.57611249  0.01311825  1
  Si0+  Si115  1  0.42918114  0.82121340  0.64843871  1
  Si0+  Si116  1  0.07219868  0.17733033  0.65093585  1
  Si0+  Si117  1  0.32333626  0.57209025  0.68253615  1
  Si0+  Si118  1  0.92528718  0.82280273  0.98360297  1
  Si0+  Si119  1  0.32027217  0.06933338  0.34882061  1
  O2-  O120  1  0.24075356  -0.00180221  0.06132456  1
  O2-  O121  1  0.24497136  0.00223912  0.39042596  1
  O2-  O122  1  0.24134956  -0.00292520  0.72766170  1
  O2-  O123  1  0.25519439  0.50664736  0.05759957  1
  O2-  O124  1  0.25246931  0.50007466  0.40112154  1
  O2-  O125  1  0.25192291  0.50134671  0.72483659  1
  O2-  O126  1  0.75144593  0.00094747  0.06535075  1
  O2-  O127  1  0.75392502  0.00676464  0.39595439  1
  O2-  O128  1  0.75356354  0.00754263  0.72588948  1
  O2-  O129  1  0.74717822  0.50032915  0.06186041  1
  O2-  O130  1  0.74155676  0.49737172  0.39775330  1
  O2-  O131  1  0.74950133  0.49963145  0.72159120  1
  O2-  O132  1  0.00154219  0.24706611  0.27792813  1
  O2-  O133  1  0.00130888  0.24217605  0.60436185  1
  O2-  O134  1  -0.00184703  0.24306950  0.93645330  1
  O2-  O135  1  -0.00571672  0.75478056  0.27111092  1
  O2-  O136  1  -0.00153745  0.75746405  0.60426952  1
  O2-  O137  1  -0.00713153  0.75243713  0.93945862  1
  O2-  O138  1  0.49598966  0.25627561  0.26991853  1
  O2-  O139  1  0.49776412  0.24993615  0.60204916  1
  O2-  O140  1  0.49948212  0.26021095  0.94165442  1
  O2-  O141  1  0.49857135  0.74574066  0.27790321  1
  O2-  O142  1  0.49843121  0.75340183  0.60399917  1
  O2-  O143  1  0.50746585  0.74602182  0.94138321  1
  O2-  O144  1  0.07542468  0.18169921  0.10068122  1
  O2-  O145  1  0.07151487  0.17567897  0.42617367  1
  O2-  O146  1  0.07409486  0.18000565  0.75572158  1
  O2-  O147  1  0.06991875  0.67901042  0.09954508  1
  O2-  O148  1  0.06917671  0.68300606  0.43084998  1
  O2-  O149  1  0.06912166  0.67772806  0.76321343  1
  O2-  O150  1  0.56665517  0.17889661  0.09986835  1
  O2-  O151  1  0.56380443  0.17715121  0.42963773  1
  O2-  O152  1  0.57055105  0.17866014  0.76460960  1
  O2-  O153  1  0.57199026  0.67611125  0.09276066  1
  O2-  O154  1  0.57421135  0.68094180  0.42407834  1
  O2-  O155  1  0.57063062  0.67836467  0.76736929  1
  O2-  O156  1  0.17811340  0.42854050  0.23843901  1
  O2-  O157  1  0.17786701  0.43289450  0.57837766  1
  O2-  O158  1  0.18112356  0.43221698  0.89773399  1
  O2-  O159  1  0.17789324  0.92823392  0.24224855  1
  O2-  O160  1  0.17889040  0.92608943  0.57702204  1
  O2-  O161  1  0.18317424  0.91965493  0.91031190  1
  O2-  O162  1  0.68002292  0.42521684  0.24620962  1
  O2-  O163  1  0.68051248  0.43116296  0.57247921  1
  O2-  O164  1  0.67421990  0.42865098  0.89879158  1
  O2-  O165  1  0.67791073  0.93212861  0.23682483  1
  O2-  O166  1  0.68134090  0.93008191  0.56910926  1
  O2-  O167  1  0.67815766  0.93079116  0.90242321  1
  O2-  O168  1  0.42655167  0.32142727  0.09285748  1
  O2-  O169  1  0.42585096  0.32037020  0.42025811  1
  O2-  O170  1  0.42672443  0.32335088  0.76560548  1
  O2-  O171  1  0.42939515  0.81860159  0.09916396  1
  O2-  O172  1  0.42971237  0.82237287  0.42422773  1
  O2-  O173  1  0.42842494  0.81975097  0.75370600  1
  O2-  O174  1  0.93377784  0.32245028  0.09963112  1
  O2-  O175  1  0.93033242  0.31892217  0.42213443  1
  O2-  O176  1  0.92936490  0.32335879  0.76316522  1
  O2-  O177  1  0.92736103  0.82348627  0.08926918  1
  O2-  O178  1  0.92948411  0.82347503  0.42268763  1
  O2-  O179  1  0.92855950  0.82247888  0.75520507  1
  O2-  O180  1  0.32060587  0.06812888  0.24399624  1
  O2-  O181  1  0.31672762  0.06729490  0.56752236  1
  O2-  O182  1  0.32015071  0.07005444  0.90205247  1
  O2-  O183  1  0.31892958  0.57529614  0.23530093  1
  O2-  O184  1  0.32230263  0.57305897  0.57764916  1
  O2-  O185  1  0.32301311  0.57454615  0.90719365  1
  O2-  O186  1  0.82734421  0.07166191  0.24589823  1
  O2-  O187  1  0.82570287  0.07255517  0.57631092  1
  O2-  O188  1  0.82091172  0.07062572  0.89989284  1
  O2-  O189  1  0.81926476  0.56702366  0.23680711  1
  O2-  O190  1  0.82190513  0.56828215  0.57553334  1
  O2-  O191  1  0.82160398  0.56844620  0.89866042  1
  O2-  O192  1  0.04801374  0.08426008  0.27367618  1
  O2-  O193  1  0.05203907  0.08095245  0.60664423  1
  O2-  O194  1  0.05891049  0.07381823  0.93659967  1
  O2-  O195  1  0.03739168  0.58183795  0.26858911  1
  O2-  O196  1  0.03740140  0.58580458  0.59394765  1
  O2-  O197  1  0.03766118  0.58369112  0.93066501  1
  O2-  O198  1  0.53313745  0.08283994  0.26403373  1
  O2-  O199  1  0.53597743  0.07914893  0.59963447  1
  O2-  O200  1  0.53335751  0.08578009  0.93338394  1
  O2-  O201  1  0.55141971  0.58384822  0.27357558  1
  O2-  O202  1  0.54305484  0.58510074  0.59618262  1
  O2-  O203  1  0.54728667  0.58307605  0.94031728  1
  O2-  O204  1  0.16590436  0.20430012  0.27613369  1
  O2-  O205  1  0.16383800  0.20663596  0.60252044  1
  O2-  O206  1  0.17185591  0.21216787  0.93469273  1
  O2-  O207  1  0.16636554  0.71251424  0.26546366  1
  O2-  O208  1  0.16814774  0.70920599  0.59601586  1
  O2-  O209  1  0.16375950  0.71093223  0.92917652  1
  O2-  O210  1  0.66696135  0.20641696  0.26530681  1
  O2-  O211  1  0.66678195  0.20381979  0.59446974  1
  O2-  O212  1  0.66734867  0.20565721  0.93302509  1
  O2-  O213  1  0.66443845  0.71051731  0.27270827  1
  O2-  O214  1  0.66981371  0.71139496  0.60081004  1
  O2-  O215  1  0.66943381  0.69941583  0.94288221  1
  O2-  O216  1  0.08599903  0.46276459  0.06601709  1
  O2-  O217  1  0.08163907  0.45901109  0.40558103  1
  O2-  O218  1  0.08700209  0.46400363  0.72844985  1
  O2-  O219  1  0.08268772  0.93976790  0.06008454  1
  O2-  O220  1  0.08478787  0.95257346  0.39585998  1
  O2-  O221  1  0.08060274  0.94459541  0.72713401  1
  O2-  O222  1  0.57845216  0.45333001  0.07067446  1
  O2-  O223  1  0.58147056  0.44513080  0.39434842  1
  O2-  O224  1  0.58620470  0.45660767  0.72365774  1
  O2-  O225  1  0.57985199  0.96055696  0.06847329  1
  O2-  O226  1  0.58197056  0.96266306  0.40326552  1
  O2-  O227  1  0.58205066  0.95619226  0.73417563  1
  O2-  O228  1  0.21166783  0.33713255  0.07009866  1
  O2-  O229  1  0.20594969  0.32989179  0.40690871  1
  O2-  O230  1  0.20320114  0.33888301  0.72935880  1
  O2-  O231  1  0.21314117  0.83325658  0.06322423  1
  O2-  O232  1  0.20936933  0.83891773  0.39602749  1
  O2-  O233  1  0.20533035  0.83186569  0.72801765  1
  O2-  O234  1  0.70630258  0.32991389  0.06716413  1
  O2-  O235  1  0.70850461  0.33250293  0.39702156  1
  O2-  O236  1  0.70700613  0.33586652  0.72142010  1
  O2-  O237  1  0.70311870  0.83130560  0.06969631  1
  O2-  O238  1  0.70964900  0.83599684  0.40517478  1
  O2-  O239  1  0.71275718  0.83368427  0.73702969  1
  O2-  O240  1  0.44741221  0.41835648  0.27050994  1
  O2-  O241  1  0.45377242  0.41969080  0.59594456  1
  O2-  O242  1  0.44615771  0.42061572  0.94344103  1
  O2-  O243  1  0.46047283  0.91033391  0.27081332  1
  O2-  O244  1  0.45436461  0.91486333  0.60291539  1
  O2-  O245  1  0.46169254  0.91593347  0.93057347  1
  O2-  O246  1  0.96067678  0.41152773  0.27153882  1
  O2-  O247  1  0.96480803  0.41394742  0.59359541  1
  O2-  O248  1  0.96306493  0.41533376  0.93048053  1
  O2-  O249  1  0.95112950  0.91769990  0.27196740  1
  O2-  O250  1  0.94945860  0.91849394  0.60315316  1
  O2-  O251  1  0.95177526  0.91475948  0.93472714  1
  O2-  O252  1  0.33139356  0.29469823  0.27150018  1
  O2-  O253  1  0.32753829  0.29357377  0.59832875  1
  O2-  O254  1  0.33549069  0.29435912  0.94105009  1
  O2-  O255  1  0.33774531  0.79475650  0.27070628  1
  O2-  O256  1  0.33578979  0.79578367  0.60119666  1
  O2-  O257  1  0.33725362  0.79083059  0.92527189  1
  O2-  O258  1  0.83876400  0.29451724  0.26906131  1
  O2-  O259  1  0.83451088  0.29268562  0.59101209  1
  O2-  O260  1  0.83077115  0.29451113  0.93223801  1
  O2-  O261  1  0.83163695  0.79748194  0.27379978  1
  O2-  O262  1  0.83548849  0.79494814  0.60337275  1
  O2-  O263  1  0.83071826  0.79786896  0.93901359  1
  O2-  O264  1  0.41234698  0.03323460  0.07033261  1
  O2-  O265  1  0.40925591  0.03508667  0.39704778  1
  O2-  O266  1  0.41303728  0.03783474  0.73594173  1
  O2-  O267  1  0.41568291  0.55543327  0.06160520  1
  O2-  O268  1  0.42258716  0.54768282  0.40049492  1
  O2-  O269  1  0.41606477  0.54522459  0.72849084  1
  O2-  O270  1  0.92416605  0.04447887  0.06549707  1
  O2-  O271  1  0.91712841  0.04866946  0.39941310  1
  O2-  O272  1  0.91739932  0.05139578  0.72825902  1
  O2-  O273  1  0.91819493  0.53661004  0.06713752  1
  O2-  O274  1  0.91372129  0.53498207  0.40436361  1
  O2-  O275  1  0.91442496  0.53783933  0.72543636  1
  O2-  O276  1  0.29090909  0.16570081  0.07301006  1
  O2-  O277  1  0.29604344  0.16156505  0.39694864  1
  O2-  O278  1  0.28804811  0.16826060  0.73433277  1
  O2-  O279  1  0.29454154  0.67004592  0.05659196  1
  O2-  O280  1  0.29280250  0.67180975  0.40289796  1
  O2-  O281  1  0.29568469  0.66505562  0.72811844  1
  O2-  O282  1  0.79769990  0.17002847  0.06684390  1
  O2-  O283  1  0.79809368  0.16850432  0.39435369  1
  O2-  O284  1  0.79773924  0.17089025  0.72330961  1
  O2-  O285  1  0.79938212  0.66820505  0.06922310  1
  O2-  O286  1  0.79118745  0.66624000  0.40440566  1
  O2-  O287  1  0.79870441  0.66195914  0.72699092  1
