# generated using pymatgen
data_Ca2Al2SiO7
_symmetry_space_group_name_H-M   'P 1'
_cell_length_a   15.45756038
_cell_length_b   15.45708977
_cell_length_c   15.28366571
_cell_angle_alpha   89.99990533
_cell_angle_beta   90.01026737
_cell_angle_gamma   90.00761103
_symmetry_Int_Tables_number   1
_chemical_formula_structural   Ca2Al2SiO7
_chemical_formula_sum   'Ca48 Al48 Si24 O168'
_cell_volume   3651.70931950
_cell_formula_units_Z   24
loop_
 _symmetry_equiv_pos_site_id
 _symmetry_equiv_pos_as_xyz
  1  'x, y, z'
loop_
 _atom_type_symbol
 _atom_type_oxidation_number
  Ca2+  2.0
  Al0+  0.0
  Si0+  0.0
  O2-  -2.0
loop_
 _atom_site_type_symbol
 _atom_site_label
 _atom_site_symmetry_multiplicity
 _atom_site_fract_x
 _atom_site_fract_y
 _atom_site_fract_z
 _atom_site_occupancy
  Ca2+  Ca0  1  0.16650239  0.08215577  0.17858035  1
  Ca2+  Ca1  1  0.16879735  0.07515694  0.49615216  1
  Ca2+  Ca2  1  0.16401677  0.08121875  0.83531148  1
  Ca2+  Ca3  1  0.16512240  0.57294797  0.17438792  1
  Ca2+  Ca4  1  0.17147127  0.58048467  0.50247106  1
  Ca2+  Ca5  1  0.18171504  0.57999579  0.84367589  1
  Ca2+  Ca6  1  0.67139550  0.07303263  0.17990923  1
  Ca2+  Ca7  1  0.67417395  0.08633712  0.49943294  1
  Ca2+  Ca8  1  0.67471723  0.07592523  0.84038547  1
  Ca2+  Ca9  1  0.66435693  0.58305047  0.17291303  1
  Ca2+  Ca10  1  0.65062308  0.57401499  0.50017594  1
  Ca2+  Ca11  1  0.65865527  0.58061674  0.83629402  1
  Ca2+  Ca12  1  0.08703032  0.32454704  0.15981653  1
  Ca2+  Ca13  1  0.08239242  0.32652737  0.48652470  1
  Ca2+  Ca14  1  0.08257153  0.33339550  0.83750858  1
  Ca2+  Ca15  1  0.08085646  0.83136784  0.16569259  1
  Ca2+  Ca16  1  0.08877621  0.83195698  0.49139648  1
  Ca2+  Ca17  1  0.07747856  0.84012826  0.82943827  1
  Ca2+  Ca18  1  0.58167013  0.33019102  0.17245275  1
  Ca2+  Ca19  1  0.57945734  0.33312745  0.48787136  1
  Ca2+  Ca20  1  0.58404599  0.33493141  0.82669773  1
  Ca2+  Ca21  1  0.58660947  0.82915203  0.16205910  1
  Ca2+  Ca22  1  0.57879720  0.82349797  0.48708316  1
  Ca2+  Ca23  1  0.58689672  0.82125799  0.83043962  1
  Ca2+  Ca24  1  0.32600507  0.41955623  0.17150601  1
  Ca2+  Ca25  1  0.33088760  0.41830597  0.49951970  1
  Ca2+  Ca26  1  0.33184699  0.42896852  0.84102688  1
  Ca2+  Ca27  1  0.32996291  0.92350409  0.17999458  1
  Ca2+  Ca28  1  0.32761087  0.91293056  0.49550944  1
  Ca2+  Ca29  1  0.32545879  0.91505387  0.83529499  1
  Ca2+  Ca30  1  0.83030417  0.41449905  0.17316881  1
  Ca2+  Ca31  1  0.81915212  0.41654617  0.50107702  1
  Ca2+  Ca32  1  0.82923508  0.41632578  0.83692552  1
  Ca2+  Ca33  1  0.82526073  0.91593931  0.17295437  1
  Ca2+  Ca34  1  0.83000108  0.92860832  0.49798734  1
  Ca2+  Ca35  1  0.83096740  0.91885256  0.84008618  1
  Ca2+  Ca36  1  0.41442838  0.16951110  0.17042702  1
  Ca2+  Ca37  1  0.42106750  0.17360765  0.48396010  1
  Ca2+  Ca38  1  0.41927227  0.17040462  0.83085999  1
  Ca2+  Ca39  1  0.42573212  0.66952786  0.16639065  1
  Ca2+  Ca40  1  0.42102995  0.66959489  0.49290440  1
  Ca2+  Ca41  1  0.42292901  0.65822667  0.82914564  1
  Ca2+  Ca42  1  0.92676361  0.16676908  0.16250253  1
  Ca2+  Ca43  1  0.91746430  0.16195894  0.49275842  1
  Ca2+  Ca44  1  0.91930354  0.16838289  0.83314112  1
  Ca2+  Ca45  1  0.92287880  0.67079678  0.16373550  1
  Ca2+  Ca46  1  0.92594120  0.66978710  0.49136215  1
  Ca2+  Ca47  1  0.91690444  0.67461850  0.83341479  1
  Al0+  Al48  1  0.00027928  0.00116823  -0.00801584  1
  Al0+  Al49  1  -0.00083231  0.00015377  0.33609314  1
  Al0+  Al50  1  -0.00080849  0.00145336  0.67324104  1
  Al0+  Al51  1  -0.00053130  0.49924456  -0.00235116  1
  Al0+  Al52  1  0.00004842  0.50049383  0.33500057  1
  Al0+  Al53  1  -0.00293816  0.49942591  0.66625619  1
  Al0+  Al54  1  0.49985636  -0.00174597  0.00081517  1
  Al0+  Al55  1  0.50005270  0.00012967  0.33571884  1
  Al0+  Al56  1  0.49985721  -0.00067802  0.66706237  1
  Al0+  Al57  1  0.50017224  0.49984314  0.00168502  1
  Al0+  Al58  1  0.49889889  0.50056823  0.32745293  1
  Al0+  Al59  1  0.49858497  0.49856629  0.67058573  1
  Al0+  Al60  1  0.25139247  0.25023553  -0.00483968  1
  Al0+  Al61  1  0.24905354  0.25076658  0.33374801  1
  Al0+  Al62  1  0.24841036  0.24858821  0.66621410  1
  Al0+  Al63  1  0.25307220  0.75118335  0.00503859  1
  Al0+  Al64  1  0.25077025  0.74841400  0.32666436  1
  Al0+  Al65  1  0.24974203  0.75011516  0.67669338  1
  Al0+  Al66  1  0.75120626  0.24931798  -0.00312829  1
  Al0+  Al67  1  0.74887972  0.25234638  0.33708433  1
  Al0+  Al68  1  0.75095127  0.25037910  0.67562084  1
  Al0+  Al69  1  0.74984206  0.74824783  -0.00565370  1
  Al0+  Al70  1  0.75207425  0.75008819  0.33566943  1
  Al0+  Al71  1  0.75112698  0.74895845  0.65854278  1
  Al0+  Al72  1  0.17891095  0.42974609  0.01504698  1
  Al0+  Al73  1  0.56881388  0.67950260  0.98466828  1
  Al0+  Al74  1  0.32428315  0.57264848  0.01983915  1
  Al0+  Al75  1  0.42719159  0.32183917  0.31743870  1
  Al0+  Al76  1  0.17767342  0.42851431  0.34737862  1
  Al0+  Al77  1  0.92701870  0.32251784  0.98383951  1
  Al0+  Al78  1  0.06885829  0.17880251  0.32236564  1
  Al0+  Al79  1  0.57351914  0.17868103  0.31983046  1
  Al0+  Al80  1  0.81941199  0.06995204  0.68396697  1
  Al0+  Al81  1  0.93051058  0.81915457  0.98672224  1
  Al0+  Al82  1  0.42862698  0.82246259  0.31837186  1
  Al0+  Al83  1  0.17894040  0.92689148  0.34532086  1
  Al0+  Al84  1  0.07215486  0.67752001  0.32077177  1
  Al0+  Al85  1  0.07315151  0.17945326  0.98234932  1
  Al0+  Al86  1  0.68075079  0.92769940  0.01211703  1
  Al0+  Al87  1  0.56940720  0.67834433  0.65144943  1
  Al0+  Al88  1  0.67861134  0.43251446  0.34470988  1
  Al0+  Al89  1  0.18093814  0.93060137  0.68124539  1
  Al0+  Al90  1  0.67693158  0.92601793  0.34921418  1
  Al0+  Al91  1  0.68007431  0.43239724  0.68087111  1
  Al0+  Al92  1  0.82038893  0.07185137  0.34585545  1
  Al0+  Al93  1  0.32193535  0.07269170  0.34743296  1
  Al0+  Al94  1  0.57247030  0.67983939  0.31734326  1
  Al0+  Al95  1  0.31837745  0.56839835  0.67942697  1
  Si0+  Si96  1  0.82232733  0.07199633  0.01718847  1
  Si0+  Si97  1  0.06943541  0.17911983  0.64934264  1
  Si0+  Si98  1  0.92736295  0.32127565  0.65003009  1
  Si0+  Si99  1  0.42917527  0.31914342  0.65339482  1
  Si0+  Si100  1  0.93026916  0.82313305  0.64970300  1
  Si0+  Si101  1  0.92967647  0.82234130  0.31818449  1
  Si0+  Si102  1  0.67729775  0.92548763  0.68268249  1
  Si0+  Si103  1  0.57147361  0.17673162  0.98471762  1
  Si0+  Si104  1  0.17698065  0.93106490  0.01485238  1
  Si0+  Si105  1  0.32174633  0.07083756  0.01349510  1
  Si0+  Si106  1  0.32087773  0.57073662  0.34920966  1
  Si0+  Si107  1  0.42734339  0.82476089  0.98110664  1
  Si0+  Si108  1  0.67934995  0.42691824  0.01548634  1
  Si0+  Si109  1  0.43143464  0.31975547  0.98342354  1
  Si0+  Si110  1  0.82376615  0.57321195  0.35023752  1
  Si0+  Si111  1  0.32359106  0.07463816  0.68404466  1
  Si0+  Si112  1  0.92725165  0.32295125  0.31939266  1
  Si0+  Si113  1  0.07438478  0.67790656  0.98317043  1
  Si0+  Si114  1  0.82039314  0.57086471  0.01321958  1
  Si0+  Si115  1  0.42563686  0.82260687  0.65111440  1
  Si0+  Si116  1  0.82493646  0.57409993  0.68404049  1
  Si0+  Si117  1  0.17423351  0.42525041  0.68311867  1
  Si0+  Si118  1  0.07149197  0.67981981  0.65470336  1
  Si0+  Si119  1  0.57227741  0.17874148  0.65447911  1
  O2-  O120  1  0.24915599  0.00128006  0.05490036  1
  O2-  O121  1  0.25210751  -0.00249847  0.39609371  1
  O2-  O122  1  0.25668947  0.00443697  0.72864480  1
  O2-  O123  1  0.24669305  0.50474604  0.06638992  1
  O2-  O124  1  0.25171200  0.50307963  0.39488596  1
  O2-  O125  1  0.24193907  0.49494230  0.72626849  1
  O2-  O126  1  0.75387166  0.00318678  0.05983587  1
  O2-  O127  1  0.74566973  0.00272167  0.39708072  1
  O2-  O128  1  0.74441460  -0.00540346  0.72907511  1
  O2-  O129  1  0.75327449  0.49596488  0.05511857  1
  O2-  O130  1  0.75036722  0.50907989  0.39359723  1
  O2-  O131  1  0.75270827  0.50900854  0.72818034  1
  O2-  O132  1  -0.00448802  0.25441131  0.27539403  1
  O2-  O133  1  0.00181782  0.25392629  0.60808990  1
  O2-  O134  1  0.00042616  0.25186799  0.93304448  1
  O2-  O135  1  -0.00173745  0.75317836  0.27462943  1
  O2-  O136  1  0.00084420  0.75023475  0.61014438  1
  O2-  O137  1  0.00885777  0.74888774  0.93703847  1
  O2-  O138  1  0.49818716  0.24715383  0.26891461  1
  O2-  O139  1  0.49678216  0.24468030  0.61243831  1
  O2-  O140  1  0.50338628  0.24974138  0.94020621  1
  O2-  O141  1  0.50597615  0.75663437  0.26735048  1
  O2-  O142  1  0.49771820  0.75723295  0.60776130  1
  O2-  O143  1  0.49278553  0.75282041  0.93690589  1
  O2-  O144  1  0.07289750  0.17720203  0.09557432  1
  O2-  O145  1  0.06703815  0.17892925  0.43608579  1
  O2-  O146  1  0.06977000  0.17985500  0.75437961  1
  O2-  O147  1  0.07044790  0.67766450  0.08847323  1
  O2-  O148  1  0.07052794  0.67756393  0.43483810  1
  O2-  O149  1  0.06909265  0.68113981  0.75978055  1
  O2-  O150  1  0.57095975  0.17665705  0.08893875  1
  O2-  O151  1  0.57488700  0.18477747  0.43423533  1
  O2-  O152  1  0.57041887  0.18051020  0.76030854  1
  O2-  O153  1  0.57159740  0.68044167  0.09683551  1
  O2-  O154  1  0.56642299  0.67688046  0.43111716  1
  O2-  O155  1  0.56816484  0.67849928  0.76486475  1
  O2-  O156  1  0.17610405  0.42910781  0.23477571  1
  O2-  O157  1  0.17426553  0.42445701  0.57769176  1
  O2-  O158  1  0.18300856  0.43108348  0.90053364  1
  O2-  O159  1  0.17673855  0.92970866  0.23158354  1
  O2-  O160  1  0.18065971  0.92943140  0.56892433  1
  O2-  O161  1  0.17813895  0.93182448  0.90917649  1
  O2-  O162  1  0.68240857  0.43173002  0.23139679  1
  O2-  O163  1  0.67945639  0.43122112  0.56823455  1
  O2-  O164  1  0.67815362  0.42806986  0.90991752  1
  O2-  O165  1  0.68284774  0.92412770  0.23528595  1
  O2-  O166  1  0.67786056  0.92727937  0.57784900  1
  O2-  O167  1  0.68248017  0.92981361  0.89830858  1
  O2-  O168  1  0.43049508  0.31795790  0.08768669  1
  O2-  O169  1  0.42939341  0.32344950  0.43200439  1
  O2-  O170  1  0.43067339  0.31840737  0.75908919  1
  O2-  O171  1  0.42944166  0.82963393  0.08571261  1
  O2-  O172  1  0.42539620  0.81570382  0.43254884  1
  O2-  O173  1  0.42545837  0.82311776  0.75692532  1
  O2-  O174  1  0.92294617  0.31977565  0.09695762  1
  O2-  O175  1  0.92858195  0.32327675  0.42555268  1
  O2-  O176  1  0.92763464  0.32141560  0.75491472  1
  O2-  O177  1  0.93121694  0.81691811  0.09943880  1
  O2-  O178  1  0.93099574  0.82130413  0.42425517  1
  O2-  O179  1  0.92989066  0.82222857  0.75515151  1
  O2-  O180  1  0.31701175  0.07376688  0.23324870  1
  O2-  O181  1  0.32296330  0.07910327  0.57965815  1
  O2-  O182  1  0.32331360  0.06912359  0.90772381  1
  O2-  O183  1  0.31953070  0.56868158  0.24401238  1
  O2-  O184  1  0.31679542  0.56760880  0.56657064  1
  O2-  O185  1  0.32493682  0.56835936  0.90535115  1
  O2-  O186  1  0.82252037  0.06938709  0.23236764  1
  O2-  O187  1  0.81956470  0.07054221  0.57133326  1
  O2-  O188  1  0.81975182  0.07123271  0.91100679  1
  O2-  O189  1  0.82661232  0.57166464  0.24442944  1
  O2-  O190  1  0.83234175  0.57107775  0.57922362  1
  O2-  O191  1  0.81843620  0.57212803  0.90783386  1
  O2-  O192  1  0.03797488  0.08266678  0.26760718  1
  O2-  O193  1  0.03698727  0.08762355  0.60500278  1
  O2-  O194  1  0.04283757  0.08271195  0.92596579  1
  O2-  O195  1  0.03693737  0.58266598  0.26574875  1
  O2-  O196  1  0.04453308  0.58686162  0.60803992  1
  O2-  O197  1  0.04658335  0.58570370  0.93560670  1
  O2-  O198  1  0.55079198  0.07855907  0.26954417  1
  O2-  O199  1  0.55075142  0.08452948  0.60922481  1
  O2-  O200  1  0.54036311  0.08635553  0.93520352  1
  O2-  O201  1  0.54074076  0.58367708  0.26256405  1
  O2-  O202  1  0.53354917  0.58149332  0.60099263  1
  O2-  O203  1  0.53863999  0.58119035  0.93181073  1
  O2-  O204  1  0.16461011  0.20941573  0.26853995  1
  O2-  O205  1  0.16338647  0.20280639  0.60378584  1
  O2-  O206  1  0.17131625  0.20767416  0.92648965  1
  O2-  O207  1  0.16662625  0.70470129  0.26301513  1
  O2-  O208  1  0.16388808  0.70833624  0.60963228  1
  O2-  O209  1  0.17023991  0.70194982  0.94081615  1
  O2-  O210  1  0.66981559  0.21274995  0.26530452  1
  O2-  O211  1  0.66369373  0.21104108  0.61027195  1
  O2-  O212  1  0.66359308  0.20293207  0.93646938  1
  O2-  O213  1  0.67473752  0.70145382  0.26922841  1
  O2-  O214  1  0.66853103  0.70129177  0.59830839  1
  O2-  O215  1  0.66465678  0.71008597  0.92809516  1
  O2-  O216  1  0.07761629  0.45262032  0.06428871  1
  O2-  O217  1  0.08148434  0.45955577  0.40306627  1
  O2-  O218  1  0.07960002  0.44971691  0.72764656  1
  O2-  O219  1  0.08460407  0.95937189  0.05965735  1
  O2-  O220  1  0.08193695  0.95612377  0.40056386  1
  O2-  O221  1  0.08567001  0.96397495  0.73683360  1
  O2-  O222  1  0.58858407  0.45616473  0.06214589  1
  O2-  O223  1  0.58086421  0.46182583  0.39796043  1
  O2-  O224  1  0.58363555  0.46045430  0.73716773  1
  O2-  O225  1  0.58328047  0.95736586  0.06398159  1
  O2-  O226  1  0.57758480  0.94817010  0.40139482  1
  O2-  O227  1  0.58245752  0.94854763  0.72867906  1
  O2-  O228  1  0.21146685  0.33052261  0.06347151  1
  O2-  O229  1  0.20893764  0.33358489  0.40337266  1
  O2-  O230  1  0.20070858  0.33146929  0.72873012  1
  O2-  O231  1  0.20106454  0.83783789  0.06027952  1
  O2-  O232  1  0.20719364  0.82739459  0.39711163  1
  O2-  O233  1  0.20886403  0.83541946  0.74041245  1
  O2-  O234  1  0.70525021  0.33370926  0.06068731  1
  O2-  O235  1  0.71032610  0.33817038  0.40259298  1
  O2-  O236  1  0.71230047  0.33744224  0.73788631  1
  O2-  O237  1  0.71401908  0.83110250  0.06338616  1
  O2-  O238  1  0.71018611  0.82947407  0.40432507  1
  O2-  O239  1  0.70631224  0.83122664  0.72614061  1
  O2-  O240  1  0.45864332  0.41731134  0.26165368  1
  O2-  O241  1  0.45992026  0.40946623  0.60650069  1
  O2-  O242  1  0.46111040  0.41114407  0.93596169  1
  O2-  O243  1  0.44786603  0.92405378  0.26921530  1
  O2-  O244  1  0.44601204  0.91857969  0.60684397  1
  O2-  O245  1  0.45475053  0.91714487  0.93173285  1
  O2-  O246  1  0.95163565  0.41660882  0.27360813  1
  O2-  O247  1  0.94982097  0.41500740  0.60328475  1
  O2-  O248  1  0.95285254  0.42167738  0.92888823  1
  O2-  O249  1  0.95525573  0.91478157  0.27108227  1
  O2-  O250  1  0.96102426  0.91500236  0.60506783  1
  O2-  O251  1  0.95866721  0.91537852  0.92980986  1
  O2-  O252  1  0.32938073  0.29330179  0.26429221  1
  O2-  O253  1  0.33526081  0.29545508  0.60764625  1
  O2-  O254  1  0.34159564  0.29085605  0.93228947  1
  O2-  O255  1  0.33296988  0.79091745  0.26155264  1
  O2-  O256  1  0.33211185  0.79258043  0.60766934  1
  O2-  O257  1  0.33152630  0.80169557  0.93708229  1
  O2-  O258  1  0.83357545  0.29916459  0.27408294  1
  O2-  O259  1  0.83557834  0.28922375  0.60509505  1
  O2-  O260  1  0.82917311  0.29245875  0.92768597  1
  O2-  O261  1  0.83685925  0.79545813  0.27188111  1
  O2-  O262  1  0.83918602  0.79690634  0.60049200  1
  O2-  O263  1  0.83715367  0.78384861  0.92847048  1
  O2-  O264  1  0.41280389  0.04274164  0.06136385  1
  O2-  O265  1  0.42088339  0.04991208  0.40143747  1
  O2-  O266  1  0.41834011  0.05127561  0.73048846  1
  O2-  O267  1  0.42064282  0.53765068  0.07157797  1
  O2-  O268  1  0.41405345  0.54320897  0.39452894  1
  O2-  O269  1  0.41230523  0.53309029  0.73615626  1
  O2-  O270  1  0.91767520  0.04641943  0.05808600  1
  O2-  O271  1  0.91581580  0.03907384  0.40304628  1
  O2-  O272  1  0.91481374  0.03829759  0.73946393  1
  O2-  O273  1  0.91379022  0.54802334  0.05952302  1
  O2-  O274  1  0.91437764  0.54287124  0.40018565  1
  O2-  O275  1  0.91645118  0.54525075  0.73415976  1
  O2-  O276  1  0.29678237  0.16422337  0.05738416  1
  O2-  O277  1  0.29082090  0.16941374  0.40224704  1
  O2-  O278  1  0.29483100  0.16711121  0.73290922  1
  O2-  O279  1  0.30396046  0.67426869  0.06848843  1
  O2-  O280  1  0.29447437  0.66413650  0.39432198  1
  O2-  O281  1  0.29017495  0.66366574  0.73776888  1
  O2-  O282  1  0.79695538  0.16625453  0.06072986  1
  O2-  O283  1  0.79480255  0.17038448  0.40088098  1
  O2-  O284  1  0.78865528  0.16529552  0.74056541  1
  O2-  O285  1  0.78887465  0.66060679  0.06139290  1
  O2-  O286  1  0.80517515  0.66780066  0.39650276  1
  O2-  O287  1  0.80210532  0.67012996  0.72632098  1
