# generated using pymatgen
data_Ca2Al2SiO7
_symmetry_space_group_name_H-M   'P 1'
_cell_length_a   15.45850533
_cell_length_b   15.45923201
_cell_length_c   15.28506599
_cell_angle_alpha   90.00571112
_cell_angle_beta   90.00102591
_cell_angle_gamma   90.00751448
_symmetry_Int_Tables_number   1
_chemical_formula_structural   Ca2Al2SiO7
_chemical_formula_sum   'Ca48 Al48 Si24 O168'
_cell_volume   3652.77336292
_cell_formula_units_Z   24
loop_
 _symmetry_equiv_pos_site_id
 _symmetry_equiv_pos_as_xyz
  1  'x, y, z'
loop_
 _atom_type_symbol
 _atom_type_oxidation_number
  Ca2+  2.0
  Al0+  0.0
  Si0+  0.0
  O2-  -2.0
loop_
 _atom_site_type_symbol
 _atom_site_label
 _atom_site_symmetry_multiplicity
 _atom_site_fract_x
 _atom_site_fract_y
 _atom_site_fract_z
 _atom_site_occupancy
  Ca2+  Ca0  1  0.17136931  0.07562049  0.17959546  1
  Ca2+  Ca1  1  0.17728023  0.06861407  0.50143042  1
  Ca2+  Ca2  1  0.17074742  0.07661113  0.83207131  1
  Ca2+  Ca3  1  0.15612653  0.57545100  0.16972322  1
  Ca2+  Ca4  1  0.16315518  0.58228738  0.50417025  1
  Ca2+  Ca5  1  0.16896236  0.59007505  0.83643113  1
  Ca2+  Ca6  1  0.66895953  0.07718140  0.16518615  1
  Ca2+  Ca7  1  0.66611943  0.07521255  0.49931812  1
  Ca2+  Ca8  1  0.67110992  0.07791855  0.84681115  1
  Ca2+  Ca9  1  0.67158672  0.58298429  0.17572241  1
  Ca2+  Ca10  1  0.67928994  0.59952914  0.49870239  1
  Ca2+  Ca11  1  0.67722922  0.58022846  0.83922431  1
  Ca2+  Ca12  1  0.08074429  0.33683830  0.15939916  1
  Ca2+  Ca13  1  0.08795081  0.33283139  0.49259492  1
  Ca2+  Ca14  1  0.08120022  0.33607584  0.83634246  1
  Ca2+  Ca15  1  0.08641517  0.82292490  0.16444750  1
  Ca2+  Ca16  1  0.08159659  0.82559699  0.49217643  1
  Ca2+  Ca17  1  0.07879168  0.82521596  0.82137811  1
  Ca2+  Ca18  1  0.57918426  0.32950841  0.15898742  1
  Ca2+  Ca19  1  0.57358611  0.32873798  0.49065283  1
  Ca2+  Ca20  1  0.59257641  0.32602097  0.83404654  1
  Ca2+  Ca21  1  0.58431825  0.83660037  0.16972702  1
  Ca2+  Ca22  1  0.57193237  0.83209659  0.48997373  1
  Ca2+  Ca23  1  0.57841221  0.83765617  0.82882450  1
  Ca2+  Ca24  1  0.32279590  0.41428959  0.17496575  1
  Ca2+  Ca25  1  0.33075728  0.42301091  0.50132921  1
  Ca2+  Ca26  1  0.32650545  0.42679512  0.83791009  1
  Ca2+  Ca27  1  0.32959392  0.92267017  0.17867130  1
  Ca2+  Ca28  1  0.32692400  0.91179297  0.50553645  1
  Ca2+  Ca29  1  0.32948780  0.91295917  0.82954199  1
  Ca2+  Ca30  1  0.83018116  0.41973200  0.16928433  1
  Ca2+  Ca31  1  0.83156354  0.43328738  0.50310860  1
  Ca2+  Ca32  1  0.83268009  0.42111970  0.84067113  1
  Ca2+  Ca33  1  0.82498592  0.91379505  0.17367307  1
  Ca2+  Ca34  1  0.82900717  0.90066623  0.50031784  1
  Ca2+  Ca35  1  0.82871681  0.91885403  0.84154148  1
  Ca2+  Ca36  1  0.41757901  0.16939993  0.16537256  1
  Ca2+  Ca37  1  0.40423211  0.17018487  0.49299127  1
  Ca2+  Ca38  1  0.42116187  0.16414769  0.82982455  1
  Ca2+  Ca39  1  0.41933809  0.67319111  0.16886476  1
  Ca2+  Ca40  1  0.41782369  0.67438428  0.49395696  1
  Ca2+  Ca41  1  0.41789813  0.67103201  0.82353053  1
  Ca2+  Ca42  1  0.91397538  0.17277273  0.15726473  1
  Ca2+  Ca43  1  0.92029180  0.17049169  0.49624535  1
  Ca2+  Ca44  1  0.90761841  0.17379716  0.83438767  1
  Ca2+  Ca45  1  0.92350647  0.66781396  0.16955429  1
  Ca2+  Ca46  1  0.92280151  0.67202246  0.49420356  1
  Ca2+  Ca47  1  0.92704758  0.66830732  0.82447503  1
  Al0+  Al48  1  0.00160672  0.00060009  0.00308449  1
  Al0+  Al49  1  -0.00014530  0.00111597  0.33402957  1
  Al0+  Al50  1  -0.00179681  0.00227894  0.66655939  1
  Al0+  Al51  1  0.00164419  0.50021034  -0.00574900  1
  Al0+  Al52  1  -0.00162246  0.49974310  0.33885607  1
  Al0+  Al53  1  -0.00265280  0.49877128  0.66776928  1
  Al0+  Al54  1  0.49994590  0.00134564  -0.00096815  1
  Al0+  Al55  1  0.50273012  0.00313589  0.33681511  1
  Al0+  Al56  1  0.50102994  0.00003025  0.66575309  1
  Al0+  Al57  1  0.49963985  0.50228643  0.00215250  1
  Al0+  Al58  1  0.49843130  0.49727586  0.32478357  1
  Al0+  Al59  1  0.49942596  0.49598247  0.67057031  1
  Al0+  Al60  1  0.24992224  0.25205492  0.00032385  1
  Al0+  Al61  1  0.24829576  0.25057405  0.33551002  1
  Al0+  Al62  1  0.25047069  0.24854833  0.67178914  1
  Al0+  Al63  1  0.25164066  0.75097011  -0.00329091  1
  Al0+  Al64  1  0.25075788  0.74756780  0.32626230  1
  Al0+  Al65  1  0.25002360  0.74792607  0.66753530  1
  Al0+  Al66  1  0.74945643  0.25078003  -0.00038918  1
  Al0+  Al67  1  0.74921900  0.25057105  0.33489012  1
  Al0+  Al68  1  0.74920089  0.24846971  0.66198251  1
  Al0+  Al69  1  0.74937325  0.75023034  0.00318305  1
  Al0+  Al70  1  0.75068208  0.75046684  0.33301974  1
  Al0+  Al71  1  0.75116824  0.74845723  0.67351090  1
  Al0+  Al72  1  0.81899555  0.57020504  0.34625336  1
  Al0+  Al73  1  0.07094469  0.67816870  0.65050306  1
  Al0+  Al74  1  0.32238591  0.07075315  0.68391884  1
  Al0+  Al75  1  0.67766625  0.92833559  0.01604763  1
  Al0+  Al76  1  0.56830097  0.18130572  0.98642509  1
  Al0+  Al77  1  0.67866892  0.42943492  0.01361246  1
  Al0+  Al78  1  0.82259120  0.07150594  0.01452195  1
  Al0+  Al79  1  0.68138515  0.93018538  0.34900559  1
  Al0+  Al80  1  0.42691603  0.31929184  0.31937367  1
  Al0+  Al81  1  0.92719702  0.82351394  0.65310653  1
  Al0+  Al82  1  0.92987718  0.31906027  0.98689699  1
  Al0+  Al83  1  0.07165781  0.67669203  0.31754992  1
  Al0+  Al84  1  0.32150983  0.07063976  0.34621482  1
  Al0+  Al85  1  0.57161079  0.67955953  0.31859989  1
  Al0+  Al86  1  0.17869986  0.92465375  0.34681149  1
  Al0+  Al87  1  0.82013366  0.57069761  0.68258849  1
  Al0+  Al88  1  0.17855657  0.43102383  0.34673081  1
  Al0+  Al89  1  0.07014127  0.68058697  0.98423862  1
  Al0+  Al90  1  0.43085674  0.82000141  0.65365382  1
  Al0+  Al91  1  0.92932492  0.82281533  0.31699486  1
  Al0+  Al92  1  0.32132808  0.57027401  0.67890408  1
  Al0+  Al93  1  0.18042611  0.43164304  0.01307476  1
  Al0+  Al94  1  0.42832507  0.82364471  0.31803634  1
  Al0+  Al95  1  0.17739785  0.92753207  0.68154313  1
  Si0+  Si96  1  0.17986929  0.92813975  0.01442429  1
  Si0+  Si97  1  0.92845916  0.32080805  0.31991036  1
  Si0+  Si98  1  0.32262689  0.57516449  0.01854714  1
  Si0+  Si99  1  0.42778917  0.31957501  0.65242327  1
  Si0+  Si100  1  0.07266542  0.18014722  0.65139472  1
  Si0+  Si101  1  0.06995985  0.18063577  0.31926220  1
  Si0+  Si102  1  0.57280638  0.67754087  0.98382110  1
  Si0+  Si103  1  0.92790639  0.31979411  0.65007264  1
  Si0+  Si104  1  0.57488473  0.17917502  0.31511454  1
  Si0+  Si105  1  0.07491131  0.17618639  0.98308071  1
  Si0+  Si106  1  0.17723733  0.42681029  0.68428373  1
  Si0+  Si107  1  0.67545013  0.42700742  0.34969859  1
  Si0+  Si108  1  0.43149646  0.82119827  0.98383736  1
  Si0+  Si109  1  0.57106589  0.17870293  0.65010220  1
  Si0+  Si110  1  0.67897901  0.42454799  0.68251389  1
  Si0+  Si111  1  0.68060500  0.92984657  0.68127211  1
  Si0+  Si112  1  0.57199895  0.67455640  0.65384119  1
  Si0+  Si113  1  0.82279121  0.57106026  0.01726216  1
  Si0+  Si114  1  0.42578983  0.32418389  0.98114154  1
  Si0+  Si115  1  0.82030052  0.07473922  0.68124585  1
  Si0+  Si116  1  0.92727983  0.82352518  0.98417682  1
  Si0+  Si117  1  0.32456230  0.57067299  0.34790120  1
  Si0+  Si118  1  0.32026751  0.07110729  0.01410426  1
  Si0+  Si119  1  0.82291069  0.07496657  0.35176874  1
  O2-  O120  1  0.24597415  0.00401333  0.05576802  1
  O2-  O121  1  0.25737933  -0.00888238  0.39522469  1
  O2-  O122  1  0.25121828  -0.00218625  0.73367483  1
  O2-  O123  1  0.25566954  0.50446684  0.06146839  1
  O2-  O124  1  0.25163701  0.50678370  0.39304404  1
  O2-  O125  1  0.24279328  0.49925940  0.72650130  1
  O2-  O126  1  0.75483048  -0.00406372  0.06445664  1
  O2-  O127  1  0.75838912  0.00290885  0.39689332  1
  O2-  O128  1  0.75443684  -0.00132259  0.72209534  1
  O2-  O129  1  0.75101122  0.50541849  0.06122977  1
  O2-  O130  1  0.73967049  0.49929271  0.39398602  1
  O2-  O131  1  0.74436622  0.49570585  0.72721406  1
  O2-  O132  1  -0.00392682  0.24792780  0.27657674  1
  O2-  O133  1  0.00274470  0.25273279  0.60870570  1
  O2-  O134  1  0.00246046  0.24166929  0.93914941  1
  O2-  O135  1  0.00477864  0.75403475  0.26752994  1
  O2-  O136  1  0.00168414  0.75412906  0.60302596  1
  O2-  O137  1  -0.00436641  0.75584787  0.93851992  1
  O2-  O138  1  0.50376553  0.24656375  0.27333277  1
  O2-  O139  1  0.49742114  0.24738459  0.60943819  1
  O2-  O140  1  0.49646758  0.25775442  0.93627126  1
  O2-  O141  1  0.50057638  0.75199638  0.26695816  1
  O2-  O142  1  0.50327990  0.74230861  0.60908834  1
  O2-  O143  1  0.50288572  0.74986106  0.94198774  1
  O2-  O144  1  0.07737144  0.17836602  0.08858264  1
  O2-  O145  1  0.06946742  0.18373648  0.42469252  1
  O2-  O146  1  0.07220972  0.18127691  0.75660513  1
  O2-  O147  1  0.06943435  0.68015516  0.09687400  1
  O2-  O148  1  0.06874961  0.67321733  0.43068308  1
  O2-  O149  1  0.06886652  0.67859687  0.76456389  1
  O2-  O150  1  0.56490900  0.18122340  0.09906632  1
  O2-  O151  1  0.58001788  0.18256972  0.42100001  1
  O2-  O152  1  0.57393275  0.18065882  0.75511451  1
  O2-  O153  1  0.57209905  0.67545897  0.08823982  1
  O2-  O154  1  0.57029638  0.68080216  0.43275307  1
  O2-  O155  1  0.57103822  0.67565932  0.75997458  1
  O2-  O156  1  0.17807788  0.42909768  0.23369128  1
  O2-  O157  1  0.17958641  0.42341053  0.57872155  1
  O2-  O158  1  0.18217496  0.43151236  0.89987870  1
  O2-  O159  1  0.17839084  0.93062982  0.23231743  1
  O2-  O160  1  0.17811511  0.92947890  0.56856824  1
  O2-  O161  1  0.18121555  0.92741595  0.90945058  1
  O2-  O162  1  0.67920105  0.42362895  0.24426872  1
  O2-  O163  1  0.68057954  0.41947506  0.57726399  1
  O2-  O164  1  0.68148447  0.43107766  0.89996561  1
  O2-  O165  1  0.68155815  0.93313445  0.23628007  1
  O2-  O166  1  0.67972035  0.93095382  0.57646475  1
  O2-  O167  1  0.67643348  0.93057701  0.90156847  1
  O2-  O168  1  0.42375306  0.32053299  0.08651369  1
  O2-  O169  1  0.42826470  0.31841531  0.43323606  1
  O2-  O170  1  0.42885830  0.31997210  0.75740648  1
  O2-  O171  1  0.43020932  0.82154714  0.08840641  1
  O2-  O172  1  0.42934952  0.82104581  0.43170257  1
  O2-  O173  1  0.43491955  0.82047871  0.76754837  1
  O2-  O174  1  0.93172694  0.31935906  0.10018242  1
  O2-  O175  1  0.92882946  0.31844110  0.42545115  1
  O2-  O176  1  0.92476443  0.31762678  0.75507615  1
  O2-  O177  1  0.92811507  0.82319413  0.08930457  1
  O2-  O178  1  0.92911502  0.81921184  0.43045579  1
  O2-  O179  1  0.92569475  0.82226763  0.76727626  1
  O2-  O180  1  0.31676528  0.07321289  0.23192423  1
  O2-  O181  1  0.31926374  0.07430995  0.57123863  1
  O2-  O182  1  0.32081785  0.06949679  0.90907292  1
  O2-  O183  1  0.32688463  0.56657949  0.24235544  1
  O2-  O184  1  0.32622715  0.56543639  0.56641658  1
  O2-  O185  1  0.32278942  0.57515199  0.91251886  1
  O2-  O186  1  0.82018971  0.08052493  0.24675190  1
  O2-  O187  1  0.81604697  0.08315685  0.57678232  1
  O2-  O188  1  0.81902696  0.07095788  0.90017299  1
  O2-  O189  1  0.81997226  0.56465073  0.23313240  1
  O2-  O190  1  0.81829654  0.56949675  0.56967813  1
  O2-  O191  1  0.82105356  0.56963206  0.91130905  1
  O2-  O192  1  0.04584531  0.08839286  0.27162217  1
  O2-  O193  1  0.04237686  0.09010391  0.60275778  1
  O2-  O194  1  0.05384296  0.08091960  0.93813295  1
  O2-  O195  1  0.03453888  0.57917403  0.26594496  1
  O2-  O196  1  0.04028207  0.57832630  0.60109238  1
  O2-  O197  1  0.04044251  0.58467799  0.92876596  1
  O2-  O198  1  0.55150217  0.08530558  0.27045388  1
  O2-  O199  1  0.54701076  0.08626638  0.60306939  1
  O2-  O200  1  0.53572122  0.08550902  0.93043915  1
  O2-  O201  1  0.54536743  0.58057621  0.26496660  1
  O2-  O202  1  0.54976171  0.57935005  0.60983830  1
  O2-  O203  1  0.54419958  0.58619745  0.93491170  1
  O2-  O204  1  0.15950028  0.21192657  0.27025732  1
  O2-  O205  1  0.16447025  0.20925178  0.60479890  1
  O2-  O206  1  0.16638639  0.20705232  0.93462825  1
  O2-  O207  1  0.17130871  0.69636070  0.26313263  1
  O2-  O208  1  0.17140514  0.70028416  0.60049801  1
  O2-  O209  1  0.16816103  0.71166098  0.93197119  1
  O2-  O210  1  0.66728026  0.20823632  0.26774304  1
  O2-  O211  1  0.66088412  0.20944163  0.59984347  1
  O2-  O212  1  0.66489768  0.21156934  0.93136694  1
  O2-  O213  1  0.66940897  0.70753924  0.26510366  1
  O2-  O214  1  0.66573895  0.70298898  0.61110832  1
  O2-  O215  1  0.66571707  0.70400446  0.93675326  1
  O2-  O216  1  0.08291302  0.46232756  0.06521599  1
  O2-  O217  1  0.08235970  0.45718474  0.40360326  1
  O2-  O218  1  0.08124490  0.44674949  0.72732560  1
  O2-  O219  1  0.08699461  0.95038998  0.06159379  1
  O2-  O220  1  0.08223427  0.96003823  0.39966763  1
  O2-  O221  1  0.07942882  0.96091879  0.73452188  1
  O2-  O222  1  0.58017732  0.45604974  0.06588813  1
  O2-  O223  1  0.57917980  0.44692925  0.39188466  1
  O2-  O224  1  0.58421769  0.44402857  0.72841597  1
  O2-  O225  1  0.58066081  0.96284497  0.06793698  1
  O2-  O226  1  0.58641930  0.96396329  0.40493534  1
  O2-  O227  1  0.59036071  0.96140358  0.72939196  1
  O2-  O228  1  0.20832832  0.33348721  0.06648028  1
  O2-  O229  1  0.21091735  0.33551501  0.40206417  1
  O2-  O230  1  0.20693433  0.33553631  0.73278454  1
  O2-  O231  1  0.21372950  0.83828275  0.06152916  1
  O2-  O232  1  0.20240516  0.82364088  0.39549832  1
  O2-  O233  1  0.20641750  0.82970744  0.73521149  1
  O2-  O234  1  0.71018289  0.33397483  0.06768813  1
  O2-  O235  1  0.70535963  0.33530821  0.39837460  1
  O2-  O236  1  0.71029261  0.33216569  0.72927454  1
  O2-  O237  1  0.70069571  0.82816206  0.06768764  1
  O2-  O238  1  0.70993142  0.83312757  0.40265892  1
  O2-  O239  1  0.70427773  0.83803721  0.73091052  1
  O2-  O240  1  0.45459012  0.41401086  0.26110925  1
  O2-  O241  1  0.45714848  0.41055775  0.60403191  1
  O2-  O242  1  0.44898672  0.42007119  0.93847337  1
  O2-  O243  1  0.45784365  0.92369448  0.26833456  1
  O2-  O244  1  0.46344896  0.91618879  0.60016842  1
  O2-  O245  1  0.45954719  0.91251562  0.93556588  1
  O2-  O246  1  0.95839983  0.41124220  0.27304518  1
  O2-  O247  1  0.95199841  0.41245152  0.60358875  1
  O2-  O248  1  0.96321813  0.41337552  0.92972317  1
  O2-  O249  1  0.94937455  0.92506255  0.26770369  1
  O2-  O250  1  0.94501421  0.92580871  0.60314341  1
  O2-  O251  1  0.95174036  0.91867085  0.93982074  1
  O2-  O252  1  0.33105626  0.28582565  0.26499441  1
  O2-  O253  1  0.33521753  0.29222492  0.60612202  1
  O2-  O254  1  0.33339127  0.29586041  0.93353395  1
  O2-  O255  1  0.33166254  0.79531169  0.26124415  1
  O2-  O256  1  0.33371318  0.79063263  0.60233447  1
  O2-  O257  1  0.34039170  0.79222287  0.93517213  1
  O2-  O258  1  0.83538155  0.29523631  0.27350179  1
  O2-  O259  1  0.83851607  0.28689504  0.60042191  1
  O2-  O260  1  0.83383237  0.28928089  0.93070075  1
  O2-  O261  1  0.83266867  0.78960391  0.26396662  1
  O2-  O262  1  0.82861854  0.78948794  0.60291571  1
  O2-  O263  1  0.83210446  0.79871690  0.93986860  1
  O2-  O264  1  0.41046526  0.04017391  0.06156342  1
  O2-  O265  1  0.42347457  0.05749773  0.39635912  1
  O2-  O266  1  0.42249601  0.04367100  0.73496040  1
  O2-  O267  1  0.41706504  0.55261215  0.06328724  1
  O2-  O268  1  0.41625749  0.53902794  0.39487025  1
  O2-  O269  1  0.41639143  0.53596321  0.73692147  1
  O2-  O270  1  0.92398412  0.05246672  0.06561503  1
  O2-  O271  1  0.91841695  0.05599072  0.39623856  1
  O2-  O272  1  0.91417387  0.05596593  0.72748708  1
  O2-  O273  1  0.91547309  0.54080860  0.06060914  1
  O2-  O274  1  0.91137517  0.53349383  0.40395225  1
  O2-  O275  1  0.91532230  0.53602058  0.73732166  1
  O2-  O276  1  0.29668541  0.16495518  0.05901775  1
  O2-  O277  1  0.28282532  0.16501950  0.40103585  1
  O2-  O278  1  0.29239251  0.16844013  0.73923175  1
  O2-  O279  1  0.29570043  0.66872990  0.06348207  1
  O2-  O280  1  0.30456760  0.66664483  0.38968176  1
  O2-  O281  1  0.29454008  0.66624160  0.73599557  1
  O2-  O282  1  0.79007252  0.16847587  0.06706916  1
  O2-  O283  1  0.79270296  0.16722189  0.40059191  1
  O2-  O284  1  0.78571752  0.16404112  0.73075001  1
  O2-  O285  1  0.79910436  0.66539630  0.06171986  1
  O2-  O286  1  0.78973996  0.66642178  0.40102677  1
  O2-  O287  1  0.78939124  0.66511981  0.74139127  1
