# generated using pymatgen
data_Ca2Al2SiO7
_symmetry_space_group_name_H-M   'P 1'
_cell_length_a   15.46656395
_cell_length_b   15.46565829
_cell_length_c   15.28755167
_cell_angle_alpha   89.99532651
_cell_angle_beta   90.01781877
_cell_angle_gamma   89.99888800
_symmetry_Int_Tables_number   1
_chemical_formula_structural   Ca2Al2SiO7
_chemical_formula_sum   'Ca48 Al48 Si24 O168'
_cell_volume   3656.79123458
_cell_formula_units_Z   24
loop_
 _symmetry_equiv_pos_site_id
 _symmetry_equiv_pos_as_xyz
  1  'x, y, z'
loop_
 _atom_type_symbol
 _atom_type_oxidation_number
  Ca2+  2.0
  Al0+  0.0
  Si0+  0.0
  O2-  -2.0
loop_
 _atom_site_type_symbol
 _atom_site_label
 _atom_site_symmetry_multiplicity
 _atom_site_fract_x
 _atom_site_fract_y
 _atom_site_fract_z
 _atom_site_occupancy
  Ca2+  Ca0  1  0.15835955  0.07265648  0.17136662  1
  Ca2+  Ca1  1  0.16251083  0.08266921  0.49900413  1
  Ca2+  Ca2  1  0.16450680  0.08216226  0.84266613  1
  Ca2+  Ca3  1  0.17853334  0.58695977  0.17273080  1
  Ca2+  Ca4  1  0.17368427  0.58110995  0.50122730  1
  Ca2+  Ca5  1  0.16965496  0.56902348  0.84520931  1
  Ca2+  Ca6  1  0.67629806  0.09305167  0.17169255  1
  Ca2+  Ca7  1  0.66812453  0.08171261  0.50198781  1
  Ca2+  Ca8  1  0.67118226  0.07865804  0.84437125  1
  Ca2+  Ca9  1  0.66285260  0.58689779  0.16596645  1
  Ca2+  Ca10  1  0.66249732  0.57884478  0.50375008  1
  Ca2+  Ca11  1  0.66686817  0.57309940  0.84530523  1
  Ca2+  Ca12  1  0.08809824  0.32035835  0.15989452  1
  Ca2+  Ca13  1  0.08836122  0.32393417  0.49565283  1
  Ca2+  Ca14  1  0.09158748  0.32550380  0.82856327  1
  Ca2+  Ca15  1  0.08433880  0.83188496  0.16049514  1
  Ca2+  Ca16  1  0.08407059  0.82811869  0.48932443  1
  Ca2+  Ca17  1  0.07739328  0.83633462  0.83783588  1
  Ca2+  Ca18  1  0.58114589  0.32810523  0.16259028  1
  Ca2+  Ca19  1  0.57818740  0.33259306  0.48874611  1
  Ca2+  Ca20  1  0.59183833  0.33204084  0.83457273  1
  Ca2+  Ca21  1  0.56963166  0.82511683  0.15725348  1
  Ca2+  Ca22  1  0.57801886  0.82950715  0.48982209  1
  Ca2+  Ca23  1  0.58207842  0.82912433  0.83233313  1
  Ca2+  Ca24  1  0.33446351  0.42495978  0.16839479  1
  Ca2+  Ca25  1  0.33385016  0.42033046  0.50068560  1
  Ca2+  Ca26  1  0.32268786  0.41950242  0.84228081  1
  Ca2+  Ca27  1  0.32472485  0.90557223  0.17045765  1
  Ca2+  Ca28  1  0.32958820  0.91328109  0.49606360  1
  Ca2+  Ca29  1  0.32613016  0.91680956  0.84342125  1
  Ca2+  Ca30  1  0.82741969  0.41900305  0.16367133  1
  Ca2+  Ca31  1  0.82572034  0.41859212  0.50475737  1
  Ca2+  Ca32  1  0.82355700  0.42121252  0.84316838  1
  Ca2+  Ca33  1  0.83793103  0.92679105  0.16920628  1
  Ca2+  Ca34  1  0.82686311  0.92451381  0.50152592  1
  Ca2+  Ca35  1  0.82956070  0.92018293  0.84203425  1
  Ca2+  Ca36  1  0.42707008  0.16994468  0.16343885  1
  Ca2+  Ca37  1  0.42457509  0.17688976  0.48839730  1
  Ca2+  Ca38  1  0.42358953  0.16590845  0.83423339  1
  Ca2+  Ca39  1  0.41872577  0.66840064  0.16230604  1
  Ca2+  Ca40  1  0.42229243  0.67088974  0.48544302  1
  Ca2+  Ca41  1  0.41421814  0.66557855  0.84110666  1
  Ca2+  Ca42  1  0.92252833  0.15972647  0.16054237  1
  Ca2+  Ca43  1  0.92432926  0.16613916  0.49406373  1
  Ca2+  Ca44  1  0.92650088  0.16289082  0.83503260  1
  Ca2+  Ca45  1  0.92079754  0.67193403  0.15825506  1
  Ca2+  Ca46  1  0.92526839  0.66871413  0.49205838  1
  Ca2+  Ca47  1  0.90514852  0.67258677  0.83663934  1
  Al0+  Al48  1  -0.00041673  -0.00110919  -0.00206399  1
  Al0+  Al49  1  -0.00154471  0.00060328  0.34235843  1
  Al0+  Al50  1  0.00051821  -0.00058152  0.66119571  1
  Al0+  Al51  1  -0.00210789  0.49655630  0.00760265  1
  Al0+  Al52  1  -0.00002291  0.49971184  0.33063256  1
  Al0+  Al53  1  0.00080708  0.50062846  0.66936754  1
  Al0+  Al54  1  0.49884807  -0.00006976  -0.00847800  1
  Al0+  Al55  1  0.49883580  0.00043180  0.32674972  1
  Al0+  Al56  1  0.49931584  -0.00043598  0.66911158  1
  Al0+  Al57  1  0.49798198  0.49866996  0.00224314  1
  Al0+  Al58  1  0.49901637  0.50056784  0.33132493  1
  Al0+  Al59  1  0.50067031  0.50127897  0.67108259  1
  Al0+  Al60  1  0.25249658  0.24765731  -0.00037031  1
  Al0+  Al61  1  0.24928186  0.24866287  0.32506853  1
  Al0+  Al62  1  0.25279816  0.24932232  0.66458424  1
  Al0+  Al63  1  0.24848215  0.74909681  0.00022221  1
  Al0+  Al64  1  0.24892725  0.74841159  0.33776320  1
  Al0+  Al65  1  0.25048417  0.75184601  0.66726280  1
  Al0+  Al66  1  0.75170738  0.24979932  0.00249858  1
  Al0+  Al67  1  0.75224369  0.25169394  0.33812324  1
  Al0+  Al68  1  0.75372535  0.24973815  0.66935103  1
  Al0+  Al69  1  0.74889513  0.75003051  -0.00462823  1
  Al0+  Al70  1  0.75110569  0.75073120  0.33309580  1
  Al0+  Al71  1  0.74903236  0.75274892  0.66627570  1
  Al0+  Al72  1  0.17956816  0.93156067  0.01204033  1
  Al0+  Al73  1  0.31788574  0.56990807  0.01611146  1
  Al0+  Al74  1  0.07074162  0.17966867  0.98669518  1
  Al0+  Al75  1  0.67796633  0.93062390  0.68058226  1
  Al0+  Al76  1  0.57343823  0.67873218  0.31924807  1
  Al0+  Al77  1  0.81939393  0.06826436  0.01251100  1
  Al0+  Al78  1  0.06804546  0.17849810  0.31910175  1
  Al0+  Al79  1  0.82001105  0.57420307  0.01640270  1
  Al0+  Al80  1  0.92961740  0.82021311  0.98733311  1
  Al0+  Al81  1  0.82001926  0.07243661  0.34953451  1
  Al0+  Al82  1  0.56994650  0.67766636  0.98234524  1
  Al0+  Al83  1  0.57393530  0.17940503  0.32022243  1
  Al0+  Al84  1  0.57357050  0.18043869  0.98512156  1
  Al0+  Al85  1  0.42760010  0.82134562  0.31922367  1
  Al0+  Al86  1  0.07220836  0.17988390  0.65142358  1
  Al0+  Al87  1  0.07055401  0.67845885  0.32065512  1
  Al0+  Al88  1  0.67903323  0.42900893  0.67934498  1
  Al0+  Al89  1  0.42784922  0.32251949  0.31742784  1
  Al0+  Al90  1  0.18088928  0.42846187  0.67807657  1
  Al0+  Al91  1  0.32060441  0.56906441  0.34872836  1
  Al0+  Al92  1  0.67847377  0.42853780  0.01764058  1
  Al0+  Al93  1  0.17718823  0.42352408  0.01707331  1
  Al0+  Al94  1  0.42570076  0.82042722  0.98185919  1
  Al0+  Al95  1  0.18026054  0.92999382  0.34808815  1
  Si0+  Si96  1  0.92823410  0.32406404  0.65006315  1
  Si0+  Si97  1  0.32335267  0.07408513  0.34934785  1
  Si0+  Si98  1  0.82401395  0.07039365  0.68463285  1
  Si0+  Si99  1  0.32516575  0.07135895  0.01709439  1
  Si0+  Si100  1  0.68054163  0.43165533  0.34839522  1
  Si0+  Si101  1  0.43167654  0.32131757  0.65311614  1
  Si0+  Si102  1  0.42765461  0.82238941  0.65016386  1
  Si0+  Si103  1  0.67516920  0.92767488  0.01642433  1
  Si0+  Si104  1  0.82251689  0.57323561  0.68115861  1
  Si0+  Si105  1  0.57003948  0.67986463  0.65181851  1
  Si0+  Si106  1  0.57293992  0.17835602  0.65344212  1
  Si0+  Si107  1  0.17844778  0.92866642  0.68190692  1
  Si0+  Si108  1  0.92874182  0.82216238  0.31873529  1
  Si0+  Si109  1  0.17675288  0.42563448  0.34970741  1
  Si0+  Si110  1  0.92797198  0.32229962  0.98283318  1
  Si0+  Si111  1  0.32072168  0.07065586  0.68063253  1
  Si0+  Si112  1  0.92701186  0.32371178  0.31641175  1
  Si0+  Si113  1  0.82343149  0.57358093  0.34914375  1
  Si0+  Si114  1  0.07225793  0.67889164  0.65300022  1
  Si0+  Si115  1  0.92856681  0.82048173  0.64945881  1
  Si0+  Si116  1  0.07086249  0.67524459  0.98379956  1
  Si0+  Si117  1  0.32194840  0.57429632  0.68386609  1
  Si0+  Si118  1  0.67646349  0.92799520  0.34725581  1
  Si0+  Si119  1  0.42908960  0.32097762  0.98073306  1
  O2-  O120  1  0.25667949  0.00243891  0.06007869  1
  O2-  O121  1  0.25512204  0.00515798  0.39526795  1
  O2-  O122  1  0.24780214  0.00135954  0.72279300  1
  O2-  O123  1  0.24413026  0.49988760  0.06655387  1
  O2-  O124  1  0.24637910  0.49306677  0.39510747  1
  O2-  O125  1  0.25223776  0.50566323  0.72554185  1
  O2-  O126  1  0.74220512  -0.00276974  0.06112528  1
  O2-  O127  1  0.74136820  -0.00004348  0.39352962  1
  O2-  O128  1  0.75159876  0.00578936  0.72817218  1
  O2-  O129  1  0.74617923  0.50483061  0.06743203  1
  O2-  O130  1  0.74991872  0.50477264  0.39114222  1
  O2-  O131  1  0.75481069  0.50331248  0.72391497  1
  O2-  O132  1  -0.00438654  0.25492392  0.27308914  1
  O2-  O133  1  -0.00161079  0.25662947  0.60589340  1
  O2-  O134  1  0.00181043  0.25899898  0.93823642  1
  O2-  O135  1  -0.00372147  0.75318374  0.27466082  1
  O2-  O136  1  0.00023267  0.74895363  0.60949037  1
  O2-  O137  1  -0.00052157  0.74103076  0.93823769  1
  O2-  O138  1  0.50016653  0.24924606  0.27056402  1
  O2-  O139  1  0.50740266  0.25448050  0.61136932  1
  O2-  O140  1  0.49996588  0.25476550  0.93526704  1
  O2-  O141  1  0.50253038  0.75209245  0.27111989  1
  O2-  O142  1  0.49827266  0.75013992  0.60944149  1
  O2-  O143  1  0.49934892  0.75057830  0.93046827  1
  O2-  O144  1  0.06656025  0.17676174  0.09938140  1
  O2-  O145  1  0.06742241  0.18054822  0.43290853  1
  O2-  O146  1  0.07109059  0.17783992  0.76426360  1
  O2-  O147  1  0.07160117  0.67986009  0.08918401  1
  O2-  O148  1  0.06814263  0.67915620  0.43506474  1
  O2-  O149  1  0.07329881  0.67992883  0.75757616  1
  O2-  O150  1  0.57276070  0.18176306  0.09768488  1
  O2-  O151  1  0.57301666  0.18261027  0.43524884  1
  O2-  O152  1  0.57031860  0.17737712  0.75821253  1
  O2-  O153  1  0.56934825  0.68093031  0.09545682  1
  O2-  O154  1  0.57281122  0.67963656  0.43431353  1
  O2-  O155  1  0.57060706  0.67957180  0.75611864  1
  O2-  O156  1  0.17543745  0.42697847  0.24496610  1
  O2-  O157  1  0.18386369  0.42891709  0.56499313  1
  O2-  O158  1  0.18084682  0.42386473  0.90235612  1
  O2-  O159  1  0.17784172  0.93043181  0.23559454  1
  O2-  O160  1  0.17968389  0.92598593  0.57703176  1
  O2-  O161  1  0.17873609  0.93439029  0.89791211  1
  O2-  O162  1  0.68259077  0.42915909  0.24419220  1
  O2-  O163  1  0.67806703  0.43150878  0.56574294  1
  O2-  O164  1  0.68286505  0.42789907  0.90335068  1
  O2-  O165  1  0.67997917  0.92521983  0.24251416  1
  O2-  O166  1  0.67854366  0.93127936  0.56719959  1
  O2-  O167  1  0.67796816  0.93003173  0.91001862  1
  O2-  O168  1  0.42867086  0.31836253  0.08586702  1
  O2-  O169  1  0.43118695  0.32229819  0.43270059  1
  O2-  O170  1  0.42925655  0.31890137  0.75768678  1
  O2-  O171  1  0.42559951  0.82009623  0.09481479  1
  O2-  O172  1  0.43002903  0.81980530  0.43420398  1
  O2-  O173  1  0.42503073  0.82309363  0.75451090  1
  O2-  O174  1  0.92502833  0.31898611  0.08821786  1
  O2-  O175  1  0.92681286  0.32466111  0.42266555  1
  O2-  O176  1  0.92653348  0.32420840  0.75500864  1
  O2-  O177  1  0.93365843  0.82283131  0.10012177  1
  O2-  O178  1  0.92870158  0.81908684  0.42527138  1
  O2-  O179  1  0.92825138  0.82163256  0.75432748  1
  O2-  O180  1  0.32295051  0.07525010  0.24451124  1
  O2-  O181  1  0.32295619  0.07016897  0.57575648  1
  O2-  O182  1  0.32335082  0.07178859  0.91040883  1
  O2-  O183  1  0.31949876  0.57000081  0.23675013  1
  O2-  O184  1  0.32278607  0.57498447  0.57826174  1
  O2-  O185  1  0.31517055  0.56766276  0.90144389  1
  O2-  O186  1  0.82226367  0.07000094  0.23687712  1
  O2-  O187  1  0.82367483  0.06889829  0.57892322  1
  O2-  O188  1  0.81992115  0.06597897  0.89889924  1
  O2-  O189  1  0.82526047  0.57413111  0.24500842  1
  O2-  O190  1  0.82262055  0.57326870  0.57508170  1
  O2-  O191  1  0.81887402  0.57119640  0.90184112  1
  O2-  O192  1  0.03381424  0.08108670  0.27011356  1
  O2-  O193  1  0.04054193  0.08314689  0.59700276  1
  O2-  O194  1  0.03467745  0.08553771  0.93065128  1
  O2-  O195  1  0.04165456  0.58225006  0.26670896  1
  O2-  O196  1  0.04586122  0.58668026  0.60512060  1
  O2-  O197  1  0.04788306  0.57901368  0.94190265  1
  O2-  O198  1  0.55045549  0.08080740  0.26727110  1
  O2-  O199  1  0.53964975  0.08821943  0.60576730  1
  O2-  O200  1  0.54199491  0.08487588  0.92854220  1
  O2-  O201  1  0.54510221  0.58124323  0.26791394  1
  O2-  O202  1  0.54267132  0.58707769  0.60501936  1
  O2-  O203  1  0.53977867  0.57828505  0.93115126  1
  O2-  O204  1  0.16512568  0.20310263  0.26480999  1
  O2-  O205  1  0.16979776  0.20934557  0.59774133  1
  O2-  O206  1  0.16991786  0.20454018  0.93364449  1
  O2-  O207  1  0.16610285  0.71071369  0.26879612  1
  O2-  O208  1  0.16374959  0.70896714  0.60506383  1
  O2-  O209  1  0.16208744  0.70407896  0.93520138  1
  O2-  O210  1  0.67228935  0.21082439  0.27052307  1
  O2-  O211  1  0.66797936  0.19962722  0.60950481  1
  O2-  O212  1  0.67031885  0.21101326  0.93067866  1
  O2-  O213  1  0.67353306  0.70300278  0.26885028  1
  O2-  O214  1  0.66221294  0.70765434  0.60419967  1
  O2-  O215  1  0.66855532  0.70468921  0.92836835  1
  O2-  O216  1  0.07605592  0.44146164  0.06648978  1
  O2-  O217  1  0.08288315  0.45236504  0.39620679  1
  O2-  O218  1  0.08304542  0.45539764  0.73188918  1
  O2-  O219  1  0.08445406  0.96429186  0.06605552  1
  O2-  O220  1  0.08482930  0.96058915  0.40596255  1
  O2-  O221  1  0.08495758  0.95501428  0.72625369  1
  O2-  O222  1  0.57808773  0.45049514  0.06673718  1
  O2-  O223  1  0.58843589  0.45828937  0.39604548  1
  O2-  O224  1  0.58327661  0.45907672  0.73495448  1
  O2-  O225  1  0.57984508  0.95188019  0.05770184  1
  O2-  O226  1  0.58135951  0.95067474  0.39259190  1
  O2-  O227  1  0.58114708  0.95912467  0.73514372  1
  O2-  O228  1  0.21085687  0.32636440  0.06848382  1
  O2-  O229  1  0.20298913  0.33088893  0.39383880  1
  O2-  O230  1  0.21490646  0.33246457  0.73153514  1
  O2-  O231  1  0.20554604  0.83331248  0.06359089  1
  O2-  O232  1  0.21123799  0.83454115  0.40554308  1
  O2-  O233  1  0.20728034  0.83760021  0.73034409  1
  O2-  O234  1  0.71297739  0.33235108  0.07051944  1
  O2-  O235  1  0.71070887  0.34190518  0.39956301  1
  O2-  O236  1  0.70903536  0.33166452  0.73248849  1
  O2-  O237  1  0.70105306  0.83393390  0.05914673  1
  O2-  O238  1  0.70643912  0.83616984  0.39717156  1
  O2-  O239  1  0.71010680  0.83408187  0.73387644  1
  O2-  O240  1  0.45821178  0.41905551  0.26490115  1
  O2-  O241  1  0.45618802  0.41526840  0.60736930  1
  O2-  O242  1  0.45103146  0.41507311  0.93495578  1
  O2-  O243  1  0.44821334  0.92065317  0.26623450  1
  O2-  O244  1  0.45643666  0.91437063  0.60329522  1
  O2-  O245  1  0.45145315  0.91940510  0.92753691  1
  O2-  O246  1  0.95014888  0.41705938  0.26977613  1
  O2-  O247  1  0.95074030  0.41911657  0.60432279  1
  O2-  O248  1  0.94659721  0.41837757  0.93849302  1
  O2-  O249  1  0.95540810  0.91618487  0.27669133  1
  O2-  O250  1  0.95731861  0.91120258  0.60038377  1
  O2-  O251  1  0.96562425  0.91306485  0.92841347  1
  O2-  O252  1  0.33039575  0.29626936  0.26386093  1
  O2-  O253  1  0.34282825  0.28905144  0.60265359  1
  O2-  O254  1  0.33722533  0.29046176  0.93267537  1
  O2-  O255  1  0.32980855  0.78925279  0.27018434  1
  O2-  O256  1  0.33504333  0.79556819  0.60274436  1
  O2-  O257  1  0.32756836  0.78921518  0.92777380  1
  O2-  O258  1  0.83367983  0.29767781  0.27184310  1
  O2-  O259  1  0.83538738  0.29572752  0.60167003  1
  O2-  O260  1  0.83728184  0.29045622  0.93427959  1
  O2-  O261  1  0.83536005  0.79879291  0.27291735  1
  O2-  O262  1  0.83676178  0.79312396  0.60104076  1
  O2-  O263  1  0.83299713  0.79374516  0.92985745  1
  O2-  O264  1  0.41968912  0.04700710  0.06065929  1
  O2-  O265  1  0.41768546  0.04919024  0.39617218  1
  O2-  O266  1  0.41107189  0.04136450  0.73033553  1
  O2-  O267  1  0.41589955  0.54123695  0.06748027  1
  O2-  O268  1  0.41778382  0.53858377  0.40396600  1
  O2-  O269  1  0.41492534  0.54820409  0.73014769  1
  O2-  O270  1  0.91430812  0.03307893  0.06604024  1
  O2-  O271  1  0.91259058  0.03682655  0.40904422  1
  O2-  O272  1  0.91677106  0.03884215  0.72893540  1
  O2-  O273  1  0.91764384  0.54546912  0.07028152  1
  O2-  O274  1  0.91402153  0.54219862  0.39856802  1
  O2-  O275  1  0.91644772  0.55158466  0.72780488  1
  O2-  O276  1  0.30125811  0.16479449  0.06209818  1
  O2-  O277  1  0.29556244  0.16763983  0.39599627  1
  O2-  O278  1  0.29490425  0.16237701  0.72876947  1
  O2-  O279  1  0.29008600  0.66853799  0.06760792  1
  O2-  O280  1  0.28702336  0.66350051  0.40624251  1
  O2-  O281  1  0.29630987  0.66827345  0.72913392  1
  O2-  O282  1  0.79276232  0.16507653  0.06648324  1
  O2-  O283  1  0.79322779  0.16961120  0.40614131  1
  O2-  O284  1  0.80513482  0.16609445  0.72830058  1
  O2-  O285  1  0.79547907  0.67455857  0.06652039  1
  O2-  O286  1  0.79904220  0.66602637  0.39835100  1
  O2-  O287  1  0.79546346  0.66694253  0.72557137  1
