# generated using pymatgen
data_Ca2Al2SiO7
_symmetry_space_group_name_H-M   'P 1'
_cell_length_a   15.46391855
_cell_length_b   15.46391415
_cell_length_c   15.28788371
_cell_angle_alpha   89.98922144
_cell_angle_beta   90.00362730
_cell_angle_gamma   90.01597517
_symmetry_Int_Tables_number   1
_chemical_formula_structural   Ca2Al2SiO7
_chemical_formula_sum   'Ca48 Al48 Si24 O168'
_cell_volume   3655.83283255
_cell_formula_units_Z   24
loop_
 _symmetry_equiv_pos_site_id
 _symmetry_equiv_pos_as_xyz
  1  'x, y, z'
loop_
 _atom_type_symbol
 _atom_type_oxidation_number
  Ca2+  2.0
  Al0+  0.0
  Si0+  0.0
  O2-  -2.0
loop_
 _atom_site_type_symbol
 _atom_site_label
 _atom_site_symmetry_multiplicity
 _atom_site_fract_x
 _atom_site_fract_y
 _atom_site_fract_z
 _atom_site_occupancy
  Ca2+  Ca0  1  0.17086020  0.08148026  0.18227603  1
  Ca2+  Ca1  1  0.17009885  0.08549328  0.50555985  1
  Ca2+  Ca2  1  0.16656753  0.08673518  0.82912329  1
  Ca2+  Ca3  1  0.16316834  0.57133439  0.17463439  1
  Ca2+  Ca4  1  0.15547237  0.57409706  0.49737894  1
  Ca2+  Ca5  1  0.16788083  0.57468246  0.84054925  1
  Ca2+  Ca6  1  0.67667924  0.09024562  0.16736041  1
  Ca2+  Ca7  1  0.68229092  0.08998705  0.50182420  1
  Ca2+  Ca8  1  0.67622689  0.08494026  0.84408767  1
  Ca2+  Ca9  1  0.67133055  0.57170747  0.17746675  1
  Ca2+  Ca10  1  0.67264413  0.58145250  0.50183101  1
  Ca2+  Ca11  1  0.67081061  0.57828538  0.83516503  1
  Ca2+  Ca12  1  0.07417604  0.33404796  0.16636251  1
  Ca2+  Ca13  1  0.07424006  0.32336620  0.49154423  1
  Ca2+  Ca14  1  0.07128440  0.32975113  0.82738139  1
  Ca2+  Ca15  1  0.08776561  0.82907664  0.16923070  1
  Ca2+  Ca16  1  0.09099045  0.82904018  0.49233674  1
  Ca2+  Ca17  1  0.08337173  0.83302369  0.82715605  1
  Ca2+  Ca18  1  0.58317467  0.33341460  0.16361933  1
  Ca2+  Ca19  1  0.57449449  0.33750321  0.49079390  1
  Ca2+  Ca20  1  0.58965869  0.32775286  0.83604186  1
  Ca2+  Ca21  1  0.59251772  0.82821608  0.16344062  1
  Ca2+  Ca22  1  0.58947170  0.82013431  0.49427835  1
  Ca2+  Ca23  1  0.58840180  0.83007389  0.82686960  1
  Ca2+  Ca24  1  0.32153449  0.40898652  0.17454130  1
  Ca2+  Ca25  1  0.32513610  0.40747786  0.49720933  1
  Ca2+  Ca26  1  0.32385714  0.41555383  0.83854858  1
  Ca2+  Ca27  1  0.32889982  0.92566037  0.17705016  1
  Ca2+  Ca28  1  0.32176463  0.92666667  0.50296054  1
  Ca2+  Ca29  1  0.32901999  0.92060208  0.83117991  1
  Ca2+  Ca30  1  0.82566192  0.41208375  0.17508713  1
  Ca2+  Ca31  1  0.84180330  0.42421268  0.49929578  1
  Ca2+  Ca32  1  0.83573224  0.41842326  0.83866247  1
  Ca2+  Ca33  1  0.83062682  0.93016071  0.16884762  1
  Ca2+  Ca34  1  0.84120809  0.93195469  0.50134711  1
  Ca2+  Ca35  1  0.83002976  0.93204616  0.83776843  1
  Ca2+  Ca36  1  0.41959610  0.16981460  0.16661626  1
  Ca2+  Ca37  1  0.41430468  0.16669744  0.49282527  1
  Ca2+  Ca38  1  0.42285051  0.16273387  0.83094107  1
  Ca2+  Ca39  1  0.42334441  0.66610787  0.16734076  1
  Ca2+  Ca40  1  0.43006753  0.66468166  0.49170433  1
  Ca2+  Ca41  1  0.42556726  0.66961001  0.82428858  1
  Ca2+  Ca42  1  0.91295426  0.17429542  0.16362557  1
  Ca2+  Ca43  1  0.92285439  0.17005490  0.49227133  1
  Ca2+  Ca44  1  0.91302309  0.17658485  0.82552277  1
  Ca2+  Ca45  1  0.91952666  0.66007771  0.17087410  1
  Ca2+  Ca46  1  0.91492418  0.66788491  0.49052677  1
  Ca2+  Ca47  1  0.91351102  0.66906980  0.82679629  1
  Al0+  Al48  1  0.00133683  -0.00147522  0.00275553  1
  Al0+  Al49  1  -0.00022108  -0.00252432  0.33565932  1
  Al0+  Al50  1  -0.00038740  -0.00018420  0.67343085  1
  Al0+  Al51  1  0.00232071  0.49973001  -0.00146594  1
  Al0+  Al52  1  -0.00043659  0.50049774  0.33273052  1
  Al0+  Al53  1  -0.00174673  0.50117959  0.66971901  1
  Al0+  Al54  1  0.49913141  -0.00218226  -0.00166591  1
  Al0+  Al55  1  0.49998526  -0.00137753  0.33760730  1
  Al0+  Al56  1  0.49743434  -0.00122480  0.66702800  1
  Al0+  Al57  1  0.49952098  0.50187801  0.00017173  1
  Al0+  Al58  1  0.49920949  0.49927898  0.32579321  1
  Al0+  Al59  1  0.50025805  0.50014439  0.66428406  1
  Al0+  Al60  1  0.24929860  0.24985532  0.00290047  1
  Al0+  Al61  1  0.25022861  0.25037385  0.33386049  1
  Al0+  Al62  1  0.24970229  0.24933475  0.67075206  1
  Al0+  Al63  1  0.25244040  0.75030311  -0.00231168  1
  Al0+  Al64  1  0.25198689  0.74965855  0.33070121  1
  Al0+  Al65  1  0.25104450  0.74993979  0.66998286  1
  Al0+  Al66  1  0.74984299  0.25271125  -0.00155878  1
  Al0+  Al67  1  0.74788392  0.25030500  0.33986770  1
  Al0+  Al68  1  0.74737831  0.25335372  0.66502918  1
  Al0+  Al69  1  0.75269698  0.75126616  0.00052636  1
  Al0+  Al70  1  0.75093400  0.74914400  0.32842090  1
  Al0+  Al71  1  0.75164718  0.74804709  0.66548215  1
  Al0+  Al72  1  0.17850461  0.92754707  0.68399605  1
  Al0+  Al73  1  0.67596570  0.42826461  0.34969449  1
  Al0+  Al74  1  0.57262309  0.67916069  0.31625710  1
  Al0+  Al75  1  0.32180805  0.07305194  0.68520753  1
  Al0+  Al76  1  0.17834270  0.42953249  0.34795910  1
  Al0+  Al77  1  0.06988826  0.17881733  0.65259496  1
  Al0+  Al78  1  0.92633736  0.32360967  0.64996681  1
  Al0+  Al79  1  0.67745219  0.92799281  0.01369688  1
  Al0+  Al80  1  0.42865861  0.31989640  0.31961123  1
  Al0+  Al81  1  0.92783734  0.32023167  0.31792669  1
  Al0+  Al82  1  0.82054965  0.57049483  0.68150477  1
  Al0+  Al83  1  0.07063189  0.17693543  0.31888937  1
  Al0+  Al84  1  0.67909637  0.43089555  0.01294193  1
  Al0+  Al85  1  0.56896445  0.18001644  0.98768202  1
  Al0+  Al86  1  0.82125487  0.07294967  0.01483424  1
  Al0+  Al87  1  0.17869173  0.92707656  0.34692397  1
  Al0+  Al88  1  0.32132533  0.07235802  0.34834332  1
  Al0+  Al89  1  0.17965354  0.42929012  0.01436677  1
  Al0+  Al90  1  0.57143705  0.68005389  0.65242266  1
  Al0+  Al91  1  0.07173525  0.67968202  0.31995382  1
  Al0+  Al92  1  0.82025536  0.57002798  0.34752992  1
  Al0+  Al93  1  0.92985863  0.32033997  0.98595345  1
  Al0+  Al94  1  0.82037941  0.07144708  0.34718173  1
  Al0+  Al95  1  0.81955345  0.07387444  0.68082433  1
  Si0+  Si96  1  0.43013973  0.82166271  0.31578594  1
  Si0+  Si97  1  0.67344661  0.43006428  0.68468130  1
  Si0+  Si98  1  0.67938322  0.92792976  0.67959265  1
  Si0+  Si99  1  0.42845796  0.82030447  0.98221081  1
  Si0+  Si100  1  0.42551013  0.32260765  0.98263503  1
  Si0+  Si101  1  0.42642557  0.82171215  0.64769813  1
  Si0+  Si102  1  0.32311202  0.57008080  0.68042432  1
  Si0+  Si103  1  0.42864361  0.32052202  0.65410923  1
  Si0+  Si104  1  0.17878417  0.43023445  0.68198777  1
  Si0+  Si105  1  0.32091542  0.06975600  0.01513575  1
  Si0+  Si106  1  0.93008677  0.82206721  0.98323831  1
  Si0+  Si107  1  0.92707690  0.82295760  0.31436602  1
  Si0+  Si108  1  0.57247284  0.67929090  0.98346298  1
  Si0+  Si109  1  0.07289677  0.67927720  0.65378547  1
  Si0+  Si110  1  0.32212053  0.57184598  0.34890436  1
  Si0+  Si111  1  0.57024234  0.17734914  0.65235471  1
  Si0+  Si112  1  0.67841422  0.92660484  0.34993261  1
  Si0+  Si113  1  0.18003671  0.92665875  0.01591753  1
  Si0+  Si114  1  0.93014517  0.82013738  0.65328042  1
  Si0+  Si115  1  0.57215935  0.17570030  0.31868222  1
  Si0+  Si116  1  0.07387243  0.17523418  0.98402867  1
  Si0+  Si117  1  0.82336943  0.57315540  0.01628747  1
  Si0+  Si118  1  0.32175341  0.57374191  0.01654441  1
  Si0+  Si119  1  0.07177782  0.68030918  0.98397082  1
  O2-  O120  1  0.24584648  0.00264219  0.05648679  1
  O2-  O121  1  0.24492922  0.00400538  0.39677095  1
  O2-  O122  1  0.24867563  0.00137231  0.73468401  1
  O2-  O123  1  0.25649749  0.50249549  0.06029478  1
  O2-  O124  1  0.25280403  0.50520530  0.39528980  1
  O2-  O125  1  0.25032189  0.50171519  0.72370543  1
  O2-  O126  1  0.74631408  0.00246979  0.06354348  1
  O2-  O127  1  0.74531042  -0.00367189  0.39436847  1
  O2-  O128  1  0.74069871  0.00182752  0.72566556  1
  O2-  O129  1  0.75401587  0.50525809  0.05896672  1
  O2-  O130  1  0.74954227  0.49837106  0.39982062  1
  O2-  O131  1  0.74762643  0.49402647  0.72736224  1
  O2-  O132  1  -0.00251679  0.24631392  0.26691984  1
  O2-  O133  1  -0.00463653  0.24769197  0.60239333  1
  O2-  O134  1  0.00294963  0.24240775  0.94101786  1
  O2-  O135  1  -0.00213006  0.75466286  0.27188382  1
  O2-  O136  1  0.00491877  0.75264869  0.61206202  1
  O2-  O137  1  0.00072880  0.75024822  0.94042831  1
  O2-  O138  1  0.50356821  0.24468605  0.27483111  1
  O2-  O139  1  0.49734435  0.24739105  0.61217923  1
  O2-  O140  1  0.49508385  0.25531154  0.93789074  1
  O2-  O141  1  0.50034838  0.75615554  0.26863733  1
  O2-  O142  1  0.49800504  0.75566568  0.60465288  1
  O2-  O143  1  0.50268449  0.75167323  0.94076573  1
  O2-  O144  1  0.07650929  0.17473487  0.08904540  1
  O2-  O145  1  0.07038485  0.17817497  0.43243710  1
  O2-  O146  1  0.07058568  0.18360209  0.76682005  1
  O2-  O147  1  0.07305670  0.68129498  0.08857368  1
  O2-  O148  1  0.07090712  0.68071216  0.43349613  1
  O2-  O149  1  0.07257165  0.67891754  0.75949423  1
  O2-  O150  1  0.56595147  0.18004769  0.10034356  1
  O2-  O151  1  0.57053609  0.17476905  0.42462385  1
  O2-  O152  1  0.57071458  0.17821952  0.75772543  1
  O2-  O153  1  0.57038688  0.67934060  0.08804847  1
  O2-  O154  1  0.57139675  0.68046155  0.42959364  1
  O2-  O155  1  0.56920651  0.68119220  0.76626738  1
  O2-  O156  1  0.17960672  0.43151614  0.23485056  1
  O2-  O157  1  0.17943365  0.43109419  0.57727560  1
  O2-  O158  1  0.18140196  0.43319876  0.90042241  1
  O2-  O159  1  0.18409399  0.92578928  0.23257909  1
  O2-  O160  1  0.18231877  0.92136432  0.57169161  1
  O2-  O161  1  0.18229384  0.92235109  0.91111333  1
  O2-  O162  1  0.67641551  0.42991470  0.23574961  1
  O2-  O163  1  0.66478122  0.43375025  0.58023826  1
  O2-  O164  1  0.67840065  0.43387961  0.89951718  1
  O2-  O165  1  0.67929432  0.92709328  0.24433912  1
  O2-  O166  1  0.68293983  0.92651643  0.57424601  1
  O2-  O167  1  0.68049507  0.92653065  0.89969926  1
  O2-  O168  1  0.42369402  0.32092130  0.08756944  1
  O2-  O169  1  0.42928742  0.32016554  0.43345848  1
  O2-  O170  1  0.42938908  0.32293061  0.75941588  1
  O2-  O171  1  0.42336706  0.81798476  0.08664606  1
  O2-  O172  1  0.43104332  0.81844385  0.42109552  1
  O2-  O173  1  0.42636523  0.81895762  0.75396339  1
  O2-  O174  1  0.93014530  0.32243787  0.09831434  1
  O2-  O175  1  0.93078508  0.32059648  0.43124944  1
  O2-  O176  1  0.92979958  0.32505166  0.76426474  1
  O2-  O177  1  0.93107445  0.82279630  0.08774281  1
  O2-  O178  1  0.92440287  0.82204659  0.42014965  1
  O2-  O179  1  0.92905140  0.81674122  0.75885482  1
  O2-  O180  1  0.32362796  0.06888929  0.23396257  1
  O2-  O181  1  0.32319677  0.07286849  0.57256882  1
  O2-  O182  1  0.32174911  0.06819889  0.91013339  1
  O2-  O183  1  0.32028237  0.57157295  0.24301213  1
  O2-  O184  1  0.32546755  0.56901077  0.57603439  1
  O2-  O185  1  0.32012646  0.57549734  0.91026537  1
  O2-  O186  1  0.81827856  0.07133151  0.23429130  1
  O2-  O187  1  0.82022985  0.07101010  0.56793164  1
  O2-  O188  1  0.82017074  0.07100161  0.90098830  1
  O2-  O189  1  0.81888767  0.57003038  0.23362476  1
  O2-  O190  1  0.82093597  0.57435741  0.56947130  1
  O2-  O191  1  0.82186001  0.57491154  0.91024482  1
  O2-  O192  1  0.04751163  0.07568837  0.26898543  1
  O2-  O193  1  0.04673460  0.07689359  0.60545579  1
  O2-  O194  1  0.05239337  0.07954635  0.93944017  1
  O2-  O195  1  0.03911276  0.58483340  0.26383128  1
  O2-  O196  1  0.04279324  0.58826726  0.60754421  1
  O2-  O197  1  0.04530938  0.58877104  0.93522376  1
  O2-  O198  1  0.54718593  0.08150406  0.27315963  1
  O2-  O199  1  0.54456605  0.08471356  0.60587470  1
  O2-  O200  1  0.53796647  0.08291359  0.93302663  1
  O2-  O201  1  0.53746755  0.58531798  0.26021107  1
  O2-  O202  1  0.53695362  0.58460571  0.59909086  1
  O2-  O203  1  0.54200055  0.58854577  0.93459679  1
  O2-  O204  1  0.16895555  0.20689143  0.26721334  1
  O2-  O205  1  0.16952790  0.20932233  0.60303284  1
  O2-  O206  1  0.16721168  0.20366690  0.93749763  1
  O2-  O207  1  0.16856357  0.70883624  0.26411302  1
  O2-  O208  1  0.16620651  0.70299564  0.60777036  1
  O2-  O209  1  0.16399088  0.70876848  0.93605225  1
  O2-  O210  1  0.66503525  0.20271740  0.27309698  1
  O2-  O211  1  0.66045755  0.20672545  0.60341397  1
  O2-  O212  1  0.66428737  0.21232579  0.93159948  1
  O2-  O213  1  0.66839293  0.70946989  0.26044176  1
  O2-  O214  1  0.66770273  0.71118723  0.59843741  1
  O2-  O215  1  0.66553996  0.70613117  0.93749908  1
  O2-  O216  1  0.08486705  0.46483479  0.06767316  1
  O2-  O217  1  0.08383864  0.46370396  0.40260228  1
  O2-  O218  1  0.08881910  0.46114458  0.73101042  1
  O2-  O219  1  0.08633933  0.94701359  0.06162323  1
  O2-  O220  1  0.07759291  0.94341857  0.39746582  1
  O2-  O221  1  0.08008671  0.95225381  0.73902274  1
  O2-  O222  1  0.58093395  0.46030194  0.06505296  1
  O2-  O223  1  0.57688672  0.46052483  0.39910554  1
  O2-  O224  1  0.58258938  0.46121129  0.73474308  1
  O2-  O225  1  0.57634967  0.94848712  0.06409907  1
  O2-  O226  1  0.58420004  0.94735135  0.39642881  1
  O2-  O227  1  0.58236607  0.94478620  0.72222039  1
  O2-  O228  1  0.20867482  0.33243250  0.06790288  1
  O2-  O229  1  0.21228212  0.33500006  0.40267092  1
  O2-  O230  1  0.20871146  0.34032781  0.73125467  1
  O2-  O231  1  0.21323915  0.83599343  0.06272917  1
  O2-  O232  1  0.21323429  0.83006133  0.39969829  1
  O2-  O233  1  0.21058947  0.82927497  0.73948287  1
  O2-  O234  1  0.70707975  0.33427889  0.06608774  1
  O2-  O235  1  0.69675866  0.32914203  0.40312066  1
  O2-  O236  1  0.69480894  0.33452434  0.72797940  1
  O2-  O237  1  0.71019207  0.83079948  0.06708682  1
  O2-  O238  1  0.70623507  0.83302593  0.39407153  1
  O2-  O239  1  0.71053073  0.83652166  0.72736874  1
  O2-  O240  1  0.45606157  0.41545279  0.26188090  1
  O2-  O241  1  0.45742608  0.41122740  0.60537900  1
  O2-  O242  1  0.44828087  0.41838839  0.93836795  1
  O2-  O243  1  0.45364939  0.91646349  0.27076830  1
  O2-  O244  1  0.44783103  0.91664512  0.60350562  1
  O2-  O245  1  0.45332606  0.91191434  0.93315260  1
  O2-  O246  1  0.95791584  0.41841243  0.26588927  1
  O2-  O247  1  0.96021452  0.42199109  0.60015958  1
  O2-  O248  1  0.96407337  0.41693964  0.93119986  1
  O2-  O249  1  0.95263079  0.91555438  0.26690880  1
  O2-  O250  1  0.95447292  0.91333377  0.60832396  1
  O2-  O251  1  0.95957400  0.91319199  0.93463592  1
  O2-  O252  1  0.33343705  0.28839336  0.26384508  1
  O2-  O253  1  0.33598685  0.29495950  0.60793517  1
  O2-  O254  1  0.33252410  0.29467912  0.93536556  1
  O2-  O255  1  0.33840756  0.79347851  0.26686680  1
  O2-  O256  1  0.33404063  0.79142498  0.60272602  1
  O2-  O257  1  0.33873556  0.78821939  0.93118852  1
  O2-  O258  1  0.82671496  0.29265479  0.26982342  1
  O2-  O259  1  0.82454304  0.30403099  0.60117619  1
  O2-  O260  1  0.83288582  0.29344966  0.93056857  1
  O2-  O261  1  0.83557414  0.79540175  0.26510689  1
  O2-  O262  1  0.84087859  0.78868885  0.60388928  1
  O2-  O263  1  0.83866619  0.79365255  0.93446486  1
  O2-  O264  1  0.41063585  0.03699884  0.06246273  1
  O2-  O265  1  0.41868645  0.04097782  0.40270850  1
  O2-  O266  1  0.42019810  0.04084231  0.73853263  1
  O2-  O267  1  0.41677673  0.55288489  0.06057752  1
  O2-  O268  1  0.41556825  0.54451950  0.39298134  1
  O2-  O269  1  0.41314922  0.53996889  0.73105783  1
  O2-  O270  1  0.91926335  0.04088708  0.06665893  1
  O2-  O271  1  0.91555550  0.03752864  0.40150868  1
  O2-  O272  1  0.91348576  0.03969566  0.73707776  1
  O2-  O273  1  0.91813000  0.54861145  0.05894572  1
  O2-  O274  1  0.91921542  0.54483545  0.40041111  1
  O2-  O275  1  0.91773755  0.54363480  0.73817487  1
  O2-  O276  1  0.29840780  0.16334465  0.06070010  1
  O2-  O277  1  0.29661442  0.17097401  0.40081477  1
  O2-  O278  1  0.29475056  0.17141063  0.74041001  1
  O2-  O279  1  0.29387263  0.66652835  0.06280291  1
  O2-  O280  1  0.30024478  0.66615812  0.39410539  1
  O2-  O281  1  0.29743621  0.66177097  0.72968143  1
  O2-  O282  1  0.79142898  0.17086112  0.06591362  1
  O2-  O283  1  0.78836312  0.16539515  0.40457730  1
  O2-  O284  1  0.78856380  0.17159965  0.73249813  1
  O2-  O285  1  0.80024869  0.66728204  0.06141218  1
  O2-  O286  1  0.79251464  0.67024845  0.39754065  1
  O2-  O287  1  0.78748233  0.66657947  0.73701866  1
