# generated using pymatgen
data_Ca2Al2SiO7
_symmetry_space_group_name_H-M   'P 1'
_cell_length_a   15.45765307
_cell_length_b   15.45828686
_cell_length_c   15.28372150
_cell_angle_alpha   90.01521969
_cell_angle_beta   89.99405950
_cell_angle_gamma   89.98296254
_symmetry_Int_Tables_number   1
_chemical_formula_structural   Ca2Al2SiO7
_chemical_formula_sum   'Ca48 Al48 Si24 O168'
_cell_volume   3652.02714124
_cell_formula_units_Z   24
loop_
 _symmetry_equiv_pos_site_id
 _symmetry_equiv_pos_as_xyz
  1  'x, y, z'
loop_
 _atom_type_symbol
 _atom_type_oxidation_number
  Ca2+  2.0
  Al0+  0.0
  Si0+  0.0
  O2-  -2.0
loop_
 _atom_site_type_symbol
 _atom_site_label
 _atom_site_symmetry_multiplicity
 _atom_site_fract_x
 _atom_site_fract_y
 _atom_site_fract_z
 _atom_site_occupancy
  Ca2+  Ca0  1  0.16922528  0.08162370  0.17066184  1
  Ca2+  Ca1  1  0.17413617  0.07029868  0.50702565  1
  Ca2+  Ca2  1  0.17695528  0.08428153  0.83917637  1
  Ca2+  Ca3  1  0.16920918  0.58225056  0.17148783  1
  Ca2+  Ca4  1  0.17206036  0.58571104  0.50908084  1
  Ca2+  Ca5  1  0.16974257  0.59027830  0.82954950  1
  Ca2+  Ca6  1  0.66342402  0.07069353  0.17230188  1
  Ca2+  Ca7  1  0.66136947  0.08006007  0.49724236  1
  Ca2+  Ca8  1  0.66924725  0.07417001  0.84008351  1
  Ca2+  Ca9  1  0.66874446  0.58329626  0.17841946  1
  Ca2+  Ca10  1  0.66631691  0.57568399  0.49846648  1
  Ca2+  Ca11  1  0.66247909  0.57718403  0.83799827  1
  Ca2+  Ca12  1  0.07135658  0.32968467  0.15837909  1
  Ca2+  Ca13  1  0.07082156  0.33529650  0.49434787  1
  Ca2+  Ca14  1  0.07361481  0.32929070  0.83068594  1
  Ca2+  Ca15  1  0.07112972  0.84250252  0.16750434  1
  Ca2+  Ca16  1  0.08669375  0.83167315  0.49506412  1
  Ca2+  Ca17  1  0.08118230  0.83378770  0.82706409  1
  Ca2+  Ca18  1  0.58413714  0.32988418  0.17122465  1
  Ca2+  Ca19  1  0.58340611  0.33074377  0.48943546  1
  Ca2+  Ca20  1  0.58582648  0.33073228  0.82686401  1
  Ca2+  Ca21  1  0.58545388  0.82707888  0.15998802  1
  Ca2+  Ca22  1  0.57031124  0.83094102  0.48826327  1
  Ca2+  Ca23  1  0.57481197  0.83379379  0.83427311  1
  Ca2+  Ca24  1  0.33344596  0.41588770  0.17382429  1
  Ca2+  Ca25  1  0.33945261  0.42449537  0.50550062  1
  Ca2+  Ca26  1  0.33526240  0.42809033  0.83720758  1
  Ca2+  Ca27  1  0.33282645  0.91636585  0.17138455  1
  Ca2+  Ca28  1  0.32749461  0.91251939  0.50817327  1
  Ca2+  Ca29  1  0.33419923  0.92137395  0.83596373  1
  Ca2+  Ca30  1  0.83219901  0.42294615  0.17870941  1
  Ca2+  Ca31  1  0.82620005  0.41530688  0.50234111  1
  Ca2+  Ca32  1  0.83379499  0.41291850  0.83413910  1
  Ca2+  Ca33  1  0.82552976  0.90937859  0.17472398  1
  Ca2+  Ca34  1  0.82654907  0.91109770  0.49679941  1
  Ca2+  Ca35  1  0.82794086  0.91223226  0.84347017  1
  Ca2+  Ca36  1  0.41952656  0.16549517  0.16722896  1
  Ca2+  Ca37  1  0.42053222  0.17091030  0.49236406  1
  Ca2+  Ca38  1  0.41395730  0.16072970  0.83085064  1
  Ca2+  Ca39  1  0.42995806  0.67935633  0.16430008  1
  Ca2+  Ca40  1  0.41749493  0.67459298  0.49435179  1
  Ca2+  Ca41  1  0.41680894  0.67804896  0.82766394  1
  Ca2+  Ca42  1  0.92022712  0.17720032  0.16035788  1
  Ca2+  Ca43  1  0.91281769  0.17819556  0.49419131  1
  Ca2+  Ca44  1  0.92069773  0.17352311  0.83052152  1
  Ca2+  Ca45  1  0.90740462  0.67726301  0.16760121  1
  Ca2+  Ca46  1  0.92235993  0.66825060  0.49423967  1
  Ca2+  Ca47  1  0.92299100  0.67331252  0.83089417  1
  Al0+  Al48  1  0.00099692  0.00189757  -0.00861815  1
  Al0+  Al49  1  0.00118177  -0.00048728  0.33632268  1
  Al0+  Al50  1  -0.00175712  0.00098981  0.66890931  1
  Al0+  Al51  1  -0.00041219  0.50008823  -0.00329573  1
  Al0+  Al52  1  0.00098410  0.50070831  0.33329068  1
  Al0+  Al53  1  -0.00138494  0.50143666  0.65942953  1
  Al0+  Al54  1  0.49982377  0.00014853  0.00527776  1
  Al0+  Al55  1  0.49886588  0.00230992  0.33124598  1
  Al0+  Al56  1  0.50040526  -0.00070298  0.66574588  1
  Al0+  Al57  1  0.50063395  0.49982651  -0.00047172  1
  Al0+  Al58  1  0.49972605  0.50014214  0.32980164  1
  Al0+  Al59  1  0.50119953  0.49938533  0.67649881  1
  Al0+  Al60  1  0.25040992  0.25041409  0.00115583  1
  Al0+  Al61  1  0.24922537  0.24998165  0.33257816  1
  Al0+  Al62  1  0.24887942  0.24978538  0.66880410  1
  Al0+  Al63  1  0.25101707  0.75094464  0.00064696  1
  Al0+  Al64  1  0.25035342  0.74915070  0.33174291  1
  Al0+  Al65  1  0.24907655  0.74987119  0.66824446  1
  Al0+  Al66  1  0.74846368  0.24973015  -0.00290147  1
  Al0+  Al67  1  0.74971288  0.24942983  0.32669154  1
  Al0+  Al68  1  0.74912038  0.24952562  0.66735110  1
  Al0+  Al69  1  0.75037511  0.74643662  -0.00632148  1
  Al0+  Al70  1  0.75167411  0.74936816  0.33918290  1
  Al0+  Al71  1  0.75007518  0.74734286  0.66780702  1
  Al0+  Al72  1  0.42746034  0.32194300  0.31973105  1
  Al0+  Al73  1  0.32028881  0.07137710  0.01720153  1
  Al0+  Al74  1  0.92953276  0.82036585  0.98746312  1
  Al0+  Al75  1  0.32222894  0.07141546  0.68120734  1
  Al0+  Al76  1  0.32064111  0.57015509  0.68076233  1
  Al0+  Al77  1  0.68245775  0.92823121  0.01304556  1
  Al0+  Al78  1  0.07323787  0.17941447  0.98393103  1
  Al0+  Al79  1  0.17957767  0.92925961  0.34663531  1
  Al0+  Al80  1  0.57177907  0.67727853  0.98265541  1
  Al0+  Al81  1  0.67741843  0.92842942  0.34711870  1
  Al0+  Al82  1  0.42636336  0.82244954  0.31846286  1
  Al0+  Al83  1  0.92707782  0.32214298  0.98354326  1
  Al0+  Al84  1  0.92935309  0.32207294  0.31900717  1
  Al0+  Al85  1  0.92900183  0.31881640  0.65039718  1
  Al0+  Al86  1  0.17785438  0.92814694  0.68356676  1
  Al0+  Al87  1  0.57183560  0.17817088  0.31682608  1
  Al0+  Al88  1  0.57193962  0.68049863  0.32123650  1
  Al0+  Al89  1  0.93075204  0.82064685  0.32292684  1
  Al0+  Al90  1  0.06956263  0.68249194  0.65293326  1
  Al0+  Al91  1  0.82323163  0.57227903  0.35024135  1
  Al0+  Al92  1  0.67891856  0.42813535  0.34690172  1
  Al0+  Al93  1  0.42920018  0.82300600  0.98384118  1
  Al0+  Al94  1  0.43153426  0.82022213  0.65264889  1
  Al0+  Al95  1  0.68120611  0.42893242  0.68160962  1
  Si0+  Si96  1  0.17838927  0.42755165  0.34801761  1
  Si0+  Si97  1  0.42856985  0.32286866  0.65601564  1
  Si0+  Si98  1  0.07363519  0.67713195  0.98447436  1
  Si0+  Si99  1  0.07110670  0.17796677  0.31841341  1
  Si0+  Si100  1  0.92471553  0.82460648  0.64918550  1
  Si0+  Si101  1  0.42888111  0.32133077  0.98374775  1
  Si0+  Si102  1  0.32241115  0.57224825  0.01732907  1
  Si0+  Si103  1  0.07354582  0.67748393  0.31608178  1
  Si0+  Si104  1  0.56993325  0.17934571  0.65336978  1
  Si0+  Si105  1  0.57262823  0.67486689  0.64968109  1
  Si0+  Si106  1  0.81912460  0.07198785  0.68118938  1
  Si0+  Si107  1  0.32147805  0.07382475  0.35068765  1
  Si0+  Si108  1  0.56949646  0.17907788  0.98388579  1
  Si0+  Si109  1  0.82345850  0.07310489  0.01550121  1
  Si0+  Si110  1  0.82234120  0.07142721  0.34851087  1
  Si0+  Si111  1  0.82145655  0.56817473  0.01376323  1
  Si0+  Si112  1  0.82388412  0.57178615  0.68574541  1
  Si0+  Si113  1  0.17610987  0.92726899  0.01749354  1
  Si0+  Si114  1  0.07337434  0.17679688  0.64782622  1
  Si0+  Si115  1  0.17986356  0.43097338  0.01412223  1
  Si0+  Si116  1  0.17502038  0.42835385  0.68265639  1
  Si0+  Si117  1  0.31989657  0.56916231  0.34689513  1
  Si0+  Si118  1  0.67968560  0.92777660  0.68079921  1
  Si0+  Si119  1  0.67765560  0.42684629  0.01649881  1
  O2-  O120  1  0.24514451  -0.00415023  0.06151165  1
  O2-  O121  1  0.25737905  0.00059051  0.39374595  1
  O2-  O122  1  0.24868402  0.00187217  0.73271155  1
  O2-  O123  1  0.24972750  0.50211237  0.05875775  1
  O2-  O124  1  0.25046264  0.49689267  0.39040414  1
  O2-  O125  1  0.24645432  0.49390159  0.72791822  1
  O2-  O126  1  0.76013097  0.00019103  0.06025223  1
  O2-  O127  1  0.75206201  0.00428367  0.39362524  1
  O2-  O128  1  0.75526208  -0.00580017  0.72306104  1
  O2-  O129  1  0.75088957  0.49646185  0.05580882  1
  O2-  O130  1  0.75173200  0.49840621  0.39842599  1
  O2-  O131  1  0.75411655  0.50430190  0.73048356  1
  O2-  O132  1  0.00423122  0.24763571  0.27305312  1
  O2-  O133  1  0.00521391  0.24574855  0.60302563  1
  O2-  O134  1  -0.00200364  0.24869584  0.93439847  1
  O2-  O135  1  0.00380425  0.74548262  0.27342789  1
  O2-  O136  1  -0.00316774  0.75901747  0.60658747  1
  O2-  O137  1  0.00876672  0.75007421  0.94174295  1
  O2-  O138  1  0.49850393  0.25017569  0.26809173  1
  O2-  O139  1  0.49564951  0.24849091  0.61418136  1
  O2-  O140  1  0.49936026  0.25049502  0.94044049  1
  O2-  O141  1  0.50591364  0.75770452  0.27023046  1
  O2-  O142  1  0.50646347  0.74563604  0.60589483  1
  O2-  O143  1  0.49916892  0.74890552  0.93337084  1
  O2-  O144  1  0.07219902  0.18295641  0.09788838  1
  O2-  O145  1  0.07030573  0.18029137  0.42407015  1
  O2-  O146  1  0.07247800  0.17904342  0.75323519  1
  O2-  O147  1  0.07291295  0.67249914  0.08978593  1
  O2-  O148  1  0.07591378  0.67747323  0.42158701  1
  O2-  O149  1  0.06660217  0.68211827  0.76641113  1
  O2-  O150  1  0.57046633  0.18099494  0.08828645  1
  O2-  O151  1  0.57020017  0.17885514  0.43128824  1
  O2-  O152  1  0.57197682  0.17944448  0.75883689  1
  O2-  O153  1  0.57237573  0.67608483  0.09591425  1
  O2-  O154  1  0.56664253  0.67836986  0.43505617  1
  O2-  O155  1  0.57147689  0.67563439  0.75531419  1
  O2-  O156  1  0.17810422  0.42922483  0.24253666  1
  O2-  O157  1  0.17629386  0.42962452  0.57681464  1
  O2-  O158  1  0.18159988  0.43236730  0.90903995  1
  O2-  O159  1  0.17625373  0.93297866  0.23357491  1
  O2-  O160  1  0.17975525  0.92868856  0.56969002  1
  O2-  O161  1  0.17649534  0.92626721  0.91220800  1
  O2-  O162  1  0.68064074  0.42992854  0.23297636  1
  O2-  O163  1  0.67986489  0.42690848  0.56922812  1
  O2-  O164  1  0.67677520  0.42649959  0.91107739  1
  O2-  O165  1  0.68095099  0.92764250  0.23401885  1
  O2-  O166  1  0.67863843  0.92984048  0.57590220  1
  O2-  O167  1  0.68286076  0.93212156  0.89905384  1
  O2-  O168  1  0.42916942  0.32294817  0.08845496  1
  O2-  O169  1  0.42609453  0.32139689  0.43393242  1
  O2-  O170  1  0.43102615  0.32380725  0.76131690  1
  O2-  O171  1  0.42980535  0.82091928  0.09699874  1
  O2-  O172  1  0.42399816  0.81745045  0.43236081  1
  O2-  O173  1  0.43424587  0.82194308  0.76558244  1
  O2-  O174  1  0.92930833  0.32378047  0.09695614  1
  O2-  O175  1  0.93019245  0.32008487  0.43229424  1
  O2-  O176  1  0.92953539  0.31616327  0.76338858  1
  O2-  O177  1  0.92801385  0.81886340  0.10049152  1
  O2-  O178  1  0.93350275  0.82090379  0.43580947  1
  O2-  O179  1  0.92220627  0.82226027  0.75503224  1
  O2-  O180  1  0.31734448  0.07725745  0.24521647  1
  O2-  O181  1  0.32292398  0.07261906  0.56792510  1
  O2-  O182  1  0.32009424  0.07215778  0.90414665  1
  O2-  O183  1  0.31630151  0.56800645  0.24159026  1
  O2-  O184  1  0.32135584  0.56753045  0.56744686  1
  O2-  O185  1  0.32178824  0.57048033  0.91211554  1
  O2-  O186  1  0.82467134  0.06975065  0.24305031  1
  O2-  O187  1  0.81594848  0.07558513  0.57628259  1
  O2-  O188  1  0.81841942  0.07439415  0.90936188  1
  O2-  O189  1  0.82379134  0.57120798  0.23592775  1
  O2-  O190  1  0.82395855  0.57198000  0.58074670  1
  O2-  O191  1  0.82275889  0.56692092  0.90856333  1
  O2-  O192  1  0.04413819  0.08529875  0.27218785  1
  O2-  O193  1  0.04621360  0.08282133  0.60345319  1
  O2-  O194  1  0.04920094  0.08171436  0.92790786  1
  O2-  O195  1  0.05001024  0.58352361  0.26994370  1
  O2-  O196  1  0.04000901  0.58645466  0.59665201  1
  O2-  O197  1  0.04416128  0.58609070  0.93507307  1
  O2-  O198  1  0.54262504  0.08113612  0.26205950  1
  O2-  O199  1  0.54458888  0.08771677  0.60487018  1
  O2-  O200  1  0.54095675  0.08764183  0.93688532  1
  O2-  O201  1  0.53992394  0.58441801  0.26606737  1
  O2-  O202  1  0.54423798  0.58058580  0.60715389  1
  O2-  O203  1  0.54162049  0.57817789  0.93067636  1
  O2-  O204  1  0.16468211  0.20246501  0.27228582  1
  O2-  O205  1  0.16767077  0.20166336  0.60241489  1
  O2-  O206  1  0.17000650  0.21368769  0.93062722  1
  O2-  O207  1  0.16586079  0.70297937  0.26793334  1
  O2-  O208  1  0.16685791  0.70935584  0.59864078  1
  O2-  O209  1  0.16856814  0.69887678  0.93970653  1
  O2-  O210  1  0.66888107  0.20472116  0.26069109  1
  O2-  O211  1  0.65990733  0.20999055  0.60508700  1
  O2-  O212  1  0.66102947  0.20619012  0.93452451  1
  O2-  O213  1  0.67249546  0.70381055  0.27144660  1
  O2-  O214  1  0.66844089  0.69653577  0.60683838  1
  O2-  O215  1  0.66934657  0.70325840  0.92720149  1
  O2-  O216  1  0.08736588  0.45892413  0.06108947  1
  O2-  O217  1  0.08812620  0.45725906  0.39693133  1
  O2-  O218  1  0.08248500  0.45861996  0.72813580  1
  O2-  O219  1  0.08137068  0.95526219  0.06095368  1
  O2-  O220  1  0.08453364  0.96138691  0.40366613  1
  O2-  O221  1  0.07661109  0.95324951  0.73366850  1
  O2-  O222  1  0.58551143  0.45478238  0.06298558  1
  O2-  O223  1  0.57925108  0.45634484  0.39868663  1
  O2-  O224  1  0.58557115  0.45710699  0.73983419  1
  O2-  O225  1  0.58768685  0.96240804  0.06715308  1
  O2-  O226  1  0.58068352  0.96124855  0.40075341  1
  O2-  O227  1  0.59053363  0.96152346  0.72943379  1
  O2-  O228  1  0.20854222  0.34039602  0.06281183  1
  O2-  O229  1  0.20250246  0.33500851  0.39574861  1
  O2-  O230  1  0.19669286  0.33370941  0.72792720  1
  O2-  O231  1  0.19954193  0.83274933  0.06349436  1
  O2-  O232  1  0.20780779  0.83048395  0.39826005  1
  O2-  O233  1  0.20580501  0.83026732  0.73649277  1
  O2-  O234  1  0.70265122  0.33335965  0.06160081  1
  O2-  O235  1  0.70606321  0.32779712  0.39706587  1
  O2-  O236  1  0.71278584  0.33228997  0.73668312  1
  O2-  O237  1  0.71243733  0.82933221  0.06235726  1
  O2-  O238  1  0.70980072  0.83454296  0.40466514  1
  O2-  O239  1  0.70314358  0.83424671  0.72741727  1
  O2-  O240  1  0.45411218  0.41918183  0.26401754  1
  O2-  O241  1  0.46014452  0.41366955  0.60909426  1
  O2-  O242  1  0.45755134  0.41289386  0.93608002  1
  O2-  O243  1  0.44460692  0.92416830  0.27111219  1
  O2-  O244  1  0.46306304  0.91655322  0.59814988  1
  O2-  O245  1  0.46099385  0.92140964  0.93281441  1
  O2-  O246  1  0.96266156  0.41815324  0.26567681  1
  O2-  O247  1  0.95767427  0.41583291  0.59720821  1
  O2-  O248  1  0.95925693  0.41917070  0.92937273  1
  O2-  O249  1  0.96149422  0.91720591  0.26826306  1
  O2-  O250  1  0.94394754  0.92086001  0.60647601  1
  O2-  O251  1  0.95297910  0.91794619  0.93181041  1
  O2-  O252  1  0.32829149  0.29475126  0.26592458  1
  O2-  O253  1  0.33431944  0.30183326  0.61023100  1
  O2-  O254  1  0.33685619  0.29544397  0.93674371  1
  O2-  O255  1  0.33140575  0.78662418  0.26306501  1
  O2-  O256  1  0.33428718  0.78809717  0.60223982  1
  O2-  O257  1  0.32946542  0.79458346  0.93293404  1
  O2-  O258  1  0.83434077  0.29201494  0.26350346  1
  O2-  O259  1  0.83260480  0.28373049  0.59851304  1
  O2-  O260  1  0.82803059  0.29422261  0.93104901  1
  O2-  O261  1  0.83422536  0.78986212  0.26969248  1
  O2-  O262  1  0.83185151  0.79480634  0.60331591  1
  O2-  O263  1  0.83708343  0.78408243  0.92910437  1
  O2-  O264  1  0.41693067  0.04234437  0.07133387  1
  O2-  O265  1  0.41731726  0.05546244  0.39386887  1
  O2-  O266  1  0.42126901  0.04240543  0.73416318  1
  O2-  O267  1  0.41317308  0.54014567  0.06384522  1
  O2-  O268  1  0.41119973  0.54176966  0.39452750  1
  O2-  O269  1  0.41477574  0.53837591  0.73936073  1
  O2-  O270  1  0.92031833  0.05434460  0.05642236  1
  O2-  O271  1  0.91433375  0.04543071  0.39809115  1
  O2-  O272  1  0.91308630  0.05227935  0.72795621  1
  O2-  O273  1  0.91387246  0.54219326  0.06139735  1
  O2-  O274  1  0.92295018  0.54422550  0.40179105  1
  O2-  O275  1  0.91726892  0.54372852  0.73109373  1
  O2-  O276  1  0.29025177  0.16938488  0.07006049  1
  O2-  O277  1  0.29183057  0.16626941  0.39852922  1
  O2-  O278  1  0.29638354  0.17165414  0.73441766  1
  O2-  O279  1  0.29525874  0.66393547  0.06492657  1
  O2-  O280  1  0.29002111  0.65987061  0.39494059  1
  O2-  O281  1  0.28642697  0.66434081  0.73641429  1
  O2-  O282  1  0.79302150  0.16571695  0.06145665  1
  O2-  O283  1  0.79539816  0.16526344  0.39349794  1
  O2-  O284  1  0.78420658  0.15960266  0.73236247  1
  O2-  O285  1  0.79245365  0.65995357  0.05999867  1
  O2-  O286  1  0.79684053  0.66911464  0.40660091  1
  O2-  O287  1  0.79995023  0.66628155  0.73217495  1
