# generated using pymatgen
data_Ca2Al2SiO7
_symmetry_space_group_name_H-M   'P 1'
_cell_length_a   15.46208618
_cell_length_b   15.46293397
_cell_length_c   15.28605668
_cell_angle_alpha   89.97362739
_cell_angle_beta   90.00706739
_cell_angle_gamma   90.01560524
_symmetry_Int_Tables_number   1
_chemical_formula_structural   Ca2Al2SiO7
_chemical_formula_sum   'Ca48 Al48 Si24 O168'
_cell_volume   3654.73078106
_cell_formula_units_Z   24
loop_
 _symmetry_equiv_pos_site_id
 _symmetry_equiv_pos_as_xyz
  1  'x, y, z'
loop_
 _atom_type_symbol
 _atom_type_oxidation_number
  Ca2+  2.0
  Al0+  0.0
  Si0+  0.0
  O2-  -2.0
loop_
 _atom_site_type_symbol
 _atom_site_label
 _atom_site_symmetry_multiplicity
 _atom_site_fract_x
 _atom_site_fract_y
 _atom_site_fract_z
 _atom_site_occupancy
  Ca2+  Ca0  1  0.17973941  0.07850483  0.16898747  1
  Ca2+  Ca1  1  0.18052458  0.08445129  0.50908826  1
  Ca2+  Ca2  1  0.17851530  0.08199543  0.84114378  1
  Ca2+  Ca3  1  0.17934141  0.58895348  0.16531797  1
  Ca2+  Ca4  1  0.17054674  0.58008308  0.50722607  1
  Ca2+  Ca5  1  0.16539917  0.57661585  0.84149673  1
  Ca2+  Ca6  1  0.67174176  0.08437202  0.17515690  1
  Ca2+  Ca7  1  0.66807362  0.08294930  0.50345675  1
  Ca2+  Ca8  1  0.67457154  0.09286541  0.83807460  1
  Ca2+  Ca9  1  0.65204930  0.57882712  0.16908136  1
  Ca2+  Ca10  1  0.67058344  0.58721516  0.50470241  1
  Ca2+  Ca11  1  0.66986868  0.58081797  0.84240275  1
  Ca2+  Ca12  1  0.08151831  0.33429363  0.16149807  1
  Ca2+  Ca13  1  0.08695195  0.32888177  0.50333493  1
  Ca2+  Ca14  1  0.08816524  0.33056816  0.82493521  1
  Ca2+  Ca15  1  0.08492955  0.83217906  0.15708709  1
  Ca2+  Ca16  1  0.08286422  0.82795311  0.49887976  1
  Ca2+  Ca17  1  0.09290489  0.82321518  0.83152863  1
  Ca2+  Ca18  1  0.58373375  0.32304893  0.15811071  1
  Ca2+  Ca19  1  0.58562129  0.31988455  0.49652647  1
  Ca2+  Ca20  1  0.58380521  0.32543576  0.83355054  1
  Ca2+  Ca21  1  0.58115419  0.82735727  0.16613289  1
  Ca2+  Ca22  1  0.57406430  0.83248781  0.49042083  1
  Ca2+  Ca23  1  0.57534218  0.82926097  0.82884131  1
  Ca2+  Ca24  1  0.33420984  0.42869883  0.16644549  1
  Ca2+  Ca25  1  0.33061554  0.42404446  0.50418426  1
  Ca2+  Ca26  1  0.32027337  0.42030443  0.84179395  1
  Ca2+  Ca27  1  0.33498545  0.92096784  0.16774775  1
  Ca2+  Ca28  1  0.34602650  0.92355333  0.50117147  1
  Ca2+  Ca29  1  0.33249289  0.92332209  0.83497582  1
  Ca2+  Ca30  1  0.82482964  0.41757357  0.16541093  1
  Ca2+  Ca31  1  0.83062292  0.42305345  0.50672365  1
  Ca2+  Ca32  1  0.82737591  0.42082825  0.83560723  1
  Ca2+  Ca33  1  0.82547044  0.92743778  0.17326672  1
  Ca2+  Ca34  1  0.82345582  0.92375227  0.50224268  1
  Ca2+  Ca35  1  0.83357968  0.92902768  0.83776431  1
  Ca2+  Ca36  1  0.42620657  0.15650438  0.16305125  1
  Ca2+  Ca37  1  0.42505745  0.15983786  0.49452064  1
  Ca2+  Ca38  1  0.42518750  0.15776828  0.82712420  1
  Ca2+  Ca39  1  0.41911308  0.66707059  0.16259194  1
  Ca2+  Ca40  1  0.41709464  0.67927306  0.48940705  1
  Ca2+  Ca41  1  0.41486117  0.67078962  0.83108858  1
  Ca2+  Ca42  1  0.91250802  0.16409578  0.16110588  1
  Ca2+  Ca43  1  0.92133036  0.15645264  0.49909228  1
  Ca2+  Ca44  1  0.92192938  0.16412502  0.82622915  1
  Ca2+  Ca45  1  0.92478442  0.67196643  0.15710869  1
  Ca2+  Ca46  1  0.92095390  0.66184193  0.50050125  1
  Ca2+  Ca47  1  0.92758444  0.66328034  0.82650216  1
  Al0+  Al48  1  -0.00052469  0.00201698  0.00665929  1
  Al0+  Al49  1  0.00084631  -0.00077871  0.33477877  1
  Al0+  Al50  1  -0.00057522  -0.00196048  0.66509059  1
  Al0+  Al51  1  -0.00234019  0.49997843  -0.00014541  1
  Al0+  Al52  1  -0.00092185  0.49787059  0.33140509  1
  Al0+  Al53  1  -0.00085614  0.49959385  0.66859923  1
  Al0+  Al54  1  0.50276748  -0.00192419  -0.00327351  1
  Al0+  Al55  1  0.50043041  -0.00152406  0.33075851  1
  Al0+  Al56  1  0.50111888  -0.00183574  0.66343627  1
  Al0+  Al57  1  0.49986736  0.49828045  0.00098365  1
  Al0+  Al58  1  0.49798753  0.49821308  0.33912995  1
  Al0+  Al59  1  0.49971755  0.49892918  0.66700637  1
  Al0+  Al60  1  0.25035793  0.25096409  0.00948105  1
  Al0+  Al61  1  0.24838676  0.24969411  0.33560685  1
  Al0+  Al62  1  0.25106694  0.25069985  0.66951292  1
  Al0+  Al63  1  0.24907462  0.75040682  0.00108068  1
  Al0+  Al64  1  0.25014149  0.74935441  0.33342305  1
  Al0+  Al65  1  0.25046949  0.75098587  0.65594324  1
  Al0+  Al66  1  0.75022469  0.25270476  0.00275653  1
  Al0+  Al67  1  0.75255434  0.25241852  0.33408628  1
  Al0+  Al68  1  0.75028058  0.25083191  0.66555818  1
  Al0+  Al69  1  0.75113597  0.75221328  -0.00588580  1
  Al0+  Al70  1  0.75140851  0.74998474  0.33296611  1
  Al0+  Al71  1  0.75147910  0.75040440  0.67248048  1
  Al0+  Al72  1  0.57100196  0.18102645  0.65270341  1
  Al0+  Al73  1  0.17502795  0.42797714  0.01672685  1
  Al0+  Al74  1  0.67960002  0.43156540  0.01338883  1
  Al0+  Al75  1  0.32500441  0.07108392  0.01485036  1
  Al0+  Al76  1  0.82093798  0.07084151  0.68099286  1
  Al0+  Al77  1  0.32222168  0.06965674  0.67948811  1
  Al0+  Al78  1  0.81973732  0.57155097  0.68070965  1
  Al0+  Al79  1  0.57236981  0.67723399  0.31986407  1
  Al0+  Al80  1  0.43049952  0.81892424  0.65233073  1
  Al0+  Al81  1  0.07029966  0.68031866  0.98630785  1
  Al0+  Al82  1  0.81886688  0.07192843  0.01335829  1
  Al0+  Al83  1  0.32018385  0.06994525  0.34789093  1
  Al0+  Al84  1  0.07245284  0.17737620  0.65496784  1
  Al0+  Al85  1  0.18066284  0.43042712  0.67936455  1
  Al0+  Al86  1  0.57107496  0.18109156  0.31944132  1
  Al0+  Al87  1  0.67914204  0.92809617  0.34799874  1
  Al0+  Al88  1  0.17924702  0.92964783  0.01297073  1
  Al0+  Al89  1  0.42792214  0.82119496  0.31425437  1
  Al0+  Al90  1  0.32063637  0.57127076  0.01301493  1
  Al0+  Al91  1  0.57079887  0.17853856  0.98636724  1
  Al0+  Al92  1  0.82151923  0.07355299  0.35021746  1
  Al0+  Al93  1  0.57072091  0.67698114  0.98500794  1
  Al0+  Al94  1  0.32056513  0.57074595  0.34935467  1
  Al0+  Al95  1  0.06904848  0.67821915  0.65171210  1
  Si0+  Si96  1  0.92891311  0.32088046  0.65000470  1
  Si0+  Si97  1  0.92564708  0.82231318  0.64835215  1
  Si0+  Si98  1  0.82106048  0.57429374  0.01670998  1
  Si0+  Si99  1  0.93025096  0.32215542  0.31703767  1
  Si0+  Si100  1  0.67677746  0.42753340  0.68334287  1
  Si0+  Si101  1  0.07135318  0.18023161  0.98752156  1
  Si0+  Si102  1  0.42642710  0.32347456  0.65015518  1
  Si0+  Si103  1  0.07123719  0.17822429  0.31765015  1
  Si0+  Si104  1  0.17712239  0.92671547  0.68090134  1
  Si0+  Si105  1  0.92988024  0.82148206  0.31794062  1
  Si0+  Si106  1  0.92828401  0.32112353  0.98437716  1
  Si0+  Si107  1  0.42767446  0.82137353  0.98142230  1
  Si0+  Si108  1  0.57404915  0.67611190  0.65207805  1
  Si0+  Si109  1  0.17520783  0.42895744  0.35163729  1
  Si0+  Si110  1  0.06942406  0.67756174  0.31779147  1
  Si0+  Si111  1  0.42673383  0.32130452  0.98394490  1
  Si0+  Si112  1  0.42534812  0.32170518  0.31700466  1
  Si0+  Si113  1  0.67862119  0.92536939  0.01577189  1
  Si0+  Si114  1  0.17707746  0.92682610  0.35164621  1
  Si0+  Si115  1  0.82281045  0.57044243  0.34653117  1
  Si0+  Si116  1  0.67770815  0.92834790  0.68536640  1
  Si0+  Si117  1  0.92875002  0.82541530  0.98216708  1
  Si0+  Si118  1  0.32178232  0.57468476  0.68194217  1
  Si0+  Si119  1  0.67892916  0.42932275  0.34918283  1
  O2-  O120  1  0.25256107  -0.00087350  0.06418566  1
  O2-  O121  1  0.24642105  -0.00554146  0.39560995  1
  O2-  O122  1  0.24271951  -0.00128459  0.72409294  1
  O2-  O123  1  0.24683528  0.50097001  0.06432664  1
  O2-  O124  1  0.24481653  0.49643728  0.39532028  1
  O2-  O125  1  0.25445658  0.50539203  0.72644326  1
  O2-  O126  1  0.74358599  -0.00195200  0.05909534  1
  O2-  O127  1  0.74671433  0.00432308  0.39906461  1
  O2-  O128  1  0.74542484  -0.00169775  0.72943640  1
  O2-  O129  1  0.74802088  0.51157023  0.06249591  1
  O2-  O130  1  0.74647992  0.50512636  0.38904975  1
  O2-  O131  1  0.74069109  0.50130687  0.72645487  1
  O2-  O132  1  -0.00177749  0.24779339  0.27565577  1
  O2-  O133  1  -0.00464269  0.24969752  0.60605183  1
  O2-  O134  1  0.00317164  0.25356825  0.94384083  1
  O2-  O135  1  0.00163139  0.75128273  0.27535540  1
  O2-  O136  1  -0.00602098  0.75261905  0.60418107  1
  O2-  O137  1  -0.00317528  0.75592660  0.93826584  1
  O2-  O138  1  0.49344537  0.25279001  0.27222020  1
  O2-  O139  1  0.49528948  0.25488173  0.60590572  1
  O2-  O140  1  0.49056919  0.24777370  0.93960242  1
  O2-  O141  1  0.49991609  0.74712761  0.26747220  1
  O2-  O142  1  0.50388027  0.74166662  0.60725049  1
  O2-  O143  1  0.49568471  0.75083002  0.93820294  1
  O2-  O144  1  0.06804741  0.18057964  0.09292704  1
  O2-  O145  1  0.07174482  0.17999136  0.42278145  1
  O2-  O146  1  0.07194700  0.17948275  0.76825112  1
  O2-  O147  1  0.06729320  0.68133143  0.09997663  1
  O2-  O148  1  0.06580470  0.67555864  0.42299095  1
  O2-  O149  1  0.06919051  0.67904310  0.76455062  1
  O2-  O150  1  0.57284877  0.18131659  0.09943556  1
  O2-  O151  1  0.57207360  0.18398264  0.43275586  1
  O2-  O152  1  0.57209801  0.18363744  0.76583957  1
  O2-  O153  1  0.57009052  0.67881418  0.09775267  1
  O2-  O154  1  0.57330798  0.67831541  0.43378111  1
  O2-  O155  1  0.57345160  0.67673133  0.75769348  1
  O2-  O156  1  0.17174487  0.43062296  0.24653511  1
  O2-  O157  1  0.18124947  0.43163876  0.56597499  1
  O2-  O158  1  0.17556921  0.42802982  0.90301334  1
  O2-  O159  1  0.17374216  0.92904596  0.24619633  1
  O2-  O160  1  0.17633218  0.92695547  0.57526588  1
  O2-  O161  1  0.17886187  0.93118465  0.89914678  1
  O2-  O162  1  0.68122474  0.42755214  0.24420527  1
  O2-  O163  1  0.67916201  0.42683221  0.57739289  1
  O2-  O164  1  0.68415591  0.43009601  0.90036838  1
  O2-  O165  1  0.68394524  0.92670332  0.23437462  1
  O2-  O166  1  0.67926184  0.92727507  0.57990847  1
  O2-  O167  1  0.68086378  0.92390800  0.91009226  1
  O2-  O168  1  0.43047135  0.32407966  0.08954225  1
  O2-  O169  1  0.42678630  0.32169572  0.42286840  1
  O2-  O170  1  0.42711640  0.32568598  0.75547800  1
  O2-  O171  1  0.42842537  0.82249806  0.08660129  1
  O2-  O172  1  0.42924251  0.81912984  0.42800953  1
  O2-  O173  1  0.43012829  0.81784599  0.76567519  1
  O2-  O174  1  0.92667894  0.32041478  0.08993694  1
  O2-  O175  1  0.93166319  0.32830511  0.42161038  1
  O2-  O176  1  0.92869076  0.32115089  0.75563151  1
  O2-  O177  1  0.92843542  0.82316085  0.08820079  1
  O2-  O178  1  0.93073197  0.82008606  0.42296500  1
  O2-  O179  1  0.92526381  0.82307418  0.75366180  1
  O2-  O180  1  0.31745861  0.07074349  0.23516287  1
  O2-  O181  1  0.32238158  0.06837610  0.56632954  1
  O2-  O182  1  0.32313412  0.07010071  0.90096315  1
  O2-  O183  1  0.31958290  0.56989129  0.23653396  1
  O2-  O184  1  0.32023550  0.57245376  0.57623810  1
  O2-  O185  1  0.31901872  0.57004102  0.89910903  1
  O2-  O186  1  0.82137718  0.07201650  0.23649821  1
  O2-  O187  1  0.82018802  0.06890231  0.56836368  1
  O2-  O188  1  0.82051739  0.07200342  0.90010198  1
  O2-  O189  1  0.82876681  0.56688768  0.24196393  1
  O2-  O190  1  0.81935723  0.56880033  0.56670072  1
  O2-  O191  1  0.82229606  0.57020802  0.91122384  1
  O2-  O192  1  0.04515460  0.08557421  0.27109706  1
  O2-  O193  1  0.04357830  0.08059509  0.59974172  1
  O2-  O194  1  0.04079207  0.08899276  0.94094871  1
  O2-  O195  1  0.03797958  0.58683711  0.27046548  1
  O2-  O196  1  0.03524198  0.58226816  0.59742905  1
  O2-  O197  1  0.03662017  0.58352060  0.93358108  1
  O2-  O198  1  0.54402596  0.08349223  0.26707687  1
  O2-  O199  1  0.54187654  0.08380041  0.60016784  1
  O2-  O200  1  0.54817799  0.08004260  0.93186346  1
  O2-  O201  1  0.54320849  0.57653438  0.27156013  1
  O2-  O202  1  0.55405075  0.58022040  0.60771980  1
  O2-  O203  1  0.54265127  0.57915004  0.93178865  1
  O2-  O204  1  0.16195763  0.20859947  0.26944403  1
  O2-  O205  1  0.16771366  0.21233082  0.59984675  1
  O2-  O206  1  0.16517962  0.20564339  0.94300488  1
  O2-  O207  1  0.16200308  0.70353208  0.27245623  1
  O2-  O208  1  0.16389667  0.70910101  0.59443945  1
  O2-  O209  1  0.16714497  0.70926858  0.93186060  1
  O2-  O210  1  0.66828854  0.21557893  0.26784693  1
  O2-  O211  1  0.66694264  0.21410715  0.59775056  1
  O2-  O212  1  0.66611303  0.21771604  0.93388367  1
  O2-  O213  1  0.67272070  0.70175381  0.26757274  1
  O2-  O214  1  0.66860626  0.70289847  0.60833266  1
  O2-  O215  1  0.66844650  0.70722601  0.93131237  1
  O2-  O216  1  0.07516355  0.45440249  0.06785292  1
  O2-  O217  1  0.08197608  0.45654793  0.39833211  1
  O2-  O218  1  0.08340737  0.45874091  0.73240352  1
  O2-  O219  1  0.08235590  0.95868446  0.06936137  1
  O2-  O220  1  0.08373278  0.95240691  0.39849719  1
  O2-  O221  1  0.08205681  0.94567352  0.72595189  1
  O2-  O222  1  0.58250605  0.45588805  0.06830903  1
  O2-  O223  1  0.58672845  0.45040844  0.39821991  1
  O2-  O224  1  0.58126423  0.44668583  0.72825721  1
  O2-  O225  1  0.58384131  0.94645227  0.05947417  1
  O2-  O226  1  0.57990442  0.95328123  0.39919706  1
  O2-  O227  1  0.58434198  0.95347407  0.73078259  1
  O2-  O228  1  0.20248248  0.33120107  0.07297982  1
  O2-  O229  1  0.19953165  0.33450327  0.39645506  1
  O2-  O230  1  0.21077719  0.33469625  0.73507408  1
  O2-  O231  1  0.20414669  0.83117332  0.06673365  1
  O2-  O232  1  0.19955128  0.83193903  0.39596150  1
  O2-  O233  1  0.20852879  0.83371865  0.72518380  1
  O2-  O234  1  0.71748000  0.33889842  0.07039692  1
  O2-  O235  1  0.71451432  0.34132739  0.39906316  1
  O2-  O236  1  0.70893984  0.33687361  0.73083458  1
  O2-  O237  1  0.70862134  0.83341726  0.06306418  1
  O2-  O238  1  0.71278137  0.83090479  0.40230215  1
  O2-  O239  1  0.70398632  0.83536151  0.73269769  1
  O2-  O240  1  0.45291232  0.41530997  0.27258872  1
  O2-  O241  1  0.45183615  0.41750535  0.60248835  1
  O2-  O242  1  0.45697788  0.41220095  0.93504966  1
  O2-  O243  1  0.45701122  0.91878050  0.26131140  1
  O2-  O244  1  0.46475811  0.91353402  0.59686284  1
  O2-  O245  1  0.45644001  0.91326048  0.93296797  1
  O2-  O246  1  0.96069342  0.41173738  0.26527488  1
  O2-  O247  1  0.95749656  0.41310070  0.60233141  1
  O2-  O248  1  0.95067581  0.41427405  0.93710535  1
  O2-  O249  1  0.95746632  0.91341879  0.26999820  1
  O2-  O250  1  0.95221403  0.91441185  0.59981722  1
  O2-  O251  1  0.95560989  0.91963307  0.93799848  1
  O2-  O252  1  0.33035668  0.29905978  0.27246735  1
  O2-  O253  1  0.33339565  0.29868312  0.60325332  1
  O2-  O254  1  0.33005725  0.30051184  0.94186331  1
  O2-  O255  1  0.32775129  0.79324609  0.26409552  1
  O2-  O256  1  0.33510994  0.79241273  0.59367062  1
  O2-  O257  1  0.33386371  0.79614758  0.93599360  1
  O2-  O258  1  0.83800942  0.29745661  0.26888461  1
  O2-  O259  1  0.83482185  0.29913206  0.60315228  1
  O2-  O260  1  0.83851257  0.29014397  0.93549131  1
  O2-  O261  1  0.83965139  0.79207175  0.26895966  1
  O2-  O262  1  0.83206109  0.79478539  0.60262574  1
  O2-  O263  1  0.83571175  0.80198972  0.93421762  1
  O2-  O264  1  0.42389766  0.04082296  0.06532481  1
  O2-  O265  1  0.41774337  0.04008584  0.39941106  1
  O2-  O266  1  0.41770427  0.03448599  0.73261886  1
  O2-  O267  1  0.41745190  0.53988256  0.06700435  1
  O2-  O268  1  0.41565594  0.53899303  0.40641262  1
  O2-  O269  1  0.41711977  0.55153133  0.72587978  1
  O2-  O270  1  0.91431008  0.04208824  0.06975021  1
  O2-  O271  1  0.92014945  0.04122292  0.40072897  1
  O2-  O272  1  0.91826330  0.03916089  0.73389456  1
  O2-  O273  1  0.91171714  0.54262917  0.06501811  1
  O2-  O274  1  0.91169736  0.53540967  0.39657719  1
  O2-  O275  1  0.91391161  0.53577928  0.73536685  1
  O2-  O276  1  0.29794346  0.16854455  0.06956505  1
  O2-  O277  1  0.28834872  0.16704583  0.40155320  1
  O2-  O278  1  0.29556232  0.16723276  0.73260228  1
  O2-  O279  1  0.29218945  0.66877751  0.06705901  1
  O2-  O280  1  0.28815807  0.66720140  0.40245776  1
  O2-  O281  1  0.29474343  0.66886782  0.72451572  1
  O2-  O282  1  0.78979804  0.16835244  0.06762198  1
  O2-  O283  1  0.79955305  0.17448846  0.40069392  1
  O2-  O284  1  0.79270713  0.16949590  0.73241418  1
  O2-  O285  1  0.80326691  0.67123309  0.05798513  1
  O2-  O286  1  0.80138428  0.66332205  0.39387794  1
  O2-  O287  1  0.79641107  0.66882480  0.73661893  1
