# generated using pymatgen
data_Ca2Al2SiO7
_symmetry_space_group_name_H-M   'P 1'
_cell_length_a   15.45626826
_cell_length_b   15.45602174
_cell_length_c   15.28225249
_cell_angle_alpha   90.00958509
_cell_angle_beta   89.99697821
_cell_angle_gamma   89.99210173
_symmetry_Int_Tables_number   1
_chemical_formula_structural   Ca2Al2SiO7
_chemical_formula_sum   'Ca48 Al48 Si24 O168'
_cell_volume   3650.81416236
_cell_formula_units_Z   24
loop_
 _symmetry_equiv_pos_site_id
 _symmetry_equiv_pos_as_xyz
  1  'x, y, z'
loop_
 _atom_type_symbol
 _atom_type_oxidation_number
  Ca2+  2.0
  Al0+  0.0
  Si0+  0.0
  O2-  -2.0
loop_
 _atom_site_type_symbol
 _atom_site_label
 _atom_site_symmetry_multiplicity
 _atom_site_fract_x
 _atom_site_fract_y
 _atom_site_fract_z
 _atom_site_occupancy
  Ca2+  Ca0  1  0.17228470  0.07890014  0.17361106  1
  Ca2+  Ca1  1  0.16937133  0.08056346  0.50265006  1
  Ca2+  Ca2  1  0.18162195  0.08290325  0.83818018  1
  Ca2+  Ca3  1  0.17289472  0.57299888  0.17459749  1
  Ca2+  Ca4  1  0.17180208  0.57579931  0.50044251  1
  Ca2+  Ca5  1  0.16484353  0.57081742  0.83656850  1
  Ca2+  Ca6  1  0.66656230  0.08378501  0.17314731  1
  Ca2+  Ca7  1  0.66168935  0.08517363  0.50475113  1
  Ca2+  Ca8  1  0.66431182  0.08341116  0.83427095  1
  Ca2+  Ca9  1  0.66626082  0.57479391  0.17191326  1
  Ca2+  Ca10  1  0.66649591  0.58271603  0.50324063  1
  Ca2+  Ca11  1  0.67500642  0.58634107  0.83773565  1
  Ca2+  Ca12  1  0.08769166  0.33485205  0.16587798  1
  Ca2+  Ca13  1  0.07617902  0.33881232  0.49427959  1
  Ca2+  Ca14  1  0.08102900  0.33962226  0.82554773  1
  Ca2+  Ca15  1  0.08194389  0.83284595  0.16191520  1
  Ca2+  Ca16  1  0.07951327  0.83823815  0.49420300  1
  Ca2+  Ca17  1  0.07104226  0.83032513  0.82942715  1
  Ca2+  Ca18  1  0.58165473  0.33485557  0.16354069  1
  Ca2+  Ca19  1  0.58962814  0.32303576  0.49165036  1
  Ca2+  Ca20  1  0.57943664  0.33219151  0.83147432  1
  Ca2+  Ca21  1  0.57185759  0.82584904  0.16586451  1
  Ca2+  Ca22  1  0.57228671  0.81986618  0.49693773  1
  Ca2+  Ca23  1  0.57581171  0.82733452  0.82603249  1
  Ca2+  Ca24  1  0.32742096  0.41732040  0.17336245  1
  Ca2+  Ca25  1  0.32396597  0.41766914  0.50132011  1
  Ca2+  Ca26  1  0.32326193  0.41032140  0.84106040  1
  Ca2+  Ca27  1  0.33571603  0.91810047  0.17335388  1
  Ca2+  Ca28  1  0.33526017  0.91735538  0.50357087  1
  Ca2+  Ca29  1  0.34681343  0.92597291  0.83582518  1
  Ca2+  Ca30  1  0.82437277  0.41820109  0.17105712  1
  Ca2+  Ca31  1  0.83216009  0.41706006  0.50496908  1
  Ca2+  Ca32  1  0.82838008  0.42693075  0.83897758  1
  Ca2+  Ca33  1  0.83452189  0.91680529  0.16975291  1
  Ca2+  Ca34  1  0.83179453  0.91843509  0.50717021  1
  Ca2+  Ca35  1  0.83411923  0.91305093  0.83834891  1
  Ca2+  Ca36  1  0.41919570  0.17078336  0.16138313  1
  Ca2+  Ca37  1  0.42424850  0.16380548  0.49933327  1
  Ca2+  Ca38  1  0.41638232  0.16813703  0.83011772  1
  Ca2+  Ca39  1  0.41224423  0.67198095  0.16418236  1
  Ca2+  Ca40  1  0.41999171  0.66997488  0.48925251  1
  Ca2+  Ca41  1  0.42158413  0.67825989  0.82343999  1
  Ca2+  Ca42  1  0.92424830  0.17421038  0.17094647  1
  Ca2+  Ca43  1  0.92232358  0.18205690  0.49082202  1
  Ca2+  Ca44  1  0.92145832  0.17764258  0.82480913  1
  Ca2+  Ca45  1  0.91658981  0.66860772  0.15991879  1
  Ca2+  Ca46  1  0.91423408  0.66778941  0.50235272  1
  Ca2+  Ca47  1  0.90864568  0.67040823  0.82750904  1
  Al0+  Al48  1  0.00097628  0.00027500  -0.00489913  1
  Al0+  Al49  1  0.00022759  0.00336143  0.33413936  1
  Al0+  Al50  1  0.00001580  0.00031970  0.66562405  1
  Al0+  Al51  1  -0.00010178  0.49946085  0.00815636  1
  Al0+  Al52  1  -0.00237091  0.50300377  0.33173352  1
  Al0+  Al53  1  -0.00203285  0.50154041  0.67056413  1
  Al0+  Al54  1  0.50208596  -0.00007393  0.00214457  1
  Al0+  Al55  1  0.50140113  -0.00094146  0.32682841  1
  Al0+  Al56  1  0.50059456  -0.00012160  0.66390973  1
  Al0+  Al57  1  0.49966852  0.49886315  -0.00339713  1
  Al0+  Al58  1  0.50251792  0.49851932  0.33897809  1
  Al0+  Al59  1  0.49871523  0.49849561  0.66470556  1
  Al0+  Al60  1  0.25237875  0.24687885  0.00509770  1
  Al0+  Al61  1  0.24988055  0.24789833  0.33562416  1
  Al0+  Al62  1  0.25049410  0.24734523  0.67386082  1
  Al0+  Al63  1  0.24770590  0.75054149  -0.00921692  1
  Al0+  Al64  1  0.24768538  0.75188497  0.33777302  1
  Al0+  Al65  1  0.24691733  0.75014091  0.66602753  1
  Al0+  Al66  1  0.75254798  0.24893683  0.00265330  1
  Al0+  Al67  1  0.75198307  0.25030818  0.32814575  1
  Al0+  Al68  1  0.75106392  0.25018077  0.66178368  1
  Al0+  Al69  1  0.75033399  0.75169545  0.00184609  1
  Al0+  Al70  1  0.74739449  0.75084684  0.33021354  1
  Al0+  Al71  1  0.74883080  0.75059887  0.66205910  1
  Al0+  Al72  1  0.57070113  0.67671530  0.65168381  1
  Al0+  Al73  1  0.17806123  0.93038463  0.34621289  1
  Al0+  Al74  1  0.32144777  0.06676747  0.68046029  1
  Al0+  Al75  1  0.57027413  0.18158296  0.65440932  1
  Al0+  Al76  1  0.57142700  0.67559042  0.31613510  1
  Al0+  Al77  1  0.92930266  0.82172588  0.65181730  1
  Al0+  Al78  1  0.42760049  0.82126417  0.65088445  1
  Al0+  Al79  1  0.92916636  0.82048542  0.98714331  1
  Al0+  Al80  1  0.32295202  0.06795077  0.01604546  1
  Al0+  Al81  1  0.32154813  0.57126325  0.34713705  1
  Al0+  Al82  1  0.68078320  0.42779034  0.34836113  1
  Al0+  Al83  1  0.18033076  0.42819466  0.01469611  1
  Al0+  Al84  1  0.42808172  0.82149985  0.98509008  1
  Al0+  Al85  1  0.81994191  0.57302326  0.01663329  1
  Al0+  Al86  1  0.18056448  0.43069082  0.68038991  1
  Al0+  Al87  1  0.67746562  0.42768324  0.01448215  1
  Al0+  Al88  1  0.07274146  0.17911762  0.31857144  1
  Al0+  Al89  1  0.81726064  0.57082922  0.67950394  1
  Al0+  Al90  1  0.57127109  0.17880371  0.31865119  1
  Al0+  Al91  1  0.17724034  0.42711756  0.34905639  1
  Al0+  Al92  1  0.93077032  0.32264344  0.65493973  1
  Al0+  Al93  1  0.42667955  0.81861984  0.31751029  1
  Al0+  Al94  1  0.93042599  0.32478362  0.31588323  1
  Al0+  Al95  1  0.42877716  0.32049574  0.98769417  1
  Si0+  Si96  1  0.67714459  0.42408622  0.68273986  1
  Si0+  Si97  1  0.92855719  0.82291364  0.31926430  1
  Si0+  Si98  1  0.68130226  0.93110868  0.68082748  1
  Si0+  Si99  1  0.82046765  0.57524816  0.35104885  1
  Si0+  Si100  1  0.07066103  0.67537365  0.98259019  1
  Si0+  Si101  1  0.07182621  0.17918046  0.98409038  1
  Si0+  Si102  1  0.32470723  0.07052421  0.35057935  1
  Si0+  Si103  1  0.93003424  0.32091617  0.98466758  1
  Si0+  Si104  1  0.07022224  0.68077599  0.31884165  1
  Si0+  Si105  1  0.57421700  0.17846231  0.98371393  1
  Si0+  Si106  1  0.68036144  0.93032906  0.01583780  1
  Si0+  Si107  1  0.17681898  0.92861815  0.01420685  1
  Si0+  Si108  1  0.07357661  0.17867423  0.65161228  1
  Si0+  Si109  1  0.17427830  0.92642719  0.68587034  1
  Si0+  Si110  1  0.07006680  0.67758356  0.64938873  1
  Si0+  Si111  1  0.82423250  0.07105509  0.01506951  1
  Si0+  Si112  1  0.32332985  0.57359523  0.68423126  1
  Si0+  Si113  1  0.82248009  0.07269330  0.68138903  1
  Si0+  Si114  1  0.67869375  0.92918243  0.34899582  1
  Si0+  Si115  1  0.32127073  0.57439381  0.01247257  1
  Si0+  Si116  1  0.42802665  0.32119829  0.31930679  1
  Si0+  Si117  1  0.57146108  0.67794750  0.98347508  1
  Si0+  Si118  1  0.82038830  0.07012018  0.34900146  1
  Si0+  Si119  1  0.42471059  0.32097599  0.65042881  1
  O2-  O120  1  0.25042647  -0.00989432  0.06025237  1
  O2-  O121  1  0.25455257  0.00281842  0.39359998  1
  O2-  O122  1  0.24760422  -0.00927328  0.72872507  1
  O2-  O123  1  0.25528122  0.50398872  0.05819955  1
  O2-  O124  1  0.25128903  0.49741604  0.39784963  1
  O2-  O125  1  0.25745647  0.50242745  0.72916237  1
  O2-  O126  1  0.75243280  0.00103655  0.05764365  1
  O2-  O127  1  0.74894270  0.00042168  0.39252065  1
  O2-  O128  1  0.75294535  0.00114264  0.72503675  1
  O2-  O129  1  0.74747842  0.50130207  0.06525319  1
  O2-  O130  1  0.75400094  0.50450361  0.39440108  1
  O2-  O131  1  0.74054543  0.49779718  0.72627958  1
  O2-  O132  1  0.00784942  0.25712179  0.26707896  1
  O2-  O133  1  0.00573779  0.24804855  0.60846273  1
  O2-  O134  1  0.00391120  0.25320096  0.94129747  1
  O2-  O135  1  -0.00162799  0.75168177  0.27666785  1
  O2-  O136  1  0.00678625  0.75126720  0.60409345  1
  O2-  O137  1  -0.00033619  0.74272637  0.93942572  1
  O2-  O138  1  0.49612216  0.25259762  0.27337177  1
  O2-  O139  1  0.49934072  0.25885096  0.60638331  1
  O2-  O140  1  0.50702236  0.24855566  0.94077141  1
  O2-  O141  1  0.49500646  0.74335991  0.26679893  1
  O2-  O142  1  0.49085404  0.74087097  0.60275985  1
  O2-  O143  1  0.49983825  0.74358377  0.93934778  1
  O2-  O144  1  0.06889365  0.17652906  0.08864385  1
  O2-  O145  1  0.06723908  0.17457232  0.43197393  1
  O2-  O146  1  0.07133599  0.17839324  0.75783689  1
  O2-  O147  1  0.07302113  0.67839317  0.08822036  1
  O2-  O148  1  0.06833725  0.68106362  0.42391218  1
  O2-  O149  1  0.06722892  0.67729298  0.75516720  1
  O2-  O150  1  0.57455053  0.17686807  0.08909093  1
  O2-  O151  1  0.57029749  0.17796248  0.43188051  1
  O2-  O152  1  0.57124464  0.18064861  0.76761379  1
  O2-  O153  1  0.57172250  0.67967419  0.08875959  1
  O2-  O154  1  0.57436482  0.68077204  0.42936436  1
  O2-  O155  1  0.57331680  0.68234919  0.76579606  1
  O2-  O156  1  0.18019787  0.43011621  0.23538529  1
  O2-  O157  1  0.18010161  0.43198562  0.56780223  1
  O2-  O158  1  0.17908266  0.42904215  0.90117987  1
  O2-  O159  1  0.17558164  0.93138828  0.23295980  1
  O2-  O160  1  0.16985528  0.93039880  0.58045684  1
  O2-  O161  1  0.17214304  0.93347160  0.90893956  1
  O2-  O162  1  0.68240481  0.42734354  0.23533216  1
  O2-  O163  1  0.68197669  0.42012533  0.57743552  1
  O2-  O164  1  0.68081811  0.42542340  0.90061092  1
  O2-  O165  1  0.68196666  0.92987797  0.24351230  1
  O2-  O166  1  0.68322127  0.93368393  0.57565638  1
  O2-  O167  1  0.68071940  0.93145152  0.91043609  1
  O2-  O168  1  0.42775702  0.31761686  0.10058656  1
  O2-  O169  1  0.42785267  0.31828407  0.42505708  1
  O2-  O170  1  0.42368603  0.31766029  0.75633928  1
  O2-  O171  1  0.42896181  0.82119880  0.09781881  1
  O2-  O172  1  0.42952992  0.82014459  0.43078330  1
  O2-  O173  1  0.43455073  0.82315145  0.76478733  1
  O2-  O174  1  0.92911524  0.31762513  0.08916693  1
  O2-  O175  1  0.92938095  0.32173503  0.42977935  1
  O2-  O176  1  0.93074923  0.32005140  0.76872378  1
  O2-  O177  1  0.93264634  0.82377744  0.10046836  1
  O2-  O178  1  0.92861925  0.82358127  0.42434576  1
  O2-  O179  1  0.92887727  0.82137324  0.76494320  1
  O2-  O180  1  0.32498969  0.06904439  0.24483704  1
  O2-  O181  1  0.32064766  0.06735638  0.56760618  1
  O2-  O182  1  0.32213789  0.06813633  0.90271742  1
  O2-  O183  1  0.31798136  0.57201341  0.23295940  1
  O2-  O184  1  0.32100649  0.57343430  0.57894010  1
  O2-  O185  1  0.31800540  0.57424592  0.90682746  1
  O2-  O186  1  0.82117683  0.06683670  0.24343690  1
  O2-  O187  1  0.82232695  0.07188057  0.57635178  1
  O2-  O188  1  0.82381114  0.07189868  0.90967150  1
  O2-  O189  1  0.81977780  0.57807001  0.24560036  1
  O2-  O190  1  0.81853480  0.57034483  0.56665335  1
  O2-  O191  1  0.81871468  0.57340593  0.90272495  1
  O2-  O192  1  0.03489603  0.08406438  0.26262379  1
  O2-  O193  1  0.04717796  0.08525190  0.60626038  1
  O2-  O194  1  0.04023646  0.08977614  0.93366714  1
  O2-  O195  1  0.04241721  0.59029654  0.26895973  1
  O2-  O196  1  0.03725803  0.58716904  0.60222715  1
  O2-  O197  1  0.04513100  0.58068554  0.93870016  1
  O2-  O198  1  0.54325603  0.08263238  0.26241798  1
  O2-  O199  1  0.53846123  0.08587430  0.59954659  1
  O2-  O200  1  0.54698217  0.08510885  0.93783462  1
  O2-  O201  1  0.54923626  0.57431514  0.26760739  1
  O2-  O202  1  0.55250913  0.57450526  0.60237912  1
  O2-  O203  1  0.55198440  0.58333422  0.93712491  1
  O2-  O204  1  0.17371254  0.19905616  0.26712634  1
  O2-  O205  1  0.16781930  0.20236917  0.60736802  1
  O2-  O206  1  0.16518632  0.20398107  0.93903511  1
  O2-  O207  1  0.16052340  0.71018740  0.27050971  1
  O2-  O208  1  0.16539252  0.69705560  0.60478186  1
  O2-  O209  1  0.16168336  0.70175703  0.93121786  1
  O2-  O210  1  0.66800426  0.20713545  0.26426083  1
  O2-  O211  1  0.66770448  0.20681686  0.59879448  1
  O2-  O212  1  0.66969629  0.20056475  0.93845666  1
  O2-  O213  1  0.66747472  0.71179748  0.26149994  1
  O2-  O214  1  0.66473659  0.71411397  0.59623931  1
  O2-  O215  1  0.66376558  0.71036871  0.93839314  1
  O2-  O216  1  0.08443869  0.45734560  0.07006203  1
  O2-  O217  1  0.07854947  0.46057611  0.39873542  1
  O2-  O218  1  0.08501101  0.46470748  0.73545666  1
  O2-  O219  1  0.08517984  0.96000801  0.06198029  1
  O2-  O220  1  0.08198206  0.96354808  0.40184040  1
  O2-  O221  1  0.08191086  0.95667336  0.73367976  1
  O2-  O222  1  0.57710221  0.45279453  0.06538181  1
  O2-  O223  1  0.58407391  0.45216699  0.40458229  1
  O2-  O224  1  0.57990769  0.44239385  0.72469598  1
  O2-  O225  1  0.59068654  0.96011138  0.06561556  1
  O2-  O226  1  0.58712377  0.95854814  0.39506938  1
  O2-  O227  1  0.59079901  0.96135199  0.72907972  1
  O2-  O228  1  0.21097219  0.33182185  0.06790602  1
  O2-  O229  1  0.20232630  0.32728719  0.40117656  1
  O2-  O230  1  0.20791569  0.33308658  0.73517463  1
  O2-  O231  1  0.19541936  0.83114058  0.05476902  1
  O2-  O232  1  0.20291120  0.83419626  0.40322843  1
  O2-  O233  1  0.19209461  0.83000831  0.72932157  1
  O2-  O234  1  0.70850982  0.32912885  0.06700451  1
  O2-  O235  1  0.71499843  0.33054684  0.40031883  1
  O2-  O236  1  0.70837393  0.33247705  0.73061172  1
  O2-  O237  1  0.70838735  0.83981388  0.06488651  1
  O2-  O238  1  0.70826651  0.83803405  0.39636653  1
  O2-  O239  1  0.70982680  0.83992109  0.72828056  1
  O2-  O240  1  0.45399016  0.41459806  0.27442569  1
  O2-  O241  1  0.44100388  0.41724971  0.60742841  1
  O2-  O242  1  0.45381383  0.41752856  0.93050177  1
  O2-  O243  1  0.46132506  0.91488665  0.26357143  1
  O2-  O244  1  0.46438433  0.91604117  0.59714596  1
  O2-  O245  1  0.46637950  0.91714087  0.93328554  1
  O2-  O246  1  0.95098432  0.42523906  0.26418185  1
  O2-  O247  1  0.96109898  0.41884388  0.60131853  1
  O2-  O248  1  0.95577850  0.41478760  0.94066731  1
  O2-  O249  1  0.95644786  0.91466121  0.27228121  1
  O2-  O250  1  0.95635289  0.92023616  0.59863833  1
  O2-  O251  1  0.96101541  0.91633836  0.93059086  1
  O2-  O252  1  0.33422606  0.29582355  0.27341499  1
  O2-  O253  1  0.33365229  0.28746865  0.60420905  1
  O2-  O254  1  0.33358884  0.28378417  0.93320627  1
  O2-  O255  1  0.32577922  0.79539404  0.26707396  1
  O2-  O256  1  0.32393577  0.80415704  0.60498173  1
  O2-  O257  1  0.33024599  0.79775130  0.92940979  1
  O2-  O258  1  0.83635517  0.28602585  0.26097557  1
  O2-  O259  1  0.83616573  0.28973936  0.59915960  1
  O2-  O260  1  0.83945778  0.28871153  0.93670377  1
  O2-  O261  1  0.83659024  0.79657247  0.27159850  1
  O2-  O262  1  0.83398971  0.79073832  0.59661989  1
  O2-  O263  1  0.83069040  0.79484369  0.93374642  1
  O2-  O264  1  0.42068675  0.04062956  0.06945499  1
  O2-  O265  1  0.41858850  0.04230921  0.39498410  1
  O2-  O266  1  0.41874272  0.03650508  0.73494727  1
  O2-  O267  1  0.41641706  0.55258585  0.05587148  1
  O2-  O268  1  0.41970947  0.54517486  0.40097889  1
  O2-  O269  1  0.41868096  0.55177743  0.72898958  1
  O2-  O270  1  0.91515475  0.04008523  0.06222896  1
  O2-  O271  1  0.91062711  0.04093944  0.39809885  1
  O2-  O272  1  0.91449157  0.04608553  0.72970863  1
  O2-  O273  1  0.91794940  0.54535949  0.07023689  1
  O2-  O274  1  0.91537438  0.55286147  0.39569776  1
  O2-  O275  1  0.91275158  0.54027767  0.73595628  1
  O2-  O276  1  0.28913635  0.16204508  0.07177845  1
  O2-  O277  1  0.30102145  0.16416742  0.39702727  1
  O2-  O278  1  0.28973096  0.16189809  0.73799492  1
  O2-  O279  1  0.29251621  0.66812569  0.05745183  1
  O2-  O280  1  0.28863702  0.66769290  0.40172049  1
  O2-  O281  1  0.29530835  0.66723774  0.73019626  1
  O2-  O282  1  0.79773776  0.16191823  0.06453645  1
  O2-  O283  1  0.79290368  0.16232057  0.39452848  1
  O2-  O284  1  0.79292420  0.16386253  0.72953808  1
  O2-  O285  1  0.79471852  0.67289468  0.06889392  1
  O2-  O286  1  0.79331040  0.66921505  0.39691496  1
  O2-  O287  1  0.78698009  0.66904095  0.73230402  1
