# generated using pymatgen
data_Ca2Al2SiO7
_symmetry_space_group_name_H-M   'P 1'
_cell_length_a   15.46947038
_cell_length_b   15.46940491
_cell_length_c   15.28974116
_cell_angle_alpha   90.00034710
_cell_angle_beta   89.98116437
_cell_angle_gamma   90.00051519
_symmetry_Int_Tables_number   1
_chemical_formula_structural   Ca2Al2SiO7
_chemical_formula_sum   'Ca48 Al48 Si24 O168'
_cell_volume   3658.88839264
_cell_formula_units_Z   24
loop_
 _symmetry_equiv_pos_site_id
 _symmetry_equiv_pos_as_xyz
  1  'x, y, z'
loop_
 _atom_type_symbol
 _atom_type_oxidation_number
  Ca2+  2.0
  Al0+  0.0
  Si0+  0.0
  O2-  -2.0
loop_
 _atom_site_type_symbol
 _atom_site_label
 _atom_site_symmetry_multiplicity
 _atom_site_fract_x
 _atom_site_fract_y
 _atom_site_fract_z
 _atom_site_occupancy
  Ca2+  Ca0  1  0.17125953  0.08126226  0.17461677  1
  Ca2+  Ca1  1  0.16692077  0.09159578  0.49908925  1
  Ca2+  Ca2  1  0.15932041  0.07674734  0.83741350  1
  Ca2+  Ca3  1  0.17919893  0.57711137  0.17667820  1
  Ca2+  Ca4  1  0.16666991  0.58191026  0.49943652  1
  Ca2+  Ca5  1  0.17043992  0.58386830  0.83946305  1
  Ca2+  Ca6  1  0.67516003  0.08559930  0.17437106  1
  Ca2+  Ca7  1  0.67957692  0.09004622  0.50051054  1
  Ca2+  Ca8  1  0.68091927  0.07746551  0.84076516  1
  Ca2+  Ca9  1  0.66538047  0.57183895  0.17090485  1
  Ca2+  Ca10  1  0.66281374  0.57878940  0.49633024  1
  Ca2+  Ca11  1  0.67758132  0.57781436  0.84386379  1
  Ca2+  Ca12  1  0.08493627  0.33124395  0.16963556  1
  Ca2+  Ca13  1  0.07289044  0.32564493  0.49214379  1
  Ca2+  Ca14  1  0.07318704  0.32432767  0.82147736  1
  Ca2+  Ca15  1  0.07934254  0.83824484  0.16561530  1
  Ca2+  Ca16  1  0.07361226  0.82989599  0.49805011  1
  Ca2+  Ca17  1  0.07937031  0.82770846  0.82579202  1
  Ca2+  Ca18  1  0.58475897  0.33286089  0.16434700  1
  Ca2+  Ca19  1  0.57930129  0.33024257  0.49154780  1
  Ca2+  Ca20  1  0.57361388  0.34413359  0.83438884  1
  Ca2+  Ca21  1  0.58051637  0.83139882  0.16587606  1
  Ca2+  Ca22  1  0.57932337  0.82502448  0.48557897  1
  Ca2+  Ca23  1  0.58708772  0.83417673  0.83341005  1
  Ca2+  Ca24  1  0.33354396  0.42331402  0.17492754  1
  Ca2+  Ca25  1  0.32772936  0.41603353  0.49962707  1
  Ca2+  Ca26  1  0.33513118  0.41941744  0.84143989  1
  Ca2+  Ca27  1  0.32756416  0.91801826  0.17614458  1
  Ca2+  Ca28  1  0.34049593  0.92385189  0.49806120  1
  Ca2+  Ca29  1  0.32211834  0.91985332  0.84148393  1
  Ca2+  Ca30  1  0.82505839  0.41652706  0.17499664  1
  Ca2+  Ca31  1  0.82913751  0.40333437  0.50076296  1
  Ca2+  Ca32  1  0.82953598  0.41908766  0.84229672  1
  Ca2+  Ca33  1  0.83097799  0.92689127  0.17108433  1
  Ca2+  Ca34  1  0.84439677  0.92582117  0.50208217  1
  Ca2+  Ca35  1  0.83639340  0.92587744  0.83903818  1
  Ca2+  Ca36  1  0.42260395  0.16810234  0.16386058  1
  Ca2+  Ca37  1  0.42256201  0.16940441  0.48972066  1
  Ca2+  Ca38  1  0.41762397  0.18251039  0.82770837  1
  Ca2+  Ca39  1  0.41779627  0.66114070  0.16738499  1
  Ca2+  Ca40  1  0.42094275  0.67196453  0.48725896  1
  Ca2+  Ca41  1  0.41666134  0.66542361  0.83205977  1
  Ca2+  Ca42  1  0.91448485  0.16720240  0.17025284  1
  Ca2+  Ca43  1  0.92344582  0.16746351  0.49206641  1
  Ca2+  Ca44  1  0.91683224  0.16642423  0.82537009  1
  Ca2+  Ca45  1  0.91089147  0.67220319  0.16302927  1
  Ca2+  Ca46  1  0.91554216  0.67981506  0.49333278  1
  Ca2+  Ca47  1  0.92017554  0.67199073  0.82321958  1
  Al0+  Al48  1  0.00045669  -0.00103337  0.00709901  1
  Al0+  Al49  1  0.00083663  -0.00016528  0.32890577  1
  Al0+  Al50  1  0.00183806  -0.00120564  0.66515206  1
  Al0+  Al51  1  0.00204498  0.50009429  0.00197438  1
  Al0+  Al52  1  -0.00114046  0.50093314  0.33384735  1
  Al0+  Al53  1  0.00132001  0.49887759  0.66103582  1
  Al0+  Al54  1  0.50006236  -0.00011300  -0.00264963  1
  Al0+  Al55  1  0.49971360  -0.00073778  0.32914718  1
  Al0+  Al56  1  0.49943078  0.00121244  0.67130920  1
  Al0+  Al57  1  0.50084611  0.50159548  0.00122455  1
  Al0+  Al58  1  0.50096548  0.50091139  0.33888922  1
  Al0+  Al59  1  0.49858345  0.50144904  0.66352605  1
  Al0+  Al60  1  0.24979350  0.24906090  -0.00730479  1
  Al0+  Al61  1  0.24922057  0.24962110  0.33749940  1
  Al0+  Al62  1  0.25052412  0.25269601  0.66180478  1
  Al0+  Al63  1  0.24968630  0.75009410  0.00698121  1
  Al0+  Al64  1  0.24858938  0.75070936  0.33578263  1
  Al0+  Al65  1  0.25161528  0.75051131  0.66407161  1
  Al0+  Al66  1  0.75052432  0.24951216  0.00400242  1
  Al0+  Al67  1  0.74969353  0.24959336  0.33471506  1
  Al0+  Al68  1  0.74629832  0.24885831  0.67378922  1
  Al0+  Al69  1  0.74981728  0.75222046  0.00312046  1
  Al0+  Al70  1  0.74864627  0.74890448  0.32330544  1
  Al0+  Al71  1  0.74836681  0.74863273  0.66292723  1
  Al0+  Al72  1  0.92969319  0.82096818  0.31616463  1
  Al0+  Al73  1  0.43021529  0.32337032  0.65095928  1
  Al0+  Al74  1  0.67978118  0.43033456  0.01480587  1
  Al0+  Al75  1  0.07031578  0.17734808  0.65241286  1
  Al0+  Al76  1  0.82527080  0.57180105  0.01350939  1
  Al0+  Al77  1  0.32254326  0.06979139  0.34599590  1
  Al0+  Al78  1  0.07257978  0.17982531  0.31563261  1
  Al0+  Al79  1  0.68100300  0.42897910  0.34919710  1
  Al0+  Al80  1  0.82065145  0.06901708  0.34892519  1
  Al0+  Al81  1  0.92768629  0.81958772  0.65295893  1
  Al0+  Al82  1  0.57008811  0.67669371  0.31493194  1
  Al0+  Al83  1  0.92458267  0.32055618  0.65420433  1
  Al0+  Al84  1  0.92800120  0.32167201  0.31695888  1
  Al0+  Al85  1  0.82159187  0.06906796  0.67991760  1
  Al0+  Al86  1  0.42742796  0.82133546  0.31744333  1
  Al0+  Al87  1  0.18028078  0.92931690  0.01357268  1
  Al0+  Al88  1  0.32015985  0.56987153  0.01257884  1
  Al0+  Al89  1  0.17645084  0.42786778  0.35034451  1
  Al0+  Al90  1  0.32062994  0.57123524  0.35140663  1
  Al0+  Al91  1  0.82156488  0.07098888  0.01728348  1
  Al0+  Al92  1  0.57130343  0.17923747  0.32069743  1
  Al0+  Al93  1  0.43102775  0.32083211  0.98802992  1
  Al0+  Al94  1  0.07426667  0.67780237  0.65174490  1
  Al0+  Al95  1  0.67611598  0.92860076  0.01588035  1
  Si0+  Si96  1  0.07278153  0.67919820  0.98697345  1
  Si0+  Si97  1  0.82112258  0.57221493  0.67860134  1
  Si0+  Si98  1  0.42841469  0.32140310  0.31817416  1
  Si0+  Si99  1  0.42617186  0.82158340  0.98345761  1
  Si0+  Si100  1  0.57024840  0.67992782  0.65294551  1
  Si0+  Si101  1  0.56905897  0.17661239  0.65139493  1
  Si0+  Si102  1  0.57026241  0.68070695  0.98304099  1
  Si0+  Si103  1  0.92992505  0.82062465  0.98468555  1
  Si0+  Si104  1  0.32100247  0.07384808  0.01334733  1
  Si0+  Si105  1  0.32000549  0.57101505  0.68286053  1
  Si0+  Si106  1  0.67848014  0.92690337  0.34905540  1
  Si0+  Si107  1  0.57462294  0.17639615  0.98108545  1
  Si0+  Si108  1  0.17829979  0.42510135  0.01404035  1
  Si0+  Si109  1  0.32278005  0.07407417  0.68317382  1
  Si0+  Si110  1  0.82137284  0.57431650  0.35070822  1
  Si0+  Si111  1  0.07186884  0.67768785  0.31478229  1
  Si0+  Si112  1  0.42953187  0.82232244  0.65456435  1
  Si0+  Si113  1  0.17858292  0.42837860  0.68347013  1
  Si0+  Si114  1  0.18246369  0.92921389  0.68083389  1
  Si0+  Si115  1  0.17729837  0.92855233  0.35297003  1
  Si0+  Si116  1  0.06998375  0.17820949  0.98503289  1
  Si0+  Si117  1  0.92875665  0.32201061  0.98609765  1
  Si0+  Si118  1  0.67723587  0.43046552  0.68228640  1
  Si0+  Si119  1  0.67625057  0.92540814  0.68150239  1
  O2-  O120  1  0.25639745  0.00270422  0.05847635  1
  O2-  O121  1  0.24820190  -0.00417571  0.39607581  1
  O2-  O122  1  0.24971029  0.00412492  0.72406266  1
  O2-  O123  1  0.24814025  0.49252122  0.05736160  1
  O2-  O124  1  0.24796967  0.50038491  0.40178859  1
  O2-  O125  1  0.24872634  0.50088498  0.72632631  1
  O2-  O126  1  0.74440955  0.00344951  0.06538777  1
  O2-  O127  1  0.74744728  -0.00722674  0.39649699  1
  O2-  O128  1  0.74809192  -0.00869522  0.72467222  1
  O2-  O129  1  0.75578923  0.49817632  0.06387884  1
  O2-  O130  1  0.75724101  0.50225241  0.39682637  1
  O2-  O131  1  0.75404188  0.49721874  0.72182067  1
  O2-  O132  1  0.00193716  0.25265728  0.26509946  1
  O2-  O133  1  -0.00528922  0.24663389  0.60499444  1
  O2-  O134  1  -0.00150861  0.24932913  0.94379147  1
  O2-  O135  1  0.00269319  0.74464361  0.26879881  1
  O2-  O136  1  -0.00285402  0.74486823  0.60331318  1
  O2-  O137  1  -0.00196242  0.74598128  0.94313283  1
  O2-  O138  1  0.49564239  0.25240438  0.27314973  1
  O2-  O139  1  0.50184132  0.24578193  0.60624294  1
  O2-  O140  1  0.50588544  0.24666043  0.93833825  1
  O2-  O141  1  0.49645938  0.74766037  0.26583940  1
  O2-  O142  1  0.50463990  0.75641407  0.61321086  1
  O2-  O143  1  0.49988349  0.75316354  0.94003358  1
  O2-  O144  1  0.07447112  0.17951012  0.08917687  1
  O2-  O145  1  0.07047851  0.17930480  0.42910495  1
  O2-  O146  1  0.06977519  0.17795578  0.76710121  1
  O2-  O147  1  0.07425178  0.68113964  0.09133133  1
  O2-  O148  1  0.07075024  0.68052896  0.42050991  1
  O2-  O149  1  0.07593232  0.68121905  0.76632956  1
  O2-  O150  1  0.57253886  0.17516404  0.08633237  1
  O2-  O151  1  0.56993721  0.18105392  0.43434602  1
  O2-  O152  1  0.56604157  0.17504077  0.75702035  1
  O2-  O153  1  0.56799547  0.67902639  0.08709305  1
  O2-  O154  1  0.57027099  0.67979036  0.42971046  1
  O2-  O155  1  0.56974576  0.67802522  0.75837818  1
  O2-  O156  1  0.18079989  0.42942497  0.23593845  1
  O2-  O157  1  0.18049457  0.42771965  0.57925981  1
  O2-  O158  1  0.17757039  0.42701222  0.90799065  1
  O2-  O159  1  0.17854095  0.92946811  0.24702336  1
  O2-  O160  1  0.18617215  0.92604307  0.57657189  1
  O2-  O161  1  0.17992720  0.92934951  0.89949618  1
  O2-  O162  1  0.68025144  0.42991726  0.23644065  1
  O2-  O163  1  0.67436210  0.43153654  0.57767407  1
  O2-  O164  1  0.67940503  0.43460857  0.90009146  1
  O2-  O165  1  0.67920011  0.92953504  0.24370541  1
  O2-  O166  1  0.67071698  0.92520387  0.57673657  1
  O2-  O167  1  0.67977696  0.92772521  0.90129614  1
  O2-  O168  1  0.42925313  0.31895985  0.10037660  1
  O2-  O169  1  0.43082374  0.31963616  0.42415184  1
  O2-  O170  1  0.43221877  0.32576126  0.76469179  1
  O2-  O171  1  0.42385683  0.82085078  0.08750592  1
  O2-  O172  1  0.43217013  0.82184712  0.43221083  1
  O2-  O173  1  0.42720762  0.82003680  0.76001721  1
  O2-  O174  1  0.93044327  0.32417766  0.09033187  1
  O2-  O175  1  0.92692533  0.31660200  0.43055791  1
  O2-  O176  1  0.92736333  0.32155460  0.76882687  1
  O2-  O177  1  0.93203911  0.82097564  0.08932729  1
  O2-  O178  1  0.93098945  0.82008235  0.42953523  1
  O2-  O179  1  0.92949040  0.81843954  0.76730703  1
  O2-  O180  1  0.32150047  0.06871243  0.23264150  1
  O2-  O181  1  0.32775326  0.07092769  0.57867365  1
  O2-  O182  1  0.31728209  0.07317090  0.90709644  1
  O2-  O183  1  0.32027059  0.56859157  0.23753427  1
  O2-  O184  1  0.32114648  0.57180040  0.57869100  1
  O2-  O185  1  0.31842920  0.57123377  0.89845057  1
  O2-  O186  1  0.81851675  0.06844372  0.23629017  1
  O2-  O187  1  0.82018518  0.06945642  0.56735778  1
  O2-  O188  1  0.82437675  0.06791804  0.90286861  1
  O2-  O189  1  0.81905982  0.57410192  0.24522281  1
  O2-  O190  1  0.81590306  0.57735092  0.57437171  1
  O2-  O191  1  0.82412220  0.57073712  0.89854902  1
  O2-  O192  1  0.04466254  0.08146959  0.26327237  1
  O2-  O193  1  0.04901568  0.07789675  0.60023826  1
  O2-  O194  1  0.04061973  0.08540874  0.93949763  1
  O2-  O195  1  0.04989573  0.58321372  0.27003353  1
  O2-  O196  1  0.05353046  0.57798580  0.60092514  1
  O2-  O197  1  0.05100218  0.58529750  0.93942370  1
  O2-  O198  1  0.54149131  0.08369439  0.26530592  1
  O2-  O199  1  0.54314017  0.08302444  0.60547207  1
  O2-  O200  1  0.54902306  0.08292050  0.93343476  1
  O2-  O201  1  0.54024490  0.57775315  0.26456415  1
  O2-  O202  1  0.53659594  0.59146391  0.60365810  1
  O2-  O203  1  0.54054050  0.59029521  0.93334889  1
  O2-  O204  1  0.17236761  0.20757050  0.26424247  1
  O2-  O205  1  0.16842157  0.20728816  0.60092407  1
  O2-  O206  1  0.16095570  0.20382798  0.93361235  1
  O2-  O207  1  0.16544926  0.70493209  0.27006070  1
  O2-  O208  1  0.17023630  0.71217162  0.59772538  1
  O2-  O209  1  0.16325536  0.71160356  0.93832533  1
  O2-  O210  1  0.66585156  0.21201686  0.26591943  1
  O2-  O211  1  0.66328929  0.20285251  0.60875480  1
  O2-  O212  1  0.66896080  0.20193022  0.93589200  1
  O2-  O213  1  0.66686052  0.70402573  0.25975831  1
  O2-  O214  1  0.66205046  0.70154646  0.60345740  1
  O2-  O215  1  0.66266005  0.70911983  0.93544750  1
  O2-  O216  1  0.08599482  0.45067961  0.06123717  1
  O2-  O217  1  0.07740493  0.45629585  0.40238179  1
  O2-  O218  1  0.08566277  0.45438300  0.73081991  1
  O2-  O219  1  0.08608806  0.96024495  0.06970796  1
  O2-  O220  1  0.08465696  0.95702653  0.39810361  1
  O2-  O221  1  0.09007720  0.95377654  0.72910122  1
  O2-  O222  1  0.58343578  0.46292116  0.06742892  1
  O2-  O223  1  0.58578874  0.46174225  0.40517790  1
  O2-  O224  1  0.58727886  0.46644151  0.72962457  1
  O2-  O225  1  0.57418495  0.94971378  0.06420611  1
  O2-  O226  1  0.58441221  0.95201749  0.39378768  1
  O2-  O227  1  0.58407812  0.95338735  0.73170405  1
  O2-  O228  1  0.20334538  0.33071947  0.05745264  1
  O2-  O229  1  0.20579870  0.33057321  0.40433560  1
  O2-  O230  1  0.20861549  0.33695907  0.73154793  1
  O2-  O231  1  0.21023608  0.83474699  0.07007551  1
  O2-  O232  1  0.19947217  0.83432184  0.39856932  1
  O2-  O233  1  0.21528744  0.83906537  0.73050267  1
  O2-  O234  1  0.70129958  0.33011668  0.06459087  1
  O2-  O235  1  0.71016658  0.33281444  0.40465869  1
  O2-  O236  1  0.69718690  0.33780581  0.73172872  1
  O2-  O237  1  0.70469275  0.83126313  0.06864446  1
  O2-  O238  1  0.70242705  0.83102051  0.39108014  1
  O2-  O239  1  0.69848434  0.83012603  0.72704242  1
  O2-  O240  1  0.45601887  0.41517825  0.27524602  1
  O2-  O241  1  0.46239396  0.41884572  0.59662481  1
  O2-  O242  1  0.46258143  0.41782276  0.93241707  1
  O2-  O243  1  0.45644000  0.91802411  0.26252715  1
  O2-  O244  1  0.45249890  0.91650852  0.60997767  1
  O2-  O245  1  0.45014070  0.91434638  0.93430432  1
  O2-  O246  1  0.95115025  0.42290151  0.26718374  1
  O2-  O247  1  0.95164262  0.41834950  0.60080559  1
  O2-  O248  1  0.95753073  0.41386786  0.93758142  1
  O2-  O249  1  0.96363786  0.91538766  0.26126449  1
  O2-  O250  1  0.96156306  0.91536280  0.60011375  1
  O2-  O251  1  0.96319985  0.91163538  0.93834062  1
  O2-  O252  1  0.33419480  0.29782565  0.27445973  1
  O2-  O253  1  0.33344109  0.29543772  0.59834565  1
  O2-  O254  1  0.33494842  0.29029696  0.92955777  1
  O2-  O255  1  0.32656402  0.79705517  0.26848718  1
  O2-  O256  1  0.34089758  0.79131136  0.60469625  1
  O2-  O257  1  0.33517073  0.78922870  0.93555565  1
  O2-  O258  1  0.83075493  0.28947561  0.26481259  1
  O2-  O259  1  0.82320180  0.29593891  0.60695828  1
  O2-  O260  1  0.83588478  0.29611503  0.93918345  1
  O2-  O261  1  0.83361281  0.79159057  0.26138930  1
  O2-  O262  1  0.82867484  0.79435254  0.59957318  1
  O2-  O263  1  0.83665655  0.79700841  0.93788776  1
  O2-  O264  1  0.41682869  0.05289863  0.05480124  1
  O2-  O265  1  0.41855406  0.03714205  0.40183357  1
  O2-  O266  1  0.41249248  0.04430577  0.73461351  1
  O2-  O267  1  0.41683187  0.54181863  0.06524652  1
  O2-  O268  1  0.41884300  0.54412716  0.40471348  1
  O2-  O269  1  0.41230210  0.54203101  0.73014202  1
  O2-  O270  1  0.91731652  0.03817974  0.07102544  1
  O2-  O271  1  0.91850183  0.03675767  0.39927207  1
  O2-  O272  1  0.91915748  0.03873582  0.73373894  1
  O2-  O273  1  0.92478357  0.54944156  0.06607306  1
  O2-  O274  1  0.91710206  0.55658128  0.39445414  1
  O2-  O275  1  0.91572418  0.54982227  0.72319237  1
  O2-  O276  1  0.29255110  0.16622617  0.05913037  1
  O2-  O277  1  0.29394304  0.16584098  0.40168961  1
  O2-  O278  1  0.29637289  0.16744028  0.72818818  1
  O2-  O279  1  0.28875697  0.66429152  0.06828434  1
  O2-  O280  1  0.29283362  0.67090623  0.40304974  1
  O2-  O281  1  0.29344201  0.66397842  0.73014495  1
  O2-  O282  1  0.79840357  0.17075726  0.06791137  1
  O2-  O283  1  0.78694196  0.16435929  0.40256653  1
  O2-  O284  1  0.78786191  0.16396224  0.73763614  1
  O2-  O285  1  0.79608414  0.67004719  0.06368576  1
  O2-  O286  1  0.78955020  0.66714730  0.39564700  1
  O2-  O287  1  0.78924092  0.66223982  0.72918399  1
