# generated using pymatgen
data_Ca2Al2SiO7
_symmetry_space_group_name_H-M   'P 1'
_cell_length_a   15.46602424
_cell_length_b   15.46522338
_cell_length_c   15.29083819
_cell_angle_alpha   89.99931422
_cell_angle_beta   89.99426533
_cell_angle_gamma   90.01356303
_symmetry_Int_Tables_number   1
_chemical_formula_structural   Ca2Al2SiO7
_chemical_formula_sum   'Ca48 Al48 Si24 O168'
_cell_volume   3657.34695715
_cell_formula_units_Z   24
loop_
 _symmetry_equiv_pos_site_id
 _symmetry_equiv_pos_as_xyz
  1  'x, y, z'
loop_
 _atom_type_symbol
 _atom_type_oxidation_number
  Ca2+  2.0
  Al0+  0.0
  Si0+  0.0
  O2-  -2.0
loop_
 _atom_site_type_symbol
 _atom_site_label
 _atom_site_symmetry_multiplicity
 _atom_site_fract_x
 _atom_site_fract_y
 _atom_site_fract_z
 _atom_site_occupancy
  Ca2+  Ca0  1  0.16475815  0.09202063  0.17097727  1
  Ca2+  Ca1  1  0.16530080  0.07979384  0.50384525  1
  Ca2+  Ca2  1  0.16519431  0.08205106  0.83638218  1
  Ca2+  Ca3  1  0.17448406  0.57121737  0.17738638  1
  Ca2+  Ca4  1  0.17739201  0.58111434  0.50160412  1
  Ca2+  Ca5  1  0.17588715  0.58359929  0.83486799  1
  Ca2+  Ca6  1  0.67358033  0.08408948  0.17181749  1
  Ca2+  Ca7  1  0.67837820  0.08152657  0.50192919  1
  Ca2+  Ca8  1  0.67472393  0.08095390  0.84313344  1
  Ca2+  Ca9  1  0.66917400  0.57243891  0.17028055  1
  Ca2+  Ca10  1  0.65532738  0.57433755  0.50164124  1
  Ca2+  Ca11  1  0.66793421  0.57466619  0.83839820  1
  Ca2+  Ca12  1  0.07469739  0.32662545  0.16128716  1
  Ca2+  Ca13  1  0.07077429  0.33018967  0.48846270  1
  Ca2+  Ca14  1  0.06816717  0.32736349  0.83053101  1
  Ca2+  Ca15  1  0.07986669  0.82916102  0.16402627  1
  Ca2+  Ca16  1  0.08590321  0.83525650  0.49857555  1
  Ca2+  Ca17  1  0.08286951  0.83434820  0.82741209  1
  Ca2+  Ca18  1  0.58315019  0.33343057  0.15887590  1
  Ca2+  Ca19  1  0.58813902  0.33731133  0.49688753  1
  Ca2+  Ca20  1  0.59368430  0.33203940  0.83441584  1
  Ca2+  Ca21  1  0.58754761  0.83413934  0.16561376  1
  Ca2+  Ca22  1  0.57743693  0.82139951  0.48750636  1
  Ca2+  Ca23  1  0.58364781  0.82638632  0.82303911  1
  Ca2+  Ca24  1  0.32845947  0.41543311  0.17746100  1
  Ca2+  Ca25  1  0.33046906  0.42828895  0.50212768  1
  Ca2+  Ca26  1  0.33866307  0.42178500  0.83828967  1
  Ca2+  Ca27  1  0.33387417  0.91786741  0.17244564  1
  Ca2+  Ca28  1  0.33181801  0.90866580  0.50442563  1
  Ca2+  Ca29  1  0.32829678  0.90959119  0.83167911  1
  Ca2+  Ca30  1  0.82696158  0.40856003  0.16913314  1
  Ca2+  Ca31  1  0.82484071  0.40808961  0.50318673  1
  Ca2+  Ca32  1  0.82711704  0.41642708  0.83958579  1
  Ca2+  Ca33  1  0.81958037  0.92834140  0.17010559  1
  Ca2+  Ca34  1  0.83323344  0.93033513  0.50240283  1
  Ca2+  Ca35  1  0.82806291  0.92923248  0.84310726  1
  Ca2+  Ca36  1  0.42531934  0.17525864  0.15555655  1
  Ca2+  Ca37  1  0.42019950  0.16796048  0.49497958  1
  Ca2+  Ca38  1  0.42464200  0.17453268  0.83660050  1
  Ca2+  Ca39  1  0.42238763  0.66598377  0.17108087  1
  Ca2+  Ca40  1  0.42099822  0.66946928  0.49565236  1
  Ca2+  Ca41  1  0.42513923  0.67020681  0.82028248  1
  Ca2+  Ca42  1  0.91874368  0.17132299  0.16292002  1
  Ca2+  Ca43  1  0.91471936  0.17269783  0.49330217  1
  Ca2+  Ca44  1  0.90431412  0.17544849  0.83194465  1
  Ca2+  Ca45  1  0.91224032  0.66487017  0.16019654  1
  Ca2+  Ca46  1  0.91869582  0.66957758  0.49402330  1
  Ca2+  Ca47  1  0.91422951  0.66539050  0.83169165  1
  Al0+  Al48  1  0.00057975  -0.00315055  0.00147307  1
  Al0+  Al49  1  0.00073315  -0.00042827  0.33257979  1
  Al0+  Al50  1  0.00144134  0.00062776  0.67575874  1
  Al0+  Al51  1  0.00420888  0.50044255  -0.00257378  1
  Al0+  Al52  1  -0.00107665  0.49908668  0.33264558  1
  Al0+  Al53  1  -0.00030016  0.49951849  0.66119604  1
  Al0+  Al54  1  0.49521292  -0.00026775  -0.00266612  1
  Al0+  Al55  1  0.49883063  -0.00140993  0.33381711  1
  Al0+  Al56  1  0.49859819  0.00188178  0.66331459  1
  Al0+  Al57  1  0.50044271  0.50509822  0.00069379  1
  Al0+  Al58  1  0.50009653  0.50221818  0.33630083  1
  Al0+  Al59  1  0.49957289  0.49916295  0.67213631  1
  Al0+  Al60  1  0.24968260  0.24997467  -0.00926637  1
  Al0+  Al61  1  0.24875594  0.24898251  0.33749943  1
  Al0+  Al62  1  0.24920036  0.24932832  0.66720281  1
  Al0+  Al63  1  0.24991100  0.74962434  0.00142061  1
  Al0+  Al64  1  0.25079966  0.75062948  0.33142296  1
  Al0+  Al65  1  0.25000309  0.74965305  0.67211406  1
  Al0+  Al66  1  0.75010023  0.24990114  0.00047851  1
  Al0+  Al67  1  0.75037611  0.25011080  0.33778395  1
  Al0+  Al68  1  0.74976012  0.25038439  0.66942184  1
  Al0+  Al69  1  0.75036020  0.75046722  0.00467515  1
  Al0+  Al70  1  0.74895479  0.74874443  0.33146601  1
  Al0+  Al71  1  0.75127903  0.74892589  0.65862095  1
  Al0+  Al72  1  0.68053410  0.42998087  0.34717713  1
  Al0+  Al73  1  0.67452389  0.92883329  0.01274768  1
  Al0+  Al74  1  0.82417922  0.57059454  0.01335360  1
  Al0+  Al75  1  0.92678713  0.32117157  0.31689532  1
  Al0+  Al76  1  0.07161152  0.17761951  0.31978206  1
  Al0+  Al77  1  0.42833957  0.82125018  0.65187150  1
  Al0+  Al78  1  0.42983823  0.32509561  0.98636681  1
  Al0+  Al79  1  0.57257121  0.67727377  0.65082923  1
  Al0+  Al80  1  0.57166282  0.17836553  0.98618430  1
  Al0+  Al81  1  0.82150633  0.06983519  0.34910686  1
  Al0+  Al82  1  0.17672842  0.42577415  0.34878154  1
  Al0+  Al83  1  0.42856623  0.82139995  0.31531402  1
  Al0+  Al84  1  0.67922365  0.43009226  0.01577535  1
  Al0+  Al85  1  0.31883867  0.56850789  0.68210375  1
  Al0+  Al86  1  0.82154928  0.07213729  0.01671777  1
  Al0+  Al87  1  0.32013136  0.57132568  0.34866598  1
  Al0+  Al88  1  0.67623999  0.92747410  0.35005265  1
  Al0+  Al89  1  0.57212085  0.67711330  0.31394889  1
  Al0+  Al90  1  0.68056992  0.43139350  0.68121829  1
  Al0+  Al91  1  0.18211013  0.93099314  0.68054169  1
  Al0+  Al92  1  0.07103331  0.17588466  0.98251856  1
  Al0+  Al93  1  0.81956858  0.06949414  0.68210953  1
  Al0+  Al94  1  0.92819888  0.31982828  0.65110870  1
  Al0+  Al95  1  0.92893698  0.32158169  0.98383868  1
  Si0+  Si96  1  0.32512520  0.07634009  0.68592607  1
  Si0+  Si97  1  0.42725878  0.32111752  0.65098323  1
  Si0+  Si98  1  0.31757788  0.07180466  0.01430828  1
  Si0+  Si99  1  0.07353386  0.67963360  0.98415926  1
  Si0+  Si100  1  0.57091640  0.18060463  0.65074451  1
  Si0+  Si101  1  0.17550038  0.42704760  0.68441349  1
  Si0+  Si102  1  0.17951211  0.92878079  0.34640532  1
  Si0+  Si103  1  0.92906408  0.82107006  0.31790455  1
  Si0+  Si104  1  0.07128998  0.68009371  0.65183495  1
  Si0+  Si105  1  0.17965892  0.92676982  0.01718962  1
  Si0+  Si106  1  0.92933841  0.81830944  0.98530958  1
  Si0+  Si107  1  0.57181802  0.68252865  0.98436439  1
  Si0+  Si108  1  0.57004743  0.17921954  0.32155300  1
  Si0+  Si109  1  0.67746920  0.92673316  0.67960311  1
  Si0+  Si110  1  0.32093039  0.57318488  0.01614681  1
  Si0+  Si111  1  0.82350195  0.57344172  0.35028423  1
  Si0+  Si112  1  0.07092740  0.67920484  0.31860311  1
  Si0+  Si113  1  0.18235972  0.42850212  0.01287987  1
  Si0+  Si114  1  0.42909291  0.32070051  0.32303320  1
  Si0+  Si115  1  0.93036571  0.82329693  0.65247923  1
  Si0+  Si116  1  0.82561561  0.57476717  0.68059463  1
  Si0+  Si117  1  0.32156156  0.07139092  0.34734640  1
  Si0+  Si118  1  0.42559899  0.82060526  0.98350672  1
  Si0+  Si119  1  0.07211742  0.17695825  0.64992816  1
  O2-  O120  1  0.24582460  0.00206378  0.05862314  1
  O2-  O121  1  0.24997522  0.00006772  0.38800886  1
  O2-  O122  1  0.25768784  0.00464906  0.72770743  1
  O2-  O123  1  0.25666111  0.49563857  0.05655842  1
  O2-  O124  1  0.24789755  0.49900669  0.39803080  1
  O2-  O125  1  0.24631522  0.49239381  0.73089883  1
  O2-  O126  1  0.74201255  0.00542512  0.06259685  1
  O2-  O127  1  0.74960113  -0.00223675  0.39982366  1
  O2-  O128  1  0.74554463  -0.00673952  0.72715957  1
  O2-  O129  1  0.75630161  0.49679536  0.06568151  1
  O2-  O130  1  0.75540939  0.50472733  0.39431928  1
  O2-  O131  1  0.75488591  0.50851958  0.72391461  1
  O2-  O132  1  0.00129598  0.25025449  0.26954871  1
  O2-  O133  1  0.00562166  0.24683576  0.60584681  1
  O2-  O134  1  -0.00511367  0.24340787  0.93302724  1
  O2-  O135  1  -0.00369454  0.74579162  0.27551535  1
  O2-  O136  1  -0.00155900  0.74929795  0.60945711  1
  O2-  O137  1  -0.00088668  0.74650275  0.94140521  1
  O2-  O138  1  0.49986882  0.25098536  0.27966075  1
  O2-  O139  1  0.49693930  0.24907264  0.60838472  1
  O2-  O140  1  0.50557422  0.25681562  0.93587756  1
  O2-  O141  1  0.50312394  0.75303647  0.26431727  1
  O2-  O142  1  0.50382738  0.75346309  0.60220616  1
  O2-  O143  1  0.50203791  0.75544367  0.94273180  1
  O2-  O144  1  0.07502328  0.17997067  0.09564386  1
  O2-  O145  1  0.07191833  0.17529694  0.43337815  1
  O2-  O146  1  0.07294887  0.17733324  0.75518260  1
  O2-  O147  1  0.07754156  0.68299995  0.08909411  1
  O2-  O148  1  0.07163316  0.68312459  0.42396289  1
  O2-  O149  1  0.07128843  0.68117477  0.75721564  1
  O2-  O150  1  0.56600816  0.17627717  0.10012080  1
  O2-  O151  1  0.56746646  0.17969178  0.42713122  1
  O2-  O152  1  0.57056749  0.18065077  0.75554267  1
  O2-  O153  1  0.56994825  0.68070178  0.08886797  1
  O2-  O154  1  0.56800756  0.67568576  0.42732301  1
  O2-  O155  1  0.57205436  0.67885882  0.76527422  1
  O2-  O156  1  0.18064536  0.42665085  0.23447565  1
  O2-  O157  1  0.17639370  0.42974325  0.57919781  1
  O2-  O158  1  0.18241477  0.43301880  0.90777113  1
  O2-  O159  1  0.17972542  0.92671493  0.24127791  1
  O2-  O160  1  0.18045545  0.93124681  0.56722008  1
  O2-  O161  1  0.18297710  0.92168764  0.91239583  1
  O2-  O162  1  0.67862581  0.42861528  0.23471932  1
  O2-  O163  1  0.68067970  0.43011542  0.56812811  1
  O2-  O164  1  0.67807658  0.43492823  0.90218739  1
  O2-  O165  1  0.67723542  0.93236555  0.23656106  1
  O2-  O166  1  0.68032970  0.92943900  0.57454497  1
  O2-  O167  1  0.67915201  0.92530890  0.89862214  1
  O2-  O168  1  0.42576315  0.32091170  0.10050230  1
  O2-  O169  1  0.42910842  0.31783761  0.42842243  1
  O2-  O170  1  0.42631739  0.32022658  0.75575391  1
  O2-  O171  1  0.41908375  0.81781147  0.08786010  1
  O2-  O172  1  0.42499078  0.81973343  0.42842428  1
  O2-  O173  1  0.42859314  0.81798863  0.76612374  1
  O2-  O174  1  0.93371765  0.32483297  0.09667106  1
  O2-  O175  1  0.92684356  0.31849529  0.43080697  1
  O2-  O176  1  0.92838381  0.32037557  0.76384455  1
  O2-  O177  1  0.93328390  0.81705796  0.09038737  1
  O2-  O178  1  0.93358863  0.82160563  0.42346001  1
  O2-  O179  1  0.93141012  0.82194698  0.75760316  1
  O2-  O180  1  0.32180532  0.07290467  0.24226870  1
  O2-  O181  1  0.32392603  0.08063698  0.58030773  1
  O2-  O182  1  0.31751190  0.06942424  0.90939416  1
  O2-  O183  1  0.31779343  0.56900759  0.23450262  1
  O2-  O184  1  0.31588843  0.56876981  0.56963913  1
  O2-  O185  1  0.31735950  0.57674617  0.91105416  1
  O2-  O186  1  0.82112822  0.06902018  0.23611371  1
  O2-  O187  1  0.82061065  0.06841741  0.56920125  1
  O2-  O188  1  0.82153276  0.06726752  0.90276447  1
  O2-  O189  1  0.82435980  0.57394997  0.24491771  1
  O2-  O190  1  0.83031691  0.57530387  0.57543394  1
  O2-  O191  1  0.82108911  0.57394274  0.89954274  1
  O2-  O192  1  0.04633412  0.07822901  0.26625441  1
  O2-  O193  1  0.04561286  0.08208428  0.60703489  1
  O2-  O194  1  0.05161579  0.07249899  0.93537685  1
  O2-  O195  1  0.04792083  0.58632369  0.27164680  1
  O2-  O196  1  0.04677376  0.58858978  0.60273280  1
  O2-  O197  1  0.05206544  0.58769184  0.93476005  1
  O2-  O198  1  0.54084168  0.08846451  0.27425750  1
  O2-  O199  1  0.54517462  0.08861918  0.60218799  1
  O2-  O200  1  0.53520505  0.08250347  0.93064644  1
  O2-  O201  1  0.53677918  0.58005916  0.26126489  1
  O2-  O202  1  0.53747671  0.57931145  0.60138661  1
  O2-  O203  1  0.54134501  0.59218475  0.93574676  1
  O2-  O204  1  0.17191450  0.20454558  0.26833948  1
  O2-  O205  1  0.16777587  0.19847923  0.60519146  1
  O2-  O206  1  0.16746653  0.20705084  0.92646931  1
  O2-  O207  1  0.16000031  0.71185296  0.26896185  1
  O2-  O208  1  0.16123316  0.71287963  0.60479156  1
  O2-  O209  1  0.16289269  0.71416429  0.93467125  1
  O2-  O210  1  0.66163009  0.20709194  0.27573143  1
  O2-  O211  1  0.66080950  0.21242373  0.60278658  1
  O2-  O212  1  0.67095484  0.20095263  0.93345783  1
  O2-  O213  1  0.67257365  0.70103648  0.26286138  1
  O2-  O214  1  0.67251353  0.69833623  0.59677057  1
  O2-  O215  1  0.66433569  0.70930401  0.93780974  1
  O2-  O216  1  0.09295830  0.46119238  0.06118220  1
  O2-  O217  1  0.07861556  0.45624438  0.40045488  1
  O2-  O218  1  0.08294751  0.45776002  0.72969165  1
  O2-  O219  1  0.08612519  0.94673502  0.06365631  1
  O2-  O220  1  0.08832577  0.95485418  0.39550808  1
  O2-  O221  1  0.08704271  0.95986187  0.73891139  1
  O2-  O222  1  0.58112282  0.46364212  0.06772930  1
  O2-  O223  1  0.58367378  0.46013031  0.40148398  1
  O2-  O224  1  0.58373591  0.45802498  0.73630667  1
  O2-  O225  1  0.57228230  0.94851235  0.06125356  1
  O2-  O226  1  0.57753535  0.95582444  0.40220576  1
  O2-  O227  1  0.58248601  0.95147748  0.72343914  1
  O2-  O228  1  0.20785977  0.33525431  0.05763257  1
  O2-  O229  1  0.20616332  0.32908321  0.40446067  1
  O2-  O230  1  0.19830846  0.33178862  0.72794238  1
  O2-  O231  1  0.21241725  0.83689199  0.06654290  1
  O2-  O232  1  0.20730563  0.83765216  0.39506029  1
  O2-  O233  1  0.21083016  0.83496420  0.73779886  1
  O2-  O234  1  0.69964038  0.32903976  0.06519281  1
  O2-  O235  1  0.70940249  0.33393969  0.40360578  1
  O2-  O236  1  0.71305986  0.33562832  0.73502613  1
  O2-  O237  1  0.70999783  0.83405534  0.06832869  1
  O2-  O238  1  0.70391965  0.82728680  0.39875608  1
  O2-  O239  1  0.70260787  0.83126744  0.72234348  1
  O2-  O240  1  0.45429262  0.41280520  0.27650900  1
  O2-  O241  1  0.45668581  0.41257856  0.60510852  1
  O2-  O242  1  0.45185705  0.42626487  0.93600151  1
  O2-  O243  1  0.45283111  0.92210416  0.26388095  1
  O2-  O244  1  0.44570803  0.92377492  0.60248177  1
  O2-  O245  1  0.44339825  0.91467870  0.93703810  1
  O2-  O246  1  0.95204921  0.42145147  0.26615450  1
  O2-  O247  1  0.95656143  0.41742336  0.59723066  1
  O2-  O248  1  0.96452706  0.41875973  0.93001377  1
  O2-  O249  1  0.96338004  0.90943121  0.26888062  1
  O2-  O250  1  0.96477333  0.91351967  0.60615180  1
  O2-  O251  1  0.96015646  0.90842406  0.93670799  1
  O2-  O252  1  0.33744641  0.29170504  0.27628655  1
  O2-  O253  1  0.33464588  0.29441941  0.60373784  1
  O2-  O254  1  0.33476454  0.29202068  0.92894919  1
  O2-  O255  1  0.32979392  0.79165963  0.26171265  1
  O2-  O256  1  0.32948177  0.78885501  0.60190960  1
  O2-  O257  1  0.33579194  0.78578852  0.93489440  1
  O2-  O258  1  0.82863886  0.28931672  0.26594954  1
  O2-  O259  1  0.83210899  0.28524426  0.59874044  1
  O2-  O260  1  0.82857430  0.29827886  0.93286310  1
  O2-  O261  1  0.83684157  0.79675503  0.27092423  1
  O2-  O262  1  0.83933067  0.79952520  0.60188228  1
  O2-  O263  1  0.83759957  0.79152060  0.93750496  1
  O2-  O264  1  0.40824978  0.04284106  0.06288353  1
  O2-  O265  1  0.41188608  0.04370099  0.39729646  1
  O2-  O266  1  0.41960583  0.05284786  0.73106918  1
  O2-  O267  1  0.41475739  0.55397878  0.06155225  1
  O2-  O268  1  0.41678202  0.54194088  0.40257817  1
  O2-  O269  1  0.41436031  0.53818315  0.73791543  1
  O2-  O270  1  0.91858116  0.03573200  0.06794546  1
  O2-  O271  1  0.91970016  0.03746082  0.40161775  1
  O2-  O272  1  0.91538480  0.03945763  0.73720291  1
  O2-  O273  1  0.92709126  0.55160867  0.06195513  1
  O2-  O274  1  0.91824842  0.55147134  0.39591003  1
  O2-  O275  1  0.91927058  0.54877262  0.72731036  1
  O2-  O276  1  0.29095518  0.16470951  0.06021757  1
  O2-  O277  1  0.29474951  0.16147903  0.39881756  1
  O2-  O278  1  0.29628152  0.16839022  0.73396102  1
  O2-  O279  1  0.28443644  0.66139314  0.06503417  1
  O2-  O280  1  0.28733476  0.66920131  0.40010881  1
  O2-  O281  1  0.28467491  0.66322983  0.73814170  1
  O2-  O282  1  0.79948931  0.17200048  0.06717205  1
  O2-  O283  1  0.79001579  0.16633081  0.40353851  1
  O2-  O284  1  0.78416134  0.16429606  0.73508441  1
  O2-  O285  1  0.79448113  0.66802719  0.06759643  1
  O2-  O286  1  0.80047439  0.66791167  0.39575898  1
  O2-  O287  1  0.80340473  0.67047862  0.72492112  1
