# generated using pymatgen
data_Ca2Al2SiO7
_symmetry_space_group_name_H-M   'P 1'
_cell_length_a   15.45740378
_cell_length_b   15.45833009
_cell_length_c   15.28369900
_cell_angle_alpha   89.99976314
_cell_angle_beta   90.00306149
_cell_angle_gamma   89.99549811
_symmetry_Int_Tables_number   1
_chemical_formula_structural   Ca2Al2SiO7
_chemical_formula_sum   'Ca48 Al48 Si24 O168'
_cell_volume   3651.97337351
_cell_formula_units_Z   24
loop_
 _symmetry_equiv_pos_site_id
 _symmetry_equiv_pos_as_xyz
  1  'x, y, z'
loop_
 _atom_type_symbol
 _atom_type_oxidation_number
  Ca2+  2.0
  Al0+  0.0
  Si0+  0.0
  O2-  -2.0
loop_
 _atom_site_type_symbol
 _atom_site_label
 _atom_site_symmetry_multiplicity
 _atom_site_fract_x
 _atom_site_fract_y
 _atom_site_fract_z
 _atom_site_occupancy
  Ca2+  Ca0  1  0.17531236  0.08072580  0.17234785  1
  Ca2+  Ca1  1  0.17254168  0.09177977  0.50423495  1
  Ca2+  Ca2  1  0.16391583  0.08383042  0.83449988  1
  Ca2+  Ca3  1  0.17370588  0.57610642  0.17154694  1
  Ca2+  Ca4  1  0.18029222  0.57217224  0.50687782  1
  Ca2+  Ca5  1  0.16769350  0.57421108  0.84074112  1
  Ca2+  Ca6  1  0.65892880  0.07700637  0.17148687  1
  Ca2+  Ca7  1  0.66895966  0.07141283  0.51180134  1
  Ca2+  Ca8  1  0.66401379  0.08413305  0.83485646  1
  Ca2+  Ca9  1  0.66461352  0.58425033  0.16523066  1
  Ca2+  Ca10  1  0.66192027  0.58439626  0.50474109  1
  Ca2+  Ca11  1  0.67004759  0.58297327  0.84146834  1
  Ca2+  Ca12  1  0.07528150  0.34715444  0.16297270  1
  Ca2+  Ca13  1  0.08352496  0.33616933  0.49680441  1
  Ca2+  Ca14  1  0.07999695  0.33694470  0.83029492  1
  Ca2+  Ca15  1  0.08359688  0.82287163  0.15749833  1
  Ca2+  Ca16  1  0.07456194  0.83642876  0.49960288  1
  Ca2+  Ca17  1  0.07776648  0.82393479  0.82831815  1
  Ca2+  Ca18  1  0.56908478  0.33218940  0.15571224  1
  Ca2+  Ca19  1  0.57734991  0.32604961  0.49405119  1
  Ca2+  Ca20  1  0.58611459  0.32762691  0.83134886  1
  Ca2+  Ca21  1  0.58015657  0.82476852  0.16231579  1
  Ca2+  Ca22  1  0.59229781  0.82412289  0.49693779  1
  Ca2+  Ca23  1  0.58364943  0.82329040  0.82984467  1
  Ca2+  Ca24  1  0.32597376  0.41293967  0.17511973  1
  Ca2+  Ca25  1  0.33103273  0.42159895  0.50389019  1
  Ca2+  Ca26  1  0.32444012  0.41634155  0.83713616  1
  Ca2+  Ca27  1  0.34168108  0.92247376  0.17024322  1
  Ca2+  Ca28  1  0.33393732  0.92427971  0.50147363  1
  Ca2+  Ca29  1  0.33941207  0.91714106  0.83858065  1
  Ca2+  Ca30  1  0.83035473  0.41683398  0.16382811  1
  Ca2+  Ca31  1  0.83384870  0.41620617  0.50097606  1
  Ca2+  Ca32  1  0.82686262  0.41984037  0.84707061  1
  Ca2+  Ca33  1  0.82358114  0.91960863  0.17354143  1
  Ca2+  Ca34  1  0.82417010  0.91899287  0.51126906  1
  Ca2+  Ca35  1  0.83234203  0.91969849  0.83058676  1
  Ca2+  Ca36  1  0.41633948  0.17529775  0.16126675  1
  Ca2+  Ca37  1  0.41866129  0.17001386  0.49433994  1
  Ca2+  Ca38  1  0.42866720  0.17322014  0.83376703  1
  Ca2+  Ca39  1  0.42470349  0.66704607  0.16070268  1
  Ca2+  Ca40  1  0.42451439  0.65783838  0.49577481  1
  Ca2+  Ca41  1  0.42602749  0.66371150  0.82893959  1
  Ca2+  Ca42  1  0.91659679  0.18171892  0.16207913  1
  Ca2+  Ca43  1  0.92130703  0.16855906  0.49846583  1
  Ca2+  Ca44  1  0.91956401  0.17179251  0.82549688  1
  Ca2+  Ca45  1  0.92324894  0.66158940  0.15787047  1
  Ca2+  Ca46  1  0.91421803  0.67435961  0.49898664  1
  Ca2+  Ca47  1  0.92092212  0.66299233  0.83218008  1
  Al0+  Al48  1  -0.00017237  0.00014797  0.00469618  1
  Al0+  Al49  1  -0.00122320  0.00076093  0.33026879  1
  Al0+  Al50  1  -0.00019257  0.00167112  0.66154561  1
  Al0+  Al51  1  0.00001161  0.50051212  -0.00170293  1
  Al0+  Al52  1  -0.00091420  0.50094785  0.33535314  1
  Al0+  Al53  1  0.00111857  0.50061899  0.66719240  1
  Al0+  Al54  1  0.50018634  0.00084296  -0.00560519  1
  Al0+  Al55  1  0.50046056  -0.00320801  0.34438171  1
  Al0+  Al56  1  0.50006881  -0.00144894  0.66789363  1
  Al0+  Al57  1  0.49866282  0.50029264  -0.00492899  1
  Al0+  Al58  1  0.50163369  0.49825481  0.32760885  1
  Al0+  Al59  1  0.49972619  0.50063738  0.66689891  1
  Al0+  Al60  1  0.24969843  0.24840959  0.00123713  1
  Al0+  Al61  1  0.24917648  0.24777945  0.33776226  1
  Al0+  Al62  1  0.24850882  0.25077198  0.66842937  1
  Al0+  Al63  1  0.24756336  0.74982740  -0.00760295  1
  Al0+  Al64  1  0.25046483  0.75066964  0.33825594  1
  Al0+  Al65  1  0.25184896  0.75037547  0.66863080  1
  Al0+  Al66  1  0.75117788  0.25053163  -0.00165634  1
  Al0+  Al67  1  0.75229368  0.24989558  0.32933935  1
  Al0+  Al68  1  0.75025433  0.24899879  0.66378815  1
  Al0+  Al69  1  0.75054102  0.75297227  0.00227145  1
  Al0+  Al70  1  0.74992082  0.74968927  0.33165214  1
  Al0+  Al71  1  0.74938447  0.75043940  0.66389428  1
  Al0+  Al72  1  0.56924417  0.67979146  0.65176251  1
  Al0+  Al73  1  0.57256460  0.67905733  0.98429676  1
  Al0+  Al74  1  0.57124293  0.67864807  0.31805121  1
  Al0+  Al75  1  0.67861147  0.92756719  0.68570137  1
  Al0+  Al76  1  0.17884114  0.42888653  0.68447708  1
  Al0+  Al77  1  0.31960489  0.06964183  0.34721040  1
  Al0+  Al78  1  0.93105147  0.32076107  0.98582082  1
  Al0+  Al79  1  0.68103653  0.92868647  0.34793203  1
  Al0+  Al80  1  0.81983686  0.57251906  0.01476591  1
  Al0+  Al81  1  0.07072957  0.18053790  0.65320796  1
  Al0+  Al82  1  0.06919201  0.67843808  0.98653742  1
  Al0+  Al83  1  0.42487769  0.32277019  0.98418978  1
  Al0+  Al84  1  0.32351023  0.57183965  0.68458751  1
  Al0+  Al85  1  0.67630767  0.42750706  0.01515886  1
  Al0+  Al86  1  0.42883311  0.82122125  0.98574616  1
  Al0+  Al87  1  0.32457971  0.57153193  0.34685114  1
  Al0+  Al88  1  0.42882681  0.31867825  0.32111021  1
  Al0+  Al89  1  0.93069409  0.81939021  0.65364372  1
  Al0+  Al90  1  0.18086779  0.42842080  0.01503311  1
  Al0+  Al91  1  0.57142605  0.17984044  0.98657947  1
  Al0+  Al92  1  0.92982694  0.32229665  0.31825446  1
  Al0+  Al93  1  0.57197048  0.17816555  0.65100307  1
  Al0+  Al94  1  0.17724846  0.42961892  0.34935365  1
  Al0+  Al95  1  0.82173330  0.07155811  0.68207517  1
  Si0+  Si96  1  0.32106501  0.07125027  0.68396234  1
  Si0+  Si97  1  0.82062580  0.57133103  0.67899157  1
  Si0+  Si98  1  0.92834404  0.82143679  0.31710941  1
  Si0+  Si99  1  0.32135437  0.57442320  0.01568473  1
  Si0+  Si100  1  0.07077360  0.68142878  0.32077019  1
  Si0+  Si101  1  0.92751926  0.32424703  0.64976936  1
  Si0+  Si102  1  0.17473403  0.92701092  0.35024222  1
  Si0+  Si103  1  0.07393392  0.67671344  0.64783157  1
  Si0+  Si104  1  0.17814574  0.92971805  0.68123309  1
  Si0+  Si105  1  0.92803513  0.82528778  0.98496312  1
  Si0+  Si106  1  0.67990985  0.42826051  0.67834846  1
  Si0+  Si107  1  0.82350947  0.07196850  0.01678006  1
  Si0+  Si108  1  0.07246350  0.17708486  0.31489826  1
  Si0+  Si109  1  0.82051017  0.57082505  0.34914113  1
  Si0+  Si110  1  0.07131847  0.17527940  0.98530665  1
  Si0+  Si111  1  0.67945278  0.42758389  0.34710245  1
  Si0+  Si112  1  0.42568280  0.82294034  0.64731937  1
  Si0+  Si113  1  0.42704447  0.82283786  0.31956246  1
  Si0+  Si114  1  0.67848847  0.93159893  0.01575870  1
  Si0+  Si115  1  0.82261023  0.07378598  0.34976922  1
  Si0+  Si116  1  0.57150538  0.17540914  0.31967188  1
  Si0+  Si117  1  0.17750193  0.92747621  0.01370678  1
  Si0+  Si118  1  0.32122072  0.06836647  0.01372305  1
  Si0+  Si119  1  0.42889949  0.32020005  0.64980141  1
  O2-  O120  1  0.25086262  -0.00414260  0.05577595  1
  O2-  O121  1  0.24213018  -0.00305538  0.39403591  1
  O2-  O122  1  0.25111952  -0.00198272  0.72504944  1
  O2-  O123  1  0.25874763  0.50049360  0.06102563  1
  O2-  O124  1  0.25346555  0.49839747  0.39712275  1
  O2-  O125  1  0.24860746  0.50293382  0.73410328  1
  O2-  O126  1  0.74941588  0.00328143  0.05814121  1
  O2-  O127  1  0.75413400  0.00540794  0.39366459  1
  O2-  O128  1  0.74765604  0.00325138  0.73487536  1
  O2-  O129  1  0.74575223  0.50280994  0.06569481  1
  O2-  O130  1  0.74930563  0.49968861  0.39079621  1
  O2-  O131  1  0.75347223  0.49685538  0.71982221  1
  O2-  O132  1  0.00604361  0.24817662  0.27173847  1
  O2-  O133  1  -0.00282687  0.25617313  0.60639034  1
  O2-  O134  1  0.00494121  0.24504545  0.94036527  1
  O2-  O135  1  0.00313445  0.75481686  0.27574180  1
  O2-  O136  1  0.00527805  0.74571428  0.60354205  1
  O2-  O137  1  -0.00681858  0.75320420  0.94166356  1
  O2-  O138  1  0.50332831  0.24321721  0.27453060  1
  O2-  O139  1  0.49667551  0.25139560  0.60380772  1
  O2-  O140  1  0.50445181  0.25697530  0.93670334  1
  O2-  O141  1  0.49202222  0.75099707  0.27539516  1
  O2-  O142  1  0.49353764  0.75328664  0.60388090  1
  O2-  O143  1  0.49775773  0.74795447  0.93410308  1
  O2-  O144  1  0.06898138  0.17048989  0.09073259  1
  O2-  O145  1  0.06986194  0.17370363  0.42037244  1
  O2-  O146  1  0.06924413  0.17897892  0.76632001  1
  O2-  O147  1  0.07036160  0.68185071  0.10037616  1
  O2-  O148  1  0.06704729  0.68418863  0.42572982  1
  O2-  O149  1  0.07118149  0.67716625  0.75339633  1
  O2-  O150  1  0.56557775  0.17380351  0.10044583  1
  O2-  O151  1  0.57116923  0.17778369  0.42530302  1
  O2-  O152  1  0.57112014  0.18150824  0.76379351  1
  O2-  O153  1  0.57280939  0.68366184  0.09813616  1
  O2-  O154  1  0.57430197  0.68042619  0.43110791  1
  O2-  O155  1  0.57177371  0.68007881  0.76417953  1
  O2-  O156  1  0.17580903  0.43392704  0.23569447  1
  O2-  O157  1  0.17929515  0.42913024  0.57092719  1
  O2-  O158  1  0.17980235  0.42899051  0.90226431  1
  O2-  O159  1  0.17356742  0.92617542  0.24444301  1
  O2-  O160  1  0.17877864  0.93093627  0.57591533  1
  O2-  O161  1  0.17320690  0.93085150  0.90883771  1
  O2-  O162  1  0.68053984  0.42686688  0.24266076  1
  O2-  O163  1  0.68031115  0.42902772  0.57255540  1
  O2-  O164  1  0.68167798  0.42568775  0.90103151  1
  O2-  O165  1  0.68141852  0.93026350  0.23412543  1
  O2-  O166  1  0.68259752  0.92666891  0.57178599  1
  O2-  O167  1  0.67951456  0.93100163  0.91123831  1
  O2-  O168  1  0.42191495  0.31639702  0.09809595  1
  O2-  O169  1  0.43223785  0.31759271  0.43444971  1
  O2-  O170  1  0.42996890  0.31840725  0.75518439  1
  O2-  O171  1  0.43118364  0.82413067  0.09983508  1
  O2-  O172  1  0.42726969  0.82519800  0.42478250  1
  O2-  O173  1  0.42541812  0.82357175  0.75272782  1
  O2-  O174  1  0.93211625  0.32002429  0.09912315  1
  O2-  O175  1  0.92841235  0.32099381  0.43138133  1
  O2-  O176  1  0.92678135  0.32494917  0.75509088  1
  O2-  O177  1  0.93173918  0.82823362  0.09103504  1
  O2-  O178  1  0.92811409  0.82055065  0.42220219  1
  O2-  O179  1  0.93337063  0.81768230  0.76663967  1
  O2-  O180  1  0.31991083  0.06677511  0.23367773  1
  O2-  O181  1  0.31981147  0.07097759  0.57866164  1
  O2-  O182  1  0.31978952  0.06772899  0.90855435  1
  O2-  O183  1  0.32137782  0.57465642  0.23333679  1
  O2-  O184  1  0.32423030  0.56828004  0.57070605  1
  O2-  O185  1  0.31605031  0.57682311  0.91047646  1
  O2-  O186  1  0.82282652  0.07194695  0.24381819  1
  O2-  O187  1  0.82155456  0.06935167  0.56813418  1
  O2-  O188  1  0.82927281  0.06874104  0.91233070  1
  O2-  O189  1  0.82290750  0.57228248  0.24460598  1
  O2-  O190  1  0.82046644  0.57094732  0.57323472  1
  O2-  O191  1  0.82043450  0.57106060  0.90064180  1
  O2-  O192  1  0.04601270  0.08350493  0.26709733  1
  O2-  O193  1  0.04132388  0.08522755  0.59554419  1
  O2-  O194  1  0.04378983  0.08199483  0.93853658  1
  O2-  O195  1  0.03888226  0.59110448  0.27378538  1
  O2-  O196  1  0.04631355  0.58390994  0.60130947  1
  O2-  O197  1  0.03664849  0.58482223  0.92950921  1
  O2-  O198  1  0.54506571  0.08016264  0.27772031  1
  O2-  O199  1  0.54095192  0.08022492  0.60004889  1
  O2-  O200  1  0.53743192  0.08505527  0.92970223  1
  O2-  O201  1  0.54558197  0.58151237  0.26361842  1
  O2-  O202  1  0.54014759  0.58194736  0.59763644  1
  O2-  O203  1  0.55008470  0.57952850  0.93201055  1
  O2-  O204  1  0.16759120  0.19798740  0.27115137  1
  O2-  O205  1  0.16793292  0.21001867  0.59885584  1
  O2-  O206  1  0.16588494  0.19697726  0.94087362  1
  O2-  O207  1  0.16356684  0.70744311  0.27417064  1
  O2-  O208  1  0.16783924  0.70391922  0.60395479  1
  O2-  O209  1  0.16209905  0.71187675  0.92803210  1
  O2-  O210  1  0.66597277  0.19825952  0.27436744  1
  O2-  O211  1  0.66829727  0.20845416  0.59586099  1
  O2-  O212  1  0.67167928  0.20092445  0.93501757  1
  O2-  O213  1  0.66696104  0.71348262  0.26402267  1
  O2-  O214  1  0.66579940  0.71069442  0.59695849  1
  O2-  O215  1  0.67108459  0.71195252  0.93345181  1
  O2-  O216  1  0.08495689  0.46458653  0.06666341  1
  O2-  O217  1  0.08010484  0.46210553  0.40336750  1
  O2-  O218  1  0.07863640  0.45678275  0.73513495  1
  O2-  O219  1  0.08788741  0.95687479  0.06597207  1
  O2-  O220  1  0.07981787  0.95214292  0.39478365  1
  O2-  O221  1  0.08762553  0.96059922  0.72844933  1
  O2-  O222  1  0.57534463  0.45247513  0.06509794  1
  O2-  O223  1  0.58798960  0.45441152  0.39490056  1
  O2-  O224  1  0.58920168  0.45699894  0.72574643  1
  O2-  O225  1  0.58658067  0.96134225  0.06241378  1
  O2-  O226  1  0.58536033  0.95404766  0.40541175  1
  O2-  O227  1  0.57815514  0.95248535  0.73551771  1
  O2-  O228  1  0.20582084  0.32926047  0.06815378  1
  O2-  O229  1  0.19984271  0.32879075  0.39894596  1
  O2-  O230  1  0.20707462  0.33019767  0.73706898  1
  O2-  O231  1  0.20244072  0.83461017  0.06032201  1
  O2-  O232  1  0.19994014  0.83500466  0.39937016  1
  O2-  O233  1  0.20185167  0.83665060  0.72822621  1
  O2-  O234  1  0.70792619  0.32942582  0.06842087  1
  O2-  O235  1  0.70927456  0.33573640  0.39474071  1
  O2-  O236  1  0.70607214  0.33625971  0.72531562  1
  O2-  O237  1  0.70743797  0.84123731  0.06560694  1
  O2-  O238  1  0.71712907  0.83312073  0.40082436  1
  O2-  O239  1  0.71365321  0.83027375  0.73679921  1
  O2-  O240  1  0.45983496  0.41336581  0.26471793  1
  O2-  O241  1  0.45655250  0.41340780  0.60459573  1
  O2-  O242  1  0.44340317  0.42316801  0.93324909  1
  O2-  O243  1  0.45805307  0.91541503  0.27341395  1
  O2-  O244  1  0.45100933  0.91713599  0.60246535  1
  O2-  O245  1  0.45866769  0.91802000  0.93062980  1
  O2-  O246  1  0.95891170  0.42039122  0.26590887  1
  O2-  O247  1  0.95271260  0.41823795  0.60295251  1
  O2-  O248  1  0.96133505  0.41623682  0.93102494  1
  O2-  O249  1  0.95110174  0.91498076  0.27001015  1
  O2-  O250  1  0.96263367  0.91443866  0.59688363  1
  O2-  O251  1  0.95896457  0.91694987  0.93815987  1
  O2-  O252  1  0.33133750  0.28688837  0.26952791  1
  O2-  O253  1  0.33512580  0.29337144  0.60539918  1
  O2-  O254  1  0.33001194  0.28429774  0.93005317  1
  O2-  O255  1  0.33080014  0.80431466  0.27498094  1
  O2-  O256  1  0.33052080  0.80131140  0.60167034  1
  O2-  O257  1  0.32850384  0.80073531  0.93336582  1
  O2-  O258  1  0.83407851  0.29001551  0.26206372  1
  O2-  O259  1  0.83485790  0.29814720  0.60189320  1
  O2-  O260  1  0.83495485  0.29042594  0.93195653  1
  O2-  O261  1  0.83902861  0.78955773  0.26808371  1
  O2-  O262  1  0.83598277  0.78631791  0.59727026  1
  O2-  O263  1  0.83318947  0.80513297  0.94120627  1
  O2-  O264  1  0.41256523  0.03960859  0.06159770  1
  O2-  O265  1  0.41366362  0.03751708  0.40560585  1
  O2-  O266  1  0.41255356  0.04337895  0.73127445  1
  O2-  O267  1  0.41819354  0.55674226  0.05691435  1
  O2-  O268  1  0.42374338  0.54172664  0.39789034  1
  O2-  O269  1  0.42120475  0.54066454  0.73718126  1
  O2-  O270  1  0.91294027  0.04079183  0.06859004  1
  O2-  O271  1  0.91714916  0.04767073  0.39400659  1
  O2-  O272  1  0.92025152  0.03999773  0.73349653  1
  O2-  O273  1  0.91766551  0.54081445  0.06736784  1
  O2-  O274  1  0.91100069  0.54324871  0.39937562  1
  O2-  O275  1  0.91414740  0.54844753  0.72512546  1
  O2-  O276  1  0.29118561  0.15820072  0.06332890  1
  O2-  O277  1  0.28921321  0.16418291  0.40512784  1
  O2-  O278  1  0.29055859  0.16168849  0.73128690  1
  O2-  O279  1  0.28932289  0.66708521  0.06138372  1
  O2-  O280  1  0.29675969  0.67021488  0.40125194  1
  O2-  O281  1  0.29980423  0.67305353  0.73388172  1
  O2-  O282  1  0.79825683  0.16440274  0.06323053  1
  O2-  O283  1  0.79964219  0.16817145  0.39496846  1
  O2-  O284  1  0.79646619  0.17198067  0.73263718  1
  O2-  O285  1  0.79771301  0.67335815  0.06794752  1
  O2-  O286  1  0.79225678  0.66273031  0.39637289  1
  O2-  O287  1  0.79055982  0.66141338  0.72659304  1
