# generated using pymatgen
data_Ca2Al2SiO7
_symmetry_space_group_name_H-M   'P 1'
_cell_length_a   15.45454875
_cell_length_b   15.45511813
_cell_length_c   15.28195389
_cell_angle_alpha   90.00355673
_cell_angle_beta   89.99944171
_cell_angle_gamma   89.99374731
_symmetry_Int_Tables_number   1
_chemical_formula_structural   Ca2Al2SiO7
_chemical_formula_sum   'Ca48 Al48 Si24 O168'
_cell_volume   3650.12333774
_cell_formula_units_Z   24
loop_
 _symmetry_equiv_pos_site_id
 _symmetry_equiv_pos_as_xyz
  1  'x, y, z'
loop_
 _atom_type_symbol
 _atom_type_oxidation_number
  Ca2+  2.0
  Al0+  0.0
  Si0+  0.0
  O2-  -2.0
loop_
 _atom_site_type_symbol
 _atom_site_label
 _atom_site_symmetry_multiplicity
 _atom_site_fract_x
 _atom_site_fract_y
 _atom_site_fract_z
 _atom_site_occupancy
  Ca2+  Ca0  1  0.16781213  0.08338861  0.17408259  1
  Ca2+  Ca1  1  0.16552462  0.07932080  0.50609340  1
  Ca2+  Ca2  1  0.16795514  0.07536614  0.83319576  1
  Ca2+  Ca3  1  0.17208268  0.57919035  0.17446651  1
  Ca2+  Ca4  1  0.16124976  0.57285334  0.50436839  1
  Ca2+  Ca5  1  0.17066894  0.57989854  0.83442957  1
  Ca2+  Ca6  1  0.66434893  0.08062964  0.17764150  1
  Ca2+  Ca7  1  0.67043619  0.07967708  0.50245552  1
  Ca2+  Ca8  1  0.66756956  0.08313931  0.83364455  1
  Ca2+  Ca9  1  0.67487444  0.58139626  0.17452456  1
  Ca2+  Ca10  1  0.67835810  0.58244371  0.50992703  1
  Ca2+  Ca11  1  0.66195371  0.58174686  0.82951637  1
  Ca2+  Ca12  1  0.08163638  0.33295346  0.17534797  1
  Ca2+  Ca13  1  0.07948421  0.33237720  0.48822129  1
  Ca2+  Ca14  1  0.08457472  0.33380935  0.82600662  1
  Ca2+  Ca15  1  0.07483795  0.82630031  0.16242128  1
  Ca2+  Ca16  1  0.08620748  0.82098338  0.49697738  1
  Ca2+  Ca17  1  0.07861390  0.82810917  0.82466669  1
  Ca2+  Ca18  1  0.58007236  0.32194221  0.16088176  1
  Ca2+  Ca19  1  0.57491371  0.33476201  0.49354676  1
  Ca2+  Ca20  1  0.57349131  0.33720618  0.82563387  1
  Ca2+  Ca21  1  0.57300541  0.84000173  0.16546364  1
  Ca2+  Ca22  1  0.58769442  0.83448955  0.49662375  1
  Ca2+  Ca23  1  0.57872595  0.82916846  0.82600809  1
  Ca2+  Ca24  1  0.33492736  0.41762800  0.17145820  1
  Ca2+  Ca25  1  0.32417266  0.40692410  0.50437639  1
  Ca2+  Ca26  1  0.33445503  0.41893704  0.83765610  1
  Ca2+  Ca27  1  0.33734454  0.91493490  0.17326838  1
  Ca2+  Ca28  1  0.32975454  0.91631374  0.50311189  1
  Ca2+  Ca29  1  0.32702167  0.90881779  0.83716945  1
  Ca2+  Ca30  1  0.83481598  0.42104323  0.17745995  1
  Ca2+  Ca31  1  0.83273413  0.42351299  0.50532328  1
  Ca2+  Ca32  1  0.82740376  0.42326693  0.82990375  1
  Ca2+  Ca33  1  0.82600435  0.92125501  0.17803706  1
  Ca2+  Ca34  1  0.82471639  0.92907006  0.50558869  1
  Ca2+  Ca35  1  0.82924009  0.91711612  0.83389538  1
  Ca2+  Ca36  1  0.42791945  0.17607574  0.16394803  1
  Ca2+  Ca37  1  0.42215607  0.17747827  0.49213907  1
  Ca2+  Ca38  1  0.42223449  0.17723714  0.82991198  1
  Ca2+  Ca39  1  0.41208333  0.67634535  0.16202622  1
  Ca2+  Ca40  1  0.42603396  0.67282981  0.49695674  1
  Ca2+  Ca41  1  0.41895043  0.66639326  0.82926069  1
  Ca2+  Ca42  1  0.91659554  0.16722502  0.17079146  1
  Ca2+  Ca43  1  0.91653136  0.16956867  0.49128034  1
  Ca2+  Ca44  1  0.91595832  0.16629799  0.82792956  1
  Ca2+  Ca45  1  0.92059622  0.66669405  0.16682891  1
  Ca2+  Ca46  1  0.92488845  0.65589195  0.49526957  1
  Ca2+  Ca47  1  0.91882211  0.67120310  0.82441972  1
  Al0+  Al48  1  -0.00120206  -0.00113707  -0.00291026  1
  Al0+  Al49  1  -0.00009832  -0.00142456  0.33386443  1
  Al0+  Al50  1  0.00117028  -0.00056625  0.67458330  1
  Al0+  Al51  1  0.00071100  0.49812888  0.00023367  1
  Al0+  Al52  1  0.00282887  0.49918605  0.33041880  1
  Al0+  Al53  1  0.00077753  0.49945406  0.67328341  1
  Al0+  Al54  1  0.49882220  -0.00025448  -0.00932335  1
  Al0+  Al55  1  0.49795416  -0.00035574  0.33194821  1
  Al0+  Al56  1  0.49982010  0.00292223  0.67040768  1
  Al0+  Al57  1  0.49976682  0.50003312  0.00484638  1
  Al0+  Al58  1  0.49972110  0.50396762  0.32965009  1
  Al0+  Al59  1  0.49902911  0.50263520  0.65849119  1
  Al0+  Al60  1  0.24895302  0.24794233  -0.00233827  1
  Al0+  Al61  1  0.24951107  0.24965794  0.32917758  1
  Al0+  Al62  1  0.24968812  0.24937490  0.66889480  1
  Al0+  Al63  1  0.24856992  0.74749384  0.00130649  1
  Al0+  Al64  1  0.25077917  0.74841812  0.32614355  1
  Al0+  Al65  1  0.24818889  0.74975014  0.66603081  1
  Al0+  Al66  1  0.75244191  0.24906883  -0.00327659  1
  Al0+  Al67  1  0.74998896  0.25080268  0.32946859  1
  Al0+  Al68  1  0.74965218  0.25103105  0.67445330  1
  Al0+  Al69  1  0.75058884  0.75119375  -0.00172144  1
  Al0+  Al70  1  0.75122652  0.74941570  0.34168625  1
  Al0+  Al71  1  0.75044212  0.75316903  0.66987173  1
  Al0+  Al72  1  0.42838310  0.32158682  0.65146407  1
  Al0+  Al73  1  0.42917924  0.32236228  0.98393343  1
  Al0+  Al74  1  0.42753420  0.81952463  0.98497350  1
  Al0+  Al75  1  0.67596135  0.92996193  0.34792128  1
  Al0+  Al76  1  0.82257108  0.57171644  0.68301060  1
  Al0+  Al77  1  0.07110289  0.17521890  0.32025313  1
  Al0+  Al78  1  0.82207177  0.56929586  0.34625129  1
  Al0+  Al79  1  0.43057707  0.81946686  0.32120686  1
  Al0+  Al80  1  0.18143265  0.92757923  0.67980618  1
  Al0+  Al81  1  0.57197464  0.68138535  0.65250570  1
  Al0+  Al82  1  0.17974780  0.42777966  0.68022494  1
  Al0+  Al83  1  0.32069449  0.56977667  0.01437484  1
  Al0+  Al84  1  0.57103428  0.17954365  0.32062837  1
  Al0+  Al85  1  0.82232859  0.07322632  0.34711229  1
  Al0+  Al86  1  0.18380948  0.42995710  0.34612750  1
  Al0+  Al87  1  0.92886116  0.32129407  0.32039317  1
  Al0+  Al88  1  0.67694939  0.92958507  0.68475934  1
  Al0+  Al89  1  0.07076094  0.67784038  0.31870534  1
  Al0+  Al90  1  0.42736374  0.32402085  0.31750140  1
  Al0+  Al91  1  0.06954326  0.67844618  0.65292450  1
  Al0+  Al92  1  0.57321447  0.17882297  0.98180987  1
  Al0+  Al93  1  0.92862571  0.82072548  0.98611313  1
  Al0+  Al94  1  0.67593160  0.43082126  0.68005827  1
  Al0+  Al95  1  0.82138964  0.07198337  0.68392623  1
  Si0+  Si96  1  0.32054937  0.06973730  0.01512356  1
  Si0+  Si97  1  0.67813243  0.92973957  0.01477616  1
  Si0+  Si98  1  0.68052984  0.42840926  0.01542750  1
  Si0+  Si99  1  0.92753727  0.82119241  0.31950978  1
  Si0+  Si100  1  0.32147544  0.07315521  0.68456525  1
  Si0+  Si101  1  0.17806140  0.92903333  0.01653630  1
  Si0+  Si102  1  0.82172309  0.57144686  0.01502927  1
  Si0+  Si103  1  0.57307060  0.67810232  0.98531320  1
  Si0+  Si104  1  0.92873836  0.82413956  0.64859779  1
  Si0+  Si105  1  0.42716175  0.82384346  0.65102673  1
  Si0+  Si106  1  0.92995558  0.32194950  0.98271242  1
  Si0+  Si107  1  0.32334029  0.57538735  0.35162251  1
  Si0+  Si108  1  0.32138822  0.57218174  0.68051013  1
  Si0+  Si109  1  0.92926031  0.32012872  0.65431557  1
  Si0+  Si110  1  0.67601421  0.42833545  0.34735409  1
  Si0+  Si111  1  0.57339176  0.17892315  0.64921731  1
  Si0+  Si112  1  0.82212185  0.07096527  0.01694446  1
  Si0+  Si113  1  0.07037013  0.17770041  0.98329271  1
  Si0+  Si114  1  0.07040952  0.67690323  0.98232674  1
  Si0+  Si115  1  0.57604133  0.67939164  0.31652721  1
  Si0+  Si116  1  0.07035360  0.17789127  0.65401056  1
  Si0+  Si117  1  0.17664081  0.42501061  0.01897818  1
  Si0+  Si118  1  0.31926984  0.07024961  0.34669415  1
  Si0+  Si119  1  0.17865869  0.92637118  0.34591290  1
  O2-  O120  1  0.25101759  -0.00249547  0.05950632  1
  O2-  O121  1  0.24637714  0.00039282  0.38834223  1
  O2-  O122  1  0.25819739  -0.00099946  0.72887638  1
  O2-  O123  1  0.24790151  0.49230862  0.06042958  1
  O2-  O124  1  0.26050490  0.50138088  0.39533002  1
  O2-  O125  1  0.25518223  0.50159986  0.72603520  1
  O2-  O126  1  0.74788305  0.00233042  0.05745371  1
  O2-  O127  1  0.74799936  0.00318217  0.39571308  1
  O2-  O128  1  0.74914649  0.00108472  0.73569279  1
  O2-  O129  1  0.75150010  0.49996264  0.05767361  1
  O2-  O130  1  0.74561895  0.49597847  0.39142100  1
  O2-  O131  1  0.74625834  0.50380692  0.73276267  1
  O2-  O132  1  -0.00291823  0.24513459  0.26971793  1
  O2-  O133  1  -0.00128825  0.24761337  0.61232496  1
  O2-  O134  1  0.00180585  0.25113875  0.94129932  1
  O2-  O135  1  -0.00466709  0.75246392  0.27327408  1
  O2-  O136  1  -0.00684776  0.75111805  0.60480865  1
  O2-  O137  1  0.00098953  0.74441003  0.93834782  1
  O2-  O138  1  0.50352452  0.25543717  0.26950224  1
  O2-  O139  1  0.50559058  0.24881139  0.60588808  1
  O2-  O140  1  0.50340080  0.25353768  0.93265402  1
  O2-  O141  1  0.50676024  0.74740954  0.27230607  1
  O2-  O142  1  0.50048298  0.76052805  0.60700640  1
  O2-  O143  1  0.50217710  0.74442220  0.94071827  1
  O2-  O144  1  0.06984720  0.17486397  0.08791361  1
  O2-  O145  1  0.07282109  0.17557496  0.43391352  1
  O2-  O146  1  0.07037373  0.17934005  0.75977542  1
  O2-  O147  1  0.06917533  0.67764534  0.08806368  1
  O2-  O148  1  0.07144171  0.67861600  0.43172796  1
  O2-  O149  1  0.07010336  0.68085917  0.76638534  1
  O2-  O150  1  0.57257294  0.17846232  0.09537798  1
  O2-  O151  1  0.56769937  0.17891753  0.43411587  1
  O2-  O152  1  0.57071996  0.17921146  0.75486847  1
  O2-  O153  1  0.57631020  0.68084591  0.09089231  1
  O2-  O154  1  0.57492423  0.67943036  0.42183117  1
  O2-  O155  1  0.56633771  0.68000152  0.76610341  1
  O2-  O156  1  0.18331332  0.43245882  0.23279303  1
  O2-  O157  1  0.17808135  0.42611788  0.56751320  1
  O2-  O158  1  0.17381143  0.42616495  0.91327232  1
  O2-  O159  1  0.17999535  0.92653300  0.24034806  1
  O2-  O160  1  0.18233723  0.92878350  0.56639894  1
  O2-  O161  1  0.17846607  0.93065731  0.91139089  1
  O2-  O162  1  0.67771102  0.43113919  0.24099407  1
  O2-  O163  1  0.67875578  0.43026777  0.56662188  1
  O2-  O164  1  0.68050803  0.43015544  0.91063186  1
  O2-  O165  1  0.67629749  0.92985694  0.23330670  1
  O2-  O166  1  0.67694026  0.93253236  0.57149262  1
  O2-  O167  1  0.68038486  0.92860639  0.91024490  1
  O2-  O168  1  0.43079434  0.31987903  0.09709724  1
  O2-  O169  1  0.42617581  0.31935173  0.43119263  1
  O2-  O170  1  0.42774602  0.32017988  0.76465860  1
  O2-  O171  1  0.42893910  0.82107027  0.09804649  1
  O2-  O172  1  0.42720189  0.81852306  0.43404385  1
  O2-  O173  1  0.42494863  0.81926392  0.75675463  1
  O2-  O174  1  0.92883478  0.32332384  0.08739349  1
  O2-  O175  1  0.93180520  0.32327139  0.43409004  1
  O2-  O176  1  0.93211574  0.31944362  0.76013906  1
  O2-  O177  1  0.93004642  0.82041876  0.09941460  1
  O2-  O178  1  0.93035292  0.82245334  0.42457191  1
  O2-  O179  1  0.93279094  0.82390767  0.75481127  1
  O2-  O180  1  0.31925197  0.06789265  0.24121102  1
  O2-  O181  1  0.31828969  0.07454556  0.57880782  1
  O2-  O182  1  0.31627188  0.06973193  0.91012688  1
  O2-  O183  1  0.31984428  0.57763992  0.24577356  1
  O2-  O184  1  0.31915820  0.57435538  0.57525290  1
  O2-  O185  1  0.31821795  0.57071011  0.90102493  1
  O2-  O186  1  0.82347654  0.06825496  0.23281672  1
  O2-  O187  1  0.82342246  0.07237779  0.57083823  1
  O2-  O188  1  0.82450078  0.06973902  0.91219980  1
  O2-  O189  1  0.82004265  0.56965982  0.23202371  1
  O2-  O190  1  0.82531527  0.56607156  0.56967190  1
  O2-  O191  1  0.82248924  0.57051028  0.91050787  1
  O2-  O192  1  0.04634597  0.07616498  0.26506764  1
  O2-  O193  1  0.04500876  0.08459217  0.60894273  1
  O2-  O194  1  0.03999587  0.08712517  0.93446308  1
  O2-  O195  1  0.03924433  0.58377959  0.26135625  1
  O2-  O196  1  0.03935162  0.58004617  0.60201643  1
  O2-  O197  1  0.04640903  0.58200369  0.93798252  1
  O2-  O198  1  0.53658731  0.08343329  0.26606256  1
  O2-  O199  1  0.54564115  0.08515591  0.60446795  1
  O2-  O200  1  0.54136299  0.08245876  0.92720239  1
  O2-  O201  1  0.55173165  0.58630041  0.26847464  1
  O2-  O202  1  0.53923412  0.58803426  0.59389419  1
  O2-  O203  1  0.54825312  0.58363533  0.94150376  1
  O2-  O204  1  0.16702874  0.20629346  0.26355035  1
  O2-  O205  1  0.16235875  0.20450585  0.60753594  1
  O2-  O206  1  0.16247973  0.20241992  0.93481754  1
  O2-  O207  1  0.16520439  0.71060811  0.26183002  1
  O2-  O208  1  0.16536837  0.71148838  0.59848699  1
  O2-  O209  1  0.16333161  0.70440356  0.93706150  1
  O2-  O210  1  0.66970339  0.20240136  0.26560501  1
  O2-  O211  1  0.66878998  0.20305540  0.60721988  1
  O2-  O212  1  0.67367347  0.20378431  0.93134184  1
  O2-  O213  1  0.67035258  0.70420222  0.27125065  1
  O2-  O214  1  0.67062728  0.70913262  0.60091861  1
  O2-  O215  1  0.66528867  0.70505148  0.93728198  1
  O2-  O216  1  0.08335505  0.45339275  0.06525988  1
  O2-  O217  1  0.08747730  0.46309796  0.39873229  1
  O2-  O218  1  0.08560109  0.45923758  0.73843084  1
  O2-  O219  1  0.08659889  0.96038714  0.06292019  1
  O2-  O220  1  0.08662328  0.94976473  0.39400018  1
  O2-  O221  1  0.08777442  0.96088295  0.73815225  1
  O2-  O222  1  0.58939805  0.45471409  0.06453463  1
  O2-  O223  1  0.58205702  0.45486076  0.39227167  1
  O2-  O224  1  0.57720541  0.46209821  0.73170772  1
  O2-  O225  1  0.58414564  0.95696501  0.05852366  1
  O2-  O226  1  0.57711987  0.95697973  0.40067821  1
  O2-  O227  1  0.57728462  0.95628551  0.73753690  1
  O2-  O228  1  0.19879055  0.32919219  0.06196598  1
  O2-  O229  1  0.20945850  0.33090270  0.39866235  1
  O2-  O230  1  0.20874038  0.33127128  0.73618760  1
  O2-  O231  1  0.20227291  0.83571252  0.06227317  1
  O2-  O232  1  0.21137912  0.83573211  0.39246776  1
  O2-  O233  1  0.21037173  0.83143735  0.73648940  1
  O2-  O234  1  0.71162276  0.33645526  0.06106112  1
  O2-  O235  1  0.69841996  0.33389056  0.39142802  1
  O2-  O236  1  0.70507050  0.33448709  0.73675879  1
  O2-  O237  1  0.70681985  0.83780066  0.06215922  1
  O2-  O238  1  0.70515909  0.83247464  0.40165918  1
  O2-  O239  1  0.70476246  0.83157139  0.73879376  1
  O2-  O240  1  0.44979852  0.42522194  0.26749140  1
  O2-  O241  1  0.45394011  0.41838898  0.59637473  1
  O2-  O242  1  0.45630633  0.42275140  0.93419251  1
  O2-  O243  1  0.45810896  0.91593976  0.26483666  1
  O2-  O244  1  0.44622468  0.92090250  0.60939038  1
  O2-  O245  1  0.45541137  0.91506321  0.92862645  1
  O2-  O246  1  0.96439711  0.41547701  0.26242524  1
  O2-  O247  1  0.95924188  0.41154149  0.60889902  1
  O2-  O248  1  0.95790649  0.41375326  0.93469804  1
  O2-  O249  1  0.95414379  0.91341468  0.27081301  1
  O2-  O250  1  0.96122035  0.91666243  0.60480315  1
  O2-  O251  1  0.96165341  0.91592811  0.93054743  1
  O2-  O252  1  0.33173664  0.29059311  0.26294174  1
  O2-  O253  1  0.33198442  0.28504854  0.59983110  1
  O2-  O254  1  0.32966676  0.29213671  0.93310612  1
  O2-  O255  1  0.33591319  0.78823084  0.26263091  1
  O2-  O256  1  0.33511359  0.79443690  0.60400318  1
  O2-  O257  1  0.32972710  0.78845024  0.93323875  1
  O2-  O258  1  0.83037105  0.29902469  0.26446939  1
  O2-  O259  1  0.83604464  0.29487319  0.60936093  1
  O2-  O260  1  0.83932701  0.29328940  0.93401731  1
  O2-  O261  1  0.83368385  0.79485240  0.27399926  1
  O2-  O262  1  0.83266259  0.80583587  0.60687005  1
  O2-  O263  1  0.83221747  0.79123383  0.93126721  1
  O2-  O264  1  0.41359732  0.04169473  0.05952746  1
  O2-  O265  1  0.40861976  0.03961908  0.39635932  1
  O2-  O266  1  0.41632121  0.05466235  0.73004800  1
  O2-  O267  1  0.41821610  0.54494791  0.07054850  1
  O2-  O268  1  0.42044869  0.55768020  0.39338190  1
  O2-  O269  1  0.41533265  0.54807233  0.72562985  1
  O2-  O270  1  0.91375432  0.04006154  0.06338144  1
  O2-  O271  1  0.92065214  0.04311297  0.40045964  1
  O2-  O272  1  0.91935859  0.04286247  0.73907374  1
  O2-  O273  1  0.91421378  0.54275840  0.06164568  1
  O2-  O274  1  0.91841658  0.53637814  0.39795666  1
  O2-  O275  1  0.91727246  0.53773052  0.74049023  1
  O2-  O276  1  0.29007125  0.16091721  0.06270110  1
  O2-  O277  1  0.29195825  0.16174467  0.39410965  1
  O2-  O278  1  0.28800014  0.16244199  0.73471938  1
  O2-  O279  1  0.28651833  0.66554626  0.07004456  1
  O2-  O280  1  0.29202880  0.66735276  0.39734394  1
  O2-  O281  1  0.29325998  0.66436892  0.72875281  1
  O2-  O282  1  0.79924761  0.16539641  0.06167083  1
  O2-  O283  1  0.79803869  0.17360108  0.39749135  1
  O2-  O284  1  0.79503332  0.17002424  0.73960580  1
  O2-  O285  1  0.79367903  0.66357026  0.06217199  1
  O2-  O286  1  0.79547424  0.66520293  0.40284309  1
  O2-  O287  1  0.79922319  0.67212556  0.73303324  1
