# generated using pymatgen
data_Ca2Al2SiO7
_symmetry_space_group_name_H-M   'P 1'
_cell_length_a   15.46120108
_cell_length_b   15.46181185
_cell_length_c   15.28561220
_cell_angle_alpha   89.99791591
_cell_angle_beta   89.98620993
_cell_angle_gamma   90.00633965
_symmetry_Int_Tables_number   1
_chemical_formula_structural   Ca2Al2SiO7
_chemical_formula_sum   'Ca48 Al48 Si24 O168'
_cell_volume   3654.15053356
_cell_formula_units_Z   24
loop_
 _symmetry_equiv_pos_site_id
 _symmetry_equiv_pos_as_xyz
  1  'x, y, z'
loop_
 _atom_type_symbol
 _atom_type_oxidation_number
  Ca2+  2.0
  Al0+  0.0
  Si0+  0.0
  O2-  -2.0
loop_
 _atom_site_type_symbol
 _atom_site_label
 _atom_site_symmetry_multiplicity
 _atom_site_fract_x
 _atom_site_fract_y
 _atom_site_fract_z
 _atom_site_occupancy
  Ca2+  Ca0  1  0.17671582  0.07138254  0.17144894  1
  Ca2+  Ca1  1  0.17556865  0.07281792  0.50619019  1
  Ca2+  Ca2  1  0.17900744  0.07458602  0.84123521  1
  Ca2+  Ca3  1  0.17207951  0.57862554  0.16728574  1
  Ca2+  Ca4  1  0.17753050  0.58620638  0.50729230  1
  Ca2+  Ca5  1  0.16932942  0.58180259  0.83333095  1
  Ca2+  Ca6  1  0.67012392  0.08833384  0.16287408  1
  Ca2+  Ca7  1  0.66611441  0.07843891  0.50949090  1
  Ca2+  Ca8  1  0.66258345  0.08105772  0.83756770  1
  Ca2+  Ca9  1  0.66994903  0.59341227  0.16764598  1
  Ca2+  Ca10  1  0.67156560  0.58618299  0.50656201  1
  Ca2+  Ca11  1  0.67719949  0.58851535  0.84020064  1
  Ca2+  Ca12  1  0.07482439  0.33677578  0.15797845  1
  Ca2+  Ca13  1  0.07650004  0.33239671  0.49459095  1
  Ca2+  Ca14  1  0.08140118  0.33796533  0.83332407  1
  Ca2+  Ca15  1  0.08430008  0.83684985  0.15923022  1
  Ca2+  Ca16  1  0.09410714  0.83049088  0.50187040  1
  Ca2+  Ca17  1  0.08099414  0.83686776  0.82795462  1
  Ca2+  Ca18  1  0.57835890  0.32583148  0.15821795  1
  Ca2+  Ca19  1  0.57722116  0.32913493  0.50353327  1
  Ca2+  Ca20  1  0.57764249  0.31952491  0.82792081  1
  Ca2+  Ca21  1  0.57519484  0.82281047  0.15679556  1
  Ca2+  Ca22  1  0.57604017  0.83216379  0.50031305  1
  Ca2+  Ca23  1  0.57082364  0.83566031  0.83034130  1
  Ca2+  Ca24  1  0.32718263  0.41968658  0.16997733  1
  Ca2+  Ca25  1  0.34113085  0.42827880  0.50672782  1
  Ca2+  Ca26  1  0.33383653  0.42060449  0.83618230  1
  Ca2+  Ca27  1  0.33071406  0.92006442  0.16743788  1
  Ca2+  Ca28  1  0.32824550  0.92286791  0.50946285  1
  Ca2+  Ca29  1  0.32963252  0.91742015  0.83795013  1
  Ca2+  Ca30  1  0.83618930  0.41895916  0.16585322  1
  Ca2+  Ca31  1  0.83198589  0.42055602  0.50629895  1
  Ca2+  Ca32  1  0.83643042  0.42834132  0.84107484  1
  Ca2+  Ca33  1  0.83854035  0.92237812  0.16386635  1
  Ca2+  Ca34  1  0.82161614  0.91475640  0.50806991  1
  Ca2+  Ca35  1  0.82547330  0.91777874  0.84160532  1
  Ca2+  Ca36  1  0.41880041  0.15824503  0.15904395  1
  Ca2+  Ca37  1  0.41461074  0.16248739  0.50295680  1
  Ca2+  Ca38  1  0.41997836  0.16361292  0.82482025  1
  Ca2+  Ca39  1  0.42539827  0.66714647  0.15945316  1
  Ca2+  Ca40  1  0.41256854  0.67142596  0.49499926  1
  Ca2+  Ca41  1  0.41299771  0.67795719  0.82740080  1
  Ca2+  Ca42  1  0.91546559  0.17721453  0.15552662  1
  Ca2+  Ca43  1  0.91931476  0.17282524  0.49239631  1
  Ca2+  Ca44  1  0.91360254  0.16999253  0.83359453  1
  Ca2+  Ca45  1  0.91898070  0.67528269  0.15491725  1
  Ca2+  Ca46  1  0.92344880  0.66394046  0.50187715  1
  Ca2+  Ca47  1  0.92048467  0.66685808  0.83016251  1
  Al0+  Al48  1  -0.00081049  0.00174010  0.00265668  1
  Al0+  Al49  1  0.00011364  0.00070421  0.33819916  1
  Al0+  Al50  1  -0.00208412  0.00126195  0.66604295  1
  Al0+  Al51  1  -0.00130207  0.50083725  0.00492116  1
  Al0+  Al52  1  -0.00092047  0.50170452  0.32888905  1
  Al0+  Al53  1  -0.00017751  0.50241091  0.66447952  1
  Al0+  Al54  1  0.50099862  -0.00254548  -0.00246508  1
  Al0+  Al55  1  0.50115898  -0.00077533  0.33462053  1
  Al0+  Al56  1  0.50126549  -0.00167753  0.66417910  1
  Al0+  Al57  1  0.50316500  0.49770708  -0.00433239  1
  Al0+  Al58  1  0.50276483  0.49807620  0.33237617  1
  Al0+  Al59  1  0.50187880  0.49850494  0.66996547  1
  Al0+  Al60  1  0.24840877  0.25057789  0.00927935  1
  Al0+  Al61  1  0.24900894  0.24903173  0.33620327  1
  Al0+  Al62  1  0.24805426  0.25075757  0.66340369  1
  Al0+  Al63  1  0.25033943  0.74772780  0.00112391  1
  Al0+  Al64  1  0.24955979  0.74905314  0.33626586  1
  Al0+  Al65  1  0.24874897  0.74833295  0.66587471  1
  Al0+  Al66  1  0.74916042  0.25169274  -0.00543386  1
  Al0+  Al67  1  0.74925053  0.25224952  0.33056914  1
  Al0+  Al68  1  0.74884233  0.25122043  0.66153076  1
  Al0+  Al69  1  0.75233252  0.75032224  -0.00155626  1
  Al0+  Al70  1  0.75135912  0.75022293  0.33081658  1
  Al0+  Al71  1  0.75063665  0.75147769  0.67521163  1
  Al0+  Al72  1  0.17817778  0.92668240  0.01466236  1
  Al0+  Al73  1  0.93173068  0.82417017  0.98652574  1
  Al0+  Al74  1  0.56910422  0.17926434  0.98712720  1
  Al0+  Al75  1  0.17741670  0.92820069  0.35078069  1
  Al0+  Al76  1  0.92930831  0.32094696  0.31789942  1
  Al0+  Al77  1  0.32285655  0.57017329  0.68051733  1
  Al0+  Al78  1  0.42758977  0.81850120  0.98488050  1
  Al0+  Al79  1  0.42630225  0.32217363  0.65167746  1
  Al0+  Al80  1  0.42849365  0.81866605  0.65125286  1
  Al0+  Al81  1  0.81938311  0.57180228  0.01627099  1
  Al0+  Al82  1  0.57030506  0.17783149  0.64969000  1
  Al0+  Al83  1  0.81921316  0.07307142  0.01227418  1
  Al0+  Al84  1  0.82101526  0.56940281  0.68009319  1
  Al0+  Al85  1  0.17778074  0.92789504  0.68319193  1
  Al0+  Al86  1  0.67915746  0.92989184  0.68116841  1
  Al0+  Al87  1  0.93005693  0.32195334  0.98399697  1
  Al0+  Al88  1  0.06920696  0.68003802  0.65279687  1
  Al0+  Al89  1  0.17903992  0.42991485  0.01297731  1
  Al0+  Al90  1  0.32041408  0.07185820  0.68228214  1
  Al0+  Al91  1  0.32399901  0.07125461  0.35085047  1
  Al0+  Al92  1  0.57197048  0.67838187  0.32113055  1
  Al0+  Al93  1  0.32220589  0.56720080  0.34524383  1
  Al0+  Al94  1  0.57270307  0.67639017  0.98291377  1
  Al0+  Al95  1  0.32371818  0.07004113  0.01463931  1
  Si0+  Si96  1  0.42898873  0.32137121  0.31854458  1
  Si0+  Si97  1  0.57435639  0.67837624  0.65208433  1
  Si0+  Si98  1  0.07149903  0.17721495  0.31556784  1
  Si0+  Si99  1  0.07146094  0.67746479  0.98459413  1
  Si0+  Si100  1  0.67883733  0.42789466  0.01706994  1
  Si0+  Si101  1  0.17548309  0.42914700  0.35022840  1
  Si0+  Si102  1  0.42779151  0.82115951  0.31694538  1
  Si0+  Si103  1  0.92625407  0.82337517  0.64986891  1
  Si0+  Si104  1  0.68041675  0.42749168  0.34929288  1
  Si0+  Si105  1  0.57040067  0.17823577  0.31782249  1
  Si0+  Si106  1  0.82087696  0.57244329  0.34855199  1
  Si0+  Si107  1  0.32514761  0.57062138  0.01564149  1
  Si0+  Si108  1  0.07042285  0.17746352  0.65081090  1
  Si0+  Si109  1  0.81913138  0.07373716  0.34748577  1
  Si0+  Si110  1  0.07221778  0.17947162  0.98376806  1
  Si0+  Si111  1  0.07202157  0.68010245  0.31701388  1
  Si0+  Si112  1  0.17641350  0.42851545  0.68031054  1
  Si0+  Si113  1  0.92825777  0.82131391  0.31960719  1
  Si0+  Si114  1  0.82161349  0.07518324  0.68140710  1
  Si0+  Si115  1  0.67862044  0.42611120  0.68501341  1
  Si0+  Si116  1  0.68168397  0.92807420  0.34649808  1
  Si0+  Si117  1  0.67879114  0.92781434  0.01872432  1
  Si0+  Si118  1  0.93030501  0.32186597  0.65165403  1
  Si0+  Si119  1  0.42422017  0.32157232  0.98550133  1
  O2-  O120  1  0.25223380  -0.00303502  0.06395344  1
  O2-  O121  1  0.25168199  -0.00127904  0.39877226  1
  O2-  O122  1  0.25025196  -0.00114293  0.73265813  1
  O2-  O123  1  0.25697806  0.50117890  0.05982777  1
  O2-  O124  1  0.24734816  0.49333461  0.39477024  1
  O2-  O125  1  0.25050860  0.49133431  0.72388872  1
  O2-  O126  1  0.74680140  -0.00213647  0.06285314  1
  O2-  O127  1  0.75021492  0.00147013  0.39007886  1
  O2-  O128  1  0.75315119  0.00687003  0.72477283  1
  O2-  O129  1  0.74180479  0.50054856  0.06423077  1
  O2-  O130  1  0.75049768  0.50062439  0.39046579  1
  O2-  O131  1  0.74533397  0.49680196  0.72792370  1
  O2-  O132  1  0.00473211  0.24759698  0.27051585  1
  O2-  O133  1  -0.00171111  0.24869010  0.60872389  1
  O2-  O134  1  0.00473361  0.24817506  0.93639834  1
  O2-  O135  1  0.00330884  0.75455406  0.27748375  1
  O2-  O136  1  -0.00290360  0.75755645  0.60453924  1
  O2-  O137  1  0.00902233  0.75198124  0.94096394  1
  O2-  O138  1  0.49402477  0.24429421  0.27682783  1
  O2-  O139  1  0.49586040  0.24798410  0.59989420  1
  O2-  O140  1  0.48866430  0.24868586  0.94283477  1
  O2-  O141  1  0.49486463  0.74996305  0.27410832  1
  O2-  O142  1  0.50203461  0.74119606  0.60517792  1
  O2-  O143  1  0.49791131  0.74496902  0.93386311  1
  O2-  O144  1  0.06905743  0.18180640  0.08951437  1
  O2-  O145  1  0.06705138  0.17890017  0.42155579  1
  O2-  O146  1  0.06937124  0.17775556  0.75549713  1
  O2-  O147  1  0.06905434  0.67625412  0.09091921  1
  O2-  O148  1  0.06990320  0.67619433  0.42196387  1
  O2-  O149  1  0.06538583  0.67515963  0.76532355  1
  O2-  O150  1  0.57043940  0.18300426  0.10125269  1
  O2-  O151  1  0.57514204  0.18005190  0.42226775  1
  O2-  O152  1  0.57406353  0.18137137  0.76279006  1
  O2-  O153  1  0.57045538  0.67879907  0.09740942  1
  O2-  O154  1  0.57587460  0.68105243  0.43403763  1
  O2-  O155  1  0.57537140  0.68197319  0.75700951  1
  O2-  O156  1  0.17451936  0.43187829  0.24464598  1
  O2-  O157  1  0.17170758  0.43182548  0.57462210  1
  O2-  O158  1  0.17876773  0.43185889  0.89988496  1
  O2-  O159  1  0.17505973  0.92945169  0.23753482  1
  O2-  O160  1  0.17884691  0.93070123  0.56952996  1
  O2-  O161  1  0.17672648  0.92925898  0.90167886  1
  O2-  O162  1  0.68078605  0.42347380  0.24468826  1
  O2-  O163  1  0.68140354  0.42513135  0.57863042  1
  O2-  O164  1  0.68255579  0.42685393  0.91192709  1
  O2-  O165  1  0.68372240  0.92806879  0.24185216  1
  O2-  O166  1  0.68256697  0.92838263  0.56675315  1
  O2-  O167  1  0.67969273  0.92882994  0.91329246  1
  O2-  O168  1  0.42744484  0.32458215  0.09168718  1
  O2-  O169  1  0.43352818  0.32553014  0.42303466  1
  O2-  O170  1  0.42818554  0.32227000  0.76519979  1
  O2-  O171  1  0.42940484  0.81723955  0.09929914  1
  O2-  O172  1  0.43002983  0.82110639  0.42254401  1
  O2-  O173  1  0.42828200  0.81857377  0.76371715  1
  O2-  O174  1  0.93083420  0.32086742  0.09731101  1
  O2-  O175  1  0.92923221  0.31975038  0.43176464  1
  O2-  O176  1  0.93143894  0.32297399  0.75630520  1
  O2-  O177  1  0.93168521  0.82173556  0.10073502  1
  O2-  O178  1  0.92209313  0.81747543  0.42435818  1
  O2-  O179  1  0.92596329  0.82313531  0.75503439  1
  O2-  O180  1  0.32521984  0.06909844  0.23744600  1
  O2-  O181  1  0.31701985  0.07064081  0.56861362  1
  O2-  O182  1  0.32218562  0.07268865  0.90169939  1
  O2-  O183  1  0.32066039  0.56428958  0.23207311  1
  O2-  O184  1  0.32128913  0.56981962  0.56690294  1
  O2-  O185  1  0.32388643  0.57013814  0.91029196  1
  O2-  O186  1  0.81818189  0.07485671  0.24258519  1
  O2-  O187  1  0.82154307  0.07514721  0.57492324  1
  O2-  O188  1  0.81685981  0.07281732  0.89945342  1
  O2-  O189  1  0.82013597  0.57375290  0.24386712  1
  O2-  O190  1  0.82056072  0.56680974  0.56588797  1
  O2-  O191  1  0.82196920  0.56884237  0.90340394  1
  O2-  O192  1  0.04326967  0.08362291  0.27125838  1
  O2-  O193  1  0.04045167  0.08728715  0.60038096  1
  O2-  O194  1  0.04478564  0.08688278  0.93808624  1
  O2-  O195  1  0.04099487  0.58988655  0.26788690  1
  O2-  O196  1  0.03397139  0.58560680  0.59472571  1
  O2-  O197  1  0.03768890  0.58692581  0.93844036  1
  O2-  O198  1  0.54870021  0.08445083  0.27117872  1
  O2-  O199  1  0.54615900  0.07923433  0.59578918  1
  O2-  O200  1  0.54644437  0.08079389  0.93507040  1
  O2-  O201  1  0.54606456  0.58012695  0.26725615  1
  O2-  O202  1  0.55646991  0.58133297  0.61012793  1
  O2-  O203  1  0.55276932  0.57525545  0.93206126  1
  O2-  O204  1  0.16669185  0.20009922  0.27182799  1
  O2-  O205  1  0.16007077  0.20638057  0.60009222  1
  O2-  O206  1  0.16630907  0.20677775  0.94009080  1
  O2-  O207  1  0.16444328  0.70444294  0.26926185  1
  O2-  O208  1  0.16529153  0.70796397  0.59651408  1
  O2-  O209  1  0.16766738  0.69367359  0.94155094  1
  O2-  O210  1  0.66017818  0.21211384  0.26928708  1
  O2-  O211  1  0.66836914  0.20992669  0.59404640  1
  O2-  O212  1  0.66248763  0.21517156  0.93103565  1
  O2-  O213  1  0.66767746  0.71237992  0.26590797  1
  O2-  O214  1  0.66747313  0.70886992  0.60615190  1
  O2-  O215  1  0.67134470  0.70650859  0.93335222  1
  O2-  O216  1  0.08512416  0.46474144  0.07027819  1
  O2-  O217  1  0.08216775  0.45856523  0.39571197  1
  O2-  O218  1  0.08574340  0.46075359  0.72849192  1
  O2-  O219  1  0.08055998  0.95782238  0.06838203  1
  O2-  O220  1  0.07846511  0.95649961  0.40511506  1
  O2-  O221  1  0.07684361  0.95622777  0.73105559  1
  O2-  O222  1  0.58282224  0.44695723  0.06216559  1
  O2-  O223  1  0.58921410  0.45461801  0.39755784  1
  O2-  O224  1  0.58484923  0.44704984  0.73114619  1
  O2-  O225  1  0.58572828  0.95298143  0.06531174  1
  O2-  O226  1  0.58945707  0.95347518  0.39368326  1
  O2-  O227  1  0.58330770  0.95975348  0.73478238  1
  O2-  O228  1  0.20434146  0.33452310  0.07273302  1
  O2-  O229  1  0.19458035  0.33309245  0.39334182  1
  O2-  O230  1  0.19403503  0.33289199  0.72432375  1
  O2-  O231  1  0.20328212  0.82653447  0.06715000  1
  O2-  O232  1  0.20324883  0.82822795  0.40112910  1
  O2-  O233  1  0.20235317  0.82792760  0.73238509  1
  O2-  O234  1  0.70989242  0.33655808  0.06480418  1
  O2-  O235  1  0.71143080  0.33738643  0.39923500  1
  O2-  O236  1  0.70777503  0.33314828  0.72992075  1
  O2-  O237  1  0.70760384  0.83525271  0.06469819  1
  O2-  O238  1  0.71416682  0.83821642  0.39565631  1
  O2-  O239  1  0.71193124  0.83643094  0.73861651  1
  O2-  O240  1  0.46344189  0.40920608  0.26747966  1
  O2-  O241  1  0.46172636  0.41968966  0.59805032  1
  O2-  O242  1  0.45355219  0.41289214  0.93706515  1
  O2-  O243  1  0.45795188  0.91370052  0.27104253  1
  O2-  O244  1  0.46364327  0.91314754  0.59597931  1
  O2-  O245  1  0.45919244  0.91546656  0.93191248  1
  O2-  O246  1  0.95783464  0.41869834  0.26465117  1
  O2-  O247  1  0.96093319  0.41171692  0.60176587  1
  O2-  O248  1  0.96303190  0.41902721  0.93279899  1
  O2-  O249  1  0.95121327  0.91630850  0.27597779  1
  O2-  O250  1  0.94571028  0.91874151  0.60359017  1
  O2-  O251  1  0.95601973  0.92219770  0.93268008  1
  O2-  O252  1  0.33332240  0.30104666  0.27509460  1
  O2-  O253  1  0.32628609  0.30064938  0.59767207  1
  O2-  O254  1  0.32811844  0.30213352  0.94328159  1
  O2-  O255  1  0.33321595  0.79699310  0.27298517  1
  O2-  O256  1  0.33242221  0.78736551  0.59694111  1
  O2-  O257  1  0.32867624  0.79072989  0.93245046  1
  O2-  O258  1  0.83259577  0.28956976  0.26439057  1
  O2-  O259  1  0.83796897  0.29716031  0.60301967  1
  O2-  O260  1  0.83453833  0.29118983  0.92941212  1
  O2-  O261  1  0.83962201  0.78975815  0.26822048  1
  O2-  O262  1  0.83360438  0.79240603  0.60363576  1
  O2-  O263  1  0.83606190  0.79136122  0.93333721  1
  O2-  O264  1  0.42239628  0.04053979  0.06745512  1
  O2-  O265  1  0.42383720  0.04408796  0.40227841  1
  O2-  O266  1  0.42122751  0.04617035  0.72878024  1
  O2-  O267  1  0.41949014  0.54415694  0.06026791  1
  O2-  O268  1  0.41912947  0.53630214  0.39886441  1
  O2-  O269  1  0.42006482  0.54304687  0.73473655  1
  O2-  O270  1  0.91521330  0.04460879  0.06887542  1
  O2-  O271  1  0.91136336  0.04908561  0.39537149  1
  O2-  O272  1  0.91527294  0.05188858  0.72706169  1
  O2-  O273  1  0.91391441  0.53797820  0.07240952  1
  O2-  O274  1  0.91338339  0.54390927  0.39451507  1
  O2-  O275  1  0.91636208  0.53518479  0.73355776  1
  O2-  O276  1  0.29606888  0.16821810  0.06973197  1
  O2-  O277  1  0.29645944  0.17137330  0.40167797  1
  O2-  O278  1  0.29113288  0.17186114  0.73156973  1
  O2-  O279  1  0.29845876  0.66262662  0.06385359  1
  O2-  O280  1  0.29154202  0.66387014  0.39827010  1
  O2-  O281  1  0.28592843  0.66371726  0.73446544  1
  O2-  O282  1  0.78571360  0.16940377  0.06648260  1
  O2-  O283  1  0.78926760  0.16497712  0.39543335  1
  O2-  O284  1  0.79729689  0.16986393  0.72535307  1
  O2-  O285  1  0.79162617  0.66954644  0.07048197  1
  O2-  O286  1  0.79250478  0.66383232  0.39661926  1
  O2-  O287  1  0.79453894  0.66599137  0.73462768  1
