# generated using pymatgen
data_Ca2Al2SiO7
_symmetry_space_group_name_H-M   'P 1'
_cell_length_a   15.45834994
_cell_length_b   15.45909128
_cell_length_c   15.28434124
_cell_angle_alpha   89.99535601
_cell_angle_beta   89.99155265
_cell_angle_gamma   89.99418217
_symmetry_Int_Tables_number   1
_chemical_formula_structural   Ca2Al2SiO7
_chemical_formula_sum   'Ca48 Al48 Si24 O168'
_cell_volume   3652.53017620
_cell_formula_units_Z   24
loop_
 _symmetry_equiv_pos_site_id
 _symmetry_equiv_pos_as_xyz
  1  'x, y, z'
loop_
 _atom_type_symbol
 _atom_type_oxidation_number
  Ca2+  2.0
  Al0+  0.0
  Si0+  0.0
  O2-  -2.0
loop_
 _atom_site_type_symbol
 _atom_site_label
 _atom_site_symmetry_multiplicity
 _atom_site_fract_x
 _atom_site_fract_y
 _atom_site_fract_z
 _atom_site_occupancy
  Ca2+  Ca0  1  0.17338528  0.07352753  0.17161066  1
  Ca2+  Ca1  1  0.17790226  0.07840862  0.51196765  1
  Ca2+  Ca2  1  0.15995000  0.07057978  0.83333820  1
  Ca2+  Ca3  1  0.16827359  0.58802537  0.16623150  1
  Ca2+  Ca4  1  0.16802932  0.58909654  0.50595858  1
  Ca2+  Ca5  1  0.17569866  0.59603609  0.83575843  1
  Ca2+  Ca6  1  0.66816436  0.08063002  0.17261988  1
  Ca2+  Ca7  1  0.66570351  0.07164753  0.50569834  1
  Ca2+  Ca8  1  0.67666867  0.07624625  0.83171332  1
  Ca2+  Ca9  1  0.67241779  0.58504789  0.17677932  1
  Ca2+  Ca10  1  0.67199397  0.59096434  0.49999176  1
  Ca2+  Ca11  1  0.66948469  0.58144662  0.83680336  1
  Ca2+  Ca12  1  0.07688266  0.32937271  0.15935621  1
  Ca2+  Ca13  1  0.08185701  0.32650305  0.50347529  1
  Ca2+  Ca14  1  0.07160546  0.32528775  0.82423507  1
  Ca2+  Ca15  1  0.09063176  0.82217726  0.16104455  1
  Ca2+  Ca16  1  0.08415706  0.82850965  0.50275844  1
  Ca2+  Ca17  1  0.08741288  0.82943322  0.82510151  1
  Ca2+  Ca18  1  0.57897069  0.32601659  0.16204368  1
  Ca2+  Ca19  1  0.58101477  0.32254328  0.49528540  1
  Ca2+  Ca20  1  0.57738320  0.33172618  0.83205794  1
  Ca2+  Ca21  1  0.57402064  0.83635009  0.16919502  1
  Ca2+  Ca22  1  0.57544409  0.84028882  0.49295583  1
  Ca2+  Ca23  1  0.57126324  0.84089370  0.82829104  1
  Ca2+  Ca24  1  0.33876229  0.42283989  0.16661621  1
  Ca2+  Ca25  1  0.33071073  0.42737776  0.50892610  1
  Ca2+  Ca26  1  0.33382139  0.42960270  0.84075826  1
  Ca2+  Ca27  1  0.33284615  0.91260444  0.16934862  1
  Ca2+  Ca28  1  0.33581506  0.92221317  0.50842611  1
  Ca2+  Ca29  1  0.32334204  0.91144542  0.83367523  1
  Ca2+  Ca30  1  0.83600861  0.42198589  0.17152851  1
  Ca2+  Ca31  1  0.83585829  0.42146141  0.50248656  1
  Ca2+  Ca32  1  0.83703787  0.41127309  0.83697515  1
  Ca2+  Ca33  1  0.82614397  0.92186991  0.17292896  1
  Ca2+  Ca34  1  0.82039504  0.91472944  0.51162467  1
  Ca2+  Ca35  1  0.84209683  0.92635772  0.83421720  1
  Ca2+  Ca36  1  0.42069691  0.16556547  0.16572566  1
  Ca2+  Ca37  1  0.41912936  0.15800162  0.49159823  1
  Ca2+  Ca38  1  0.41021153  0.17132914  0.82810227  1
  Ca2+  Ca39  1  0.41676288  0.67789347  0.16047570  1
  Ca2+  Ca40  1  0.41919670  0.68011345  0.49653328  1
  Ca2+  Ca41  1  0.40970252  0.67582923  0.82836664  1
  Ca2+  Ca42  1  0.91291749  0.17211351  0.15665408  1
  Ca2+  Ca43  1  0.91787804  0.16312377  0.50480142  1
  Ca2+  Ca44  1  0.91475840  0.17012479  0.82337161  1
  Ca2+  Ca45  1  0.92606154  0.66418081  0.16389622  1
  Ca2+  Ca46  1  0.92459732  0.67092132  0.49501071  1
  Ca2+  Ca47  1  0.93210211  0.67420670  0.82312827  1
  Al0+  Al48  1  0.00040353  -0.00139052  0.01406883  1
  Al0+  Al49  1  0.00086636  0.00017408  0.33291133  1
  Al0+  Al50  1  0.00010852  0.00017483  0.66376254  1
  Al0+  Al51  1  0.00186740  0.49906694  -0.00870585  1
  Al0+  Al52  1  0.00002487  0.50001644  0.33387065  1
  Al0+  Al53  1  -0.00026776  0.49872690  0.66021441  1
  Al0+  Al54  1  0.50100350  -0.00032722  -0.00527542  1
  Al0+  Al55  1  0.50044869  0.00189210  0.32959208  1
  Al0+  Al56  1  0.50077481  0.00211289  0.67268332  1
  Al0+  Al57  1  0.50108858  0.49910652  0.00224836  1
  Al0+  Al58  1  0.50055160  0.49976410  0.33329982  1
  Al0+  Al59  1  0.50042797  0.49988139  0.67018855  1
  Al0+  Al60  1  0.24985670  0.24993009  -0.00369307  1
  Al0+  Al61  1  0.24820070  0.25080629  0.33583046  1
  Al0+  Al62  1  0.24834024  0.25372218  0.66594178  1
  Al0+  Al63  1  0.25192889  0.74960289  0.00216347  1
  Al0+  Al64  1  0.24842107  0.74915001  0.32681326  1
  Al0+  Al65  1  0.25310909  0.75102600  0.66383337  1
  Al0+  Al66  1  0.74920150  0.24989165  0.00036268  1
  Al0+  Al67  1  0.74958766  0.25134337  0.32958652  1
  Al0+  Al68  1  0.74727222  0.25089521  0.66500236  1
  Al0+  Al69  1  0.74998999  0.75014152  0.00139430  1
  Al0+  Al70  1  0.75028815  0.75047252  0.33790077  1
  Al0+  Al71  1  0.74884639  0.74722999  0.67215424  1
  Al0+  Al72  1  0.07262313  0.68071700  0.65065474  1
  Al0+  Al73  1  0.07017421  0.68052564  0.98547335  1
  Al0+  Al74  1  0.92929947  0.31898446  0.98700390  1
  Al0+  Al75  1  0.32018118  0.57009248  0.67915690  1
  Al0+  Al76  1  0.32254891  0.07461674  0.68236999  1
  Al0+  Al77  1  0.18079826  0.92862729  0.01579816  1
  Al0+  Al78  1  0.81999271  0.07035311  0.67920327  1
  Al0+  Al79  1  0.06871801  0.67887042  0.31730288  1
  Al0+  Al80  1  0.68046229  0.93140148  0.34589242  1
  Al0+  Al81  1  0.67764019  0.92496023  0.68382428  1
  Al0+  Al82  1  0.43236065  0.82177297  0.65362738  1
  Al0+  Al83  1  0.42960060  0.82138586  0.31789716  1
  Al0+  Al84  1  0.31880149  0.06993157  0.34470432  1
  Al0+  Al85  1  0.92628370  0.82228815  0.65261692  1
  Al0+  Al86  1  0.57322079  0.67780836  0.31946336  1
  Al0+  Al87  1  0.07209713  0.17765190  0.65110622  1
  Al0+  Al88  1  0.42882990  0.32127642  0.98622301  1
  Al0+  Al89  1  0.18032297  0.92955600  0.67948769  1
  Al0+  Al90  1  0.92535157  0.32011624  0.64842767  1
  Al0+  Al91  1  0.81959625  0.07075264  0.01484470  1
  Al0+  Al92  1  0.32088646  0.56981701  0.01580424  1
  Al0+  Al93  1  0.57051074  0.18004356  0.31991832  1
  Al0+  Al94  1  0.43067560  0.82015851  0.98376700  1
  Al0+  Al95  1  0.82112578  0.56999757  0.34704374  1
  Si0+  Si96  1  0.82351125  0.07525932  0.34994229  1
  Si0+  Si97  1  0.17543938  0.42889176  0.68444707  1
  Si0+  Si98  1  0.17846964  0.42940937  0.34837108  1
  Si0+  Si99  1  0.57198363  0.67424048  0.65208707  1
  Si0+  Si100  1  0.82306674  0.57021572  0.01293947  1
  Si0+  Si101  1  0.17740627  0.42669632  0.01553137  1
  Si0+  Si102  1  0.67715307  0.42649379  0.35044880  1
  Si0+  Si103  1  0.42535207  0.32297284  0.31814316  1
  Si0+  Si104  1  0.92685360  0.82334858  0.31640853  1
  Si0+  Si105  1  0.32145506  0.57150887  0.34777557  1
  Si0+  Si106  1  0.67940930  0.42903193  0.68239217  1
  Si0+  Si107  1  0.56806337  0.18140115  0.65250795  1
  Si0+  Si108  1  0.32317354  0.07446989  0.01618581  1
  Si0+  Si109  1  0.17744708  0.92534040  0.35081442  1
  Si0+  Si110  1  0.42834942  0.32399634  0.65219324  1
  Si0+  Si111  1  0.57211560  0.17861327  0.98070998  1
  Si0+  Si112  1  0.57439986  0.67674728  0.98366020  1
  Si0+  Si113  1  0.92625728  0.82299004  0.98666254  1
  Si0+  Si114  1  0.67964453  0.42949250  0.01630627  1
  Si0+  Si115  1  0.82287301  0.56970890  0.68314744  1
  Si0+  Si116  1  0.07156051  0.17457432  0.98605340  1
  Si0+  Si117  1  0.07299248  0.17823222  0.31731431  1
  Si0+  Si118  1  0.93090572  0.31936461  0.31770171  1
  Si0+  Si119  1  0.67610439  0.92731737  0.01849129  1
  O2-  O120  1  0.25590922  0.00474111  0.06068186  1
  O2-  O121  1  0.24574259  -0.00499322  0.39276964  1
  O2-  O122  1  0.24930335  0.00394279  0.73173597  1
  O2-  O123  1  0.24741949  0.49279965  0.06222261  1
  O2-  O124  1  0.25107970  0.49943493  0.38946548  1
  O2-  O125  1  0.24284803  0.49878498  0.72780900  1
  O2-  O126  1  0.74586269  -0.00452376  0.06199518  1
  O2-  O127  1  0.75783947  0.00375526  0.39248924  1
  O2-  O128  1  0.75593517  -0.00787754  0.73134574  1
  O2-  O129  1  0.75076351  0.50105884  0.05706101  1
  O2-  O130  1  0.74225557  0.49872405  0.39405364  1
  O2-  O131  1  0.75185523  0.49821737  0.72536482  1
  O2-  O132  1  -0.00302584  0.24414480  0.27475876  1
  O2-  O133  1  -0.00252159  0.24756653  0.59996274  1
  O2-  O134  1  0.00161172  0.24198146  0.94204593  1
  O2-  O135  1  -0.00309256  0.75656923  0.27077443  1
  O2-  O136  1  -0.00188744  0.75052598  0.60126939  1
  O2-  O137  1  -0.00520793  0.75528231  0.94154034  1
  O2-  O138  1  0.49508237  0.25515701  0.27446589  1
  O2-  O139  1  0.49151548  0.24674525  0.60957225  1
  O2-  O140  1  0.49895960  0.24333908  0.93740803  1
  O2-  O141  1  0.49969286  0.74660570  0.26784593  1
  O2-  O142  1  0.51012607  0.74896253  0.60880692  1
  O2-  O143  1  0.50733779  0.74585362  0.93893663  1
  O2-  O144  1  0.07102609  0.17849217  0.09241569  1
  O2-  O145  1  0.07503560  0.18078895  0.42161911  1
  O2-  O146  1  0.07140378  0.18067334  0.76499205  1
  O2-  O147  1  0.06695276  0.67847204  0.09890729  1
  O2-  O148  1  0.06884147  0.67717712  0.42970499  1
  O2-  O149  1  0.07186603  0.68128460  0.76431495  1
  O2-  O150  1  0.57330537  0.18105539  0.08663412  1
  O2-  O151  1  0.57000426  0.18189853  0.43309714  1
  O2-  O152  1  0.57078985  0.18633209  0.75749273  1
  O2-  O153  1  0.57584618  0.67595426  0.08903759  1
  O2-  O154  1  0.57032816  0.67699947  0.43294506  1
  O2-  O155  1  0.56876045  0.66778089  0.75761203  1
  O2-  O156  1  0.17740656  0.42734503  0.24323085  1
  O2-  O157  1  0.17854921  0.42760239  0.57818916  1
  O2-  O158  1  0.17769918  0.42660938  0.91056002  1
  O2-  O159  1  0.17750862  0.92690243  0.24483224  1
  O2-  O160  1  0.18399488  0.92877143  0.56579934  1
  O2-  O161  1  0.17835568  0.92883934  0.90326710  1
  O2-  O162  1  0.67992562  0.42366523  0.24471376  1
  O2-  O163  1  0.67688759  0.42933064  0.57752229  1
  O2-  O164  1  0.67881760  0.42947699  0.91094274  1
  O2-  O165  1  0.68167442  0.93433018  0.23239516  1
  O2-  O166  1  0.67497919  0.92964744  0.57006544  1
  O2-  O167  1  0.67603911  0.92766770  0.91340645  1
  O2-  O168  1  0.43300886  0.32167218  0.09958025  1
  O2-  O169  1  0.42540524  0.32420859  0.42386289  1
  O2-  O170  1  0.43333252  0.32672074  0.75715931  1
  O2-  O171  1  0.43190822  0.81983517  0.09683846  1
  O2-  O172  1  0.42969841  0.82166724  0.43135714  1
  O2-  O173  1  0.43085921  0.81831787  0.76679244  1
  O2-  O174  1  0.93086337  0.32055572  0.10085394  1
  O2-  O175  1  0.93143262  0.32046273  0.42212798  1
  O2-  O176  1  0.92554815  0.31913300  0.76218897  1
  O2-  O177  1  0.92383166  0.81941490  0.09241925  1
  O2-  O178  1  0.92728742  0.82214547  0.42154548  1
  O2-  O179  1  0.92755303  0.81888189  0.76674603  1
  O2-  O180  1  0.31612941  0.07299670  0.23141040  1
  O2-  O181  1  0.32387714  0.07208586  0.56840462  1
  O2-  O182  1  0.32102829  0.07663796  0.91121688  1
  O2-  O183  1  0.32133673  0.56920797  0.24270201  1
  O2-  O184  1  0.32179494  0.56695120  0.56556625  1
  O2-  O185  1  0.32021000  0.56942576  0.90289956  1
  O2-  O186  1  0.82170280  0.07656184  0.24395092  1
  O2-  O187  1  0.81318886  0.07349367  0.56571214  1
  O2-  O188  1  0.81964866  0.07212395  0.90226125  1
  O2-  O189  1  0.82307227  0.56470775  0.23325597  1
  O2-  O190  1  0.82127522  0.56902037  0.57806373  1
  O2-  O191  1  0.82087250  0.56857693  0.90796919  1
  O2-  O192  1  0.05098164  0.08424626  0.27100583  1
  O2-  O193  1  0.04731986  0.07997304  0.59591607  1
  O2-  O194  1  0.04556440  0.07946377  0.94518367  1
  O2-  O195  1  0.03541020  0.58215066  0.26363476  1
  O2-  O196  1  0.04606912  0.58110449  0.59926799  1
  O2-  O197  1  0.04144186  0.58470319  0.92957659  1
  O2-  O198  1  0.53886938  0.08675400  0.26138139  1
  O2-  O199  1  0.54486947  0.08830790  0.60659311  1
  O2-  O200  1  0.55288011  0.08379382  0.93590526  1
  O2-  O201  1  0.55029130  0.57637760  0.26816599  1
  O2-  O202  1  0.54181613  0.58285458  0.60315954  1
  O2-  O203  1  0.54963267  0.58235477  0.93897796  1
  O2-  O204  1  0.16191577  0.21262887  0.26782569  1
  O2-  O205  1  0.16888246  0.21288199  0.59607437  1
  O2-  O206  1  0.16463452  0.19897569  0.93964291  1
  O2-  O207  1  0.16534222  0.70690078  0.26169634  1
  O2-  O208  1  0.16998774  0.71018895  0.59679846  1
  O2-  O209  1  0.16717889  0.71240920  0.93522064  1
  O2-  O210  1  0.66618717  0.21261110  0.26346229  1
  O2-  O211  1  0.65597000  0.21623645  0.60236829  1
  O2-  O212  1  0.66271739  0.21225552  0.93403099  1
  O2-  O213  1  0.67253993  0.70551281  0.26761472  1
  O2-  O214  1  0.66877369  0.69195094  0.61062646  1
  O2-  O215  1  0.66929310  0.69978449  0.93763454  1
  O2-  O216  1  0.08398504  0.45569321  0.06168834  1
  O2-  O217  1  0.08809561  0.45889942  0.39683846  1
  O2-  O218  1  0.08005249  0.45113266  0.72780085  1
  O2-  O219  1  0.08582913  0.95629174  0.07598278  1
  O2-  O220  1  0.08260187  0.95019110  0.39459911  1
  O2-  O221  1  0.08030406  0.95409312  0.73140213  1
  O2-  O222  1  0.58891611  0.45620383  0.06595329  1
  O2-  O223  1  0.58167347  0.44601844  0.39574695  1
  O2-  O224  1  0.58915019  0.45866985  0.73279937  1
  O2-  O225  1  0.58277144  0.95605736  0.06379663  1
  O2-  O226  1  0.58486560  0.96649091  0.39844605  1
  O2-  O227  1  0.58443796  0.96412405  0.73969572  1
  O2-  O228  1  0.20002469  0.33176160  0.06181078  1
  O2-  O229  1  0.20556651  0.33838507  0.39805220  1
  O2-  O230  1  0.20158204  0.33633715  0.73137822  1
  O2-  O231  1  0.21532372  0.83383170  0.07093112  1
  O2-  O232  1  0.20220088  0.83057268  0.39377138  1
  O2-  O233  1  0.21321422  0.83261981  0.73288987  1
  O2-  O234  1  0.70796715  0.33819285  0.06435509  1
  O2-  O235  1  0.70816831  0.33471683  0.39784929  1
  O2-  O236  1  0.70577756  0.33786862  0.73158662  1
  O2-  O237  1  0.70085410  0.83277500  0.06417310  1
  O2-  O238  1  0.70676824  0.83447087  0.40080291  1
  O2-  O239  1  0.69561735  0.82381465  0.73574724  1
  O2-  O240  1  0.45149482  0.41616182  0.27144579  1
  O2-  O241  1  0.46451719  0.41230745  0.60259781  1
  O2-  O242  1  0.46508735  0.41649353  0.93227050  1
  O2-  O243  1  0.46087827  0.91804953  0.26312834  1
  O2-  O244  1  0.46192228  0.92042750  0.60295617  1
  O2-  O245  1  0.45894866  0.91754093  0.92992408  1
  O2-  O246  1  0.96381853  0.40928107  0.26957820  1
  O2-  O247  1  0.95558840  0.41753833  0.59468932  1
  O2-  O248  1  0.96024750  0.41349006  0.92996167  1
  O2-  O249  1  0.94949044  0.91871201  0.27094332  1
  O2-  O250  1  0.94957183  0.92076427  0.59881037  1
  O2-  O251  1  0.95321483  0.91827002  0.94616539  1
  O2-  O252  1  0.33191466  0.29730945  0.27164917  1
  O2-  O253  1  0.33377748  0.30694177  0.60681786  1
  O2-  O254  1  0.33078831  0.29667696  0.93203106  1
  O2-  O255  1  0.33143343  0.79262800  0.26433538  1
  O2-  O256  1  0.33863953  0.78800094  0.59718732  1
  O2-  O257  1  0.33500819  0.78526424  0.93210714  1
  O2-  O258  1  0.83763873  0.29704667  0.26979459  1
  O2-  O259  1  0.82605441  0.29428660  0.59581485  1
  O2-  O260  1  0.83110144  0.29196839  0.93475900  1
  O2-  O261  1  0.83393452  0.79592877  0.27056282  1
  O2-  O262  1  0.82675859  0.79051211  0.60270139  1
  O2-  O263  1  0.83237452  0.79947657  0.94009991  1
  O2-  O264  1  0.41906670  0.04973697  0.05851371  1
  O2-  O265  1  0.41670938  0.04199386  0.39620258  1
  O2-  O266  1  0.42059648  0.05004179  0.73656444  1
  O2-  O267  1  0.41801102  0.53812387  0.06953950  1
  O2-  O268  1  0.41353442  0.54447515  0.39532301  1
  O2-  O269  1  0.41511960  0.53524225  0.73475102  1
  O2-  O270  1  0.91483530  0.04383754  0.07405596  1
  O2-  O271  1  0.91965148  0.05403286  0.39243756  1
  O2-  O272  1  0.92084366  0.05021676  0.73015434  1
  O2-  O273  1  0.91459967  0.53874755  0.05893977  1
  O2-  O274  1  0.91532361  0.53306990  0.40194285  1
  O2-  O275  1  0.91499136  0.54049939  0.72886009  1
  O2-  O276  1  0.29786464  0.16846908  0.06302978  1
  O2-  O277  1  0.28942089  0.16744549  0.39902821  1
  O2-  O278  1  0.29738083  0.17615484  0.73081188  1
  O2-  O279  1  0.28772237  0.66433492  0.07113713  1
  O2-  O280  1  0.29096047  0.66321530  0.39300800  1
  O2-  O281  1  0.29086201  0.66664723  0.73251502  1
  O2-  O282  1  0.78643981  0.16756927  0.06914078  1
  O2-  O283  1  0.79639702  0.16916323  0.39385572  1
  O2-  O284  1  0.78377040  0.16753116  0.73202775  1
  O2-  O285  1  0.79782220  0.66274652  0.06086775  1
  O2-  O286  1  0.79429790  0.66647612  0.40245263  1
  O2-  O287  1  0.79539223  0.65946197  0.73424178  1
