# generated using pymatgen
data_Ca2Al2SiO7
_symmetry_space_group_name_H-M   'P 1'
_cell_length_a   15.45099192
_cell_length_b   15.45107235
_cell_length_c   15.27882414
_cell_angle_alpha   89.99995829
_cell_angle_beta   89.99598141
_cell_angle_gamma   89.99440664
_symmetry_Int_Tables_number   1
_chemical_formula_structural   Ca2Al2SiO7
_chemical_formula_sum   'Ca48 Al48 Si24 O168'
_cell_volume   3647.58079620
_cell_formula_units_Z   24
loop_
 _symmetry_equiv_pos_site_id
 _symmetry_equiv_pos_as_xyz
  1  'x, y, z'
loop_
 _atom_type_symbol
 _atom_type_oxidation_number
  Ca2+  2.0
  Al0+  0.0
  Si0+  0.0
  O2-  -2.0
loop_
 _atom_site_type_symbol
 _atom_site_label
 _atom_site_symmetry_multiplicity
 _atom_site_fract_x
 _atom_site_fract_y
 _atom_site_fract_z
 _atom_site_occupancy
  Ca2+  Ca0  1  0.16782840  0.08019915  0.16840437  1
  Ca2+  Ca1  1  0.18258478  0.08869948  0.50430030  1
  Ca2+  Ca2  1  0.17086556  0.08263198  0.83992639  1
  Ca2+  Ca3  1  0.17119454  0.58857495  0.17043803  1
  Ca2+  Ca4  1  0.16565880  0.57884822  0.50611546  1
  Ca2+  Ca5  1  0.17301945  0.57396929  0.83689359  1
  Ca2+  Ca6  1  0.67178064  0.07936449  0.17525107  1
  Ca2+  Ca7  1  0.66262553  0.08114751  0.50412503  1
  Ca2+  Ca8  1  0.68063962  0.09480431  0.83375133  1
  Ca2+  Ca9  1  0.66268114  0.57957665  0.16536659  1
  Ca2+  Ca10  1  0.67374625  0.57702330  0.51164316  1
  Ca2+  Ca11  1  0.65959242  0.57291937  0.83605009  1
  Ca2+  Ca12  1  0.07534067  0.32506249  0.16361655  1
  Ca2+  Ca13  1  0.07034540  0.34108051  0.49793926  1
  Ca2+  Ca14  1  0.08074964  0.32883934  0.82593159  1
  Ca2+  Ca15  1  0.07452341  0.83876833  0.16098507  1
  Ca2+  Ca16  1  0.07476783  0.82484403  0.49051098  1
  Ca2+  Ca17  1  0.08054484  0.83867827  0.83611257  1
  Ca2+  Ca18  1  0.58139434  0.33000073  0.16563184  1
  Ca2+  Ca19  1  0.57811312  0.32366739  0.49789965  1
  Ca2+  Ca20  1  0.58111151  0.33345487  0.82235317  1
  Ca2+  Ca21  1  0.57965859  0.83281532  0.16487073  1
  Ca2+  Ca22  1  0.58380219  0.83011755  0.49366373  1
  Ca2+  Ca23  1  0.58857878  0.81714018  0.82901551  1
  Ca2+  Ca24  1  0.33603542  0.42191699  0.17007340  1
  Ca2+  Ca25  1  0.32745327  0.40660474  0.50636478  1
  Ca2+  Ca26  1  0.33215457  0.41641638  0.83504700  1
  Ca2+  Ca27  1  0.32899695  0.91846975  0.17672378  1
  Ca2+  Ca28  1  0.34368301  0.92912405  0.50023097  1
  Ca2+  Ca29  1  0.32777240  0.92350384  0.83709453  1
  Ca2+  Ca30  1  0.82651425  0.41202000  0.17017261  1
  Ca2+  Ca31  1  0.83074783  0.41869303  0.51284697  1
  Ca2+  Ca32  1  0.82244580  0.41630915  0.83220642  1
  Ca2+  Ca33  1  0.83225662  0.91692755  0.17057585  1
  Ca2+  Ca34  1  0.82917695  0.92044834  0.50300143  1
  Ca2+  Ca35  1  0.83802782  0.92893552  0.83980909  1
  Ca2+  Ca36  1  0.41954337  0.16594266  0.17044472  1
  Ca2+  Ca37  1  0.42169513  0.17052934  0.49416277  1
  Ca2+  Ca38  1  0.42474556  0.17217477  0.81918256  1
  Ca2+  Ca39  1  0.41888225  0.67090746  0.15945682  1
  Ca2+  Ca40  1  0.42483229  0.67223325  0.49577677  1
  Ca2+  Ca41  1  0.42608447  0.65959143  0.83170344  1
  Ca2+  Ca42  1  0.91769986  0.16765232  0.15934785  1
  Ca2+  Ca43  1  0.90743889  0.17958546  0.50048802  1
  Ca2+  Ca44  1  0.91982368  0.16615661  0.82826109  1
  Ca2+  Ca45  1  0.92095019  0.67954599  0.16532949  1
  Ca2+  Ca46  1  0.92069076  0.66715281  0.49162585  1
  Ca2+  Ca47  1  0.90887782  0.67353042  0.82879845  1
  Al0+  Al48  1  0.00127802  0.00176823  0.00011364  1
  Al0+  Al49  1  -0.00030644  0.00046603  0.33500994  1
  Al0+  Al50  1  0.00049850  -0.00091439  0.66683085  1
  Al0+  Al51  1  -0.00119855  0.50076474  0.00053887  1
  Al0+  Al52  1  0.00024764  0.49954964  0.32137627  1
  Al0+  Al53  1  0.00099280  0.50077622  0.67466438  1
  Al0+  Al54  1  0.50069159  0.00111916  -0.00345013  1
  Al0+  Al55  1  0.50159669  -0.00141729  0.33234381  1
  Al0+  Al56  1  0.50008259  -0.00179262  0.67209656  1
  Al0+  Al57  1  0.49929198  0.49984791  0.00615997  1
  Al0+  Al58  1  0.49985384  0.49869746  0.33360349  1
  Al0+  Al59  1  0.49933680  0.50086548  0.65831305  1
  Al0+  Al60  1  0.24939605  0.25047414  -0.00269543  1
  Al0+  Al61  1  0.24989719  0.25141785  0.33295782  1
  Al0+  Al62  1  0.24976538  0.24874695  0.67430880  1
  Al0+  Al63  1  0.24861545  0.75118871  0.00664606  1
  Al0+  Al64  1  0.25161841  0.74896445  0.32989450  1
  Al0+  Al65  1  0.24911688  0.75043055  0.66679866  1
  Al0+  Al66  1  0.74945308  0.25107752  0.00974568  1
  Al0+  Al67  1  0.74914259  0.24988184  0.32611076  1
  Al0+  Al68  1  0.75042984  0.24916380  0.66669507  1
  Al0+  Al69  1  0.74952025  0.74989057  -0.00873772  1
  Al0+  Al70  1  0.75117298  0.74908709  0.33376546  1
  Al0+  Al71  1  0.75057938  0.75067172  0.66354770  1
  Al0+  Al72  1  0.93148980  0.32049585  0.65670679  1
  Al0+  Al73  1  0.56768241  0.67923688  0.98684577  1
  Al0+  Al74  1  0.68060375  0.92825358  0.34615331  1
  Al0+  Al75  1  0.57266063  0.17751505  0.65312474  1
  Al0+  Al76  1  0.42667419  0.32154619  0.31631237  1
  Al0+  Al77  1  0.67967117  0.43080661  0.01589608  1
  Al0+  Al78  1  0.43154092  0.82071536  0.32066951  1
  Al0+  Al79  1  0.93066518  0.82029522  0.98428547  1
  Al0+  Al80  1  0.42671570  0.32092228  0.65257037  1
  Al0+  Al81  1  0.92846497  0.32071925  0.31907713  1
  Al0+  Al82  1  0.57006264  0.17790167  0.31643781  1
  Al0+  Al83  1  0.17869569  0.42920151  0.67975263  1
  Al0+  Al84  1  0.07180858  0.67819514  0.31789314  1
  Al0+  Al85  1  0.82256289  0.57289500  0.68130068  1
  Al0+  Al86  1  0.57169513  0.67895245  0.65102305  1
  Al0+  Al87  1  0.31939229  0.07023102  0.34601630  1
  Al0+  Al88  1  0.31921032  0.56828101  0.01345311  1
  Al0+  Al89  1  0.06988902  0.18070706  0.98611508  1
  Al0+  Al90  1  0.82035710  0.06965341  0.01457082  1
  Al0+  Al91  1  0.32211035  0.07025030  0.68169954  1
  Al0+  Al92  1  0.18087594  0.93180785  0.01446507  1
  Al0+  Al93  1  0.67782306  0.42972460  0.67860572  1
  Al0+  Al94  1  0.92806492  0.82250979  0.31910281  1
  Al0+  Al95  1  0.82021437  0.06996387  0.67895423  1
  Si0+  Si96  1  0.07320758  0.17862996  0.31935046  1
  Si0+  Si97  1  0.67870876  0.42758559  0.34967488  1
  Si0+  Si98  1  0.07134424  0.67934991  0.65462683  1
  Si0+  Si99  1  0.42508975  0.82376611  0.98263221  1
  Si0+  Si100  1  0.82133931  0.56829771  0.34540458  1
  Si0+  Si101  1  0.82301664  0.07379643  0.35088375  1
  Si0+  Si102  1  0.92531842  0.32276883  0.98209171  1
  Si0+  Si103  1  0.17672065  0.92594775  0.35150740  1
  Si0+  Si104  1  0.32212646  0.57252011  0.35007111  1
  Si0+  Si105  1  0.07409119  0.67747288  0.98110077  1
  Si0+  Si106  1  0.82255210  0.57524743  0.01808620  1
  Si0+  Si107  1  0.67726936  0.92656078  0.68517764  1
  Si0+  Si108  1  0.17596861  0.42577812  0.01886333  1
  Si0+  Si109  1  0.57307174  0.67699275  0.31665927  1
  Si0+  Si110  1  0.92980722  0.82268911  0.65094013  1
  Si0+  Si111  1  0.17877862  0.43092263  0.34661427  1
  Si0+  Si112  1  0.07237821  0.17567551  0.64960176  1
  Si0+  Si113  1  0.42610819  0.82105704  0.65142607  1
  Si0+  Si114  1  0.43074321  0.32075309  0.98577068  1
  Si0+  Si115  1  0.32157923  0.57438213  0.68092374  1
  Si0+  Si116  1  0.67796006  0.92576793  0.01452608  1
  Si0+  Si117  1  0.57225511  0.17886912  0.98509326  1
  Si0+  Si118  1  0.17763809  0.92660624  0.68251418  1
  Si0+  Si119  1  0.32454492  0.07406581  0.01735687  1
  O2-  O120  1  0.25899229  0.00264132  0.06167191  1
  O2-  O121  1  0.24455167  -0.00425656  0.39512147  1
  O2-  O122  1  0.24601240  -0.00406706  0.72615850  1
  O2-  O123  1  0.24143711  0.49752725  0.06291570  1
  O2-  O124  1  0.25065028  0.50087721  0.39041594  1
  O2-  O125  1  0.25718856  0.50126499  0.72454501  1
  O2-  O126  1  0.74452520  -0.00436796  0.05993650  1
  O2-  O127  1  0.75549998  0.00303233  0.39331960  1
  O2-  O128  1  0.74398835  -0.00219988  0.72811089  1
  O2-  O129  1  0.75695472  0.50375120  0.06286074  1
  O2-  O130  1  0.75083206  0.49818732  0.39003801  1
  O2-  O131  1  0.74777527  0.50318580  0.73037009  1
  O2-  O132  1  -0.00091546  0.24118545  0.27462758  1
  O2-  O133  1  0.00479779  0.24578351  0.60603364  1
  O2-  O134  1  -0.00281510  0.25716265  0.93881317  1
  O2-  O135  1  0.00489770  0.75560155  0.26914915  1
  O2-  O136  1  -0.00143163  0.74814552  0.61143340  1
  O2-  O137  1  0.00244058  0.74256251  0.93597101  1
  O2-  O138  1  0.49909366  0.25081586  0.26543714  1
  O2-  O139  1  0.49885149  0.24832591  0.60395606  1
  O2-  O140  1  0.49840417  0.24693292  0.94354862  1
  O2-  O141  1  0.50377135  0.74468148  0.27237376  1
  O2-  O142  1  0.49652833  0.75434007  0.60678188  1
  O2-  O143  1  0.49466780  0.75571405  0.93882661  1
  O2-  O144  1  0.06901474  0.18219957  0.09963840  1
  O2-  O145  1  0.07613077  0.18257924  0.42478329  1
  O2-  O146  1  0.07040943  0.17494574  0.75541619  1
  O2-  O147  1  0.07377815  0.67918681  0.08648484  1
  O2-  O148  1  0.06869666  0.67519737  0.43234973  1
  O2-  O149  1  0.07468415  0.68191150  0.75940811  1
  O2-  O150  1  0.57108961  0.17788440  0.08996033  1
  O2-  O151  1  0.57008616  0.17905824  0.42981869  1
  O2-  O152  1  0.57216674  0.18061912  0.76752862  1
  O2-  O153  1  0.56611340  0.68022173  0.10009426  1
  O2-  O154  1  0.57246709  0.67779039  0.42224746  1
  O2-  O155  1  0.56882504  0.67812539  0.76442448  1
  O2-  O156  1  0.17969840  0.43159644  0.24149378  1
  O2-  O157  1  0.17492766  0.43360996  0.56622649  1
  O2-  O158  1  0.17789768  0.42541235  0.91325230  1
  O2-  O159  1  0.17686169  0.92789034  0.24584773  1
  O2-  O160  1  0.17629345  0.92423246  0.57720099  1
  O2-  O161  1  0.18243522  0.93310688  0.90094095  1
  O2-  O162  1  0.67829264  0.42977257  0.24426714  1
  O2-  O163  1  0.68126368  0.43045125  0.56475508  1
  O2-  O164  1  0.67749234  0.42995426  0.90307198  1
  O2-  O165  1  0.68147898  0.92834403  0.23272953  1
  O2-  O166  1  0.67897254  0.92505056  0.57932754  1
  O2-  O167  1  0.67917219  0.92566359  0.90904354  1
  O2-  O168  1  0.43111423  0.32071881  0.09078056  1
  O2-  O169  1  0.42530700  0.32062652  0.42930735  1
  O2-  O170  1  0.42782565  0.32051910  0.76695840  1
  O2-  O171  1  0.42654225  0.82389588  0.08830451  1
  O2-  O172  1  0.43305393  0.81875792  0.43401368  1
  O2-  O173  1  0.42332446  0.81851801  0.75707369  1
  O2-  O174  1  0.92650904  0.32058526  0.08810999  1
  O2-  O175  1  0.92951955  0.32479878  0.43238112  1
  O2-  O176  1  0.93258678  0.31878158  0.76952918  1
  O2-  O177  1  0.93140102  0.81994156  0.09718943  1
  O2-  O178  1  0.92874600  0.81877035  0.43318107  1
  O2-  O179  1  0.93192355  0.82511081  0.75602523  1
  O2-  O180  1  0.31670796  0.06880969  0.23276867  1
  O2-  O181  1  0.32143611  0.06914599  0.56834735  1
  O2-  O182  1  0.32354741  0.07325921  0.91174154  1
  O2-  O183  1  0.32259348  0.57212296  0.24490270  1
  O2-  O184  1  0.31665073  0.58010115  0.57550749  1
  O2-  O185  1  0.32011927  0.56415524  0.90004500  1
  O2-  O186  1  0.82302914  0.07351909  0.24513679  1
  O2-  O187  1  0.82232968  0.06720238  0.56603839  1
  O2-  O188  1  0.82010206  0.07082543  0.90122541  1
  O2-  O189  1  0.81894286  0.56810590  0.24029024  1
  O2-  O190  1  0.82471701  0.57122916  0.56690348  1
  O2-  O191  1  0.82127218  0.57499121  0.91277191  1
  O2-  O192  1  0.05354700  0.08258306  0.27591414  1
  O2-  O193  1  0.04764353  0.08222126  0.60294224  1
  O2-  O194  1  0.03858465  0.08553162  0.93086846  1
  O2-  O195  1  0.04035859  0.58404841  0.25849714  1
  O2-  O196  1  0.04451415  0.58708338  0.60822250  1
  O2-  O197  1  0.05290674  0.58097109  0.93828022  1
  O2-  O198  1  0.54106181  0.08035948  0.26288518  1
  O2-  O199  1  0.54528504  0.07662635  0.60472324  1
  O2-  O200  1  0.54972663  0.08612234  0.93644113  1
  O2-  O201  1  0.54683008  0.58324408  0.27181919  1
  O2-  O202  1  0.54145297  0.58468742  0.59293810  1
  O2-  O203  1  0.53218908  0.58289576  0.93463406  1
  O2-  O204  1  0.16295390  0.20995133  0.26915698  1
  O2-  O205  1  0.16693735  0.20197588  0.60757411  1
  O2-  O206  1  0.16732685  0.20964417  0.93099642  1
  O2-  O207  1  0.17206002  0.70065723  0.26711926  1
  O2-  O208  1  0.16198036  0.70794570  0.60426319  1
  O2-  O209  1  0.16723557  0.70661163  0.93603211  1
  O2-  O210  1  0.66754741  0.20672545  0.26161142  1
  O2-  O211  1  0.67021373  0.20485889  0.59886789  1
  O2-  O212  1  0.66427658  0.21141055  0.94123613  1
  O2-  O213  1  0.66636428  0.70229972  0.27075008  1
  O2-  O214  1  0.66828510  0.71031619  0.59639597  1
  O2-  O215  1  0.66371691  0.70699087  0.93023917  1
  O2-  O216  1  0.08008232  0.44747951  0.06241990  1
  O2-  O217  1  0.08593608  0.46113009  0.39129509  1
  O2-  O218  1  0.08690400  0.46371520  0.74016346  1
  O2-  O219  1  0.08641261  0.96726651  0.06911865  1
  O2-  O220  1  0.08227481  0.94932654  0.39763374  1
  O2-  O221  1  0.08474597  0.95299756  0.72986745  1
  O2-  O222  1  0.58532155  0.46468455  0.07255129  1
  O2-  O223  1  0.58662947  0.45526893  0.39643757  1
  O2-  O224  1  0.57784925  0.45828657  0.72913190  1
  O2-  O225  1  0.58239780  0.94997133  0.05819412  1
  O2-  O226  1  0.58462728  0.95842584  0.40133764  1
  O2-  O227  1  0.58292016  0.94519134  0.73206988  1
  O2-  O228  1  0.20546271  0.33324387  0.06509617  1
  O2-  O229  1  0.20482671  0.33935638  0.39518825  1
  O2-  O230  1  0.20558893  0.33312694  0.73670153  1
  O2-  O231  1  0.20520437  0.83445138  0.07009857  1
  O2-  O232  1  0.20335454  0.83145119  0.39533724  1
  O2-  O233  1  0.20413425  0.83389108  0.73105466  1
  O2-  O234  1  0.70969718  0.33579892  0.07401869  1
  O2-  O235  1  0.70712670  0.33468400  0.39352776  1
  O2-  O236  1  0.70793989  0.33236287  0.73233671  1
  O2-  O237  1  0.70484605  0.83220960  0.05981917  1
  O2-  O238  1  0.71093733  0.83125836  0.40154416  1
  O2-  O239  1  0.70722539  0.83388432  0.73039851  1
  O2-  O240  1  0.45646049  0.42081116  0.26480459  1
  O2-  O241  1  0.44950612  0.41947884  0.59781312  1
  O2-  O242  1  0.46166837  0.41165899  0.93958509  1
  O2-  O243  1  0.46272948  0.91483890  0.26366960  1
  O2-  O244  1  0.45211802  0.91524345  0.60768489  1
  O2-  O245  1  0.44895211  0.91819848  0.93639273  1
  O2-  O246  1  0.96227767  0.41288244  0.25882433  1
  O2-  O247  1  0.96393553  0.41807425  0.60431556  1
  O2-  O248  1  0.94619996  0.41903770  0.93978281  1
  O2-  O249  1  0.95144673  0.92340081  0.26848643  1
  O2-  O250  1  0.96114685  0.91227349  0.60116166  1
  O2-  O251  1  0.96634183  0.91577182  0.93129470  1
  O2-  O252  1  0.32816223  0.29420185  0.26281133  1
  O2-  O253  1  0.32694737  0.29103481  0.60293883  1
  O2-  O254  1  0.33714149  0.29757599  0.93953071  1
  O2-  O255  1  0.33481281  0.79182945  0.26621602  1
  O2-  O256  1  0.33318363  0.79512133  0.60338423  1
  O2-  O257  1  0.33104497  0.79702762  0.93869769  1
  O2-  O258  1  0.83266953  0.29282117  0.26282124  1
  O2-  O259  1  0.83593372  0.28942878  0.60108172  1
  O2-  O260  1  0.83141630  0.29330477  0.93962682  1
  O2-  O261  1  0.83191816  0.78855017  0.26482417  1
  O2-  O262  1  0.83758849  0.79794616  0.60344637  1
  O2-  O263  1  0.83406632  0.79289820  0.92816261  1
  O2-  O264  1  0.42027504  0.05160059  0.06082916  1
  O2-  O265  1  0.41551366  0.03676350  0.39872391  1
  O2-  O266  1  0.41717123  0.03858522  0.73894167  1
  O2-  O267  1  0.41253427  0.53475700  0.07177242  1
  O2-  O268  1  0.41471638  0.54577687  0.39687548  1
  O2-  O269  1  0.41680165  0.55115926  0.72326868  1
  O2-  O270  1  0.91637152  0.03844134  0.06800637  1
  O2-  O271  1  0.91757343  0.05215091  0.39728906  1
  O2-  O272  1  0.91698038  0.03707842  0.73303279  1
  O2-  O273  1  0.91822424  0.55393310  0.06264624  1
  O2-  O274  1  0.91474370  0.53986218  0.38939125  1
  O2-  O275  1  0.91891939  0.54578069  0.73826330  1
  O2-  O276  1  0.29551360  0.16731735  0.06217367  1
  O2-  O277  1  0.28781493  0.16727079  0.39990480  1
  O2-  O278  1  0.29154638  0.16488072  0.73913621  1
  O2-  O279  1  0.29214976  0.66591843  0.06790368  1
  O2-  O280  1  0.29465312  0.66419896  0.39811498  1
  O2-  O281  1  0.29196540  0.66544848  0.73084219  1
  O2-  O282  1  0.79064109  0.16518637  0.07099610  1
  O2-  O283  1  0.79399022  0.16791596  0.39439056  1
  O2-  O284  1  0.79163397  0.16609367  0.73507767  1
  O2-  O285  1  0.79238814  0.66836548  0.06266279  1
  O2-  O286  1  0.79522543  0.65999623  0.39412608  1
  O2-  O287  1  0.79599473  0.67315022  0.73117463  1
