# generated using pymatgen
data_Ca2Al2SiO7
_symmetry_space_group_name_H-M   'P 1'
_cell_length_a   15.45737267
_cell_length_b   15.45813699
_cell_length_c   15.28357938
_cell_angle_alpha   90.00290258
_cell_angle_beta   89.99770978
_cell_angle_gamma   90.00267020
_symmetry_Int_Tables_number   1
_chemical_formula_structural   Ca2Al2SiO7
_chemical_formula_sum   'Ca48 Al48 Si24 O168'
_cell_volume   3651.89183011
_cell_formula_units_Z   24
loop_
 _symmetry_equiv_pos_site_id
 _symmetry_equiv_pos_as_xyz
  1  'x, y, z'
loop_
 _atom_type_symbol
 _atom_type_oxidation_number
  Ca2+  2.0
  Al0+  0.0
  Si0+  0.0
  O2-  -2.0
loop_
 _atom_site_type_symbol
 _atom_site_label
 _atom_site_symmetry_multiplicity
 _atom_site_fract_x
 _atom_site_fract_y
 _atom_site_fract_z
 _atom_site_occupancy
  Ca2+  Ca0  1  0.16849678  0.07968137  0.17642208  1
  Ca2+  Ca1  1  0.16818223  0.08520335  0.50225935  1
  Ca2+  Ca2  1  0.16137552  0.08901189  0.83364514  1
  Ca2+  Ca3  1  0.17316269  0.58163399  0.17491055  1
  Ca2+  Ca4  1  0.17419390  0.56910679  0.49998075  1
  Ca2+  Ca5  1  0.16624874  0.57609108  0.83975638  1
  Ca2+  Ca6  1  0.66812348  0.07651025  0.17868507  1
  Ca2+  Ca7  1  0.67638755  0.09022790  0.49988866  1
  Ca2+  Ca8  1  0.67829136  0.08008402  0.83778606  1
  Ca2+  Ca9  1  0.67692013  0.58143738  0.16732089  1
  Ca2+  Ca10  1  0.66374378  0.57755613  0.50789713  1
  Ca2+  Ca11  1  0.67115675  0.57981210  0.83430651  1
  Ca2+  Ca12  1  0.07629182  0.33257555  0.16189763  1
  Ca2+  Ca13  1  0.07701549  0.33511860  0.49694668  1
  Ca2+  Ca14  1  0.07464755  0.32683755  0.82579121  1
  Ca2+  Ca15  1  0.08758773  0.82858421  0.16211817  1
  Ca2+  Ca16  1  0.08069028  0.83635832  0.49699719  1
  Ca2+  Ca17  1  0.07888160  0.82213941  0.82696390  1
  Ca2+  Ca18  1  0.57812489  0.32725571  0.17103983  1
  Ca2+  Ca19  1  0.57298234  0.33396937  0.49290003  1
  Ca2+  Ca20  1  0.57655659  0.34087169  0.82422654  1
  Ca2+  Ca21  1  0.57848555  0.84362597  0.16680180  1
  Ca2+  Ca22  1  0.58284068  0.82677673  0.49171779  1
  Ca2+  Ca23  1  0.58822656  0.82653917  0.82910635  1
  Ca2+  Ca24  1  0.32645033  0.42612826  0.17783767  1
  Ca2+  Ca25  1  0.32545445  0.40600695  0.50448391  1
  Ca2+  Ca26  1  0.32785094  0.41845430  0.83490241  1
  Ca2+  Ca27  1  0.32702694  0.92139354  0.18169805  1
  Ca2+  Ca28  1  0.33379340  0.91973132  0.49383684  1
  Ca2+  Ca29  1  0.33161784  0.92012095  0.83744769  1
  Ca2+  Ca30  1  0.84444864  0.41886193  0.16948773  1
  Ca2+  Ca31  1  0.82762453  0.40973181  0.50748370  1
  Ca2+  Ca32  1  0.83149703  0.41280677  0.83586650  1
  Ca2+  Ca33  1  0.82176329  0.92432396  0.17647516  1
  Ca2+  Ca34  1  0.83495122  0.93068466  0.50488586  1
  Ca2+  Ca35  1  0.83374768  0.91935768  0.83465793  1
  Ca2+  Ca36  1  0.41659570  0.16483065  0.17051982  1
  Ca2+  Ca37  1  0.42036179  0.17541493  0.48984890  1
  Ca2+  Ca38  1  0.42111762  0.17481509  0.82523573  1
  Ca2+  Ca39  1  0.40735475  0.67084176  0.16598005  1
  Ca2+  Ca40  1  0.42085415  0.66727652  0.49267741  1
  Ca2+  Ca41  1  0.42243087  0.66366551  0.82823554  1
  Ca2+  Ca42  1  0.91862028  0.17530157  0.16344567  1
  Ca2+  Ca43  1  0.91361630  0.17413706  0.49556809  1
  Ca2+  Ca44  1  0.92547978  0.17154315  0.82535902  1
  Ca2+  Ca45  1  0.92531776  0.66566325  0.15737113  1
  Ca2+  Ca46  1  0.91405653  0.67652658  0.49735442  1
  Ca2+  Ca47  1  0.91490614  0.66932655  0.83174481  1
  Al0+  Al48  1  -0.00078653  0.00033890  -0.00173944  1
  Al0+  Al49  1  -0.00235065  0.00028706  0.33824811  1
  Al0+  Al50  1  0.00101240  -0.00150862  0.66590005  1
  Al0+  Al51  1  -0.00094246  0.49979508  -0.00513507  1
  Al0+  Al52  1  0.00167723  0.50203527  0.33454221  1
  Al0+  Al53  1  0.00177263  0.50033220  0.66765462  1
  Al0+  Al54  1  0.49864586  0.00024238  0.00035447  1
  Al0+  Al55  1  0.49931020  -0.00315385  0.33453492  1
  Al0+  Al56  1  0.49951188  -0.00111917  0.66898920  1
  Al0+  Al57  1  0.50004941  0.50161642  0.00563961  1
  Al0+  Al58  1  0.50283900  0.50148431  0.32848251  1
  Al0+  Al59  1  0.50070117  0.50124689  0.66241575  1
  Al0+  Al60  1  0.25129033  0.25034061  -0.00265355  1
  Al0+  Al61  1  0.24836736  0.25027235  0.33496267  1
  Al0+  Al62  1  0.24991990  0.24996340  0.66647660  1
  Al0+  Al63  1  0.25035788  0.75097438  -0.00408143  1
  Al0+  Al64  1  0.25142335  0.74841061  0.33940577  1
  Al0+  Al65  1  0.25090752  0.75107876  0.66706178  1
  Al0+  Al66  1  0.74710089  0.24894302  -0.00209646  1
  Al0+  Al67  1  0.75000563  0.25172215  0.32613176  1
  Al0+  Al68  1  0.75043671  0.24882527  0.67651523  1
  Al0+  Al69  1  0.74770247  0.74843718  0.00918012  1
  Al0+  Al70  1  0.75086766  0.75020124  0.33414676  1
  Al0+  Al71  1  0.74973576  0.74976324  0.65734633  1
  Al0+  Al72  1  0.56942335  0.68058147  0.65364327  1
  Al0+  Al73  1  0.67900508  0.92959448  0.01362061  1
  Al0+  Al74  1  0.81903831  0.07375480  0.34778658  1
  Al0+  Al75  1  0.17874007  0.42804964  0.68320120  1
  Al0+  Al76  1  0.67774354  0.92764732  0.35122083  1
  Al0+  Al77  1  0.43086902  0.32023229  0.65460154  1
  Al0+  Al78  1  0.07260466  0.17788911  0.98571196  1
  Al0+  Al79  1  0.07253680  0.68020111  0.98657804  1
  Al0+  Al80  1  0.42512920  0.32275274  0.31648891  1
  Al0+  Al81  1  0.92745497  0.32128772  0.65136046  1
  Al0+  Al82  1  0.43021284  0.81738232  0.31958468  1
  Al0+  Al83  1  0.82113989  0.56812810  0.01255113  1
  Al0+  Al84  1  0.67890325  0.42964583  0.67859397  1
  Al0+  Al85  1  0.32083152  0.57163736  0.01305434  1
  Al0+  Al86  1  0.82226553  0.07055244  0.68311019  1
  Al0+  Al87  1  0.92706008  0.32144270  0.98315802  1
  Al0+  Al88  1  0.17801826  0.42850568  0.34739135  1
  Al0+  Al89  1  0.57001491  0.17905103  0.31942447  1
  Al0+  Al90  1  0.07117127  0.17880846  0.64906118  1
  Al0+  Al91  1  0.17745069  0.92778246  0.34872417  1
  Al0+  Al92  1  0.92981159  0.32247720  0.31953450  1
  Al0+  Al93  1  0.93024983  0.81903223  0.65297279  1
  Al0+  Al94  1  0.32083584  0.07202506  0.34866476  1
  Al0+  Al95  1  0.32369046  0.57008159  0.34935112  1
  Si0+  Si96  1  0.82337359  0.57159872  0.34867086  1
  Si0+  Si97  1  0.17899514  0.92923171  0.01156760  1
  Si0+  Si98  1  0.06929176  0.68168455  0.31995674  1
  Si0+  Si99  1  0.82265976  0.07244073  0.01753451  1
  Si0+  Si100  1  0.57276267  0.17553892  0.65344978  1
  Si0+  Si101  1  0.42620315  0.82444265  0.64987137  1
  Si0+  Si102  1  0.92535457  0.82040989  0.98663642  1
  Si0+  Si103  1  0.68140591  0.43052690  0.34600084  1
  Si0+  Si104  1  0.32147211  0.07043522  0.68323034  1
  Si0+  Si105  1  0.82193387  0.57438384  0.68087576  1
  Si0+  Si106  1  0.32068019  0.07155687  0.01350767  1
  Si0+  Si107  1  0.92808839  0.82294825  0.31680928  1
  Si0+  Si108  1  0.32168291  0.57263424  0.68335692  1
  Si0+  Si109  1  0.67606703  0.42605263  0.01855585  1
  Si0+  Si110  1  0.07083779  0.17608338  0.31776342  1
  Si0+  Si111  1  0.67829837  0.92631803  0.68258377  1
  Si0+  Si112  1  0.42944124  0.82177315  0.98419791  1
  Si0+  Si113  1  0.17882335  0.42772237  0.01543332  1
  Si0+  Si114  1  0.57144619  0.67880205  0.98615159  1
  Si0+  Si115  1  0.17918214  0.92775249  0.68449158  1
  Si0+  Si116  1  0.07538338  0.67692476  0.64803626  1
  Si0+  Si117  1  0.43147759  0.32272291  0.98525679  1
  Si0+  Si118  1  0.56839974  0.17630271  0.98368538  1
  Si0+  Si119  1  0.57599297  0.67709608  0.31165627  1
  O2-  O120  1  0.24472346  0.00489480  0.05328201  1
  O2-  O121  1  0.24623418  0.00264383  0.39925921  1
  O2-  O122  1  0.25060718  -0.00100217  0.72644013  1
  O2-  O123  1  0.24473041  0.49896804  0.05969440  1
  O2-  O124  1  0.25909163  0.49092658  0.39787495  1
  O2-  O125  1  0.25173558  0.50608303  0.72871079  1
  O2-  O126  1  0.75346072  0.00385999  0.06060023  1
  O2-  O127  1  0.74776768  0.00166048  0.39983816  1
  O2-  O128  1  0.74570115  -0.00462153  0.72801603  1
  O2-  O129  1  0.75175364  0.48857351  0.06067752  1
  O2-  O130  1  0.75115132  0.50202474  0.38966544  1
  O2-  O131  1  0.75757813  0.50119087  0.72468094  1
  O2-  O132  1  0.00468530  0.24729874  0.27373738  1
  O2-  O133  1  -0.00139353  0.25001037  0.59924207  1
  O2-  O134  1  -0.00068716  0.24833202  0.93571006  1
  O2-  O135  1  0.00092502  0.75409700  0.27468336  1
  O2-  O136  1  0.00439431  0.74390154  0.60499976  1
  O2-  O137  1  -0.00455409  0.75361807  0.94115415  1
  O2-  O138  1  0.49428242  0.24696727  0.26723210  1
  O2-  O139  1  0.50648526  0.24601515  0.60971161  1
  O2-  O140  1  0.50292887  0.25252205  0.94144996  1
  O2-  O141  1  0.50563751  0.74502376  0.26879940  1
  O2-  O142  1  0.49515993  0.75562652  0.60799005  1
  O2-  O143  1  0.50019147  0.74990054  0.94328515  1
  O2-  O144  1  0.07460049  0.17643175  0.09913420  1
  O2-  O145  1  0.06854861  0.17454290  0.42285630  1
  O2-  O146  1  0.07020710  0.18015256  0.76298910  1
  O2-  O147  1  0.07385346  0.68380561  0.09992270  1
  O2-  O148  1  0.06469459  0.68156298  0.42484513  1
  O2-  O149  1  0.07731877  0.67997467  0.75406699  1
  O2-  O150  1  0.56549819  0.17339190  0.08818496  1
  O2-  O151  1  0.57266185  0.18504109  0.43305870  1
  O2-  O152  1  0.56790535  0.17340358  0.75978407  1
  O2-  O153  1  0.57195802  0.67845469  0.09058094  1
  O2-  O154  1  0.57767769  0.67696346  0.41732771  1
  O2-  O155  1  0.56969867  0.68168922  0.76772101  1
  O2-  O156  1  0.17375920  0.43482229  0.23341607  1
  O2-  O157  1  0.18031860  0.42830341  0.57057076  1
  O2-  O158  1  0.18274380  0.42767083  0.90973178  1
  O2-  O159  1  0.17865284  0.92709420  0.23401231  1
  O2-  O160  1  0.18046837  0.92528315  0.58012615  1
  O2-  O161  1  0.18265958  0.92675744  0.90637398  1
  O2-  O162  1  0.68247904  0.43218679  0.24063084  1
  O2-  O163  1  0.67695660  0.43182990  0.56545607  1
  O2-  O164  1  0.67079728  0.43036930  0.91303673  1
  O2-  O165  1  0.68106371  0.92846857  0.23696913  1
  O2-  O166  1  0.67772894  0.92662878  0.57789270  1
  O2-  O167  1  0.67982628  0.92979705  0.90010054  1
  O2-  O168  1  0.43119610  0.32125335  0.08969891  1
  O2-  O169  1  0.42987586  0.32292707  0.43003702  1
  O2-  O170  1  0.43206416  0.31996161  0.76879947  1
  O2-  O171  1  0.42766730  0.82336412  0.08869164  1
  O2-  O172  1  0.43038857  0.81391097  0.43260099  1
  O2-  O173  1  0.42562166  0.82519579  0.75622875  1
  O2-  O174  1  0.93066236  0.32109548  0.09708109  1
  O2-  O175  1  0.92744852  0.32382021  0.43202429  1
  O2-  O176  1  0.92814920  0.31959016  0.76480601  1
  O2-  O177  1  0.92755731  0.81937835  0.09221946  1
  O2-  O178  1  0.92750601  0.82029474  0.42186133  1
  O2-  O179  1  0.93061498  0.81622277  0.76687842  1
  O2-  O180  1  0.31837967  0.06876880  0.23394582  1
  O2-  O181  1  0.32401536  0.06882477  0.57909556  1
  O2-  O182  1  0.32475201  0.06897199  0.90812164  1
  O2-  O183  1  0.31663224  0.57334510  0.23542876  1
  O2-  O184  1  0.32089621  0.57377732  0.57841634  1
  O2-  O185  1  0.32329355  0.56924319  0.89982668  1
  O2-  O186  1  0.81937276  0.07118810  0.23375653  1
  O2-  O187  1  0.82043880  0.07184938  0.57055945  1
  O2-  O188  1  0.82226233  0.06974901  0.91181608  1
  O2-  O189  1  0.82439891  0.57161762  0.24327816  1
  O2-  O190  1  0.81853340  0.57687674  0.57519466  1
  O2-  O191  1  0.81537024  0.57381073  0.89980918  1
  O2-  O192  1  0.04301338  0.08264654  0.27093566  1
  O2-  O193  1  0.04802222  0.07776665  0.60079376  1
  O2-  O194  1  0.04641053  0.07795660  0.93223062  1
  O2-  O195  1  0.03882699  0.59186199  0.27025147  1
  O2-  O196  1  0.05256122  0.58277158  0.60374202  1
  O2-  O197  1  0.04337927  0.58417138  0.93183701  1
  O2-  O198  1  0.54439672  0.07890627  0.26836317  1
  O2-  O199  1  0.54604473  0.08224085  0.60769410  1
  O2-  O200  1  0.53489611  0.08733055  0.93347193  1
  O2-  O201  1  0.55412383  0.58340548  0.26459191  1
  O2-  O202  1  0.53825545  0.58614117  0.59644081  1
  O2-  O203  1  0.54279130  0.58681251  0.93883670  1
  O2-  O204  1  0.16576952  0.19743026  0.27304413  1
  O2-  O205  1  0.17051406  0.20616888  0.59909578  1
  O2-  O206  1  0.17202397  0.20501658  0.93189416  1
  O2-  O207  1  0.16213991  0.70821191  0.27456095  1
  O2-  O208  1  0.16792285  0.70695814  0.60253336  1
  O2-  O209  1  0.16658909  0.71423218  0.92847781  1
  O2-  O210  1  0.66467082  0.21281240  0.26091078  1
  O2-  O211  1  0.66781300  0.19909100  0.61256122  1
  O2-  O212  1  0.66228911  0.19812503  0.93784919  1
  O2-  O213  1  0.67007740  0.70435928  0.26629204  1
  O2-  O214  1  0.66422923  0.70885964  0.59548571  1
  O2-  O215  1  0.66281100  0.70865839  0.93870920  1
  O2-  O216  1  0.08342370  0.45084853  0.05721172  1
  O2-  O217  1  0.08418878  0.46796434  0.40322350  1
  O2-  O218  1  0.08214990  0.45949724  0.73787945  1
  O2-  O219  1  0.08474599  0.94948255  0.05766490  1
  O2-  O220  1  0.07813441  0.95184828  0.40087896  1
  O2-  O221  1  0.08781406  0.95387923  0.73302005  1
  O2-  O222  1  0.58667120  0.45950263  0.06832628  1
  O2-  O223  1  0.58921937  0.45789592  0.39247685  1
  O2-  O224  1  0.58381729  0.46637260  0.73398131  1
  O2-  O225  1  0.58156553  0.96198175  0.06570534  1
  O2-  O226  1  0.57769495  0.94854373  0.40147105  1
  O2-  O227  1  0.58329162  0.94840181  0.72939684  1
  O2-  O228  1  0.20768870  0.33493021  0.06141582  1
  O2-  O229  1  0.19595425  0.32788826  0.39851113  1
  O2-  O230  1  0.21360560  0.33255639  0.73749836  1
  O2-  O231  1  0.21169371  0.83957083  0.05991437  1
  O2-  O232  1  0.20902496  0.83181329  0.40383148  1
  O2-  O233  1  0.20872715  0.83614628  0.73356747  1
  O2-  O234  1  0.69341021  0.32915380  0.06074692  1
  O2-  O235  1  0.70946035  0.33927962  0.39233463  1
  O2-  O236  1  0.70287956  0.33357465  0.73740508  1
  O2-  O237  1  0.70534885  0.83356137  0.07017134  1
  O2-  O238  1  0.70857574  0.82865168  0.40165148  1
  O2-  O239  1  0.70711536  0.83243807  0.72736526  1
  O2-  O240  1  0.45949617  0.41975584  0.26272608  1
  O2-  O241  1  0.45991860  0.41609690  0.60005429  1
  O2-  O242  1  0.46059177  0.41508031  0.93906553  1
  O2-  O243  1  0.45748665  0.91448160  0.26417727  1
  O2-  O244  1  0.45120322  0.91825355  0.60471773  1
  O2-  O245  1  0.45824300  0.91301968  0.93502723  1
  O2-  O246  1  0.96255691  0.41989034  0.26652251  1
  O2-  O247  1  0.95264181  0.42245685  0.60217231  1
  O2-  O248  1  0.95231129  0.42016478  0.92985017  1
  O2-  O249  1  0.95306281  0.91560971  0.27019470  1
  O2-  O250  1  0.96313613  0.91406519  0.59894845  1
  O2-  O251  1  0.94821757  0.91467217  0.94088374  1
  O2-  O252  1  0.32511532  0.29815977  0.26468658  1
  O2-  O253  1  0.33587165  0.28657785  0.60187843  1
  O2-  O254  1  0.34002209  0.29457907  0.93709092  1
  O2-  O255  1  0.33251988  0.78543955  0.26614117  1
  O2-  O256  1  0.33249146  0.79969863  0.60449660  1
  O2-  O257  1  0.33881703  0.79463678  0.93377118  1
  O2-  O258  1  0.83458875  0.29380107  0.26190499  1
  O2-  O259  1  0.82638841  0.29236630  0.60380602  1
  O2-  O260  1  0.82556088  0.29642254  0.93378947  1
  O2-  O261  1  0.83723842  0.79186805  0.26920804  1
  O2-  O262  1  0.83561499  0.78938690  0.59512399  1
  O2-  O263  1  0.83207392  0.79117708  0.94189438  1
  O2-  O264  1  0.40981205  0.03858236  0.06235334  1
  O2-  O265  1  0.41739108  0.03972736  0.40169596  1
  O2-  O266  1  0.41286552  0.04177544  0.73371374  1
  O2-  O267  1  0.41689048  0.54304725  0.06895978  1
  O2-  O268  1  0.42723049  0.55220766  0.39483714  1
  O2-  O269  1  0.41521469  0.54495390  0.72852518  1
  O2-  O270  1  0.91665507  0.04736377  0.06308406  1
  O2-  O271  1  0.91604853  0.04444870  0.40182814  1
  O2-  O272  1  0.91814623  0.03501231  0.73641181  1
  O2-  O273  1  0.91987923  0.54273630  0.06625842  1
  O2-  O274  1  0.91425657  0.54581871  0.39724748  1
  O2-  O275  1  0.91792321  0.55655369  0.72479072  1
  O2-  O276  1  0.29885480  0.16522719  0.05946737  1
  O2-  O277  1  0.29736056  0.17141956  0.40055106  1
  O2-  O278  1  0.29341870  0.16135927  0.73228357  1
  O2-  O279  1  0.29072325  0.67027241  0.06380956  1
  O2-  O280  1  0.28899460  0.66429797  0.40557003  1
  O2-  O281  1  0.29921574  0.66802234  0.72927779  1
  O2-  O282  1  0.79579089  0.16659240  0.06116140  1
  O2-  O283  1  0.78859810  0.17273384  0.39839676  1
  O2-  O284  1  0.79069632  0.16418041  0.74254319  1
  O2-  O285  1  0.78712023  0.66176681  0.07139311  1
  O2-  O286  1  0.79588746  0.66368894  0.39536231  1
  O2-  O287  1  0.78975710  0.66624534  0.72767053  1
