# generated using pymatgen
data_Ca2Al2SiO7
_symmetry_space_group_name_H-M   'P 1'
_cell_length_a   15.46542942
_cell_length_b   15.46577591
_cell_length_c   15.28832704
_cell_angle_alpha   89.99859091
_cell_angle_beta   89.98718170
_cell_angle_gamma   90.00825010
_symmetry_Int_Tables_number   1
_chemical_formula_structural   Ca2Al2SiO7
_chemical_formula_sum   'Ca48 Al48 Si24 O168'
_cell_volume   3656.73632098
_cell_formula_units_Z   24
loop_
 _symmetry_equiv_pos_site_id
 _symmetry_equiv_pos_as_xyz
  1  'x, y, z'
loop_
 _atom_type_symbol
 _atom_type_oxidation_number
  Ca2+  2.0
  Al0+  0.0
  Si0+  0.0
  O2-  -2.0
loop_
 _atom_site_type_symbol
 _atom_site_label
 _atom_site_symmetry_multiplicity
 _atom_site_fract_x
 _atom_site_fract_y
 _atom_site_fract_z
 _atom_site_occupancy
  Ca2+  Ca0  1  0.17418075  0.07719872  0.17446373  1
  Ca2+  Ca1  1  0.17652332  0.07602523  0.50463102  1
  Ca2+  Ca2  1  0.16415720  0.07311045  0.83198681  1
  Ca2+  Ca3  1  0.16918990  0.58044699  0.17383616  1
  Ca2+  Ca4  1  0.17160217  0.59712948  0.50222850  1
  Ca2+  Ca5  1  0.16058058  0.57946024  0.83454051  1
  Ca2+  Ca6  1  0.67826040  0.07676374  0.17490397  1
  Ca2+  Ca7  1  0.66860844  0.07314104  0.50500881  1
  Ca2+  Ca8  1  0.67393107  0.08051769  0.82965563  1
  Ca2+  Ca9  1  0.67773174  0.58223908  0.17509986  1
  Ca2+  Ca10  1  0.67460795  0.58309850  0.50643686  1
  Ca2+  Ca11  1  0.67998489  0.59824451  0.82956424  1
  Ca2+  Ca12  1  0.08498039  0.33118794  0.16282468  1
  Ca2+  Ca13  1  0.07499697  0.33189925  0.49857680  1
  Ca2+  Ca14  1  0.07803769  0.33152881  0.82643091  1
  Ca2+  Ca15  1  0.07647862  0.82445718  0.16366546  1
  Ca2+  Ca16  1  0.07857916  0.82815911  0.50113743  1
  Ca2+  Ca17  1  0.07124910  0.83099793  0.82335800  1
  Ca2+  Ca18  1  0.58092749  0.33992273  0.16996500  1
  Ca2+  Ca19  1  0.58609276  0.32662821  0.49257077  1
  Ca2+  Ca20  1  0.58869138  0.32423572  0.82450618  1
  Ca2+  Ca21  1  0.57404951  0.84379133  0.16729085  1
  Ca2+  Ca22  1  0.57964602  0.83891942  0.49759124  1
  Ca2+  Ca23  1  0.57333376  0.83462655  0.82324953  1
  Ca2+  Ca24  1  0.32920526  0.42206527  0.17661487  1
  Ca2+  Ca25  1  0.33789411  0.42254366  0.49865975  1
  Ca2+  Ca26  1  0.32423224  0.41944889  0.84006879  1
  Ca2+  Ca27  1  0.33851423  0.91849440  0.17599668  1
  Ca2+  Ca28  1  0.33084062  0.90947521  0.50560271  1
  Ca2+  Ca29  1  0.32918063  0.90496521  0.83160448  1
  Ca2+  Ca30  1  0.82734603  0.42868528  0.17391067  1
  Ca2+  Ca31  1  0.83326822  0.42528465  0.50231723  1
  Ca2+  Ca32  1  0.83991360  0.43046778  0.83359504  1
  Ca2+  Ca33  1  0.83196846  0.92300926  0.17432513  1
  Ca2+  Ca34  1  0.82493667  0.92324783  0.51156615  1
  Ca2+  Ca35  1  0.83123032  0.91611748  0.83732714  1
  Ca2+  Ca36  1  0.41461349  0.17067884  0.16764744  1
  Ca2+  Ca37  1  0.42313373  0.16784244  0.49237892  1
  Ca2+  Ca38  1  0.42656969  0.16993234  0.82447701  1
  Ca2+  Ca39  1  0.41644129  0.67539991  0.16609241  1
  Ca2+  Ca40  1  0.42254136  0.67547733  0.49442972  1
  Ca2+  Ca41  1  0.42529354  0.67474587  0.82457793  1
  Ca2+  Ca42  1  0.91250219  0.16336747  0.16258389  1
  Ca2+  Ca43  1  0.90460885  0.16950418  0.49877375  1
  Ca2+  Ca44  1  0.90528874  0.17340616  0.82496452  1
  Ca2+  Ca45  1  0.91483717  0.66668891  0.16368989  1
  Ca2+  Ca46  1  0.92493305  0.66171901  0.49721309  1
  Ca2+  Ca47  1  0.91669564  0.67445263  0.82376934  1
  Al0+  Al48  1  0.00218277  -0.00068995  0.00103290  1
  Al0+  Al49  1  0.00191647  0.00035140  0.33572237  1
  Al0+  Al50  1  0.00365330  0.00240293  0.67038049  1
  Al0+  Al51  1  -0.00029543  0.49708046  0.00943469  1
  Al0+  Al52  1  0.00084160  0.49695060  0.33000432  1
  Al0+  Al53  1  0.00034127  0.49790743  0.66208653  1
  Al0+  Al54  1  0.49921500  0.00186108  -0.00590835  1
  Al0+  Al55  1  0.50141257  0.00278588  0.33415683  1
  Al0+  Al56  1  0.50060118  0.00337270  0.66329181  1
  Al0+  Al57  1  0.49867677  0.49989956  -0.00257947  1
  Al0+  Al58  1  0.49792951  0.49941456  0.33514898  1
  Al0+  Al59  1  0.49926830  0.50085136  0.66720121  1
  Al0+  Al60  1  0.24926216  0.24902304  0.00186936  1
  Al0+  Al61  1  0.24986669  0.24885282  0.33355622  1
  Al0+  Al62  1  0.24905385  0.25092855  0.66785581  1
  Al0+  Al63  1  0.24917115  0.74822221  -0.00307254  1
  Al0+  Al64  1  0.24923873  0.74814963  0.32662410  1
  Al0+  Al65  1  0.24990755  0.75027486  0.66816437  1
  Al0+  Al66  1  0.74975746  0.24925472  0.00388262  1
  Al0+  Al67  1  0.75024633  0.25107478  0.33443481  1
  Al0+  Al68  1  0.74828215  0.25078006  0.65937156  1
  Al0+  Al69  1  0.74831795  0.75119686  0.00382173  1
  Al0+  Al70  1  0.75094400  0.75019845  0.34017213  1
  Al0+  Al71  1  0.74857381  0.75144633  0.66875554  1
  Al0+  Al72  1  0.42972972  0.82077283  0.65078930  1
  Al0+  Al73  1  0.67760595  0.92858627  0.68431189  1
  Al0+  Al74  1  0.92746617  0.82483524  0.65265287  1
  Al0+  Al75  1  0.67742055  0.43045687  0.34816449  1
  Al0+  Al76  1  0.81911532  0.57250708  0.01352561  1
  Al0+  Al77  1  0.06977982  0.67829274  0.31760086  1
  Al0+  Al78  1  0.57245266  0.67769375  0.65096853  1
  Al0+  Al79  1  0.42877259  0.82153713  0.98551701  1
  Al0+  Al80  1  0.31869802  0.57174686  0.34686037  1
  Al0+  Al81  1  0.17974357  0.42796815  0.01432751  1
  Al0+  Al82  1  0.57028326  0.18120496  0.65096208  1
  Al0+  Al83  1  0.92967555  0.31930666  0.65289487  1
  Al0+  Al84  1  0.82238542  0.57025718  0.67986826  1
  Al0+  Al85  1  0.92895556  0.82111884  0.98833532  1
  Al0+  Al86  1  0.67871208  0.92897691  0.34812933  1
  Al0+  Al87  1  0.82351398  0.57115377  0.35008483  1
  Al0+  Al88  1  0.82141835  0.07042673  0.01359674  1
  Al0+  Al89  1  0.32060730  0.07132202  0.34570894  1
  Al0+  Al90  1  0.42846525  0.32128133  0.31921587  1
  Al0+  Al91  1  0.82429954  0.07058051  0.34871272  1
  Al0+  Al92  1  0.82104371  0.07244424  0.68170451  1
  Al0+  Al93  1  0.18093022  0.92809233  0.68095535  1
  Al0+  Al94  1  0.06890430  0.67824363  0.65310679  1
  Al0+  Al95  1  0.43134934  0.82115843  0.31956720  1
  Si0+  Si96  1  0.17943630  0.42813725  0.68091532  1
  Si0+  Si97  1  0.07320241  0.17848850  0.98475939  1
  Si0+  Si98  1  0.57378120  0.67697882  0.31703848  1
  Si0+  Si99  1  0.32170134  0.07456344  0.68438525  1
  Si0+  Si100  1  0.57088487  0.18144743  0.98510598  1
  Si0+  Si101  1  0.06968757  0.67488504  0.98446519  1
  Si0+  Si102  1  0.67704479  0.42561675  0.01471443  1
  Si0+  Si103  1  0.32246845  0.57164194  0.01677036  1
  Si0+  Si104  1  0.67537444  0.92970194  0.01619217  1
  Si0+  Si105  1  0.32119720  0.57125393  0.68288368  1
  Si0+  Si106  1  0.92874160  0.31897788  0.31466200  1
  Si0+  Si107  1  0.57280221  0.17975108  0.31283876  1
  Si0+  Si108  1  0.42670378  0.32122924  0.98486288  1
  Si0+  Si109  1  0.57154784  0.67575043  0.98445691  1
  Si0+  Si110  1  0.42505949  0.32296825  0.65117294  1
  Si0+  Si111  1  0.07185636  0.17819476  0.31757201  1
  Si0+  Si112  1  0.67706045  0.42904259  0.68278684  1
  Si0+  Si113  1  0.17965892  0.92719312  0.01581043  1
  Si0+  Si114  1  0.07528928  0.17817362  0.64926857  1
  Si0+  Si115  1  0.92963121  0.31876267  0.98685920  1
  Si0+  Si116  1  0.17847221  0.42647314  0.35183681  1
  Si0+  Si117  1  0.32128023  0.06982277  0.01395207  1
  Si0+  Si118  1  0.17966714  0.92625968  0.34861199  1
  Si0+  Si119  1  0.92761294  0.82317951  0.31808901  1
  O2-  O120  1  0.25470787  -0.00516653  0.05691544  1
  O2-  O121  1  0.25093147  -0.00730389  0.39207429  1
  O2-  O122  1  0.25635671  0.00287648  0.72899872  1
  O2-  O123  1  0.25391673  0.50270377  0.06065381  1
  O2-  O124  1  0.24373486  0.49788760  0.39590149  1
  O2-  O125  1  0.25011875  0.49904844  0.72395743  1
  O2-  O126  1  0.74956585  -0.00696111  0.05952135  1
  O2-  O127  1  0.75477706  -0.00317479  0.39729292  1
  O2-  O128  1  0.75546285  -0.00435396  0.73396943  1
  O2-  O129  1  0.74107325  0.49917726  0.05698479  1
  O2-  O130  1  0.74722037  0.50329138  0.39893945  1
  O2-  O131  1  0.74370852  0.49903205  0.72808868  1
  O2-  O132  1  -0.00225512  0.24505889  0.27312588  1
  O2-  O133  1  0.00082764  0.24068147  0.60609800  1
  O2-  O134  1  -0.00065372  0.24686864  0.94329070  1
  O2-  O135  1  -0.00777550  0.75080634  0.27220060  1
  O2-  O136  1  -0.00454097  0.74855373  0.60306143  1
  O2-  O137  1  0.00065392  0.74307252  0.94147666  1
  O2-  O138  1  0.50391617  0.24904094  0.26867348  1
  O2-  O139  1  0.49439248  0.25613718  0.60708377  1
  O2-  O140  1  0.50137321  0.25477684  0.94259474  1
  O2-  O141  1  0.50810334  0.74869073  0.27155373  1
  O2-  O142  1  0.50434529  0.75255779  0.60018813  1
  O2-  O143  1  0.50328461  0.74580003  0.94159565  1
  O2-  O144  1  0.07604232  0.17968714  0.08996505  1
  O2-  O145  1  0.07527543  0.18106283  0.42198364  1
  O2-  O146  1  0.08165199  0.18341951  0.75506707  1
  O2-  O147  1  0.07110897  0.67654056  0.09003988  1
  O2-  O148  1  0.07150141  0.68120177  0.43007380  1
  O2-  O149  1  0.06816266  0.67645137  0.76732796  1
  O2-  O150  1  0.56892949  0.18081900  0.08979989  1
  O2-  O151  1  0.57138387  0.18067580  0.41797641  1
  O2-  O152  1  0.56950659  0.18411543  0.76534953  1
  O2-  O153  1  0.56945085  0.67166542  0.08982187  1
  O2-  O154  1  0.57026977  0.67520156  0.42201139  1
  O2-  O155  1  0.56711822  0.67580212  0.76528686  1
  O2-  O156  1  0.18077557  0.42543087  0.24573765  1
  O2-  O157  1  0.18124387  0.42381579  0.57648182  1
  O2-  O158  1  0.18035578  0.42696998  0.90089538  1
  O2-  O159  1  0.17861246  0.92959678  0.24222393  1
  O2-  O160  1  0.18326920  0.92905601  0.56788143  1
  O2-  O161  1  0.17875250  0.92939695  0.91101986  1
  O2-  O162  1  0.68037101  0.43201213  0.23352626  1
  O2-  O163  1  0.67686136  0.42957844  0.57768754  1
  O2-  O164  1  0.67969544  0.41853147  0.90973435  1
  O2-  O165  1  0.67792464  0.93290693  0.23349468  1
  O2-  O166  1  0.67471663  0.93282853  0.57138912  1
  O2-  O167  1  0.67281051  0.93225226  0.91115892  1
  O2-  O168  1  0.42502223  0.32009446  0.08956089  1
  O2-  O169  1  0.42669780  0.31732858  0.43187120  1
  O2-  O170  1  0.42347185  0.32078584  0.75766521  1
  O2-  O171  1  0.42987041  0.82355715  0.09871089  1
  O2-  O172  1  0.42857484  0.81949887  0.43156982  1
  O2-  O173  1  0.42858168  0.81625312  0.76494230  1
  O2-  O174  1  0.93105120  0.31694553  0.09189264  1
  O2-  O175  1  0.93098508  0.31992975  0.41949259  1
  O2-  O176  1  0.93301280  0.32118822  0.76696480  1
  O2-  O177  1  0.93267946  0.82233127  0.10154525  1
  O2-  O178  1  0.93170361  0.82676747  0.42282663  1
  O2-  O179  1  0.93070769  0.82278764  0.76708095  1
  O2-  O180  1  0.31731479  0.07102858  0.23160798  1
  O2-  O181  1  0.31729655  0.07968986  0.57927463  1
  O2-  O182  1  0.31954969  0.07381190  0.90926785  1
  O2-  O183  1  0.31683112  0.57039816  0.23325500  1
  O2-  O184  1  0.32101206  0.57054179  0.57806537  1
  O2-  O185  1  0.32305793  0.56927608  0.91102815  1
  O2-  O186  1  0.82383654  0.06876571  0.23418756  1
  O2-  O187  1  0.81667573  0.07287918  0.56879331  1
  O2-  O188  1  0.81805627  0.07601383  0.90153611  1
  O2-  O189  1  0.82277131  0.56843610  0.23573190  1
  O2-  O190  1  0.82562542  0.56471541  0.56782675  1
  O2-  O191  1  0.82190617  0.57058073  0.90058976  1
  O2-  O192  1  0.04870853  0.08491088  0.26943959  1
  O2-  O193  1  0.05901622  0.08245591  0.60624333  1
  O2-  O194  1  0.04948354  0.08549952  0.93871071  1
  O2-  O195  1  0.04362465  0.57930798  0.26441585  1
  O2-  O196  1  0.04594057  0.57954420  0.59865056  1
  O2-  O197  1  0.04529316  0.57916746  0.94218717  1
  O2-  O198  1  0.54512003  0.08738745  0.26560510  1
  O2-  O199  1  0.53813458  0.08691993  0.59537494  1
  O2-  O200  1  0.54015276  0.09213911  0.93496122  1
  O2-  O201  1  0.54390359  0.58483090  0.26993284  1
  O2-  O202  1  0.54079644  0.57945066  0.59930781  1
  O2-  O203  1  0.54626588  0.58278831  0.93546973  1
  O2-  O204  1  0.16148730  0.20987599  0.26700722  1
  O2-  O205  1  0.16572792  0.21155557  0.60044494  1
  O2-  O206  1  0.16336924  0.20966247  0.93555824  1
  O2-  O207  1  0.16408928  0.71096685  0.25924988  1
  O2-  O208  1  0.16729336  0.70942234  0.60267043  1
  O2-  O209  1  0.16395783  0.69873736  0.93870958  1
  O2-  O210  1  0.66639761  0.20701560  0.26661045  1
  O2-  O211  1  0.66357758  0.21351109  0.59349456  1
  O2-  O212  1  0.66276527  0.21011889  0.93812815  1
  O2-  O213  1  0.66962760  0.69928583  0.27338416  1
  O2-  O214  1  0.67312884  0.69855133  0.60215114  1
  O2-  O215  1  0.66557995  0.70196804  0.94052698  1
  O2-  O216  1  0.08437421  0.45482470  0.07220026  1
  O2-  O217  1  0.08311290  0.44767499  0.39409719  1
  O2-  O218  1  0.08831573  0.45658764  0.72898536  1
  O2-  O219  1  0.09098726  0.95996484  0.06606056  1
  O2-  O220  1  0.08812956  0.95520067  0.39565505  1
  O2-  O221  1  0.08690955  0.96185828  0.73912196  1
  O2-  O222  1  0.58037802  0.44715343  0.05718823  1
  O2-  O223  1  0.57711115  0.45032340  0.39918631  1
  O2-  O224  1  0.58184064  0.44940357  0.72953621  1
  O2-  O225  1  0.58354933  0.96355199  0.06209614  1
  O2-  O226  1  0.58240413  0.96280877  0.40089868  1
  O2-  O227  1  0.57990439  0.96511336  0.73622311  1
  O2-  O228  1  0.21149633  0.33142021  0.06902330  1
  O2-  O229  1  0.20666403  0.33412842  0.39789438  1
  O2-  O230  1  0.20741082  0.33739589  0.73209794  1
  O2-  O231  1  0.20304614  0.83313262  0.06090412  1
  O2-  O232  1  0.20439648  0.83243066  0.39181502  1
  O2-  O233  1  0.21192198  0.83265250  0.73836125  1
  O2-  O234  1  0.70605618  0.33534857  0.06586254  1
  O2-  O235  1  0.70786504  0.33234601  0.39920194  1
  O2-  O236  1  0.70590825  0.33582458  0.72739326  1
  O2-  O237  1  0.69331444  0.83455262  0.06155986  1
  O2-  O238  1  0.69827765  0.82907775  0.39970509  1
  O2-  O239  1  0.69804591  0.82844494  0.73753796  1
  O2-  O240  1  0.45646556  0.41841826  0.26339297  1
  O2-  O241  1  0.44789101  0.41753549  0.60767192  1
  O2-  O242  1  0.44826869  0.41465103  0.93731295  1
  O2-  O243  1  0.46087071  0.91952587  0.26588038  1
  O2-  O244  1  0.45026086  0.92228059  0.60258407  1
  O2-  O245  1  0.45708212  0.91863916  0.93064260  1
  O2-  O246  1  0.96036703  0.40855464  0.26481560  1
  O2-  O247  1  0.96684049  0.41142147  0.59549922  1
  O2-  O248  1  0.96000914  0.41079999  0.94130317  1
  O2-  O249  1  0.95856243  0.91571841  0.27039507  1
  O2-  O250  1  0.96174591  0.92247356  0.60200132  1
  O2-  O251  1  0.96396846  0.91661631  0.93430924  1
  O2-  O252  1  0.33222109  0.28718660  0.26422618  1
  O2-  O253  1  0.33173814  0.29733530  0.60524936  1
  O2-  O254  1  0.33646173  0.28851901  0.93656129  1
  O2-  O255  1  0.33548529  0.78939201  0.26348682  1
  O2-  O256  1  0.33193563  0.78861528  0.60022161  1
  O2-  O257  1  0.33123127  0.79085393  0.93264118  1
  O2-  O258  1  0.83632015  0.29375581  0.26688814  1
  O2-  O259  1  0.83374229  0.29283542  0.59696305  1
  O2-  O260  1  0.83712852  0.29189955  0.94053425  1
  O2-  O261  1  0.83219876  0.80132090  0.27369733  1
  O2-  O262  1  0.82649897  0.80374674  0.60513068  1
  O2-  O263  1  0.82930074  0.79558548  0.93818021  1
  O2-  O264  1  0.41450008  0.04580394  0.06023174  1
  O2-  O265  1  0.41892620  0.04887462  0.39694849  1
  O2-  O266  1  0.41649630  0.05319814  0.72838317  1
  O2-  O267  1  0.41618604  0.54566008  0.06242849  1
  O2-  O268  1  0.41388546  0.53992399  0.40126751  1
  O2-  O269  1  0.41183639  0.54232365  0.73276710  1
  O2-  O270  1  0.92058768  0.04420492  0.06560337  1
  O2-  O271  1  0.92518657  0.05025815  0.39971592  1
  O2-  O272  1  0.92440499  0.05780747  0.72998082  1
  O2-  O273  1  0.91331065  0.53759301  0.06969501  1
  O2-  O274  1  0.92086922  0.53464614  0.39945987  1
  O2-  O275  1  0.91783988  0.53271828  0.73370721  1
  O2-  O276  1  0.28943810  0.15993459  0.06290806  1
  O2-  O277  1  0.28500260  0.16514650  0.40108818  1
  O2-  O278  1  0.29237019  0.16700399  0.73319153  1
  O2-  O279  1  0.29573422  0.66544164  0.06184608  1
  O2-  O280  1  0.28621140  0.66804934  0.39946718  1
  O2-  O281  1  0.29174454  0.66111882  0.73227290  1
  O2-  O282  1  0.78820857  0.16594979  0.06982183  1
  O2-  O283  1  0.79540871  0.16992307  0.39681857  1
  O2-  O284  1  0.78471930  0.17076401  0.73237840  1
  O2-  O285  1  0.79025452  0.66860518  0.07016941  1
  O2-  O286  1  0.80360606  0.67120294  0.40076925  1
  O2-  O287  1  0.79422104  0.66734891  0.73449916  1
