# generated using pymatgen
data_Ca2Al2SiO7
_symmetry_space_group_name_H-M   'P 1'
_cell_length_a   15.46928924
_cell_length_b   15.46942562
_cell_length_c   15.29229679
_cell_angle_alpha   89.99497113
_cell_angle_beta   90.00136655
_cell_angle_gamma   90.00997030
_symmetry_Int_Tables_number   1
_chemical_formula_structural   Ca2Al2SiO7
_chemical_formula_sum   'Ca48 Al48 Si24 O168'
_cell_volume   3659.46213684
_cell_formula_units_Z   24
loop_
 _symmetry_equiv_pos_site_id
 _symmetry_equiv_pos_as_xyz
  1  'x, y, z'
loop_
 _atom_type_symbol
 _atom_type_oxidation_number
  Ca2+  2.0
  Al0+  0.0
  Si0+  0.0
  O2-  -2.0
loop_
 _atom_site_type_symbol
 _atom_site_label
 _atom_site_symmetry_multiplicity
 _atom_site_fract_x
 _atom_site_fract_y
 _atom_site_fract_z
 _atom_site_occupancy
  Ca2+  Ca0  1  0.17788810  0.08149923  0.17762269  1
  Ca2+  Ca1  1  0.18114445  0.07496688  0.51028976  1
  Ca2+  Ca2  1  0.17190429  0.07394346  0.83025788  1
  Ca2+  Ca3  1  0.16109679  0.58312698  0.17292273  1
  Ca2+  Ca4  1  0.15835877  0.58352688  0.50130403  1
  Ca2+  Ca5  1  0.16585172  0.59105770  0.83470691  1
  Ca2+  Ca6  1  0.65891178  0.07684431  0.17123678  1
  Ca2+  Ca7  1  0.65858908  0.07428374  0.50292734  1
  Ca2+  Ca8  1  0.65327486  0.07417148  0.83378677  1
  Ca2+  Ca9  1  0.67783473  0.57450103  0.17716269  1
  Ca2+  Ca10  1  0.67720496  0.59128820  0.50682032  1
  Ca2+  Ca11  1  0.67875790  0.58876340  0.83912709  1
  Ca2+  Ca12  1  0.08358201  0.33732947  0.16601410  1
  Ca2+  Ca13  1  0.08387423  0.33487831  0.49418923  1
  Ca2+  Ca14  1  0.07957670  0.33237514  0.82790047  1
  Ca2+  Ca15  1  0.07417415  0.82190749  0.16252103  1
  Ca2+  Ca16  1  0.07267336  0.83042913  0.49334529  1
  Ca2+  Ca17  1  0.07513894  0.82371922  0.82006495  1
  Ca2+  Ca18  1  0.59863391  0.32326416  0.16316201  1
  Ca2+  Ca19  1  0.58516931  0.32131946  0.49448204  1
  Ca2+  Ca20  1  0.58486189  0.32448782  0.82524059  1
  Ca2+  Ca21  1  0.58025467  0.84323423  0.16760485  1
  Ca2+  Ca22  1  0.58050869  0.83687468  0.49855959  1
  Ca2+  Ca23  1  0.58300983  0.83314864  0.82215500  1
  Ca2+  Ca24  1  0.32527389  0.42024250  0.17442136  1
  Ca2+  Ca25  1  0.32798764  0.41289170  0.50442568  1
  Ca2+  Ca26  1  0.33703673  0.41617076  0.83118858  1
  Ca2+  Ca27  1  0.33523095  0.92212814  0.17751317  1
  Ca2+  Ca28  1  0.33795534  0.92180831  0.50769054  1
  Ca2+  Ca29  1  0.33542031  0.91642761  0.82905589  1
  Ca2+  Ca30  1  0.82592704  0.42597054  0.17103669  1
  Ca2+  Ca31  1  0.82778903  0.42983288  0.50075338  1
  Ca2+  Ca32  1  0.82547633  0.42937952  0.83904265  1
  Ca2+  Ca33  1  0.82151992  0.91257715  0.17267202  1
  Ca2+  Ca34  1  0.82473375  0.90515302  0.50466432  1
  Ca2+  Ca35  1  0.82069002  0.90974695  0.83277469  1
  Ca2+  Ca36  1  0.42708130  0.16518633  0.16646939  1
  Ca2+  Ca37  1  0.42399346  0.16066576  0.49794613  1
  Ca2+  Ca38  1  0.42584687  0.17191588  0.82372534  1
  Ca2+  Ca39  1  0.41623285  0.67463220  0.16697738  1
  Ca2+  Ca40  1  0.42162977  0.67975232  0.49872108  1
  Ca2+  Ca41  1  0.42897312  0.67339016  0.82117095  1
  Ca2+  Ca42  1  0.91681072  0.16960923  0.16390943  1
  Ca2+  Ca43  1  0.91835666  0.16792017  0.49497231  1
  Ca2+  Ca44  1  0.91607127  0.17011752  0.82853972  1
  Ca2+  Ca45  1  0.91963364  0.65925974  0.16841049  1
  Ca2+  Ca46  1  0.91915387  0.67227994  0.49736243  1
  Ca2+  Ca47  1  0.92116968  0.66470378  0.82493308  1
  Al0+  Al48  1  0.00043433  -0.00134587  -0.00067929  1
  Al0+  Al49  1  -0.00031414  -0.00057558  0.32580655  1
  Al0+  Al50  1  0.00011440  0.00045859  0.66779119  1
  Al0+  Al51  1  0.00089444  0.49925630  -0.00192189  1
  Al0+  Al52  1  -0.00065773  0.49851991  0.33758873  1
  Al0+  Al53  1  -0.00166427  0.49889440  0.66847192  1
  Al0+  Al54  1  0.49818839  0.00295745  -0.00066374  1
  Al0+  Al55  1  0.50078667  0.00165345  0.33247992  1
  Al0+  Al56  1  0.49994208  0.00221299  0.66998271  1
  Al0+  Al57  1  0.49731097  0.49999361  0.00564651  1
  Al0+  Al58  1  0.49757675  0.49843148  0.33681023  1
  Al0+  Al59  1  0.49876911  0.49773158  0.65885691  1
  Al0+  Al60  1  0.25100719  0.24956088  -0.00052620  1
  Al0+  Al61  1  0.25229905  0.25051730  0.34044152  1
  Al0+  Al62  1  0.24943447  0.24960093  0.67082548  1
  Al0+  Al63  1  0.24827619  0.75078368  -0.00292924  1
  Al0+  Al64  1  0.24968752  0.74985124  0.32444241  1
  Al0+  Al65  1  0.25009702  0.74688543  0.66444598  1
  Al0+  Al66  1  0.75203234  0.24812314  -0.00483351  1
  Al0+  Al67  1  0.75168289  0.24948905  0.33175003  1
  Al0+  Al68  1  0.75078382  0.25064262  0.66183168  1
  Al0+  Al69  1  0.74983270  0.75180546  0.01134757  1
  Al0+  Al70  1  0.74963688  0.74993080  0.33607761  1
  Al0+  Al71  1  0.75278745  0.74984148  0.67075566  1
  Al0+  Al72  1  0.81944618  0.56982795  0.68187819  1
  Al0+  Al73  1  0.92532131  0.82235184  0.31501525  1
  Al0+  Al74  1  0.82228836  0.57110149  0.01660206  1
  Al0+  Al75  1  0.06878767  0.67799291  0.31715430  1
  Al0+  Al76  1  0.17759957  0.92532594  0.68070329  1
  Al0+  Al77  1  0.07105051  0.67637709  0.65108232  1
  Al0+  Al78  1  0.42972487  0.82153742  0.65355229  1
  Al0+  Al79  1  0.92945093  0.82258228  0.65299045  1
  Al0+  Al80  1  0.32156737  0.07087440  0.68518001  1
  Al0+  Al81  1  0.57039271  0.18184551  0.31764668  1
  Al0+  Al82  1  0.67717741  0.42693511  0.01271938  1
  Al0+  Al83  1  0.57163129  0.17983302  0.64953719  1
  Al0+  Al84  1  0.67765465  0.93226207  0.01467715  1
  Al0+  Al85  1  0.57451254  0.67860300  0.65416127  1
  Al0+  Al86  1  0.43183600  0.82103250  0.31950259  1
  Al0+  Al87  1  0.32097823  0.06903947  0.34726731  1
  Al0+  Al88  1  0.42645546  0.32132482  0.65013838  1
  Al0+  Al89  1  0.06869783  0.67912444  0.98404250  1
  Al0+  Al90  1  0.57043985  0.18088333  0.98509959  1
  Al0+  Al91  1  0.68044807  0.93132190  0.34761469  1
  Al0+  Al92  1  0.68116145  0.93157795  0.67970795  1
  Al0+  Al93  1  0.18050170  0.43118946  0.34680009  1
  Al0+  Al94  1  0.81949423  0.57026087  0.35148829  1
  Al0+  Al95  1  0.67703139  0.42557233  0.34991145  1
  Si0+  Si96  1  0.07071386  0.17916642  0.65246179  1
  Si0+  Si97  1  0.07423481  0.17752602  0.98491067  1
  Si0+  Si98  1  0.32025410  0.57391049  0.01453545  1
  Si0+  Si99  1  0.93158462  0.31940655  0.98389882  1
  Si0+  Si100  1  0.92571251  0.82319216  0.98232333  1
  Si0+  Si101  1  0.82591878  0.07222319  0.01613065  1
  Si0+  Si102  1  0.82370239  0.07642002  0.68284293  1
  Si0+  Si103  1  0.42952693  0.82157327  0.98545939  1
  Si0+  Si104  1  0.42533733  0.32287984  0.31536734  1
  Si0+  Si105  1  0.57222901  0.67541104  0.31665199  1
  Si0+  Si106  1  0.93116715  0.31934520  0.31751150  1
  Si0+  Si107  1  0.07411232  0.17946458  0.31928474  1
  Si0+  Si108  1  0.67652589  0.42651423  0.68152306  1
  Si0+  Si109  1  0.32212947  0.57576692  0.35092022  1
  Si0+  Si110  1  0.57060441  0.67845206  0.99033686  1
  Si0+  Si111  1  0.42460764  0.32343469  0.98465922  1
  Si0+  Si112  1  0.17850658  0.42950339  0.68347940  1
  Si0+  Si113  1  0.32302979  0.57036922  0.68116416  1
  Si0+  Si114  1  0.31794541  0.07032031  0.01636957  1
  Si0+  Si115  1  0.17820296  0.92774577  0.01635942  1
  Si0+  Si116  1  0.82532663  0.07230990  0.34821901  1
  Si0+  Si117  1  0.17704110  0.92689984  0.34669721  1
  Si0+  Si118  1  0.93018955  0.32084754  0.65068838  1
  Si0+  Si119  1  0.18054998  0.42836290  0.01270826  1
  O2-  O120  1  0.24775822  -0.00057722  0.05991160  1
  O2-  O121  1  0.24600539  -0.00601669  0.39191348  1
  O2-  O122  1  0.25191375  -0.00533056  0.73330113  1
  O2-  O123  1  0.24965038  0.50088069  0.05461742  1
  O2-  O124  1  0.25382894  0.50602598  0.39431487  1
  O2-  O125  1  0.25026883  0.50010453  0.72453047  1
  O2-  O126  1  0.75537437  0.00562067  0.05933508  1
  O2-  O127  1  0.76031854  0.00150389  0.39267600  1
  O2-  O128  1  0.75516788  0.00785661  0.72669033  1
  O2-  O129  1  0.74582430  0.50173162  0.06349241  1
  O2-  O130  1  0.74059532  0.50446233  0.40028321  1
  O2-  O131  1  0.73954053  0.49949084  0.72715986  1
  O2-  O132  1  0.00209086  0.24794935  0.27439365  1
  O2-  O133  1  -0.00122105  0.24763769  0.60828431  1
  O2-  O134  1  0.00158525  0.24648479  0.94210950  1
  O2-  O135  1  -0.00345407  0.74885288  0.26573020  1
  O2-  O136  1  0.00443372  0.75361949  0.60334030  1
  O2-  O137  1  -0.00815629  0.75170734  0.93903037  1
  O2-  O138  1  0.49971519  0.26114858  0.27021486  1
  O2-  O139  1  0.49880840  0.25095115  0.59972213  1
  O2-  O140  1  0.50006605  0.26175003  0.94233716  1
  O2-  O141  1  0.50463366  0.74505037  0.27082632  1
  O2-  O142  1  0.50376610  0.75177162  0.60408797  1
  O2-  O143  1  0.50190548  0.75099881  0.94592546  1
  O2-  O144  1  0.07638949  0.18001405  0.09007469  1
  O2-  O145  1  0.07229254  0.18068520  0.42414573  1
  O2-  O146  1  0.06942485  0.18260155  0.75819978  1
  O2-  O147  1  0.07097544  0.67894473  0.09661915  1
  O2-  O148  1  0.06857652  0.67888131  0.42993482  1
  O2-  O149  1  0.06705555  0.67477366  0.76520916  1
  O2-  O150  1  0.56736927  0.17899850  0.09811533  1
  O2-  O151  1  0.56910729  0.17956337  0.42978038  1
  O2-  O152  1  0.57165513  0.18215420  0.76360031  1
  O2-  O153  1  0.56576623  0.67767283  0.09510627  1
  O2-  O154  1  0.57043049  0.67679213  0.42184128  1
  O2-  O155  1  0.57253005  0.67924762  0.76908792  1
  O2-  O156  1  0.18143344  0.42937947  0.23285495  1
  O2-  O157  1  0.17703338  0.42769393  0.57874762  1
  O2-  O158  1  0.18120663  0.42522312  0.90786685  1
  O2-  O159  1  0.17898995  0.93134619  0.24028213  1
  O2-  O160  1  0.17539457  0.93124610  0.56740338  1
  O2-  O161  1  0.17894208  0.92873870  0.91172627  1
  O2-  O162  1  0.68409648  0.42459167  0.23605194  1
  O2-  O163  1  0.68212558  0.42374417  0.57656939  1
  O2-  O164  1  0.67962324  0.42781656  0.89909962  1
  O2-  O165  1  0.67851871  0.93622503  0.23412846  1
  O2-  O166  1  0.68163177  0.93216678  0.56711883  1
  O2-  O167  1  0.67581569  0.93177631  0.90187769  1
  O2-  O168  1  0.41365439  0.31942408  0.08925290  1
  O2-  O169  1  0.42018498  0.31825442  0.42004419  1
  O2-  O170  1  0.42738349  0.32088856  0.76466463  1
  O2-  O171  1  0.42791600  0.82204414  0.09063073  1
  O2-  O172  1  0.43167011  0.82133156  0.43173549  1
  O2-  O173  1  0.43131796  0.81787198  0.76819791  1
  O2-  O174  1  0.93429817  0.31887546  0.08905772  1
  O2-  O175  1  0.93298299  0.31705690  0.42262624  1
  O2-  O176  1  0.93299790  0.32029312  0.75623419  1
  O2-  O177  1  0.92960887  0.82752437  0.08738404  1
  O2-  O178  1  0.92894558  0.82590014  0.42793192  1
  O2-  O179  1  0.92806694  0.82055832  0.76707652  1
  O2-  O180  1  0.31868648  0.06922148  0.23305525  1
  O2-  O181  1  0.31889829  0.07198117  0.57187206  1
  O2-  O182  1  0.31598891  0.07084403  0.91193579  1
  O2-  O183  1  0.32158117  0.57418288  0.24444651  1
  O2-  O184  1  0.32271680  0.56990736  0.57666257  1
  O2-  O185  1  0.32174793  0.57473695  0.90968639  1
  O2-  O186  1  0.82523255  0.07516346  0.24236339  1
  O2-  O187  1  0.82554412  0.08018507  0.57765724  1
  O2-  O188  1  0.83120292  0.07250063  0.91098655  1
  O2-  O189  1  0.82180825  0.56490970  0.23769743  1
  O2-  O190  1  0.82244778  0.56696676  0.56958291  1
  O2-  O191  1  0.82307722  0.56924546  0.90289975  1
  O2-  O192  1  0.04946594  0.08844963  0.26838740  1
  O2-  O193  1  0.04576362  0.08770169  0.60476706  1
  O2-  O194  1  0.04808541  0.08508009  0.93826532  1
  O2-  O195  1  0.04024582  0.57743315  0.26648170  1
  O2-  O196  1  0.03881383  0.57812761  0.60016550  1
  O2-  O197  1  0.04415286  0.57989693  0.93165091  1
  O2-  O198  1  0.53367555  0.08746292  0.26284860  1
  O2-  O199  1  0.54164378  0.08143372  0.59965267  1
  O2-  O200  1  0.53150175  0.08686845  0.93096719  1
  O2-  O201  1  0.54499400  0.58129138  0.27111709  1
  O2-  O202  1  0.54707242  0.58094369  0.60082578  1
  O2-  O203  1  0.54132133  0.58692662  0.94282141  1
  O2-  O204  1  0.16501362  0.21111176  0.27190531  1
  O2-  O205  1  0.16127917  0.21025110  0.60619005  1
  O2-  O206  1  0.16396618  0.20890089  0.93569244  1
  O2-  O207  1  0.16734673  0.70413301  0.26169091  1
  O2-  O208  1  0.17242179  0.69398402  0.60207505  1
  O2-  O209  1  0.16600822  0.71139922  0.93097658  1
  O2-  O210  1  0.66942678  0.20847531  0.26429448  1
  O2-  O211  1  0.67069476  0.20665992  0.59687752  1
  O2-  O212  1  0.66955112  0.20302649  0.93187053  1
  O2-  O213  1  0.66628151  0.69957503  0.27208191  1
  O2-  O214  1  0.67215385  0.70755074  0.60288426  1
  O2-  O215  1  0.66462356  0.70476571  0.94710130  1
  O2-  O216  1  0.08849539  0.45398511  0.06009403  1
  O2-  O217  1  0.08396918  0.45711453  0.40233586  1
  O2-  O218  1  0.08721040  0.45684464  0.73250405  1
  O2-  O219  1  0.08588805  0.95514962  0.06291462  1
  O2-  O220  1  0.08303406  0.95434660  0.38971115  1
  O2-  O221  1  0.08136630  0.96041953  0.73667149  1
  O2-  O222  1  0.57622526  0.44668192  0.06513344  1
  O2-  O223  1  0.57349203  0.44072897  0.39581329  1
  O2-  O224  1  0.57943762  0.44410868  0.72268462  1
  O2-  O225  1  0.58101942  0.96656125  0.06778876  1
  O2-  O226  1  0.58558255  0.96695705  0.40025962  1
  O2-  O227  1  0.58495717  0.96136557  0.73552662  1
  O2-  O228  1  0.20834257  0.33674449  0.06171110  1
  O2-  O229  1  0.21021246  0.33529664  0.40293949  1
  O2-  O230  1  0.20470472  0.33813011  0.73339701  1
  O2-  O231  1  0.20798204  0.83640940  0.06335180  1
  O2-  O232  1  0.20074366  0.83197764  0.38811455  1
  O2-  O233  1  0.20340007  0.82557003  0.73294194  1
  O2-  O234  1  0.71297393  0.32906639  0.06319903  1
  O2-  O235  1  0.71484207  0.32971039  0.40193476  1
  O2-  O236  1  0.70967649  0.33493997  0.72859080  1
  O2-  O237  1  0.70408316  0.83622954  0.07182897  1
  O2-  O238  1  0.70385335  0.83264194  0.39946564  1
  O2-  O239  1  0.71285539  0.83602508  0.73601916  1
  O2-  O240  1  0.44087939  0.42020344  0.27255637  1
  O2-  O241  1  0.44750360  0.41997896  0.59577681  1
  O2-  O242  1  0.44211640  0.42064210  0.94251563  1
  O2-  O243  1  0.46429453  0.91641154  0.26324289  1
  O2-  O244  1  0.45492540  0.92123480  0.60456841  1
  O2-  O245  1  0.45578202  0.91384960  0.93913153  1
  O2-  O246  1  0.96244938  0.40928003  0.26961552  1
  O2-  O247  1  0.96333131  0.40977161  0.60268743  1
  O2-  O248  1  0.96332719  0.40884190  0.93464192  1
  O2-  O249  1  0.95382096  0.92093194  0.25949495  1
  O2-  O250  1  0.95214231  0.92325233  0.60169033  1
  O2-  O251  1  0.95376026  0.91633918  0.93581135  1
  O2-  O252  1  0.33328771  0.29080904  0.26769582  1
  O2-  O253  1  0.32566760  0.29385124  0.60150621  1
  O2-  O254  1  0.33420093  0.29144238  0.93389311  1
  O2-  O255  1  0.33555684  0.79204308  0.26182410  1
  O2-  O256  1  0.33235943  0.79159898  0.60074696  1
  O2-  O257  1  0.33800395  0.79264786  0.93854040  1
  O2-  O258  1  0.84125566  0.29031001  0.26761622  1
  O2-  O259  1  0.83910760  0.29561062  0.60202244  1
  O2-  O260  1  0.84148433  0.29193971  0.93363596  1
  O2-  O261  1  0.82599030  0.79430038  0.26397565  1
  O2-  O262  1  0.83312957  0.78955814  0.60092635  1
  O2-  O263  1  0.82919772  0.79993386  0.94184298  1
  O2-  O264  1  0.40934628  0.04185909  0.06331453  1
  O2-  O265  1  0.41619225  0.03704821  0.40016585  1
  O2-  O266  1  0.41944533  0.04512146  0.73970951  1
  O2-  O267  1  0.41030716  0.54801556  0.06635577  1
  O2-  O268  1  0.41566792  0.55256258  0.39686094  1
  O2-  O269  1  0.41418348  0.54017838  0.73018326  1
  O2-  O270  1  0.91988050  0.04811742  0.06409899  1
  O2-  O271  1  0.92160600  0.05194924  0.39159686  1
  O2-  O272  1  0.91774625  0.05350881  0.72974387  1
  O2-  O273  1  0.91976589  0.53478054  0.06748745  1
  O2-  O274  1  0.91479339  0.53288222  0.40392574  1
  O2-  O275  1  0.91370430  0.53089897  0.73684784  1
  O2-  O276  1  0.28852832  0.16210451  0.06372592  1
  O2-  O277  1  0.28941944  0.16409366  0.40195917  1
  O2-  O278  1  0.28608254  0.16735638  0.73968759  1
  O2-  O279  1  0.28995857  0.66484615  0.06273373  1
  O2-  O280  1  0.29486748  0.66958995  0.39431653  1
  O2-  O281  1  0.29689369  0.66118530  0.73158593  1
  O2-  O282  1  0.80261579  0.16709475  0.06031615  1
  O2-  O283  1  0.79969125  0.16548215  0.39437255  1
  O2-  O284  1  0.79878633  0.17058481  0.72973040  1
  O2-  O285  1  0.79921065  0.66969093  0.07044307  1
  O2-  O286  1  0.79665070  0.67045073  0.40183244  1
  O2-  O287  1  0.79245636  0.66579518  0.73861593  1
