# generated using pymatgen
data_Ca2Al2SiO7
_symmetry_space_group_name_H-M   'P 1'
_cell_length_a   15.45473692
_cell_length_b   15.45500760
_cell_length_c   15.28183619
_cell_angle_alpha   89.99196604
_cell_angle_beta   90.00022744
_cell_angle_gamma   89.98964155
_symmetry_Int_Tables_number   1
_chemical_formula_structural   Ca2Al2SiO7
_chemical_formula_sum   'Ca48 Al48 Si24 O168'
_cell_volume   3650.11349459
_cell_formula_units_Z   24
loop_
 _symmetry_equiv_pos_site_id
 _symmetry_equiv_pos_as_xyz
  1  'x, y, z'
loop_
 _atom_type_symbol
 _atom_type_oxidation_number
  Ca2+  2.0
  Al0+  0.0
  Si0+  0.0
  O2-  -2.0
loop_
 _atom_site_type_symbol
 _atom_site_label
 _atom_site_symmetry_multiplicity
 _atom_site_fract_x
 _atom_site_fract_y
 _atom_site_fract_z
 _atom_site_occupancy
  Ca2+  Ca0  1  0.17060363  0.08486475  0.16820643  1
  Ca2+  Ca1  1  0.17144761  0.08948745  0.50266316  1
  Ca2+  Ca2  1  0.16784327  0.07974080  0.84322912  1
  Ca2+  Ca3  1  0.16546520  0.58348771  0.17097754  1
  Ca2+  Ca4  1  0.15867476  0.57731966  0.49929594  1
  Ca2+  Ca5  1  0.17508840  0.58593419  0.84497730  1
  Ca2+  Ca6  1  0.67316089  0.07605159  0.17034354  1
  Ca2+  Ca7  1  0.68018302  0.08606287  0.50856602  1
  Ca2+  Ca8  1  0.66983886  0.07791693  0.83838819  1
  Ca2+  Ca9  1  0.66939735  0.58215813  0.15976925  1
  Ca2+  Ca10  1  0.66320971  0.58291350  0.50488687  1
  Ca2+  Ca11  1  0.66711707  0.58329681  0.84841109  1
  Ca2+  Ca12  1  0.08512989  0.32430156  0.15935068  1
  Ca2+  Ca13  1  0.08606852  0.32322202  0.49258584  1
  Ca2+  Ca14  1  0.07898592  0.32202251  0.83482512  1
  Ca2+  Ca15  1  0.08032642  0.82599169  0.15637050  1
  Ca2+  Ca16  1  0.07806146  0.82903956  0.49603525  1
  Ca2+  Ca17  1  0.07578760  0.83560449  0.83628225  1
  Ca2+  Ca18  1  0.57741645  0.33254424  0.15605346  1
  Ca2+  Ca19  1  0.58412887  0.32529378  0.50070091  1
  Ca2+  Ca20  1  0.57972833  0.33307681  0.83402846  1
  Ca2+  Ca21  1  0.57891120  0.83294874  0.15906083  1
  Ca2+  Ca22  1  0.57280459  0.83382946  0.49940559  1
  Ca2+  Ca23  1  0.58379244  0.82414975  0.82960685  1
  Ca2+  Ca24  1  0.33039433  0.42284926  0.16663733  1
  Ca2+  Ca25  1  0.32409034  0.41623254  0.50061691  1
  Ca2+  Ca26  1  0.33546440  0.42206584  0.84417912  1
  Ca2+  Ca27  1  0.32916210  0.92544115  0.17002195  1
  Ca2+  Ca28  1  0.33626998  0.91506465  0.50091386  1
  Ca2+  Ca29  1  0.32749132  0.92022364  0.84443920  1
  Ca2+  Ca30  1  0.83687548  0.41741523  0.16259459  1
  Ca2+  Ca31  1  0.83299920  0.42064974  0.50476845  1
  Ca2+  Ca32  1  0.82679508  0.42318664  0.84673116  1
  Ca2+  Ca33  1  0.82976480  0.91489707  0.16575767  1
  Ca2+  Ca34  1  0.84064970  0.92733877  0.50562347  1
  Ca2+  Ca35  1  0.83360114  0.91654261  0.84032418  1
  Ca2+  Ca36  1  0.40780781  0.17168462  0.15924086  1
  Ca2+  Ca37  1  0.42493390  0.15900882  0.49534609  1
  Ca2+  Ca38  1  0.41946232  0.16883088  0.83348632  1
  Ca2+  Ca39  1  0.41815929  0.67165648  0.15830501  1
  Ca2+  Ca40  1  0.41778921  0.67970231  0.49812435  1
  Ca2+  Ca41  1  0.42718702  0.66730629  0.82968266  1
  Ca2+  Ca42  1  0.92648833  0.16781860  0.15902695  1
  Ca2+  Ca43  1  0.92656621  0.15889785  0.49524378  1
  Ca2+  Ca44  1  0.92695918  0.16162826  0.82963022  1
  Ca2+  Ca45  1  0.92689656  0.66727479  0.15490720  1
  Ca2+  Ca46  1  0.91853797  0.67610978  0.49524471  1
  Ca2+  Ca47  1  0.91140145  0.67872653  0.83621072  1
  Al0+  Al48  1  0.00101925  -0.00149764  -0.00183520  1
  Al0+  Al49  1  0.00032512  -0.00058127  0.33189328  1
  Al0+  Al50  1  0.00193520  0.00034780  0.66245190  1
  Al0+  Al51  1  0.00080724  0.49887177  -0.00557019  1
  Al0+  Al52  1  -0.00112781  0.49990675  0.33666192  1
  Al0+  Al53  1  -0.00131335  0.49837099  0.67052629  1
  Al0+  Al54  1  0.50075363  0.00151493  0.00846012  1
  Al0+  Al55  1  0.50034452  -0.00099799  0.33256104  1
  Al0+  Al56  1  0.50106185  0.00134962  0.66036115  1
  Al0+  Al57  1  0.49917009  0.49939614  0.00167059  1
  Al0+  Al58  1  0.50022981  0.49996651  0.33715774  1
  Al0+  Al59  1  0.49828187  0.49936632  0.66072179  1
  Al0+  Al60  1  0.25134645  0.25167433  -0.00751019  1
  Al0+  Al61  1  0.25065929  0.25028703  0.33897987  1
  Al0+  Al62  1  0.24873671  0.25048769  0.66545509  1
  Al0+  Al63  1  0.24999184  0.75154340  0.00489054  1
  Al0+  Al64  1  0.25135258  0.75111430  0.32697521  1
  Al0+  Al65  1  0.24961787  0.74886217  0.66388734  1
  Al0+  Al66  1  0.74903585  0.25029977  0.00137274  1
  Al0+  Al67  1  0.74978971  0.24991827  0.33806000  1
  Al0+  Al68  1  0.75058891  0.25159327  0.66898983  1
  Al0+  Al69  1  0.74953246  0.74954430  0.00334600  1
  Al0+  Al70  1  0.74748619  0.74867452  0.33589307  1
  Al0+  Al71  1  0.75062189  0.75073641  0.65582349  1
  Al0+  Al72  1  0.82245794  0.57095342  0.01454455  1
  Al0+  Al73  1  0.07122464  0.17867645  0.98461780  1
  Al0+  Al74  1  0.67942047  0.92815765  0.01228320  1
  Al0+  Al75  1  0.07036189  0.18016975  0.65064010  1
  Al0+  Al76  1  0.32156490  0.57177829  0.01271689  1
  Al0+  Al77  1  0.42703430  0.82168370  0.65383242  1
  Al0+  Al78  1  0.82092023  0.06958405  0.34672322  1
  Al0+  Al79  1  0.43017101  0.32066152  0.98782546  1
  Al0+  Al80  1  0.31994781  0.07060792  0.34927298  1
  Al0+  Al81  1  0.32041422  0.07315427  0.01336487  1
  Al0+  Al82  1  0.93027582  0.82092201  0.65169685  1
  Al0+  Al83  1  0.92786768  0.82001900  0.98662029  1
  Al0+  Al84  1  0.43075462  0.82171262  0.31557572  1
  Al0+  Al85  1  0.17686060  0.92904634  0.01587836  1
  Al0+  Al86  1  0.57186877  0.67731843  0.65082408  1
  Al0+  Al87  1  0.07198642  0.17955144  0.31902328  1
  Al0+  Al88  1  0.06856895  0.67831373  0.32053413  1
  Al0+  Al89  1  0.57159857  0.18036477  0.65412129  1
  Al0+  Al90  1  0.07448975  0.67787645  0.98445126  1
  Al0+  Al91  1  0.67793232  0.42736032  0.01515781  1
  Al0+  Al92  1  0.82273839  0.07049575  0.68206365  1
  Al0+  Al93  1  0.92614318  0.32128492  0.98482648  1
  Al0+  Al94  1  0.56825276  0.68095678  0.98943026  1
  Al0+  Al95  1  0.17915783  0.43061852  0.34618209  1
  Si0+  Si96  1  0.92629216  0.32207137  0.31849520  1
  Si0+  Si97  1  0.67781749  0.92850887  0.68147099  1
  Si0+  Si98  1  0.92634067  0.82207152  0.31626381  1
  Si0+  Si99  1  0.57305394  0.18021678  0.31838413  1
  Si0+  Si100  1  0.82011002  0.57279678  0.68088050  1
  Si0+  Si101  1  0.57302149  0.17552525  0.98581456  1
  Si0+  Si102  1  0.31943410  0.56988173  0.68023263  1
  Si0+  Si103  1  0.42827909  0.82536255  0.98550087  1
  Si0+  Si104  1  0.67759101  0.92662411  0.35289566  1
  Si0+  Si105  1  0.82304127  0.07232503  0.01543686  1
  Si0+  Si106  1  0.43011072  0.32046453  0.32012149  1
  Si0+  Si107  1  0.07230502  0.67556642  0.65067956  1
  Si0+  Si108  1  0.67702298  0.42860429  0.35130669  1
  Si0+  Si109  1  0.17851875  0.42860187  0.01390752  1
  Si0+  Si110  1  0.92808063  0.32303138  0.64925421  1
  Si0+  Si111  1  0.32318683  0.57386053  0.35175479  1
  Si0+  Si112  1  0.17863559  0.92654225  0.35122615  1
  Si0+  Si113  1  0.82052580  0.57039783  0.35000841  1
  Si0+  Si114  1  0.67767811  0.43051314  0.68150709  1
  Si0+  Si115  1  0.42702468  0.32211775  0.64742750  1
  Si0+  Si116  1  0.17812485  0.42742201  0.68406579  1
  Si0+  Si117  1  0.32297540  0.07149111  0.68091966  1
  Si0+  Si118  1  0.57208345  0.67544362  0.31423016  1
  Si0+  Si119  1  0.18048239  0.92813890  0.67974443  1
  O2-  O120  1  0.24828492  0.00242511  0.06456304  1
  O2-  O121  1  0.24525976  -0.00360405  0.39777223  1
  O2-  O122  1  0.25377355  -0.00199015  0.72088859  1
  O2-  O123  1  0.24178952  0.50191206  0.05884593  1
  O2-  O124  1  0.25154531  0.50751811  0.39560858  1
  O2-  O125  1  0.24833728  0.49989303  0.72421187  1
  O2-  O126  1  0.75413005  0.00334827  0.05892076  1
  O2-  O127  1  0.74865569  -0.00672844  0.39633643  1
  O2-  O128  1  0.74757494  -0.00466148  0.72699361  1
  O2-  O129  1  0.75361270  0.49559086  0.06540942  1
  O2-  O130  1  0.74790259  0.50048016  0.39268023  1
  O2-  O131  1  0.74489355  0.50559835  0.72191301  1
  O2-  O132  1  -0.00520555  0.25311093  0.27525495  1
  O2-  O133  1  -0.00460827  0.25445043  0.60316138  1
  O2-  O134  1  -0.00525255  0.24640496  0.93442081  1
  O2-  O135  1  -0.00553041  0.75270646  0.27361136  1
  O2-  O136  1  0.00309473  0.74340694  0.60619630  1
  O2-  O137  1  0.00084020  0.74885110  0.93559942  1
  O2-  O138  1  0.50059960  0.24967415  0.27680456  1
  O2-  O139  1  0.49469672  0.25190472  0.60415926  1
  O2-  O140  1  0.50486422  0.24525650  0.94237794  1
  O2-  O141  1  0.50447975  0.74502750  0.27108780  1
  O2-  O142  1  0.50016737  0.75063564  0.60291804  1
  O2-  O143  1  0.49520823  0.75572675  0.94042412  1
  O2-  O144  1  0.07254370  0.18121546  0.09839723  1
  O2-  O145  1  0.07169575  0.18180103  0.43259434  1
  O2-  O146  1  0.07216056  0.18068472  0.76298778  1
  O2-  O147  1  0.07239657  0.67825339  0.09833878  1
  O2-  O148  1  0.06430924  0.67850908  0.43447190  1
  O2-  O149  1  0.07507543  0.67541762  0.75538156  1
  O2-  O150  1  0.57348152  0.17604395  0.09171249  1
  O2-  O151  1  0.57363739  0.18320290  0.42389888  1
  O2-  O152  1  0.56966524  0.18125013  0.76682509  1
  O2-  O153  1  0.56685537  0.68165899  0.10251046  1
  O2-  O154  1  0.57115344  0.67466850  0.42009642  1
  O2-  O155  1  0.57135561  0.67487036  0.76411707  1
  O2-  O156  1  0.18170278  0.43029553  0.23362989  1
  O2-  O157  1  0.17829610  0.42779862  0.57856583  1
  O2-  O158  1  0.18323646  0.42810142  0.90787684  1
  O2-  O159  1  0.18010072  0.92701069  0.24634450  1
  O2-  O160  1  0.18071432  0.92733737  0.57442782  1
  O2-  O161  1  0.17896947  0.92967206  0.90119637  1
  O2-  O162  1  0.67381190  0.42690099  0.24725690  1
  O2-  O163  1  0.68004492  0.42985278  0.57561155  1
  O2-  O164  1  0.67564146  0.43104773  0.90111298  1
  O2-  O165  1  0.67816294  0.92683370  0.24729664  1
  O2-  O166  1  0.67796184  0.93175860  0.57568339  1
  O2-  O167  1  0.67789570  0.92929281  0.89891822  1
  O2-  O168  1  0.42976280  0.32038501  0.10144618  1
  O2-  O169  1  0.43286680  0.32044276  0.42556765  1
  O2-  O170  1  0.42781065  0.32513106  0.75263144  1
  O2-  O171  1  0.43155633  0.82455475  0.09108656  1
  O2-  O172  1  0.43212413  0.82042673  0.42910563  1
  O2-  O173  1  0.42597235  0.81996371  0.76703969  1
  O2-  O174  1  0.92877659  0.31887727  0.09905526  1
  O2-  O175  1  0.92597286  0.32286741  0.42459225  1
  O2-  O176  1  0.92993756  0.32477001  0.75406266  1
  O2-  O177  1  0.92766938  0.81833573  0.10032808  1
  O2-  O178  1  0.92796062  0.82108043  0.42248377  1
  O2-  O179  1  0.92894120  0.82004144  0.76400971  1
  O2-  O180  1  0.31876398  0.07325687  0.23701909  1
  O2-  O181  1  0.32178672  0.07251463  0.57560904  1
  O2-  O182  1  0.32224183  0.07079815  0.89899555  1
  O2-  O183  1  0.32684843  0.57059702  0.24664097  1
  O2-  O184  1  0.31772619  0.56833421  0.57497795  1
  O2-  O185  1  0.32359860  0.56885174  0.89883139  1
  O2-  O186  1  0.81726326  0.07077835  0.23396232  1
  O2-  O187  1  0.82197329  0.06968637  0.56853155  1
  O2-  O188  1  0.82139972  0.07168859  0.90963339  1
  O2-  O189  1  0.82199233  0.56998551  0.24582952  1
  O2-  O190  1  0.82223998  0.56863375  0.57512641  1
  O2-  O191  1  0.81716422  0.57289937  0.90048180  1
  O2-  O192  1  0.04349154  0.08170753  0.26722218  1
  O2-  O193  1  0.04139725  0.08402985  0.59542416  1
  O2-  O194  1  0.04544337  0.07968733  0.93213264  1
  O2-  O195  1  0.03719482  0.58130188  0.26834123  1
  O2-  O196  1  0.04507316  0.58106768  0.60606130  1
  O2-  O197  1  0.05159332  0.57863229  0.93174999  1
  O2-  O198  1  0.54882954  0.08680914  0.27402621  1
  O2-  O199  1  0.54372754  0.08514425  0.59582270  1
  O2-  O200  1  0.54556345  0.08279822  0.93900629  1
  O2-  O201  1  0.54630077  0.58064307  0.27107910  1
  O2-  O202  1  0.54110521  0.57995664  0.59520996  1
  O2-  O203  1  0.53675042  0.58492637  0.93543654  1
  O2-  O204  1  0.16880845  0.21413053  0.26857924  1
  O2-  O205  1  0.16704032  0.21343167  0.59692443  1
  O2-  O206  1  0.16673980  0.21165875  0.92846785  1
  O2-  O207  1  0.16682215  0.70405768  0.26903074  1
  O2-  O208  1  0.16485753  0.70091763  0.60207360  1
  O2-  O209  1  0.17318413  0.70851828  0.93239469  1
  O2-  O210  1  0.66386217  0.21089194  0.27136427  1
  O2-  O211  1  0.66707329  0.21583559  0.59906378  1
  O2-  O212  1  0.66614807  0.19971986  0.93888132  1
  O2-  O213  1  0.66737351  0.69933461  0.27131320  1
  O2-  O214  1  0.66892505  0.70323848  0.59373942  1
  O2-  O215  1  0.66479241  0.71069817  0.93602373  1
  O2-  O216  1  0.08303408  0.44650827  0.05791073  1
  O2-  O217  1  0.08246670  0.45956201  0.40351412  1
  O2-  O218  1  0.08526799  0.45242956  0.73039620  1
  O2-  O219  1  0.07800116  0.95482198  0.06909377  1
  O2-  O220  1  0.08333332  0.94925488  0.39549687  1
  O2-  O221  1  0.08989953  0.95922044  0.72656131  1
  O2-  O222  1  0.58204498  0.46031300  0.07034571  1
  O2-  O223  1  0.58609249  0.45667495  0.40209567  1
  O2-  O224  1  0.58259097  0.45349653  0.72442434  1
  O2-  O225  1  0.58558987  0.96007015  0.07151821  1
  O2-  O226  1  0.58492779  0.95562359  0.39845511  1
  O2-  O227  1  0.58403313  0.95546436  0.72652852  1
  O2-  O228  1  0.21104116  0.33725068  0.05981508  1
  O2-  O229  1  0.21470290  0.33734256  0.40487827  1
  O2-  O230  1  0.20851569  0.33642472  0.73124510  1
  O2-  O231  1  0.20539674  0.83200764  0.07078763  1
  O2-  O232  1  0.20684116  0.83288252  0.39728071  1
  O2-  O233  1  0.20547758  0.83518697  0.72658747  1
  O2-  O234  1  0.70098713  0.32763262  0.06908147  1
  O2-  O235  1  0.70617516  0.33784672  0.40113894  1
  O2-  O236  1  0.70717962  0.34036284  0.73006311  1
  O2-  O237  1  0.71008343  0.83410740  0.07066591  1
  O2-  O238  1  0.69866480  0.83127328  0.39840797  1
  O2-  O239  1  0.70252305  0.83227545  0.72213520  1
  O2-  O240  1  0.45783746  0.41338597  0.27496568  1
  O2-  O241  1  0.45354690  0.41391422  0.59772191  1
  O2-  O242  1  0.46316142  0.41531512  0.93144668  1
  O2-  O243  1  0.46309174  0.91819932  0.26243558  1
  O2-  O244  1  0.45469737  0.91928774  0.59805307  1
  O2-  O245  1  0.45512934  0.91930834  0.94124070  1
  O2-  O246  1  0.95142448  0.41604535  0.27437338  1
  O2-  O247  1  0.95473631  0.41702544  0.60247950  1
  O2-  O248  1  0.95488479  0.41806095  0.92906101  1
  O2-  O249  1  0.95055270  0.91546667  0.27077207  1
  O2-  O250  1  0.96573177  0.91479875  0.59552520  1
  O2-  O251  1  0.95479045  0.91812300  0.93254705  1
  O2-  O252  1  0.33827482  0.29272468  0.27453221  1
  O2-  O253  1  0.33294598  0.29714123  0.60241846  1
  O2-  O254  1  0.33648701  0.29193777  0.92752791  1
  O2-  O255  1  0.33401195  0.79315648  0.26211427  1
  O2-  O256  1  0.33045612  0.78991692  0.59677016  1
  O2-  O257  1  0.33372690  0.80185427  0.94239576  1
  O2-  O258  1  0.83162618  0.29772679  0.27426569  1
  O2-  O259  1  0.83334205  0.30047076  0.60432682  1
  O2-  O260  1  0.82511087  0.29900030  0.93397197  1
  O2-  O261  1  0.83077712  0.79661939  0.27493129  1
  O2-  O262  1  0.83536788  0.79256926  0.59266153  1
  O2-  O263  1  0.83030466  0.78979713  0.93283152  1
  O2-  O264  1  0.41827172  0.04822254  0.06933294  1
  O2-  O265  1  0.41843716  0.03924195  0.40094619  1
  O2-  O266  1  0.41655491  0.04739898  0.72604492  1
  O2-  O267  1  0.41387675  0.53481400  0.07009364  1
  O2-  O268  1  0.41523051  0.54430066  0.40041321  1
  O2-  O269  1  0.41212932  0.54057662  0.72534826  1
  O2-  O270  1  0.91620505  0.04650387  0.06110971  1
  O2-  O271  1  0.91838996  0.03928297  0.40076009  1
  O2-  O272  1  0.92019708  0.03820186  0.73285080  1
  O2-  O273  1  0.92241330  0.54292487  0.06509384  1
  O2-  O274  1  0.91011839  0.54107164  0.40153627  1
  O2-  O275  1  0.91083157  0.54293224  0.72909492  1
  O2-  O276  1  0.29202657  0.17302333  0.06348503  1
  O2-  O277  1  0.29176426  0.16691663  0.40597275  1
  O2-  O278  1  0.29380631  0.16392631  0.72659258  1
  O2-  O279  1  0.29655432  0.66864685  0.06776542  1
  O2-  O280  1  0.29871066  0.66879638  0.39521448  1
  O2-  O281  1  0.29315753  0.66211393  0.72722283  1
  O2-  O282  1  0.79733196  0.16524096  0.06230513  1
  O2-  O283  1  0.78892583  0.16585587  0.40277319  1
  O2-  O284  1  0.79226422  0.16824695  0.73372006  1
  O2-  O285  1  0.79003069  0.66619248  0.07086268  1
  O2-  O286  1  0.79286232  0.66251541  0.39861676  1
  O2-  O287  1  0.79567822  0.66731064  0.72318244  1
