# generated using pymatgen
data_Ca2Al2SiO7
_symmetry_space_group_name_H-M   'P 1'
_cell_length_a   15.46256079
_cell_length_b   15.46329849
_cell_length_c   15.28637808
_cell_angle_alpha   89.99057938
_cell_angle_beta   89.98300615
_cell_angle_gamma   90.01425005
_symmetry_Int_Tables_number   1
_chemical_formula_structural   Ca2Al2SiO7
_chemical_formula_sum   'Ca48 Al48 Si24 O168'
_cell_volume   3655.00619880
_cell_formula_units_Z   24
loop_
 _symmetry_equiv_pos_site_id
 _symmetry_equiv_pos_as_xyz
  1  'x, y, z'
loop_
 _atom_type_symbol
 _atom_type_oxidation_number
  Ca2+  2.0
  Al0+  0.0
  Si0+  0.0
  O2-  -2.0
loop_
 _atom_site_type_symbol
 _atom_site_label
 _atom_site_symmetry_multiplicity
 _atom_site_fract_x
 _atom_site_fract_y
 _atom_site_fract_z
 _atom_site_occupancy
  Ca2+  Ca0  1  0.17071265  0.07739984  0.16350949  1
  Ca2+  Ca1  1  0.16375448  0.07764731  0.50878998  1
  Ca2+  Ca2  1  0.16544249  0.07309386  0.83659132  1
  Ca2+  Ca3  1  0.17571867  0.57591760  0.17239728  1
  Ca2+  Ca4  1  0.17074494  0.57891148  0.49905121  1
  Ca2+  Ca5  1  0.17509548  0.57508062  0.84331786  1
  Ca2+  Ca6  1  0.67841852  0.08567524  0.17232650  1
  Ca2+  Ca7  1  0.67837260  0.08237221  0.50496907  1
  Ca2+  Ca8  1  0.67997682  0.08449408  0.83801517  1
  Ca2+  Ca9  1  0.66998364  0.58597894  0.16697792  1
  Ca2+  Ca10  1  0.67215145  0.59154122  0.50312721  1
  Ca2+  Ca11  1  0.67162213  0.58394200  0.83814723  1
  Ca2+  Ca12  1  0.07948767  0.34331123  0.16488988  1
  Ca2+  Ca13  1  0.07292874  0.33212170  0.49571179  1
  Ca2+  Ca14  1  0.07983467  0.32629474  0.82368200  1
  Ca2+  Ca15  1  0.08292822  0.83248384  0.16230752  1
  Ca2+  Ca16  1  0.07941224  0.83597128  0.50309937  1
  Ca2+  Ca17  1  0.08264621  0.83592938  0.82695756  1
  Ca2+  Ca18  1  0.58491907  0.33634206  0.16070518  1
  Ca2+  Ca19  1  0.57863019  0.33473632  0.50084609  1
  Ca2+  Ca20  1  0.57909956  0.33712935  0.83047330  1
  Ca2+  Ca21  1  0.57851389  0.82057723  0.16271063  1
  Ca2+  Ca22  1  0.57641003  0.82393303  0.49396262  1
  Ca2+  Ca23  1  0.57790325  0.82049863  0.82458314  1
  Ca2+  Ca24  1  0.32404201  0.42743645  0.17054446  1
  Ca2+  Ca25  1  0.33294739  0.41990117  0.50266365  1
  Ca2+  Ca26  1  0.32955746  0.41850989  0.84217141  1
  Ca2+  Ca27  1  0.33285116  0.91480470  0.16877425  1
  Ca2+  Ca28  1  0.33114245  0.90986734  0.50776727  1
  Ca2+  Ca29  1  0.32429621  0.91579239  0.83753440  1
  Ca2+  Ca30  1  0.82892234  0.42622640  0.17240114  1
  Ca2+  Ca31  1  0.83993285  0.42575137  0.50465827  1
  Ca2+  Ca32  1  0.83136266  0.42712210  0.83843645  1
  Ca2+  Ca33  1  0.83303223  0.92874963  0.17062508  1
  Ca2+  Ca34  1  0.83966459  0.92680538  0.50940838  1
  Ca2+  Ca35  1  0.84164312  0.92728104  0.83451612  1
  Ca2+  Ca36  1  0.41607538  0.16651575  0.15946397  1
  Ca2+  Ca37  1  0.41376113  0.17498400  0.49779163  1
  Ca2+  Ca38  1  0.41209703  0.17294583  0.82766714  1
  Ca2+  Ca39  1  0.42248250  0.65876292  0.16231911  1
  Ca2+  Ca40  1  0.42521483  0.67338974  0.49168690  1
  Ca2+  Ca41  1  0.42694909  0.66339952  0.82625497  1
  Ca2+  Ca42  1  0.91200550  0.17151719  0.16440943  1
  Ca2+  Ca43  1  0.91593207  0.17341732  0.49764882  1
  Ca2+  Ca44  1  0.91998743  0.17111768  0.82230434  1
  Ca2+  Ca45  1  0.91391186  0.66207277  0.16149809  1
  Ca2+  Ca46  1  0.90918277  0.67019157  0.49654209  1
  Ca2+  Ca47  1  0.91451175  0.67012258  0.82556228  1
  Al0+  Al48  1  0.00063794  0.00158379  0.00860603  1
  Al0+  Al49  1  0.00146300  0.00200154  0.33546082  1
  Al0+  Al50  1  0.00248978  -0.00105466  0.66772219  1
  Al0+  Al51  1  -0.00130370  0.50141777  0.00226510  1
  Al0+  Al52  1  -0.00142349  0.49973397  0.33654342  1
  Al0+  Al53  1  0.00159290  0.49957114  0.66863631  1
  Al0+  Al54  1  0.50122478  -0.00048314  -0.00005482  1
  Al0+  Al55  1  0.50008757  0.00011914  0.32976574  1
  Al0+  Al56  1  0.50095986  0.00010616  0.66472720  1
  Al0+  Al57  1  0.50088710  0.49857848  0.00098116  1
  Al0+  Al58  1  0.49962883  0.49931220  0.33260373  1
  Al0+  Al59  1  0.50158765  0.49890162  0.65787114  1
  Al0+  Al60  1  0.24796003  0.24746937  0.00601562  1
  Al0+  Al61  1  0.24778941  0.24706876  0.33510664  1
  Al0+  Al62  1  0.25014725  0.24895468  0.65735368  1
  Al0+  Al63  1  0.24877203  0.74996746  0.00599089  1
  Al0+  Al64  1  0.24813774  0.75040683  0.33409290  1
  Al0+  Al65  1  0.25029123  0.74863241  0.66892380  1
  Al0+  Al66  1  0.75004537  0.25142946  0.00486068  1
  Al0+  Al67  1  0.75123846  0.25095009  0.33432449  1
  Al0+  Al68  1  0.74941480  0.25190200  0.66745736  1
  Al0+  Al69  1  0.74940938  0.75245787  -0.00286178  1
  Al0+  Al70  1  0.74718325  0.75192431  0.33082721  1
  Al0+  Al71  1  0.75154727  0.75143290  0.66314656  1
  Al0+  Al72  1  0.42714696  0.82113217  0.65366104  1
  Al0+  Al73  1  0.17828738  0.42753969  0.35127586  1
  Al0+  Al74  1  0.42910444  0.31966655  0.65344892  1
  Al0+  Al75  1  0.67944082  0.42952325  0.01387895  1
  Al0+  Al76  1  0.57093639  0.67783499  0.31422909  1
  Al0+  Al77  1  0.07015080  0.17802000  0.65201616  1
  Al0+  Al78  1  0.17905445  0.92822732  0.01667581  1
  Al0+  Al79  1  0.93156596  0.81976826  0.65484866  1
  Al0+  Al80  1  0.32293210  0.07021942  0.01322611  1
  Al0+  Al81  1  0.82068010  0.07136003  0.68070700  1
  Al0+  Al82  1  0.81842551  0.57205176  0.34764196  1
  Al0+  Al83  1  0.82060812  0.07116681  0.01412536  1
  Al0+  Al84  1  0.57236689  0.67874811  0.65003333  1
  Al0+  Al85  1  0.17703773  0.42686267  0.01286838  1
  Al0+  Al86  1  0.81994256  0.57434872  0.01373649  1
  Al0+  Al87  1  0.42646533  0.82159341  0.31585726  1
  Al0+  Al88  1  0.32231263  0.57038029  0.01257066  1
  Al0+  Al89  1  0.92997985  0.32122204  0.31720947  1
  Al0+  Al90  1  0.92755470  0.32310656  0.65283837  1
  Al0+  Al91  1  0.32176797  0.57131187  0.35095254  1
  Al0+  Al92  1  0.18139022  0.92827577  0.67987940  1
  Al0+  Al93  1  0.82142394  0.07119319  0.34981105  1
  Al0+  Al94  1  0.56994861  0.67810446  0.98357934  1
  Al0+  Al95  1  0.82174719  0.57207483  0.67998767  1
  Si0+  Si96  1  0.32300160  0.06981113  0.34941066  1
  Si0+  Si97  1  0.67732502  0.42665461  0.35163075  1
  Si0+  Si98  1  0.67755319  0.92830846  0.01616287  1
  Si0+  Si99  1  0.07361740  0.67580787  0.65099681  1
  Si0+  Si100  1  0.17925682  0.92921058  0.35032193  1
  Si0+  Si101  1  0.67773817  0.93030714  0.35021148  1
  Si0+  Si102  1  0.32204667  0.56853490  0.68035852  1
  Si0+  Si103  1  0.06839110  0.67980265  0.31884701  1
  Si0+  Si104  1  0.92897446  0.82383445  0.31830499  1
  Si0+  Si105  1  0.57040892  0.18046376  0.31819538  1
  Si0+  Si106  1  0.07120190  0.67866154  0.98582318  1
  Si0+  Si107  1  0.18056820  0.42690196  0.68091204  1
  Si0+  Si108  1  0.32388412  0.07372438  0.68060272  1
  Si0+  Si109  1  0.92805269  0.32182559  0.98529898  1
  Si0+  Si110  1  0.42670855  0.31944854  0.31606198  1
  Si0+  Si111  1  0.57379975  0.17686000  0.65064137  1
  Si0+  Si112  1  0.67632146  0.42900461  0.68259660  1
  Si0+  Si113  1  0.93077879  0.82315870  0.98658769  1
  Si0+  Si114  1  0.07214327  0.17630510  0.31265690  1
  Si0+  Si115  1  0.42625389  0.82287406  0.98222403  1
  Si0+  Si116  1  0.57385493  0.17771832  0.98544023  1
  Si0+  Si117  1  0.67708251  0.92814013  0.68332801  1
  Si0+  Si118  1  0.42876643  0.31745722  0.98750566  1
  Si0+  Si119  1  0.06973537  0.17870300  0.98586319  1
  O2-  O120  1  0.25591094  -0.00468025  0.06614728  1
  O2-  O121  1  0.25416799  -0.00318755  0.39097114  1
  O2-  O122  1  0.25858979  0.00186328  0.72419784  1
  O2-  O123  1  0.24752397  0.50064901  0.06146162  1
  O2-  O124  1  0.25246520  0.49687469  0.40208371  1
  O2-  O125  1  0.25185373  0.49709489  0.72373790  1
  O2-  O126  1  0.74409432  -0.00118806  0.06133187  1
  O2-  O127  1  0.74913239  -0.00523319  0.39655662  1
  O2-  O128  1  0.74521921  -0.00243696  0.72825757  1
  O2-  O129  1  0.74914006  0.50246780  0.06486677  1
  O2-  O130  1  0.74288488  0.49845189  0.39489981  1
  O2-  O131  1  0.74684656  0.49661525  0.72516357  1
  O2-  O132  1  0.00574645  0.24754823  0.26896186  1
  O2-  O133  1  -0.00262143  0.24917813  0.60240951  1
  O2-  O134  1  0.00043961  0.25155343  0.94388428  1
  O2-  O135  1  -0.00403095  0.74959442  0.27544732  1
  O2-  O136  1  0.00183832  0.74151827  0.60681874  1
  O2-  O137  1  0.00006132  0.75020627  0.94435075  1
  O2-  O138  1  0.49954163  0.25043011  0.27364245  1
  O2-  O139  1  0.50241768  0.24310906  0.60670634  1
  O2-  O140  1  0.49914526  0.24561984  0.94419421  1
  O2-  O141  1  0.49427799  0.74612813  0.26539019  1
  O2-  O142  1  0.49976190  0.75129553  0.60243355  1
  O2-  O143  1  0.49236212  0.75144351  0.93853954  1
  O2-  O144  1  0.06854188  0.17694508  0.09081145  1
  O2-  O145  1  0.07113806  0.17313858  0.41791262  1
  O2-  O146  1  0.07102824  0.17996242  0.76636636  1
  O2-  O147  1  0.07012569  0.67861275  0.09103289  1
  O2-  O148  1  0.06894947  0.68205944  0.42399870  1
  O2-  O149  1  0.07485762  0.67616888  0.75691181  1
  O2-  O150  1  0.57475321  0.17929257  0.09066717  1
  O2-  O151  1  0.56823113  0.18094464  0.42327163  1
  O2-  O152  1  0.57421579  0.17786842  0.75645406  1
  O2-  O153  1  0.57061769  0.68012430  0.09620240  1
  O2-  O154  1  0.57295358  0.68208858  0.42750959  1
  O2-  O155  1  0.56978664  0.67726480  0.76401385  1
  O2-  O156  1  0.17992152  0.43071772  0.23762034  1
  O2-  O157  1  0.18103748  0.42848403  0.57625085  1
  O2-  O158  1  0.17958407  0.42589543  0.89854511  1
  O2-  O159  1  0.17611438  0.93127355  0.24543100  1
  O2-  O160  1  0.18123445  0.92935092  0.56654021  1
  O2-  O161  1  0.17618396  0.93080581  0.90327080  1
  O2-  O162  1  0.67957720  0.42347216  0.24617742  1
  O2-  O163  1  0.67425975  0.42797418  0.57715244  1
  O2-  O164  1  0.68064271  0.42728772  0.90026205  1
  O2-  O165  1  0.67936999  0.93403396  0.24440511  1
  O2-  O166  1  0.67753561  0.93087847  0.57775513  1
  O2-  O167  1  0.67873577  0.93015384  0.91063149  1
  O2-  O168  1  0.42992348  0.31544204  0.09260331  1
  O2-  O169  1  0.42726087  0.31689658  0.42132859  1
  O2-  O170  1  0.42785672  0.31964092  0.76704726  1
  O2-  O171  1  0.42922394  0.82484313  0.08756887  1
  O2-  O172  1  0.42932731  0.82336080  0.42929721  1
  O2-  O173  1  0.42671851  0.81854509  0.76735629  1
  O2-  O174  1  0.92796574  0.32059333  0.09032509  1
  O2-  O175  1  0.92990981  0.31952274  0.43001495  1
  O2-  O176  1  0.93044590  0.32287887  0.76709568  1
  O2-  O177  1  0.93199183  0.82385377  0.09210540  1
  O2-  O178  1  0.93196579  0.82549980  0.42330187  1
  O2-  O179  1  0.93419336  0.82123943  0.76830534  1
  O2-  O180  1  0.32263146  0.07111275  0.24446361  1
  O2-  O181  1  0.32261813  0.07479612  0.57480598  1
  O2-  O182  1  0.32025657  0.07325444  0.89978071  1
  O2-  O183  1  0.31905857  0.56933500  0.23738918  1
  O2-  O184  1  0.31977228  0.56793595  0.57567138  1
  O2-  O185  1  0.32150853  0.56675277  0.89815969  1
  O2-  O186  1  0.81955348  0.06997227  0.23638938  1
  O2-  O187  1  0.81896316  0.07013223  0.56765361  1
  O2-  O188  1  0.82191107  0.07069873  0.90104477  1
  O2-  O189  1  0.81922075  0.57098517  0.23474998  1
  O2-  O190  1  0.82091130  0.57144020  0.56693094  1
  O2-  O191  1  0.82120535  0.57301019  0.90014084  1
  O2-  O192  1  0.04284617  0.08363188  0.26574625  1
  O2-  O193  1  0.04259391  0.08002658  0.59898745  1
  O2-  O194  1  0.03913809  0.08691623  0.93962568  1
  O2-  O195  1  0.04128075  0.58799346  0.27191823  1
  O2-  O196  1  0.05181458  0.58167085  0.60531942  1
  O2-  O197  1  0.04396793  0.58706733  0.93678159  1
  O2-  O198  1  0.54387814  0.08911934  0.26930658  1
  O2-  O199  1  0.55252119  0.08297510  0.60357288  1
  O2-  O200  1  0.55148075  0.08460441  0.93810276  1
  O2-  O201  1  0.54670789  0.57651643  0.26468461  1
  O2-  O202  1  0.54522715  0.58134275  0.59563410  1
  O2-  O203  1  0.54065813  0.57993628  0.93100719  1
  O2-  O204  1  0.16769991  0.19820168  0.26837574  1
  O2-  O205  1  0.16733498  0.20461065  0.59585978  1
  O2-  O206  1  0.16267706  0.20411105  0.93932286  1
  O2-  O207  1  0.15901262  0.70993271  0.27041472  1
  O2-  O208  1  0.16526225  0.70520318  0.60363070  1
  O2-  O209  1  0.16364608  0.70575109  0.93857568  1
  O2-  O210  1  0.66231122  0.20879886  0.27107037  1
  O2-  O211  1  0.66513485  0.20635542  0.60221807  1
  O2-  O212  1  0.66421307  0.20982511  0.93699550  1
  O2-  O213  1  0.66810554  0.71220240  0.26028715  1
  O2-  O214  1  0.66987590  0.70915636  0.59755279  1
  O2-  O215  1  0.66635253  0.71276260  0.93013855  1
  O2-  O216  1  0.07959370  0.45643578  0.06560861  1
  O2-  O217  1  0.08135118  0.46004428  0.40386083  1
  O2-  O218  1  0.08953059  0.45414637  0.72987171  1
  O2-  O219  1  0.08430835  0.96257376  0.07375685  1
  O2-  O220  1  0.08910513  0.96158117  0.39847339  1
  O2-  O221  1  0.08678019  0.96163355  0.73600311  1
  O2-  O222  1  0.58072965  0.45349377  0.06728196  1
  O2-  O223  1  0.58157167  0.44716632  0.39496919  1
  O2-  O224  1  0.58267942  0.45615901  0.72876935  1
  O2-  O225  1  0.58380249  0.95086139  0.06254049  1
  O2-  O226  1  0.58523128  0.96042827  0.39598804  1
  O2-  O227  1  0.58310363  0.95249168  0.73009023  1
  O2-  O228  1  0.20409615  0.33010446  0.06821244  1
  O2-  O229  1  0.20372635  0.32672414  0.40081969  1
  O2-  O230  1  0.20945367  0.33408983  0.72553709  1
  O2-  O231  1  0.20055272  0.82918310  0.07063912  1
  O2-  O232  1  0.20116707  0.83636428  0.39735421  1
  O2-  O233  1  0.20867663  0.83102659  0.73561616  1
  O2-  O234  1  0.70747442  0.33243581  0.06988736  1
  O2-  O235  1  0.70465839  0.33413564  0.39896766  1
  O2-  O236  1  0.69788080  0.33455487  0.72896364  1
  O2-  O237  1  0.70715445  0.83687083  0.06341102  1
  O2-  O238  1  0.70004217  0.83568391  0.39408531  1
  O2-  O239  1  0.70423478  0.83505641  0.72860754  1
  O2-  O240  1  0.45273424  0.41181804  0.27001906  1
  O2-  O241  1  0.46177543  0.41296317  0.59470872  1
  O2-  O242  1  0.45720579  0.40829727  0.93893048  1
  O2-  O243  1  0.45796226  0.92007366  0.26287320  1
  O2-  O244  1  0.45094593  0.92169951  0.60207123  1
  O2-  O245  1  0.45345775  0.91650558  0.93594500  1
  O2-  O246  1  0.96068915  0.41874205  0.26439975  1
  O2-  O247  1  0.96051762  0.42020387  0.59972662  1
  O2-  O248  1  0.95409330  0.41464668  0.93873693  1
  O2-  O249  1  0.96212226  0.91418299  0.27027258  1
  O2-  O250  1  0.96733476  0.91369557  0.59904668  1
  O2-  O251  1  0.96221457  0.91503060  0.94090478  1
  O2-  O252  1  0.33532950  0.28794871  0.27017827  1
  O2-  O253  1  0.33530796  0.28941110  0.59388012  1
  O2-  O254  1  0.33627333  0.28919518  0.94096724  1
  O2-  O255  1  0.32467417  0.79930184  0.26691879  1
  O2-  O256  1  0.32925892  0.79096724  0.60066702  1
  O2-  O257  1  0.32962872  0.80073242  0.94091574  1
  O2-  O258  1  0.83296334  0.28837338  0.26437129  1
  O2-  O259  1  0.82785375  0.29856243  0.60138851  1
  O2-  O260  1  0.83646822  0.29174860  0.93887003  1
  O2-  O261  1  0.83535087  0.80210703  0.27235655  1
  O2-  O262  1  0.83471246  0.79601285  0.59870774  1
  O2-  O263  1  0.83843092  0.80000864  0.93856845  1
  O2-  O264  1  0.42376419  0.04881964  0.06522663  1
  O2-  O265  1  0.41642366  0.04658281  0.39554584  1
  O2-  O266  1  0.41955581  0.05484412  0.72538183  1
  O2-  O267  1  0.41765818  0.53742537  0.06679335  1
  O2-  O268  1  0.42114479  0.54300641  0.40165757  1
  O2-  O269  1  0.41474925  0.53904665  0.72452943  1
  O2-  O270  1  0.91428166  0.03895665  0.07165264  1
  O2-  O271  1  0.91878829  0.04069928  0.40154164  1
  O2-  O272  1  0.91657998  0.03766977  0.73364663  1
  O2-  O273  1  0.91836287  0.54674263  0.06631232  1
  O2-  O274  1  0.91495127  0.54205829  0.40143755  1
  O2-  O275  1  0.91951175  0.54294539  0.73406300  1
  O2-  O276  1  0.29061221  0.16525818  0.07086815  1
  O2-  O277  1  0.29309810  0.16064942  0.39752248  1
  O2-  O278  1  0.29485955  0.16697632  0.72584546  1
  O2-  O279  1  0.29699360  0.66846711  0.06592510  1
  O2-  O280  1  0.28887320  0.66942021  0.40212107  1
  O2-  O281  1  0.29375021  0.65922733  0.72899354  1
  O2-  O282  1  0.78896770  0.16651449  0.06905277  1
  O2-  O283  1  0.78700712  0.16695197  0.40208258  1
  O2-  O284  1  0.79007609  0.16861120  0.73414386  1
  O2-  O285  1  0.79406077  0.67393493  0.06499098  1
  O2-  O286  1  0.79053381  0.67151074  0.39829171  1
  O2-  O287  1  0.79316865  0.67033655  0.73211970  1
