# generated using pymatgen
data_Ca2Al2SiO7
_symmetry_space_group_name_H-M   'P 1'
_cell_length_a   15.45852843
_cell_length_b   15.45973496
_cell_length_c   15.28432369
_cell_angle_alpha   89.99135796
_cell_angle_beta   89.99401357
_cell_angle_gamma   89.98033497
_symmetry_Int_Tables_number   1
_chemical_formula_structural   Ca2Al2SiO7
_chemical_formula_sum   'Ca48 Al48 Si24 O168'
_cell_volume   3652.72003482
_cell_formula_units_Z   24
loop_
 _symmetry_equiv_pos_site_id
 _symmetry_equiv_pos_as_xyz
  1  'x, y, z'
loop_
 _atom_type_symbol
 _atom_type_oxidation_number
  Ca2+  2.0
  Al0+  0.0
  Si0+  0.0
  O2-  -2.0
loop_
 _atom_site_type_symbol
 _atom_site_label
 _atom_site_symmetry_multiplicity
 _atom_site_fract_x
 _atom_site_fract_y
 _atom_site_fract_z
 _atom_site_occupancy
  Ca2+  Ca0  1  0.17148697  0.08765303  0.17781491  1
  Ca2+  Ca1  1  0.16826190  0.09113324  0.50204433  1
  Ca2+  Ca2  1  0.16442802  0.08454062  0.83224589  1
  Ca2+  Ca3  1  0.17556205  0.57832236  0.16624403  1
  Ca2+  Ca4  1  0.17224848  0.58514977  0.50604123  1
  Ca2+  Ca5  1  0.17010580  0.57901904  0.84522635  1
  Ca2+  Ca6  1  0.67122678  0.08648178  0.17300070  1
  Ca2+  Ca7  1  0.67726196  0.08081715  0.51311251  1
  Ca2+  Ca8  1  0.66230810  0.08824897  0.83186424  1
  Ca2+  Ca9  1  0.66356782  0.57411344  0.17799694  1
  Ca2+  Ca10  1  0.66547407  0.58071230  0.50515034  1
  Ca2+  Ca11  1  0.67277760  0.58667617  0.83110432  1
  Ca2+  Ca12  1  0.08013570  0.33215068  0.16226228  1
  Ca2+  Ca13  1  0.07365646  0.32355261  0.50064621  1
  Ca2+  Ca14  1  0.07626538  0.33616194  0.82714277  1
  Ca2+  Ca15  1  0.07769027  0.82993322  0.16546818  1
  Ca2+  Ca16  1  0.07680676  0.82791521  0.49625709  1
  Ca2+  Ca17  1  0.08680633  0.81807776  0.82794147  1
  Ca2+  Ca18  1  0.57319400  0.33363412  0.16318305  1
  Ca2+  Ca19  1  0.57596839  0.33620533  0.49657225  1
  Ca2+  Ca20  1  0.57154082  0.32619090  0.82819396  1
  Ca2+  Ca21  1  0.58373465  0.82522898  0.16678224  1
  Ca2+  Ca22  1  0.59267788  0.82324068  0.50224891  1
  Ca2+  Ca23  1  0.57765404  0.82964575  0.82075160  1
  Ca2+  Ca24  1  0.33639725  0.42132320  0.17214162  1
  Ca2+  Ca25  1  0.33818435  0.41705963  0.50106200  1
  Ca2+  Ca26  1  0.32979373  0.41812218  0.84152844  1
  Ca2+  Ca27  1  0.32965190  0.92714630  0.17404047  1
  Ca2+  Ca28  1  0.33777206  0.92274823  0.50471294  1
  Ca2+  Ca29  1  0.33660458  0.91578082  0.83447835  1
  Ca2+  Ca30  1  0.82595148  0.41298834  0.17038780  1
  Ca2+  Ca31  1  0.82708064  0.41921128  0.50828527  1
  Ca2+  Ca32  1  0.84126118  0.41776636  0.83465569  1
  Ca2+  Ca33  1  0.83435131  0.92254715  0.17705703  1
  Ca2+  Ca34  1  0.83204239  0.92313162  0.50720517  1
  Ca2+  Ca35  1  0.82680000  0.92349096  0.83042723  1
  Ca2+  Ca36  1  0.41764355  0.17840076  0.16147453  1
  Ca2+  Ca37  1  0.41985491  0.17642122  0.49543023  1
  Ca2+  Ca38  1  0.42323658  0.17702284  0.82587319  1
  Ca2+  Ca39  1  0.41801972  0.65615522  0.16725565  1
  Ca2+  Ca40  1  0.42691804  0.66884346  0.49585791  1
  Ca2+  Ca41  1  0.41965133  0.67030107  0.82380627  1
  Ca2+  Ca42  1  0.91934975  0.16977648  0.16475019  1
  Ca2+  Ca43  1  0.92310198  0.15541402  0.49691179  1
  Ca2+  Ca44  1  0.91990910  0.17958008  0.82371364  1
  Ca2+  Ca45  1  0.92084774  0.67389277  0.16168478  1
  Ca2+  Ca46  1  0.91688923  0.66862366  0.49816080  1
  Ca2+  Ca47  1  0.92964515  0.65849493  0.82511120  1
  Al0+  Al48  1  -0.00226433  -0.00059211  0.00022980  1
  Al0+  Al49  1  0.00031237  -0.00171521  0.32755657  1
  Al0+  Al50  1  0.00099794  -0.00117425  0.67183255  1
  Al0+  Al51  1  0.00110914  0.50118849  0.00086209  1
  Al0+  Al52  1  0.00084455  0.49912590  0.33193252  1
  Al0+  Al53  1  0.00126360  0.49855042  0.65981384  1
  Al0+  Al54  1  0.50154657  -0.00258174  0.00059187  1
  Al0+  Al55  1  0.49997699  -0.00179801  0.33806952  1
  Al0+  Al56  1  0.49902727  0.00156934  0.66510711  1
  Al0+  Al57  1  0.50207605  0.50017950  -0.00234530  1
  Al0+  Al58  1  0.49975718  0.49968198  0.33433155  1
  Al0+  Al59  1  0.49994617  0.50172099  0.66308593  1
  Al0+  Al60  1  0.24886536  0.24953780  0.00061441  1
  Al0+  Al61  1  0.24917959  0.25066603  0.33036126  1
  Al0+  Al62  1  0.24800137  0.25110161  0.66200393  1
  Al0+  Al63  1  0.25012569  0.75069767  0.00330020  1
  Al0+  Al64  1  0.25071729  0.74971621  0.33645942  1
  Al0+  Al65  1  0.25049083  0.75101530  0.65888008  1
  Al0+  Al66  1  0.75165266  0.24971795  -0.00631216  1
  Al0+  Al67  1  0.74996840  0.24969935  0.34373095  1
  Al0+  Al68  1  0.74852791  0.25257289  0.66714606  1
  Al0+  Al69  1  0.74993251  0.75282724  0.00080572  1
  Al0+  Al70  1  0.75048888  0.74931837  0.32261319  1
  Al0+  Al71  1  0.75103404  0.74991962  0.67420406  1
  Al0+  Al72  1  0.42770597  0.32185950  0.65049820  1
  Al0+  Al73  1  0.56890207  0.68009604  0.31829126  1
  Al0+  Al74  1  0.42700942  0.32288690  0.98506765  1
  Al0+  Al75  1  0.43066157  0.31972706  0.31841877  1
  Al0+  Al76  1  0.82187772  0.56906957  0.67954631  1
  Al0+  Al77  1  0.07177266  0.67721453  0.65226077  1
  Al0+  Al78  1  0.17740568  0.42730913  0.01530580  1
  Al0+  Al79  1  0.93076502  0.32035693  0.98798478  1
  Al0+  Al80  1  0.82292513  0.07361557  0.68502137  1
  Al0+  Al81  1  0.92764363  0.32212177  0.65067135  1
  Al0+  Al82  1  0.67780150  0.93030682  0.68277008  1
  Al0+  Al83  1  0.57138532  0.17895595  0.64982319  1
  Al0+  Al84  1  0.93041683  0.81887851  0.32022323  1
  Al0+  Al85  1  0.42773316  0.82241073  0.65098838  1
  Al0+  Al86  1  0.06861784  0.17684365  0.65251589  1
  Al0+  Al87  1  0.06955708  0.68264043  0.98821576  1
  Al0+  Al88  1  0.57339880  0.68033090  0.65276464  1
  Al0+  Al89  1  0.32077162  0.07253712  0.34732866  1
  Al0+  Al90  1  0.82084529  0.06908490  0.34618004  1
  Al0+  Al91  1  0.31983831  0.56988938  0.34989447  1
  Al0+  Al92  1  0.57064036  0.17749173  0.98672185  1
  Al0+  Al93  1  0.06872719  0.18034665  0.31865529  1
  Al0+  Al94  1  0.67952846  0.42963818  0.34689340  1
  Al0+  Al95  1  0.32314765  0.57134654  0.01414461  1
  Si0+  Si96  1  0.82181523  0.57290125  0.01553101  1
  Si0+  Si97  1  0.92512284  0.32302925  0.31710432  1
  Si0+  Si98  1  0.07270481  0.17506475  0.98432783  1
  Si0+  Si99  1  0.68143411  0.42926764  0.01293860  1
  Si0+  Si100  1  0.17956395  0.92676809  0.68233513  1
  Si0+  Si101  1  0.17795768  0.92877640  0.01491653  1
  Si0+  Si102  1  0.32079004  0.57246573  0.68037287  1
  Si0+  Si103  1  0.17589353  0.42724726  0.35252492  1
  Si0+  Si104  1  0.81974292  0.07133652  0.01591917  1
  Si0+  Si105  1  0.82289908  0.57335550  0.34645318  1
  Si0+  Si106  1  0.17796791  0.92859753  0.35033571  1
  Si0+  Si107  1  0.67839678  0.92490430  0.34895685  1
  Si0+  Si108  1  0.67830748  0.92797217  0.01841081  1
  Si0+  Si109  1  0.92579263  0.82410176  0.97992348  1
  Si0+  Si110  1  0.57304602  0.67842689  0.98515499  1
  Si0+  Si111  1  0.67482455  0.42917589  0.68627254  1
  Si0+  Si112  1  0.07528449  0.67568801  0.31504687  1
  Si0+  Si113  1  0.92941704  0.82049717  0.65343501  1
  Si0+  Si114  1  0.32128174  0.06950964  0.01312862  1
  Si0+  Si115  1  0.42618348  0.82370989  0.31482477  1
  Si0+  Si116  1  0.43015402  0.82022538  0.98765638  1
  Si0+  Si117  1  0.31913569  0.07252815  0.68189508  1
  Si0+  Si118  1  0.18037735  0.42999255  0.68010997  1
  Si0+  Si119  1  0.57373572  0.17588559  0.31959870  1
  O2-  O120  1  0.24463707  0.00426778  0.05622085  1
  O2-  O121  1  0.24785004  -0.00423450  0.39460261  1
  O2-  O122  1  0.25004224  -0.00114097  0.72457960  1
  O2-  O123  1  0.25496583  0.49489478  0.06387854  1
  O2-  O124  1  0.24203568  0.49856044  0.39687088  1
  O2-  O125  1  0.25128567  0.50087650  0.72327448  1
  O2-  O126  1  0.74928707  -0.00026840  0.05924974  1
  O2-  O127  1  0.74334298  -0.00284289  0.39188882  1
  O2-  O128  1  0.74584678  0.00580591  0.73477914  1
  O2-  O129  1  0.74962211  0.50296565  0.05727877  1
  O2-  O130  1  0.75719030  0.50281672  0.39101089  1
  O2-  O131  1  0.74785939  0.49472110  0.72948118  1
  O2-  O132  1  -0.00596948  0.25495431  0.27206713  1
  O2-  O133  1  -0.00978606  0.24122224  0.60186769  1
  O2-  O134  1  0.00828290  0.24807807  0.94205251  1
  O2-  O135  1  0.00382026  0.74278884  0.27269505  1
  O2-  O136  1  -0.00447613  0.75061199  0.60733667  1
  O2-  O137  1  -0.00602476  0.75447921  0.93744836  1
  O2-  O138  1  0.50400803  0.24228090  0.27327085  1
  O2-  O139  1  0.50145641  0.25233636  0.59965216  1
  O2-  O140  1  0.49652568  0.24756616  0.93744680  1
  O2-  O141  1  0.49347365  0.75393698  0.26975707  1
  O2-  O142  1  0.50257239  0.75315434  0.60233569  1
  O2-  O143  1  0.49823433  0.74649061  0.94585065  1
  O2-  O144  1  0.06977964  0.17109133  0.08991882  1
  O2-  O145  1  0.06730905  0.17886919  0.43109307  1
  O2-  O146  1  0.07234363  0.18024471  0.76645721  1
  O2-  O147  1  0.06719705  0.68660717  0.10117461  1
  O2-  O148  1  0.07514785  0.67687958  0.42057337  1
  O2-  O149  1  0.07386625  0.67832149  0.76572055  1
  O2-  O150  1  0.57057046  0.17746482  0.10084360  1
  O2-  O151  1  0.57254959  0.17711027  0.42440896  1
  O2-  O152  1  0.56523667  0.17990756  0.76378338  1
  O2-  O153  1  0.57548879  0.67940390  0.09038141  1
  O2-  O154  1  0.57174547  0.68230767  0.43054921  1
  O2-  O155  1  0.57014804  0.68027865  0.76713791  1
  O2-  O156  1  0.17487708  0.42834348  0.24680695  1
  O2-  O157  1  0.18105398  0.43097701  0.57512575  1
  O2-  O158  1  0.17575366  0.43155953  0.90136177  1
  O2-  O159  1  0.17915876  0.92957888  0.24390035  1
  O2-  O160  1  0.17828781  0.92521754  0.57760829  1
  O2-  O161  1  0.18002580  0.92639805  0.90991598  1
  O2-  O162  1  0.68052904  0.42982388  0.23261087  1
  O2-  O163  1  0.67320840  0.43289832  0.58066844  1
  O2-  O164  1  0.68204997  0.43157644  0.90837240  1
  O2-  O165  1  0.67953290  0.92520261  0.24255250  1
  O2-  O166  1  0.68366919  0.92703128  0.56918964  1
  O2-  O167  1  0.67727185  0.92423935  0.91429539  1
  O2-  O168  1  0.43018498  0.32263404  0.09884177  1
  O2-  O169  1  0.43193109  0.31975888  0.43086744  1
  O2-  O170  1  0.42511750  0.32093374  0.76426953  1
  O2-  O171  1  0.43239353  0.82442839  0.09257642  1
  O2-  O172  1  0.42600687  0.82398272  0.41962944  1
  O2-  O173  1  0.42481334  0.81766575  0.76577071  1
  O2-  O174  1  0.92693001  0.31639390  0.10128574  1
  O2-  O175  1  0.92650297  0.32530494  0.42185770  1
  O2-  O176  1  0.93565340  0.32543193  0.76444473  1
  O2-  O177  1  0.92605004  0.82472964  0.08584800  1
  O2-  O178  1  0.93116678  0.81749417  0.43323282  1
  O2-  O179  1  0.93325853  0.81977473  0.75920072  1
  O2-  O180  1  0.31889335  0.07052011  0.23318617  1
  O2-  O181  1  0.31669066  0.07255278  0.57701848  1
  O2-  O182  1  0.32206529  0.06613925  0.90807709  1
  O2-  O183  1  0.31895583  0.56824802  0.23660049  1
  O2-  O184  1  0.31912533  0.57240097  0.57538621  1
  O2-  O185  1  0.32072893  0.57584578  0.90041245  1
  O2-  O186  1  0.81951467  0.06875354  0.23207849  1
  O2-  O187  1  0.82641974  0.06531718  0.57156898  1
  O2-  O188  1  0.82103921  0.06963652  0.91170114  1
  O2-  O189  1  0.82123565  0.57292227  0.24016004  1
  O2-  O190  1  0.82113674  0.56941594  0.56632538  1
  O2-  O191  1  0.82190445  0.57348496  0.91065567  1
  O2-  O192  1  0.04019756  0.08367719  0.26308436  1
  O2-  O193  1  0.04828300  0.07500999  0.60279411  1
  O2-  O194  1  0.04407465  0.08225945  0.93754859  1
  O2-  O195  1  0.05157968  0.58132609  0.26967273  1
  O2-  O196  1  0.04253750  0.58295822  0.59527089  1
  O2-  O197  1  0.03983428  0.58593147  0.93498191  1
  O2-  O198  1  0.55165765  0.08005813  0.27548272  1
  O2-  O199  1  0.54385246  0.08063822  0.59814308  1
  O2-  O200  1  0.54414982  0.07752754  0.93554862  1
  O2-  O201  1  0.53645462  0.58412928  0.26415129  1
  O2-  O202  1  0.54375122  0.58357546  0.59901857  1
  O2-  O203  1  0.55087714  0.58622728  0.93723074  1
  O2-  O204  1  0.16461315  0.21152690  0.26362868  1
  O2-  O205  1  0.16405345  0.21100887  0.59788594  1
  O2-  O206  1  0.16823305  0.19364704  0.94033111  1
  O2-  O207  1  0.16783740  0.70532001  0.26922682  1
  O2-  O208  1  0.16511007  0.71173809  0.59584292  1
  O2-  O209  1  0.16617043  0.71584463  0.93499739  1
  O2-  O210  1  0.66801037  0.20345255  0.27529317  1
  O2-  O211  1  0.67192831  0.20241112  0.60097647  1
  O2-  O212  1  0.66765485  0.20682342  0.93285061  1
  O2-  O213  1  0.66402198  0.70994007  0.25954364  1
  O2-  O214  1  0.67298557  0.70830572  0.60223350  1
  O2-  O215  1  0.66388183  0.71069776  0.93834896  1
  O2-  O216  1  0.08121878  0.46142104  0.07108241  1
  O2-  O217  1  0.08072846  0.45020301  0.39746683  1
  O2-  O218  1  0.08871906  0.45907435  0.72650812  1
  O2-  O219  1  0.08375774  0.95204322  0.06088211  1
  O2-  O220  1  0.08470708  0.95554762  0.39491461  1
  O2-  O221  1  0.08921207  0.95234413  0.73394834  1
  O2-  O222  1  0.58932644  0.45611029  0.06074117  1
  O2-  O223  1  0.58551399  0.46496468  0.40137074  1
  O2-  O224  1  0.58268280  0.46049267  0.73346877  1
  O2-  O225  1  0.58645293  0.95405091  0.06749150  1
  O2-  O226  1  0.58315797  0.94246258  0.39360315  1
  O2-  O227  1  0.57687646  0.95486133  0.73448976  1
  O2-  O228  1  0.19734091  0.32558837  0.06638767  1
  O2-  O229  1  0.20460181  0.33454789  0.39726053  1
  O2-  O230  1  0.20722284  0.33794502  0.72799454  1
  O2-  O231  1  0.20975530  0.84045974  0.06652455  1
  O2-  O232  1  0.20015730  0.83415110  0.39566028  1
  O2-  O233  1  0.21106616  0.83550352  0.73032755  1
  O2-  O234  1  0.71263208  0.33804303  0.05979336  1
  O2-  O235  1  0.70663534  0.33457699  0.40459599  1
  O2-  O236  1  0.69485117  0.33421062  0.73103035  1
  O2-  O237  1  0.70790419  0.83668000  0.06780896  1
  O2-  O238  1  0.71028478  0.83196873  0.39211217  1
  O2-  O239  1  0.70908656  0.83362885  0.73957891  1
  O2-  O240  1  0.46486157  0.41518727  0.26471683  1
  O2-  O241  1  0.45466076  0.42094459  0.59918903  1
  O2-  O242  1  0.45827779  0.42026434  0.93144453  1
  O2-  O243  1  0.45361133  0.91723887  0.26807303  1
  O2-  O244  1  0.44992096  0.92247902  0.60114909  1
  O2-  O245  1  0.46060242  0.90979757  0.93744982  1
  O2-  O246  1  0.94960507  0.41711999  0.26982170  1
  O2-  O247  1  0.96476158  0.41489584  0.59284303  1
  O2-  O248  1  0.95833752  0.41846431  0.93582502  1
  O2-  O249  1  0.96441331  0.91224787  0.26080830  1
  O2-  O250  1  0.95843535  0.91280065  0.60775665  1
  O2-  O251  1  0.95203674  0.91764805  0.93495722  1
  O2-  O252  1  0.33359373  0.29061224  0.26483364  1
  O2-  O253  1  0.33055610  0.29170056  0.59704136  1
  O2-  O254  1  0.32706080  0.29638219  0.93444511  1
  O2-  O255  1  0.33110830  0.80012598  0.27009893  1
  O2-  O256  1  0.33172852  0.79371519  0.59443831  1
  O2-  O257  1  0.33691693  0.79661449  0.94157571  1
  O2-  O258  1  0.83103504  0.29519352  0.27295826  1
  O2-  O259  1  0.82465441  0.30813756  0.60508442  1
  O2-  O260  1  0.83691306  0.28863725  0.93028356  1
  O2-  O261  1  0.83594358  0.79059969  0.25966695  1
  O2-  O262  1  0.83549005  0.79614640  0.60950886  1
  O2-  O263  1  0.83124913  0.79954646  0.93615382  1
  O2-  O264  1  0.41054409  0.03517089  0.06191177  1
  O2-  O265  1  0.41737786  0.04241380  0.40163396  1
  O2-  O266  1  0.41067311  0.04610745  0.73004602  1
  O2-  O267  1  0.42409038  0.54661276  0.06518417  1
  O2-  O268  1  0.41570599  0.53722003  0.40267774  1
  O2-  O269  1  0.41361383  0.54723979  0.72707145  1
  O2-  O270  1  0.91197149  0.04270906  0.06385548  1
  O2-  O271  1  0.91701069  0.03257610  0.39681235  1
  O2-  O272  1  0.91996121  0.04010199  0.74000496  1
  O2-  O273  1  0.91251977  0.54531816  0.06437435  1
  O2-  O274  1  0.91858893  0.55286895  0.39035463  1
  O2-  O275  1  0.91980060  0.53637085  0.73187297  1
  O2-  O276  1  0.29868641  0.16265671  0.06013491  1
  O2-  O277  1  0.28699677  0.16812401  0.40035361  1
  O2-  O278  1  0.28687596  0.16308428  0.72981835  1
  O2-  O279  1  0.29165553  0.66892009  0.06925892  1
  O2-  O280  1  0.29334632  0.66865002  0.40232402  1
  O2-  O281  1  0.29177204  0.66509782  0.72567389  1
  O2-  O282  1  0.79158763  0.16345038  0.06276977  1
  O2-  O283  1  0.79671027  0.16537622  0.40257104  1
  O2-  O284  1  0.79846266  0.17480167  0.73443391  1
  O2-  O285  1  0.79494686  0.66631421  0.06161963  1
  O2-  O286  1  0.79480699  0.66699629  0.39013406  1
  O2-  O287  1  0.79399253  0.66460046  0.73797115  1
