# generated using pymatgen
data_Ca2Al2SiO7
_symmetry_space_group_name_H-M   'P 1'
_cell_length_a   15.45162114
_cell_length_b   15.45142196
_cell_length_c   15.27867777
_cell_angle_alpha   89.99165096
_cell_angle_beta   90.00379917
_cell_angle_gamma   89.99838536
_symmetry_Int_Tables_number   1
_chemical_formula_structural   Ca2Al2SiO7
_chemical_formula_sum   'Ca48 Al48 Si24 O168'
_cell_volume   3647.77690778
_cell_formula_units_Z   24
loop_
 _symmetry_equiv_pos_site_id
 _symmetry_equiv_pos_as_xyz
  1  'x, y, z'
loop_
 _atom_type_symbol
 _atom_type_oxidation_number
  Ca2+  2.0
  Al0+  0.0
  Si0+  0.0
  O2-  -2.0
loop_
 _atom_site_type_symbol
 _atom_site_label
 _atom_site_symmetry_multiplicity
 _atom_site_fract_x
 _atom_site_fract_y
 _atom_site_fract_z
 _atom_site_occupancy
  Ca2+  Ca0  1  0.17218727  0.09163567  0.16946107  1
  Ca2+  Ca1  1  0.16182371  0.07574013  0.50479497  1
  Ca2+  Ca2  1  0.17200317  0.07994023  0.84078377  1
  Ca2+  Ca3  1  0.16081846  0.57244520  0.17353638  1
  Ca2+  Ca4  1  0.16461914  0.57682731  0.50967099  1
  Ca2+  Ca5  1  0.16591728  0.57439768  0.83289981  1
  Ca2+  Ca6  1  0.65916321  0.07272234  0.17107728  1
  Ca2+  Ca7  1  0.66792853  0.08248934  0.50353965  1
  Ca2+  Ca8  1  0.66822270  0.08456452  0.83873907  1
  Ca2+  Ca9  1  0.67714610  0.59172846  0.17297430  1
  Ca2+  Ca10  1  0.67780099  0.59101833  0.50239631  1
  Ca2+  Ca11  1  0.67866264  0.58512338  0.83858168  1
  Ca2+  Ca12  1  0.09076320  0.32824747  0.16376558  1
  Ca2+  Ca13  1  0.08743365  0.33242867  0.49487504  1
  Ca2+  Ca14  1  0.09161969  0.33203152  0.83381030  1
  Ca2+  Ca15  1  0.06826126  0.82805378  0.16194335  1
  Ca2+  Ca16  1  0.08078316  0.82116396  0.49366051  1
  Ca2+  Ca17  1  0.07877569  0.82924410  0.82496392  1
  Ca2+  Ca18  1  0.58620700  0.31948763  0.16045980  1
  Ca2+  Ca19  1  0.57970260  0.32585415  0.49663435  1
  Ca2+  Ca20  1  0.57866255  0.32196310  0.82183093  1
  Ca2+  Ca21  1  0.58538368  0.83350245  0.16178507  1
  Ca2+  Ca22  1  0.58410081  0.82943796  0.49210964  1
  Ca2+  Ca23  1  0.57811406  0.83963491  0.83724845  1
  Ca2+  Ca24  1  0.32159030  0.41265666  0.17060479  1
  Ca2+  Ca25  1  0.32434978  0.42017612  0.50910695  1
  Ca2+  Ca26  1  0.32830757  0.41565399  0.83370651  1
  Ca2+  Ca27  1  0.33921978  0.92232435  0.16509291  1
  Ca2+  Ca28  1  0.32430551  0.91719068  0.50688806  1
  Ca2+  Ca29  1  0.32775476  0.91853035  0.83996762  1
  Ca2+  Ca30  1  0.83620075  0.43012748  0.17110039  1
  Ca2+  Ca31  1  0.83634351  0.42990703  0.50412522  1
  Ca2+  Ca32  1  0.83856171  0.43007331  0.83664262  1
  Ca2+  Ca33  1  0.82516634  0.90790585  0.17109784  1
  Ca2+  Ca34  1  0.83147861  0.91934667  0.50109005  1
  Ca2+  Ca35  1  0.82865430  0.92134056  0.83957924  1
  Ca2+  Ca36  1  0.42551959  0.16168890  0.15954052  1
  Ca2+  Ca37  1  0.42477418  0.17163592  0.49840907  1
  Ca2+  Ca38  1  0.42479347  0.16664637  0.82964950  1
  Ca2+  Ca39  1  0.42425013  0.67345417  0.16233127  1
  Ca2+  Ca40  1  0.42017858  0.66411654  0.49566631  1
  Ca2+  Ca41  1  0.41130114  0.67075711  0.82795998  1
  Ca2+  Ca42  1  0.93180746  0.16556081  0.16150724  1
  Ca2+  Ca43  1  0.92035309  0.16722648  0.49458074  1
  Ca2+  Ca44  1  0.92057194  0.16533104  0.82823315  1
  Ca2+  Ca45  1  0.91220480  0.67186508  0.16637846  1
  Ca2+  Ca46  1  0.92427837  0.66568736  0.49228005  1
  Ca2+  Ca47  1  0.91707427  0.66892328  0.82973769  1
  Al0+  Al48  1  0.00000751  -0.00096792  -0.00856378  1
  Al0+  Al49  1  0.00007872  0.00086022  0.32474408  1
  Al0+  Al50  1  -0.00280677  -0.00060059  0.67451199  1
  Al0+  Al51  1  0.00061916  0.49984288  0.00938370  1
  Al0+  Al52  1  -0.00003282  0.49921643  0.33894837  1
  Al0+  Al53  1  0.00022635  0.49973044  0.67170299  1
  Al0+  Al54  1  0.49959752  -0.00087704  -0.00153627  1
  Al0+  Al55  1  0.49976332  0.00114036  0.33757704  1
  Al0+  Al56  1  0.49954378  -0.00137547  0.66075503  1
  Al0+  Al57  1  0.50068360  0.49942694  0.00068590  1
  Al0+  Al58  1  0.49935839  0.50003465  0.32649078  1
  Al0+  Al59  1  0.49919616  0.50020712  0.66596236  1
  Al0+  Al60  1  0.25130141  0.24903364  0.00358650  1
  Al0+  Al61  1  0.25090235  0.25064887  0.33683286  1
  Al0+  Al62  1  0.25131338  0.24879514  0.66513799  1
  Al0+  Al63  1  0.24981763  0.74915402  -0.00195791  1
  Al0+  Al64  1  0.24961425  0.75028551  0.32737221  1
  Al0+  Al65  1  0.24803395  0.74928389  0.66933853  1
  Al0+  Al66  1  0.75301774  0.25078930  -0.00412108  1
  Al0+  Al67  1  0.74962690  0.25017347  0.32756089  1
  Al0+  Al68  1  0.75205299  0.24898591  0.66540720  1
  Al0+  Al69  1  0.75077620  0.75113003  0.00140223  1
  Al0+  Al70  1  0.74822445  0.75112255  0.33721116  1
  Al0+  Al71  1  0.74886214  0.75264164  0.67201624  1
  Al0+  Al72  1  0.32301068  0.57139954  0.68106838  1
  Al0+  Al73  1  0.92868310  0.82068725  0.31984206  1
  Al0+  Al74  1  0.57172662  0.17887957  0.98566179  1
  Al0+  Al75  1  0.18076222  0.42981012  0.34968648  1
  Al0+  Al76  1  0.68091959  0.93348679  0.01325934  1
  Al0+  Al77  1  0.57086739  0.17903918  0.31785298  1
  Al0+  Al78  1  0.82023846  0.57183900  0.68091065  1
  Al0+  Al79  1  0.42912696  0.81957208  0.98599570  1
  Al0+  Al80  1  0.57025132  0.67954463  0.32104624  1
  Al0+  Al81  1  0.81901918  0.57049108  0.01568392  1
  Al0+  Al82  1  0.18261580  0.43069297  0.01585786  1
  Al0+  Al83  1  0.42783087  0.32234858  0.65047681  1
  Al0+  Al84  1  0.06890709  0.67922367  0.65448166  1
  Al0+  Al85  1  0.57322219  0.17763283  0.64936867  1
  Al0+  Al86  1  0.07206290  0.67588062  0.31787564  1
  Al0+  Al87  1  0.81967456  0.07192710  0.67986005  1
  Al0+  Al88  1  0.81813808  0.57039649  0.34909433  1
  Al0+  Al89  1  0.17895533  0.42666250  0.68291407  1
  Al0+  Al90  1  0.92762461  0.81915714  0.98331161  1
  Al0+  Al91  1  0.31914744  0.06802899  0.01290146  1
  Al0+  Al92  1  0.67893754  0.93063093  0.34842980  1
  Al0+  Al93  1  0.17798646  0.92855801  0.67936708  1
  Al0+  Al94  1  0.07258264  0.18049748  0.98447753  1
  Al0+  Al95  1  0.07129442  0.17995604  0.32128408  1
  Si0+  Si96  1  0.93023143  0.32397934  0.98297576  1
  Si0+  Si97  1  0.32074534  0.07033687  0.35051498  1
  Si0+  Si98  1  0.93018047  0.32158404  0.65228086  1
  Si0+  Si99  1  0.67589905  0.42533613  0.34858636  1
  Si0+  Si100  1  0.07047889  0.17727796  0.65327788  1
  Si0+  Si101  1  0.67820792  0.42757433  0.68123699  1
  Si0+  Si102  1  0.67568512  0.92864631  0.68463778  1
  Si0+  Si103  1  0.17543351  0.92585678  0.01768144  1
  Si0+  Si104  1  0.67672265  0.42603213  0.01573758  1
  Si0+  Si105  1  0.32329189  0.57419634  0.34755458  1
  Si0+  Si106  1  0.82381701  0.07337523  0.34659139  1
  Si0+  Si107  1  0.42762744  0.81992750  0.65119623  1
  Si0+  Si108  1  0.82508031  0.07454079  0.01750692  1
  Si0+  Si109  1  0.07116316  0.67583808  0.98306531  1
  Si0+  Si110  1  0.32235287  0.07004134  0.68195832  1
  Si0+  Si111  1  0.92734984  0.32299420  0.31724652  1
  Si0+  Si112  1  0.42669004  0.82370637  0.31743725  1
  Si0+  Si113  1  0.42828135  0.32225975  0.98418189  1
  Si0+  Si114  1  0.17717676  0.92894260  0.34511479  1
  Si0+  Si115  1  0.32477764  0.57505560  0.01883257  1
  Si0+  Si116  1  0.57254460  0.67990710  0.65360152  1
  Si0+  Si117  1  0.92615207  0.82308316  0.65026558  1
  Si0+  Si118  1  0.57247547  0.67757219  0.98257935  1
  Si0+  Si119  1  0.42794593  0.32118829  0.31490645  1
  O2-  O120  1  0.24306926  -0.00456059  0.06262652  1
  O2-  O121  1  0.24858573  -0.00109696  0.39000051  1
  O2-  O122  1  0.25240780  0.00326397  0.72635266  1
  O2-  O123  1  0.25669713  0.50618198  0.06313634  1
  O2-  O124  1  0.25272073  0.50861621  0.39311088  1
  O2-  O125  1  0.25286910  0.49772732  0.73124178  1
  O2-  O126  1  0.75528840  0.00782795  0.06223485  1
  O2-  O127  1  0.75391295  0.00665997  0.39223252  1
  O2-  O128  1  0.74219558  0.00019187  0.72640094  1
  O2-  O129  1  0.74255894  0.49648063  0.06127808  1
  O2-  O130  1  0.74263321  0.49490971  0.39466201  1
  O2-  O131  1  0.74432799  0.49783110  0.72722990  1
  O2-  O132  1  -0.00354410  0.25413914  0.27400587  1
  O2-  O133  1  0.00190474  0.25042425  0.61055178  1
  O2-  O134  1  -0.00413063  0.25295753  0.93734289  1
  O2-  O135  1  -0.00043903  0.74767464  0.26894571  1
  O2-  O136  1  -0.00660518  0.75310486  0.60678851  1
  O2-  O137  1  0.00548091  0.74698113  0.93793427  1
  O2-  O138  1  0.49864263  0.25525715  0.26991627  1
  O2-  O139  1  0.50155393  0.25118484  0.60102712  1
  O2-  O140  1  0.50175605  0.25864740  0.94025721  1
  O2-  O141  1  0.49475075  0.75367839  0.27496606  1
  O2-  O142  1  0.49914116  0.74862612  0.61069065  1
  O2-  O143  1  0.49940035  0.74108070  0.93753501  1
  O2-  O144  1  0.07316907  0.18301551  0.09784648  1
  O2-  O145  1  0.06927190  0.17745496  0.43486618  1
  O2-  O146  1  0.06962057  0.17762308  0.75823680  1
  O2-  O147  1  0.06985181  0.67640873  0.08867299  1
  O2-  O148  1  0.07254548  0.67767831  0.43178272  1
  O2-  O149  1  0.06712725  0.68015808  0.76769523  1
  O2-  O150  1  0.56844777  0.17825095  0.09892458  1
  O2-  O151  1  0.56930876  0.17973559  0.43065427  1
  O2-  O152  1  0.57133230  0.17741159  0.76314278  1
  O2-  O153  1  0.57250236  0.67983625  0.08828882  1
  O2-  O154  1  0.56877864  0.68157272  0.43476847  1
  O2-  O155  1  0.57438849  0.68203967  0.75858731  1
  O2-  O156  1  0.18346920  0.42714766  0.23645776  1
  O2-  O157  1  0.17821063  0.42793503  0.56931776  1
  O2-  O158  1  0.18348530  0.43058865  0.90311685  1
  O2-  O159  1  0.17861687  0.93028336  0.24031964  1
  O2-  O160  1  0.17894772  0.93005141  0.56537578  1
  O2-  O161  1  0.17810808  0.92680647  0.91182196  1
  O2-  O162  1  0.67865667  0.42429627  0.24298625  1
  O2-  O163  1  0.68086901  0.42823286  0.57551426  1
  O2-  O164  1  0.67707753  0.42730210  0.91006463  1
  O2-  O165  1  0.67707791  0.93106014  0.23547963  1
  O2-  O166  1  0.67629394  0.92541187  0.57910258  1
  O2-  O167  1  0.68078869  0.93498741  0.89998503  1
  O2-  O168  1  0.42847151  0.32054508  0.09000655  1
  O2-  O169  1  0.42805858  0.31982658  0.42032662  1
  O2-  O170  1  0.42939715  0.31963248  0.76434049  1
  O2-  O171  1  0.43234151  0.81969454  0.09920051  1
  O2-  O172  1  0.42451226  0.82379381  0.42336234  1
  O2-  O173  1  0.42893583  0.82233640  0.75615584  1
  O2-  O174  1  0.93053093  0.32366209  0.08859028  1
  O2-  O175  1  0.92649263  0.32153286  0.42324707  1
  O2-  O176  1  0.92905296  0.32117669  0.75732152  1
  O2-  O177  1  0.92619635  0.81713042  0.09629274  1
  O2-  O178  1  0.93193767  0.82270116  0.43374084  1
  O2-  O179  1  0.92643520  0.82198333  0.75596145  1
  O2-  O180  1  0.32240282  0.07014678  0.24533228  1
  O2-  O181  1  0.32167168  0.06773003  0.57586596  1
  O2-  O182  1  0.31831445  0.06674960  0.89972996  1
  O2-  O183  1  0.32433686  0.57244801  0.24199580  1
  O2-  O184  1  0.32249213  0.57273195  0.56726990  1
  O2-  O185  1  0.32503817  0.57495498  0.91348182  1
  O2-  O186  1  0.82485506  0.07328248  0.24133902  1
  O2-  O187  1  0.82288586  0.07005024  0.56648969  1
  O2-  O188  1  0.82327573  0.07380253  0.91165317  1
  O2-  O189  1  0.81658259  0.56952703  0.23600194  1
  O2-  O190  1  0.81951202  0.57168426  0.56792946  1
  O2-  O191  1  0.81904971  0.56903885  0.90220645  1
  O2-  O192  1  0.04297994  0.08548681  0.26224706  1
  O2-  O193  1  0.03853645  0.08571659  0.60717438  1
  O2-  O194  1  0.04526774  0.08328684  0.93006377  1
  O2-  O195  1  0.04214365  0.57688214  0.26779051  1
  O2-  O196  1  0.03833466  0.58160942  0.60226790  1
  O2-  O197  1  0.04147607  0.58238924  0.93939226  1
  O2-  O198  1  0.53498702  0.08262529  0.26670419  1
  O2-  O199  1  0.54315161  0.07939243  0.59592896  1
  O2-  O200  1  0.53551299  0.08489717  0.93132227  1
  O2-  O201  1  0.54395858  0.58312254  0.26342297  1
  O2-  O202  1  0.54936885  0.58723078  0.60630505  1
  O2-  O203  1  0.55315023  0.58115407  0.93903538  1
  O2-  O204  1  0.16861750  0.21162725  0.26906215  1
  O2-  O205  1  0.16337621  0.20001591  0.60580268  1
  O2-  O206  1  0.16934727  0.21292030  0.93185141  1
  O2-  O207  1  0.17038074  0.70280033  0.26350697  1
  O2-  O208  1  0.16559615  0.71095261  0.60057960  1
  O2-  O209  1  0.16650943  0.69741225  0.93876369  1
  O2-  O210  1  0.66811613  0.20583139  0.26265309  1
  O2-  O211  1  0.67242967  0.20569801  0.59740306  1
  O2-  O212  1  0.67060215  0.20540877  0.93323930  1
  O2-  O213  1  0.66517737  0.71341198  0.26723637  1
  O2-  O214  1  0.66309505  0.71237797  0.60533725  1
  O2-  O215  1  0.66378836  0.70878293  0.93591829  1
  O2-  O216  1  0.08621296  0.45899741  0.07169394  1
  O2-  O217  1  0.08276632  0.45482210  0.40319250  1
  O2-  O218  1  0.08171425  0.45590238  0.73742810  1
  O2-  O219  1  0.08039054  0.95125468  0.06000248  1
  O2-  O220  1  0.08612357  0.95939034  0.39241839  1
  O2-  O221  1  0.08281462  0.95822526  0.73571515  1
  O2-  O222  1  0.58175404  0.44660893  0.06202875  1
  O2-  O223  1  0.58031851  0.44928869  0.39125516  1
  O2-  O224  1  0.58398365  0.45035618  0.72660456  1
  O2-  O225  1  0.58413255  0.96312317  0.06712717  1
  O2-  O226  1  0.58239040  0.96075237  0.40413503  1
  O2-  O227  1  0.58015382  0.95206887  0.72790553  1
  O2-  O228  1  0.21522315  0.33460664  0.07021733  1
  O2-  O229  1  0.21396342  0.33373446  0.40438918  1
  O2-  O230  1  0.20682107  0.32679227  0.73387684  1
  O2-  O231  1  0.20145682  0.83175270  0.06236511  1
  O2-  O232  1  0.20511231  0.83637998  0.39206869  1
  O2-  O233  1  0.20994427  0.83408391  0.73538832  1
  O2-  O234  1  0.70547399  0.33270614  0.06152518  1
  O2-  O235  1  0.70247462  0.33159880  0.39472894  1
  O2-  O236  1  0.70590547  0.33464863  0.72728370  1
  O2-  O237  1  0.71065317  0.83597769  0.06594238  1
  O2-  O238  1  0.70950627  0.83555787  0.40504228  1
  O2-  O239  1  0.70265109  0.83713617  0.73429509  1
  O2-  O240  1  0.44797986  0.41556067  0.26790151  1
  O2-  O241  1  0.45452717  0.42160392  0.59732817  1
  O2-  O242  1  0.44774305  0.41839858  0.93988218  1
  O2-  O243  1  0.45510454  0.91689992  0.27284445  1
  O2-  O244  1  0.45453377  0.91061354  0.60046271  1
  O2-  O245  1  0.46374652  0.91369411  0.92987349  1
  O2-  O246  1  0.95456713  0.41600911  0.27204800  1
  O2-  O247  1  0.95839468  0.41300861  0.60454489  1
  O2-  O248  1  0.96014807  0.41713540  0.93822458  1
  O2-  O249  1  0.95667201  0.91744031  0.26301285  1
  O2-  O250  1  0.95306530  0.91726419  0.60632009  1
  O2-  O251  1  0.95490672  0.91636933  0.92850192  1
  O2-  O252  1  0.33571070  0.29013014  0.26946370  1
  O2-  O253  1  0.33047276  0.29068215  0.59579197  1
  O2-  O254  1  0.33714318  0.29068758  0.93795992  1
  O2-  O255  1  0.33400034  0.80117698  0.26802311  1
  O2-  O256  1  0.33604189  0.79221346  0.60349906  1
  O2-  O257  1  0.33083832  0.79332778  0.93178621  1
  O2-  O258  1  0.83431812  0.30022346  0.26857701  1
  O2-  O259  1  0.83936662  0.29397185  0.60283592  1
  O2-  O260  1  0.83590706  0.30311722  0.93553653  1
  O2-  O261  1  0.82998837  0.79101284  0.26917426  1
  O2-  O262  1  0.83068746  0.79972058  0.60682944  1
  O2-  O263  1  0.83180714  0.78628405  0.92882375  1
  O2-  O264  1  0.41414722  0.03356912  0.06813809  1
  O2-  O265  1  0.41058488  0.04106288  0.40069577  1
  O2-  O266  1  0.41582039  0.04151744  0.72654250  1
  O2-  O267  1  0.41992888  0.55099804  0.06376761  1
  O2-  O268  1  0.41744301  0.54698923  0.39275956  1
  O2-  O269  1  0.42270229  0.54736265  0.73497539  1
  O2-  O270  1  0.91982362  0.04710245  0.06001313  1
  O2-  O271  1  0.91749755  0.04622571  0.39286177  1
  O2-  O272  1  0.91347241  0.04010142  0.73890339  1
  O2-  O273  1  0.91391949  0.53851722  0.07174818  1
  O2-  O274  1  0.91395809  0.53786778  0.40370728  1
  O2-  O275  1  0.91429770  0.53774890  0.73676480  1
  O2-  O276  1  0.29076102  0.16406079  0.06949105  1
  O2-  O277  1  0.29252907  0.16137276  0.39859782  1
  O2-  O278  1  0.29865121  0.16381896  0.72711900  1
  O2-  O279  1  0.29991220  0.66921901  0.06441609  1
  O2-  O280  1  0.30252823  0.67037680  0.39126062  1
  O2-  O281  1  0.29269734  0.66866353  0.73513863  1
  O2-  O282  1  0.80446669  0.17061925  0.06069674  1
  O2-  O283  1  0.79943859  0.16826017  0.39166044  1
  O2-  O284  1  0.79388172  0.16956586  0.73504442  1
  O2-  O285  1  0.78626549  0.66631645  0.06899867  1
  O2-  O286  1  0.78593927  0.66574679  0.40413612  1
  O2-  O287  1  0.78909896  0.66824665  0.73541600  1
