# generated using pymatgen
data_Ca2Al2SiO7
_symmetry_space_group_name_H-M   'P 1'
_cell_length_a   15.45264126
_cell_length_b   15.45231374
_cell_length_c   15.27940215
_cell_angle_alpha   90.00375713
_cell_angle_beta   89.98938491
_cell_angle_gamma   90.01370406
_symmetry_Int_Tables_number   1
_chemical_formula_structural   Ca2Al2SiO7
_chemical_formula_sum   'Ca48 Al48 Si24 O168'
_cell_volume   3648.40112011
_cell_formula_units_Z   24
loop_
 _symmetry_equiv_pos_site_id
 _symmetry_equiv_pos_as_xyz
  1  'x, y, z'
loop_
 _atom_type_symbol
 _atom_type_oxidation_number
  Ca2+  2.0
  Al0+  0.0
  Si0+  0.0
  O2-  -2.0
loop_
 _atom_site_type_symbol
 _atom_site_label
 _atom_site_symmetry_multiplicity
 _atom_site_fract_x
 _atom_site_fract_y
 _atom_site_fract_z
 _atom_site_occupancy
  Ca2+  Ca0  1  0.18016718  0.07613932  0.17404932  1
  Ca2+  Ca1  1  0.16775530  0.08075969  0.50114128  1
  Ca2+  Ca2  1  0.17199047  0.08572007  0.83795665  1
  Ca2+  Ca3  1  0.16699078  0.58243102  0.17042566  1
  Ca2+  Ca4  1  0.16692278  0.57897241  0.50104759  1
  Ca2+  Ca5  1  0.17985622  0.58520196  0.83692550  1
  Ca2+  Ca6  1  0.66964351  0.08151208  0.16715581  1
  Ca2+  Ca7  1  0.67181499  0.07270642  0.50490538  1
  Ca2+  Ca8  1  0.67300994  0.08348321  0.83698415  1
  Ca2+  Ca9  1  0.67176592  0.58055888  0.16338265  1
  Ca2+  Ca10  1  0.67461042  0.57772014  0.51217158  1
  Ca2+  Ca11  1  0.67220547  0.57136634  0.83815530  1
  Ca2+  Ca12  1  0.07306333  0.33919536  0.16405096  1
  Ca2+  Ca13  1  0.07922007  0.32903972  0.49216651  1
  Ca2+  Ca14  1  0.07750121  0.32569144  0.82867634  1
  Ca2+  Ca15  1  0.08518809  0.82939247  0.16366410  1
  Ca2+  Ca16  1  0.08457811  0.82555618  0.49135905  1
  Ca2+  Ca17  1  0.07381291  0.83567959  0.83281446  1
  Ca2+  Ca18  1  0.58482308  0.32406284  0.15569530  1
  Ca2+  Ca19  1  0.57910205  0.33854896  0.50153003  1
  Ca2+  Ca20  1  0.58703239  0.33180682  0.83028566  1
  Ca2+  Ca21  1  0.57409702  0.83981439  0.16306654  1
  Ca2+  Ca22  1  0.57618756  0.84275133  0.49616416  1
  Ca2+  Ca23  1  0.57148157  0.83712450  0.82733182  1
  Ca2+  Ca24  1  0.32624388  0.42485334  0.17227521  1
  Ca2+  Ca25  1  0.32909742  0.42127074  0.50907888  1
  Ca2+  Ca26  1  0.34200871  0.42815931  0.83629325  1
  Ca2+  Ca27  1  0.33818598  0.92387208  0.17351289  1
  Ca2+  Ca28  1  0.33380636  0.91620105  0.49823384  1
  Ca2+  Ca29  1  0.33473829  0.91794472  0.84053155  1
  Ca2+  Ca30  1  0.83397752  0.41321874  0.16595943  1
  Ca2+  Ca31  1  0.83051715  0.42047892  0.50712137  1
  Ca2+  Ca32  1  0.82656706  0.42158516  0.84179951  1
  Ca2+  Ca33  1  0.83124802  0.91996274  0.16971468  1
  Ca2+  Ca34  1  0.81978262  0.91762861  0.51037235  1
  Ca2+  Ca35  1  0.83011440  0.92572328  0.83947637  1
  Ca2+  Ca36  1  0.42159463  0.15880503  0.15881861  1
  Ca2+  Ca37  1  0.41516235  0.17092434  0.49716656  1
  Ca2+  Ca38  1  0.42319943  0.17055666  0.83012596  1
  Ca2+  Ca39  1  0.41222759  0.67951502  0.16026606  1
  Ca2+  Ca40  1  0.41388739  0.67682888  0.49798668  1
  Ca2+  Ca41  1  0.41160616  0.67376832  0.82614135  1
  Ca2+  Ca42  1  0.91256837  0.17695441  0.15752666  1
  Ca2+  Ca43  1  0.91857475  0.16843689  0.49914404  1
  Ca2+  Ca44  1  0.91492907  0.16732503  0.82828677  1
  Ca2+  Ca45  1  0.92236856  0.67085921  0.15882497  1
  Ca2+  Ca46  1  0.92130835  0.66283537  0.49284078  1
  Ca2+  Ca47  1  0.90704639  0.66823865  0.83333930  1
  Al0+  Al48  1  0.00007812  -0.00117820  0.00165641  1
  Al0+  Al49  1  0.00182076  0.00135294  0.33615252  1
  Al0+  Al50  1  0.00074664  -0.00133943  0.66337063  1
  Al0+  Al51  1  0.00024703  0.49985595  -0.00449411  1
  Al0+  Al52  1  0.00111559  0.50035679  0.32865199  1
  Al0+  Al53  1  0.00119014  0.49944751  0.67092466  1
  Al0+  Al54  1  0.49986347  0.00070232  -0.00745301  1
  Al0+  Al55  1  0.50203526  0.00195598  0.33804792  1
  Al0+  Al56  1  0.49834224  0.00150292  0.66447045  1
  Al0+  Al57  1  0.49970040  0.50093265  0.01221476  1
  Al0+  Al58  1  0.50124409  0.50096053  0.33212165  1
  Al0+  Al59  1  0.49956795  0.50144387  0.66867371  1
  Al0+  Al60  1  0.25048350  0.24982730  0.00506375  1
  Al0+  Al61  1  0.24965705  0.25178354  0.33949455  1
  Al0+  Al62  1  0.24885457  0.24870900  0.65807088  1
  Al0+  Al63  1  0.24904671  0.74924512  -0.00091777  1
  Al0+  Al64  1  0.25096658  0.75112821  0.32691527  1
  Al0+  Al65  1  0.24840501  0.75061717  0.66548356  1
  Al0+  Al66  1  0.74972502  0.24825280  -0.00197738  1
  Al0+  Al67  1  0.74930019  0.25089243  0.33144022  1
  Al0+  Al68  1  0.75012735  0.24882777  0.66934454  1
  Al0+  Al69  1  0.74883543  0.74835667  -0.00034980  1
  Al0+  Al70  1  0.74927398  0.74901984  0.33712650  1
  Al0+  Al71  1  0.74718844  0.75049815  0.67399044  1
  Al0+  Al72  1  0.56998491  0.17962227  0.98546111  1
  Al0+  Al73  1  0.07008196  0.68036706  0.31952019  1
  Al0+  Al74  1  0.82297732  0.06859504  0.68100802  1
  Al0+  Al75  1  0.68146548  0.92914088  0.34563436  1
  Al0+  Al76  1  0.17887120  0.92718912  0.34865235  1
  Al0+  Al77  1  0.32194569  0.07014249  0.01063557  1
  Al0+  Al78  1  0.32097059  0.57268984  0.01555907  1
  Al0+  Al79  1  0.67794184  0.42853068  0.68098208  1
  Al0+  Al80  1  0.92782421  0.82122598  0.98698339  1
  Al0+  Al81  1  0.07070142  0.17732574  0.65155108  1
  Al0+  Al82  1  0.43293156  0.82053935  0.31904662  1
  Al0+  Al83  1  0.93000349  0.31859081  0.31984962  1
  Al0+  Al84  1  0.68013235  0.42732473  0.01767429  1
  Al0+  Al85  1  0.92969081  0.32024121  0.98385330  1
  Al0+  Al86  1  0.42786474  0.82178133  0.65094186  1
  Al0+  Al87  1  0.43056752  0.32257623  0.65389849  1
  Al0+  Al88  1  0.42965228  0.81948511  0.98537548  1
  Al0+  Al89  1  0.82191939  0.06975365  0.01437999  1
  Al0+  Al90  1  0.17793889  0.43181894  0.34708596  1
  Al0+  Al91  1  0.82252702  0.57192750  0.01764827  1
  Al0+  Al92  1  0.31787763  0.57103018  0.67791709  1
  Al0+  Al93  1  0.67481932  0.92951330  0.68456202  1
  Al0+  Al94  1  0.32266602  0.07119693  0.35095619  1
  Al0+  Al95  1  0.82447666  0.57117208  0.68180309  1
  Si0+  Si96  1  0.67836862  0.42713774  0.34854087  1
  Si0+  Si97  1  0.17837306  0.42474325  0.68365536  1
  Si0+  Si98  1  0.32329558  0.57237463  0.35017845  1
  Si0+  Si99  1  0.17755386  0.92794657  0.01561709  1
  Si0+  Si100  1  0.56888546  0.18195831  0.31920192  1
  Si0+  Si101  1  0.42630972  0.32380953  0.98716766  1
  Si0+  Si102  1  0.82053919  0.56930094  0.34648451  1
  Si0+  Si103  1  0.57171986  0.67904268  0.65063774  1
  Si0+  Si104  1  0.17970343  0.92797202  0.68197839  1
  Si0+  Si105  1  0.92737420  0.81963829  0.65224307  1
  Si0+  Si106  1  0.07038561  0.67921030  0.65276931  1
  Si0+  Si107  1  0.31907802  0.07265303  0.68134606  1
  Si0+  Si108  1  0.57510711  0.67512477  0.31565003  1
  Si0+  Si109  1  0.57340315  0.17867964  0.64739643  1
  Si0+  Si110  1  0.57127399  0.67547701  0.98326001  1
  Si0+  Si111  1  0.92814342  0.32214345  0.65044243  1
  Si0+  Si112  1  0.17825665  0.42754628  0.01543050  1
  Si0+  Si113  1  0.82231597  0.07491279  0.34886232  1
  Si0+  Si114  1  0.67724899  0.92826806  0.01531977  1
  Si0+  Si115  1  0.07171958  0.67783243  0.98018697  1
  Si0+  Si116  1  0.92523958  0.82299600  0.31961220  1
  Si0+  Si117  1  0.42696004  0.32372752  0.31805505  1
  Si0+  Si118  1  0.07373558  0.17753603  0.98591110  1
  Si0+  Si119  1  0.07451531  0.17655428  0.31449226  1
  O2-  O120  1  0.24845494  -0.00501993  0.05802421  1
  O2-  O121  1  0.24891955  0.00019151  0.40058371  1
  O2-  O122  1  0.25043499  -0.00058569  0.72382295  1
  O2-  O123  1  0.24677982  0.49651194  0.05985160  1
  O2-  O124  1  0.25597710  0.50261250  0.39477923  1
  O2-  O125  1  0.24754702  0.49309199  0.72725140  1
  O2-  O126  1  0.74910327  -0.00698245  0.06079528  1
  O2-  O127  1  0.76162120  -0.00130241  0.39168571  1
  O2-  O128  1  0.74896018  -0.00012257  0.73274884  1
  O2-  O129  1  0.75345513  0.49787129  0.06897199  1
  O2-  O130  1  0.74792927  0.50012655  0.38920063  1
  O2-  O131  1  0.75371146  0.49710876  0.72953459  1
  O2-  O132  1  0.00289234  0.24241529  0.27103139  1
  O2-  O133  1  -0.00422526  0.25272803  0.60568203  1
  O2-  O134  1  0.00417287  0.24400918  0.93953579  1
  O2-  O135  1  -0.00202948  0.75891295  0.27496401  1
  O2-  O136  1  -0.00697691  0.74335885  0.61037335  1
  O2-  O137  1  -0.00008307  0.74442222  0.93759652  1
  O2-  O138  1  0.49682830  0.25184152  0.27601752  1
  O2-  O139  1  0.50607864  0.24968860  0.60419870  1
  O2-  O140  1  0.49610123  0.25713505  0.94192315  1
  O2-  O141  1  0.50672255  0.74466286  0.27241590  1
  O2-  O142  1  0.50579853  0.74982802  0.60484804  1
  O2-  O143  1  0.50198242  0.74300882  0.93791199  1
  O2-  O144  1  0.07449279  0.17933045  0.09130736  1
  O2-  O145  1  0.07289863  0.17805158  0.42027389  1
  O2-  O146  1  0.07305470  0.17902566  0.76485395  1
  O2-  O147  1  0.07311971  0.67956875  0.08594982  1
  O2-  O148  1  0.06648260  0.67814560  0.43330427  1
  O2-  O149  1  0.07455140  0.68330273  0.75743328  1
  O2-  O150  1  0.56795235  0.17762384  0.09937801  1
  O2-  O151  1  0.57059920  0.18472324  0.42425281  1
  O2-  O152  1  0.57129549  0.17721634  0.75281338  1
  O2-  O153  1  0.57085288  0.67821262  0.08924132  1
  O2-  O154  1  0.57555517  0.67120705  0.42105953  1
  O2-  O155  1  0.56854226  0.67789213  0.75595275  1
  O2-  O156  1  0.17868127  0.43440741  0.23389638  1
  O2-  O157  1  0.17708822  0.42782038  0.57781446  1
  O2-  O158  1  0.18037156  0.42603192  0.90982895  1
  O2-  O159  1  0.18026062  0.92825160  0.23505843  1
  O2-  O160  1  0.17982381  0.92576960  0.57708629  1
  O2-  O161  1  0.17645787  0.92881947  0.90949698  1
  O2-  O162  1  0.67842787  0.42450072  0.24408588  1
  O2-  O163  1  0.67931561  0.43165767  0.56621116  1
  O2-  O164  1  0.67943449  0.42894270  0.90438105  1
  O2-  O165  1  0.68058375  0.93188369  0.23247014  1
  O2-  O166  1  0.67708624  0.93087381  0.57034936  1
  O2-  O167  1  0.67696312  0.93120219  0.90996710  1
  O2-  O168  1  0.42566335  0.32109674  0.09309245  1
  O2-  O169  1  0.43007925  0.32590098  0.42329167  1
  O2-  O170  1  0.42933686  0.32021511  0.76700023  1
  O2-  O171  1  0.43161847  0.82155069  0.09862884  1
  O2-  O172  1  0.43343319  0.81882271  0.43222181  1
  O2-  O173  1  0.42502018  0.81956639  0.76397257  1
  O2-  O174  1  0.93176749  0.31971593  0.09740416  1
  O2-  O175  1  0.92923740  0.31860830  0.43316945  1
  O2-  O176  1  0.93065137  0.32201962  0.75574840  1
  O2-  O177  1  0.93137474  0.82150061  0.10038206  1
  O2-  O178  1  0.92276300  0.81773448  0.42537522  1
  O2-  O179  1  0.93151211  0.82224301  0.75726599  1
  O2-  O180  1  0.32445282  0.06892037  0.23700934  1
  O2-  O181  1  0.31774110  0.07271614  0.57640284  1
  O2-  O182  1  0.31919590  0.07093910  0.89722850  1
  O2-  O183  1  0.32287462  0.57017029  0.24459266  1
  O2-  O184  1  0.31406980  0.57171411  0.56477971  1
  O2-  O185  1  0.31956692  0.57307858  0.90208424  1
  O2-  O186  1  0.81852912  0.07770765  0.24334943  1
  O2-  O187  1  0.82255299  0.06577610  0.56670421  1
  O2-  O188  1  0.82248509  0.06863583  0.90171788  1
  O2-  O189  1  0.82003405  0.57011899  0.24197663  1
  O2-  O190  1  0.82543683  0.56938697  0.56702017  1
  O2-  O191  1  0.81916859  0.57044129  0.90446434  1
  O2-  O192  1  0.05394032  0.08073836  0.27044633  1
  O2-  O193  1  0.04041779  0.08087868  0.59544449  1
  O2-  O194  1  0.05118062  0.08287949  0.94093365  1
  O2-  O195  1  0.03652759  0.58651013  0.26257215  1
  O2-  O196  1  0.04880919  0.58434516  0.60741082  1
  O2-  O197  1  0.05142677  0.58350526  0.93388287  1
  O2-  O198  1  0.54174855  0.09005140  0.27227474  1
  O2-  O199  1  0.54333162  0.08674896  0.60009287  1
  O2-  O200  1  0.53665483  0.08639914  0.92709061  1
  O2-  O201  1  0.54976807  0.58174312  0.26771736  1
  O2-  O202  1  0.54426523  0.58655481  0.60274419  1
  O2-  O203  1  0.54487448  0.58035401  0.94129969  1
  O2-  O204  1  0.16860124  0.20508770  0.27111205  1
  O2-  O205  1  0.16516964  0.20794933  0.59317541  1
  O2-  O206  1  0.16696667  0.20582877  0.93873997  1
  O2-  O207  1  0.16643321  0.70798175  0.26326930  1
  O2-  O208  1  0.15831740  0.71338723  0.60175314  1
  O2-  O209  1  0.16370011  0.70786634  0.93283436  1
  O2-  O210  1  0.65995382  0.21076701  0.27031478  1
  O2-  O211  1  0.66784770  0.20192685  0.60123733  1
  O2-  O212  1  0.66576330  0.20914591  0.93044972  1
  O2-  O213  1  0.66904694  0.70112454  0.27018528  1
  O2-  O214  1  0.66713066  0.70190058  0.60559251  1
  O2-  O215  1  0.66495841  0.69935402  0.93723702  1
  O2-  O216  1  0.08490689  0.45530043  0.06037125  1
  O2-  O217  1  0.08259556  0.46627002  0.40187421  1
  O2-  O218  1  0.08556632  0.45015935  0.73083116  1
  O2-  O219  1  0.08573164  0.95390600  0.06443302  1
  O2-  O220  1  0.07883214  0.95185624  0.40246487  1
  O2-  O221  1  0.08784578  0.95633995  0.72852678  1
  O2-  O222  1  0.58265060  0.45507516  0.07399819  1
  O2-  O223  1  0.58561861  0.45440359  0.39509215  1
  O2-  O224  1  0.58100209  0.45882053  0.73487639  1
  O2-  O225  1  0.58509398  0.96008904  0.06043077  1
  O2-  O226  1  0.58901084  0.96659781  0.40254137  1
  O2-  O227  1  0.57603826  0.96009745  0.73508148  1
  O2-  O228  1  0.20242737  0.33508904  0.06493957  1
  O2-  O229  1  0.20453838  0.33492667  0.40200517  1
  O2-  O230  1  0.20381335  0.33029050  0.72671143  1
  O2-  O231  1  0.20116233  0.83354782  0.05993120  1
  O2-  O232  1  0.20863941  0.82800805  0.39996375  1
  O2-  O233  1  0.20758780  0.83742822  0.73125631  1
  O2-  O234  1  0.70885104  0.32844360  0.06904854  1
  O2-  O235  1  0.70758843  0.33649770  0.39739302  1
  O2-  O236  1  0.70115377  0.32853525  0.73140037  1
  O2-  O237  1  0.69757699  0.83308687  0.05977234  1
  O2-  O238  1  0.70584884  0.83114656  0.40145691  1
  O2-  O239  1  0.69887842  0.83052705  0.73660580  1
  O2-  O240  1  0.45499409  0.41565944  0.27042177  1
  O2-  O241  1  0.45962976  0.41959169  0.59820145  1
  O2-  O242  1  0.45083193  0.41959632  0.94547777  1
  O2-  O243  1  0.46680030  0.91823185  0.26827521  1
  O2-  O244  1  0.45566334  0.91980577  0.59776119  1
  O2-  O245  1  0.46117646  0.91444208  0.92881792  1
  O2-  O246  1  0.96314389  0.41390832  0.26488609  1
  O2-  O247  1  0.95554457  0.41623294  0.60498642  1
  O2-  O248  1  0.96081230  0.41640590  0.92910444  1
  O2-  O249  1  0.94552581  0.91971492  0.27752332  1
  O2-  O250  1  0.96013990  0.90823007  0.60196438  1
  O2-  O251  1  0.96274935  0.91645018  0.93147143  1
  O2-  O252  1  0.33354287  0.29858826  0.27322978  1
  O2-  O253  1  0.33519693  0.29058539  0.59722466  1
  O2-  O254  1  0.33307814  0.29766840  0.94061911  1
  O2-  O255  1  0.33666143  0.79179258  0.26357377  1
  O2-  O256  1  0.33185961  0.78681298  0.59731070  1
  O2-  O257  1  0.33131359  0.79085490  0.93313659  1
  O2-  O258  1  0.83251491  0.28945221  0.26555647  1
  O2-  O259  1  0.83370837  0.29777111  0.60489175  1
  O2-  O260  1  0.83376036  0.28838007  0.93110579  1
  O2-  O261  1  0.83327247  0.79355487  0.27207292  1
  O2-  O262  1  0.83261546  0.79666856  0.60821586  1
  O2-  O263  1  0.83023341  0.79318530  0.93322180  1
  O2-  O264  1  0.41834667  0.03751487  0.06375974  1
  O2-  O265  1  0.42005415  0.04263696  0.40537709  1
  O2-  O266  1  0.41209273  0.04785359  0.72656013  1
  O2-  O267  1  0.41557412  0.54571102  0.07424556  1
  O2-  O268  1  0.41805390  0.54791729  0.39522000  1
  O2-  O269  1  0.41473625  0.54385143  0.73208487  1
  O2-  O270  1  0.91888801  0.04110231  0.06937556  1
  O2-  O271  1  0.91930593  0.05925435  0.39099371  1
  O2-  O272  1  0.92132188  0.03820567  0.73301368  1
  O2-  O273  1  0.92392746  0.54631976  0.06557545  1
  O2-  O274  1  0.91160033  0.53900166  0.39326072  1
  O2-  O275  1  0.92351101  0.54711251  0.73577192  1
  O2-  O276  1  0.29363302  0.16617841  0.06778371  1
  O2-  O277  1  0.29610076  0.17066434  0.40284874  1
  O2-  O278  1  0.28813516  0.16383335  0.72771737  1
  O2-  O279  1  0.28615775  0.66815783  0.06956375  1
  O2-  O280  1  0.29573709  0.66614448  0.39305585  1
  O2-  O281  1  0.28222876  0.66581672  0.73308895  1
  O2-  O282  1  0.78758460  0.16473332  0.06814474  1
  O2-  O283  1  0.78780021  0.16491735  0.39744200  1
  O2-  O284  1  0.79814541  0.16843084  0.73160470  1
  O2-  O285  1  0.79221574  0.67037860  0.07076960  1
  O2-  O286  1  0.79551365  0.66098555  0.39614710  1
  O2-  O287  1  0.79542560  0.66896887  0.73424564  1
