# generated using pymatgen
data_Ca2Al2SiO7
_symmetry_space_group_name_H-M   'P 1'
_cell_length_a   15.46846173
_cell_length_b   15.46940756
_cell_length_c   15.29061991
_cell_angle_alpha   90.00158196
_cell_angle_beta   89.97311559
_cell_angle_gamma   90.01349147
_symmetry_Int_Tables_number   1
_chemical_formula_structural   Ca2Al2SiO7
_chemical_formula_sum   'Ca48 Al48 Si24 O168'
_cell_volume   3658.86041870
_cell_formula_units_Z   24
loop_
 _symmetry_equiv_pos_site_id
 _symmetry_equiv_pos_as_xyz
  1  'x, y, z'
loop_
 _atom_type_symbol
 _atom_type_oxidation_number
  Ca2+  2.0
  Al0+  0.0
  Si0+  0.0
  O2-  -2.0
loop_
 _atom_site_type_symbol
 _atom_site_label
 _atom_site_symmetry_multiplicity
 _atom_site_fract_x
 _atom_site_fract_y
 _atom_site_fract_z
 _atom_site_occupancy
  Ca2+  Ca0  1  0.17170753  0.09066051  0.16794270  1
  Ca2+  Ca1  1  0.16754046  0.09026463  0.49946078  1
  Ca2+  Ca2  1  0.16653685  0.08025451  0.84132450  1
  Ca2+  Ca3  1  0.17409578  0.57128915  0.17919906  1
  Ca2+  Ca4  1  0.17360556  0.58066654  0.50536463  1
  Ca2+  Ca5  1  0.17275477  0.58945712  0.83384314  1
  Ca2+  Ca6  1  0.67291444  0.07340405  0.17521938  1
  Ca2+  Ca7  1  0.67879768  0.07436280  0.50781761  1
  Ca2+  Ca8  1  0.67710406  0.07295923  0.83973741  1
  Ca2+  Ca9  1  0.67711245  0.58364512  0.17007747  1
  Ca2+  Ca10  1  0.67057605  0.58370929  0.49779060  1
  Ca2+  Ca11  1  0.67374980  0.58331800  0.83813606  1
  Ca2+  Ca12  1  0.08840702  0.32280082  0.16568433  1
  Ca2+  Ca13  1  0.08802146  0.32271440  0.49423824  1
  Ca2+  Ca14  1  0.08180469  0.31820041  0.82960003  1
  Ca2+  Ca15  1  0.07639491  0.83758455  0.16419332  1
  Ca2+  Ca16  1  0.07067637  0.82932239  0.49794366  1
  Ca2+  Ca17  1  0.07792843  0.83222407  0.82229874  1
  Ca2+  Ca18  1  0.56898369  0.33412748  0.16094143  1
  Ca2+  Ca19  1  0.57233917  0.33310437  0.49441457  1
  Ca2+  Ca20  1  0.57303149  0.33059433  0.82757500  1
  Ca2+  Ca21  1  0.58853430  0.83767506  0.16539198  1
  Ca2+  Ca22  1  0.58246259  0.84127497  0.49798226  1
  Ca2+  Ca23  1  0.58121009  0.83926875  0.82850738  1
  Ca2+  Ca24  1  0.32996867  0.41474093  0.17802008  1
  Ca2+  Ca25  1  0.33355944  0.42180327  0.50119071  1
  Ca2+  Ca26  1  0.33786304  0.41749319  0.83283997  1
  Ca2+  Ca27  1  0.32428582  0.92931754  0.17030015  1
  Ca2+  Ca28  1  0.33606524  0.92393522  0.50570029  1
  Ca2+  Ca29  1  0.32517254  0.91964360  0.84265041  1
  Ca2+  Ca30  1  0.84002358  0.42977780  0.17132727  1
  Ca2+  Ca31  1  0.83862950  0.42384199  0.50211802  1
  Ca2+  Ca32  1  0.83504133  0.42441932  0.83885602  1
  Ca2+  Ca33  1  0.82737349  0.92504916  0.17272843  1
  Ca2+  Ca34  1  0.83110431  0.91912159  0.50345717  1
  Ca2+  Ca35  1  0.82876118  0.92039236  0.83558329  1
  Ca2+  Ca36  1  0.40665177  0.17391288  0.16227371  1
  Ca2+  Ca37  1  0.41177835  0.17749221  0.49098581  1
  Ca2+  Ca38  1  0.40954922  0.17603049  0.83027909  1
  Ca2+  Ca39  1  0.41770175  0.66555423  0.16476720  1
  Ca2+  Ca40  1  0.41171962  0.66987362  0.49865645  1
  Ca2+  Ca41  1  0.41823989  0.67549124  0.82118764  1
  Ca2+  Ca42  1  0.92588289  0.15369456  0.16400328  1
  Ca2+  Ca43  1  0.92593884  0.15507430  0.49485374  1
  Ca2+  Ca44  1  0.92552129  0.15128259  0.82976322  1
  Ca2+  Ca45  1  0.90820380  0.67151379  0.16426482  1
  Ca2+  Ca46  1  0.91278991  0.67779022  0.49347516  1
  Ca2+  Ca47  1  0.92325624  0.67349595  0.82394305  1
  Al0+  Al48  1  -0.00164892  -0.00365662  0.00038146  1
  Al0+  Al49  1  0.00013940  -0.00235321  0.32626122  1
  Al0+  Al50  1  0.00212193  -0.00214487  0.66052107  1
  Al0+  Al51  1  0.00190751  0.50026933  0.00273222  1
  Al0+  Al52  1  0.00136138  0.49898309  0.34301301  1
  Al0+  Al53  1  0.00372698  0.49633057  0.66660711  1
  Al0+  Al54  1  0.49896016  0.00146929  0.00597866  1
  Al0+  Al55  1  0.49828801  0.00070683  0.33914067  1
  Al0+  Al56  1  0.50169781  0.00256166  0.66731872  1
  Al0+  Al57  1  0.50109521  0.50150578  -0.00629332  1
  Al0+  Al58  1  0.50021710  0.50171869  0.33103530  1
  Al0+  Al59  1  0.49915439  0.50110694  0.66698399  1
  Al0+  Al60  1  0.24778477  0.25187974  -0.00771794  1
  Al0+  Al61  1  0.24874422  0.25009450  0.33301674  1
  Al0+  Al62  1  0.24886744  0.25242462  0.65987637  1
  Al0+  Al63  1  0.25015237  0.74958070  0.00578474  1
  Al0+  Al64  1  0.24958293  0.75012939  0.33388370  1
  Al0+  Al65  1  0.25270544  0.74978720  0.66257327  1
  Al0+  Al66  1  0.74880005  0.25256779  0.00275515  1
  Al0+  Al67  1  0.75008654  0.24974226  0.33500860  1
  Al0+  Al68  1  0.75145577  0.25100338  0.67241753  1
  Al0+  Al69  1  0.74973520  0.74904729  0.00415973  1
  Al0+  Al70  1  0.74822143  0.74897718  0.33545116  1
  Al0+  Al71  1  0.74878565  0.74900942  0.66723500  1
  Al0+  Al72  1  0.06658246  0.17862073  0.98568989  1
  Al0+  Al73  1  0.82343587  0.07157657  0.34893342  1
  Al0+  Al74  1  0.92781414  0.81826611  0.65136361  1
  Al0+  Al75  1  0.82035924  0.56969297  0.34815819  1
  Al0+  Al76  1  0.43127685  0.31997910  0.31891906  1
  Al0+  Al77  1  0.42902295  0.32083792  0.98404962  1
  Al0+  Al78  1  0.31801034  0.07403074  0.01273851  1
  Al0+  Al79  1  0.67859976  0.92883952  0.35051463  1
  Al0+  Al80  1  0.82460625  0.07008922  0.68237711  1
  Al0+  Al81  1  0.82207205  0.07307646  0.01551696  1
  Al0+  Al82  1  0.31789273  0.07029846  0.34787660  1
  Al0+  Al83  1  0.43068496  0.32073617  0.65043805  1
  Al0+  Al84  1  0.67812180  0.92921998  0.01606308  1
  Al0+  Al85  1  0.92788844  0.81740413  0.31628387  1
  Al0+  Al86  1  0.31988854  0.57067003  0.68215551  1
  Al0+  Al87  1  0.43102631  0.82371835  0.65448785  1
  Al0+  Al88  1  0.17740809  0.92571483  0.01435729  1
  Al0+  Al89  1  0.06844614  0.18020791  0.31762622  1
  Al0+  Al90  1  0.07382408  0.67642319  0.65172084  1
  Al0+  Al91  1  0.17981315  0.42776937  0.34996551  1
  Al0+  Al92  1  0.82164898  0.56873588  0.01181352  1
  Al0+  Al93  1  0.32332108  0.57250242  0.34840828  1
  Al0+  Al94  1  0.06868311  0.17869800  0.65225668  1
  Al0+  Al95  1  0.67767785  0.92780503  0.68365370  1
  Si0+  Si96  1  0.56918200  0.68041071  0.31702624  1
  Si0+  Si97  1  0.92590496  0.32300336  0.65108723  1
  Si0+  Si98  1  0.32062308  0.07464678  0.67991016  1
  Si0+  Si99  1  0.67515868  0.42940520  0.01589086  1
  Si0+  Si100  1  0.17681992  0.92662992  0.35145022  1
  Si0+  Si101  1  0.32323069  0.57154479  0.01389148  1
  Si0+  Si102  1  0.42693235  0.82402305  0.31695133  1
  Si0+  Si103  1  0.18084645  0.43078751  0.01300453  1
  Si0+  Si104  1  0.57477392  0.17961443  0.65039277  1
  Si0+  Si105  1  0.67662774  0.42789476  0.34856349  1
  Si0+  Si106  1  0.07274890  0.67712994  0.98711984  1
  Si0+  Si107  1  0.17909560  0.42579156  0.68736369  1
  Si0+  Si108  1  0.92836646  0.81751590  0.98461083  1
  Si0+  Si109  1  0.67822181  0.42977458  0.68179006  1
  Si0+  Si110  1  0.57249676  0.17663945  0.31707271  1
  Si0+  Si111  1  0.57124311  0.68061610  0.98437590  1
  Si0+  Si112  1  0.92750127  0.32620796  0.98494904  1
  Si0+  Si113  1  0.07237299  0.67607246  0.31603909  1
  Si0+  Si114  1  0.82272827  0.56987648  0.68108823  1
  Si0+  Si115  1  0.57193708  0.67745106  0.64965836  1
  Si0+  Si116  1  0.42774091  0.82096361  0.98788667  1
  Si0+  Si117  1  0.92573911  0.32481079  0.31750362  1
  Si0+  Si118  1  0.57370176  0.17695860  0.98343588  1
  Si0+  Si119  1  0.18265390  0.92941136  0.67836960  1
  O2-  O120  1  0.24581163  0.00206433  0.06276707  1
  O2-  O121  1  0.24622328  -0.00606714  0.39647997  1
  O2-  O122  1  0.25298860  0.00064744  0.72185381  1
  O2-  O123  1  0.25442879  0.49913084  0.05542104  1
  O2-  O124  1  0.25003839  0.50245040  0.39823752  1
  O2-  O125  1  0.24459002  0.49792037  0.73173343  1
  O2-  O126  1  0.74658667  0.00455483  0.06481528  1
  O2-  O127  1  0.75064347  0.00087109  0.39899476  1
  O2-  O128  1  0.75150622  -0.00130618  0.73168391  1
  O2-  O129  1  0.74958755  0.49183544  0.05944651  1
  O2-  O130  1  0.75018937  0.49043455  0.39431623  1
  O2-  O131  1  0.75217172  0.49850107  0.72376415  1
  O2-  O132  1  -0.00964697  0.25310168  0.27235441  1
  O2-  O133  1  -0.01006425  0.25033354  0.60772100  1
  O2-  O134  1  -0.01347998  0.24949406  0.94015944  1
  O2-  O135  1  0.00301496  0.74214891  0.26882124  1
  O2-  O136  1  -0.00359096  0.74213061  0.60196159  1
  O2-  O137  1  0.00366506  0.74951878  0.94407182  1
  O2-  O138  1  0.50520796  0.24568718  0.27048186  1
  O2-  O139  1  0.50431288  0.24532696  0.60421390  1
  O2-  O140  1  0.50324385  0.24451067  0.93857032  1
  O2-  O141  1  0.49775371  0.75178588  0.27532200  1
  O2-  O142  1  0.50768451  0.75079943  0.60709770  1
  O2-  O143  1  0.50044082  0.75225077  0.94385614  1
  O2-  O144  1  0.07003496  0.18350775  0.09823065  1
  O2-  O145  1  0.06913504  0.18197411  0.43066610  1
  O2-  O146  1  0.07039694  0.17934782  0.76562855  1
  O2-  O147  1  0.07234399  0.67471501  0.09177445  1
  O2-  O148  1  0.07181607  0.67889588  0.42125918  1
  O2-  O149  1  0.07241263  0.68024646  0.76652950  1
  O2-  O150  1  0.57413666  0.18005733  0.08876939  1
  O2-  O151  1  0.57050495  0.17964216  0.42264022  1
  O2-  O152  1  0.57382111  0.18265525  0.75614259  1
  O2-  O153  1  0.57003857  0.67687259  0.08934839  1
  O2-  O154  1  0.56962005  0.67808529  0.42185946  1
  O2-  O155  1  0.57064381  0.67452520  0.75566138  1
  O2-  O156  1  0.18212042  0.42832045  0.23521913  1
  O2-  O157  1  0.18112864  0.42378878  0.58246859  1
  O2-  O158  1  0.17952054  0.43308039  0.90810596  1
  O2-  O159  1  0.17958350  0.92585372  0.24573477  1
  O2-  O160  1  0.18383813  0.92981665  0.57352485  1
  O2-  O161  1  0.18052529  0.92221345  0.90015058  1
  O2-  O162  1  0.67408496  0.43270901  0.24303772  1
  O2-  O163  1  0.67768951  0.43131520  0.57683766  1
  O2-  O164  1  0.67302115  0.43367750  0.91007086  1
  O2-  O165  1  0.67929806  0.92925531  0.23692161  1
  O2-  O166  1  0.67699587  0.92949336  0.57080333  1
  O2-  O167  1  0.67965252  0.92620653  0.90281782  1
  O2-  O168  1  0.42925784  0.32411306  0.09695055  1
  O2-  O169  1  0.43377013  0.32088600  0.43182649  1
  O2-  O170  1  0.43195335  0.31986382  0.76398223  1
  O2-  O171  1  0.42630132  0.81649647  0.09280252  1
  O2-  O172  1  0.42738148  0.82407233  0.42195511  1
  O2-  O173  1  0.42897087  0.82068278  0.76825603  1
  O2-  O174  1  0.93433133  0.33514579  0.08955639  1
  O2-  O175  1  0.92655510  0.32677680  0.42296349  1
  O2-  O176  1  0.92790860  0.32846636  0.75672283  1
  O2-  O177  1  0.92661959  0.81451748  0.08954630  1
  O2-  O178  1  0.92826137  0.81598106  0.42908858  1
  O2-  O179  1  0.92992259  0.81716925  0.76573600  1
  O2-  O180  1  0.31687716  0.07072955  0.23483247  1
  O2-  O181  1  0.31878713  0.07441798  0.57487709  1
  O2-  O182  1  0.31695885  0.07184060  0.89844716  1
  O2-  O183  1  0.32333556  0.57043103  0.23381934  1
  O2-  O184  1  0.32094493  0.56930789  0.56986363  1
  O2-  O185  1  0.32220002  0.57469706  0.90900352  1
  O2-  O186  1  0.82116191  0.06979045  0.23544724  1
  O2-  O187  1  0.82341776  0.07003993  0.56931247  1
  O2-  O188  1  0.82271834  0.06747380  0.90201642  1
  O2-  O189  1  0.81760136  0.56972153  0.23479622  1
  O2-  O190  1  0.82052554  0.56871383  0.57623499  1
  O2-  O191  1  0.81999929  0.56854671  0.89831231  1
  O2-  O192  1  0.04276749  0.08268053  0.26282329  1
  O2-  O193  1  0.04402985  0.08203920  0.59639955  1
  O2-  O194  1  0.04067509  0.07927839  0.93334135  1
  O2-  O195  1  0.04847365  0.58006063  0.27412591  1
  O2-  O196  1  0.05332195  0.57438590  0.60404041  1
  O2-  O197  1  0.04377179  0.58649463  0.93762428  1
  O2-  O198  1  0.54447271  0.08303383  0.27262222  1
  O2-  O199  1  0.55190933  0.08543372  0.60570192  1
  O2-  O200  1  0.54894310  0.08225561  0.93919564  1
  O2-  O201  1  0.54156056  0.58982595  0.26627937  1
  O2-  O202  1  0.54190400  0.58621393  0.60182834  1
  O2-  O203  1  0.54390967  0.59020530  0.93330545  1
  O2-  O204  1  0.16399196  0.21543192  0.26375726  1
  O2-  O205  1  0.16315810  0.21409840  0.59713245  1
  O2-  O206  1  0.16071231  0.21408800  0.92901997  1
  O2-  O207  1  0.16665628  0.70138150  0.26981770  1
  O2-  O208  1  0.16971701  0.70850375  0.59790194  1
  O2-  O209  1  0.16627407  0.70332321  0.94128174  1
  O2-  O210  1  0.66712077  0.20018001  0.27169379  1
  O2-  O211  1  0.66803992  0.20855949  0.60549779  1
  O2-  O212  1  0.66687691  0.20463124  0.93599383  1
  O2-  O213  1  0.66023956  0.70842169  0.26819526  1
  O2-  O214  1  0.66704869  0.69677607  0.60470352  1
  O2-  O215  1  0.66340253  0.70768252  0.93691611  1
  O2-  O216  1  0.09123917  0.46056478  0.06310590  1
  O2-  O217  1  0.08194243  0.45167466  0.40541734  1
  O2-  O218  1  0.08374688  0.44603516  0.73298461  1
  O2-  O219  1  0.07772548  0.94809931  0.06451678  1
  O2-  O220  1  0.08332967  0.95377136  0.39469521  1
  O2-  O221  1  0.09061281  0.95666010  0.72525635  1
  O2-  O222  1  0.58442740  0.46363976  0.06314418  1
  O2-  O223  1  0.58679892  0.46218370  0.39693088  1
  O2-  O224  1  0.58859393  0.46187014  0.73100183  1
  O2-  O225  1  0.57836374  0.95226306  0.06889265  1
  O2-  O226  1  0.57958371  0.95571698  0.40218956  1
  O2-  O227  1  0.57918223  0.95859670  0.73705120  1
  O2-  O228  1  0.20799738  0.33871984  0.05864301  1
  O2-  O229  1  0.21178349  0.33156153  0.40315127  1
  O2-  O230  1  0.21091605  0.33381234  0.73386037  1
  O2-  O231  1  0.20896816  0.82991271  0.07190761  1
  O2-  O232  1  0.20050562  0.83238780  0.39629802  1
  O2-  O233  1  0.21089701  0.83821295  0.72651506  1
  O2-  O234  1  0.69114542  0.33414457  0.06067128  1
  O2-  O235  1  0.69417939  0.33259091  0.39337821  1
  O2-  O236  1  0.70279179  0.33872105  0.73223839  1
  O2-  O237  1  0.70810052  0.83096705  0.06851714  1
  O2-  O238  1  0.70460525  0.82949159  0.40124547  1
  O2-  O239  1  0.70209363  0.82672817  0.73446654  1
  O2-  O240  1  0.46251281  0.41710585  0.26491231  1
  O2-  O241  1  0.46389988  0.41753923  0.59918071  1
  O2-  O242  1  0.46224098  0.41737840  0.92931124  1
  O2-  O243  1  0.45555395  0.91573903  0.26997609  1
  O2-  O244  1  0.45792332  0.92151578  0.60038851  1
  O2-  O245  1  0.45177662  0.91450701  0.94248420  1
  O2-  O246  1  0.95553695  0.41851868  0.27256987  1
  O2-  O247  1  0.95521593  0.41467091  0.60271504  1
  O2-  O248  1  0.96179730  0.41618403  0.93423592  1
  O2-  O249  1  0.96023243  0.91245646  0.26059757  1
  O2-  O250  1  0.96210602  0.91329575  0.59674400  1
  O2-  O251  1  0.95330297  0.90927296  0.93672594  1
  O2-  O252  1  0.33458993  0.28826791  0.26653696  1
  O2-  O253  1  0.33447244  0.29123663  0.59691063  1
  O2-  O254  1  0.33313441  0.29211293  0.92755523  1
  O2-  O255  1  0.33498219  0.79636968  0.26929123  1
  O2-  O256  1  0.33718050  0.79051849  0.59783047  1
  O2-  O257  1  0.33661277  0.78992739  0.93997141  1
  O2-  O258  1  0.82949429  0.30700328  0.27286467  1
  O2-  O259  1  0.82964993  0.30519386  0.60774182  1
  O2-  O260  1  0.82889202  0.31316652  0.94441500  1
  O2-  O261  1  0.83121811  0.78290705  0.26415353  1
  O2-  O262  1  0.82870946  0.79058524  0.59977105  1
  O2-  O263  1  0.83794330  0.78432475  0.93747970  1
  O2-  O264  1  0.41638714  0.04910858  0.06613443  1
  O2-  O265  1  0.41427726  0.04239034  0.40305052  1
  O2-  O266  1  0.41433615  0.05268348  0.72539959  1
  O2-  O267  1  0.41683677  0.54587798  0.05820524  1
  O2-  O268  1  0.42181721  0.54415212  0.39999966  1
  O2-  O269  1  0.41704666  0.53963285  0.73628551  1
  O2-  O270  1  0.91818023  0.03832629  0.06776351  1
  O2-  O271  1  0.92225335  0.03916031  0.39748461  1
  O2-  O272  1  0.92341718  0.03725310  0.73250308  1
  O2-  O273  1  0.91828252  0.54083743  0.06728284  1
  O2-  O274  1  0.91663757  0.54418963  0.40402477  1
  O2-  O275  1  0.91516180  0.54204412  0.72773936  1
  O2-  O276  1  0.28716884  0.17297226  0.06354507  1
  O2-  O277  1  0.28522190  0.16569733  0.40161562  1
  O2-  O278  1  0.28855573  0.16552466  0.72635945  1
  O2-  O279  1  0.29542063  0.66142875  0.06437968  1
  O2-  O280  1  0.29726470  0.67231731  0.39922176  1
  O2-  O281  1  0.29001866  0.66851245  0.73567851  1
  O2-  O282  1  0.80337479  0.17587674  0.06371584  1
  O2-  O283  1  0.79996550  0.17249357  0.39978202  1
  O2-  O284  1  0.79974603  0.17052797  0.73464693  1
  O2-  O285  1  0.78592666  0.66212588  0.06772335  1
  O2-  O286  1  0.78178782  0.66243299  0.40281365  1
  O2-  O287  1  0.79392998  0.66060303  0.72947345  1
