# generated using pymatgen
data_Ca2Al2SiO7
_symmetry_space_group_name_H-M   'P 1'
_cell_length_a   15.46295684
_cell_length_b   15.46213954
_cell_length_c   15.28682373
_cell_angle_alpha   90.01327127
_cell_angle_beta   90.02010508
_cell_angle_gamma   89.99997383
_symmetry_Int_Tables_number   1
_chemical_formula_structural   Ca2Al2SiO7
_chemical_formula_sum   'Ca48 Al48 Si24 O168'
_cell_volume   3654.93242155
_cell_formula_units_Z   24
loop_
 _symmetry_equiv_pos_site_id
 _symmetry_equiv_pos_as_xyz
  1  'x, y, z'
loop_
 _atom_type_symbol
 _atom_type_oxidation_number
  Ca2+  2.0
  Al0+  0.0
  Si0+  0.0
  O2-  -2.0
loop_
 _atom_site_type_symbol
 _atom_site_label
 _atom_site_symmetry_multiplicity
 _atom_site_fract_x
 _atom_site_fract_y
 _atom_site_fract_z
 _atom_site_occupancy
  Ca2+  Ca0  1  0.17627596  0.07980055  0.18237250  1
  Ca2+  Ca1  1  0.16807031  0.08234214  0.50431192  1
  Ca2+  Ca2  1  0.16325449  0.08111252  0.83276097  1
  Ca2+  Ca3  1  0.16598870  0.57862747  0.17207958  1
  Ca2+  Ca4  1  0.16919438  0.57524680  0.50000612  1
  Ca2+  Ca5  1  0.16628799  0.58466833  0.83898269  1
  Ca2+  Ca6  1  0.65739509  0.07713143  0.17011891  1
  Ca2+  Ca7  1  0.66202642  0.07813768  0.50665211  1
  Ca2+  Ca8  1  0.66465939  0.08263465  0.83576342  1
  Ca2+  Ca9  1  0.65638037  0.57161775  0.16823148  1
  Ca2+  Ca10  1  0.66949959  0.56984230  0.50779092  1
  Ca2+  Ca11  1  0.67050080  0.57237406  0.83919663  1
  Ca2+  Ca12  1  0.08049701  0.33022654  0.16372823  1
  Ca2+  Ca13  1  0.07804913  0.32282049  0.49359115  1
  Ca2+  Ca14  1  0.06720486  0.32844821  0.82396850  1
  Ca2+  Ca15  1  0.08516376  0.82928716  0.16205407  1
  Ca2+  Ca16  1  0.08497193  0.83929850  0.49552822  1
  Ca2+  Ca17  1  0.08514059  0.82845342  0.82747220  1
  Ca2+  Ca18  1  0.59068680  0.32356877  0.16399611  1
  Ca2+  Ca19  1  0.58708424  0.32419550  0.49271675  1
  Ca2+  Ca20  1  0.59284456  0.32499772  0.82829474  1
  Ca2+  Ca21  1  0.57434709  0.83780783  0.15871191  1
  Ca2+  Ca22  1  0.58185804  0.83774142  0.49040406  1
  Ca2+  Ca23  1  0.58416440  0.83856089  0.83173435  1
  Ca2+  Ca24  1  0.33023352  0.41709406  0.17830623  1
  Ca2+  Ca25  1  0.32762978  0.40256018  0.49683153  1
  Ca2+  Ca26  1  0.33085180  0.41803922  0.83760133  1
  Ca2+  Ca27  1  0.33434144  0.91956630  0.17620129  1
  Ca2+  Ca28  1  0.32775052  0.92263909  0.49808514  1
  Ca2+  Ca29  1  0.33106463  0.91494926  0.83577464  1
  Ca2+  Ca30  1  0.82545310  0.41338962  0.16658195  1
  Ca2+  Ca31  1  0.82426938  0.41630738  0.50741733  1
  Ca2+  Ca32  1  0.82673511  0.40900573  0.83479493  1
  Ca2+  Ca33  1  0.81903543  0.91579966  0.17144884  1
  Ca2+  Ca34  1  0.82097042  0.92501835  0.50780871  1
  Ca2+  Ca35  1  0.82275097  0.92642393  0.83480555  1
  Ca2+  Ca36  1  0.42509413  0.16677921  0.17037899  1
  Ca2+  Ca37  1  0.42763274  0.16717777  0.49068048  1
  Ca2+  Ca38  1  0.43037270  0.16513219  0.83078234  1
  Ca2+  Ca39  1  0.42139743  0.68020964  0.16036769  1
  Ca2+  Ca40  1  0.41865155  0.67626978  0.49394453  1
  Ca2+  Ca41  1  0.42662869  0.67101165  0.83620094  1
  Ca2+  Ca42  1  0.92333947  0.17060018  0.16398510  1
  Ca2+  Ca43  1  0.92228699  0.16135473  0.50180230  1
  Ca2+  Ca44  1  0.91343059  0.17544833  0.82357571  1
  Ca2+  Ca45  1  0.92416352  0.66662111  0.16128826  1
  Ca2+  Ca46  1  0.91222120  0.66646664  0.49992892  1
  Ca2+  Ca47  1  0.91767779  0.66428842  0.82945112  1
  Al0+  Al48  1  0.00036338  -0.00105044  0.00165747  1
  Al0+  Al49  1  -0.00162192  -0.00131826  0.32866374  1
  Al0+  Al50  1  -0.00087136  -0.00267960  0.67245296  1
  Al0+  Al51  1  -0.00051309  0.49946358  -0.00770261  1
  Al0+  Al52  1  0.00143362  0.50076812  0.33733921  1
  Al0+  Al53  1  0.00114725  0.50046748  0.66369125  1
  Al0+  Al54  1  0.49784928  0.00191235  -0.00468102  1
  Al0+  Al55  1  0.49816134  -0.00001448  0.33385968  1
  Al0+  Al56  1  0.49567865  0.00015111  0.66573025  1
  Al0+  Al57  1  0.49826065  0.50194428  0.00175344  1
  Al0+  Al58  1  0.49993341  0.50116766  0.33701294  1
  Al0+  Al59  1  0.49796164  0.50199780  0.66975363  1
  Al0+  Al60  1  0.25057701  0.24916801  0.00067904  1
  Al0+  Al61  1  0.25090173  0.24963811  0.33412417  1
  Al0+  Al62  1  0.24999609  0.24901048  0.66828329  1
  Al0+  Al63  1  0.25061622  0.74953957  -0.00713491  1
  Al0+  Al64  1  0.25022806  0.74922093  0.33285303  1
  Al0+  Al65  1  0.25051905  0.74974400  0.66909438  1
  Al0+  Al66  1  0.75179422  0.25018404  -0.00162531  1
  Al0+  Al67  1  0.75272252  0.25038303  0.33230030  1
  Al0+  Al68  1  0.74974020  0.24915602  0.66259543  1
  Al0+  Al69  1  0.75136882  0.74965796  0.00147972  1
  Al0+  Al70  1  0.75143034  0.74979788  0.33502638  1
  Al0+  Al71  1  0.75005753  0.74783458  0.67265739  1
  Al0+  Al72  1  0.42983634  0.81993758  0.32110743  1
  Al0+  Al73  1  0.67850834  0.93051153  0.34509383  1
  Al0+  Al74  1  0.67811675  0.42846872  0.68187725  1
  Al0+  Al75  1  0.17732261  0.92734642  0.34612643  1
  Al0+  Al76  1  0.42945288  0.32289007  0.31934627  1
  Al0+  Al77  1  0.93114383  0.31859969  0.98657325  1
  Al0+  Al78  1  0.82293582  0.57057328  0.68267145  1
  Al0+  Al79  1  0.57323927  0.67722539  0.98496222  1
  Al0+  Al80  1  0.56928768  0.17963233  0.65243825  1
  Al0+  Al81  1  0.67882986  0.93047527  0.01423628  1
  Al0+  Al82  1  0.07054393  0.17763516  0.31968092  1
  Al0+  Al83  1  0.56947084  0.18167754  0.98617208  1
  Al0+  Al84  1  0.67483421  0.92911966  0.68155967  1
  Al0+  Al85  1  0.67905228  0.42862266  0.34661274  1
  Al0+  Al86  1  0.17919891  0.42848867  0.34658041  1
  Al0+  Al87  1  0.17955634  0.92888024  0.68164505  1
  Al0+  Al88  1  0.57351855  0.17957897  0.31788255  1
  Al0+  Al89  1  0.67908759  0.42884195  0.01509846  1
  Al0+  Al90  1  0.92798573  0.32192555  0.64789222  1
  Al0+  Al91  1  0.32102257  0.07165608  0.34933950  1
  Al0+  Al92  1  0.07094034  0.17640612  0.65217889  1
  Al0+  Al93  1  0.82025444  0.07083797  0.68108023  1
  Al0+  Al94  1  0.06928291  0.68077213  0.98626046  1
  Al0+  Al95  1  0.43049204  0.82233161  0.98255951  1
  Si0+  Si96  1  0.31937971  0.57319745  0.68382360  1
  Si0+  Si97  1  0.92714969  0.82403775  0.98192264  1
  Si0+  Si98  1  0.42508563  0.32377835  0.98428359  1
  Si0+  Si99  1  0.42814094  0.81948035  0.64998660  1
  Si0+  Si100  1  0.31982782  0.07157078  0.01573465  1
  Si0+  Si101  1  0.32071667  0.07309721  0.68631497  1
  Si0+  Si102  1  0.82353249  0.07195707  0.34801388  1
  Si0+  Si103  1  0.57480028  0.67844328  0.31847188  1
  Si0+  Si104  1  0.57139440  0.67883057  0.65155967  1
  Si0+  Si105  1  0.92719976  0.82088777  0.31806769  1
  Si0+  Si106  1  0.42721611  0.32534626  0.65180836  1
  Si0+  Si107  1  0.93030866  0.32500459  0.31539202  1
  Si0+  Si108  1  0.82434220  0.57145408  0.01726816  1
  Si0+  Si109  1  0.32187284  0.57280374  0.35017811  1
  Si0+  Si110  1  0.07372145  0.67957532  0.64865024  1
  Si0+  Si111  1  0.07039584  0.67891697  0.31991762  1
  Si0+  Si112  1  0.07467508  0.17615983  0.98428809  1
  Si0+  Si113  1  0.92865387  0.81860174  0.65224395  1
  Si0+  Si114  1  0.82378291  0.57204901  0.34904379  1
  Si0+  Si115  1  0.17838641  0.42990430  0.01314398  1
  Si0+  Si116  1  0.18024452  0.42823070  0.68225765  1
  Si0+  Si117  1  0.82334335  0.07297658  0.01861610  1
  Si0+  Si118  1  0.31956887  0.57171030  0.01595259  1
  Si0+  Si119  1  0.17981275  0.92749197  0.01464439  1
  O2-  O120  1  0.24656721  0.00166775  0.05671660  1
  O2-  O121  1  0.24492166  0.00218974  0.39733091  1
  O2-  O122  1  0.25019528  0.00593807  0.73050695  1
  O2-  O123  1  0.25067718  0.49835845  0.05767338  1
  O2-  O124  1  0.25827819  0.49895197  0.39408174  1
  O2-  O125  1  0.25135452  0.49877537  0.72546287  1
  O2-  O126  1  0.75467603  0.00387507  0.06222838  1
  O2-  O127  1  0.74989184  0.00808321  0.39126224  1
  O2-  O128  1  0.74363775  0.00385808  0.73161587  1
  O2-  O129  1  0.75129507  0.50755171  0.06150590  1
  O2-  O130  1  0.75382826  0.50437912  0.39132214  1
  O2-  O131  1  0.75327642  0.49707660  0.73293283  1
  O2-  O132  1  -0.00164856  0.25471950  0.27225645  1
  O2-  O133  1  0.00013615  0.24840292  0.60047216  1
  O2-  O134  1  0.00424115  0.24205952  0.94039960  1
  O2-  O135  1  0.00069707  0.75087290  0.27758058  1
  O2-  O136  1  0.00011924  0.74810566  0.60758251  1
  O2-  O137  1  -0.00378694  0.75549706  0.93758480  1
  O2-  O138  1  0.50434249  0.25521188  0.26795340  1
  O2-  O139  1  0.49798210  0.25913199  0.60874693  1
  O2-  O140  1  0.49738144  0.25981875  0.93990818  1
  O2-  O141  1  0.50795734  0.74884257  0.27445331  1
  O2-  O142  1  0.50475276  0.75397722  0.60858963  1
  O2-  O143  1  0.50739801  0.75457541  0.93328569  1
  O2-  O144  1  0.07629315  0.17808460  0.08990152  1
  O2-  O145  1  0.06750018  0.17670893  0.43228705  1
  O2-  O146  1  0.07176350  0.18089941  0.76625436  1
  O2-  O147  1  0.06972129  0.68085911  0.09985783  1
  O2-  O148  1  0.06985257  0.67733607  0.42488408  1
  O2-  O149  1  0.07637802  0.68091330  0.75380379  1
  O2-  O150  1  0.56754808  0.18005896  0.09883403  1
  O2-  O151  1  0.57268009  0.17885840  0.43128212  1
  O2-  O152  1  0.56630042  0.17926251  0.76587735  1
  O2-  O153  1  0.56603258  0.67517004  0.09855179  1
  O2-  O154  1  0.57401392  0.67992393  0.42447800  1
  O2-  O155  1  0.56775258  0.67693133  0.75626596  1
  O2-  O156  1  0.17619842  0.43391654  0.23299768  1
  O2-  O157  1  0.18205910  0.42923251  0.57726989  1
  O2-  O158  1  0.18096739  0.43168728  0.90789959  1
  O2-  O159  1  0.17957969  0.92554883  0.23198973  1
  O2-  O160  1  0.18296068  0.92558660  0.56917389  1
  O2-  O161  1  0.18021963  0.92752193  0.90952724  1
  O2-  O162  1  0.68097402  0.42985980  0.23319773  1
  O2-  O163  1  0.67622823  0.43214331  0.56820377  1
  O2-  O164  1  0.68065051  0.42787356  0.90258178  1
  O2-  O165  1  0.68011743  0.92828076  0.23187855  1
  O2-  O166  1  0.67676475  0.92795476  0.56773263  1
  O2-  O167  1  0.68038900  0.93343320  0.90153631  1
  O2-  O168  1  0.41923081  0.32177708  0.08912350  1
  O2-  O169  1  0.43094801  0.32062473  0.43303725  1
  O2-  O170  1  0.42468403  0.32561242  0.75775416  1
  O2-  O171  1  0.42706571  0.82057273  0.09611945  1
  O2-  O172  1  0.42822568  0.81656538  0.43454349  1
  O2-  O173  1  0.42551634  0.81643038  0.75486946  1
  O2-  O174  1  0.93473872  0.31957938  0.09998899  1
  O2-  O175  1  0.93170392  0.32817660  0.42032678  1
  O2-  O176  1  0.93135353  0.32255468  0.76180468  1
  O2-  O177  1  0.92982613  0.82372916  0.08792682  1
  O2-  O178  1  0.92509962  0.81928877  0.42303158  1
  O2-  O179  1  0.93164994  0.81639841  0.75726435  1
  O2-  O180  1  0.32077850  0.06869361  0.23502166  1
  O2-  O181  1  0.32203207  0.07231915  0.58130016  1
  O2-  O182  1  0.31774424  0.07319784  0.91060296  1
  O2-  O183  1  0.31732038  0.57581022  0.24457131  1
  O2-  O184  1  0.31719370  0.57797924  0.57906102  1
  O2-  O185  1  0.31777800  0.57077632  0.91048779  1
  O2-  O186  1  0.82670020  0.06819214  0.24225474  1
  O2-  O187  1  0.82281598  0.06495024  0.56748289  1
  O2-  O188  1  0.82499605  0.07215657  0.91334988  1
  O2-  O189  1  0.82854953  0.57268141  0.24362308  1
  O2-  O190  1  0.81871068  0.57291438  0.56875422  1
  O2-  O191  1  0.82741399  0.56835312  0.91225061  1
  O2-  O192  1  0.03897546  0.08208820  0.26245280  1
  O2-  O193  1  0.04353255  0.07593567  0.60308459  1
  O2-  O194  1  0.05215704  0.08043362  0.94120281  1
  O2-  O195  1  0.04071203  0.58804230  0.27086354  1
  O2-  O196  1  0.04942312  0.58706803  0.60126805  1
  O2-  O197  1  0.04032414  0.58514527  0.92960323  1
  O2-  O198  1  0.53879686  0.08246884  0.26595497  1
  O2-  O199  1  0.53356967  0.08358810  0.59923529  1
  O2-  O200  1  0.53407779  0.08795297  0.93024662  1
  O2-  O201  1  0.54593113  0.58562595  0.27339563  1
  O2-  O202  1  0.53705155  0.58910258  0.60303356  1
  O2-  O203  1  0.53607631  0.58165130  0.93028570  1
  O2-  O204  1  0.16749781  0.20771789  0.26678257  1
  O2-  O205  1  0.17079251  0.20521935  0.60200186  1
  O2-  O206  1  0.16762304  0.20285616  0.93743368  1
  O2-  O207  1  0.16194254  0.70458386  0.27116679  1
  O2-  O208  1  0.16475406  0.71041683  0.60145175  1
  O2-  O209  1  0.16482406  0.71029317  0.92951474  1
  O2-  O210  1  0.67356659  0.20433735  0.26523143  1
  O2-  O211  1  0.66648107  0.20417470  0.59827520  1
  O2-  O212  1  0.66733270  0.20917904  0.93411582  1
  O2-  O213  1  0.66949905  0.69957549  0.27288573  1
  O2-  O214  1  0.66527410  0.70146542  0.60648212  1
  O2-  O215  1  0.67536052  0.69651125  0.93707281  1
  O2-  O216  1  0.08734769  0.46099268  0.05939919  1
  O2-  O217  1  0.08610475  0.46544962  0.40359391  1
  O2-  O218  1  0.08909756  0.45897227  0.72837739  1
  O2-  O219  1  0.08558226  0.94889782  0.06081885  1
  O2-  O220  1  0.07609093  0.95051470  0.39497357  1
  O2-  O221  1  0.08268127  0.95332971  0.73772656  1
  O2-  O222  1  0.58043867  0.45808283  0.06708091  1
  O2-  O223  1  0.58297812  0.45925688  0.40173697  1
  O2-  O224  1  0.57937109  0.45911751  0.73426084  1
  O2-  O225  1  0.58038699  0.96274090  0.06425847  1
  O2-  O226  1  0.58174842  0.95698428  0.39897962  1
  O2-  O227  1  0.57444827  0.95393838  0.73179256  1
  O2-  O228  1  0.20342171  0.33660039  0.05931379  1
  O2-  O229  1  0.20718868  0.33249916  0.40171440  1
  O2-  O230  1  0.20719529  0.33721830  0.73172286  1
  O2-  O231  1  0.21000512  0.83529536  0.05980899  1
  O2-  O232  1  0.20654849  0.82913245  0.39929817  1
  O2-  O233  1  0.21454212  0.83305800  0.73643305  1
  O2-  O234  1  0.71539082  0.33345627  0.06846659  1
  O2-  O235  1  0.71150852  0.33220535  0.39948594  1
  O2-  O236  1  0.70533651  0.32897552  0.73145962  1
  O2-  O237  1  0.70824675  0.83234625  0.06729423  1
  O2-  O238  1  0.71153240  0.83382459  0.39877889  1
  O2-  O239  1  0.70574970  0.83144806  0.73379049  1
  O2-  O240  1  0.44977786  0.42534597  0.27014958  1
  O2-  O241  1  0.44603988  0.42113621  0.60703188  1
  O2-  O242  1  0.44440444  0.41965081  0.94094732  1
  O2-  O243  1  0.45736033  0.91630758  0.26660107  1
  O2-  O244  1  0.44834452  0.91332704  0.60442537  1
  O2-  O245  1  0.45319902  0.92109872  0.92871502  1
  O2-  O246  1  0.95908485  0.41821215  0.26937058  1
  O2-  O247  1  0.95916251  0.42063955  0.59617293  1
  O2-  O248  1  0.96363868  0.41290244  0.92970194  1
  O2-  O249  1  0.95252307  0.91096469  0.26671901  1
  O2-  O250  1  0.95723318  0.90987638  0.60533015  1
  O2-  O251  1  0.95368915  0.91768310  0.93628663  1
  O2-  O252  1  0.33079048  0.29508713  0.26623490  1
  O2-  O253  1  0.33391776  0.29653746  0.60685886  1
  O2-  O254  1  0.33283238  0.29444085  0.93512302  1
  O2-  O255  1  0.33423425  0.78545280  0.26602323  1
  O2-  O256  1  0.33878445  0.78317541  0.60284386  1
  O2-  O257  1  0.33459147  0.78722693  0.92781137  1
  O2-  O258  1  0.83719293  0.29893922  0.26907277  1
  O2-  O259  1  0.83001891  0.29472966  0.59524653  1
  O2-  O260  1  0.83553797  0.28846522  0.93171271  1
  O2-  O261  1  0.83749212  0.78928385  0.26765691  1
  O2-  O262  1  0.83684041  0.78941034  0.60488719  1
  O2-  O263  1  0.83400365  0.79867909  0.93644151  1
  O2-  O264  1  0.41075193  0.04181775  0.06222569  1
  O2-  O265  1  0.41655392  0.03808139  0.40403372  1
  O2-  O266  1  0.41187005  0.04204074  0.73400366  1
  O2-  O267  1  0.41090587  0.54752219  0.06494089  1
  O2-  O268  1  0.41659318  0.55524995  0.39664452  1
  O2-  O269  1  0.41118936  0.54790113  0.73226420  1
  O2-  O270  1  0.91796995  0.04702441  0.06463701  1
  O2-  O271  1  0.91415371  0.03917945  0.39537669  1
  O2-  O272  1  0.91577344  0.03791136  0.73793475  1
  O2-  O273  1  0.91719503  0.54011827  0.06356442  1
  O2-  O274  1  0.91641754  0.54722274  0.39779384  1
  O2-  O275  1  0.92533371  0.54911803  0.73126720  1
  O2-  O276  1  0.29348658  0.16376219  0.06407444  1
  O2-  O277  1  0.29652291  0.17039910  0.40183079  1
  O2-  O278  1  0.29755706  0.16698279  0.73395118  1
  O2-  O279  1  0.28729047  0.66300892  0.06181308  1
  O2-  O280  1  0.28822589  0.66251154  0.39957485  1
  O2-  O281  1  0.28655049  0.66154230  0.73460932  1
  O2-  O282  1  0.79866211  0.16637085  0.06440830  1
  O2-  O283  1  0.80626843  0.16782374  0.39149134  1
  O2-  O284  1  0.79585116  0.17063240  0.73144967  1
  O2-  O285  1  0.80721998  0.66748870  0.06201582  1
  O2-  O286  1  0.79962666  0.66579163  0.39575760  1
  O2-  O287  1  0.79489620  0.66767575  0.73816012  1
