# generated using pymatgen
data_Ca2Al2SiO7
_symmetry_space_group_name_H-M   'P 1'
_cell_length_a   15.46104902
_cell_length_b   15.46188661
_cell_length_c   15.28594360
_cell_angle_alpha   89.98939429
_cell_angle_beta   89.99411831
_cell_angle_gamma   90.01529477
_symmetry_Int_Tables_number   1
_chemical_formula_structural   Ca2Al2SiO7
_chemical_formula_sum   'Ca48 Al48 Si24 O168'
_cell_volume   3654.21140249
_cell_formula_units_Z   24
loop_
 _symmetry_equiv_pos_site_id
 _symmetry_equiv_pos_as_xyz
  1  'x, y, z'
loop_
 _atom_type_symbol
 _atom_type_oxidation_number
  Ca2+  2.0
  Al0+  0.0
  Si0+  0.0
  O2-  -2.0
loop_
 _atom_site_type_symbol
 _atom_site_label
 _atom_site_symmetry_multiplicity
 _atom_site_fract_x
 _atom_site_fract_y
 _atom_site_fract_z
 _atom_site_occupancy
  Ca2+  Ca0  1  0.16033322  0.08193244  0.17416856  1
  Ca2+  Ca1  1  0.16477405  0.07719971  0.50719704  1
  Ca2+  Ca2  1  0.16482427  0.08584808  0.82907592  1
  Ca2+  Ca3  1  0.18050573  0.57620294  0.17832854  1
  Ca2+  Ca4  1  0.16769003  0.56825808  0.50483600  1
  Ca2+  Ca5  1  0.17374485  0.57303839  0.83557364  1
  Ca2+  Ca6  1  0.68247238  0.08433039  0.17323836  1
  Ca2+  Ca7  1  0.67634183  0.08290690  0.51182819  1
  Ca2+  Ca8  1  0.67344896  0.08752849  0.83427263  1
  Ca2+  Ca9  1  0.66597119  0.58721736  0.17487959  1
  Ca2+  Ca10  1  0.67501904  0.58804910  0.50057712  1
  Ca2+  Ca11  1  0.66954526  0.58508531  0.83372325  1
  Ca2+  Ca12  1  0.08865131  0.32289483  0.16693641  1
  Ca2+  Ca13  1  0.08668200  0.32459164  0.49907537  1
  Ca2+  Ca14  1  0.08022287  0.32300979  0.82113344  1
  Ca2+  Ca15  1  0.07783137  0.83920134  0.16917162  1
  Ca2+  Ca16  1  0.07936174  0.83986872  0.49221689  1
  Ca2+  Ca17  1  0.08484471  0.83102177  0.82657669  1
  Ca2+  Ca18  1  0.57660240  0.33762478  0.16822361  1
  Ca2+  Ca19  1  0.57322146  0.33006135  0.50028859  1
  Ca2+  Ca20  1  0.57449157  0.32603572  0.82214984  1
  Ca2+  Ca21  1  0.58440561  0.81926815  0.16328349  1
  Ca2+  Ca22  1  0.58010522  0.83414633  0.49840872  1
  Ca2+  Ca23  1  0.58106349  0.82975648  0.82331153  1
  Ca2+  Ca24  1  0.33254795  0.42432130  0.17766506  1
  Ca2+  Ca25  1  0.32821474  0.41196943  0.50088720  1
  Ca2+  Ca26  1  0.32764288  0.41135632  0.83377883  1
  Ca2+  Ca27  1  0.32377939  0.92054228  0.17405327  1
  Ca2+  Ca28  1  0.32336193  0.91896278  0.51150313  1
  Ca2+  Ca29  1  0.33428598  0.91975704  0.82707143  1
  Ca2+  Ca30  1  0.82906184  0.42495983  0.17568665  1
  Ca2+  Ca31  1  0.84373331  0.42910393  0.50745238  1
  Ca2+  Ca32  1  0.83700747  0.41722484  0.82954002  1
  Ca2+  Ca33  1  0.83848086  0.92570538  0.17388698  1
  Ca2+  Ca34  1  0.83086774  0.92561843  0.50432389  1
  Ca2+  Ca35  1  0.82867008  0.93058960  0.82982734  1
  Ca2+  Ca36  1  0.41231269  0.17669271  0.16622844  1
  Ca2+  Ca37  1  0.41238356  0.17313289  0.50149043  1
  Ca2+  Ca38  1  0.42160437  0.16837493  0.81549171  1
  Ca2+  Ca39  1  0.42436761  0.65653790  0.16311954  1
  Ca2+  Ca40  1  0.41897232  0.67139069  0.49313443  1
  Ca2+  Ca41  1  0.41830718  0.67009768  0.82894048  1
  Ca2+  Ca42  1  0.92636525  0.15864980  0.16344107  1
  Ca2+  Ca43  1  0.92490905  0.16046522  0.49620762  1
  Ca2+  Ca44  1  0.92239579  0.16719475  0.82415458  1
  Ca2+  Ca45  1  0.91272414  0.67345458  0.16891919  1
  Ca2+  Ca46  1  0.91333205  0.67180483  0.49281893  1
  Ca2+  Ca47  1  0.91725011  0.66721538  0.82440463  1
  Al0+  Al48  1  -0.00063865  -0.00022117  -0.00268939  1
  Al0+  Al49  1  -0.00056798  0.00003892  0.33235675  1
  Al0+  Al50  1  -0.00170232  -0.00238396  0.67189836  1
  Al0+  Al51  1  -0.00073208  0.50028892  0.00244266  1
  Al0+  Al52  1  0.00065316  0.49989275  0.33792244  1
  Al0+  Al53  1  0.00275478  0.50031947  0.67415061  1
  Al0+  Al54  1  0.49913471  -0.00117139  0.00409250  1
  Al0+  Al55  1  0.50116797  -0.00010489  0.32863394  1
  Al0+  Al56  1  0.49931316  -0.00321066  0.66430027  1
  Al0+  Al57  1  0.50086428  0.50041296  -0.00352419  1
  Al0+  Al58  1  0.50079702  0.50001750  0.33080093  1
  Al0+  Al59  1  0.50263971  0.50113717  0.66221500  1
  Al0+  Al60  1  0.24803364  0.24830195  -0.00369948  1
  Al0+  Al61  1  0.25066440  0.24978556  0.32619208  1
  Al0+  Al62  1  0.24856669  0.24930785  0.66748377  1
  Al0+  Al63  1  0.24988530  0.74984100  0.00494307  1
  Al0+  Al64  1  0.24952327  0.75017349  0.33868203  1
  Al0+  Al65  1  0.25077730  0.74823134  0.66644304  1
  Al0+  Al66  1  0.74988517  0.25162720  0.00677557  1
  Al0+  Al67  1  0.75080438  0.25139327  0.33705857  1
  Al0+  Al68  1  0.75066030  0.25514303  0.66314293  1
  Al0+  Al69  1  0.74875913  0.75039031  -0.00578149  1
  Al0+  Al70  1  0.74965697  0.75122932  0.32732715  1
  Al0+  Al71  1  0.75201094  0.75039055  0.67513657  1
  Al0+  Al72  1  0.93072856  0.81977945  0.32044984  1
  Al0+  Al73  1  0.56851017  0.68217009  0.32094244  1
  Al0+  Al74  1  0.67775131  0.92913267  0.68044968  1
  Al0+  Al75  1  0.17967157  0.93107243  0.34536653  1
  Al0+  Al76  1  0.81999090  0.07005328  0.01503114  1
  Al0+  Al77  1  0.06787911  0.17677145  0.65022784  1
  Al0+  Al78  1  0.06817827  0.18037678  0.31955201  1
  Al0+  Al79  1  0.42727012  0.32219811  0.65183522  1
  Al0+  Al80  1  0.32052198  0.56924132  0.01276799  1
  Al0+  Al81  1  0.18134036  0.42828368  0.68184790  1
  Al0+  Al82  1  0.43104346  0.31820330  0.31854485  1
  Al0+  Al83  1  0.06908939  0.17905276  0.98385870  1
  Al0+  Al84  1  0.42845601  0.81932644  0.65252302  1
  Al0+  Al85  1  0.82094200  0.57031368  0.68116073  1
  Al0+  Al86  1  0.57289201  0.17669782  0.65262954  1
  Al0+  Al87  1  0.17710167  0.92626208  0.68298700  1
  Al0+  Al88  1  0.82026324  0.07520939  0.68093602  1
  Al0+  Al89  1  0.57012792  0.67899383  0.98283793  1
  Al0+  Al90  1  0.81962475  0.57203479  0.34521584  1
  Al0+  Al91  1  0.92953023  0.32438879  0.65176878  1
  Al0+  Al92  1  0.82065605  0.07117658  0.34753860  1
  Al0+  Al93  1  0.31923892  0.07019377  0.67960103  1
  Al0+  Al94  1  0.32441859  0.57078960  0.35026460  1
  Al0+  Al95  1  0.17981549  0.42650752  0.34846361  1
  Si0+  Si96  1  0.67780409  0.92809556  0.34689557  1
  Si0+  Si97  1  0.42573336  0.82306460  0.98372982  1
  Si0+  Si98  1  0.92574789  0.32444976  0.98519699  1
  Si0+  Si99  1  0.92637408  0.32545586  0.31636420  1
  Si0+  Si100  1  0.17912367  0.92943920  0.01551227  1
  Si0+  Si101  1  0.42411410  0.82382470  0.31508093  1
  Si0+  Si102  1  0.57508247  0.67950866  0.64906053  1
  Si0+  Si103  1  0.57589766  0.17638560  0.31498917  1
  Si0+  Si104  1  0.32452182  0.07225505  0.34727236  1
  Si0+  Si105  1  0.57156946  0.17893185  0.98871098  1
  Si0+  Si106  1  0.07180038  0.67838350  0.98663226  1
  Si0+  Si107  1  0.17749964  0.42610581  0.01748753  1
  Si0+  Si108  1  0.32459385  0.57193016  0.68238891  1
  Si0+  Si109  1  0.07324065  0.67546736  0.31722177  1
  Si0+  Si110  1  0.67570172  0.42955127  0.68385464  1
  Si0+  Si111  1  0.67659090  0.92670405  0.01829620  1
  Si0+  Si112  1  0.67748641  0.42813070  0.35139999  1
  Si0+  Si113  1  0.82147649  0.57341829  0.01594281  1
  Si0+  Si114  1  0.43006477  0.31966057  0.98514646  1
  Si0+  Si115  1  0.92973384  0.82002980  0.98262648  1
  Si0+  Si116  1  0.07200163  0.67835031  0.65285205  1
  Si0+  Si117  1  0.32229982  0.07237668  0.01538492  1
  Si0+  Si118  1  0.67925378  0.43060378  0.01520301  1
  Si0+  Si119  1  0.92966950  0.81849050  0.65310193  1
  O2-  O120  1  0.24988058  0.00183422  0.05627251  1
  O2-  O121  1  0.25960568  0.00007101  0.39020608  1
  O2-  O122  1  0.24732197  -0.00029719  0.73342794  1
  O2-  O123  1  0.24610204  0.49496458  0.06081208  1
  O2-  O124  1  0.25002337  0.50064385  0.39832191  1
  O2-  O125  1  0.26086478  0.49908613  0.72752297  1
  O2-  O126  1  0.74470048  -0.00428491  0.06264081  1
  O2-  O127  1  0.73948749  0.00249262  0.39102645  1
  O2-  O128  1  0.74279791  0.00789544  0.73050845  1
  O2-  O129  1  0.75058774  0.50202126  0.05703810  1
  O2-  O130  1  0.75015440  0.49372950  0.39334806  1
  O2-  O131  1  0.74662522  0.49595016  0.72900290  1
  O2-  O132  1  -0.00637800  0.25567391  0.27150062  1
  O2-  O133  1  -0.00583444  0.24708102  0.60019789  1
  O2-  O134  1  -0.00481984  0.25656166  0.94175018  1
  O2-  O135  1  0.00528968  0.74486565  0.27186661  1
  O2-  O136  1  0.00395413  0.75165376  0.61043683  1
  O2-  O137  1  -0.00088089  0.74648375  0.94167572  1
  O2-  O138  1  0.50524347  0.24303650  0.26984062  1
  O2-  O139  1  0.49833718  0.24748070  0.60431201  1
  O2-  O140  1  0.49654226  0.24408426  0.94450648  1
  O2-  O141  1  0.49134838  0.75344565  0.27094433  1
  O2-  O142  1  0.50436677  0.74583435  0.60581407  1
  O2-  O143  1  0.49590829  0.75556207  0.93975507  1
  O2-  O144  1  0.06948067  0.17823307  0.09726286  1
  O2-  O145  1  0.06848543  0.17760707  0.43147660  1
  O2-  O146  1  0.06684814  0.17899701  0.76434796  1
  O2-  O147  1  0.07071171  0.67928669  0.09141399  1
  O2-  O148  1  0.07131008  0.67514769  0.42260022  1
  O2-  O149  1  0.07006276  0.67903158  0.75891641  1
  O2-  O150  1  0.57121577  0.18239933  0.09375129  1
  O2-  O151  1  0.57651748  0.17590130  0.41971401  1
  O2-  O152  1  0.57127693  0.18026984  0.76774340  1
  O2-  O153  1  0.57110342  0.67881043  0.09598685  1
  O2-  O154  1  0.57134593  0.68600540  0.43348891  1
  O2-  O155  1  0.57411224  0.67963031  0.75511304  1
  O2-  O156  1  0.18215297  0.42780957  0.23389743  1
  O2-  O157  1  0.17934502  0.43042056  0.56945923  1
  O2-  O158  1  0.17822833  0.42677613  0.91199320  1
  O2-  O159  1  0.17895249  0.93386978  0.23117498  1
  O2-  O160  1  0.17758109  0.92561272  0.56968218  1
  O2-  O161  1  0.17934892  0.92627810  0.91109959  1
  O2-  O162  1  0.67763059  0.42950925  0.24469152  1
  O2-  O163  1  0.67147916  0.43307983  0.57892592  1
  O2-  O164  1  0.67916849  0.42895764  0.91058460  1
  O2-  O165  1  0.68017653  0.92776410  0.24076764  1
  O2-  O166  1  0.68389179  0.92429704  0.56696279  1
  O2-  O167  1  0.67561948  0.92777351  0.91321122  1
  O2-  O168  1  0.43166301  0.32029009  0.09032226  1
  O2-  O169  1  0.43141573  0.31671156  0.43072100  1
  O2-  O170  1  0.43034087  0.32227578  0.76659361  1
  O2-  O171  1  0.42549447  0.82391077  0.08928810  1
  O2-  O172  1  0.42603426  0.82538498  0.42016599  1
  O2-  O173  1  0.42752141  0.81495447  0.76625907  1
  O2-  O174  1  0.92492550  0.32704647  0.09073136  1
  O2-  O175  1  0.92639384  0.32687077  0.42110480  1
  O2-  O176  1  0.93360341  0.32529323  0.76619336  1
  O2-  O177  1  0.93066041  0.82030782  0.08790332  1
  O2-  O178  1  0.93019531  0.81873805  0.43334306  1
  O2-  O179  1  0.92989951  0.81551113  0.75887278  1
  O2-  O180  1  0.32298990  0.07135466  0.24053550  1
  O2-  O181  1  0.31809122  0.06874834  0.56603240  1
  O2-  O182  1  0.32641512  0.07307807  0.91121237  1
  O2-  O183  1  0.32422520  0.56756292  0.23580374  1
  O2-  O184  1  0.32130962  0.57410792  0.57742350  1
  O2-  O185  1  0.31845574  0.56833624  0.89978118  1
  O2-  O186  1  0.82174066  0.06801328  0.23364453  1
  O2-  O187  1  0.82266437  0.06867538  0.56764551  1
  O2-  O188  1  0.81767046  0.07106862  0.90264955  1
  O2-  O189  1  0.81647788  0.57174769  0.23125571  1
  O2-  O190  1  0.81934511  0.57356379  0.56830262  1
  O2-  O191  1  0.82289395  0.57304825  0.91115196  1
  O2-  O192  1  0.03437243  0.08512461  0.26346547  1
  O2-  O193  1  0.04114421  0.07576624  0.60166882  1
  O2-  O194  1  0.03795506  0.08235588  0.93093850  1
  O2-  O195  1  0.04663103  0.58256494  0.26960023  1
  O2-  O196  1  0.04028035  0.58800365  0.60684579  1
  O2-  O197  1  0.04567440  0.58532609  0.93975269  1
  O2-  O198  1  0.55390700  0.08196571  0.26728881  1
  O2-  O199  1  0.54900889  0.07743123  0.60105317  1
  O2-  O200  1  0.54911530  0.08407069  0.94539541  1
  O2-  O201  1  0.54194144  0.58458939  0.26532793  1
  O2-  O202  1  0.55402925  0.58529720  0.60345111  1
  O2-  O203  1  0.53984883  0.58250830  0.92819069  1
  O2-  O204  1  0.16458490  0.20917334  0.26235763  1
  O2-  O205  1  0.16675780  0.20628872  0.60071539  1
  O2-  O206  1  0.16700083  0.20697065  0.93037035  1
  O2-  O207  1  0.16749944  0.70152616  0.27188373  1
  O2-  O208  1  0.16434606  0.70115366  0.60577017  1
  O2-  O209  1  0.16296012  0.70887954  0.93940127  1
  O2-  O210  1  0.66868363  0.20643742  0.26799520  1
  O2-  O211  1  0.66961846  0.20819708  0.59905450  1
  O2-  O212  1  0.66232713  0.21159726  0.94233442  1
  O2-  O213  1  0.66294537  0.71497124  0.26207618  1
  O2-  O214  1  0.66898227  0.70879373  0.60630761  1
  O2-  O215  1  0.66724865  0.70843649  0.92846420  1
  O2-  O216  1  0.08310202  0.45112343  0.06243756  1
  O2-  O217  1  0.08106804  0.45276199  0.40070238  1
  O2-  O218  1  0.08923013  0.46602166  0.74074654  1
  O2-  O219  1  0.08681943  0.95784151  0.06162607  1
  O2-  O220  1  0.08472064  0.96458594  0.39891848  1
  O2-  O221  1  0.07868317  0.95080572  0.73759620  1
  O2-  O222  1  0.58783268  0.45991517  0.06275254  1
  O2-  O223  1  0.58616908  0.45856667  0.39695965  1
  O2-  O224  1  0.58373252  0.45850483  0.73331615  1
  O2-  O225  1  0.58224769  0.94873750  0.06544670  1
  O2-  O226  1  0.58102161  0.94616043  0.38947739  1
  O2-  O227  1  0.57689370  0.94680072  0.73193861  1
  O2-  O228  1  0.20390225  0.33177388  0.06170329  1
  O2-  O229  1  0.21207391  0.32827530  0.39809566  1
  O2-  O230  1  0.20941299  0.33229638  0.73787211  1
  O2-  O231  1  0.20662587  0.83861611  0.06561058  1
  O2-  O232  1  0.20125654  0.83249080  0.39861126  1
  O2-  O233  1  0.20810871  0.82759144  0.73582292  1
  O2-  O234  1  0.70555562  0.34039660  0.06722771  1
  O2-  O235  1  0.69729398  0.33337312  0.39599372  1
  O2-  O236  1  0.69923757  0.33601590  0.73082711  1
  O2-  O237  1  0.70538451  0.83243979  0.06198818  1
  O2-  O238  1  0.70960788  0.83718323  0.39275709  1
  O2-  O239  1  0.71412223  0.83525587  0.73916242  1
  O2-  O240  1  0.46490899  0.41390383  0.26313456  1
  O2-  O241  1  0.45802131  0.41995247  0.59864979  1
  O2-  O242  1  0.46205303  0.40909650  0.93678618  1
  O2-  O243  1  0.45002474  0.91722775  0.26672023  1
  O2-  O244  1  0.45576092  0.91498756  0.59630929  1
  O2-  O245  1  0.45016167  0.91807647  0.93927073  1
  O2-  O246  1  0.95216944  0.41933426  0.26929741  1
  O2-  O247  1  0.96485102  0.42227438  0.60153984  1
  O2-  O248  1  0.94927079  0.41941208  0.93954356  1
  O2-  O249  1  0.96515280  0.91391740  0.26299413  1
  O2-  O250  1  0.95362297  0.91117473  0.60720573  1
  O2-  O251  1  0.96050903  0.91013857  0.93468038  1
  O2-  O252  1  0.33653739  0.28772701  0.25914986  1
  O2-  O253  1  0.32920639  0.29416253  0.60015440  1
  O2-  O254  1  0.33642220  0.29568652  0.94015146  1
  O2-  O255  1  0.32923992  0.80026425  0.27012979  1
  O2-  O256  1  0.33238538  0.78697559  0.59801472  1
  O2-  O257  1  0.33220095  0.79534545  0.93867963  1
  O2-  O258  1  0.83099301  0.30237212  0.27134966  1
  O2-  O259  1  0.82723711  0.31189075  0.60238415  1
  O2-  O260  1  0.83123396  0.29860829  0.94079226  1
  O2-  O261  1  0.83622154  0.78858581  0.26169222  1
  O2-  O262  1  0.83914983  0.78572744  0.60705747  1
  O2-  O263  1  0.83776493  0.79355844  0.93548817  1
  O2-  O264  1  0.41320306  0.04547074  0.06636927  1
  O2-  O265  1  0.42070023  0.05226145  0.38979378  1
  O2-  O266  1  0.41752044  0.03982607  0.73265130  1
  O2-  O267  1  0.41802559  0.53712906  0.06457348  1
  O2-  O268  1  0.42259496  0.54148410  0.40134842  1
  O2-  O269  1  0.42102470  0.55236122  0.72530805  1
  O2-  O270  1  0.91647900  0.03453917  0.06716183  1
  O2-  O271  1  0.91398832  0.03260889  0.40025969  1
  O2-  O272  1  0.91427007  0.03778813  0.73721982  1
  O2-  O273  1  0.91378256  0.54773367  0.06415754  1
  O2-  O274  1  0.91749457  0.54752873  0.39875073  1
  O2-  O275  1  0.91648468  0.54054083  0.73846726  1
  O2-  O276  1  0.29326264  0.16451767  0.06244287  1
  O2-  O277  1  0.29624664  0.16524175  0.39011530  1
  O2-  O278  1  0.29344970  0.16825217  0.73478391  1
  O2-  O279  1  0.29127666  0.66594698  0.06811352  1
  O2-  O280  1  0.30019384  0.67093310  0.39986789  1
  O2-  O281  1  0.29314093  0.66236763  0.73164372  1
  O2-  O282  1  0.79027854  0.16693382  0.07030894  1
  O2-  O283  1  0.79724079  0.17010454  0.39907023  1
  O2-  O284  1  0.79804840  0.17644869  0.73117198  1
  O2-  O285  1  0.79238213  0.66605246  0.06089220  1
  O2-  O286  1  0.78527599  0.66823376  0.39721931  1
  O2-  O287  1  0.78980142  0.66451950  0.73994349  1
