# generated using pymatgen
data_Ca2Al2SiO7
_symmetry_space_group_name_H-M   'P 1'
_cell_length_a   15.46824829
_cell_length_b   15.46608547
_cell_length_c   15.28934828
_cell_angle_alpha   89.97789815
_cell_angle_beta   89.99692424
_cell_angle_gamma   89.99987293
_symmetry_Int_Tables_number   1
_chemical_formula_structural   Ca2Al2SiO7
_chemical_formula_sum   'Ca48 Al48 Si24 O168'
_cell_volume   3657.72020371
_cell_formula_units_Z   24
loop_
 _symmetry_equiv_pos_site_id
 _symmetry_equiv_pos_as_xyz
  1  'x, y, z'
loop_
 _atom_type_symbol
 _atom_type_oxidation_number
  Ca2+  2.0
  Al0+  0.0
  Si0+  0.0
  O2-  -2.0
loop_
 _atom_site_type_symbol
 _atom_site_label
 _atom_site_symmetry_multiplicity
 _atom_site_fract_x
 _atom_site_fract_y
 _atom_site_fract_z
 _atom_site_occupancy
  Ca2+  Ca0  1  0.17997552  0.08653419  0.16664616  1
  Ca2+  Ca1  1  0.17853081  0.08179611  0.51002239  1
  Ca2+  Ca2  1  0.17523670  0.08869355  0.83907386  1
  Ca2+  Ca3  1  0.16788484  0.57969431  0.16744346  1
  Ca2+  Ca4  1  0.17750028  0.58174951  0.50965758  1
  Ca2+  Ca5  1  0.16128336  0.57633369  0.83682874  1
  Ca2+  Ca6  1  0.66041022  0.08618069  0.16914261  1
  Ca2+  Ca7  1  0.66767056  0.07735665  0.51055096  1
  Ca2+  Ca8  1  0.66777534  0.07911875  0.83575529  1
  Ca2+  Ca9  1  0.67568063  0.58195384  0.16751923  1
  Ca2+  Ca10  1  0.67138737  0.59083376  0.50572591  1
  Ca2+  Ca11  1  0.66931659  0.58278340  0.84323371  1
  Ca2+  Ca12  1  0.08623136  0.32960291  0.15666080  1
  Ca2+  Ca13  1  0.09043992  0.33066238  0.50549371  1
  Ca2+  Ca14  1  0.09496140  0.32616253  0.82979089  1
  Ca2+  Ca15  1  0.07486053  0.82405208  0.15386332  1
  Ca2+  Ca16  1  0.08679328  0.82698775  0.50139911  1
  Ca2+  Ca17  1  0.07946272  0.82173244  0.83082965  1
  Ca2+  Ca18  1  0.57832935  0.32333622  0.15569259  1
  Ca2+  Ca19  1  0.58106989  0.32376573  0.49330895  1
  Ca2+  Ca20  1  0.58041367  0.33347641  0.83485872  1
  Ca2+  Ca21  1  0.57105677  0.83200821  0.16216563  1
  Ca2+  Ca22  1  0.57515180  0.83346908  0.50374937  1
  Ca2+  Ca23  1  0.57518203  0.83065719  0.82702639  1
  Ca2+  Ca24  1  0.33042688  0.41743782  0.16587538  1
  Ca2+  Ca25  1  0.33115346  0.42972097  0.50886883  1
  Ca2+  Ca26  1  0.32641422  0.42239211  0.83846003  1
  Ca2+  Ca27  1  0.34263675  0.92506110  0.16852113  1
  Ca2+  Ca28  1  0.34535981  0.92551747  0.50365003  1
  Ca2+  Ca29  1  0.34339340  0.92533890  0.83678228  1
  Ca2+  Ca30  1  0.83069952  0.42663258  0.16570397  1
  Ca2+  Ca31  1  0.83105156  0.42057981  0.50162859  1
  Ca2+  Ca32  1  0.82439869  0.42246158  0.84401356  1
  Ca2+  Ca33  1  0.83254858  0.91410227  0.16834114  1
  Ca2+  Ca34  1  0.82322496  0.92390401  0.51253227  1
  Ca2+  Ca35  1  0.82888174  0.91394948  0.83575672  1
  Ca2+  Ca36  1  0.42294438  0.16663774  0.15647386  1
  Ca2+  Ca37  1  0.41832430  0.16262830  0.49424906  1
  Ca2+  Ca38  1  0.41225169  0.17039357  0.83518743  1
  Ca2+  Ca39  1  0.40634960  0.67824066  0.16228723  1
  Ca2+  Ca40  1  0.41155225  0.67547247  0.49622892  1
  Ca2+  Ca41  1  0.41790261  0.67734209  0.82084993  1
  Ca2+  Ca42  1  0.92719172  0.16961855  0.15614815  1
  Ca2+  Ca43  1  0.92205695  0.16206992  0.50141439  1
  Ca2+  Ca44  1  0.92952689  0.16486259  0.82552635  1
  Ca2+  Ca45  1  0.91736810  0.66646581  0.15588209  1
  Ca2+  Ca46  1  0.92364576  0.66059923  0.49733345  1
  Ca2+  Ca47  1  0.92439748  0.66222932  0.83330860  1
  Al0+  Al48  1  0.00011031  -0.00097647  -0.00672031  1
  Al0+  Al49  1  0.00036170  -0.00132670  0.33276263  1
  Al0+  Al50  1  0.00187896  0.00156200  0.66342979  1
  Al0+  Al51  1  -0.00026751  0.49881918  0.00553266  1
  Al0+  Al52  1  -0.00178749  0.49814308  0.33713203  1
  Al0+  Al53  1  -0.00119330  0.49840176  0.66425304  1
  Al0+  Al54  1  0.50222752  -0.00006021  -0.00279577  1
  Al0+  Al55  1  0.50096501  -0.00143562  0.33016518  1
  Al0+  Al56  1  0.50194470  0.00025024  0.67245835  1
  Al0+  Al57  1  0.49917476  0.49918847  0.00385387  1
  Al0+  Al58  1  0.50083212  0.49913272  0.33602245  1
  Al0+  Al59  1  0.50101712  0.50021062  0.66507068  1
  Al0+  Al60  1  0.25246378  0.25066218  0.00251550  1
  Al0+  Al61  1  0.25005402  0.24855951  0.33746291  1
  Al0+  Al62  1  0.25036503  0.25051745  0.66654524  1
  Al0+  Al63  1  0.24710305  0.75180987  -0.00937940  1
  Al0+  Al64  1  0.24751040  0.74957314  0.33085033  1
  Al0+  Al65  1  0.24932653  0.75327203  0.66012765  1
  Al0+  Al66  1  0.75009083  0.24838174  0.00096133  1
  Al0+  Al67  1  0.75238881  0.25002170  0.32886374  1
  Al0+  Al68  1  0.75198607  0.25133772  0.66913197  1
  Al0+  Al69  1  0.74845656  0.75267465  0.00258197  1
  Al0+  Al70  1  0.74971189  0.75024765  0.33870622  1
  Al0+  Al71  1  0.74898247  0.75134052  0.66812047  1
  Al0+  Al72  1  0.42901126  0.81851770  0.31816183  1
  Al0+  Al73  1  0.57186946  0.67699478  0.65233015  1
  Al0+  Al74  1  0.17946312  0.43142047  0.68189854  1
  Al0+  Al75  1  0.42861424  0.32285449  0.98464778  1
  Al0+  Al76  1  0.06943451  0.67600135  0.98515706  1
  Al0+  Al77  1  0.82279377  0.07304384  0.68235808  1
  Al0+  Al78  1  0.57066353  0.17956223  0.32146665  1
  Al0+  Al79  1  0.67553660  0.42612138  0.01663631  1
  Al0+  Al80  1  0.06895751  0.67736147  0.65055309  1
  Al0+  Al81  1  0.32032167  0.57219581  0.34551394  1
  Al0+  Al82  1  0.32263745  0.57449318  0.68156677  1
  Al0+  Al83  1  0.07208994  0.18038400  0.98739599  1
  Al0+  Al84  1  0.42841843  0.82028393  0.98590392  1
  Al0+  Al85  1  0.42912723  0.82306612  0.65049944  1
  Al0+  Al86  1  0.92548257  0.82151794  0.98453047  1
  Al0+  Al87  1  0.57260702  0.17858510  0.98199104  1
  Al0+  Al88  1  0.32073321  0.06803835  0.01407680  1
  Al0+  Al89  1  0.81929665  0.57169272  0.01404896  1
  Al0+  Al90  1  0.07258686  0.17935314  0.65114812  1
  Al0+  Al91  1  0.68016205  0.92898132  0.68457972  1
  Al0+  Al92  1  0.32110918  0.06837629  0.34649919  1
  Al0+  Al93  1  0.18073027  0.42946214  0.01402808  1
  Al0+  Al94  1  0.81914102  0.57084837  0.34945041  1
  Al0+  Al95  1  0.32107011  0.07007703  0.68142952  1
  Si0+  Si96  1  0.67836248  0.42774593  0.68011852  1
  Si0+  Si97  1  0.17600579  0.92785290  0.68367675  1
  Si0+  Si98  1  0.92998974  0.32105546  0.31652846  1
  Si0+  Si99  1  0.06857742  0.67749854  0.31818077  1
  Si0+  Si100  1  0.57098391  0.67827219  0.98777105  1
  Si0+  Si101  1  0.42646434  0.32300607  0.31800662  1
  Si0+  Si102  1  0.57231978  0.18147190  0.65318101  1
  Si0+  Si103  1  0.92773150  0.82051853  0.32035331  1
  Si0+  Si104  1  0.82389552  0.07030468  0.01593918  1
  Si0+  Si105  1  0.42894879  0.32112610  0.65061952  1
  Si0+  Si106  1  0.82381564  0.07163716  0.34674349  1
  Si0+  Si107  1  0.32156180  0.57583879  0.01465952  1
  Si0+  Si108  1  0.57441456  0.67707654  0.31634722  1
  Si0+  Si109  1  0.92806696  0.82209494  0.64849306  1
  Si0+  Si110  1  0.67974333  0.93091058  0.01837269  1
  Si0+  Si111  1  0.67956139  0.42568669  0.35063874  1
  Si0+  Si112  1  0.67995876  0.93042701  0.34824900  1
  Si0+  Si113  1  0.07157880  0.17819667  0.31818909  1
  Si0+  Si114  1  0.92833122  0.32154826  0.98440153  1
  Si0+  Si115  1  0.17576634  0.92677394  0.01550846  1
  Si0+  Si116  1  0.92618939  0.32118922  0.64837603  1
  Si0+  Si117  1  0.17510765  0.92817242  0.34921173  1
  Si0+  Si118  1  0.17724740  0.42704937  0.35097171  1
  Si0+  Si119  1  0.82026020  0.57057058  0.68089453  1
  O2-  O120  1  0.24645622  -0.00741055  0.06138814  1
  O2-  O121  1  0.24575902  -0.00540658  0.39366040  1
  O2-  O122  1  0.24668331  -0.00539497  0.72699212  1
  O2-  O123  1  0.25391063  0.50612729  0.05986619  1
  O2-  O124  1  0.24810240  0.49464478  0.39217962  1
  O2-  O125  1  0.24795315  0.50612156  0.73232308  1
  O2-  O126  1  0.75196993  0.00128088  0.06075081  1
  O2-  O127  1  0.75058935  0.00323769  0.38877552  1
  O2-  O128  1  0.75389940  -0.00019364  0.73406643  1
  O2-  O129  1  0.74692186  0.50004905  0.06473808  1
  O2-  O130  1  0.74238593  0.49865540  0.39724172  1
  O2-  O131  1  0.74475614  0.50373133  0.72097073  1
  O2-  O132  1  0.00238904  0.25075561  0.27554698  1
  O2-  O133  1  -0.00451227  0.25236179  0.60438935  1
  O2-  O134  1  -0.00260562  0.25445501  0.93960352  1
  O2-  O135  1  -0.00309895  0.74855161  0.27722334  1
  O2-  O136  1  -0.00525272  0.75256722  0.60201195  1
  O2-  O137  1  -0.00395480  0.74766151  0.93652026  1
  O2-  O138  1  0.49541878  0.25384711  0.27539284  1
  O2-  O139  1  0.50024247  0.24975264  0.60856438  1
  O2-  O140  1  0.50249194  0.25299437  0.93356730  1
  O2-  O141  1  0.49997670  0.73920567  0.27188877  1
  O2-  O142  1  0.49663561  0.74557550  0.60157786  1
  O2-  O143  1  0.49691690  0.73921307  0.94232221  1
  O2-  O144  1  0.06974756  0.18118014  0.10156307  1
  O2-  O145  1  0.07011740  0.17770772  0.42299272  1
  O2-  O146  1  0.07285030  0.18205003  0.76381582  1
  O2-  O147  1  0.06891320  0.67806314  0.09973043  1
  O2-  O148  1  0.06778157  0.67821310  0.42326041  1
  O2-  O149  1  0.06430932  0.67506682  0.76281966  1
  O2-  O150  1  0.56998137  0.17769076  0.09625997  1
  O2-  O151  1  0.57169361  0.18006944  0.43515598  1
  O2-  O152  1  0.57460256  0.18466639  0.75744390  1
  O2-  O153  1  0.57324669  0.68285446  0.09368384  1
  O2-  O154  1  0.57797139  0.68121433  0.42142843  1
  O2-  O155  1  0.57336269  0.67698323  0.76597288  1
  O2-  O156  1  0.17503558  0.42627013  0.24545574  1
  O2-  O157  1  0.18251922  0.43140544  0.56758965  1
  O2-  O158  1  0.18071160  0.42961562  0.90170620  1
  O2-  O159  1  0.16965653  0.93097493  0.24406542  1
  O2-  O160  1  0.17338147  0.93104385  0.57747871  1
  O2-  O161  1  0.17431053  0.92819507  0.91042965  1
  O2-  O162  1  0.68352845  0.42422694  0.24586255  1
  O2-  O163  1  0.68184843  0.42323439  0.57482590  1
  O2-  O164  1  0.67879980  0.42801818  0.90247390  1
  O2-  O165  1  0.68186346  0.92933739  0.24305691  1
  O2-  O166  1  0.68018213  0.93261466  0.56992566  1
  O2-  O167  1  0.68034612  0.93032758  0.91394920  1
  O2-  O168  1  0.42771297  0.31927664  0.09892269  1
  O2-  O169  1  0.42770822  0.32241295  0.42395636  1
  O2-  O170  1  0.42993302  0.32177905  0.75516518  1
  O2-  O171  1  0.43096269  0.82071874  0.09967996  1
  O2-  O172  1  0.43258305  0.82144943  0.43051033  1
  O2-  O173  1  0.43345714  0.82401878  0.76387131  1
  O2-  O174  1  0.92995869  0.31882876  0.09077308  1
  O2-  O175  1  0.92707533  0.32047914  0.42142486  1
  O2-  O176  1  0.92267742  0.32193996  0.75327604  1
  O2-  O177  1  0.92730572  0.82168509  0.09934449  1
  O2-  O178  1  0.92864297  0.82201015  0.42504766  1
  O2-  O179  1  0.92905432  0.82053409  0.75359133  1
  O2-  O180  1  0.32014728  0.06915390  0.23365335  1
  O2-  O181  1  0.32164957  0.06987566  0.56752361  1
  O2-  O182  1  0.31927193  0.06824389  0.90137000  1
  O2-  O183  1  0.31521028  0.57361511  0.23243076  1
  O2-  O184  1  0.32149723  0.57048663  0.56731104  1
  O2-  O185  1  0.32201050  0.57564028  0.90963693  1
  O2-  O186  1  0.82769074  0.06912860  0.24179499  1
  O2-  O187  1  0.81852554  0.07248241  0.56744083  1
  O2-  O188  1  0.82438128  0.06980996  0.91156287  1
  O2-  O189  1  0.82008580  0.57063155  0.23703313  1
  O2-  O190  1  0.82076171  0.56817739  0.57528638  1
  O2-  O191  1  0.81769031  0.57015168  0.90020870  1
  O2-  O192  1  0.04131185  0.08690286  0.27104223  1
  O2-  O193  1  0.04331114  0.08313304  0.59441938  1
  O2-  O194  1  0.04249405  0.08457027  0.93300807  1
  O2-  O195  1  0.04013188  0.58464699  0.27343932  1
  O2-  O196  1  0.03579433  0.58164693  0.59493957  1
  O2-  O197  1  0.03930019  0.57747127  0.93415415  1
  O2-  O198  1  0.54186860  0.08332000  0.26660180  1
  O2-  O199  1  0.54574582  0.08852783  0.60817877  1
  O2-  O200  1  0.54318223  0.08112330  0.92996432  1
  O2-  O201  1  0.55734145  0.57959217  0.27532724  1
  O2-  O202  1  0.55179172  0.57649740  0.59846634  1
  O2-  O203  1  0.55515283  0.58147436  0.94623521  1
  O2-  O204  1  0.16442173  0.20508238  0.27235282  1
  O2-  O205  1  0.16772672  0.21376128  0.59504119  1
  O2-  O206  1  0.16791653  0.21249198  0.93526673  1
  O2-  O207  1  0.15911712  0.70532906  0.26937890  1
  O2-  O208  1  0.16459729  0.70965768  0.59500707  1
  O2-  O209  1  0.16538042  0.70498841  0.92887653  1
  O2-  O210  1  0.66837947  0.20777559  0.26704999  1
  O2-  O211  1  0.66374631  0.21115935  0.60472447  1
  O2-  O212  1  0.67311968  0.20323378  0.93192207  1
  O2-  O213  1  0.66615430  0.71038288  0.26989221  1
  O2-  O214  1  0.66968992  0.71005875  0.59850000  1
  O2-  O215  1  0.66187988  0.71013625  0.94062676  1
  O2-  O216  1  0.08394627  0.45677098  0.07058758  1
  O2-  O217  1  0.08409914  0.45298460  0.39757935  1
  O2-  O218  1  0.07807217  0.45426228  0.73097329  1
  O2-  O219  1  0.08221340  0.95408485  0.06210533  1
  O2-  O220  1  0.08259664  0.95505683  0.39848287  1
  O2-  O221  1  0.08294688  0.95423816  0.72923298  1
  O2-  O222  1  0.57733923  0.45190117  0.07170292  1
  O2-  O223  1  0.58356054  0.44345871  0.39476765  1
  O2-  O224  1  0.58536459  0.44960080  0.72626612  1
  O2-  O225  1  0.58920656  0.96126143  0.06686404  1
  O2-  O226  1  0.58910763  0.95933252  0.39560428  1
  O2-  O227  1  0.58453714  0.96061090  0.73906169  1
  O2-  O228  1  0.21368680  0.33484417  0.07138358  1
  O2-  O229  1  0.20085038  0.33284093  0.39710259  1
  O2-  O230  1  0.21096235  0.33351327  0.73229115  1
  O2-  O231  1  0.19872403  0.83164344  0.06029941  1
  O2-  O232  1  0.19812922  0.83317110  0.39283636  1
  O2-  O233  1  0.19775496  0.83265169  0.72655856  1
  O2-  O234  1  0.70717065  0.32796284  0.06927763  1
  O2-  O235  1  0.71253994  0.33381054  0.39781473  1
  O2-  O236  1  0.71119192  0.33938790  0.73046113  1
  O2-  O237  1  0.70665821  0.83995416  0.06846348  1
  O2-  O238  1  0.70899778  0.84026562  0.39778966  1
  O2-  O239  1  0.70803666  0.83049701  0.73755191  1
  O2-  O240  1  0.45065405  0.41713151  0.27222638  1
  O2-  O241  1  0.45789298  0.41194441  0.60147944  1
  O2-  O242  1  0.45364160  0.42305444  0.93331358  1
  O2-  O243  1  0.46577991  0.91299318  0.26350425  1
  O2-  O244  1  0.46640438  0.92058733  0.59875558  1
  O2-  O245  1  0.46721545  0.91348922  0.93282907  1
  O2-  O246  1  0.95796996  0.41319385  0.26971549  1
  O2-  O247  1  0.95272644  0.41350312  0.59953534  1
  O2-  O248  1  0.95091374  0.41602429  0.94091639  1
  O2-  O249  1  0.95547874  0.91224667  0.27152926  1
  O2-  O250  1  0.95441118  0.91543118  0.60148272  1
  O2-  O251  1  0.95381020  0.91837174  0.92994711  1
  O2-  O252  1  0.33179404  0.29744799  0.27404052  1
  O2-  O253  1  0.33853197  0.29219421  0.60181313  1
  O2-  O254  1  0.33223904  0.29033867  0.93140655  1
  O2-  O255  1  0.33015839  0.79218487  0.26523658  1
  O2-  O256  1  0.32896961  0.80419206  0.59667877  1
  O2-  O257  1  0.33050388  0.79955436  0.93164594  1
  O2-  O258  1  0.83982708  0.29257035  0.26658499  1
  O2-  O259  1  0.83362646  0.29414832  0.59896459  1
  O2-  O260  1  0.83488767  0.29589443  0.93930519  1
  O2-  O261  1  0.83504287  0.79413733  0.27392850  1
  O2-  O262  1  0.83349998  0.79822227  0.60380907  1
  O2-  O263  1  0.82611252  0.79584038  0.93335541  1
  O2-  O264  1  0.41826572  0.03593263  0.06643981  1
  O2-  O265  1  0.41835384  0.03663145  0.39916882  1
  O2-  O266  1  0.41754092  0.04226038  0.73553004  1
  O2-  O267  1  0.41504002  0.55297972  0.06257520  1
  O2-  O268  1  0.41932233  0.54666580  0.39822001  1
  O2-  O269  1  0.42125348  0.54365495  0.73201742  1
  O2-  O270  1  0.91551638  0.04092626  0.06409270  1
  O2-  O271  1  0.91417636  0.04115220  0.39620092  1
  O2-  O272  1  0.92366837  0.04823960  0.72996683  1
  O2-  O273  1  0.91586975  0.54117727  0.06996525  1
  O2-  O274  1  0.91469965  0.53583084  0.40392903  1
  O2-  O275  1  0.91001915  0.53790449  0.72776966  1
  O2-  O276  1  0.28903134  0.16385594  0.06900651  1
  O2-  O277  1  0.29221169  0.16553926  0.40121927  1
  O2-  O278  1  0.28889565  0.16676359  0.73291665  1
  O2-  O279  1  0.29197629  0.66948559  0.05941571  1
  O2-  O280  1  0.28592705  0.66787357  0.39957473  1
  O2-  O281  1  0.29860037  0.67637450  0.72703838  1
  O2-  O282  1  0.79831661  0.16243945  0.06432639  1
  O2-  O283  1  0.79952272  0.16513525  0.39186619  1
  O2-  O284  1  0.79478359  0.17123395  0.73469088  1
  O2-  O285  1  0.79057680  0.67020689  0.06812646  1
  O2-  O286  1  0.79179522  0.66807447  0.40457613  1
  O2-  O287  1  0.79775686  0.66379472  0.72614704  1
