# generated using pymatgen
data_Ca2Al2SiO7
_symmetry_space_group_name_H-M   'P 1'
_cell_length_a   15.45403501
_cell_length_b   15.45398145
_cell_length_c   15.28140856
_cell_angle_alpha   89.99875013
_cell_angle_beta   90.00077209
_cell_angle_gamma   89.99475108
_symmetry_Int_Tables_number   1
_chemical_formula_structural   Ca2Al2SiO7
_chemical_formula_sum   'Ca48 Al48 Si24 O168'
_cell_volume   3649.60332522
_cell_formula_units_Z   24
loop_
 _symmetry_equiv_pos_site_id
 _symmetry_equiv_pos_as_xyz
  1  'x, y, z'
loop_
 _atom_type_symbol
 _atom_type_oxidation_number
  Ca2+  2.0
  Al0+  0.0
  Si0+  0.0
  O2-  -2.0
loop_
 _atom_site_type_symbol
 _atom_site_label
 _atom_site_symmetry_multiplicity
 _atom_site_fract_x
 _atom_site_fract_y
 _atom_site_fract_z
 _atom_site_occupancy
  Ca2+  Ca0  1  0.16590831  0.08326214  0.17230340  1
  Ca2+  Ca1  1  0.16920586  0.09266969  0.50802129  1
  Ca2+  Ca2  1  0.17100708  0.08859605  0.82916415  1
  Ca2+  Ca3  1  0.17934370  0.57768055  0.17555851  1
  Ca2+  Ca4  1  0.17662687  0.57099276  0.50913703  1
  Ca2+  Ca5  1  0.17299129  0.58279690  0.83402519  1
  Ca2+  Ca6  1  0.66580910  0.08560195  0.17207784  1
  Ca2+  Ca7  1  0.65763917  0.07089160  0.50309096  1
  Ca2+  Ca8  1  0.67026669  0.08028677  0.84098304  1
  Ca2+  Ca9  1  0.66313587  0.57598691  0.17016810  1
  Ca2+  Ca10  1  0.66901594  0.58830479  0.50830818  1
  Ca2+  Ca11  1  0.66822355  0.57920120  0.83204521  1
  Ca2+  Ca12  1  0.07557717  0.33654526  0.16929062  1
  Ca2+  Ca13  1  0.08754992  0.32947402  0.49366130  1
  Ca2+  Ca14  1  0.08020715  0.33302797  0.82540155  1
  Ca2+  Ca15  1  0.08423995  0.83034010  0.16148674  1
  Ca2+  Ca16  1  0.07982374  0.82745788  0.50223520  1
  Ca2+  Ca17  1  0.07485796  0.82508587  0.82180423  1
  Ca2+  Ca18  1  0.58340301  0.32699787  0.16182540  1
  Ca2+  Ca19  1  0.56682479  0.33229135  0.49265198  1
  Ca2+  Ca20  1  0.58177241  0.33080291  0.83134364  1
  Ca2+  Ca21  1  0.58045204  0.82853474  0.16621299  1
  Ca2+  Ca22  1  0.59143221  0.82391067  0.49723290  1
  Ca2+  Ca23  1  0.57970183  0.82889281  0.82616663  1
  Ca2+  Ca24  1  0.33325546  0.42591904  0.17701467  1
  Ca2+  Ca25  1  0.32861702  0.41590519  0.50743246  1
  Ca2+  Ca26  1  0.33308174  0.42476768  0.83115514  1
  Ca2+  Ca27  1  0.33697810  0.91603740  0.16808623  1
  Ca2+  Ca28  1  0.33257313  0.92840839  0.50652107  1
  Ca2+  Ca29  1  0.33721015  0.92069656  0.83624254  1
  Ca2+  Ca30  1  0.83009798  0.40730785  0.16695692  1
  Ca2+  Ca31  1  0.83289401  0.42016303  0.50413289  1
  Ca2+  Ca32  1  0.83099937  0.41967281  0.83985380  1
  Ca2+  Ca33  1  0.82692903  0.92789132  0.17389148  1
  Ca2+  Ca34  1  0.82259745  0.91228818  0.50758633  1
  Ca2+  Ca35  1  0.82916222  0.91910621  0.83418946  1
  Ca2+  Ca36  1  0.42804808  0.17235835  0.16580664  1
  Ca2+  Ca37  1  0.41287480  0.17857888  0.49569441  1
  Ca2+  Ca38  1  0.42062003  0.17190964  0.82476534  1
  Ca2+  Ca39  1  0.41638814  0.66621503  0.16306500  1
  Ca2+  Ca40  1  0.42544001  0.65746883  0.49724810  1
  Ca2+  Ca41  1  0.41751062  0.66594633  0.82804985  1
  Ca2+  Ca42  1  0.91500620  0.17699864  0.16231812  1
  Ca2+  Ca43  1  0.92989481  0.17353309  0.49254913  1
  Ca2+  Ca44  1  0.91856852  0.17015541  0.83094214  1
  Ca2+  Ca45  1  0.91986161  0.66792866  0.16444903  1
  Ca2+  Ca46  1  0.91808186  0.66545131  0.50423341  1
  Ca2+  Ca47  1  0.91970094  0.66981187  0.81811955  1
  Al0+  Al48  1  -0.00007766  0.00027300  0.00445192  1
  Al0+  Al49  1  -0.00064590  -0.00026088  0.33097209  1
  Al0+  Al50  1  -0.00150749  0.00093415  0.65844022  1
  Al0+  Al51  1  0.00077545  0.49976369  -0.00344501  1
  Al0+  Al52  1  0.00119189  0.50111454  0.33209744  1
  Al0+  Al53  1  -0.00073328  0.50069763  0.67039868  1
  Al0+  Al54  1  0.49984566  -0.00122467  -0.00672850  1
  Al0+  Al55  1  0.49926526  -0.00165684  0.33507998  1
  Al0+  Al56  1  0.49990149  -0.00154882  0.67670816  1
  Al0+  Al57  1  0.50082389  0.49965833  0.00785548  1
  Al0+  Al58  1  0.50272735  0.50161453  0.32815371  1
  Al0+  Al59  1  0.49953467  0.49894997  0.66303157  1
  Al0+  Al60  1  0.24992898  0.24949858  0.00262457  1
  Al0+  Al61  1  0.24958476  0.25023178  0.32472298  1
  Al0+  Al62  1  0.25016515  0.25065043  0.67034814  1
  Al0+  Al63  1  0.25060047  0.75054562  -0.00036591  1
  Al0+  Al64  1  0.25065264  0.75074339  0.33909611  1
  Al0+  Al65  1  0.24963075  0.75110956  0.66440150  1
  Al0+  Al66  1  0.75135344  0.24974522  -0.00184390  1
  Al0+  Al67  1  0.75186330  0.24962391  0.33246963  1
  Al0+  Al68  1  0.74959510  0.24706959  0.66444889  1
  Al0+  Al69  1  0.74957539  0.75014962  0.00080293  1
  Al0+  Al70  1  0.74912739  0.75105020  0.32953514  1
  Al0+  Al71  1  0.74831880  0.75009121  0.67035925  1
  Al0+  Al72  1  0.42915820  0.81885423  0.98562192  1
  Al0+  Al73  1  0.82062846  0.06972272  0.01417742  1
  Al0+  Al74  1  0.31927881  0.57113804  0.01467006  1
  Al0+  Al75  1  0.06985192  0.18201096  0.65496595  1
  Al0+  Al76  1  0.07200437  0.17756132  0.31590324  1
  Al0+  Al77  1  0.32345412  0.57227637  0.68192856  1
  Al0+  Al78  1  0.93070319  0.32015103  0.98385599  1
  Al0+  Al79  1  0.57248451  0.68007587  0.31824856  1
  Al0+  Al80  1  0.17875245  0.42815901  0.68325092  1
  Al0+  Al81  1  0.81913281  0.56915826  0.67893723  1
  Al0+  Al82  1  0.56979309  0.17664398  0.32117434  1
  Al0+  Al83  1  0.57079729  0.18015669  0.98496552  1
  Al0+  Al84  1  0.56795881  0.68064101  0.65506911  1
  Al0+  Al85  1  0.32418274  0.57207198  0.35081114  1
  Al0+  Al86  1  0.67971644  0.93037205  0.34678051  1
  Al0+  Al87  1  0.17955167  0.42874473  0.34799748  1
  Al0+  Al88  1  0.67989024  0.92868746  0.68317333  1
  Al0+  Al89  1  0.92747259  0.82060172  0.65148767  1
  Al0+  Al90  1  0.07334021  0.67627974  0.65033969  1
  Al0+  Al91  1  0.92935101  0.32373765  0.31858739  1
  Al0+  Al92  1  0.31958482  0.07115495  0.68063794  1
  Al0+  Al93  1  0.68162377  0.43011673  0.01320890  1
  Al0+  Al94  1  0.43120148  0.31917803  0.65548727  1
  Al0+  Al95  1  0.42864110  0.32260118  0.31615671  1
  Si0+  Si96  1  0.57322022  0.17469678  0.65123272  1
  Si0+  Si97  1  0.07188571  0.68119016  0.31832975  1
  Si0+  Si98  1  0.82071893  0.57235160  0.34642776  1
  Si0+  Si99  1  0.17606152  0.42697665  0.01815036  1
  Si0+  Si100  1  0.92819682  0.82024795  0.31636852  1
  Si0+  Si101  1  0.17567900  0.92777660  0.34916872  1
  Si0+  Si102  1  0.07032192  0.68080703  0.98625566  1
  Si0+  Si103  1  0.42635975  0.82169532  0.31878401  1
  Si0+  Si104  1  0.82329138  0.07317885  0.35244828  1
  Si0+  Si105  1  0.67620379  0.92733374  0.01811136  1
  Si0+  Si106  1  0.07317061  0.17553904  0.98223062  1
  Si0+  Si107  1  0.42714101  0.32326952  0.98334827  1
  Si0+  Si108  1  0.17561047  0.92853333  0.68213395  1
  Si0+  Si109  1  0.18020655  0.93013358  0.01400763  1
  Si0+  Si110  1  0.92875138  0.82221417  0.98708854  1
  Si0+  Si111  1  0.67727727  0.42490940  0.68053867  1
  Si0+  Si112  1  0.92519623  0.32329236  0.65082239  1
  Si0+  Si113  1  0.68024481  0.42761290  0.34820975  1
  Si0+  Si114  1  0.31908450  0.06926654  0.34529262  1
  Si0+  Si115  1  0.82439823  0.57397796  0.01693697  1
  Si0+  Si116  1  0.32301788  0.07141700  0.01586228  1
  Si0+  Si117  1  0.82336705  0.07239620  0.68223963  1
  Si0+  Si118  1  0.57269869  0.67589431  0.98281837  1
  Si0+  Si119  1  0.42705401  0.82500856  0.64943093  1
  O2-  O120  1  0.25003845  0.00170616  0.05767125  1
  O2-  O121  1  0.24370627  0.00263027  0.38846603  1
  O2-  O122  1  0.24613825  -0.00555680  0.72781641  1
  O2-  O123  1  0.24792177  0.49301856  0.06097302  1
  O2-  O124  1  0.25510733  0.49642279  0.39855649  1
  O2-  O125  1  0.24775583  0.50412953  0.73209384  1
  O2-  O126  1  0.74483767  -0.00394370  0.06191837  1
  O2-  O127  1  0.75208487  0.00654978  0.39558299  1
  O2-  O128  1  0.75293382  0.00608858  0.72767832  1
  O2-  O129  1  0.75560001  0.50614288  0.06137378  1
  O2-  O130  1  0.75156715  0.49946286  0.38858366  1
  O2-  O131  1  0.74903812  0.49025212  0.72527615  1
  O2-  O132  1  -0.00081604  0.24946672  0.26787629  1
  O2-  O133  1  -0.00391632  0.25689994  0.60764161  1
  O2-  O134  1  0.00822206  0.24759638  0.93855864  1
  O2-  O135  1  0.00240983  0.75288285  0.27325965  1
  O2-  O136  1  0.00018923  0.74881129  0.60151038  1
  O2-  O137  1  -0.00615929  0.74637579  0.94464357  1
  O2-  O138  1  0.50358634  0.25209833  0.26801577  1
  O2-  O139  1  0.50642059  0.24490735  0.60806514  1
  O2-  O140  1  0.49414816  0.25313127  0.93862085  1
  O2-  O141  1  0.49236965  0.75060152  0.27456399  1
  O2-  O142  1  0.49184666  0.75302140  0.60566208  1
  O2-  O143  1  0.50449432  0.74508045  0.93929807  1
  O2-  O144  1  0.07208841  0.17244644  0.08735497  1
  O2-  O145  1  0.07123433  0.17626353  0.42944137  1
  O2-  O146  1  0.06754675  0.18100525  0.76836329  1
  O2-  O147  1  0.07046054  0.68427743  0.09194137  1
  O2-  O148  1  0.06966270  0.68262385  0.42269553  1
  O2-  O149  1  0.07122231  0.68019145  0.76488027  1
  O2-  O150  1  0.56895222  0.17985914  0.09803767  1
  O2-  O151  1  0.56401478  0.17508629  0.43460028  1
  O2-  O152  1  0.57396552  0.17671038  0.75706201  1
  O2-  O153  1  0.57404255  0.67823372  0.08846860  1
  O2-  O154  1  0.57768510  0.68275413  0.43101833  1
  O2-  O155  1  0.56822629  0.68138493  0.76833583  1
  O2-  O156  1  0.17746956  0.43474884  0.23399642  1
  O2-  O157  1  0.18106796  0.42531604  0.56994555  1
  O2-  O158  1  0.17421870  0.42804206  0.91283510  1
  O2-  O159  1  0.17671911  0.92448949  0.24354222  1
  O2-  O160  1  0.17647268  0.93026274  0.57629840  1
  O2-  O161  1  0.17855921  0.92958551  0.90939142  1
  O2-  O162  1  0.68141774  0.42777728  0.24295239  1
  O2-  O163  1  0.67811490  0.42534127  0.57477243  1
  O2-  O164  1  0.68201382  0.43235350  0.89987345  1
  O2-  O165  1  0.68210820  0.92975373  0.23351061  1
  O2-  O166  1  0.68011555  0.92887488  0.56980455  1
  O2-  O167  1  0.67877986  0.92619547  0.91266658  1
  O2-  O168  1  0.42812736  0.32140286  0.08873413  1
  O2-  O169  1  0.42757490  0.31985483  0.42994815  1
  O2-  O170  1  0.43360351  0.31872124  0.76898048  1
  O2-  O171  1  0.42870487  0.81895195  0.09901913  1
  O2-  O172  1  0.42607389  0.82593419  0.42384029  1
  O2-  O173  1  0.42952104  0.82585759  0.75525997  1
  O2-  O174  1  0.93175264  0.31982683  0.09662175  1
  O2-  O175  1  0.92886253  0.32374083  0.43217711  1
  O2-  O176  1  0.92294275  0.32040416  0.75649412  1
  O2-  O177  1  0.93180168  0.82196907  0.09260019  1
  O2-  O178  1  0.92691178  0.81865967  0.42089909  1
  O2-  O179  1  0.92967759  0.82039658  0.76597898  1
  O2-  O180  1  0.32020480  0.06421373  0.23987105  1
  O2-  O181  1  0.31846573  0.07104460  0.56704229  1
  O2-  O182  1  0.32160824  0.07120499  0.91096593  1
  O2-  O183  1  0.31884797  0.57538957  0.23661777  1
  O2-  O184  1  0.32553881  0.56770741  0.56903713  1
  O2-  O185  1  0.31713444  0.57309349  0.90197486  1
  O2-  O186  1  0.82427601  0.07021530  0.24652025  1
  O2-  O187  1  0.82305574  0.07286331  0.57695750  1
  O2-  O188  1  0.82245311  0.06548344  0.90102982  1
  O2-  O189  1  0.81995443  0.57457560  0.24106314  1
  O2-  O190  1  0.81695544  0.56936916  0.56529834  1
  O2-  O191  1  0.82449494  0.57550542  0.91168600  1
  O2-  O192  1  0.04478003  0.07730195  0.26369352  1
  O2-  O193  1  0.04197007  0.08608865  0.59799630  1
  O2-  O194  1  0.04426163  0.08218287  0.93685305  1
  O2-  O195  1  0.04217584  0.59131522  0.26870986  1
  O2-  O196  1  0.04194208  0.57850535  0.59866814  1
  O2-  O197  1  0.04854611  0.58770525  0.93975563  1
  O2-  O198  1  0.53751648  0.07964858  0.26622513  1
  O2-  O199  1  0.54443423  0.08046415  0.60931365  1
  O2-  O200  1  0.54164513  0.08324442  0.93085674  1
  O2-  O201  1  0.54701057  0.58358927  0.26237308  1
  O2-  O202  1  0.54255131  0.58347620  0.59951890  1
  O2-  O203  1  0.54637860  0.58176301  0.93928805  1
  O2-  O204  1  0.16925307  0.20281171  0.25973910  1
  O2-  O205  1  0.16680945  0.21155583  0.60215269  1
  O2-  O206  1  0.16942148  0.19755860  0.93933089  1
  O2-  O207  1  0.16376966  0.71139584  0.27158104  1
  O2-  O208  1  0.17061310  0.70673990  0.59620267  1
  O2-  O209  1  0.15910375  0.71513413  0.93829337  1
  O2-  O210  1  0.67068843  0.20018982  0.27169765  1
  O2-  O211  1  0.66770599  0.19485206  0.60450292  1
  O2-  O212  1  0.66653318  0.21163334  0.93057310  1
  O2-  O213  1  0.66619773  0.71572190  0.26034552  1
  O2-  O214  1  0.66372435  0.71448162  0.60169634  1
  O2-  O215  1  0.66774910  0.70083404  0.93814044  1
  O2-  O216  1  0.08336710  0.45719703  0.06402348  1
  O2-  O217  1  0.08142451  0.46052660  0.40010597  1
  O2-  O218  1  0.07918764  0.45366337  0.73550714  1
  O2-  O219  1  0.08901948  0.95621348  0.06481832  1
  O2-  O220  1  0.08221271  0.95115056  0.39504661  1
  O2-  O221  1  0.08203593  0.95672377  0.72715142  1
  O2-  O222  1  0.58623132  0.45904553  0.07099010  1
  O2-  O223  1  0.58855026  0.45674470  0.39404403  1
  O2-  O224  1  0.58597354  0.45472006  0.72777530  1
  O2-  O225  1  0.58163069  0.95305652  0.06149149  1
  O2-  O226  1  0.58215340  0.95745953  0.40144193  1
  O2-  O227  1  0.58408799  0.95669293  0.73990188  1
  O2-  O228  1  0.19726653  0.33130331  0.06252464  1
  O2-  O229  1  0.20374988  0.32664657  0.39486960  1
  O2-  O230  1  0.21080943  0.33251951  0.73953796  1
  O2-  O231  1  0.20939491  0.83951646  0.06382052  1
  O2-  O232  1  0.20580909  0.83851250  0.39961124  1
  O2-  O233  1  0.19797843  0.83409836  0.72780328  1
  O2-  O234  1  0.71471863  0.33441315  0.06699108  1
  O2-  O235  1  0.70689831  0.33611354  0.39687401  1
  O2-  O236  1  0.69945633  0.32962340  0.72580619  1
  O2-  O237  1  0.70193197  0.83297202  0.06373058  1
  O2-  O238  1  0.71580927  0.83435683  0.39922200  1
  O2-  O239  1  0.71349867  0.83468319  0.73993965  1
  O2-  O240  1  0.45807408  0.42035597  0.26348855  1
  O2-  O241  1  0.46176674  0.41352894  0.59792330  1
  O2-  O242  1  0.45566634  0.41719181  0.94009034  1
  O2-  O243  1  0.45554197  0.91317731  0.26982190  1
  O2-  O244  1  0.45663409  0.91845393  0.60496524  1
  O2-  O245  1  0.45792129  0.91495914  0.92961634  1
  O2-  O246  1  0.95738063  0.42208660  0.26346616  1
  O2-  O247  1  0.94681542  0.41838684  0.60789256  1
  O2-  O248  1  0.95770365  0.41876613  0.93059392  1
  O2-  O249  1  0.95429198  0.91264383  0.26902943  1
  O2-  O250  1  0.95443370  0.91775463  0.59555647  1
  O2-  O251  1  0.96179200  0.91207967  0.93978657  1
  O2-  O252  1  0.33256791  0.29287446  0.26024525  1
  O2-  O253  1  0.33567571  0.28513718  0.60261149  1
  O2-  O254  1  0.33201100  0.29839646  0.93973916  1
  O2-  O255  1  0.33137041  0.79917559  0.27239342  1
  O2-  O256  1  0.33111451  0.80793854  0.60540288  1
  O2-  O257  1  0.33172415  0.79058312  0.93141537  1
  O2-  O258  1  0.83093417  0.29460730  0.26530732  1
  O2-  O259  1  0.83236312  0.29611401  0.60286971  1
  O2-  O260  1  0.83560081  0.28728007  0.92932082  1
  O2-  O261  1  0.83940507  0.78884321  0.26544934  1
  O2-  O262  1  0.83012473  0.78845278  0.59981633  1
  O2-  O263  1  0.83443776  0.80052225  0.94188476  1
  O2-  O264  1  0.41388416  0.03906339  0.06217756  1
  O2-  O265  1  0.40790668  0.03731583  0.39562003  1
  O2-  O266  1  0.41463229  0.04107960  0.73829348  1
  O2-  O267  1  0.41675001  0.54478485  0.06896428  1
  O2-  O268  1  0.42620345  0.54812738  0.39689623  1
  O2-  O269  1  0.42072923  0.53882458  0.73545298  1
  O2-  O270  1  0.91621342  0.03720731  0.07083397  1
  O2-  O271  1  0.91655827  0.04328036  0.39710504  1
  O2-  O272  1  0.91655253  0.04448298  0.72813430  1
  O2-  O273  1  0.91891664  0.54895775  0.06206417  1
  O2-  O274  1  0.91334691  0.54730152  0.39302262  1
  O2-  O275  1  0.91598356  0.54463180  0.73523306  1
  O2-  O276  1  0.29748026  0.16352960  0.06423248  1
  O2-  O277  1  0.29428210  0.16283042  0.38930651  1
  O2-  O278  1  0.28654764  0.16458145  0.73852317  1
  O2-  O279  1  0.28448398  0.66722372  0.06875097  1
  O2-  O280  1  0.29452277  0.67048757  0.40321431  1
  O2-  O281  1  0.29880117  0.67398840  0.73098135  1
  O2-  O282  1  0.79017124  0.16622749  0.06711402  1
  O2-  O283  1  0.80254009  0.16804241  0.39719026  1
  O2-  O284  1  0.79900745  0.16655474  0.72921230  1
  O2-  O285  1  0.80055786  0.66867401  0.06351372  1
  O2-  O286  1  0.79044569  0.66347567  0.39321382  1
  O2-  O287  1  0.78531006  0.66333986  0.73582467  1
