# generated using pymatgen
data_Ca2Al2SiO7
_symmetry_space_group_name_H-M   'P 1'
_cell_length_a   15.46354749
_cell_length_b   15.46495575
_cell_length_c   15.28798988
_cell_angle_alpha   90.01259540
_cell_angle_beta   90.00295337
_cell_angle_gamma   90.01727711
_symmetry_Int_Tables_number   1
_chemical_formula_structural   Ca2Al2SiO7
_chemical_formula_sum   'Ca48 Al48 Si24 O168'
_cell_volume   3656.01669018
_cell_formula_units_Z   24
loop_
 _symmetry_equiv_pos_site_id
 _symmetry_equiv_pos_as_xyz
  1  'x, y, z'
loop_
 _atom_type_symbol
 _atom_type_oxidation_number
  Ca2+  2.0
  Al0+  0.0
  Si0+  0.0
  O2-  -2.0
loop_
 _atom_site_type_symbol
 _atom_site_label
 _atom_site_symmetry_multiplicity
 _atom_site_fract_x
 _atom_site_fract_y
 _atom_site_fract_z
 _atom_site_occupancy
  Ca2+  Ca0  1  0.17741112  0.07805135  0.17664428  1
  Ca2+  Ca1  1  0.16738304  0.07967414  0.50454684  1
  Ca2+  Ca2  1  0.16344962  0.08501888  0.83287714  1
  Ca2+  Ca3  1  0.16856043  0.57638490  0.16726685  1
  Ca2+  Ca4  1  0.16983670  0.57464302  0.50630608  1
  Ca2+  Ca5  1  0.16863108  0.56833505  0.83713317  1
  Ca2+  Ca6  1  0.67491401  0.08735761  0.17167956  1
  Ca2+  Ca7  1  0.67613826  0.09024523  0.50337602  1
  Ca2+  Ca8  1  0.67869133  0.08095062  0.83932806  1
  Ca2+  Ca9  1  0.66285564  0.57494062  0.17163399  1
  Ca2+  Ca10  1  0.66853272  0.57507852  0.49962929  1
  Ca2+  Ca11  1  0.66491926  0.57388640  0.83784523  1
  Ca2+  Ca12  1  0.06899605  0.33602548  0.15936538  1
  Ca2+  Ca13  1  0.07237681  0.33039582  0.50056737  1
  Ca2+  Ca14  1  0.07305862  0.33160118  0.82364261  1
  Ca2+  Ca15  1  0.08484612  0.83405507  0.16476596  1
  Ca2+  Ca16  1  0.08683163  0.83758833  0.49589905  1
  Ca2+  Ca17  1  0.08409110  0.83261194  0.82604368  1
  Ca2+  Ca18  1  0.58515492  0.33063842  0.16198949  1
  Ca2+  Ca19  1  0.58338931  0.33335550  0.49477073  1
  Ca2+  Ca20  1  0.57553479  0.34298872  0.82893355  1
  Ca2+  Ca21  1  0.58734481  0.82256859  0.15559925  1
  Ca2+  Ca22  1  0.59112538  0.82711127  0.49251814  1
  Ca2+  Ca23  1  0.59201815  0.83208210  0.83233206  1
  Ca2+  Ca24  1  0.32695356  0.40636587  0.16531968  1
  Ca2+  Ca25  1  0.32964909  0.41475133  0.51045987  1
  Ca2+  Ca26  1  0.32338476  0.40279130  0.83800711  1
  Ca2+  Ca27  1  0.33214511  0.91829682  0.17339818  1
  Ca2+  Ca28  1  0.32587522  0.92331171  0.50206798  1
  Ca2+  Ca29  1  0.33005913  0.91465577  0.83677813  1
  Ca2+  Ca30  1  0.82375011  0.41546158  0.17406495  1
  Ca2+  Ca31  1  0.82371504  0.40953492  0.50048676  1
  Ca2+  Ca32  1  0.82394904  0.40702448  0.83789655  1
  Ca2+  Ca33  1  0.82963461  0.92961649  0.16869875  1
  Ca2+  Ca34  1  0.82831391  0.93198563  0.50805727  1
  Ca2+  Ca35  1  0.82605150  0.92953090  0.83689664  1
  Ca2+  Ca36  1  0.42427737  0.16515111  0.16398436  1
  Ca2+  Ca37  1  0.42177739  0.17081677  0.49476432  1
  Ca2+  Ca38  1  0.41998030  0.17730349  0.82907755  1
  Ca2+  Ca39  1  0.42912276  0.67292516  0.15849036  1
  Ca2+  Ca40  1  0.42535940  0.66953634  0.49259466  1
  Ca2+  Ca41  1  0.42298532  0.67098036  0.83571144  1
  Ca2+  Ca42  1  0.90942902  0.17479986  0.16434050  1
  Ca2+  Ca43  1  0.91130558  0.17346351  0.49719450  1
  Ca2+  Ca44  1  0.91546791  0.17278034  0.82685341  1
  Ca2+  Ca45  1  0.91351062  0.66538963  0.16490228  1
  Ca2+  Ca46  1  0.91446841  0.66811418  0.49286667  1
  Ca2+  Ca47  1  0.91657541  0.66904930  0.82972190  1
  Al0+  Al48  1  0.00075373  -0.00059526  0.00468890  1
  Al0+  Al49  1  -0.00082220  -0.00026301  0.33875893  1
  Al0+  Al50  1  0.00127386  -0.00075407  0.67121670  1
  Al0+  Al51  1  0.00100855  0.49885355  -0.00109906  1
  Al0+  Al52  1  -0.00046847  0.50165834  0.33148386  1
  Al0+  Al53  1  0.00143453  0.50096704  0.66528450  1
  Al0+  Al54  1  0.49904529  -0.00152334  -0.00189936  1
  Al0+  Al55  1  0.49827206  0.00126072  0.33359075  1
  Al0+  Al56  1  0.49831272  -0.00107087  0.66852703  1
  Al0+  Al57  1  0.49874073  0.50201839  -0.00420755  1
  Al0+  Al58  1  0.49755266  0.50109033  0.33158296  1
  Al0+  Al59  1  0.50058051  0.50401376  0.66506235  1
  Al0+  Al60  1  0.24928113  0.24729662  0.00371990  1
  Al0+  Al61  1  0.24791335  0.24841225  0.33830758  1
  Al0+  Al62  1  0.24955438  0.24985929  0.66233008  1
  Al0+  Al63  1  0.25114799  0.74791240  -0.00342592  1
  Al0+  Al64  1  0.24909754  0.74755360  0.33566294  1
  Al0+  Al65  1  0.25176753  0.75034589  0.66896973  1
  Al0+  Al66  1  0.75056300  0.25074442  0.00332658  1
  Al0+  Al67  1  0.74754637  0.25080465  0.33258431  1
  Al0+  Al68  1  0.74838698  0.25178967  0.67251833  1
  Al0+  Al69  1  0.75244342  0.75005677  -0.00346538  1
  Al0+  Al70  1  0.75204069  0.74848849  0.32933529  1
  Al0+  Al71  1  0.75141005  0.74941020  0.66769743  1
  Al0+  Al72  1  0.67867915  0.43114554  0.68064788  1
  Al0+  Al73  1  0.67691898  0.42986535  0.34800908  1
  Al0+  Al74  1  0.81902956  0.07203385  0.34793465  1
  Al0+  Al75  1  0.82054882  0.07288471  0.68236949  1
  Al0+  Al76  1  0.92624362  0.32207238  0.65055600  1
  Al0+  Al77  1  0.67762209  0.92644620  0.68010648  1
  Al0+  Al78  1  0.67813127  0.92825747  0.01553685  1
  Al0+  Al79  1  0.17906529  0.42690713  0.01451920  1
  Al0+  Al80  1  0.67693625  0.43123050  0.01347182  1
  Al0+  Al81  1  0.18066670  0.92924312  0.68213813  1
  Al0+  Al82  1  0.42846901  0.31920528  0.98803027  1
  Al0+  Al83  1  0.18024404  0.42837190  0.67957951  1
  Al0+  Al84  1  0.82180559  0.07156178  0.01780495  1
  Al0+  Al85  1  0.57382970  0.67960543  0.98163768  1
  Al0+  Al86  1  0.57223389  0.67953846  0.31878526  1
  Al0+  Al87  1  0.43007760  0.32243155  0.65329472  1
  Al0+  Al88  1  0.17982348  0.92798536  0.34778397  1
  Al0+  Al89  1  0.92995207  0.32074879  0.31859515  1
  Al0+  Al90  1  0.92875785  0.32070891  0.98623846  1
  Al0+  Al91  1  0.07050081  0.17686362  0.65131967  1
  Al0+  Al92  1  0.42841095  0.82259078  0.98392007  1
  Al0+  Al93  1  0.56951018  0.17994519  0.32039778  1
  Al0+  Al94  1  0.32363815  0.07275217  0.35020464  1
  Al0+  Al95  1  0.82209024  0.57211328  0.34742798  1
  Si0+  Si96  1  0.82325670  0.57268955  0.68310667  1
  Si0+  Si97  1  0.93159484  0.82212320  0.98429143  1
  Si0+  Si98  1  0.07174450  0.17625892  0.31621936  1
  Si0+  Si99  1  0.57198315  0.68175626  0.64925931  1
  Si0+  Si100  1  0.57277949  0.17790558  0.98309356  1
  Si0+  Si101  1  0.67813341  0.92700504  0.34648727  1
  Si0+  Si102  1  0.17731383  0.42872287  0.34839689  1
  Si0+  Si103  1  0.42709813  0.82037279  0.31874206  1
  Si0+  Si104  1  0.82387782  0.57195971  0.01453815  1
  Si0+  Si105  1  0.32085055  0.07065399  0.01427584  1
  Si0+  Si106  1  0.42442835  0.32303117  0.31738831  1
  Si0+  Si107  1  0.07190664  0.17663167  0.98619833  1
  Si0+  Si108  1  0.07250933  0.67900925  0.31713715  1
  Si0+  Si109  1  0.32266802  0.57268427  0.68435262  1
  Si0+  Si110  1  0.07297860  0.67979320  0.65084396  1
  Si0+  Si111  1  0.31993070  0.57240235  0.01726747  1
  Si0+  Si112  1  0.93015780  0.82209480  0.31782485  1
  Si0+  Si113  1  0.07188705  0.67854916  0.98392406  1
  Si0+  Si114  1  0.32210127  0.07273552  0.68559249  1
  Si0+  Si115  1  0.93018871  0.81937198  0.65162505  1
  Si0+  Si116  1  0.42698663  0.82149109  0.64925096  1
  Si0+  Si117  1  0.31939854  0.56989911  0.34786510  1
  Si0+  Si118  1  0.18015677  0.92626750  0.01459480  1
  Si0+  Si119  1  0.57077480  0.17726442  0.65221174  1
  O2-  O120  1  0.25267898  -0.00445594  0.05534155  1
  O2-  O121  1  0.24986367  0.00118019  0.39801673  1
  O2-  O122  1  0.25284401  0.00476424  0.73082427  1
  O2-  O123  1  0.25557217  0.49973953  0.06237340  1
  O2-  O124  1  0.25308908  0.49490814  0.39033541  1
  O2-  O125  1  0.25808292  0.49965170  0.72743033  1
  O2-  O126  1  0.74612210  0.00252940  0.06716083  1
  O2-  O127  1  0.74246500  -0.00186309  0.39277300  1
  O2-  O128  1  0.74574761  0.00189976  0.72964118  1
  O2-  O129  1  0.75316462  0.50564741  0.05814692  1
  O2-  O130  1  0.75084847  0.50049773  0.39785843  1
  O2-  O131  1  0.75856448  0.50084694  0.72696296  1
  O2-  O132  1  0.00461447  0.24554672  0.27110602  1
  O2-  O133  1  -0.00392050  0.24678886  0.60155603  1
  O2-  O134  1  0.00290539  0.24445020  0.94207219  1
  O2-  O135  1  0.00191247  0.75073676  0.27553011  1
  O2-  O136  1  0.00222393  0.75004125  0.60753631  1
  O2-  O137  1  0.00144749  0.74974596  0.94154767  1
  O2-  O138  1  0.49314717  0.25409850  0.27436756  1
  O2-  O139  1  0.50418582  0.24778426  0.60692438  1
  O2-  O140  1  0.50632451  0.24913991  0.93919368  1
  O2-  O141  1  0.50096204  0.75843279  0.27367266  1
  O2-  O142  1  0.50359067  0.75611837  0.60756265  1
  O2-  O143  1  0.50490101  0.75588174  0.93256656  1
  O2-  O144  1  0.07342324  0.17658676  0.09175053  1
  O2-  O145  1  0.07202494  0.17719013  0.42149667  1
  O2-  O146  1  0.07097825  0.17934375  0.76544342  1
  O2-  O147  1  0.07311280  0.67983412  0.08926922  1
  O2-  O148  1  0.07462189  0.67844926  0.42219942  1
  O2-  O149  1  0.07233779  0.68051457  0.75620611  1
  O2-  O150  1  0.57034822  0.17738870  0.08890902  1
  O2-  O151  1  0.56937449  0.18141663  0.43363169  1
  O2-  O152  1  0.56801915  0.17620765  0.75771709  1
  O2-  O153  1  0.57079918  0.67935908  0.09536896  1
  O2-  O154  1  0.56971372  0.68074107  0.43246968  1
  O2-  O155  1  0.57117941  0.68085977  0.75397389  1
  O2-  O156  1  0.17774523  0.43111796  0.24306097  1
  O2-  O157  1  0.18085054  0.43361934  0.56605351  1
  O2-  O158  1  0.17925924  0.42897435  0.90164991  1
  O2-  O159  1  0.18223237  0.92608585  0.23353428  1
  O2-  O160  1  0.18458515  0.92514199  0.56971737  1
  O2-  O161  1  0.17886653  0.92598865  0.90967013  1
  O2-  O162  1  0.67658472  0.43138228  0.23438269  1
  O2-  O163  1  0.67586487  0.43405349  0.56792421  1
  O2-  O164  1  0.67774479  0.43288825  0.90024324  1
  O2-  O165  1  0.68152856  0.92618259  0.24118134  1
  O2-  O166  1  0.68231397  0.92232726  0.56635699  1
  O2-  O167  1  0.68291898  0.93033138  0.90218670  1
  O2-  O168  1  0.42612814  0.31421595  0.10106333  1
  O2-  O169  1  0.42450681  0.32443570  0.42307608  1
  O2-  O170  1  0.42994890  0.32022137  0.76649896  1
  O2-  O171  1  0.42238926  0.81759221  0.09748438  1
  O2-  O172  1  0.42503359  0.81560635  0.42450923  1
  O2-  O173  1  0.42238829  0.81783698  0.75380149  1
  O2-  O174  1  0.93062291  0.32265495  0.09950116  1
  O2-  O175  1  0.93166743  0.32102608  0.43136222  1
  O2-  O176  1  0.92865466  0.32303878  0.76422262  1
  O2-  O177  1  0.93430803  0.82201193  0.08961265  1
  O2-  O178  1  0.93044455  0.82059056  0.42300507  1
  O2-  O179  1  0.93176526  0.81563545  0.75696711  1
  O2-  O180  1  0.32197698  0.07128309  0.23597566  1
  O2-  O181  1  0.32334934  0.06992870  0.58019982  1
  O2-  O182  1  0.31735155  0.07357367  0.90942107  1
  O2-  O183  1  0.31633738  0.57345572  0.24310041  1
  O2-  O184  1  0.32049959  0.57459002  0.57816289  1
  O2-  O185  1  0.31517836  0.57592989  0.91193222  1
  O2-  O186  1  0.82033200  0.06982874  0.23523504  1
  O2-  O187  1  0.81900256  0.07126862  0.56848895  1
  O2-  O188  1  0.82485222  0.06895993  0.90460823  1
  O2-  O189  1  0.82341356  0.57203297  0.23395758  1
  O2-  O190  1  0.82077439  0.57833004  0.57799239  1
  O2-  O191  1  0.82645830  0.57187628  0.90887404  1
  O2-  O192  1  0.04692694  0.08153064  0.27182307  1
  O2-  O193  1  0.04776548  0.07536428  0.60140112  1
  O2-  O194  1  0.04843812  0.08161520  0.94106946  1
  O2-  O195  1  0.04482246  0.58854545  0.26705978  1
  O2-  O196  1  0.04638675  0.58869761  0.60183068  1
  O2-  O197  1  0.04348228  0.58755091  0.93563572  1
  O2-  O198  1  0.53995922  0.08253172  0.26537895  1
  O2-  O199  1  0.54452533  0.08366486  0.60553287  1
  O2-  O200  1  0.54463278  0.08529106  0.93686076  1
  O2-  O201  1  0.53537639  0.58486149  0.26488452  1
  O2-  O202  1  0.53971173  0.59237607  0.59996752  1
  O2-  O203  1  0.53874096  0.58392797  0.92692733  1
  O2-  O204  1  0.16678405  0.20115313  0.27164183  1
  O2-  O205  1  0.16803521  0.20631971  0.59701831  1
  O2-  O206  1  0.16520333  0.20208082  0.93988125  1
  O2-  O207  1  0.16377990  0.70714339  0.26779251  1
  O2-  O208  1  0.16515890  0.70816928  0.60400505  1
  O2-  O209  1  0.16248237  0.70631232  0.93481645  1
  O2-  O210  1  0.66408009  0.21204272  0.26371029  1
  O2-  O211  1  0.66475559  0.20340690  0.60832979  1
  O2-  O212  1  0.66718694  0.20174820  0.93946936  1
  O2-  O213  1  0.66948723  0.70617904  0.26413520  1
  O2-  O214  1  0.66501015  0.70725429  0.60275286  1
  O2-  O215  1  0.67385135  0.70393004  0.92899307  1
  O2-  O216  1  0.08442592  0.46379361  0.06881975  1
  O2-  O217  1  0.08868698  0.46411464  0.39574322  1
  O2-  O218  1  0.08503932  0.46440715  0.73340429  1
  O2-  O219  1  0.08949148  0.95384104  0.06401185  1
  O2-  O220  1  0.08120656  0.95330983  0.40079560  1
  O2-  O221  1  0.08341307  0.95409445  0.73725036  1
  O2-  O222  1  0.57935951  0.46157664  0.06585453  1
  O2-  O223  1  0.57754078  0.45911548  0.39923560  1
  O2-  O224  1  0.58331063  0.46846633  0.73387293  1
  O2-  O225  1  0.57600727  0.94842248  0.06416138  1
  O2-  O226  1  0.58218980  0.94576821  0.38964529  1
  O2-  O227  1  0.57614702  0.94647204  0.72975983  1
  O2-  O228  1  0.20913602  0.33098595  0.07034992  1
  O2-  O229  1  0.19880544  0.33571638  0.39514290  1
  O2-  O230  1  0.20927441  0.33118594  0.73231377  1
  O2-  O231  1  0.20613165  0.83324872  0.06075424  1
  O2-  O232  1  0.20760195  0.82890408  0.40070171  1
  O2-  O233  1  0.21294676  0.83245185  0.73645516  1
  O2-  O234  1  0.70636902  0.33436036  0.06662104  1
  O2-  O235  1  0.70584014  0.33219273  0.40084616  1
  O2-  O236  1  0.70229133  0.33418064  0.73627550  1
  O2-  O237  1  0.71151526  0.82965307  0.06562478  1
  O2-  O238  1  0.70804125  0.83442420  0.39188695  1
  O2-  O239  1  0.71157817  0.82997649  0.73434068  1
  O2-  O240  1  0.44660952  0.41716107  0.27106374  1
  O2-  O241  1  0.45765165  0.42094602  0.60049267  1
  O2-  O242  1  0.45124195  0.41793738  0.93511479  1
  O2-  O243  1  0.44377940  0.91680734  0.27634381  1
  O2-  O244  1  0.44752754  0.91585046  0.60409186  1
  O2-  O245  1  0.44703877  0.92317922  0.93132145  1
  O2-  O246  1  0.96279069  0.41755102  0.26512059  1
  O2-  O247  1  0.95803063  0.42077521  0.59887846  1
  O2-  O248  1  0.96110989  0.41697680  0.93228361  1
  O2-  O249  1  0.95953106  0.91326909  0.26986013  1
  O2-  O250  1  0.95743745  0.91152773  0.60596546  1
  O2-  O251  1  0.96313483  0.91274024  0.93703599  1
  O2-  O252  1  0.32945487  0.29711189  0.27351754  1
  O2-  O253  1  0.33411436  0.29241466  0.59834978  1
  O2-  O254  1  0.33228576  0.28336104  0.93483725  1
  O2-  O255  1  0.33546549  0.78758744  0.27202917  1
  O2-  O256  1  0.33786922  0.78650694  0.60017101  1
  O2-  O257  1  0.33159816  0.78752934  0.92888461  1
  O2-  O258  1  0.83279715  0.29015115  0.26655754  1
  O2-  O259  1  0.82581005  0.29504343  0.60087015  1
  O2-  O260  1  0.83153355  0.29060005  0.93373790  1
  O2-  O261  1  0.84032637  0.79311324  0.26754840  1
  O2-  O262  1  0.83953981  0.78927718  0.60332851  1
  O2-  O263  1  0.84116778  0.79475676  0.93485512  1
  O2-  O264  1  0.41340074  0.04596733  0.06116613  1
  O2-  O265  1  0.42099566  0.04384762  0.40514927  1
  O2-  O266  1  0.41481859  0.04623507  0.73262959  1
  O2-  O267  1  0.41502385  0.55127963  0.06029319  1
  O2-  O268  1  0.41168085  0.54664672  0.39605744  1
  O2-  O269  1  0.41759519  0.55294910  0.72836510  1
  O2-  O270  1  0.91922486  0.03816404  0.07161087  1
  O2-  O271  1  0.91455112  0.03969029  0.40217785  1
  O2-  O272  1  0.91758461  0.04058713  0.73488826  1
  O2-  O273  1  0.91743506  0.54691837  0.06117439  1
  O2-  O274  1  0.92261508  0.54875910  0.39907676  1
  O2-  O275  1  0.91929414  0.55364828  0.72666706  1
  O2-  O276  1  0.28915962  0.15851834  0.06671503  1
  O2-  O277  1  0.29536323  0.17084757  0.40416516  1
  O2-  O278  1  0.29581403  0.16658182  0.72987285  1
  O2-  O279  1  0.28758802  0.66337325  0.06578592  1
  O2-  O280  1  0.28732645  0.65878521  0.39886676  1
  O2-  O281  1  0.29129750  0.66343017  0.73219857  1
  O2-  O282  1  0.79382574  0.16990798  0.07007784  1
  O2-  O283  1  0.78646329  0.16757293  0.40123746  1
  O2-  O284  1  0.79276167  0.17003994  0.73719247  1
  O2-  O285  1  0.80269470  0.66732967  0.05867399  1
  O2-  O286  1  0.79467976  0.67131759  0.40028568  1
  O2-  O287  1  0.79431855  0.66431093  0.73200164  1
