# generated using pymatgen
data_Ca2Al2SiO7
_symmetry_space_group_name_H-M   'P 1'
_cell_length_a   15.47570531
_cell_length_b   15.47335583
_cell_length_c   15.29796936
_cell_angle_alpha   90.00288337
_cell_angle_beta   90.01010512
_cell_angle_gamma   89.98596173
_symmetry_Int_Tables_number   1
_chemical_formula_structural   Ca2Al2SiO7
_chemical_formula_sum   'Ca48 Al48 Si24 O168'
_cell_volume   3663.26832258
_cell_formula_units_Z   24
loop_
 _symmetry_equiv_pos_site_id
 _symmetry_equiv_pos_as_xyz
  1  'x, y, z'
loop_
 _atom_type_symbol
 _atom_type_oxidation_number
  Ca2+  2.0
  Al0+  0.0
  Si0+  0.0
  O2-  -2.0
loop_
 _atom_site_type_symbol
 _atom_site_label
 _atom_site_symmetry_multiplicity
 _atom_site_fract_x
 _atom_site_fract_y
 _atom_site_fract_z
 _atom_site_occupancy
  Ca2+  Ca0  1  0.17051605  0.08611730  0.17363172  1
  Ca2+  Ca1  1  0.16551840  0.09014928  0.50357230  1
  Ca2+  Ca2  1  0.16961316  0.08564123  0.83272554  1
  Ca2+  Ca3  1  0.17871100  0.58766019  0.17154200  1
  Ca2+  Ca4  1  0.17287049  0.57395038  0.50863531  1
  Ca2+  Ca5  1  0.17705036  0.57602323  0.83927053  1
  Ca2+  Ca6  1  0.67063759  0.07206349  0.17769806  1
  Ca2+  Ca7  1  0.66552800  0.07723214  0.50649756  1
  Ca2+  Ca8  1  0.66549674  0.07456348  0.83833228  1
  Ca2+  Ca9  1  0.66321252  0.58051805  0.17802478  1
  Ca2+  Ca10  1  0.66234930  0.58389050  0.49624847  1
  Ca2+  Ca11  1  0.65637083  0.58454992  0.83380674  1
  Ca2+  Ca12  1  0.07555450  0.32926845  0.17151703  1
  Ca2+  Ca13  1  0.07779201  0.32499525  0.49412134  1
  Ca2+  Ca14  1  0.08145010  0.32764480  0.82290341  1
  Ca2+  Ca15  1  0.07407015  0.83474395  0.16803381  1
  Ca2+  Ca16  1  0.07230352  0.83364756  0.49136859  1
  Ca2+  Ca17  1  0.08073824  0.83170989  0.82926956  1
  Ca2+  Ca18  1  0.59549568  0.32647591  0.17143571  1
  Ca2+  Ca19  1  0.58184377  0.32435289  0.49096414  1
  Ca2+  Ca20  1  0.57591377  0.32573846  0.82280701  1
  Ca2+  Ca21  1  0.58710175  0.82640000  0.16144949  1
  Ca2+  Ca22  1  0.58586298  0.82931276  0.49283516  1
  Ca2+  Ca23  1  0.58369602  0.82764734  0.82613283  1
  Ca2+  Ca24  1  0.33828841  0.42190117  0.17439177  1
  Ca2+  Ca25  1  0.33071353  0.40489592  0.50733434  1
  Ca2+  Ca26  1  0.33247583  0.41823927  0.83675863  1
  Ca2+  Ca27  1  0.33341632  0.90607561  0.17173626  1
  Ca2+  Ca28  1  0.33552420  0.91209258  0.50296591  1
  Ca2+  Ca29  1  0.33686125  0.91032027  0.83615319  1
  Ca2+  Ca30  1  0.82825800  0.42500152  0.17989887  1
  Ca2+  Ca31  1  0.83227706  0.41777325  0.49434380  1
  Ca2+  Ca32  1  0.83004420  0.41915945  0.83529796  1
  Ca2+  Ca33  1  0.82185103  0.92152278  0.17515094  1
  Ca2+  Ca34  1  0.82171686  0.92375077  0.50013754  1
  Ca2+  Ca35  1  0.81855044  0.92783700  0.83490860  1
  Ca2+  Ca36  1  0.42511969  0.17133776  0.17365774  1
  Ca2+  Ca37  1  0.43007227  0.17361800  0.49848230  1
  Ca2+  Ca38  1  0.42381282  0.17158302  0.82295306  1
  Ca2+  Ca39  1  0.42865610  0.67384256  0.16186044  1
  Ca2+  Ca40  1  0.42876129  0.67705467  0.49644449  1
  Ca2+  Ca41  1  0.42444121  0.67483647  0.83076467  1
  Ca2+  Ca42  1  0.91018593  0.16393785  0.16837078  1
  Ca2+  Ca43  1  0.92393756  0.15875939  0.49060069  1
  Ca2+  Ca44  1  0.91898224  0.15729675  0.82692582  1
  Ca2+  Ca45  1  0.90309200  0.67608722  0.17003000  1
  Ca2+  Ca46  1  0.91410607  0.67234696  0.48937377  1
  Ca2+  Ca47  1  0.91695695  0.67013805  0.82796908  1
  Al0+  Al48  1  0.00237702  0.00041969  0.00095409  1
  Al0+  Al49  1  0.00225081  -0.00341591  0.32688255  1
  Al0+  Al50  1  0.00031990  -0.00134510  0.66718379  1
  Al0+  Al51  1  -0.00021478  0.49716845  -0.00037398  1
  Al0+  Al52  1  0.00413992  0.49810436  0.33319990  1
  Al0+  Al53  1  0.00206412  0.49866522  0.67315403  1
  Al0+  Al54  1  0.49761191  0.00115355  0.00228243  1
  Al0+  Al55  1  0.49548218  0.00210186  0.33145436  1
  Al0+  Al56  1  0.49694183  0.00041542  0.66620885  1
  Al0+  Al57  1  0.49829024  0.50049024  0.00103532  1
  Al0+  Al58  1  0.49890118  0.50317939  0.33410453  1
  Al0+  Al59  1  0.49842035  0.50408069  0.66160586  1
  Al0+  Al60  1  0.24661770  0.24893642  0.00131491  1
  Al0+  Al61  1  0.24997442  0.24911592  0.32607872  1
  Al0+  Al62  1  0.24621851  0.24840389  0.66716472  1
  Al0+  Al63  1  0.24962004  0.74775134  0.00132301  1
  Al0+  Al64  1  0.24978802  0.74906911  0.33467020  1
  Al0+  Al65  1  0.25001046  0.74782968  0.66589543  1
  Al0+  Al66  1  0.75188551  0.25193584  -0.00067408  1
  Al0+  Al67  1  0.75288875  0.25156858  0.33266525  1
  Al0+  Al68  1  0.75285730  0.25360511  0.66831413  1
  Al0+  Al69  1  0.75126823  0.75032536  -0.00534494  1
  Al0+  Al70  1  0.75115305  0.75121376  0.33255581  1
  Al0+  Al71  1  0.75137412  0.75080745  0.66778493  1
  Al0+  Al72  1  0.67601265  0.92975615  0.68180549  1
  Al0+  Al73  1  0.31991796  0.56879379  0.01569767  1
  Al0+  Al74  1  0.42688983  0.82171550  0.65155675  1
  Al0+  Al75  1  0.82291250  0.57189939  0.34724309  1
  Al0+  Al76  1  0.42821532  0.32127596  0.65544860  1
  Al0+  Al77  1  0.92935917  0.81918611  0.31961365  1
  Al0+  Al78  1  0.42951547  0.32201970  0.31921880  1
  Al0+  Al79  1  0.67724797  0.92847604  0.01544746  1
  Al0+  Al80  1  0.06969358  0.17740608  0.31619991  1
  Al0+  Al81  1  0.57460809  0.17935511  0.65434594  1
  Al0+  Al82  1  0.82238474  0.07296654  0.67971805  1
  Al0+  Al83  1  0.82308866  0.07076684  0.34735309  1
  Al0+  Al84  1  0.06661205  0.17847608  0.65392127  1
  Al0+  Al85  1  0.57409978  0.17889636  0.31886877  1
  Al0+  Al86  1  0.67527526  0.93043173  0.34828696  1
  Al0+  Al87  1  0.82169791  0.07183347  0.01581624  1
  Al0+  Al88  1  0.18055539  0.42758619  0.68136569  1
  Al0+  Al89  1  0.57420195  0.68090201  0.64863285  1
  Al0+  Al90  1  0.42676769  0.82197190  0.31848105  1
  Al0+  Al91  1  0.57195498  0.68223861  0.31766539  1
  Al0+  Al92  1  0.67742262  0.42941102  0.34917278  1
  Al0+  Al93  1  0.57279796  0.67848286  0.98330775  1
  Al0+  Al94  1  0.92897530  0.32232650  0.31773445  1
  Al0+  Al95  1  0.42754634  0.82207543  0.98442572  1
  Si0+  Si96  1  0.93183489  0.81906765  0.65238177  1
  Si0+  Si97  1  0.82372267  0.57020775  0.01196363  1
  Si0+  Si98  1  0.32178743  0.57321477  0.68526733  1
  Si0+  Si99  1  0.93080405  0.82171346  0.98230751  1
  Si0+  Si100  1  0.07106846  0.17885439  0.98214880  1
  Si0+  Si101  1  0.82220666  0.57088062  0.68201867  1
  Si0+  Si102  1  0.42699588  0.32000042  0.98661340  1
  Si0+  Si103  1  0.67677338  0.43087256  0.68132235  1
  Si0+  Si104  1  0.57159765  0.18063005  0.98636786  1
  Si0+  Si105  1  0.92920834  0.32134531  0.98238640  1
  Si0+  Si106  1  0.31853610  0.07372958  0.34983973  1
  Si0+  Si107  1  0.17671930  0.42621297  0.02017791  1
  Si0+  Si108  1  0.32047692  0.57242681  0.35157724  1
  Si0+  Si109  1  0.92820907  0.32642788  0.65034351  1
  Si0+  Si110  1  0.07308577  0.67658011  0.31762214  1
  Si0+  Si111  1  0.17830080  0.92631942  0.68109744  1
  Si0+  Si112  1  0.18058651  0.92788177  0.34856726  1
  Si0+  Si113  1  0.31816531  0.07026369  0.68142121  1
  Si0+  Si114  1  0.07091632  0.67650897  0.65360632  1
  Si0+  Si115  1  0.18040916  0.92821578  0.01493998  1
  Si0+  Si116  1  0.67877156  0.43083698  0.01207876  1
  Si0+  Si117  1  0.18253340  0.42739006  0.34913629  1
  Si0+  Si118  1  0.07076900  0.67761802  0.98509794  1
  Si0+  Si119  1  0.31983890  0.07379661  0.01571993  1
  O2-  O120  1  0.25450644  -0.00383122  0.05603291  1
  O2-  O121  1  0.25043255  -0.00104293  0.39100093  1
  O2-  O122  1  0.25146355  -0.00555250  0.72393394  1
  O2-  O123  1  0.24600114  0.49349791  0.06453151  1
  O2-  O124  1  0.25493954  0.49574940  0.39298970  1
  O2-  O125  1  0.25725349  0.49957015  0.72884907  1
  O2-  O126  1  0.74839484  0.00161703  0.06472843  1
  O2-  O127  1  0.74396326  0.00691104  0.39702918  1
  O2-  O128  1  0.74341473  0.00831043  0.72962790  1
  O2-  O129  1  0.74682081  0.50567486  0.05196258  1
  O2-  O130  1  0.75078995  0.50120287  0.39857356  1
  O2-  O131  1  0.74861509  0.50210297  0.72392386  1
  O2-  O132  1  -0.00586761  0.24484393  0.26545581  1
  O2-  O133  1  -0.01114741  0.24976912  0.60872173  1
  O2-  O134  1  -0.00239314  0.24746516  0.94067821  1
  O2-  O135  1  -0.00008056  0.73954029  0.27258828  1
  O2-  O136  1  0.00076075  0.74605706  0.60969136  1
  O2-  O137  1  -0.00040016  0.74729186  0.94052836  1
  O2-  O138  1  0.50669094  0.25628536  0.26822961  1
  O2-  O139  1  0.50619366  0.25609397  0.60648758  1
  O2-  O140  1  0.49814175  0.24972342  0.94414852  1
  O2-  O141  1  0.50357516  0.75718992  0.26728375  1
  O2-  O142  1  0.50517385  0.75728846  0.60209129  1
  O2-  O143  1  0.50424504  0.75501028  0.93496866  1
  O2-  O144  1  0.07507930  0.17922328  0.08630341  1
  O2-  O145  1  0.07175875  0.17966897  0.42974407  1
  O2-  O146  1  0.06848134  0.17916156  0.76771804  1
  O2-  O147  1  0.07117478  0.67896636  0.08972285  1
  O2-  O148  1  0.07535939  0.67995565  0.42344941  1
  O2-  O149  1  0.06936063  0.67832777  0.75922965  1
  O2-  O150  1  0.57247303  0.18308286  0.09087086  1
  O2-  O151  1  0.57024567  0.17777755  0.43213363  1
  O2-  O152  1  0.56977295  0.18074821  0.76916227  1
  O2-  O153  1  0.57275295  0.67495837  0.09596747  1
  O2-  O154  1  0.57003542  0.68205431  0.43084958  1
  O2-  O155  1  0.57186446  0.67906593  0.76239588  1
  O2-  O156  1  0.18305156  0.42935034  0.24384470  1
  O2-  O157  1  0.17935512  0.43013278  0.56849073  1
  O2-  O158  1  0.17659822  0.42616161  0.91447169  1
  O2-  O159  1  0.18147034  0.92572017  0.24314428  1
  O2-  O160  1  0.17560756  0.92573475  0.57649156  1
  O2-  O161  1  0.17719052  0.92895951  0.90954796  1
  O2-  O162  1  0.67893016  0.43214483  0.23459563  1
  O2-  O163  1  0.67736261  0.42970815  0.57731908  1
  O2-  O164  1  0.68055997  0.42874991  0.90649575  1
  O2-  O165  1  0.67816885  0.92802398  0.23464346  1
  O2-  O166  1  0.67986938  0.92695928  0.56900434  1
  O2-  O167  1  0.67845948  0.92964814  0.90168299  1
  O2-  O168  1  0.42578168  0.31895758  0.09100380  1
  O2-  O169  1  0.42505212  0.31540744  0.43223614  1
  O2-  O170  1  0.42871591  0.31853662  0.77013310  1
  O2-  O171  1  0.42323756  0.81693109  0.09694998  1
  O2-  O172  1  0.42034710  0.81617494  0.43123621  1
  O2-  O173  1  0.42150419  0.81629821  0.76481636  1
  O2-  O174  1  0.93060625  0.32562510  0.08640405  1
  O2-  O175  1  0.93639121  0.32884673  0.43072619  1
  O2-  O176  1  0.93242438  0.33181447  0.75640843  1
  O2-  O177  1  0.93247721  0.82078028  0.08702431  1
  O2-  O178  1  0.93432537  0.81900177  0.43287822  1
  O2-  O179  1  0.93564310  0.81690773  0.75805513  1
  O2-  O180  1  0.31516674  0.07649507  0.24443309  1
  O2-  O181  1  0.31409281  0.07328668  0.57694176  1
  O2-  O182  1  0.31547550  0.07960381  0.91069774  1
  O2-  O183  1  0.31574675  0.57379592  0.24634430  1
  O2-  O184  1  0.31608502  0.57724010  0.58023537  1
  O2-  O185  1  0.31657890  0.56550317  0.90262074  1
  O2-  O186  1  0.82281320  0.06454425  0.23374827  1
  O2-  O187  1  0.82892128  0.06614980  0.56747534  1
  O2-  O188  1  0.82138573  0.07041224  0.90212234  1
  O2-  O189  1  0.82228725  0.57037527  0.23302188  1
  O2-  O190  1  0.82879382  0.57006448  0.57811473  1
  O2-  O191  1  0.82997825  0.56593237  0.90666891  1
  O2-  O192  1  0.04984719  0.07750133  0.26310825  1
  O2-  O193  1  0.04293137  0.07977680  0.60086337  1
  O2-  O194  1  0.04714535  0.08533227  0.93538381  1
  O2-  O195  1  0.05699432  0.58145419  0.27243976  1
  O2-  O196  1  0.04390157  0.58418539  0.60807445  1
  O2-  O197  1  0.04320806  0.58492858  0.93826483  1
  O2-  O198  1  0.53642940  0.08448286  0.26364034  1
  O2-  O199  1  0.54055320  0.08318487  0.60261871  1
  O2-  O200  1  0.54343512  0.08866867  0.94029239  1
  O2-  O201  1  0.53976945  0.58435039  0.26625097  1
  O2-  O202  1  0.54271934  0.58374631  0.59592080  1
  O2-  O203  1  0.53883868  0.57996680  0.93117471  1
  O2-  O204  1  0.16502480  0.21236530  0.26060052  1
  O2-  O205  1  0.16201238  0.21150476  0.60043957  1
  O2-  O206  1  0.16180930  0.21003454  0.93328414  1
  O2-  O207  1  0.16290006  0.71074788  0.26921051  1
  O2-  O208  1  0.16211070  0.70301353  0.60608753  1
  O2-  O209  1  0.16102174  0.70701625  0.93597017  1
  O2-  O210  1  0.67272705  0.20418622  0.26537672  1
  O2-  O211  1  0.67459706  0.20428173  0.60458395  1
  O2-  O212  1  0.66226615  0.21150187  0.93828229  1
  O2-  O213  1  0.67175790  0.70466787  0.26583099  1
  O2-  O214  1  0.67545607  0.70368750  0.59971277  1
  O2-  O215  1  0.67336350  0.70052630  0.92985983  1
  O2-  O216  1  0.08298056  0.45377293  0.06454654  1
  O2-  O217  1  0.09193272  0.45631054  0.39739565  1
  O2-  O218  1  0.08619780  0.46192753  0.73971554  1
  O2-  O219  1  0.09040881  0.95940368  0.06372984  1
  O2-  O220  1  0.08877320  0.95513854  0.39525862  1
  O2-  O221  1  0.08881095  0.95667513  0.73204939  1
  O2-  O222  1  0.58629680  0.45327710  0.05913225  1
  O2-  O223  1  0.57871850  0.45827112  0.40161294  1
  O2-  O224  1  0.58473805  0.45987905  0.72895375  1
  O2-  O225  1  0.57736133  0.95424917  0.06614996  1
  O2-  O226  1  0.57418203  0.95435326  0.39770372  1
  O2-  O227  1  0.57534840  0.95287093  0.73351725  1
  O2-  O228  1  0.20070565  0.33186933  0.06479720  1
  O2-  O229  1  0.20976755  0.33448038  0.39418475  1
  O2-  O230  1  0.20828059  0.33080975  0.73735141  1
  O2-  O231  1  0.20327555  0.83546868  0.06245380  1
  O2-  O232  1  0.20689120  0.83629461  0.39796341  1
  O2-  O233  1  0.20282295  0.83344702  0.72950150  1
  O2-  O234  1  0.71125523  0.34095945  0.05990309  1
  O2-  O235  1  0.70608412  0.33087829  0.40102670  1
  O2-  O236  1  0.70459094  0.34030963  0.73249138  1
  O2-  O237  1  0.71037043  0.82894864  0.06367599  1
  O2-  O238  1  0.71128703  0.83390889  0.39960427  1
  O2-  O239  1  0.71378588  0.83336417  0.73546682  1
  O2-  O240  1  0.44832021  0.42374418  0.27085236  1
  O2-  O241  1  0.44506428  0.42249250  0.60598282  1
  O2-  O242  1  0.45416140  0.41162915  0.93930018  1
  O2-  O243  1  0.43987462  0.92470404  0.27050361  1
  O2-  O244  1  0.44222118  0.92411848  0.60389092  1
  O2-  O245  1  0.44487522  0.92562533  0.93671877  1
  O2-  O246  1  0.96659458  0.41811678  0.26197601  1
  O2-  O247  1  0.96353863  0.41663348  0.60391363  1
  O2-  O248  1  0.96021602  0.41191712  0.93264139  1
  O2-  O249  1  0.96823678  0.90988880  0.26073768  1
  O2-  O250  1  0.96487571  0.90826364  0.60517712  1
  O2-  O251  1  0.96584777  0.91147581  0.93546945  1
  O2-  O252  1  0.33465099  0.28750126  0.26194886  1
  O2-  O253  1  0.33159938  0.28628001  0.60432848  1
  O2-  O254  1  0.33410232  0.29155754  0.94049675  1
  O2-  O255  1  0.32941079  0.78637637  0.26572546  1
  O2-  O256  1  0.32882468  0.78890433  0.59857081  1
  O2-  O257  1  0.32856268  0.78929495  0.93246080  1
  O2-  O258  1  0.82937723  0.30333386  0.26452060  1
  O2-  O259  1  0.83151694  0.31279717  0.60886551  1
  O2-  O260  1  0.83663560  0.29769164  0.93372421  1
  O2-  O261  1  0.83476689  0.78979956  0.26228837  1
  O2-  O262  1  0.84051752  0.79186458  0.60652526  1
  O2-  O263  1  0.84041223  0.79475416  0.93244713  1
  O2-  O264  1  0.41313644  0.05468697  0.06246048  1
  O2-  O265  1  0.41042441  0.05025366  0.39755465  1
  O2-  O266  1  0.41013995  0.04820364  0.73092751  1
  O2-  O267  1  0.41600958  0.53802152  0.06998694  1
  O2-  O268  1  0.41340390  0.55181982  0.39761158  1
  O2-  O269  1  0.41682430  0.55182677  0.72956361  1
  O2-  O270  1  0.92223353  0.04403111  0.06471015  1
  O2-  O271  1  0.92145762  0.03402046  0.39633688  1
  O2-  O272  1  0.91825635  0.03467277  0.73566639  1
  O2-  O273  1  0.91296526  0.53793750  0.06158558  1
  O2-  O274  1  0.92370770  0.54472959  0.39805394  1
  O2-  O275  1  0.91237356  0.54084702  0.73364791  1
  O2-  O276  1  0.28335505  0.16169293  0.06576542  1
  O2-  O277  1  0.28400397  0.16330356  0.39710771  1
  O2-  O278  1  0.28353167  0.15844405  0.73277813  1
  O2-  O279  1  0.28350782  0.66371891  0.06961977  1
  O2-  O280  1  0.28337398  0.66042397  0.40043640  1
  O2-  O281  1  0.28764165  0.66332697  0.73441248  1
  O2-  O282  1  0.79779265  0.17345398  0.06400819  1
  O2-  O283  1  0.80985269  0.17420308  0.39337988  1
  O2-  O284  1  0.80796969  0.17623987  0.72972260  1
  O2-  O285  1  0.80332601  0.66540512  0.05402361  1
  O2-  O286  1  0.79762165  0.67067867  0.39955591  1
  O2-  O287  1  0.79778972  0.66304505  0.73082411  1
