# generated using pymatgen
data_Ca2Al2SiO7
_symmetry_space_group_name_H-M   'P 1'
_cell_length_a   15.46026414
_cell_length_b   15.46101475
_cell_length_c   15.28535056
_cell_angle_alpha   90.00397911
_cell_angle_beta   90.00680559
_cell_angle_gamma   90.00174211
_symmetry_Int_Tables_number   1
_chemical_formula_structural   Ca2Al2SiO7
_chemical_formula_sum   'Ca48 Al48 Si24 O168'
_cell_volume   3653.67827905
_cell_formula_units_Z   24
loop_
 _symmetry_equiv_pos_site_id
 _symmetry_equiv_pos_as_xyz
  1  'x, y, z'
loop_
 _atom_type_symbol
 _atom_type_oxidation_number
  Ca2+  2.0
  Al0+  0.0
  Si0+  0.0
  O2-  -2.0
loop_
 _atom_site_type_symbol
 _atom_site_label
 _atom_site_symmetry_multiplicity
 _atom_site_fract_x
 _atom_site_fract_y
 _atom_site_fract_z
 _atom_site_occupancy
  Ca2+  Ca0  1  0.16428990  0.07371392  0.17486396  1
  Ca2+  Ca1  1  0.16692708  0.08025061  0.49644525  1
  Ca2+  Ca2  1  0.16891856  0.07357856  0.84001189  1
  Ca2+  Ca3  1  0.17595327  0.58675854  0.17021808  1
  Ca2+  Ca4  1  0.17857744  0.59288903  0.50313135  1
  Ca2+  Ca5  1  0.17660609  0.58595249  0.84183726  1
  Ca2+  Ca6  1  0.66632360  0.07693845  0.16676108  1
  Ca2+  Ca7  1  0.67284722  0.07671534  0.51166495  1
  Ca2+  Ca8  1  0.66828903  0.07151263  0.83634497  1
  Ca2+  Ca9  1  0.67194376  0.58211314  0.16660878  1
  Ca2+  Ca10  1  0.66196343  0.58824128  0.50291039  1
  Ca2+  Ca11  1  0.66959912  0.58099681  0.84328777  1
  Ca2+  Ca12  1  0.08651245  0.32701939  0.15755629  1
  Ca2+  Ca13  1  0.08276342  0.32464794  0.49280219  1
  Ca2+  Ca14  1  0.07774515  0.34420217  0.83611921  1
  Ca2+  Ca15  1  0.08589506  0.82730249  0.15867157  1
  Ca2+  Ca16  1  0.08824001  0.82419764  0.49543497  1
  Ca2+  Ca17  1  0.08536417  0.82214310  0.83430869  1
  Ca2+  Ca18  1  0.57210384  0.33619104  0.15951807  1
  Ca2+  Ca19  1  0.56889927  0.33452722  0.49511772  1
  Ca2+  Ca20  1  0.57244530  0.34223105  0.83154000  1
  Ca2+  Ca21  1  0.58246974  0.82862356  0.16184304  1
  Ca2+  Ca22  1  0.58137584  0.82692193  0.49979395  1
  Ca2+  Ca23  1  0.58009522  0.83009633  0.82446909  1
  Ca2+  Ca24  1  0.33413988  0.42287398  0.16684649  1
  Ca2+  Ca25  1  0.33882593  0.42533297  0.50282642  1
  Ca2+  Ca26  1  0.33368767  0.42686827  0.84103948  1
  Ca2+  Ca27  1  0.31898547  0.92159202  0.17406589  1
  Ca2+  Ca28  1  0.33079687  0.91565293  0.50110946  1
  Ca2+  Ca29  1  0.32977074  0.91239320  0.84017605  1
  Ca2+  Ca30  1  0.83398925  0.41751575  0.16249401  1
  Ca2+  Ca31  1  0.82876153  0.41816919  0.50541726  1
  Ca2+  Ca32  1  0.82647865  0.42308694  0.84744721  1
  Ca2+  Ca33  1  0.82895857  0.90461308  0.16515500  1
  Ca2+  Ca34  1  0.82733263  0.92268685  0.51028806  1
  Ca2+  Ca35  1  0.82413656  0.91255606  0.83956937  1
  Ca2+  Ca36  1  0.40696090  0.17770143  0.16377059  1
  Ca2+  Ca37  1  0.40616962  0.17878846  0.49331148  1
  Ca2+  Ca38  1  0.41509835  0.18109234  0.82941676  1
  Ca2+  Ca39  1  0.41945976  0.65676072  0.16533928  1
  Ca2+  Ca40  1  0.42327444  0.66548998  0.49881859  1
  Ca2+  Ca41  1  0.41913204  0.66744920  0.82338443  1
  Ca2+  Ca42  1  0.92325830  0.17179556  0.16101218  1
  Ca2+  Ca43  1  0.91966319  0.16409650  0.49532136  1
  Ca2+  Ca44  1  0.91265037  0.17039235  0.83292533  1
  Ca2+  Ca45  1  0.93078896  0.66824818  0.15514429  1
  Ca2+  Ca46  1  0.93202684  0.66642218  0.49466150  1
  Ca2+  Ca47  1  0.92636341  0.66413852  0.83497991  1
  Al0+  Al48  1  -0.00088234  -0.00099948  -0.00142110  1
  Al0+  Al49  1  -0.00238422  0.00016525  0.33383565  1
  Al0+  Al50  1  0.00071538  0.00174161  0.67169881  1
  Al0+  Al51  1  0.00184492  0.49777002  -0.00115143  1
  Al0+  Al52  1  -0.00135450  0.50118391  0.33087081  1
  Al0+  Al53  1  -0.00023624  0.49848146  0.65961081  1
  Al0+  Al54  1  0.50209928  0.00056897  0.00454772  1
  Al0+  Al55  1  0.49998147  0.00098158  0.33837097  1
  Al0+  Al56  1  0.49943549  0.00162905  0.66690972  1
  Al0+  Al57  1  0.50087266  0.49923020  0.00245208  1
  Al0+  Al58  1  0.50032163  0.49948650  0.32911308  1
  Al0+  Al59  1  0.49902566  0.50057433  0.66244584  1
  Al0+  Al60  1  0.25201327  0.25121494  -0.00551723  1
  Al0+  Al61  1  0.24685455  0.24999727  0.32722599  1
  Al0+  Al62  1  0.24680531  0.24999835  0.66345259  1
  Al0+  Al63  1  0.25229279  0.75159115  0.00555741  1
  Al0+  Al64  1  0.25145238  0.75010978  0.33799958  1
  Al0+  Al65  1  0.25116396  0.75025563  0.66337984  1
  Al0+  Al66  1  0.74979487  0.24737965  0.00002769  1
  Al0+  Al67  1  0.74673838  0.25009866  0.33476043  1
  Al0+  Al68  1  0.74965409  0.25083487  0.67063498  1
  Al0+  Al69  1  0.75099832  0.74973475  0.00499678  1
  Al0+  Al70  1  0.74903749  0.74785482  0.33220994  1
  Al0+  Al71  1  0.75195132  0.75001643  0.66666166  1
  Al0+  Al72  1  0.92903648  0.31983350  0.98621420  1
  Al0+  Al73  1  0.17932888  0.42758744  0.01360455  1
  Al0+  Al74  1  0.31991356  0.07317089  0.34830156  1
  Al0+  Al75  1  0.42804985  0.32048803  0.65179536  1
  Al0+  Al76  1  0.07499786  0.67843137  0.98534830  1
  Al0+  Al77  1  0.57309656  0.67928995  0.65375451  1
  Al0+  Al78  1  0.57038643  0.68024596  0.31666028  1
  Al0+  Al79  1  0.31999508  0.56985279  0.67933437  1
  Al0+  Al80  1  0.32194945  0.56857482  0.34959476  1
  Al0+  Al81  1  0.82276131  0.07242895  0.68402243  1
  Al0+  Al82  1  0.17877913  0.93003392  0.01242631  1
  Al0+  Al83  1  0.17680770  0.92876604  0.35064946  1
  Al0+  Al84  1  0.92796144  0.82083524  0.98419867  1
  Al0+  Al85  1  0.67858212  0.42699543  0.01540855  1
  Al0+  Al86  1  0.06791763  0.17918478  0.31917444  1
  Al0+  Al87  1  0.42799577  0.82407438  0.65185395  1
  Al0+  Al88  1  0.07344963  0.68001594  0.31847257  1
  Al0+  Al89  1  0.07058623  0.67859554  0.65231446  1
  Al0+  Al90  1  0.32148336  0.57226731  0.01519627  1
  Al0+  Al91  1  0.82252241  0.57107976  0.01503555  1
  Al0+  Al92  1  0.67843448  0.92762392  0.68215334  1
  Al0+  Al93  1  0.42886039  0.31951235  0.31758569  1
  Al0+  Al94  1  0.67910769  0.92844105  0.01588665  1
  Al0+  Al95  1  0.43034296  0.32126126  0.98405866  1
  Si0+  Si96  1  0.92417302  0.32227353  0.31737410  1
  Si0+  Si97  1  0.92770153  0.82107628  0.31888629  1
  Si0+  Si98  1  0.82224326  0.07140090  0.01889001  1
  Si0+  Si99  1  0.42917646  0.82448375  0.31573829  1
  Si0+  Si100  1  0.57047050  0.67982953  0.98689559  1
  Si0+  Si101  1  0.17505662  0.42825602  0.34951754  1
  Si0+  Si102  1  0.57361129  0.17663239  0.31707827  1
  Si0+  Si103  1  0.67968325  0.42931352  0.34969561  1
  Si0+  Si104  1  0.57216953  0.17964949  0.65068492  1
  Si0+  Si105  1  0.82117706  0.57115300  0.35033506  1
  Si0+  Si106  1  0.18070956  0.92919281  0.68242064  1
  Si0+  Si107  1  0.57232220  0.17539185  0.98228621  1
  Si0+  Si108  1  0.92941445  0.82346797  0.65107269  1
  Si0+  Si109  1  0.81832849  0.07214986  0.34762961  1
  Si0+  Si110  1  0.92748606  0.31996804  0.65123964  1
  Si0+  Si111  1  0.07263026  0.17714627  0.98103242  1
  Si0+  Si112  1  0.06986833  0.17695575  0.65123250  1
  Si0+  Si113  1  0.32253259  0.07245963  0.01407825  1
  Si0+  Si114  1  0.17649637  0.42594156  0.68115075  1
  Si0+  Si115  1  0.67912994  0.43117639  0.68003997  1
  Si0+  Si116  1  0.82436656  0.56993934  0.67949159  1
  Si0+  Si117  1  0.32006858  0.07483071  0.68172610  1
  Si0+  Si118  1  0.67907292  0.92661577  0.34966822  1
  Si0+  Si119  1  0.43090171  0.82305674  0.98850344  1
  O2-  O120  1  0.25096370  0.00736121  0.05814290  1
  O2-  O121  1  0.25065117  -0.00036853  0.40072811  1
  O2-  O122  1  0.25465704  -0.00153500  0.72378641  1
  O2-  O123  1  0.24727032  0.50204462  0.06485371  1
  O2-  O124  1  0.24299453  0.49668062  0.39539314  1
  O2-  O125  1  0.24452143  0.49528867  0.72417084  1
  O2-  O126  1  0.75621235  0.00042235  0.06383478  1
  O2-  O127  1  0.74835228  0.00032901  0.39018273  1
  O2-  O128  1  0.75211705  -0.00158689  0.73215360  1
  O2-  O129  1  0.75227508  0.49707650  0.06587995  1
  O2-  O130  1  0.75160095  0.49880219  0.39353240  1
  O2-  O131  1  0.74835819  0.50419481  0.72117574  1
  O2-  O132  1  -0.00469483  0.25637715  0.27390275  1
  O2-  O133  1  -0.00291373  0.24739882  0.60997911  1
  O2-  O134  1  0.00517263  0.24734857  0.93676843  1
  O2-  O135  1  -0.00005650  0.75687690  0.27466228  1
  O2-  O136  1  -0.00364328  0.75437077  0.60523981  1
  O2-  O137  1  0.00071369  0.74899974  0.93524677  1
  O2-  O138  1  0.50068579  0.24030445  0.27302559  1
  O2-  O139  1  0.50131116  0.24441359  0.60419685  1
  O2-  O140  1  0.50653921  0.24694326  0.93813304  1
  O2-  O141  1  0.49602533  0.75495823  0.26965357  1
  O2-  O142  1  0.50244289  0.75301889  0.60379286  1
  O2-  O143  1  0.49992091  0.75090567  0.94522795  1
  O2-  O144  1  0.07078884  0.17673239  0.08667154  1
  O2-  O145  1  0.06440788  0.18007327  0.43299074  1
  O2-  O146  1  0.07235100  0.17613449  0.75579270  1
  O2-  O147  1  0.07559868  0.68228474  0.09890258  1
  O2-  O148  1  0.06985530  0.67966376  0.43213147  1
  O2-  O149  1  0.07031042  0.67776299  0.76481371  1
  O2-  O150  1  0.57020521  0.17297271  0.08798446  1
  O2-  O151  1  0.57993879  0.18093698  0.42246703  1
  O2-  O152  1  0.57201565  0.18198460  0.75606430  1
  O2-  O153  1  0.56983989  0.68091594  0.09218723  1
  O2-  O154  1  0.57283073  0.68253696  0.42958025  1
  O2-  O155  1  0.57230697  0.67701697  0.76749282  1
  O2-  O156  1  0.17426430  0.42849366  0.24441073  1
  O2-  O157  1  0.17564727  0.42274507  0.57549260  1
  O2-  O158  1  0.18257986  0.42774030  0.89949977  1
  O2-  O159  1  0.17591610  0.93125154  0.23717202  1
  O2-  O160  1  0.17799535  0.93164728  0.57758974  1
  O2-  O161  1  0.18272912  0.92987765  0.89865487  1
  O2-  O162  1  0.68201957  0.42749195  0.24528254  1
  O2-  O163  1  0.68186195  0.42861020  0.57450626  1
  O2-  O164  1  0.67766294  0.43153705  0.90106847  1
  O2-  O165  1  0.68024457  0.92641008  0.24458649  1
  O2-  O166  1  0.68157071  0.93004711  0.56781310  1
  O2-  O167  1  0.67614327  0.92993413  0.90336924  1
  O2-  O168  1  0.43062601  0.31886453  0.09701335  1
  O2-  O169  1  0.43183182  0.31994009  0.43114928  1
  O2-  O170  1  0.43006728  0.32067567  0.76455819  1
  O2-  O171  1  0.43334120  0.82589661  0.09339713  1
  O2-  O172  1  0.43273976  0.82525593  0.42124020  1
  O2-  O173  1  0.42664138  0.82222472  0.76609692  1
  O2-  O174  1  0.92784474  0.31478141  0.09932268  1
  O2-  O175  1  0.92195429  0.32002434  0.42364204  1
  O2-  O176  1  0.92760712  0.32252389  0.75573618  1
  O2-  O177  1  0.92900371  0.81948039  0.09819254  1
  O2-  O178  1  0.92523022  0.81883368  0.42480191  1
  O2-  O179  1  0.93019580  0.82269799  0.75608441  1
  O2-  O180  1  0.31786673  0.07148516  0.23466694  1
  O2-  O181  1  0.31521087  0.07857384  0.57710593  1
  O2-  O182  1  0.32296897  0.06987028  0.90784114  1
  O2-  O183  1  0.32293995  0.56601233  0.23704977  1
  O2-  O184  1  0.32072147  0.56796402  0.56613024  1
  O2-  O185  1  0.32376455  0.57265701  0.90127840  1
  O2-  O186  1  0.81667669  0.07492378  0.24305022  1
  O2-  O187  1  0.82162944  0.07217244  0.56942716  1
  O2-  O188  1  0.81943978  0.07241267  0.91354957  1
  O2-  O189  1  0.82090825  0.57124623  0.24595473  1
  O2-  O190  1  0.82639994  0.56503389  0.57400704  1
  O2-  O191  1  0.81877843  0.57051759  0.90057403  1
  O2-  O192  1  0.03382485  0.08353007  0.26517375  1
  O2-  O193  1  0.04210964  0.08552159  0.60262126  1
  O2-  O194  1  0.04463059  0.08455648  0.93423253  1
  O2-  O195  1  0.04022105  0.58333099  0.26630262  1
  O2-  O196  1  0.03847221  0.58300576  0.59561677  1
  O2-  O197  1  0.04904433  0.57906029  0.93381307  1
  O2-  O198  1  0.55375377  0.08033403  0.27431894  1
  O2-  O199  1  0.55113647  0.08491401  0.60559290  1
  O2-  O200  1  0.54265725  0.08307090  0.93487779  1
  O2-  O201  1  0.54127162  0.58334485  0.26362852  1
  O2-  O202  1  0.54297317  0.58250229  0.59762162  1
  O2-  O203  1  0.54387379  0.58780829  0.94008932  1
  O2-  O204  1  0.16314337  0.20713052  0.26255683  1
  O2-  O205  1  0.15951631  0.20700756  0.60076680  1
  O2-  O206  1  0.16682259  0.19987772  0.93500461  1
  O2-  O207  1  0.17159671  0.70876549  0.26805499  1
  O2-  O208  1  0.16571642  0.71212171  0.59813173  1
  O2-  O209  1  0.17291720  0.71267718  0.93345796  1
  O2-  O210  1  0.66497884  0.20660638  0.26792241  1
  O2-  O211  1  0.66566977  0.20824736  0.60457888  1
  O2-  O212  1  0.66714381  0.19620992  0.93764620  1
  O2-  O213  1  0.66757631  0.71083521  0.26322170  1
  O2-  O214  1  0.67303931  0.70392618  0.59987691  1
  O2-  O215  1  0.66274421  0.70732933  0.94143032  1
  O2-  O216  1  0.07831328  0.44500785  0.06428070  1
  O2-  O217  1  0.07970549  0.45078011  0.39530677  1
  O2-  O218  1  0.08142123  0.45185757  0.72448873  1
  O2-  O219  1  0.08134948  0.95861942  0.06529508  1
  O2-  O220  1  0.07784574  0.95916115  0.40307342  1
  O2-  O221  1  0.09050215  0.96025306  0.73087042  1
  O2-  O222  1  0.58268652  0.45861747  0.07000679  1
  O2-  O223  1  0.58869977  0.45962964  0.39649693  1
  O2-  O224  1  0.58702270  0.45806433  0.72610150  1
  O2-  O225  1  0.58461352  0.96278180  0.07295806  1
  O2-  O226  1  0.58726929  0.95239338  0.39734916  1
  O2-  O227  1  0.57950210  0.95742811  0.73406317  1
  O2-  O228  1  0.21044164  0.32865358  0.06500711  1
  O2-  O229  1  0.20047134  0.33369270  0.39372852  1
  O2-  O230  1  0.19984710  0.33209072  0.72778188  1
  O2-  O231  1  0.21313154  0.83713855  0.06971930  1
  O2-  O232  1  0.20686525  0.83142645  0.40442970  1
  O2-  O233  1  0.20788892  0.83725875  0.72882468  1
  O2-  O234  1  0.70377728  0.32691336  0.06618304  1
  O2-  O235  1  0.70621194  0.33731511  0.39915789  1
  O2-  O236  1  0.70766275  0.34054523  0.72866058  1
  O2-  O237  1  0.70865829  0.83283212  0.07189655  1
  O2-  O238  1  0.71004843  0.83571992  0.39698840  1
  O2-  O239  1  0.70639500  0.82843654  0.73430741  1
  O2-  O240  1  0.46594760  0.41311796  0.26362927  1
  O2-  O241  1  0.46271052  0.41469666  0.59626267  1
  O2-  O242  1  0.46396546  0.41775204  0.93086425  1
  O2-  O243  1  0.45596673  0.91857188  0.27074366  1
  O2-  O244  1  0.45258122  0.92417499  0.59930990  1
  O2-  O245  1  0.45952757  0.91454258  0.94026200  1
  O2-  O246  1  0.94541811  0.41725037  0.27374216  1
  O2-  O247  1  0.95568202  0.40946424  0.59897442  1
  O2-  O248  1  0.95670144  0.41614401  0.92974087  1
  O2-  O249  1  0.94593233  0.91667428  0.27452918  1
  O2-  O250  1  0.95594606  0.91802165  0.60642706  1
  O2-  O251  1  0.95296251  0.92041421  0.93189822  1
  O2-  O252  1  0.33176658  0.29173071  0.26400821  1
  O2-  O253  1  0.33073668  0.28959037  0.59877552  1
  O2-  O254  1  0.33534427  0.28957824  0.92684827  1
  O2-  O255  1  0.33410901  0.80031249  0.27351654  1
  O2-  O256  1  0.33125253  0.79475365  0.59670104  1
  O2-  O257  1  0.33876676  0.79716046  0.94174887  1
  O2-  O258  1  0.83147988  0.29315077  0.27166715  1
  O2-  O259  1  0.83507140  0.29298579  0.60343394  1
  O2-  O260  1  0.83224242  0.28751696  0.93180010  1
  O2-  O261  1  0.83564516  0.79119280  0.27205705  1
  O2-  O262  1  0.83555199  0.80008700  0.60435515  1
  O2-  O263  1  0.82866588  0.79120258  0.93311966  1
  O2-  O264  1  0.41464464  0.04641493  0.06197093  1
  O2-  O265  1  0.42050387  0.05063685  0.40125394  1
  O2-  O266  1  0.41449892  0.05490501  0.72655858  1
  O2-  O267  1  0.41849842  0.53980379  0.06805192  1
  O2-  O268  1  0.41899010  0.53427889  0.40153854  1
  O2-  O269  1  0.41730503  0.53846967  0.73185904  1
  O2-  O270  1  0.91722507  0.04940241  0.06296169  1
  O2-  O271  1  0.90956520  0.04494272  0.39619647  1
  O2-  O272  1  0.92220757  0.04901189  0.73673748  1
  O2-  O273  1  0.92111297  0.54260555  0.06637394  1
  O2-  O274  1  0.91319215  0.54360714  0.39858920  1
  O2-  O275  1  0.91382656  0.53558907  0.72709759  1
  O2-  O276  1  0.29889381  0.16712597  0.05703452  1
  O2-  O277  1  0.28618660  0.17115152  0.40011170  1
  O2-  O278  1  0.28558475  0.16392206  0.73128366  1
  O2-  O279  1  0.29778948  0.67064548  0.07016346  1
  O2-  O280  1  0.29495939  0.66663341  0.40260024  1
  O2-  O281  1  0.29061722  0.66774228  0.73130838  1
  O2-  O282  1  0.79381007  0.16324398  0.06685654  1
  O2-  O283  1  0.79035368  0.16352406  0.39731733  1
  O2-  O284  1  0.79271910  0.17086521  0.73663548  1
  O2-  O285  1  0.79204161  0.66698247  0.07089600  1
  O2-  O286  1  0.79083116  0.66209927  0.39852859  1
  O2-  O287  1  0.80436343  0.66415004  0.72392110  1
