# generated using pymatgen
data_Ca2Al2SiO7
_symmetry_space_group_name_H-M   'P 1'
_cell_length_a   15.45500398
_cell_length_b   15.45445861
_cell_length_c   15.28146394
_cell_angle_alpha   90.00501629
_cell_angle_beta   89.99082973
_cell_angle_gamma   90.00106466
_symmetry_Int_Tables_number   1
_chemical_formula_structural   Ca2Al2SiO7
_chemical_formula_sum   'Ca48 Al48 Si24 O168'
_cell_volume   3649.95802879
_cell_formula_units_Z   24
loop_
 _symmetry_equiv_pos_site_id
 _symmetry_equiv_pos_as_xyz
  1  'x, y, z'
loop_
 _atom_type_symbol
 _atom_type_oxidation_number
  Ca2+  2.0
  Al0+  0.0
  Si0+  0.0
  O2-  -2.0
loop_
 _atom_site_type_symbol
 _atom_site_label
 _atom_site_symmetry_multiplicity
 _atom_site_fract_x
 _atom_site_fract_y
 _atom_site_fract_z
 _atom_site_occupancy
  Ca2+  Ca0  1  0.18075541  0.07688372  0.17350409  1
  Ca2+  Ca1  1  0.17613227  0.07227001  0.50759232  1
  Ca2+  Ca2  1  0.17593762  0.08014377  0.83428251  1
  Ca2+  Ca3  1  0.16248268  0.57764793  0.16963464  1
  Ca2+  Ca4  1  0.17282910  0.58804083  0.50336427  1
  Ca2+  Ca5  1  0.17632381  0.57882013  0.83512887  1
  Ca2+  Ca6  1  0.66171601  0.07524760  0.16579988  1
  Ca2+  Ca7  1  0.66957392  0.08302817  0.50996652  1
  Ca2+  Ca8  1  0.66656554  0.08240128  0.83270726  1
  Ca2+  Ca9  1  0.67601010  0.58359791  0.17062792  1
  Ca2+  Ca10  1  0.66204895  0.57227644  0.50599186  1
  Ca2+  Ca11  1  0.66762123  0.58312683  0.83762290  1
  Ca2+  Ca12  1  0.07950832  0.33481504  0.15495799  1
  Ca2+  Ca13  1  0.07600069  0.33417034  0.49896090  1
  Ca2+  Ca14  1  0.07354786  0.33854001  0.83150528  1
  Ca2+  Ca15  1  0.08705383  0.82830041  0.16903759  1
  Ca2+  Ca16  1  0.08500650  0.83443708  0.49574789  1
  Ca2+  Ca17  1  0.07707438  0.83754979  0.82429082  1
  Ca2+  Ca18  1  0.57838023  0.33304356  0.16204250  1
  Ca2+  Ca19  1  0.58440803  0.33170224  0.50353661  1
  Ca2+  Ca20  1  0.57410259  0.33060884  0.82109879  1
  Ca2+  Ca21  1  0.57550008  0.83267361  0.15609245  1
  Ca2+  Ca22  1  0.57728826  0.82591200  0.49653176  1
  Ca2+  Ca23  1  0.58590882  0.82419701  0.83375391  1
  Ca2+  Ca24  1  0.32883347  0.41290123  0.16497547  1
  Ca2+  Ca25  1  0.33545140  0.42354822  0.51148509  1
  Ca2+  Ca26  1  0.33615619  0.41716237  0.83747202  1
  Ca2+  Ca27  1  0.33905770  0.92358615  0.17451969  1
  Ca2+  Ca28  1  0.32664710  0.91883675  0.50541659  1
  Ca2+  Ca29  1  0.34116515  0.92827355  0.83710087  1
  Ca2+  Ca30  1  0.82980944  0.42608285  0.17215223  1
  Ca2+  Ca31  1  0.82300303  0.41989123  0.50540264  1
  Ca2+  Ca32  1  0.82788219  0.41618011  0.83834536  1
  Ca2+  Ca33  1  0.82337037  0.91334757  0.16686271  1
  Ca2+  Ca34  1  0.83708462  0.92276077  0.51094587  1
  Ca2+  Ca35  1  0.83016441  0.92055680  0.83517442  1
  Ca2+  Ca36  1  0.41265275  0.16770599  0.15923430  1
  Ca2+  Ca37  1  0.41465836  0.16428240  0.50175364  1
  Ca2+  Ca38  1  0.41460269  0.17410294  0.82721893  1
  Ca2+  Ca39  1  0.42261975  0.68200795  0.15748433  1
  Ca2+  Ca40  1  0.41892114  0.66797879  0.49782215  1
  Ca2+  Ca41  1  0.42816162  0.66539899  0.82660518  1
  Ca2+  Ca42  1  0.92155260  0.17614832  0.15860855  1
  Ca2+  Ca43  1  0.91041610  0.17157713  0.50217306  1
  Ca2+  Ca44  1  0.91295889  0.17697137  0.82311138  1
  Ca2+  Ca45  1  0.91926133  0.65653576  0.16398535  1
  Ca2+  Ca46  1  0.92244838  0.67100595  0.49505206  1
  Ca2+  Ca47  1  0.91531932  0.67092601  0.82830028  1
  Al0+  Al48  1  0.00260251  0.00026007  0.00212953  1
  Al0+  Al49  1  0.00039993  0.00058183  0.33220177  1
  Al0+  Al50  1  -0.00118693  0.00125560  0.67108615  1
  Al0+  Al51  1  0.00041436  0.49971956  0.00150434  1
  Al0+  Al52  1  -0.00132845  0.50155911  0.33455838  1
  Al0+  Al53  1  -0.00051134  0.50132284  0.66026733  1
  Al0+  Al54  1  0.50137472  0.00028554  0.00405506  1
  Al0+  Al55  1  0.50152729  0.00199973  0.33450306  1
  Al0+  Al56  1  0.49992199  -0.00114430  0.66689181  1
  Al0+  Al57  1  0.49998676  0.50033661  -0.00400970  1
  Al0+  Al58  1  0.50023048  0.49801666  0.33336450  1
  Al0+  Al59  1  0.50036036  0.49957983  0.66730350  1
  Al0+  Al60  1  0.24931886  0.24895060  0.00391355  1
  Al0+  Al61  1  0.24948806  0.24943685  0.33737846  1
  Al0+  Al62  1  0.24712156  0.24961042  0.66518284  1
  Al0+  Al63  1  0.24989038  0.75120216  -0.00533307  1
  Al0+  Al64  1  0.24854041  0.74957218  0.32602336  1
  Al0+  Al65  1  0.24942067  0.74791265  0.67712166  1
  Al0+  Al66  1  0.75083508  0.25075860  -0.00170018  1
  Al0+  Al67  1  0.74798314  0.25028150  0.33231121  1
  Al0+  Al68  1  0.74839872  0.25068587  0.66685144  1
  Al0+  Al69  1  0.75126689  0.75015027  0.00597213  1
  Al0+  Al70  1  0.75149842  0.75015324  0.33777764  1
  Al0+  Al71  1  0.75083923  0.74910476  0.65493625  1
  Al0+  Al72  1  0.81909409  0.07117510  0.67997572  1
  Al0+  Al73  1  0.32261698  0.07127844  0.68376639  1
  Al0+  Al74  1  0.18129155  0.43185882  0.01215921  1
  Al0+  Al75  1  0.17966767  0.92731613  0.34750734  1
  Al0+  Al76  1  0.06925607  0.67965817  0.31857558  1
  Al0+  Al77  1  0.57118943  0.67847634  0.65108825  1
  Al0+  Al78  1  0.93039987  0.82192554  0.65418712  1
  Al0+  Al79  1  0.68045868  0.43022472  0.68251639  1
  Al0+  Al80  1  0.42635482  0.32038049  0.65084849  1
  Al0+  Al81  1  0.31976466  0.06902600  0.01444586  1
  Al0+  Al82  1  0.43101393  0.82027607  0.32126934  1
  Al0+  Al83  1  0.42824197  0.31937480  0.98796886  1
  Al0+  Al84  1  0.57312818  0.68002146  0.98630610  1
  Al0+  Al85  1  0.32170260  0.56936701  0.68030047  1
  Al0+  Al86  1  0.67779418  0.42842526  0.34913190  1
  Al0+  Al87  1  0.17863606  0.92800427  0.68362326  1
  Al0+  Al88  1  0.82257543  0.57202454  0.35234024  1
  Al0+  Al89  1  0.32323857  0.07213330  0.35116250  1
  Al0+  Al90  1  0.56973517  0.17752265  0.65192702  1
  Al0+  Al91  1  0.68199569  0.93063949  0.01239324  1
  Al0+  Al92  1  0.42849516  0.82401135  0.98297795  1
  Al0+  Al93  1  0.92982912  0.32151125  0.98674061  1
  Al0+  Al94  1  0.82001016  0.56977681  0.01190230  1
  Al0+  Al95  1  0.92790332  0.32238865  0.65135478  1
  Si0+  Si96  1  0.07055248  0.67770388  0.98392366  1
  Si0+  Si97  1  0.07167122  0.17767039  0.98337026  1
  Si0+  Si98  1  0.32438309  0.57391166  0.01757683  1
  Si0+  Si99  1  0.82277665  0.57299262  0.68182924  1
  Si0+  Si100  1  0.67900600  0.92941379  0.34925318  1
  Si0+  Si101  1  0.17784602  0.42811552  0.34845962  1
  Si0+  Si102  1  0.31962685  0.56964593  0.34402680  1
  Si0+  Si103  1  0.57150050  0.17982386  0.31672559  1
  Si0+  Si104  1  0.17478884  0.42787760  0.68127709  1
  Si0+  Si105  1  0.07364941  0.67863129  0.65101836  1
  Si0+  Si106  1  0.42649813  0.82062913  0.65142550  1
  Si0+  Si107  1  0.67809479  0.92444270  0.68096793  1
  Si0+  Si108  1  0.57324184  0.17783906  0.98415900  1
  Si0+  Si109  1  0.42669132  0.32163837  0.31808552  1
  Si0+  Si110  1  0.67584487  0.42630987  0.01578796  1
  Si0+  Si111  1  0.57298634  0.67597522  0.31659468  1
  Si0+  Si112  1  0.93003499  0.82173351  0.98723592  1
  Si0+  Si113  1  0.07028068  0.17785525  0.64873440  1
  Si0+  Si114  1  0.82451672  0.07473021  0.01708460  1
  Si0+  Si115  1  0.07198819  0.17937226  0.31807965  1
  Si0+  Si116  1  0.82077472  0.07070413  0.34597389  1
  Si0+  Si117  1  0.17533882  0.92555141  0.01897842  1
  Si0+  Si118  1  0.92651551  0.82492857  0.31481814  1
  Si0+  Si119  1  0.92910611  0.31973329  0.31772702  1
  O2-  O120  1  0.24892798  -0.00993375  0.06104836  1
  O2-  O121  1  0.25220437  -0.00210230  0.39798275  1
  O2-  O122  1  0.25297899  -0.00299593  0.73402154  1
  O2-  O123  1  0.25573081  0.50521896  0.06263685  1
  O2-  O124  1  0.25106198  0.49708953  0.38891226  1
  O2-  O125  1  0.24824565  0.49174153  0.72449255  1
  O2-  O126  1  0.75588320  0.00626853  0.06164010  1
  O2-  O127  1  0.75440267  -0.00368627  0.38937959  1
  O2-  O128  1  0.74480742  -0.00464852  0.72505920  1
  O2-  O129  1  0.74436702  0.49572089  0.05902076  1
  O2-  O130  1  0.74676576  0.50311980  0.39985123  1
  O2-  O131  1  0.75595806  0.50454227  0.72846923  1
  O2-  O132  1  0.00231396  0.25147097  0.27441263  1
  O2-  O133  1  0.00304368  0.24821292  0.60359914  1
  O2-  O134  1  -0.00077419  0.24233047  0.93923045  1
  O2-  O135  1  -0.00737943  0.75312968  0.27131323  1
  O2-  O136  1  0.00712840  0.74957907  0.60748946  1
  O2-  O137  1  0.00393774  0.75406231  0.94429818  1
  O2-  O138  1  0.49736916  0.24918846  0.27681248  1
  O2-  O139  1  0.49542706  0.24608461  0.59953645  1
  O2-  O140  1  0.50628363  0.24855051  0.94171634  1
  O2-  O141  1  0.50734439  0.74747436  0.27289013  1
  O2-  O142  1  0.49541756  0.75298603  0.60552808  1
  O2-  O143  1  0.49731673  0.74772430  0.93527009  1
  O2-  O144  1  0.07008788  0.17942639  0.08970640  1
  O2-  O145  1  0.07008181  0.18074970  0.42276547  1
  O2-  O146  1  0.06895613  0.17885402  0.75440883  1
  O2-  O147  1  0.06893674  0.67586480  0.08917734  1
  O2-  O148  1  0.07048293  0.68016633  0.43140134  1
  O2-  O149  1  0.07060929  0.67532462  0.75672094  1
  O2-  O150  1  0.57372697  0.17868299  0.09061258  1
  O2-  O151  1  0.57602602  0.17885710  0.42098106  1
  O2-  O152  1  0.57109399  0.18011718  0.76547261  1
  O2-  O153  1  0.57334885  0.68279278  0.10045961  1
  O2-  O154  1  0.56915745  0.67530553  0.42214627  1
  O2-  O155  1  0.57378135  0.68061137  0.76396889  1
  O2-  O156  1  0.17737396  0.42709679  0.24321839  1
  O2-  O157  1  0.17299069  0.43127474  0.57507589  1
  O2-  O158  1  0.17962448  0.43456801  0.89947183  1
  O2-  O159  1  0.17992414  0.93007832  0.23381261  1
  O2-  O160  1  0.17934324  0.92778166  0.56985049  1
  O2-  O161  1  0.16803835  0.92901098  0.91421643  1
  O2-  O162  1  0.67934161  0.42647725  0.23508796  1
  O2-  O163  1  0.68132724  0.43047259  0.56940746  1
  O2-  O164  1  0.67770088  0.42475869  0.91064760  1
  O2-  O165  1  0.67848730  0.93114853  0.24387519  1
  O2-  O166  1  0.68008518  0.92534861  0.57483096  1
  O2-  O167  1  0.68600042  0.92958349  0.89964686  1
  O2-  O168  1  0.42863290  0.31725814  0.10205965  1
  O2-  O169  1  0.42521159  0.32418642  0.42241647  1
  O2-  O170  1  0.42782749  0.32028729  0.76451899  1
  O2-  O171  1  0.43115505  0.82408258  0.09729489  1
  O2-  O172  1  0.43178423  0.81672042  0.43444616  1
  O2-  O173  1  0.42900408  0.81976784  0.75670027  1
  O2-  O174  1  0.93240235  0.32039686  0.10067929  1
  O2-  O175  1  0.92912607  0.31720806  0.42266814  1
  O2-  O176  1  0.93036580  0.32286622  0.76451545  1
  O2-  O177  1  0.93008954  0.82208061  0.09239286  1
  O2-  O178  1  0.92816908  0.82859729  0.42000513  1
  O2-  O179  1  0.92883632  0.81921969  0.76795039  1
  O2-  O180  1  0.32171453  0.07368566  0.23723576  1
  O2-  O181  1  0.32042679  0.06897602  0.57032779  1
  O2-  O182  1  0.31773041  0.07113873  0.90206124  1
  O2-  O183  1  0.31839393  0.56674286  0.23900398  1
  O2-  O184  1  0.31848505  0.57141241  0.56614956  1
  O2-  O185  1  0.32300376  0.57220987  0.91223354  1
  O2-  O186  1  0.81902402  0.07171548  0.24065671  1
  O2-  O187  1  0.81884863  0.06933814  0.56600275  1
  O2-  O188  1  0.82504801  0.07458624  0.91198330  1
  O2-  O189  1  0.82337005  0.56776440  0.23823014  1
  O2-  O190  1  0.82269128  0.57099726  0.57649744  1
  O2-  O191  1  0.82083166  0.57067229  0.89897614  1
  O2-  O192  1  0.04286448  0.08855706  0.26896770  1
  O2-  O193  1  0.04085804  0.08553187  0.60277228  1
  O2-  O194  1  0.05035393  0.08241276  0.93901285  1
  O2-  O195  1  0.03839850  0.58193749  0.26411741  1
  O2-  O196  1  0.04738236  0.58704189  0.60077936  1
  O2-  O197  1  0.03743512  0.58868733  0.93535338  1
  O2-  O198  1  0.54529570  0.08775536  0.26831049  1
  O2-  O199  1  0.54722152  0.07678310  0.59918029  1
  O2-  O200  1  0.54771125  0.08440282  0.93987344  1
  O2-  O201  1  0.54648296  0.58263718  0.27034536  1
  O2-  O202  1  0.53712414  0.58322426  0.59730879  1
  O2-  O203  1  0.54897080  0.58050926  0.93404394  1
  O2-  O204  1  0.16411691  0.20758190  0.27081659  1
  O2-  O205  1  0.16318500  0.20227112  0.60079585  1
  O2-  O206  1  0.16309677  0.20833767  0.93761924  1
  O2-  O207  1  0.16401168  0.70884427  0.25949548  1
  O2-  O208  1  0.16854919  0.70265411  0.60684970  1
  O2-  O209  1  0.16390145  0.69937601  0.93702968  1
  O2-  O210  1  0.66182714  0.20925306  0.26581994  1
  O2-  O211  1  0.66697299  0.20941703  0.59782313  1
  O2-  O212  1  0.66817744  0.19928710  0.93928239  1
  O2-  O213  1  0.66920116  0.70002386  0.27528445  1
  O2-  O214  1  0.66545936  0.70854881  0.59206794  1
  O2-  O215  1  0.67111159  0.71305818  0.93459809  1
  O2-  O216  1  0.08617197  0.46455220  0.06906345  1
  O2-  O217  1  0.08697627  0.45790986  0.39586496  1
  O2-  O218  1  0.08294669  0.45965045  0.72790107  1
  O2-  O219  1  0.08358877  0.95458072  0.06891112  1
  O2-  O220  1  0.07996611  0.95689004  0.39811727  1
  O2-  O221  1  0.08151584  0.96077660  0.73708904  1
  O2-  O222  1  0.58172432  0.45088919  0.06171278  1
  O2-  O223  1  0.57788747  0.45370290  0.40141381  1
  O2-  O224  1  0.58406768  0.46102848  0.73526875  1
  O2-  O225  1  0.58740243  0.96251252  0.07038402  1
  O2-  O226  1  0.59003551  0.96206906  0.39809285  1
  O2-  O227  1  0.58426537  0.94677707  0.72682901  1
  O2-  O228  1  0.20944472  0.33528562  0.06873086  1
  O2-  O229  1  0.20224386  0.33624495  0.39672091  1
  O2-  O230  1  0.19248956  0.33229696  0.72497722  1
  O2-  O231  1  0.19616907  0.82885120  0.06062320  1
  O2-  O232  1  0.20613219  0.82713407  0.39744124  1
  O2-  O233  1  0.19897596  0.82843134  0.73720651  1
  O2-  O234  1  0.70213158  0.33257188  0.06255209  1
  O2-  O235  1  0.70973785  0.33018496  0.40085433  1
  O2-  O236  1  0.71154293  0.33419214  0.73606531  1
  O2-  O237  1  0.71515366  0.83712596  0.07159097  1
  O2-  O238  1  0.70089922  0.83600423  0.39563233  1
  O2-  O239  1  0.70886066  0.83155276  0.72496399  1
  O2-  O240  1  0.45515805  0.41266783  0.26851366  1
  O2-  O241  1  0.45848068  0.41800369  0.59864117  1
  O2-  O242  1  0.45286806  0.41763575  0.93522801  1
  O2-  O243  1  0.46294089  0.91795439  0.26901974  1
  O2-  O244  1  0.45085341  0.91414697  0.60508720  1
  O2-  O245  1  0.46322681  0.92114174  0.93234154  1
  O2-  O246  1  0.95646685  0.41249079  0.27276676  1
  O2-  O247  1  0.95927131  0.41790477  0.59469520  1
  O2-  O248  1  0.96573145  0.41596811  0.93260102  1
  O2-  O249  1  0.95300364  0.91775766  0.26625582  1
  O2-  O250  1  0.95902082  0.91974054  0.60125832  1
  O2-  O251  1  0.95473473  0.91533047  0.94091815  1
  O2-  O252  1  0.33361642  0.29444462  0.27149704  1
  O2-  O253  1  0.32535417  0.29846703  0.59913817  1
  O2-  O254  1  0.33176732  0.28707723  0.93547017  1
  O2-  O255  1  0.33596696  0.78921069  0.26459398  1
  O2-  O256  1  0.33216916  0.79176550  0.60880189  1
  O2-  O257  1  0.32753487  0.80288521  0.93241005  1
  O2-  O258  1  0.83825185  0.28893762  0.26991177  1
  O2-  O259  1  0.83318187  0.28769113  0.59717607  1
  O2-  O260  1  0.83198199  0.29462070  0.93365998  1
  O2-  O261  1  0.83086556  0.80119328  0.27111099  1
  O2-  O262  1  0.83675002  0.79202217  0.59420139  1
  O2-  O263  1  0.83952354  0.79104809  0.94039195  1
  O2-  O264  1  0.41769600  0.04301158  0.06878615  1
  O2-  O265  1  0.42323312  0.04687020  0.40130100  1
  O2-  O266  1  0.42230490  0.04469304  0.73563143  1
  O2-  O267  1  0.41810647  0.54863266  0.06361355  1
  O2-  O268  1  0.41192860  0.54421207  0.39152347  1
  O2-  O269  1  0.41712534  0.53934300  0.73538898  1
  O2-  O270  1  0.91840521  0.04914726  0.06357069  1
  O2-  O271  1  0.91379458  0.04750205  0.39272277  1
  O2-  O272  1  0.91437508  0.04203649  0.73641034  1
  O2-  O273  1  0.91525445  0.53623649  0.06765523  1
  O2-  O274  1  0.92013483  0.54048730  0.40498880  1
  O2-  O275  1  0.91816944  0.54987837  0.72547311  1
  O2-  O276  1  0.28454430  0.16337090  0.07107111  1
  O2-  O277  1  0.29190264  0.17006670  0.40356980  1
  O2-  O278  1  0.29025213  0.17039644  0.73363725  1
  O2-  O279  1  0.29721793  0.66866409  0.06082884  1
  O2-  O280  1  0.28868890  0.66038648  0.39063168  1
  O2-  O281  1  0.28950021  0.66224985  0.74001742  1
  O2-  O282  1  0.79890605  0.16836000  0.06413448  1
  O2-  O283  1  0.78950986  0.16140053  0.39313117  1
  O2-  O284  1  0.78761896  0.16651787  0.73475125  1
  O2-  O285  1  0.79260278  0.66542510  0.07018860  1
  O2-  O286  1  0.80224521  0.67370992  0.40179849  1
  O2-  O287  1  0.79578643  0.66773328  0.72449444  1
