# generated using pymatgen
data_Ca2Al2SiO7
_symmetry_space_group_name_H-M   'P 1'
_cell_length_a   15.46899863
_cell_length_b   15.46795767
_cell_length_c   15.29118789
_cell_angle_alpha   90.01112578
_cell_angle_beta   89.99160666
_cell_angle_gamma   89.98332399
_symmetry_Int_Tables_number   1
_chemical_formula_structural   Ca2Al2SiO7
_chemical_formula_sum   'Ca48 Al48 Si24 O168'
_cell_volume   3658.78061457
_cell_formula_units_Z   24
loop_
 _symmetry_equiv_pos_site_id
 _symmetry_equiv_pos_as_xyz
  1  'x, y, z'
loop_
 _atom_type_symbol
 _atom_type_oxidation_number
  Ca2+  2.0
  Al0+  0.0
  Si0+  0.0
  O2-  -2.0
loop_
 _atom_site_type_symbol
 _atom_site_label
 _atom_site_symmetry_multiplicity
 _atom_site_fract_x
 _atom_site_fract_y
 _atom_site_fract_z
 _atom_site_occupancy
  Ca2+  Ca0  1  0.15996902  0.07719040  0.16372432  1
  Ca2+  Ca1  1  0.17777375  0.07430068  0.51471268  1
  Ca2+  Ca2  1  0.16938374  0.07431414  0.83958784  1
  Ca2+  Ca3  1  0.16208280  0.58563899  0.17063696  1
  Ca2+  Ca4  1  0.16655173  0.58657561  0.50132588  1
  Ca2+  Ca5  1  0.16889409  0.58681899  0.84079394  1
  Ca2+  Ca6  1  0.66784958  0.08584186  0.15888430  1
  Ca2+  Ca7  1  0.67204578  0.08050023  0.50817837  1
  Ca2+  Ca8  1  0.67561650  0.07796247  0.84335092  1
  Ca2+  Ca9  1  0.67798044  0.58635734  0.16254949  1
  Ca2+  Ca10  1  0.66702730  0.57807715  0.50540674  1
  Ca2+  Ca11  1  0.66574015  0.57707081  0.84348011  1
  Ca2+  Ca12  1  0.07586519  0.32511581  0.15384616  1
  Ca2+  Ca13  1  0.07558172  0.33320787  0.49956217  1
  Ca2+  Ca14  1  0.06801760  0.32590977  0.83547143  1
  Ca2+  Ca15  1  0.07795086  0.82241301  0.15572137  1
  Ca2+  Ca16  1  0.08064661  0.83277694  0.50056712  1
  Ca2+  Ca17  1  0.07533904  0.83946279  0.83379802  1
  Ca2+  Ca18  1  0.57506159  0.33449142  0.15475730  1
  Ca2+  Ca19  1  0.58051353  0.33387880  0.49867867  1
  Ca2+  Ca20  1  0.58833837  0.33320248  0.83305177  1
  Ca2+  Ca21  1  0.57987748  0.83281973  0.15650063  1
  Ca2+  Ca22  1  0.57232961  0.83412247  0.49800482  1
  Ca2+  Ca23  1  0.59259285  0.82090691  0.82847255  1
  Ca2+  Ca24  1  0.33667929  0.41402271  0.16859641  1
  Ca2+  Ca25  1  0.33241240  0.41560855  0.50414488  1
  Ca2+  Ca26  1  0.33310413  0.41730789  0.84130412  1
  Ca2+  Ca27  1  0.32609381  0.91058757  0.16922507  1
  Ca2+  Ca28  1  0.33081073  0.91500539  0.51248132  1
  Ca2+  Ca29  1  0.32276231  0.90974111  0.83556773  1
  Ca2+  Ca30  1  0.83667116  0.42705754  0.16528347  1
  Ca2+  Ca31  1  0.82955027  0.42411717  0.50919700  1
  Ca2+  Ca32  1  0.82561225  0.41869011  0.84250943  1
  Ca2+  Ca33  1  0.83013347  0.91494900  0.15922722  1
  Ca2+  Ca34  1  0.83671346  0.92395250  0.50975945  1
  Ca2+  Ca35  1  0.83703730  0.92334840  0.84379693  1
  Ca2+  Ca36  1  0.42277998  0.17886631  0.15657806  1
  Ca2+  Ca37  1  0.41603013  0.16855044  0.49476953  1
  Ca2+  Ca38  1  0.42073010  0.16614357  0.83493951  1
  Ca2+  Ca39  1  0.42495424  0.67221922  0.15992868  1
  Ca2+  Ca40  1  0.42138601  0.67692630  0.50036769  1
  Ca2+  Ca41  1  0.43114726  0.67216042  0.82920585  1
  Ca2+  Ca42  1  0.91937504  0.17222204  0.15110186  1
  Ca2+  Ca43  1  0.91090725  0.17146760  0.50392196  1
  Ca2+  Ca44  1  0.90611199  0.17195949  0.83000651  1
  Ca2+  Ca45  1  0.92157704  0.66458321  0.15607662  1
  Ca2+  Ca46  1  0.91932234  0.67177111  0.49507102  1
  Ca2+  Ca47  1  0.91105474  0.67992717  0.83429295  1
  Al0+  Al48  1  0.00295156  -0.00174394  0.00515141  1
  Al0+  Al49  1  -0.00004840  -0.00077104  0.33617970  1
  Al0+  Al50  1  0.00228518  0.00093411  0.66822771  1
  Al0+  Al51  1  0.00275488  0.49771082  -0.00430004  1
  Al0+  Al52  1  -0.00002541  0.49944171  0.33644918  1
  Al0+  Al53  1  -0.00015597  0.49863869  0.66264700  1
  Al0+  Al54  1  0.49651417  0.00334086  0.00025702  1
  Al0+  Al55  1  0.49935517  0.00085918  0.32859256  1
  Al0+  Al56  1  0.50136744  0.00093562  0.66678307  1
  Al0+  Al57  1  0.49832299  0.50305735  -0.00208641  1
  Al0+  Al58  1  0.49933905  0.50091715  0.33172663  1
  Al0+  Al59  1  0.49956006  0.49888981  0.66489517  1
  Al0+  Al60  1  0.24893789  0.25117968  -0.00652822  1
  Al0+  Al61  1  0.24951832  0.24966366  0.33125575  1
  Al0+  Al62  1  0.24975926  0.24936693  0.67086078  1
  Al0+  Al63  1  0.25058381  0.74919877  0.00322152  1
  Al0+  Al64  1  0.24930075  0.74883461  0.32861238  1
  Al0+  Al65  1  0.25095618  0.74826791  0.66825426  1
  Al0+  Al66  1  0.74624934  0.25024423  0.00246476  1
  Al0+  Al67  1  0.74961746  0.24984783  0.33397916  1
  Al0+  Al68  1  0.74871570  0.25188029  0.66630498  1
  Al0+  Al69  1  0.75040759  0.75002507  0.00081804  1
  Al0+  Al70  1  0.74972895  0.75147635  0.34015386  1
  Al0+  Al71  1  0.75321741  0.74815736  0.65349217  1
  Al0+  Al72  1  0.07079561  0.17619407  0.98503465  1
  Al0+  Al73  1  0.67593987  0.42945964  0.01577399  1
  Al0+  Al74  1  0.18078885  0.92703342  0.68289680  1
  Al0+  Al75  1  0.82296855  0.57017161  0.01220662  1
  Al0+  Al76  1  0.42987546  0.32289931  0.98266555  1
  Al0+  Al77  1  0.57291783  0.67578552  0.64945417  1
  Al0+  Al78  1  0.92626618  0.31991636  0.98630664  1
  Al0+  Al79  1  0.67870257  0.43192157  0.67982099  1
  Al0+  Al80  1  0.57072072  0.17823510  0.98289491  1
  Al0+  Al81  1  0.18037156  0.92791232  0.01726680  1
  Al0+  Al82  1  0.92960334  0.81938292  0.98709656  1
  Al0+  Al83  1  0.06799127  0.67934209  0.32044239  1
  Al0+  Al84  1  0.82144949  0.07159925  0.01501394  1
  Al0+  Al85  1  0.42962613  0.82144469  0.31853152  1
  Al0+  Al86  1  0.43005338  0.82094779  0.65402260  1
  Al0+  Al87  1  0.82226741  0.57082854  0.34908294  1
  Al0+  Al88  1  0.67666120  0.92799839  0.01290881  1
  Al0+  Al89  1  0.07343338  0.67704695  0.98457808  1
  Al0+  Al90  1  0.93103792  0.82326058  0.65217883  1
  Al0+  Al91  1  0.57147677  0.68268257  0.98856978  1
  Al0+  Al92  1  0.32516984  0.07294379  0.68335021  1
  Al0+  Al93  1  0.42886303  0.32098004  0.32108464  1
  Al0+  Al94  1  0.81975322  0.07014293  0.67875523  1
  Al0+  Al95  1  0.92750160  0.32020765  0.65147731  1
  Si0+  Si96  1  0.18007555  0.92758279  0.34957229  1
  Si0+  Si97  1  0.82177896  0.07174901  0.34940981  1
  Si0+  Si98  1  0.57328101  0.67886103  0.31589751  1
  Si0+  Si99  1  0.42696113  0.82365297  0.98476950  1
  Si0+  Si100  1  0.32126746  0.57160085  0.34910994  1
  Si0+  Si101  1  0.82421768  0.57305281  0.68243292  1
  Si0+  Si102  1  0.57325829  0.17819514  0.31634752  1
  Si0+  Si103  1  0.32053699  0.57092813  0.01674102  1
  Si0+  Si104  1  0.31978301  0.56871586  0.68124362  1
  Si0+  Si105  1  0.42682468  0.32030677  0.65130083  1
  Si0+  Si106  1  0.57115573  0.18006647  0.65112512  1
  Si0+  Si107  1  0.31946729  0.07496396  0.01954121  1
  Si0+  Si108  1  0.67664635  0.93077389  0.34908050  1
  Si0+  Si109  1  0.92896308  0.31975685  0.31952764  1
  Si0+  Si110  1  0.67928631  0.92561933  0.67949113  1
  Si0+  Si111  1  0.18043674  0.42849120  0.01512056  1
  Si0+  Si112  1  0.07270636  0.67685745  0.65000665  1
  Si0+  Si113  1  0.07058994  0.17860936  0.32086388  1
  Si0+  Si114  1  0.31961882  0.07115038  0.34639770  1
  Si0+  Si115  1  0.17707788  0.42788798  0.68241871  1
  Si0+  Si116  1  0.67733913  0.42804062  0.35010182  1
  Si0+  Si117  1  0.07284816  0.17930134  0.64906231  1
  Si0+  Si118  1  0.18000594  0.42748975  0.34882032  1
  Si0+  Si119  1  0.92666436  0.82445124  0.31644429  1
  O2-  O120  1  0.25430890  0.00348222  0.06529733  1
  O2-  O121  1  0.25201144  -0.00186433  0.39104327  1
  O2-  O122  1  0.25526397  -0.00212130  0.73097310  1
  O2-  O123  1  0.24939770  0.50024921  0.05939104  1
  O2-  O124  1  0.25119751  0.49875657  0.39137490  1
  O2-  O125  1  0.24761001  0.49930079  0.72399763  1
  O2-  O126  1  0.74808813  0.00024015  0.06513178  1
  O2-  O127  1  0.75036011  0.00017624  0.39053330  1
  O2-  O128  1  0.75073567  -0.00962787  0.72373097  1
  O2-  O129  1  0.75235439  0.49742959  0.06472630  1
  O2-  O130  1  0.74606333  0.49640366  0.39475847  1
  O2-  O131  1  0.75117196  0.50890186  0.72486962  1
  O2-  O132  1  -0.00319336  0.24589614  0.27819163  1
  O2-  O133  1  0.00306570  0.24636654  0.60305007  1
  O2-  O134  1  -0.00945119  0.24002918  0.93682932  1
  O2-  O135  1  -0.00852998  0.75155165  0.27431175  1
  O2-  O136  1  0.00476081  0.74643264  0.60626613  1
  O2-  O137  1  0.00100006  0.74768857  0.93507347  1
  O2-  O138  1  0.50630443  0.24989160  0.27529179  1
  O2-  O139  1  0.49554328  0.24714510  0.60883926  1
  O2-  O140  1  0.50269049  0.25332876  0.93151009  1
  O2-  O141  1  0.50631744  0.74926552  0.27200809  1
  O2-  O142  1  0.50379094  0.75202725  0.60129770  1
  O2-  O143  1  0.50313233  0.76342909  0.94197013  1
  O2-  O144  1  0.07169207  0.18172705  0.10009800  1
  O2-  O145  1  0.07226339  0.18083546  0.42587915  1
  O2-  O146  1  0.07433755  0.18161863  0.75360434  1
  O2-  O147  1  0.07298720  0.67845852  0.09863548  1
  O2-  O148  1  0.07017846  0.68141868  0.43374182  1
  O2-  O149  1  0.07339366  0.67362594  0.75458218  1
  O2-  O150  1  0.56589912  0.17884248  0.09716257  1
  O2-  O151  1  0.57315416  0.17667213  0.42247557  1
  O2-  O152  1  0.57341563  0.18180011  0.75502278  1
  O2-  O153  1  0.56789424  0.68221949  0.10208186  1
  O2-  O154  1  0.56981753  0.67819425  0.42146685  1
  O2-  O155  1  0.57062186  0.67487002  0.76279348  1
  O2-  O156  1  0.17965181  0.42589180  0.24422437  1
  O2-  O157  1  0.17909586  0.42734684  0.57642553  1
  O2-  O158  1  0.18251240  0.42916627  0.91000473  1
  O2-  O159  1  0.17907618  0.92884886  0.24500446  1
  O2-  O160  1  0.18214398  0.92841276  0.56789064  1
  O2-  O161  1  0.18388044  0.92518897  0.90482709  1
  O2-  O162  1  0.67728130  0.42642354  0.24548408  1
  O2-  O163  1  0.67931262  0.43077455  0.56572751  1
  O2-  O164  1  0.67522117  0.43369517  0.90220792  1
  O2-  O165  1  0.67531451  0.93068261  0.24464075  1
  O2-  O166  1  0.67794576  0.93148232  0.57304388  1
  O2-  O167  1  0.67912898  0.92690607  0.89944062  1
  O2-  O168  1  0.42822889  0.32117106  0.09688513  1
  O2-  O169  1  0.42681683  0.31805300  0.43461779  1
  O2-  O170  1  0.42612521  0.32342275  0.75530494  1
  O2-  O171  1  0.42571022  0.81843603  0.09100033  1
  O2-  O172  1  0.42939830  0.82135415  0.43152939  1
  O2-  O173  1  0.42824822  0.81634092  0.76682118  1
  O2-  O174  1  0.93293530  0.32222382  0.10091088  1
  O2-  O175  1  0.92999770  0.31880603  0.42487525  1
  O2-  O176  1  0.92791848  0.32025616  0.76339465  1
  O2-  O177  1  0.93035545  0.81747561  0.10117031  1
  O2-  O178  1  0.93106754  0.82803491  0.42220580  1
  O2-  O179  1  0.92932256  0.82367586  0.76425620  1
  O2-  O180  1  0.31643844  0.07261396  0.24205868  1
  O2-  O181  1  0.32167316  0.07529821  0.56827638  1
  O2-  O182  1  0.31775341  0.07540333  0.91436970  1
  O2-  O183  1  0.32105289  0.57105356  0.24438431  1
  O2-  O184  1  0.31830192  0.56726014  0.57548767  1
  O2-  O185  1  0.32007335  0.57058227  0.91150183  1
  O2-  O186  1  0.82423148  0.07423815  0.24540352  1
  O2-  O187  1  0.81616305  0.07029361  0.56439261  1
  O2-  O188  1  0.82054887  0.06979233  0.90155532  1
  O2-  O189  1  0.82475046  0.56857236  0.23661831  1
  O2-  O190  1  0.82592200  0.56896099  0.57617468  1
  O2-  O191  1  0.82102767  0.57101888  0.89888958  1
  O2-  O192  1  0.04546705  0.08505209  0.27572441  1
  O2-  O193  1  0.04898233  0.08581672  0.60212065  1
  O2-  O194  1  0.05523453  0.07401714  0.93854456  1
  O2-  O195  1  0.04217375  0.57989476  0.26935699  1
  O2-  O196  1  0.04746760  0.58370213  0.60127144  1
  O2-  O197  1  0.05240040  0.57736722  0.93284465  1
  O2-  O198  1  0.54529220  0.08662593  0.26884205  1
  O2-  O199  1  0.54772978  0.08745361  0.60205183  1
  O2-  O200  1  0.53878291  0.08085067  0.92932785  1
  O2-  O201  1  0.54537417  0.58582220  0.27080383  1
  O2-  O202  1  0.53622423  0.57993548  0.59457012  1
  O2-  O203  1  0.53298620  0.58999870  0.93336278  1
  O2-  O204  1  0.16054492  0.20859150  0.27188934  1
  O2-  O205  1  0.16601591  0.20863189  0.60195722  1
  O2-  O206  1  0.16417665  0.21365471  0.92971878  1
  O2-  O207  1  0.16452221  0.70847726  0.26614939  1
  O2-  O208  1  0.16670058  0.70186185  0.60353640  1
  O2-  O209  1  0.17281780  0.70589320  0.93430382  1
  O2-  O210  1  0.66790816  0.20133593  0.27165132  1
  O2-  O211  1  0.65944984  0.21319301  0.59929779  1
  O2-  O212  1  0.67053718  0.20126216  0.93256456  1
  O2-  O213  1  0.66856408  0.70388830  0.27418318  1
  O2-  O214  1  0.67134440  0.69797744  0.59405308  1
  O2-  O215  1  0.66789498  0.70769593  0.93328831  1
  O2-  O216  1  0.08883779  0.45399022  0.06381043  1
  O2-  O217  1  0.08919721  0.45564417  0.39849758  1
  O2-  O218  1  0.08486298  0.45534248  0.72776624  1
  O2-  O219  1  0.08526862  0.95663273  0.07529739  1
  O2-  O220  1  0.08801273  0.95624493  0.39718802  1
  O2-  O221  1  0.08362075  0.95871980  0.73441853  1
  O2-  O222  1  0.57842730  0.46366215  0.06823815  1
  O2-  O223  1  0.58302410  0.45457027  0.39622684  1
  O2-  O224  1  0.58020569  0.45789620  0.73175816  1
  O2-  O225  1  0.57690223  0.95635228  0.06555073  1
  O2-  O226  1  0.58534151  0.96232628  0.39696508  1
  O2-  O227  1  0.58664242  0.95144628  0.72540647  1
  O2-  O228  1  0.21007986  0.33732590  0.06341255  1
  O2-  O229  1  0.20907697  0.33620280  0.39796516  1
  O2-  O230  1  0.20563633  0.33741195  0.73009060  1
  O2-  O231  1  0.21464171  0.83207218  0.07287780  1
  O2-  O232  1  0.20819223  0.83517583  0.39533903  1
  O2-  O233  1  0.20701585  0.82773585  0.73462555  1
  O2-  O234  1  0.69583413  0.32922458  0.06756085  1
  O2-  O235  1  0.70203856  0.33338958  0.39643094  1
  O2-  O236  1  0.71088158  0.33587656  0.73198362  1
  O2-  O237  1  0.70638417  0.83134291  0.06944405  1
  O2-  O238  1  0.69994288  0.83865592  0.39815384  1
  O2-  O239  1  0.70233051  0.82873049  0.71793954  1
  O2-  O240  1  0.45436261  0.41933458  0.26829571  1
  O2-  O241  1  0.45640657  0.41058986  0.60133508  1
  O2-  O242  1  0.45340179  0.42271025  0.93169450  1
  O2-  O243  1  0.45658403  0.91877589  0.26430336  1
  O2-  O244  1  0.45570098  0.92074849  0.60019454  1
  O2-  O245  1  0.43895678  0.92083794  0.94437415  1
  O2-  O246  1  0.96090057  0.41039794  0.27399274  1
  O2-  O247  1  0.96177647  0.41537104  0.59478477  1
  O2-  O248  1  0.96382599  0.41345854  0.93076933  1
  O2-  O249  1  0.95557215  0.91731800  0.27080533  1
  O2-  O250  1  0.96395390  0.91937224  0.59640274  1
  O2-  O251  1  0.96014497  0.91778770  0.93721742  1
  O2-  O252  1  0.33266151  0.28931995  0.26658055  1
  O2-  O253  1  0.33385245  0.29462766  0.60383622  1
  O2-  O254  1  0.33192280  0.29395551  0.93016084  1
  O2-  O255  1  0.33419715  0.78782389  0.26475389  1
  O2-  O256  1  0.33258353  0.78751413  0.59967738  1
  O2-  O257  1  0.33766580  0.78708493  0.93865307  1
  O2-  O258  1  0.83575860  0.29545116  0.27424044  1
  O2-  O259  1  0.83226514  0.28735058  0.59484320  1
  O2-  O260  1  0.82535867  0.30015875  0.93760017  1
  O2-  O261  1  0.82994210  0.80336502  0.27640952  1
  O2-  O262  1  0.83650431  0.79503012  0.59169712  1
  O2-  O263  1  0.83166637  0.79294887  0.93340756  1
  O2-  O264  1  0.41412696  0.05390575  0.06507565  1
  O2-  O265  1  0.41392289  0.04768091  0.39149815  1
  O2-  O266  1  0.42540857  0.05018221  0.73351232  1
  O2-  O267  1  0.41087893  0.54245144  0.06612117  1
  O2-  O268  1  0.41314951  0.54463306  0.39730591  1
  O2-  O269  1  0.41051392  0.53823757  0.72787863  1
  O2-  O270  1  0.91964543  0.04379991  0.06936478  1
  O2-  O271  1  0.91347675  0.04373924  0.39867343  1
  O2-  O272  1  0.91894353  0.04768854  0.72885849  1
  O2-  O273  1  0.92244019  0.54009937  0.06438619  1
  O2-  O274  1  0.91781442  0.53727266  0.40493160  1
  O2-  O275  1  0.91723066  0.54411683  0.72653763  1
  O2-  O276  1  0.28921239  0.16824806  0.06460660  1
  O2-  O277  1  0.28935058  0.16219640  0.39546702  1
  O2-  O278  1  0.29474887  0.17066369  0.73607441  1
  O2-  O279  1  0.29349232  0.66155433  0.06683653  1
  O2-  O280  1  0.28951735  0.66230457  0.39699467  1
  O2-  O281  1  0.29364180  0.65961467  0.72988534  1
  O2-  O282  1  0.79262323  0.16950967  0.06984506  1
  O2-  O283  1  0.79339494  0.16382794  0.39780168  1
  O2-  O284  1  0.78436134  0.16539765  0.73015681  1
  O2-  O285  1  0.79264507  0.66695751  0.06773504  1
  O2-  O286  1  0.79482797  0.66884642  0.40321965  1
  O2-  O287  1  0.80317651  0.67001031  0.72175493  1
