# generated using pymatgen
data_Ca2Al2SiO7
_symmetry_space_group_name_H-M   'P 1'
_cell_length_a   15.45870408
_cell_length_b   15.45996329
_cell_length_c   15.28439339
_cell_angle_alpha   89.99146129
_cell_angle_beta   90.00089793
_cell_angle_gamma   89.99280741
_symmetry_Int_Tables_number   1
_chemical_formula_structural   Ca2Al2SiO7
_chemical_formula_sum   'Ca48 Al48 Si24 O168'
_cell_volume   3652.83235283
_cell_formula_units_Z   24
loop_
 _symmetry_equiv_pos_site_id
 _symmetry_equiv_pos_as_xyz
  1  'x, y, z'
loop_
 _atom_type_symbol
 _atom_type_oxidation_number
  Ca2+  2.0
  Al0+  0.0
  Si0+  0.0
  O2-  -2.0
loop_
 _atom_site_type_symbol
 _atom_site_label
 _atom_site_symmetry_multiplicity
 _atom_site_fract_x
 _atom_site_fract_y
 _atom_site_fract_z
 _atom_site_occupancy
  Ca2+  Ca0  1  0.17945936  0.08533327  0.17493646  1
  Ca2+  Ca1  1  0.16858033  0.08273143  0.50670845  1
  Ca2+  Ca2  1  0.16795430  0.07386531  0.83312481  1
  Ca2+  Ca3  1  0.16419107  0.57965766  0.17132067  1
  Ca2+  Ca4  1  0.15984445  0.57134486  0.50852602  1
  Ca2+  Ca5  1  0.15835432  0.58035431  0.83467057  1
  Ca2+  Ca6  1  0.66568658  0.07401689  0.17792536  1
  Ca2+  Ca7  1  0.66725228  0.07594876  0.50857819  1
  Ca2+  Ca8  1  0.66508140  0.08035922  0.82934512  1
  Ca2+  Ca9  1  0.67405997  0.59537644  0.17294379  1
  Ca2+  Ca10  1  0.67686072  0.59223421  0.50300954  1
  Ca2+  Ca11  1  0.67837225  0.59282460  0.83692757  1
  Ca2+  Ca12  1  0.08916250  0.33094483  0.17097667  1
  Ca2+  Ca13  1  0.09004022  0.32592951  0.49803799  1
  Ca2+  Ca14  1  0.08475184  0.32620676  0.82344360  1
  Ca2+  Ca15  1  0.07294733  0.82845280  0.16098608  1
  Ca2+  Ca16  1  0.06894721  0.83954027  0.50029453  1
  Ca2+  Ca17  1  0.08104528  0.82202847  0.81934367  1
  Ca2+  Ca18  1  0.58563635  0.32517322  0.16590479  1
  Ca2+  Ca19  1  0.58261668  0.32151090  0.49786018  1
  Ca2+  Ca20  1  0.57501264  0.32631695  0.82070218  1
  Ca2+  Ca21  1  0.58295232  0.82626391  0.16533714  1
  Ca2+  Ca22  1  0.58416997  0.83672307  0.49672321  1
  Ca2+  Ca23  1  0.57447255  0.83559557  0.83057654  1
  Ca2+  Ca24  1  0.32685064  0.42091539  0.17549194  1
  Ca2+  Ca25  1  0.32544011  0.41378424  0.50580176  1
  Ca2+  Ca26  1  0.32953830  0.41295445  0.83065619  1
  Ca2+  Ca27  1  0.33925238  0.92456701  0.16885860  1
  Ca2+  Ca28  1  0.33063188  0.92185865  0.50815705  1
  Ca2+  Ca29  1  0.33352396  0.91568284  0.83664096  1
  Ca2+  Ca30  1  0.83227064  0.43078601  0.17173018  1
  Ca2+  Ca31  1  0.83722291  0.43081789  0.50572564  1
  Ca2+  Ca32  1  0.83532027  0.42960798  0.83593537  1
  Ca2+  Ca33  1  0.82589309  0.91107030  0.17564931  1
  Ca2+  Ca34  1  0.82415932  0.91380575  0.50901798  1
  Ca2+  Ca35  1  0.83248432  0.91677018  0.82635476  1
  Ca2+  Ca36  1  0.41791149  0.15889137  0.16744948  1
  Ca2+  Ca37  1  0.42463332  0.16544188  0.49772277  1
  Ca2+  Ca38  1  0.41905017  0.16902155  0.82423333  1
  Ca2+  Ca39  1  0.42988353  0.67211528  0.15646908  1
  Ca2+  Ca40  1  0.42235246  0.67550168  0.49646330  1
  Ca2+  Ca41  1  0.42010932  0.67822793  0.82633368  1
  Ca2+  Ca42  1  0.92541251  0.16763747  0.16610752  1
  Ca2+  Ca43  1  0.92987908  0.15457511  0.49863446  1
  Ca2+  Ca44  1  0.92038213  0.16749657  0.81986645  1
  Ca2+  Ca45  1  0.91526556  0.66725994  0.16469637  1
  Ca2+  Ca46  1  0.91284902  0.67399170  0.49868740  1
  Ca2+  Ca47  1  0.92299985  0.66619811  0.82566935  1
  Al0+  Al48  1  0.00063973  0.00039801  0.00121316  1
  Al0+  Al49  1  0.00056722  0.00035284  0.31919219  1
  Al0+  Al50  1  0.00065485  -0.00115798  0.66844627  1
  Al0+  Al51  1  -0.00231601  0.49881599  0.00277933  1
  Al0+  Al52  1  -0.00067847  0.49970576  0.34128273  1
  Al0+  Al53  1  0.00108577  0.49785972  0.67317482  1
  Al0+  Al54  1  0.50058309  0.00038888  0.00135110  1
  Al0+  Al55  1  0.49954146  0.00110005  0.33760126  1
  Al0+  Al56  1  0.50051849  -0.00037777  0.66442324  1
  Al0+  Al57  1  0.50067388  0.49714254  -0.00349828  1
  Al0+  Al58  1  0.50095031  0.49965323  0.32936585  1
  Al0+  Al59  1  0.49877409  0.50040206  0.66213176  1
  Al0+  Al60  1  0.25030280  0.24829140  0.00459488  1
  Al0+  Al61  1  0.25078225  0.25001064  0.33651892  1
  Al0+  Al62  1  0.24990071  0.25135997  0.66487330  1
  Al0+  Al63  1  0.24804585  0.74838705  -0.00409105  1
  Al0+  Al64  1  0.24833712  0.75095874  0.33272490  1
  Al0+  Al65  1  0.25104766  0.74781762  0.66023603  1
  Al0+  Al66  1  0.75103403  0.25099008  0.00036117  1
  Al0+  Al67  1  0.75125768  0.25120675  0.32712246  1
  Al0+  Al68  1  0.75026541  0.25161058  0.66598241  1
  Al0+  Al69  1  0.75072429  0.75204751  0.00047215  1
  Al0+  Al70  1  0.74940173  0.75177536  0.33387556  1
  Al0+  Al71  1  0.75011016  0.75125119  0.67529840  1
  Al0+  Al72  1  0.57135926  0.17826737  0.31847742  1
  Al0+  Al73  1  0.17922425  0.92701178  0.67812209  1
  Al0+  Al74  1  0.07214648  0.18024381  0.31786514  1
  Al0+  Al75  1  0.07105524  0.67517815  0.65005539  1
  Al0+  Al76  1  0.81871929  0.57080463  0.01560922  1
  Al0+  Al77  1  0.06952853  0.17835775  0.65500072  1
  Al0+  Al78  1  0.67664882  0.92928509  0.68484774  1
  Al0+  Al79  1  0.92899743  0.81970756  0.31892966  1
  Al0+  Al80  1  0.81963884  0.57021871  0.68217651  1
  Al0+  Al81  1  0.31976706  0.06878231  0.34963136  1
  Al0+  Al82  1  0.82189524  0.07216215  0.67946440  1
  Al0+  Al83  1  0.31965704  0.06905859  0.01333517  1
  Al0+  Al84  1  0.18124347  0.42890076  0.68275012  1
  Al0+  Al85  1  0.18109833  0.43171360  0.34790598  1
  Al0+  Al86  1  0.56952703  0.68008482  0.32123007  1
  Al0+  Al87  1  0.42970326  0.82168608  0.98579950  1
  Al0+  Al88  1  0.92891874  0.81958620  0.65250684  1
  Al0+  Al89  1  0.42837454  0.82150272  0.65157451  1
  Al0+  Al90  1  0.57269836  0.17877821  0.65166336  1
  Al0+  Al91  1  0.68103401  0.93097117  0.34662086  1
  Al0+  Al92  1  0.81800721  0.57071998  0.34829088  1
  Al0+  Al93  1  0.06842005  0.67774080  0.98730212  1
  Al0+  Al94  1  0.57344105  0.67756880  0.98371725  1
  Al0+  Al95  1  0.42787085  0.32240187  0.65031888  1
  Si0+  Si96  1  0.67557093  0.42797065  0.68219990  1
  Si0+  Si97  1  0.57282884  0.67914806  0.65089254  1
  Si0+  Si98  1  0.42837964  0.32081573  0.31467079  1
  Si0+  Si99  1  0.18002162  0.42877693  0.01598767  1
  Si0+  Si100  1  0.17649938  0.92495094  0.01740450  1
  Si0+  Si101  1  0.57153477  0.17963563  0.98605230  1
  Si0+  Si102  1  0.82426593  0.07432258  0.34583533  1
  Si0+  Si103  1  0.92949110  0.31941653  0.98539325  1
  Si0+  Si104  1  0.92781385  0.82466547  0.98169131  1
  Si0+  Si105  1  0.92873444  0.32546272  0.31582485  1
  Si0+  Si106  1  0.07135110  0.67515084  0.31796478  1
  Si0+  Si107  1  0.42533675  0.82306150  0.31719569  1
  Si0+  Si108  1  0.42677883  0.32003281  0.98622570  1
  Si0+  Si109  1  0.68078572  0.93292889  0.01668856  1
  Si0+  Si110  1  0.32250270  0.57150989  0.01344876  1
  Si0+  Si111  1  0.32416813  0.57239887  0.68346605  1
  Si0+  Si112  1  0.92787123  0.32272741  0.65092988  1
  Si0+  Si113  1  0.32509561  0.57439154  0.34833641  1
  Si0+  Si114  1  0.32104271  0.07093759  0.68268280  1
  Si0+  Si115  1  0.67643481  0.42507822  0.34985631  1
  Si0+  Si116  1  0.17449950  0.92723589  0.34801028  1
  Si0+  Si117  1  0.07249592  0.18028865  0.98505122  1
  Si0+  Si118  1  0.82359991  0.07473586  0.01658788  1
  Si0+  Si119  1  0.67655436  0.42552414  0.01717261  1
  O2-  O120  1  0.24639132  -0.00705723  0.06113118  1
  O2-  O121  1  0.24501714  -0.00684260  0.39313735  1
  O2-  O122  1  0.25522423  -0.00022544  0.72724709  1
  O2-  O123  1  0.25051679  0.50118007  0.05673748  1
  O2-  O124  1  0.25426938  0.50850749  0.39309063  1
  O2-  O125  1  0.25445233  0.50503069  0.72960806  1
  O2-  O126  1  0.75415948  0.00240298  0.05869788  1
  O2-  O127  1  0.75426281  0.00828974  0.39022496  1
  O2-  O128  1  0.74852498  0.00337219  0.73302582  1
  O2-  O129  1  0.73896369  0.50004667  0.06141583  1
  O2-  O130  1  0.74315587  0.49526353  0.39400699  1
  O2-  O131  1  0.74285748  0.49668786  0.72853752  1
  O2-  O132  1  -0.00353440  0.25507169  0.27148437  1
  O2-  O133  1  -0.00837959  0.24943483  0.60737671  1
  O2-  O134  1  -0.00244352  0.24624324  0.94232249  1
  O2-  O135  1  0.00555431  0.74599062  0.27284811  1
  O2-  O136  1  0.00042751  0.74823502  0.60035735  1
  O2-  O137  1  -0.00212722  0.75611553  0.94061613  1
  O2-  O138  1  0.49812498  0.25365083  0.26913574  1
  O2-  O139  1  0.50106616  0.25131198  0.60200061  1
  O2-  O140  1  0.50070616  0.25143556  0.94541519  1
  O2-  O141  1  0.48992436  0.74984289  0.27416959  1
  O2-  O142  1  0.50498250  0.74812872  0.60634236  1
  O2-  O143  1  0.49828593  0.74669630  0.93510169  1
  O2-  O144  1  0.07310155  0.18371795  0.09013940  1
  O2-  O145  1  0.07121337  0.17929124  0.43046483  1
  O2-  O146  1  0.07011793  0.18069823  0.76897323  1
  O2-  O147  1  0.06667274  0.67684164  0.10088348  1
  O2-  O148  1  0.07038353  0.67342261  0.42266283  1
  O2-  O149  1  0.06794753  0.67559316  0.76432378  1
  O2-  O150  1  0.57179708  0.17989951  0.09123265  1
  O2-  O151  1  0.57121425  0.17945579  0.43050533  1
  O2-  O152  1  0.56976340  0.18082147  0.76646719  1
  O2-  O153  1  0.57262750  0.68074281  0.09763291  1
  O2-  O154  1  0.56928979  0.68216263  0.43407002  1
  O2-  O155  1  0.57029758  0.67789981  0.75655317  1
  O2-  O156  1  0.18241198  0.43328143  0.23356173  1
  O2-  O157  1  0.18191808  0.42816820  0.56997941  1
  O2-  O158  1  0.18100476  0.42546710  0.91133703  1
  O2-  O159  1  0.17551794  0.92780934  0.24195990  1
  O2-  O160  1  0.17898231  0.93187208  0.56504741  1
  O2-  O161  1  0.17432014  0.92736654  0.91207992  1
  O2-  O162  1  0.67828844  0.42371501  0.24385870  1
  O2-  O163  1  0.67732434  0.42842086  0.57672579  1
  O2-  O164  1  0.68015454  0.41893818  0.91222304  1
  O2-  O165  1  0.68185535  0.93085850  0.23250775  1
  O2-  O166  1  0.67777147  0.92870198  0.57137315  1
  O2-  O167  1  0.67875865  0.93536850  0.91219512  1
  O2-  O168  1  0.42506909  0.32059688  0.09116558  1
  O2-  O169  1  0.42864476  0.32059764  0.41957163  1
  O2-  O170  1  0.42814461  0.31945203  0.76513982  1
  O2-  O171  1  0.43308191  0.82206959  0.09974310  1
  O2-  O172  1  0.42512036  0.82265869  0.42251521  1
  O2-  O173  1  0.42855409  0.82053469  0.76486692  1
  O2-  O174  1  0.93023025  0.31901921  0.09044954  1
  O2-  O175  1  0.92831956  0.32746242  0.42078497  1
  O2-  O176  1  0.93075344  0.32283669  0.75734732  1
  O2-  O177  1  0.92761595  0.82490890  0.08774943  1
  O2-  O178  1  0.92789994  0.82118047  0.43116116  1
  O2-  O179  1  0.93097854  0.81834212  0.76641763  1
  O2-  O180  1  0.31979846  0.06760163  0.23575643  1
  O2-  O181  1  0.31952276  0.07083198  0.57718039  1
  O2-  O182  1  0.31717566  0.07295974  0.90072814  1
  O2-  O183  1  0.32482537  0.57192187  0.24201624  1
  O2-  O184  1  0.32585550  0.57019607  0.57795197  1
  O2-  O185  1  0.32293107  0.56953285  0.90883930  1
  O2-  O186  1  0.82226678  0.07280746  0.23931580  1
  O2-  O187  1  0.82296934  0.06984715  0.56600187  1
  O2-  O188  1  0.82384409  0.07807598  0.91213183  1
  O2-  O189  1  0.81803844  0.56933209  0.23474220  1
  O2-  O190  1  0.81818765  0.57018610  0.56905315  1
  O2-  O191  1  0.82098058  0.56665871  0.90298287  1
  O2-  O192  1  0.04254321  0.08655134  0.25687732  1
  O2-  O193  1  0.04123229  0.08219208  0.60019784  1
  O2-  O194  1  0.04929612  0.08565923  0.94158530  1
  O2-  O195  1  0.04262057  0.58210916  0.27169573  1
  O2-  O196  1  0.04023274  0.57588033  0.60123498  1
  O2-  O197  1  0.03568884  0.58067523  0.93485456  1
  O2-  O198  1  0.53709483  0.08217659  0.26446613  1
  O2-  O199  1  0.54362656  0.08143086  0.59917380  1
  O2-  O200  1  0.54271099  0.08870889  0.93908142  1
  O2-  O201  1  0.54609643  0.58154901  0.26557930  1
  O2-  O202  1  0.54845381  0.58580575  0.60396476  1
  O2-  O203  1  0.55118577  0.57598744  0.93443157  1
  O2-  O204  1  0.16804598  0.21554879  0.26385907  1
  O2-  O205  1  0.16430465  0.21240459  0.60101415  1
  O2-  O206  1  0.16280645  0.21282557  0.93831514  1
  O2-  O207  1  0.16692418  0.69684505  0.27220433  1
  O2-  O208  1  0.17104493  0.69638382  0.59902889  1
  O2-  O209  1  0.16650053  0.70124577  0.93331458  1
  O2-  O210  1  0.66833967  0.20745868  0.26197343  1
  O2-  O211  1  0.67126511  0.20679149  0.59882579  1
  O2-  O212  1  0.66400546  0.20701532  0.93975059  1
  O2-  O213  1  0.66338381  0.71709786  0.26589482  1
  O2-  O214  1  0.66687534  0.70601609  0.60806317  1
  O2-  O215  1  0.67083913  0.71057976  0.93248989  1
  O2-  O216  1  0.08795912  0.45581577  0.06324771  1
  O2-  O217  1  0.08437265  0.45775582  0.40278665  1
  O2-  O218  1  0.08505945  0.45661171  0.73963585  1
  O2-  O219  1  0.08306546  0.95271422  0.06436230  1
  O2-  O220  1  0.08075560  0.95774058  0.39011458  1
  O2-  O221  1  0.08533505  0.95968086  0.73608705  1
  O2-  O222  1  0.57978893  0.44252897  0.06072790  1
  O2-  O223  1  0.58112206  0.44747592  0.39294249  1
  O2-  O224  1  0.58071792  0.45172834  0.72724322  1
  O2-  O225  1  0.59033053  0.96313036  0.06551798  1
  O2-  O226  1  0.58439192  0.95959057  0.39992128  1
  O2-  O227  1  0.57852441  0.96029541  0.73809571  1
  O2-  O228  1  0.21042192  0.33843823  0.06553615  1
  O2-  O229  1  0.21344127  0.33582083  0.40082682  1
  O2-  O230  1  0.21422803  0.33284971  0.73830323  1
  O2-  O231  1  0.19904497  0.83018378  0.06266669  1
  O2-  O232  1  0.19427450  0.83169133  0.39255707  1
  O2-  O233  1  0.20876444  0.82874035  0.72965223  1
  O2-  O234  1  0.70911048  0.33449283  0.06689350  1
  O2-  O235  1  0.70439962  0.33156073  0.39477596  1
  O2-  O236  1  0.70034705  0.33463539  0.72959837  1
  O2-  O237  1  0.70827261  0.84054082  0.06341964  1
  O2-  O238  1  0.71328393  0.83625028  0.40126584  1
  O2-  O239  1  0.70596980  0.83296634  0.74119768  1
  O2-  O240  1  0.45201992  0.41498705  0.26736227  1
  O2-  O241  1  0.45300748  0.42118360  0.59657329  1
  O2-  O242  1  0.45052036  0.41172114  0.93682452  1
  O2-  O243  1  0.45662698  0.91510546  0.27182943  1
  O2-  O244  1  0.45733309  0.91798222  0.59799809  1
  O2-  O245  1  0.46170511  0.91952957  0.93313579  1
  O2-  O246  1  0.95900665  0.41775926  0.26848765  1
  O2-  O247  1  0.96034148  0.41352822  0.60476811  1
  O2-  O248  1  0.96013509  0.41002337  0.93808572  1
  O2-  O249  1  0.95743055  0.91448474  0.25850811  1
  O2-  O250  1  0.95825680  0.91773517  0.60040548  1
  O2-  O251  1  0.95173831  0.91982473  0.93769653  1
  O2-  O252  1  0.33547525  0.29302871  0.26820253  1
  O2-  O253  1  0.33073175  0.29256836  0.59737982  1
  O2-  O254  1  0.33584788  0.28858416  0.93885828  1
  O2-  O255  1  0.32985897  0.80348636  0.27103453  1
  O2-  O256  1  0.33433441  0.78960343  0.59401903  1
  O2-  O257  1  0.32949189  0.79720235  0.93532302  1
  O2-  O258  1  0.83573984  0.30198801  0.26652097  1
  O2-  O259  1  0.83229613  0.30649922  0.60660045  1
  O2-  O260  1  0.83692344  0.29460758  0.93773140  1
  O2-  O261  1  0.83407588  0.78575645  0.26337192  1
  O2-  O262  1  0.82884603  0.79096312  0.60354065  1
  O2-  O263  1  0.83407043  0.79972429  0.93762278  1
  O2-  O264  1  0.41726344  0.04019034  0.06805123  1
  O2-  O265  1  0.41569125  0.03949280  0.40417313  1
  O2-  O266  1  0.41528598  0.04741114  0.72773781  1
  O2-  O267  1  0.41429168  0.54168499  0.06121671  1
  O2-  O268  1  0.41829708  0.54699112  0.39391081  1
  O2-  O269  1  0.41734818  0.54526847  0.73091951  1
  O2-  O270  1  0.91688023  0.04924034  0.06344469  1
  O2-  O271  1  0.91927286  0.04676651  0.38646754  1
  O2-  O272  1  0.91865913  0.04206234  0.73600601  1
  O2-  O273  1  0.91326134  0.53328068  0.07096084  1
  O2-  O274  1  0.91362226  0.53992866  0.40313856  1
  O2-  O275  1  0.91420435  0.53471634  0.73754048  1
  O2-  O276  1  0.28697427  0.16445693  0.07071625  1
  O2-  O277  1  0.28940787  0.16556645  0.40161817  1
  O2-  O278  1  0.29301111  0.16401496  0.72821288  1
  O2-  O279  1  0.29523919  0.66317755  0.06160084  1
  O2-  O280  1  0.30339937  0.66991277  0.39194178  1
  O2-  O281  1  0.30006785  0.66652737  0.72826740  1
  O2-  O282  1  0.79556368  0.16643456  0.06480106  1
  O2-  O283  1  0.80407001  0.17016212  0.38830932  1
  O2-  O284  1  0.79717010  0.17268128  0.73262205  1
  O2-  O285  1  0.79251515  0.66990091  0.06779929  1
  O2-  O286  1  0.78474646  0.66620166  0.40110179  1
  O2-  O287  1  0.79031476  0.66533374  0.73915448  1
