# generated using pymatgen
data_Ca2Al2SiO7
_symmetry_space_group_name_H-M   'P 1'
_cell_length_a   15.46513225
_cell_length_b   15.46242596
_cell_length_c   15.28829012
_cell_angle_alpha   90.00187162
_cell_angle_beta   90.01133858
_cell_angle_gamma   90.01485129
_symmetry_Int_Tables_number   1
_chemical_formula_structural   Ca2Al2SiO7
_chemical_formula_sum   'Ca48 Al48 Si24 O168'
_cell_volume   3655.86511131
_cell_formula_units_Z   24
loop_
 _symmetry_equiv_pos_site_id
 _symmetry_equiv_pos_as_xyz
  1  'x, y, z'
loop_
 _atom_type_symbol
 _atom_type_oxidation_number
  Ca2+  2.0
  Al0+  0.0
  Si0+  0.0
  O2-  -2.0
loop_
 _atom_site_type_symbol
 _atom_site_label
 _atom_site_symmetry_multiplicity
 _atom_site_fract_x
 _atom_site_fract_y
 _atom_site_fract_z
 _atom_site_occupancy
  Ca2+  Ca0  1  0.16470262  0.08033544  0.17742670  1
  Ca2+  Ca1  1  0.16825450  0.07888627  0.50408088  1
  Ca2+  Ca2  1  0.16405598  0.08358516  0.83161825  1
  Ca2+  Ca3  1  0.16126747  0.57275730  0.16758752  1
  Ca2+  Ca4  1  0.16754908  0.57099241  0.51041830  1
  Ca2+  Ca5  1  0.16822516  0.58058136  0.84323160  1
  Ca2+  Ca6  1  0.67572859  0.07780762  0.17084281  1
  Ca2+  Ca7  1  0.67734853  0.08722137  0.50021977  1
  Ca2+  Ca8  1  0.66961354  0.07689387  0.84292087  1
  Ca2+  Ca9  1  0.66931755  0.57690007  0.17113766  1
  Ca2+  Ca10  1  0.67312657  0.58141357  0.49646338  1
  Ca2+  Ca11  1  0.66981275  0.57992916  0.84431707  1
  Ca2+  Ca12  1  0.08619487  0.32460715  0.15961506  1
  Ca2+  Ca13  1  0.09731665  0.32312504  0.49506782  1
  Ca2+  Ca14  1  0.09206221  0.32779299  0.83185906  1
  Ca2+  Ca15  1  0.07872207  0.83136920  0.16333020  1
  Ca2+  Ca16  1  0.08829304  0.83019288  0.49464616  1
  Ca2+  Ca17  1  0.09347572  0.82070904  0.82912329  1
  Ca2+  Ca18  1  0.57943505  0.34132242  0.16401907  1
  Ca2+  Ca19  1  0.57263738  0.33508461  0.48922544  1
  Ca2+  Ca20  1  0.58170985  0.33692156  0.83160460  1
  Ca2+  Ca21  1  0.57748705  0.82789846  0.15381951  1
  Ca2+  Ca22  1  0.57871863  0.83105278  0.49445343  1
  Ca2+  Ca23  1  0.57749474  0.83217019  0.83684092  1
  Ca2+  Ca24  1  0.32461575  0.42030410  0.17041779  1
  Ca2+  Ca25  1  0.32400726  0.41605205  0.50230020  1
  Ca2+  Ca26  1  0.32001253  0.42832848  0.83660498  1
  Ca2+  Ca27  1  0.32797707  0.92146203  0.17259598  1
  Ca2+  Ca28  1  0.32114935  0.92748927  0.50420032  1
  Ca2+  Ca29  1  0.33114589  0.91978129  0.83444011  1
  Ca2+  Ca30  1  0.82573766  0.41698555  0.17187604  1
  Ca2+  Ca31  1  0.82989862  0.41843397  0.49754167  1
  Ca2+  Ca32  1  0.82883031  0.41234291  0.84403079  1
  Ca2+  Ca33  1  0.83088809  0.91667672  0.17532910  1
  Ca2+  Ca34  1  0.84236734  0.92053807  0.49625173  1
  Ca2+  Ca35  1  0.82726228  0.91703795  0.83967276  1
  Ca2+  Ca36  1  0.40964059  0.17404099  0.16722909  1
  Ca2+  Ca37  1  0.40928855  0.16956912  0.49147869  1
  Ca2+  Ca38  1  0.41562009  0.16708590  0.82762578  1
  Ca2+  Ca39  1  0.42001378  0.67200130  0.15289808  1
  Ca2+  Ca40  1  0.41410432  0.66259574  0.49786243  1
  Ca2+  Ca41  1  0.41409768  0.66310392  0.83431981  1
  Ca2+  Ca42  1  0.92719686  0.16861673  0.16135049  1
  Ca2+  Ca43  1  0.92939971  0.16524139  0.49222588  1
  Ca2+  Ca44  1  0.92832795  0.17428796  0.83308061  1
  Ca2+  Ca45  1  0.91820820  0.66779925  0.16560447  1
  Ca2+  Ca46  1  0.92240001  0.67175453  0.49356648  1
  Ca2+  Ca47  1  0.93273258  0.66273977  0.83178170  1
  Al0+  Al48  1  0.00092745  0.00230263  -0.00561429  1
  Al0+  Al49  1  -0.00124838  -0.00263703  0.33209046  1
  Al0+  Al50  1  -0.00161874  0.00144260  0.66950128  1
  Al0+  Al51  1  -0.00198682  0.49977345  -0.00204713  1
  Al0+  Al52  1  -0.00076910  0.49870107  0.34238425  1
  Al0+  Al53  1  -0.00330870  0.49992881  0.66495740  1
  Al0+  Al54  1  0.50078216  -0.00020129  0.00136043  1
  Al0+  Al55  1  0.50075852  0.00006744  0.33537951  1
  Al0+  Al56  1  0.50174193  -0.00086631  0.66716834  1
  Al0+  Al57  1  0.50013824  0.50108134  0.00148418  1
  Al0+  Al58  1  0.50005724  0.49900624  0.33162168  1
  Al0+  Al59  1  0.50065246  0.49943040  0.66749015  1
  Al0+  Al60  1  0.25190877  0.25022313  -0.00302202  1
  Al0+  Al61  1  0.25209062  0.25113765  0.32905296  1
  Al0+  Al62  1  0.25143100  0.25108836  0.67026120  1
  Al0+  Al63  1  0.25054448  0.75368508  -0.00295550  1
  Al0+  Al64  1  0.25103656  0.74922052  0.33383162  1
  Al0+  Al65  1  0.25273959  0.75142731  0.66525620  1
  Al0+  Al66  1  0.75048667  0.24945983  0.00122529  1
  Al0+  Al67  1  0.74904072  0.24841189  0.34185741  1
  Al0+  Al68  1  0.75023485  0.24928197  0.66638521  1
  Al0+  Al69  1  0.74772179  0.75042511  -0.00001941  1
  Al0+  Al70  1  0.75052231  0.74897137  0.33387321  1
  Al0+  Al71  1  0.74879669  0.74879999  0.66603067  1
  Al0+  Al72  1  0.67942801  0.92874664  0.01395040  1
  Al0+  Al73  1  0.17741033  0.92714490  0.34647460  1
  Al0+  Al74  1  0.07051891  0.18160990  0.65094654  1
  Al0+  Al75  1  0.43022561  0.32036647  0.31785464  1
  Al0+  Al76  1  0.67921763  0.42796401  0.01320329  1
  Al0+  Al77  1  0.32195870  0.07125152  0.68250501  1
  Al0+  Al78  1  0.07313525  0.67910619  0.65223353  1
  Al0+  Al79  1  0.82155574  0.06994034  0.34647156  1
  Al0+  Al80  1  0.31923990  0.57374902  0.01584886  1
  Al0+  Al81  1  0.42835937  0.82349885  0.98355127  1
  Al0+  Al82  1  0.92779779  0.32073928  0.98763610  1
  Al0+  Al83  1  0.32243586  0.57133453  0.68050827  1
  Al0+  Al84  1  0.32099666  0.07145627  0.34577430  1
  Al0+  Al85  1  0.93032429  0.81907820  0.32008816  1
  Al0+  Al86  1  0.17618277  0.42961773  0.68246857  1
  Al0+  Al87  1  0.17744342  0.42841849  0.01635812  1
  Al0+  Al88  1  0.17925899  0.42911651  0.34608054  1
  Al0+  Al89  1  0.82130937  0.57231978  0.34938028  1
  Al0+  Al90  1  0.06925524  0.68065616  0.98946516  1
  Al0+  Al91  1  0.17696480  0.92955366  0.68321949  1
  Al0+  Al92  1  0.67703395  0.42864237  0.34952680  1
  Al0+  Al93  1  0.07439415  0.17883961  0.98284741  1
  Al0+  Al94  1  0.07034823  0.18018171  0.32065541  1
  Al0+  Al95  1  0.57057341  0.67775068  0.98417966  1
  Si0+  Si96  1  0.57117373  0.67853990  0.64960645  1
  Si0+  Si97  1  0.92552678  0.32256023  0.31898835  1
  Si0+  Si98  1  0.67813310  0.92714414  0.35090205  1
  Si0+  Si99  1  0.92347019  0.32182152  0.64722608  1
  Si0+  Si100  1  0.42973115  0.32217383  0.98268146  1
  Si0+  Si101  1  0.57442533  0.17621195  0.31621566  1
  Si0+  Si102  1  0.17782197  0.93064254  0.01446295  1
  Si0+  Si103  1  0.57025410  0.67982058  0.31845822  1
  Si0+  Si104  1  0.07349494  0.67507937  0.31802381  1
  Si0+  Si105  1  0.82016323  0.07199552  0.68397675  1
  Si0+  Si106  1  0.68030217  0.42920085  0.68150920  1
  Si0+  Si107  1  0.92662589  0.82384444  0.98362764  1
  Si0+  Si108  1  0.82244142  0.57306728  0.01584643  1
  Si0+  Si109  1  0.82258733  0.07057848  0.01624822  1
  Si0+  Si110  1  0.67944556  0.92775145  0.68155698  1
  Si0+  Si111  1  0.42911048  0.82191394  0.31900103  1
  Si0+  Si112  1  0.57293438  0.17646130  0.65136970  1
  Si0+  Si113  1  0.92569112  0.82036239  0.65147653  1
  Si0+  Si114  1  0.32243806  0.57225717  0.34796781  1
  Si0+  Si115  1  0.57072433  0.17973429  0.98649817  1
  Si0+  Si116  1  0.43065767  0.82338748  0.64832248  1
  Si0+  Si117  1  0.32251279  0.07115135  0.01476804  1
  Si0+  Si118  1  0.43279004  0.31949541  0.65252137  1
  Si0+  Si119  1  0.81885924  0.57247459  0.68320716  1
  O2-  O120  1  0.24722011  0.00401526  0.05544970  1
  O2-  O121  1  0.24781035  0.00120015  0.39550656  1
  O2-  O122  1  0.24892294  0.00165437  0.73418411  1
  O2-  O123  1  0.24738298  0.50252328  0.06673923  1
  O2-  O124  1  0.25074259  0.50740176  0.39211180  1
  O2-  O125  1  0.24171250  0.50919042  0.73018847  1
  O2-  O126  1  0.75825807  -0.00190519  0.06079443  1
  O2-  O127  1  0.74595260  -0.00383893  0.39560993  1
  O2-  O128  1  0.74988504  -0.00095635  0.72427763  1
  O2-  O129  1  0.75334730  0.50363842  0.05815501  1
  O2-  O130  1  0.75096422  0.49826365  0.39988366  1
  O2-  O131  1  0.75274779  0.49695596  0.72524943  1
  O2-  O132  1  -0.00461035  0.25549931  0.27485530  1
  O2-  O133  1  -0.00200301  0.25907814  0.60426645  1
  O2-  O134  1  0.00465714  0.25509355  0.93582966  1
  O2-  O135  1  0.00535384  0.74474125  0.27407559  1
  O2-  O136  1  -0.00046909  0.75699577  0.60785304  1
  O2-  O137  1  -0.00478708  0.75545371  0.93991956  1
  O2-  O138  1  0.50622879  0.24518511  0.27198625  1
  O2-  O139  1  0.50037184  0.24511997  0.60930657  1
  O2-  O140  1  0.50175480  0.25097799  0.94127465  1
  O2-  O141  1  0.49915373  0.75037621  0.27668397  1
  O2-  O142  1  0.49824493  0.74756305  0.60716812  1
  O2-  O143  1  0.49713822  0.74791456  0.93299127  1
  O2-  O144  1  0.07246656  0.17473682  0.09641952  1
  O2-  O145  1  0.07037221  0.18058006  0.43393519  1
  O2-  O146  1  0.06735318  0.18186940  0.76372087  1
  O2-  O147  1  0.06672848  0.68216025  0.10253782  1
  O2-  O148  1  0.07349967  0.67670391  0.42364551  1
  O2-  O149  1  0.06979972  0.67912318  0.76552408  1
  O2-  O150  1  0.57011934  0.17907427  0.09117443  1
  O2-  O151  1  0.57380342  0.17596565  0.42225404  1
  O2-  O152  1  0.57547913  0.17739857  0.75670825  1
  O2-  O153  1  0.57094810  0.68014383  0.09805762  1
  O2-  O154  1  0.56925998  0.68126020  0.42437178  1
  O2-  O155  1  0.57480920  0.67899352  0.75395151  1
  O2-  O156  1  0.17922364  0.42928983  0.23328213  1
  O2-  O157  1  0.18234969  0.42707998  0.56878494  1
  O2-  O158  1  0.18029350  0.42901863  0.90293677  1
  O2-  O159  1  0.17976744  0.92625431  0.23237434  1
  O2-  O160  1  0.17825504  0.93051573  0.56974400  1
  O2-  O161  1  0.17795937  0.93029345  0.90957259  1
  O2-  O162  1  0.67706949  0.43143838  0.23621680  1
  O2-  O163  1  0.67942981  0.43041763  0.57682134  1
  O2-  O164  1  0.68108831  0.42755102  0.89923171  1
  O2-  O165  1  0.67801341  0.92719612  0.24556151  1
  O2-  O166  1  0.67875004  0.92753678  0.57650906  1
  O2-  O167  1  0.68033386  0.93242679  0.90009950  1
  O2-  O168  1  0.42929094  0.32034810  0.08763725  1
  O2-  O169  1  0.43146727  0.32034348  0.43149629  1
  O2-  O170  1  0.43846602  0.31993287  0.75762371  1
  O2-  O171  1  0.43128534  0.82545785  0.09762943  1
  O2-  O172  1  0.43169007  0.82127098  0.42433975  1
  O2-  O173  1  0.43513242  0.82828846  0.75272764  1
  O2-  O174  1  0.92345944  0.31579499  0.10096241  1
  O2-  O175  1  0.92467234  0.31973022  0.42473802  1
  O2-  O176  1  0.91376219  0.31656567  0.75205651  1
  O2-  O177  1  0.92759169  0.82502209  0.08912627  1
  O2-  O178  1  0.92946833  0.81771958  0.43331279  1
  O2-  O179  1  0.91853203  0.81589337  0.75679317  1
  O2-  O180  1  0.32189846  0.06869752  0.23180868  1
  O2-  O181  1  0.32417046  0.06949914  0.56939669  1
  O2-  O182  1  0.32595672  0.06983231  0.90984092  1
  O2-  O183  1  0.32381122  0.57276870  0.24283290  1
  O2-  O184  1  0.32704794  0.56470061  0.56673233  1
  O2-  O185  1  0.31795999  0.57107121  0.90227683  1
  O2-  O186  1  0.81919505  0.06797220  0.23357959  1
  O2-  O187  1  0.81864973  0.07266160  0.57892019  1
  O2-  O188  1  0.81874521  0.07023527  0.91016160  1
  O2-  O189  1  0.81844469  0.57373138  0.23596884  1
  O2-  O190  1  0.81476986  0.57549320  0.57849434  1
  O2-  O191  1  0.82080232  0.57372183  0.90976755  1
  O2-  O192  1  0.03841015  0.08340178  0.26792227  1
  O2-  O193  1  0.03551231  0.08400487  0.60025788  1
  O2-  O194  1  0.04159480  0.08243745  0.92698886  1
  O2-  O195  1  0.04453405  0.58129879  0.27427128  1
  O2-  O196  1  0.03857715  0.58284814  0.59883000  1
  O2-  O197  1  0.03838546  0.58513638  0.93328452  1
  O2-  O198  1  0.55027451  0.08157819  0.27092077  1
  O2-  O199  1  0.54998231  0.08344052  0.60417520  1
  O2-  O200  1  0.54170115  0.08881105  0.93760218  1
  O2-  O201  1  0.54390342  0.58784371  0.27193021  1
  O2-  O202  1  0.54447094  0.58596769  0.60250763  1
  O2-  O203  1  0.54482771  0.57858566  0.93063915  1
  O2-  O204  1  0.16620854  0.21029312  0.26573565  1
  O2-  O205  1  0.16991148  0.21032605  0.60078497  1
  O2-  O206  1  0.17358067  0.20452896  0.92973884  1
  O2-  O207  1  0.16777020  0.69893843  0.27244193  1
  O2-  O208  1  0.17108687  0.70619262  0.59864422  1
  O2-  O209  1  0.16456545  0.71300459  0.93434806  1
  O2-  O210  1  0.66901409  0.20084477  0.27213706  1
  O2-  O211  1  0.66391041  0.20670532  0.60313873  1
  O2-  O212  1  0.66258333  0.20534715  0.93764716  1
  O2-  O213  1  0.66176362  0.70793678  0.27198769  1
  O2-  O214  1  0.66133017  0.71051734  0.60019331  1
  O2-  O215  1  0.66867810  0.70835729  0.93034559  1
  O2-  O216  1  0.07708454  0.45462715  0.06623982  1
  O2-  O217  1  0.08280658  0.45272300  0.40307875  1
  O2-  O218  1  0.07304386  0.44791058  0.72949266  1
  O2-  O219  1  0.08448120  0.95714276  0.05997130  1
  O2-  O220  1  0.07871525  0.95160851  0.39856172  1
  O2-  O221  1  0.07734447  0.95488919  0.73572234  1
  O2-  O222  1  0.58284399  0.45774286  0.06660121  1
  O2-  O223  1  0.58006189  0.46188422  0.40343848  1
  O2-  O224  1  0.58963892  0.45894664  0.72930812  1
  O2-  O225  1  0.58506468  0.96411265  0.06899115  1
  O2-  O226  1  0.58489000  0.95229468  0.39818915  1
  O2-  O227  1  0.58881707  0.95630905  0.72993664  1
  O2-  O228  1  0.21037958  0.32942221  0.06589462  1
  O2-  O229  1  0.21756124  0.33497442  0.39902580  1
  O2-  O230  1  0.21358577  0.33497372  0.73645572  1
  O2-  O231  1  0.20655815  0.84016387  0.06277000  1
  O2-  O232  1  0.20884123  0.82942568  0.39998373  1
  O2-  O233  1  0.20935497  0.83127695  0.73370189  1
  O2-  O234  1  0.70812894  0.33107100  0.06747202  1
  O2-  O235  1  0.70022680  0.32971532  0.40385701  1
  O2-  O236  1  0.70467793  0.33538150  0.72744360  1
  O2-  O237  1  0.70511544  0.83114251  0.06774687  1
  O2-  O238  1  0.70416062  0.83425734  0.39774658  1
  O2-  O239  1  0.70778676  0.83599064  0.72881951  1
  O2-  O240  1  0.46217119  0.41664085  0.26315551  1
  O2-  O241  1  0.46561992  0.40937519  0.60388887  1
  O2-  O242  1  0.45937657  0.41290420  0.93530586  1
  O2-  O243  1  0.45784032  0.91365908  0.27200924  1
  O2-  O244  1  0.46590764  0.91241787  0.59900936  1
  O2-  O245  1  0.46448081  0.91985583  0.92967916  1
  O2-  O246  1  0.94774950  0.41840270  0.27679035  1
  O2-  O247  1  0.93976893  0.41884258  0.60548157  1
  O2-  O248  1  0.94588485  0.42121427  0.93497403  1
  O2-  O249  1  0.95768747  0.91482164  0.26317751  1
  O2-  O250  1  0.94505416  0.91732174  0.61028694  1
  O2-  O251  1  0.95036647  0.91722170  0.93620961  1
  O2-  O252  1  0.33640256  0.28844091  0.25983469  1
  O2-  O253  1  0.34011139  0.29445276  0.60669637  1
  O2-  O254  1  0.33996562  0.29220290  0.93326567  1
  O2-  O255  1  0.33716920  0.79541519  0.27134312  1
  O2-  O256  1  0.33858504  0.79982440  0.60027788  1
  O2-  O257  1  0.32965175  0.80055472  0.92992512  1
  O2-  O258  1  0.83066494  0.29596823  0.27591238  1
  O2-  O259  1  0.83210232  0.28968969  0.59818863  1
  O2-  O260  1  0.83131382  0.28609490  0.93111775  1
  O2-  O261  1  0.83260320  0.78876974  0.26634020  1
  O2-  O262  1  0.83416494  0.78980034  0.60214854  1
  O2-  O263  1  0.83251532  0.79905661  0.93844976  1
  O2-  O264  1  0.41256578  0.04088875  0.06367721  1
  O2-  O265  1  0.42011484  0.04422872  0.39926299  1
  O2-  O266  1  0.42200001  0.04177121  0.73394900  1
  O2-  O267  1  0.41839857  0.54470897  0.06633643  1
  O2-  O268  1  0.41507779  0.54406903  0.39447691  1
  O2-  O269  1  0.41892097  0.53579465  0.73478512  1
  O2-  O270  1  0.91805734  0.04865066  0.05915576  1
  O2-  O271  1  0.91542699  0.03539374  0.40258836  1
  O2-  O272  1  0.91063049  0.04566519  0.73325983  1
  O2-  O273  1  0.91502802  0.54877837  0.06307873  1
  O2-  O274  1  0.91839812  0.54660951  0.40591782  1
  O2-  O275  1  0.91202497  0.54898390  0.72878864  1
  O2-  O276  1  0.29905088  0.16492688  0.05954065  1
  O2-  O277  1  0.29502575  0.17044072  0.39672340  1
  O2-  O278  1  0.29794584  0.17027341  0.73533360  1
  O2-  O279  1  0.29545628  0.67491533  0.06531104  1
  O2-  O280  1  0.30226001  0.66689021  0.39452130  1
  O2-  O281  1  0.30812276  0.67448013  0.72662393  1
  O2-  O282  1  0.79105100  0.16129004  0.06326796  1
  O2-  O283  1  0.79102901  0.16400440  0.40578923  1
  O2-  O284  1  0.78760781  0.16226919  0.73171143  1
  O2-  O285  1  0.79620643  0.66656818  0.06151086  1
  O2-  O286  1  0.78722536  0.66854796  0.40487286  1
  O2-  O287  1  0.78521200  0.66191414  0.73170977  1
