# generated using pymatgen
data_Ca2Al2SiO7
_symmetry_space_group_name_H-M   'P 1'
_cell_length_a   15.46749843
_cell_length_b   15.46672884
_cell_length_c   15.28889066
_cell_angle_alpha   89.99249369
_cell_angle_beta   90.02126403
_cell_angle_gamma   89.98282508
_symmetry_Int_Tables_number   1
_chemical_formula_structural   Ca2Al2SiO7
_chemical_formula_sum   'Ca48 Al48 Si24 O168'
_cell_volume   3657.58538842
_cell_formula_units_Z   24
loop_
 _symmetry_equiv_pos_site_id
 _symmetry_equiv_pos_as_xyz
  1  'x, y, z'
loop_
 _atom_type_symbol
 _atom_type_oxidation_number
  Ca2+  2.0
  Al0+  0.0
  Si0+  0.0
  O2-  -2.0
loop_
 _atom_site_type_symbol
 _atom_site_label
 _atom_site_symmetry_multiplicity
 _atom_site_fract_x
 _atom_site_fract_y
 _atom_site_fract_z
 _atom_site_occupancy
  Ca2+  Ca0  1  0.16910496  0.08464216  0.17803093  1
  Ca2+  Ca1  1  0.17325891  0.08803034  0.50295682  1
  Ca2+  Ca2  1  0.17197129  0.09246721  0.83560741  1
  Ca2+  Ca3  1  0.16276147  0.57807080  0.17253270  1
  Ca2+  Ca4  1  0.16166756  0.58625981  0.50400001  1
  Ca2+  Ca5  1  0.16339331  0.57824798  0.83993403  1
  Ca2+  Ca6  1  0.65977667  0.07455683  0.17454634  1
  Ca2+  Ca7  1  0.67091475  0.08002038  0.50252560  1
  Ca2+  Ca8  1  0.67400813  0.07894874  0.84118137  1
  Ca2+  Ca9  1  0.67126962  0.57503642  0.17351783  1
  Ca2+  Ca10  1  0.65851287  0.57986238  0.49896409  1
  Ca2+  Ca11  1  0.66971942  0.58035737  0.84334254  1
  Ca2+  Ca12  1  0.08288533  0.32442518  0.16417159  1
  Ca2+  Ca13  1  0.07515778  0.32160670  0.49118037  1
  Ca2+  Ca14  1  0.08666669  0.32624817  0.83193605  1
  Ca2+  Ca15  1  0.07053226  0.83928440  0.16580359  1
  Ca2+  Ca16  1  0.08177490  0.82605707  0.48832282  1
  Ca2+  Ca17  1  0.07545279  0.82653640  0.82746041  1
  Ca2+  Ca18  1  0.58506807  0.32653629  0.16604077  1
  Ca2+  Ca19  1  0.57790984  0.32467946  0.48456407  1
  Ca2+  Ca20  1  0.59072973  0.32890807  0.83517229  1
  Ca2+  Ca21  1  0.59399000  0.83044884  0.16380893  1
  Ca2+  Ca22  1  0.58350743  0.82659685  0.49363969  1
  Ca2+  Ca23  1  0.58115362  0.83001764  0.82679278  1
  Ca2+  Ca24  1  0.32962289  0.41195214  0.17142057  1
  Ca2+  Ca25  1  0.33489317  0.41528903  0.50030509  1
  Ca2+  Ca26  1  0.32519225  0.42008640  0.84050612  1
  Ca2+  Ca27  1  0.32303582  0.92544735  0.17978231  1
  Ca2+  Ca28  1  0.33069918  0.92694443  0.50273337  1
  Ca2+  Ca29  1  0.33542744  0.91974302  0.83287140  1
  Ca2+  Ca30  1  0.82579403  0.41572064  0.17343037  1
  Ca2+  Ca31  1  0.82889427  0.40996366  0.49836339  1
  Ca2+  Ca32  1  0.82775144  0.42818953  0.84512636  1
  Ca2+  Ca33  1  0.82694137  0.91141753  0.17167948  1
  Ca2+  Ca34  1  0.83179921  0.91764313  0.49799375  1
  Ca2+  Ca35  1  0.83054023  0.91882872  0.83901010  1
  Ca2+  Ca36  1  0.42557376  0.16419696  0.16977100  1
  Ca2+  Ca37  1  0.41611959  0.16818635  0.49046065  1
  Ca2+  Ca38  1  0.42333635  0.16423765  0.83156328  1
  Ca2+  Ca39  1  0.42350917  0.66713923  0.16831545  1
  Ca2+  Ca40  1  0.42530744  0.67456495  0.49630539  1
  Ca2+  Ca41  1  0.42410188  0.67582813  0.82154957  1
  Ca2+  Ca42  1  0.92668427  0.16768204  0.16536199  1
  Ca2+  Ca43  1  0.92418824  0.16412777  0.49298090  1
  Ca2+  Ca44  1  0.92854396  0.16232805  0.82716852  1
  Ca2+  Ca45  1  0.91268410  0.67665836  0.16604093  1
  Ca2+  Ca46  1  0.92635831  0.67292800  0.49093729  1
  Ca2+  Ca47  1  0.91267630  0.67149444  0.83243910  1
  Al0+  Al48  1  0.00089701  -0.00082364  -0.01131869  1
  Al0+  Al49  1  -0.00069247  -0.00243841  0.32970747  1
  Al0+  Al50  1  0.00064760  -0.00068010  0.66650773  1
  Al0+  Al51  1  0.00184412  0.50073906  0.00970608  1
  Al0+  Al52  1  -0.00110183  0.50011217  0.32868220  1
  Al0+  Al53  1  -0.00270214  0.49893523  0.66557121  1
  Al0+  Al54  1  0.50041721  0.00146898  -0.00113510  1
  Al0+  Al55  1  0.49811269  -0.00114627  0.34003680  1
  Al0+  Al56  1  0.49864190  0.00066142  0.66838352  1
  Al0+  Al57  1  0.49925325  0.50070373  0.00196364  1
  Al0+  Al58  1  0.49954650  0.50053311  0.32978366  1
  Al0+  Al59  1  0.49816042  0.49917007  0.66730793  1
  Al0+  Al60  1  0.25164044  0.25176018  0.00036958  1
  Al0+  Al61  1  0.25030447  0.25247210  0.33178898  1
  Al0+  Al62  1  0.24990430  0.24950951  0.66882553  1
  Al0+  Al63  1  0.25049227  0.75176776  -0.00015959  1
  Al0+  Al64  1  0.25143009  0.74807427  0.33353640  1
  Al0+  Al65  1  0.25090453  0.75081070  0.66081375  1
  Al0+  Al66  1  0.75199335  0.25020729  -0.00181205  1
  Al0+  Al67  1  0.74929657  0.24889685  0.33102445  1
  Al0+  Al68  1  0.75029540  0.24939876  0.67331452  1
  Al0+  Al69  1  0.75074887  0.75111386  0.00039146  1
  Al0+  Al70  1  0.75087672  0.74835954  0.33279707  1
  Al0+  Al71  1  0.74971297  0.74742432  0.66265649  1
  Al0+  Al72  1  0.31855889  0.07286580  0.34869357  1
  Al0+  Al73  1  0.17637931  0.92755192  0.34779213  1
  Al0+  Al74  1  0.92826592  0.81925283  0.98324908  1
  Al0+  Al75  1  0.57064100  0.17541208  0.32096847  1
  Al0+  Al76  1  0.07141539  0.17941504  0.65238616  1
  Al0+  Al77  1  0.67903127  0.92680712  0.34802431  1
  Al0+  Al78  1  0.42924394  0.82429054  0.64987109  1
  Al0+  Al79  1  0.92656245  0.32080970  0.31812223  1
  Al0+  Al80  1  0.82117271  0.57303161  0.01680926  1
  Al0+  Al81  1  0.82224459  0.07068206  0.68059461  1
  Al0+  Al82  1  0.32013331  0.07186875  0.68363835  1
  Al0+  Al83  1  0.57188271  0.67726805  0.65169320  1
  Al0+  Al84  1  0.92922613  0.82071564  0.31826026  1
  Al0+  Al85  1  0.07099571  0.17871229  0.31956452  1
  Al0+  Al86  1  0.07171862  0.18074599  0.98454539  1
  Al0+  Al87  1  0.67874360  0.42827589  0.34812134  1
  Al0+  Al88  1  0.57068340  0.68026888  0.31761322  1
  Al0+  Al89  1  0.42888638  0.32235493  0.31841369  1
  Al0+  Al90  1  0.57214516  0.17868979  0.98509143  1
  Al0+  Al91  1  0.67812768  0.42717963  0.01679072  1
  Al0+  Al92  1  0.67953257  0.93241176  0.01200665  1
  Al0+  Al93  1  0.07419340  0.67817184  0.31668090  1
  Al0+  Al94  1  0.18100516  0.42927998  0.01522538  1
  Al0+  Al95  1  0.06922733  0.67763613  0.65534003  1
  Si0+  Si96  1  0.82097626  0.56975885  0.68046333  1
  Si0+  Si97  1  0.67666078  0.42889795  0.68176991  1
  Si0+  Si98  1  0.92911418  0.32460537  0.98283005  1
  Si0+  Si99  1  0.42876657  0.82192912  0.31584892  1
  Si0+  Si100  1  0.42716039  0.82218455  0.98582220  1
  Si0+  Si101  1  0.82189562  0.07176696  0.34769759  1
  Si0+  Si102  1  0.32197233  0.57514437  0.01672894  1
  Si0+  Si103  1  0.07397907  0.67806163  0.98435949  1
  Si0+  Si104  1  0.67917851  0.92706138  0.68244674  1
  Si0+  Si105  1  0.17886137  0.92880146  0.01220356  1
  Si0+  Si106  1  0.32197546  0.57052981  0.35007491  1
  Si0+  Si107  1  0.17832923  0.43050941  0.68020310  1
  Si0+  Si108  1  0.32094497  0.57173044  0.68088555  1
  Si0+  Si109  1  0.82561466  0.07155110  0.01558803  1
  Si0+  Si110  1  0.57280677  0.18055386  0.65369310  1
  Si0+  Si111  1  0.42922565  0.32282081  0.98173116  1
  Si0+  Si112  1  0.92649048  0.32141924  0.65211205  1
  Si0+  Si113  1  0.17870650  0.92587259  0.68467321  1
  Si0+  Si114  1  0.82171779  0.57038999  0.35304450  1
  Si0+  Si115  1  0.56951412  0.68020358  0.98604961  1
  Si0+  Si116  1  0.17764985  0.43044213  0.35036390  1
  Si0+  Si117  1  0.32075360  0.07086357  0.01474294  1
  Si0+  Si118  1  0.42893710  0.31997591  0.65429433  1
  Si0+  Si119  1  0.92724219  0.82203695  0.64908654  1
  O2-  O120  1  0.24748595  0.00164575  0.05473703  1
  O2-  O121  1  0.24463258  0.00259304  0.39883997  1
  O2-  O122  1  0.24521484  -0.00334950  0.73052926  1
  O2-  O123  1  0.25373856  0.50653407  0.06109679  1
  O2-  O124  1  0.24773389  0.50250958  0.39293570  1
  O2-  O125  1  0.24618267  0.50474988  0.72342875  1
  O2-  O126  1  0.75271311  0.00795906  0.05988682  1
  O2-  O127  1  0.75193283  0.00415534  0.39264052  1
  O2-  O128  1  0.74837799  -0.00529199  0.72739480  1
  O2-  O129  1  0.75203700  0.49760299  0.06559645  1
  O2-  O130  1  0.75418039  0.50063426  0.39820118  1
  O2-  O131  1  0.74638661  0.50201076  0.72231084  1
  O2-  O132  1  -0.00083938  0.24978989  0.26827444  1
  O2-  O133  1  -0.00776776  0.25009525  0.60832649  1
  O2-  O134  1  -0.00380572  0.25496202  0.93701327  1
  O2-  O135  1  0.00435351  0.75198449  0.26761987  1
  O2-  O136  1  -0.00182006  0.75454124  0.60768516  1
  O2-  O137  1  0.00289606  0.74297265  0.93838393  1
  O2-  O138  1  0.50067636  0.24943222  0.27059747  1
  O2-  O139  1  0.50088710  0.25052960  0.61214197  1
  O2-  O140  1  0.50099509  0.25741138  0.93706728  1
  O2-  O141  1  0.50079711  0.75850145  0.26884364  1
  O2-  O142  1  0.50360695  0.75313182  0.60259588  1
  O2-  O143  1  0.49776462  0.75037881  0.94375035  1
  O2-  O144  1  0.07249655  0.17985763  0.09691008  1
  O2-  O145  1  0.07019919  0.18131945  0.43339859  1
  O2-  O146  1  0.07324566  0.18477425  0.76571598  1
  O2-  O147  1  0.07886530  0.68279978  0.08883747  1
  O2-  O148  1  0.07074282  0.67787206  0.43094587  1
  O2-  O149  1  0.06657374  0.67591410  0.76870310  1
  O2-  O150  1  0.56673604  0.17389782  0.09707094  1
  O2-  O151  1  0.57052644  0.17806378  0.43538196  1
  O2-  O152  1  0.57288016  0.18300932  0.75904671  1
  O2-  O153  1  0.56801754  0.68059675  0.09077451  1
  O2-  O154  1  0.56673116  0.67938310  0.43066159  1
  O2-  O155  1  0.57000678  0.67628974  0.76610415  1
  O2-  O156  1  0.18022180  0.43023931  0.24537687  1
  O2-  O157  1  0.17966116  0.43043306  0.57541924  1
  O2-  O158  1  0.18294666  0.43070096  0.90092764  1
  O2-  O159  1  0.17946291  0.92914870  0.23331398  1
  O2-  O160  1  0.18010247  0.92548156  0.57974326  1
  O2-  O161  1  0.18246902  0.92548519  0.90706446  1
  O2-  O162  1  0.67889303  0.43058451  0.23567215  1
  O2-  O163  1  0.67581540  0.42642171  0.57712655  1
  O2-  O164  1  0.67799079  0.43190663  0.90184023  1
  O2-  O165  1  0.68051543  0.92784745  0.23478309  1
  O2-  O166  1  0.68011933  0.92784543  0.57713557  1
  O2-  O167  1  0.67946791  0.93153333  0.89839733  1
  O2-  O168  1  0.42669022  0.32131930  0.08649553  1
  O2-  O169  1  0.42976465  0.32274062  0.43303733  1
  O2-  O170  1  0.42920466  0.32158013  0.75944232  1
  O2-  O171  1  0.42439504  0.82134193  0.09033058  1
  O2-  O172  1  0.42903394  0.81819000  0.42122795  1
  O2-  O173  1  0.43042451  0.82097593  0.76472179  1
  O2-  O174  1  0.93032443  0.32243302  0.08779310  1
  O2-  O175  1  0.92891613  0.31942531  0.43263495  1
  O2-  O176  1  0.92860350  0.32494928  0.75758502  1
  O2-  O177  1  0.92891804  0.82109840  0.09534728  1
  O2-  O178  1  0.92815096  0.81771308  0.43220122  1
  O2-  O179  1  0.92561936  0.81936478  0.75501697  1
  O2-  O180  1  0.31919711  0.07022365  0.23445923  1
  O2-  O181  1  0.31885632  0.07595560  0.57163582  1
  O2-  O182  1  0.32140930  0.06984622  0.90922823  1
  O2-  O183  1  0.32264344  0.57004566  0.24487279  1
  O2-  O184  1  0.32346426  0.56778340  0.57624277  1
  O2-  O185  1  0.32133914  0.57509788  0.91054902  1
  O2-  O186  1  0.82277052  0.07139816  0.24221574  1
  O2-  O187  1  0.81905686  0.07283889  0.56781501  1
  O2-  O188  1  0.82461909  0.06795558  0.90943971  1
  O2-  O189  1  0.81925487  0.57093471  0.24773131  1
  O2-  O190  1  0.82484024  0.56753027  0.57618602  1
  O2-  O191  1  0.81758194  0.57262199  0.90167484  1
  O2-  O192  1  0.04503292  0.08026235  0.26689549  1
  O2-  O193  1  0.04548281  0.08060457  0.60175680  1
  O2-  O194  1  0.04347479  0.08489620  0.92710394  1
  O2-  O195  1  0.04458659  0.58051030  0.26448531  1
  O2-  O196  1  0.03759847  0.58154200  0.60059622  1
  O2-  O197  1  0.05205425  0.58167150  0.94257058  1
  O2-  O198  1  0.53872608  0.07764069  0.26873812  1
  O2-  O199  1  0.54745412  0.08741291  0.60981687  1
  O2-  O200  1  0.53642250  0.08406297  0.92834370  1
  O2-  O201  1  0.53495799  0.58630596  0.26287640  1
  O2-  O202  1  0.53831601  0.57950241  0.60028879  1
  O2-  O203  1  0.54225013  0.58793233  0.93840861  1
  O2-  O204  1  0.16801487  0.21011764  0.26680970  1
  O2-  O205  1  0.16672244  0.21568807  0.60013441  1
  O2-  O206  1  0.16860547  0.21503628  0.93149373  1
  O2-  O207  1  0.17515914  0.69908934  0.26647353  1
  O2-  O208  1  0.16724288  0.70266539  0.60236477  1
  O2-  O209  1  0.16686979  0.70612479  0.93573817  1
  O2-  O210  1  0.66869549  0.20063538  0.26790013  1
  O2-  O211  1  0.66442419  0.20960799  0.60740181  1
  O2-  O212  1  0.67037892  0.20600481  0.93075929  1
  O2-  O213  1  0.66806645  0.70731763  0.26537080  1
  O2-  O214  1  0.67115149  0.69968306  0.59841778  1
  O2-  O215  1  0.66038322  0.70920266  0.93819769  1
  O2-  O216  1  0.08534216  0.45547786  0.07157583  1
  O2-  O217  1  0.08495420  0.45708727  0.39670630  1
  O2-  O218  1  0.08562811  0.45567390  0.72786539  1
  O2-  O219  1  0.08532939  0.95569434  0.05500419  1
  O2-  O220  1  0.07564024  0.94875391  0.39848947  1
  O2-  O221  1  0.08354991  0.94806587  0.72915179  1
  O2-  O222  1  0.57865179  0.45566111  0.06647618  1
  O2-  O223  1  0.58187742  0.46232697  0.40068648  1
  O2-  O224  1  0.58455444  0.45509360  0.73018811  1
  O2-  O225  1  0.58184578  0.96008928  0.06560774  1
  O2-  O226  1  0.58225747  0.95418293  0.40291610  1
  O2-  O227  1  0.58545518  0.95272847  0.72819152  1
  O2-  O228  1  0.21582177  0.33421538  0.06941825  1
  O2-  O229  1  0.20764783  0.33977804  0.39858370  1
  O2-  O230  1  0.21131213  0.34138811  0.72978380  1
  O2-  O231  1  0.20794332  0.83826496  0.06122798  1
  O2-  O232  1  0.20850452  0.82913139  0.39944625  1
  O2-  O233  1  0.20718943  0.83241215  0.73135549  1
  O2-  O234  1  0.70419514  0.32678417  0.06594515  1
  O2-  O235  1  0.70804625  0.33049125  0.40190351  1
  O2-  O236  1  0.70612764  0.33879385  0.73203487  1
  O2-  O237  1  0.71068892  0.83589459  0.06435121  1
  O2-  O238  1  0.71240692  0.83097041  0.40255651  1
  O2-  O239  1  0.70402344  0.83179020  0.72687208  1
  O2-  O240  1  0.45586127  0.41959410  0.26380311  1
  O2-  O241  1  0.45368208  0.41236881  0.60698561  1
  O2-  O242  1  0.44984783  0.41884706  0.93665694  1
  O2-  O243  1  0.44860666  0.91746864  0.27332759  1
  O2-  O244  1  0.45467619  0.92377190  0.59889198  1
  O2-  O245  1  0.45616438  0.91301687  0.93741151  1
  O2-  O246  1  0.95351137  0.41896356  0.26586282  1
  O2-  O247  1  0.95401615  0.41311541  0.60363328  1
  O2-  O248  1  0.95729585  0.41921879  0.93903992  1
  O2-  O249  1  0.95265361  0.91873553  0.26254750  1
  O2-  O250  1  0.95042054  0.91621832  0.60477414  1
  O2-  O251  1  0.96068504  0.91352138  0.92514299  1
  O2-  O252  1  0.33078112  0.29588666  0.26521447  1
  O2-  O253  1  0.33764697  0.29191896  0.60688219  1
  O2-  O254  1  0.33739957  0.29324466  0.93353835  1
  O2-  O255  1  0.33740679  0.79068362  0.26865151  1
  O2-  O256  1  0.33248946  0.79379847  0.59643495  1
  O2-  O257  1  0.33618604  0.79441405  0.93540475  1
  O2-  O258  1  0.82920287  0.29328213  0.26440123  1
  O2-  O259  1  0.83134875  0.29753008  0.60852573  1
  O2-  O260  1  0.83473778  0.30289814  0.93610446  1
  O2-  O261  1  0.83268467  0.78748556  0.26483990  1
  O2-  O262  1  0.83471902  0.79441849  0.60272118  1
  O2-  O263  1  0.83211215  0.78715827  0.92762284  1
  O2-  O264  1  0.41135654  0.04036533  0.06159150  1
  O2-  O265  1  0.41539125  0.04281399  0.40408462  1
  O2-  O266  1  0.41764673  0.04160605  0.73818429  1
  O2-  O267  1  0.41538645  0.54997722  0.06266644  1
  O2-  O268  1  0.41187197  0.53890681  0.39868452  1
  O2-  O269  1  0.41031280  0.53965504  0.73207357  1
  O2-  O270  1  0.91904630  0.04137335  0.05853125  1
  O2-  O271  1  0.91445729  0.04341719  0.39471746  1
  O2-  O272  1  0.91954390  0.04115713  0.73488068  1
  O2-  O273  1  0.92131121  0.55254043  0.06796725  1
  O2-  O274  1  0.91650603  0.54494548  0.39748115  1
  O2-  O275  1  0.91051842  0.53867736  0.73167139  1
  O2-  O276  1  0.29514544  0.16337937  0.06006246  1
  O2-  O277  1  0.29245132  0.17278153  0.40080506  1
  O2-  O278  1  0.28846735  0.16841878  0.73944358  1
  O2-  O279  1  0.29762311  0.66892379  0.06292295  1
  O2-  O280  1  0.29767438  0.66263619  0.39850817  1
  O2-  O281  1  0.29761203  0.66532620  0.72674323  1
  O2-  O282  1  0.80702980  0.16796302  0.05679728  1
  O2-  O283  1  0.79787649  0.16501691  0.39517541  1
  O2-  O284  1  0.79125949  0.16633775  0.73811134  1
  O2-  O285  1  0.78846868  0.66961557  0.06891851  1
  O2-  O286  1  0.79410329  0.66293313  0.39963298  1
  O2-  O287  1  0.79563661  0.66286964  0.72740961  1
