# generated using pymatgen
data_Ca2Al2SiO7
_symmetry_space_group_name_H-M   'P 1'
_cell_length_a   15.45914347
_cell_length_b   15.45946440
_cell_length_c   15.28416823
_cell_angle_alpha   90.01055683
_cell_angle_beta   89.99629332
_cell_angle_gamma   89.97949962
_symmetry_Int_Tables_number   1
_chemical_formula_structural   Ca2Al2SiO7
_chemical_formula_sum   'Ca48 Al48 Si24 O168'
_cell_volume   3652.76425680
_cell_formula_units_Z   24
loop_
 _symmetry_equiv_pos_site_id
 _symmetry_equiv_pos_as_xyz
  1  'x, y, z'
loop_
 _atom_type_symbol
 _atom_type_oxidation_number
  Ca2+  2.0
  Al0+  0.0
  Si0+  0.0
  O2-  -2.0
loop_
 _atom_site_type_symbol
 _atom_site_label
 _atom_site_symmetry_multiplicity
 _atom_site_fract_x
 _atom_site_fract_y
 _atom_site_fract_z
 _atom_site_occupancy
  Ca2+  Ca0  1  0.16307022  0.07873558  0.17327056  1
  Ca2+  Ca1  1  0.16771669  0.06751244  0.50515768  1
  Ca2+  Ca2  1  0.15972786  0.07704760  0.83350930  1
  Ca2+  Ca3  1  0.16964917  0.57843571  0.17460676  1
  Ca2+  Ca4  1  0.15720960  0.57730648  0.50538286  1
  Ca2+  Ca5  1  0.16782965  0.58146252  0.83390248  1
  Ca2+  Ca6  1  0.67106752  0.07458058  0.17487245  1
  Ca2+  Ca7  1  0.66915462  0.07750880  0.50785375  1
  Ca2+  Ca8  1  0.67114160  0.08687506  0.83089051  1
  Ca2+  Ca9  1  0.67893307  0.58908299  0.17349135  1
  Ca2+  Ca10  1  0.67001184  0.59303834  0.49947760  1
  Ca2+  Ca11  1  0.67217399  0.58643401  0.83959566  1
  Ca2+  Ca12  1  0.08341891  0.32838160  0.16069001  1
  Ca2+  Ca13  1  0.08164767  0.33974996  0.49750123  1
  Ca2+  Ca14  1  0.07386097  0.33422086  0.82892945  1
  Ca2+  Ca15  1  0.07425653  0.83252570  0.16528591  1
  Ca2+  Ca16  1  0.08176847  0.82610914  0.49348767  1
  Ca2+  Ca17  1  0.07533207  0.82686983  0.82289062  1
  Ca2+  Ca18  1  0.57008592  0.34115436  0.16551700  1
  Ca2+  Ca19  1  0.57941485  0.32523828  0.49612652  1
  Ca2+  Ca20  1  0.57689744  0.33217775  0.82738811  1
  Ca2+  Ca21  1  0.58548886  0.82995090  0.17172886  1
  Ca2+  Ca22  1  0.57806952  0.82737886  0.49203553  1
  Ca2+  Ca23  1  0.57424983  0.82460677  0.82170846  1
  Ca2+  Ca24  1  0.33247032  0.41868781  0.17361266  1
  Ca2+  Ca25  1  0.32167007  0.41415372  0.50348253  1
  Ca2+  Ca26  1  0.32938396  0.42224149  0.84084811  1
  Ca2+  Ca27  1  0.32700597  0.91887435  0.17778617  1
  Ca2+  Ca28  1  0.32547875  0.90185670  0.50312734  1
  Ca2+  Ca29  1  0.32580671  0.90865876  0.83216874  1
  Ca2+  Ca30  1  0.84216083  0.42984754  0.17003896  1
  Ca2+  Ca31  1  0.83809850  0.42621072  0.50562580  1
  Ca2+  Ca32  1  0.83616982  0.42042901  0.83950622  1
  Ca2+  Ca33  1  0.83169674  0.91092000  0.17562737  1
  Ca2+  Ca34  1  0.83257394  0.91534187  0.50500563  1
  Ca2+  Ca35  1  0.84132319  0.91947164  0.83462568  1
  Ca2+  Ca36  1  0.41265768  0.18000728  0.16381613  1
  Ca2+  Ca37  1  0.41913619  0.16945674  0.49696777  1
  Ca2+  Ca38  1  0.42229173  0.17240623  0.82959785  1
  Ca2+  Ca39  1  0.41746039  0.66767161  0.16620100  1
  Ca2+  Ca40  1  0.42627070  0.67480343  0.49561736  1
  Ca2+  Ca41  1  0.42052971  0.66649344  0.82489452  1
  Ca2+  Ca42  1  0.92549699  0.17390034  0.15656157  1
  Ca2+  Ca43  1  0.91153224  0.17160778  0.50253350  1
  Ca2+  Ca44  1  0.91759965  0.17592880  0.82834844  1
  Ca2+  Ca45  1  0.91540329  0.67216909  0.16712663  1
  Ca2+  Ca46  1  0.92509189  0.67507830  0.49383326  1
  Ca2+  Ca47  1  0.91713955  0.67571167  0.82663583  1
  Al0+  Al48  1  -0.00096709  -0.00062893  -0.00546342  1
  Al0+  Al49  1  0.00127996  0.00154556  0.33513068  1
  Al0+  Al50  1  -0.00061159  0.00280749  0.67285311  1
  Al0+  Al51  1  0.00116988  0.50018994  0.00222766  1
  Al0+  Al52  1  0.00021386  0.50146101  0.33743203  1
  Al0+  Al53  1  -0.00143149  0.49936188  0.66712152  1
  Al0+  Al54  1  0.49847670  -0.00085713  0.00160581  1
  Al0+  Al55  1  0.50198513  0.00088960  0.33348637  1
  Al0+  Al56  1  0.49918232  0.00127306  0.66150928  1
  Al0+  Al57  1  0.49947885  0.50058133  -0.00027994  1
  Al0+  Al58  1  0.50189500  0.49926695  0.32743753  1
  Al0+  Al59  1  0.49957044  0.49902667  0.66164670  1
  Al0+  Al60  1  0.25165076  0.24752535  -0.00980309  1
  Al0+  Al61  1  0.25015848  0.25032104  0.33472623  1
  Al0+  Al62  1  0.24749357  0.24904780  0.67356955  1
  Al0+  Al63  1  0.24939269  0.74965179  0.00587147  1
  Al0+  Al64  1  0.25125872  0.74835867  0.32934898  1
  Al0+  Al65  1  0.24971936  0.74714492  0.66625652  1
  Al0+  Al66  1  0.74879639  0.24847706  0.00131850  1
  Al0+  Al67  1  0.75036577  0.25136675  0.33054419  1
  Al0+  Al68  1  0.74918440  0.25042353  0.66308837  1
  Al0+  Al69  1  0.74928415  0.74994134  -0.00065873  1
  Al0+  Al70  1  0.74992737  0.75146662  0.33658508  1
  Al0+  Al71  1  0.74968745  0.75095732  0.66290257  1
  Al0+  Al72  1  0.93091153  0.82253573  0.31937741  1
  Al0+  Al73  1  0.92759612  0.81831314  0.98558630  1
  Al0+  Al74  1  0.06985918  0.67836486  0.65319021  1
  Al0+  Al75  1  0.68009579  0.93073535  0.34844634  1
  Al0+  Al76  1  0.07186164  0.17749964  0.98338971  1
  Al0+  Al77  1  0.18046563  0.92710641  0.68105495  1
  Al0+  Al78  1  0.57232188  0.67662278  0.65191873  1
  Al0+  Al79  1  0.92957100  0.32017178  0.65210892  1
  Al0+  Al80  1  0.92860360  0.32291213  0.98633288  1
  Al0+  Al81  1  0.17962770  0.92784162  0.34592030  1
  Al0+  Al82  1  0.82130345  0.57113169  0.01311767  1
  Al0+  Al83  1  0.17680296  0.42821696  0.68337947  1
  Al0+  Al84  1  0.81998924  0.57050338  0.34946878  1
  Al0+  Al85  1  0.92947479  0.82512497  0.65142770  1
  Al0+  Al86  1  0.57200602  0.67924359  0.31536973  1
  Al0+  Al87  1  0.42857530  0.82226859  0.31594195  1
  Al0+  Al88  1  0.18085261  0.42941975  0.34642255  1
  Al0+  Al89  1  0.81936425  0.07204944  0.68178817  1
  Al0+  Al90  1  0.57065164  0.18051177  0.65340632  1
  Al0+  Al91  1  0.42760068  0.82084884  0.65296138  1
  Al0+  Al92  1  0.07167387  0.67613887  0.31648853  1
  Al0+  Al93  1  0.43074792  0.32235359  0.98464685  1
  Al0+  Al94  1  0.32162332  0.57094388  0.01467834  1
  Al0+  Al95  1  0.42860779  0.31875632  0.32130764  1
  Si0+  Si96  1  0.17797217  0.93032529  0.01548072  1
  Si0+  Si97  1  0.57429722  0.17817504  0.31487634  1
  Si0+  Si98  1  0.82126401  0.07083013  0.01558126  1
  Si0+  Si99  1  0.67799603  0.42859738  0.67990815  1
  Si0+  Si100  1  0.92834581  0.32230328  0.31900409  1
  Si0+  Si101  1  0.57004861  0.68105963  0.98571148  1
  Si0+  Si102  1  0.67701970  0.42665861  0.35050524  1
  Si0+  Si103  1  0.32239055  0.07052724  0.01473511  1
  Si0+  Si104  1  0.07050929  0.18036787  0.32126115  1
  Si0+  Si105  1  0.57090606  0.17471816  0.98460656  1
  Si0+  Si106  1  0.67784894  0.92949409  0.01392818  1
  Si0+  Si107  1  0.67738768  0.42641624  0.01633838  1
  Si0+  Si108  1  0.07458912  0.67853310  0.98436402  1
  Si0+  Si109  1  0.32303323  0.56883340  0.68195066  1
  Si0+  Si110  1  0.07285691  0.17833727  0.64829831  1
  Si0+  Si111  1  0.81877207  0.57151620  0.68194143  1
  Si0+  Si112  1  0.82336890  0.07515213  0.34932977  1
  Si0+  Si113  1  0.42523804  0.32138456  0.65032653  1
  Si0+  Si114  1  0.32174221  0.07260987  0.34903211  1
  Si0+  Si115  1  0.32348430  0.07281267  0.68515715  1
  Si0+  Si116  1  0.32518782  0.57149875  0.35062848  1
  Si0+  Si117  1  0.17999195  0.42619656  0.01584273  1
  Si0+  Si118  1  0.42705905  0.82210375  0.98594973  1
  Si0+  Si119  1  0.67691446  0.92798298  0.68441038  1
  O2-  O120  1  0.24864305  0.00245669  0.05699983  1
  O2-  O121  1  0.25988738  -0.00241302  0.39238495  1
  O2-  O122  1  0.25694503  0.00112440  0.72855412  1
  O2-  O123  1  0.24832634  0.49448008  0.06100641  1
  O2-  O124  1  0.25379348  0.50535291  0.39446773  1
  O2-  O125  1  0.25436358  0.50084174  0.72803145  1
  O2-  O126  1  0.75019327  -0.00045058  0.05665733  1
  O2-  O127  1  0.75500667  0.00628915  0.39286207  1
  O2-  O128  1  0.74739583  -0.00566865  0.73020404  1
  O2-  O129  1  0.75049124  0.49119925  0.05925719  1
  O2-  O130  1  0.74471962  0.49526976  0.39566579  1
  O2-  O131  1  0.74400639  0.50354937  0.72354964  1
  O2-  O132  1  -0.00123927  0.25029373  0.27821730  1
  O2-  O133  1  0.00596890  0.24820832  0.60325948  1
  O2-  O134  1  0.00056038  0.25151148  0.93541258  1
  O2-  O135  1  0.00213998  0.75097885  0.26695095  1
  O2-  O136  1  0.00291149  0.75460769  0.60291059  1
  O2-  O137  1  0.00215735  0.74319511  0.94034283  1
  O2-  O138  1  0.50485485  0.24651193  0.27161684  1
  O2-  O139  1  0.49249066  0.25129339  0.60669935  1
  O2-  O140  1  0.50744756  0.24831151  0.94044975  1
  O2-  O141  1  0.49862545  0.74934193  0.26381540  1
  O2-  O142  1  0.50328341  0.75235764  0.60446242  1
  O2-  O143  1  0.49618496  0.74927351  0.94393656  1
  O2-  O144  1  0.07066732  0.17692096  0.09799153  1
  O2-  O145  1  0.07097078  0.18050080  0.42587737  1
  O2-  O146  1  0.07080265  0.17926795  0.75389455  1
  O2-  O147  1  0.07708713  0.68162249  0.08956651  1
  O2-  O148  1  0.06847247  0.67512049  0.42970983  1
  O2-  O149  1  0.06774922  0.67797696  0.76755669  1
  O2-  O150  1  0.56801481  0.17106751  0.08992865  1
  O2-  O151  1  0.57554619  0.18010914  0.42031709  1
  O2-  O152  1  0.57025871  0.18447133  0.76704854  1
  O2-  O153  1  0.57238234  0.68323516  0.09016934  1
  O2-  O154  1  0.57009148  0.68047364  0.42849988  1
  O2-  O155  1  0.57089574  0.67597726  0.76669184  1
  O2-  O156  1  0.18280248  0.42543649  0.23311897  1
  O2-  O157  1  0.17895123  0.42800580  0.57023195  1
  O2-  O158  1  0.18046217  0.42887401  0.91031348  1
  O2-  O159  1  0.17727190  0.93473565  0.23224247  1
  O2-  O160  1  0.18168190  0.92869726  0.56812425  1
  O2-  O161  1  0.18011221  0.92873510  0.91045143  1
  O2-  O162  1  0.67904614  0.42453123  0.24471176  1
  O2-  O163  1  0.67946710  0.42675343  0.57516470  1
  O2-  O164  1  0.67498704  0.42813866  0.91035678  1
  O2-  O165  1  0.68145744  0.93311482  0.23418109  1
  O2-  O166  1  0.67682593  0.93035003  0.57920137  1
  O2-  O167  1  0.67486441  0.93071091  0.90913461  1
  O2-  O168  1  0.42987022  0.32038304  0.09785271  1
  O2-  O169  1  0.42797759  0.31444727  0.43419986  1
  O2-  O170  1  0.42868907  0.32263737  0.75615247  1
  O2-  O171  1  0.42845662  0.82502329  0.09040929  1
  O2-  O172  1  0.43018183  0.82091729  0.42901678  1
  O2-  O173  1  0.42882187  0.81803010  0.76793248  1
  O2-  O174  1  0.93092966  0.32066320  0.10051121  1
  O2-  O175  1  0.92684649  0.32085712  0.42395697  1
  O2-  O176  1  0.92860951  0.32044459  0.76510157  1
  O2-  O177  1  0.92734658  0.82005014  0.09834869  1
  O2-  O178  1  0.93296059  0.82426129  0.43222831  1
  O2-  O179  1  0.92953487  0.82058029  0.76570667  1
  O2-  O180  1  0.31696085  0.07616290  0.24289284  1
  O2-  O181  1  0.32110022  0.07801176  0.57986236  1
  O2-  O182  1  0.32773014  0.06673610  0.91019536  1
  O2-  O183  1  0.32481623  0.56744044  0.24448073  1
  O2-  O184  1  0.32597055  0.56589037  0.57693185  1
  O2-  O185  1  0.32210936  0.57111897  0.90147073  1
  O2-  O186  1  0.82218074  0.07728139  0.24316927  1
  O2-  O187  1  0.81532496  0.07450084  0.56882233  1
  O2-  O188  1  0.81941908  0.07255993  0.91079590  1
  O2-  O189  1  0.82010089  0.56800032  0.23582354  1
  O2-  O190  1  0.81959111  0.56925038  0.57716801  1
  O2-  O191  1  0.81663193  0.57314944  0.89981294  1
  O2-  O192  1  0.04318240  0.08972304  0.27131287  1
  O2-  O193  1  0.04473125  0.08528307  0.60376760  1
  O2-  O194  1  0.04039781  0.08093568  0.92917769  1
  O2-  O195  1  0.03983092  0.57817064  0.26358425  1
  O2-  O196  1  0.03707326  0.58175041  0.60065632  1
  O2-  O197  1  0.05392747  0.58264115  0.94196414  1
  O2-  O198  1  0.54978923  0.08481132  0.26894941  1
  O2-  O199  1  0.54368751  0.08412610  0.59801750  1
  O2-  O200  1  0.53965629  0.08364077  0.93598073  1
  O2-  O201  1  0.54903234  0.57927101  0.26266951  1
  O2-  O202  1  0.54423531  0.57902538  0.59733269  1
  O2-  O203  1  0.54531263  0.58823753  0.93927017  1
  O2-  O204  1  0.16140586  0.20892908  0.27221112  1
  O2-  O205  1  0.16803153  0.20140611  0.60511605  1
  O2-  O206  1  0.17086568  0.19870496  0.92924853  1
  O2-  O207  1  0.17184190  0.69871536  0.26561572  1
  O2-  O208  1  0.17003103  0.69932660  0.60242697  1
  O2-  O209  1  0.16685314  0.70862269  0.93722086  1
  O2-  O210  1  0.66751225  0.20410484  0.26699327  1
  O2-  O211  1  0.66344285  0.21546038  0.59625262  1
  O2-  O212  1  0.66654369  0.19543208  0.94121797  1
  O2-  O213  1  0.66949412  0.71278005  0.26364436  1
  O2-  O214  1  0.67038850  0.70330463  0.59965738  1
  O2-  O215  1  0.65964953  0.71199990  0.93589635  1
  O2-  O216  1  0.08617573  0.44980496  0.06256490  1
  O2-  O217  1  0.08393499  0.45756977  0.40080603  1
  O2-  O218  1  0.08076124  0.46153456  0.73756559  1
  O2-  O219  1  0.08564879  0.95945218  0.06137111  1
  O2-  O220  1  0.08593801  0.96514841  0.40142882  1
  O2-  O221  1  0.08535138  0.96116812  0.73678912  1
  O2-  O222  1  0.58567070  0.45724252  0.06322086  1
  O2-  O223  1  0.58222532  0.44956097  0.39504608  1
  O2-  O224  1  0.58383876  0.45170041  0.72629799  1
  O2-  O225  1  0.58684920  0.95858176  0.06320808  1
  O2-  O226  1  0.58358181  0.96251847  0.40246310  1
  O2-  O227  1  0.58301674  0.95639163  0.72967317  1
  O2-  O228  1  0.20628958  0.33044199  0.05732794  1
  O2-  O229  1  0.21287302  0.33345356  0.40213560  1
  O2-  O230  1  0.20441516  0.33104807  0.73828399  1
  O2-  O231  1  0.20620364  0.83954248  0.06401690  1
  O2-  O232  1  0.20699032  0.82923273  0.39699049  1
  O2-  O233  1  0.21103666  0.83041131  0.73663113  1
  O2-  O234  1  0.69524596  0.33054044  0.06166118  1
  O2-  O235  1  0.70316481  0.33237600  0.39578575  1
  O2-  O236  1  0.70926252  0.33905819  0.72948520  1
  O2-  O237  1  0.70587024  0.83792171  0.06125549  1
  O2-  O238  1  0.70893302  0.83507907  0.40332627  1
  O2-  O239  1  0.69992210  0.83283720  0.72939309  1
  O2-  O240  1  0.45878089  0.41417386  0.26482458  1
  O2-  O241  1  0.45169728  0.41316316  0.60255957  1
  O2-  O242  1  0.46195351  0.41852564  0.92993233  1
  O2-  O243  1  0.45704640  0.92248771  0.26496919  1
  O2-  O244  1  0.44816171  0.92119574  0.60201784  1
  O2-  O245  1  0.45655406  0.91306114  0.93778288  1
  O2-  O246  1  0.95869227  0.41311879  0.27258533  1
  O2-  O247  1  0.95972576  0.41646135  0.59849609  1
  O2-  O248  1  0.95571487  0.42205361  0.93381096  1
  O2-  O249  1  0.95814537  0.92246265  0.26643556  1
  O2-  O250  1  0.95261981  0.92640768  0.60399210  1
  O2-  O251  1  0.95802683  0.91484376  0.93228612  1
  O2-  O252  1  0.33355389  0.28498554  0.26513001  1
  O2-  O253  1  0.33069074  0.29455710  0.60792129  1
  O2-  O254  1  0.33666889  0.28995800  0.92801507  1
  O2-  O255  1  0.33013285  0.79599753  0.26201802  1
  O2-  O256  1  0.33158581  0.78807567  0.59990899  1
  O2-  O257  1  0.33409354  0.79492490  0.94075654  1
  O2-  O258  1  0.83671900  0.29671167  0.26985330  1
  O2-  O259  1  0.83441493  0.28810968  0.59698911  1
  O2-  O260  1  0.82814563  0.29509666  0.93658687  1
  O2-  O261  1  0.83192365  0.79349790  0.26876468  1
  O2-  O262  1  0.83076585  0.79688513  0.60088201  1
  O2-  O263  1  0.83062287  0.78916781  0.93105661  1
  O2-  O264  1  0.41225328  0.04106528  0.06600229  1
  O2-  O265  1  0.41846977  0.05588767  0.39097233  1
  O2-  O266  1  0.41884152  0.05051514  0.72988892  1
  O2-  O267  1  0.41882590  0.54099144  0.06832154  1
  O2-  O268  1  0.41874758  0.54282028  0.39466350  1
  O2-  O269  1  0.41680961  0.54190823  0.72946212  1
  O2-  O270  1  0.91377351  0.04285356  0.06165719  1
  O2-  O271  1  0.91707142  0.05227656  0.39536103  1
  O2-  O272  1  0.91636691  0.04733165  0.73828562  1
  O2-  O273  1  0.91909829  0.54438433  0.06772277  1
  O2-  O274  1  0.91485426  0.53685996  0.40433438  1
  O2-  O275  1  0.90840767  0.53931390  0.73037449  1
  O2-  O276  1  0.29665127  0.16443294  0.05939801  1
  O2-  O277  1  0.28957599  0.16246547  0.39850606  1
  O2-  O278  1  0.29551100  0.16438987  0.73515414  1
  O2-  O279  1  0.29177348  0.66727401  0.07045267  1
  O2-  O280  1  0.30409106  0.66691209  0.39314078  1
  O2-  O281  1  0.29816287  0.66205576  0.72932142  1
  O2-  O282  1  0.79414303  0.16230962  0.06533180  1
  O2-  O283  1  0.79652997  0.16913777  0.39473458  1
  O2-  O284  1  0.78265516  0.16781618  0.73572820  1
  O2-  O285  1  0.78450440  0.66605282  0.06746201  1
  O2-  O286  1  0.78900073  0.66641235  0.40304536  1
  O2-  O287  1  0.79294263  0.66448862  0.72890460  1
