# generated using pymatgen
data_Ca2Al2SiO7
_symmetry_space_group_name_H-M   'P 1'
_cell_length_a   15.46356260
_cell_length_b   15.46064606
_cell_length_c   15.28555426
_cell_angle_alpha   90.01702172
_cell_angle_beta   89.99515147
_cell_angle_gamma   89.98968289
_symmetry_Int_Tables_number   1
_chemical_formula_structural   Ca2Al2SiO7
_chemical_formula_sum   'Ca48 Al48 Si24 O168'
_cell_volume   3654.41915049
_cell_formula_units_Z   24
loop_
 _symmetry_equiv_pos_site_id
 _symmetry_equiv_pos_as_xyz
  1  'x, y, z'
loop_
 _atom_type_symbol
 _atom_type_oxidation_number
  Ca2+  2.0
  Al0+  0.0
  Si0+  0.0
  O2-  -2.0
loop_
 _atom_site_type_symbol
 _atom_site_label
 _atom_site_symmetry_multiplicity
 _atom_site_fract_x
 _atom_site_fract_y
 _atom_site_fract_z
 _atom_site_occupancy
  Ca2+  Ca0  1  0.17186276  0.08430833  0.17046684  1
  Ca2+  Ca1  1  0.17315802  0.08610676  0.50143747  1
  Ca2+  Ca2  1  0.16643638  0.08839138  0.83826619  1
  Ca2+  Ca3  1  0.17330542  0.57666875  0.17223221  1
  Ca2+  Ca4  1  0.18179000  0.58498072  0.50529552  1
  Ca2+  Ca5  1  0.17698486  0.57586788  0.83888444  1
  Ca2+  Ca6  1  0.66956939  0.07380547  0.17296749  1
  Ca2+  Ca7  1  0.66922240  0.08061550  0.50738066  1
  Ca2+  Ca8  1  0.65442410  0.07154112  0.83443909  1
  Ca2+  Ca9  1  0.65678070  0.57378014  0.16557949  1
  Ca2+  Ca10  1  0.65915250  0.57272691  0.50432429  1
  Ca2+  Ca11  1  0.65462281  0.57723132  0.83572529  1
  Ca2+  Ca12  1  0.08018755  0.32952952  0.15884490  1
  Ca2+  Ca13  1  0.07641529  0.32821423  0.49525998  1
  Ca2+  Ca14  1  0.08865289  0.32489211  0.83046500  1
  Ca2+  Ca15  1  0.07176494  0.83566590  0.16443893  1
  Ca2+  Ca16  1  0.07718646  0.83192646  0.49310820  1
  Ca2+  Ca17  1  0.07439628  0.83580009  0.83218860  1
  Ca2+  Ca18  1  0.57479172  0.33920597  0.16281859  1
  Ca2+  Ca19  1  0.57813033  0.33847659  0.49716629  1
  Ca2+  Ca20  1  0.57732431  0.33606762  0.82550241  1
  Ca2+  Ca21  1  0.57420955  0.82882076  0.15512853  1
  Ca2+  Ca22  1  0.57755805  0.83022101  0.49993306  1
  Ca2+  Ca23  1  0.58103987  0.82627300  0.82629341  1
  Ca2+  Ca24  1  0.33331082  0.41739829  0.17175915  1
  Ca2+  Ca25  1  0.34562878  0.42639599  0.50352310  1
  Ca2+  Ca26  1  0.33901135  0.41922414  0.83784062  1
  Ca2+  Ca27  1  0.33807414  0.92104240  0.17602903  1
  Ca2+  Ca28  1  0.34337174  0.92027912  0.50291933  1
  Ca2+  Ca29  1  0.33931651  0.91634391  0.83686804  1
  Ca2+  Ca30  1  0.82054357  0.41112014  0.17444507  1
  Ca2+  Ca31  1  0.82154615  0.40963706  0.50238918  1
  Ca2+  Ca32  1  0.81803597  0.41719319  0.83922408  1
  Ca2+  Ca33  1  0.83148915  0.91710759  0.17107454  1
  Ca2+  Ca34  1  0.82946257  0.92054107  0.50411720  1
  Ca2+  Ca35  1  0.81933544  0.91446851  0.84026660  1
  Ca2+  Ca36  1  0.41102469  0.17682288  0.16429809  1
  Ca2+  Ca37  1  0.42369668  0.17592089  0.49599513  1
  Ca2+  Ca38  1  0.42303947  0.18077280  0.82698743  1
  Ca2+  Ca39  1  0.41865851  0.67402902  0.16242516  1
  Ca2+  Ca40  1  0.41677666  0.67061449  0.49703228  1
  Ca2+  Ca41  1  0.42700960  0.67203364  0.82672444  1
  Ca2+  Ca42  1  0.91869098  0.16770520  0.16594893  1
  Ca2+  Ca43  1  0.91947053  0.16674884  0.49319362  1
  Ca2+  Ca44  1  0.93037806  0.16282231  0.83043948  1
  Ca2+  Ca45  1  0.91188916  0.67820110  0.16247103  1
  Ca2+  Ca46  1  0.91820786  0.67215072  0.49340293  1
  Ca2+  Ca47  1  0.91277913  0.67171436  0.83409284  1
  Al0+  Al48  1  0.00118783  0.00021720  -0.00705956  1
  Al0+  Al49  1  -0.00013070  -0.00133775  0.33339705  1
  Al0+  Al50  1  0.00155316  0.00084607  0.66262687  1
  Al0+  Al51  1  -0.00022849  0.50010367  0.00394486  1
  Al0+  Al52  1  -0.00113315  0.49798595  0.32934519  1
  Al0+  Al53  1  0.00070133  0.50123918  0.66731346  1
  Al0+  Al54  1  0.49915907  0.00235164  0.00450185  1
  Al0+  Al55  1  0.50024493  -0.00063528  0.33517996  1
  Al0+  Al56  1  0.49967803  0.00233544  0.66531431  1
  Al0+  Al57  1  0.49892969  0.50226052  -0.00149206  1
  Al0+  Al58  1  0.49872134  0.49889028  0.33588107  1
  Al0+  Al59  1  0.50044643  0.50289108  0.66921425  1
  Al0+  Al60  1  0.24994943  0.25074885  -0.00364206  1
  Al0+  Al61  1  0.25067873  0.24828494  0.33548121  1
  Al0+  Al62  1  0.24902370  0.25011200  0.65721720  1
  Al0+  Al63  1  0.24760398  0.75127993  -0.00115729  1
  Al0+  Al64  1  0.24943711  0.74877752  0.33268083  1
  Al0+  Al65  1  0.24880616  0.75106366  0.67032498  1
  Al0+  Al66  1  0.75108842  0.24891571  0.00398119  1
  Al0+  Al67  1  0.75091395  0.24674245  0.33747942  1
  Al0+  Al68  1  0.75272184  0.24950773  0.67230537  1
  Al0+  Al69  1  0.74906937  0.75020280  -0.00299086  1
  Al0+  Al70  1  0.74975038  0.74704128  0.32923230  1
  Al0+  Al71  1  0.74950794  0.75081552  0.66517874  1
  Al0+  Al72  1  0.17979382  0.42754936  0.01316667  1
  Al0+  Al73  1  0.32077290  0.57194313  0.68250487  1
  Al0+  Al74  1  0.67818931  0.92912739  0.01451617  1
  Al0+  Al75  1  0.82118721  0.06806899  0.34691996  1
  Al0+  Al76  1  0.57222466  0.67964180  0.64888186  1
  Al0+  Al77  1  0.67911568  0.93069155  0.67984626  1
  Al0+  Al78  1  0.92718026  0.31998141  0.31964690  1
  Al0+  Al79  1  0.57373472  0.17881158  0.65280250  1
  Al0+  Al80  1  0.07076034  0.17855494  0.64947080  1
  Al0+  Al81  1  0.67804065  0.42879511  0.01455445  1
  Al0+  Al82  1  0.68012682  0.42965967  0.34706693  1
  Al0+  Al83  1  0.42686422  0.82133116  0.65124486  1
  Al0+  Al84  1  0.56959224  0.68045555  0.98470167  1
  Al0+  Al85  1  0.31857500  0.57005877  0.34654118  1
  Al0+  Al86  1  0.43048191  0.32040743  0.31842379  1
  Al0+  Al87  1  0.92867856  0.82014345  0.32026435  1
  Al0+  Al88  1  0.43067455  0.32255806  0.65078569  1
  Al0+  Al89  1  0.32224891  0.07135284  0.34848953  1
  Al0+  Al90  1  0.43060860  0.32027152  0.98775141  1
  Al0+  Al91  1  0.92989700  0.82044567  0.98501351  1
  Al0+  Al92  1  0.42973717  0.82120813  0.31958398  1
  Al0+  Al93  1  0.06972868  0.18201348  0.98759681  1
  Al0+  Al94  1  0.68081650  0.42970016  0.68126211  1
  Al0+  Al95  1  0.42637259  0.82491776  0.98582658  1
  Si0+  Si96  1  0.92556369  0.32399946  0.98327403  1
  Si0+  Si97  1  0.82543766  0.07133751  0.68540758  1
  Si0+  Si98  1  0.07191801  0.67552649  0.98273343  1
  Si0+  Si99  1  0.17718432  0.92997012  0.68276297  1
  Si0+  Si100  1  0.82571573  0.06932217  0.01605809  1
  Si0+  Si101  1  0.82524980  0.57358041  0.68301811  1
  Si0+  Si102  1  0.17670765  0.92903926  0.01448782  1
  Si0+  Si103  1  0.07266118  0.67686480  0.31642163  1
  Si0+  Si104  1  0.57321455  0.17682574  0.31654210  1
  Si0+  Si105  1  0.32062697  0.57311984  0.01758178  1
  Si0+  Si106  1  0.57109015  0.67643614  0.31575929  1
  Si0+  Si107  1  0.31921156  0.07108046  0.01373215  1
  Si0+  Si108  1  0.92898077  0.32361883  0.65194624  1
  Si0+  Si109  1  0.17866128  0.92838946  0.34937037  1
  Si0+  Si110  1  0.17678708  0.42792488  0.68178987  1
  Si0+  Si111  1  0.92953058  0.82032837  0.65142069  1
  Si0+  Si112  1  0.31932295  0.07235128  0.68206239  1
  Si0+  Si113  1  0.57492201  0.17813856  0.98638877  1
  Si0+  Si114  1  0.67796524  0.92476551  0.35011273  1
  Si0+  Si115  1  0.17544541  0.42618491  0.35047428  1
  Si0+  Si116  1  0.82282925  0.57212246  0.01752238  1
  Si0+  Si117  1  0.07168465  0.17828124  0.31593193  1
  Si0+  Si118  1  0.82395142  0.57277361  0.34919416  1
  Si0+  Si119  1  0.07113654  0.67874379  0.65294723  1
  O2-  O120  1  0.25277758  -0.00522367  0.05571111  1
  O2-  O121  1  0.24985239  -0.00650482  0.39472269  1
  O2-  O122  1  0.24912891  0.00009263  0.72487251  1
  O2-  O123  1  0.25215576  0.50354778  0.06112403  1
  O2-  O124  1  0.24396248  0.49492026  0.39429726  1
  O2-  O125  1  0.24877044  0.49270660  0.72650512  1
  O2-  O126  1  0.75368469  0.00399191  0.06013834  1
  O2-  O127  1  0.74757634  -0.00722335  0.39396718  1
  O2-  O128  1  0.75231419  0.00707506  0.72847476  1
  O2-  O129  1  0.75556946  0.50155972  0.06094078  1
  O2-  O130  1  0.75666183  0.50331760  0.39351526  1
  O2-  O131  1  0.75618264  0.50523517  0.72652835  1
  O2-  O132  1  0.00480807  0.24851765  0.27212417  1
  O2-  O133  1  -0.00433965  0.25366670  0.60608029  1
  O2-  O134  1  -0.00434382  0.25662077  0.93917266  1
  O2-  O135  1  0.00117625  0.74329292  0.27309094  1
  O2-  O136  1  -0.00070877  0.74817781  0.60934614  1
  O2-  O137  1  0.00298861  0.74396341  0.93795427  1
  O2-  O138  1  0.50403159  0.24463228  0.27133748  1
  O2-  O139  1  0.50595193  0.25354008  0.60097906  1
  O2-  O140  1  0.51129634  0.25157040  0.94272808  1
  O2-  O141  1  0.50598111  0.74903835  0.27254951  1
  O2-  O142  1  0.49814341  0.74987342  0.59967751  1
  O2-  O143  1  0.49933750  0.75487437  0.93575153  1
  O2-  O144  1  0.06943618  0.18084049  0.10048431  1
  O2-  O145  1  0.07021398  0.17793320  0.42154713  1
  O2-  O146  1  0.07068201  0.17762520  0.76278435  1
  O2-  O147  1  0.07235033  0.67708665  0.08831529  1
  O2-  O148  1  0.07279910  0.67907853  0.42247574  1
  O2-  O149  1  0.06972797  0.67969711  0.75788202  1
  O2-  O150  1  0.57332507  0.17602452  0.09203674  1
  O2-  O151  1  0.57255810  0.17726813  0.42195237  1
  O2-  O152  1  0.56813031  0.17809879  0.76671654  1
  O2-  O153  1  0.56683917  0.67941350  0.09873901  1
  O2-  O154  1  0.57142923  0.67634554  0.42111759  1
  O2-  O155  1  0.57244808  0.68150959  0.76214518  1
  O2-  O156  1  0.17561354  0.42696941  0.24458155  1
  O2-  O157  1  0.17119629  0.43238388  0.57647668  1
  O2-  O158  1  0.18194159  0.42784409  0.89993351  1
  O2-  O159  1  0.17655727  0.93060891  0.24350699  1
  O2-  O160  1  0.17278303  0.92978215  0.57782853  1
  O2-  O161  1  0.17326051  0.93150988  0.90938264  1
  O2-  O162  1  0.67937002  0.43183670  0.23385686  1
  O2-  O163  1  0.68325287  0.43004185  0.56804678  1
  O2-  O164  1  0.67934161  0.42929567  0.90163928  1
  O2-  O165  1  0.67862900  0.92627986  0.24428978  1
  O2-  O166  1  0.68414219  0.92988044  0.56664546  1
  O2-  O167  1  0.67855294  0.93082204  0.90137745  1
  O2-  O168  1  0.42842962  0.31788230  0.10108624  1
  O2-  O169  1  0.43277447  0.32175798  0.43093362  1
  O2-  O170  1  0.42908522  0.31984526  0.76474861  1
  O2-  O171  1  0.42673521  0.82330983  0.09976212  1
  O2-  O172  1  0.43040320  0.82040922  0.43220181  1
  O2-  O173  1  0.42690434  0.82069720  0.76462286  1
  O2-  O174  1  0.92566501  0.32133240  0.08891588  1
  O2-  O175  1  0.92930044  0.31799841  0.43294575  1
  O2-  O176  1  0.93196596  0.32431799  0.75752392  1
  O2-  O177  1  0.93267379  0.82107292  0.09820797  1
  O2-  O178  1  0.93166910  0.81893808  0.43377878  1
  O2-  O179  1  0.93151397  0.82044173  0.75649228  1
  O2-  O180  1  0.31791648  0.07207115  0.23485942  1
  O2-  O181  1  0.31747964  0.07100528  0.57702441  1
  O2-  O182  1  0.31695756  0.07253594  0.90862315  1
  O2-  O183  1  0.31640406  0.57015718  0.23338776  1
  O2-  O184  1  0.31708487  0.57346858  0.56919914  1
  O2-  O185  1  0.31865321  0.57324486  0.91202851  1
  O2-  O186  1  0.82137915  0.06624612  0.23360341  1
  O2-  O187  1  0.82887108  0.06777830  0.57973477  1
  O2-  O188  1  0.82892015  0.06690007  0.91062950  1
  O2-  O189  1  0.82415606  0.57460024  0.24386550  1
  O2-  O190  1  0.83031055  0.57289054  0.57761105  1
  O2-  O191  1  0.82585312  0.57034202  0.91184781  1
  O2-  O192  1  0.04472092  0.08473064  0.27068232  1
  O2-  O193  1  0.04017919  0.08217630  0.59462672  1
  O2-  O194  1  0.03988248  0.08651054  0.93029714  1
  O2-  O195  1  0.05064145  0.58241163  0.27100544  1
  O2-  O196  1  0.04523723  0.58716683  0.60400616  1
  O2-  O197  1  0.04639696  0.58188356  0.93657157  1
  O2-  O198  1  0.54812279  0.08254888  0.27143197  1
  O2-  O199  1  0.54223062  0.08280878  0.59749980  1
  O2-  O200  1  0.54192662  0.08720316  0.93962308  1
  O2-  O201  1  0.53937529  0.58496475  0.26967023  1
  O2-  O202  1  0.54311382  0.58130976  0.59810329  1
  O2-  O203  1  0.53796425  0.58368586  0.93070971  1
  O2-  O204  1  0.16585051  0.20252015  0.27106005  1
  O2-  O205  1  0.16535059  0.20849845  0.59236190  1
  O2-  O206  1  0.16470782  0.21288424  0.93054722  1
  O2-  O207  1  0.16368809  0.70582044  0.26760272  1
  O2-  O208  1  0.16109151  0.71005208  0.60471119  1
  O2-  O209  1  0.16445591  0.70275398  0.93569618  1
  O2-  O210  1  0.66708311  0.20109403  0.27145593  1
  O2-  O211  1  0.67662254  0.19920440  0.60590675  1
  O2-  O212  1  0.67083935  0.19572741  0.94194431  1
  O2-  O213  1  0.66624633  0.69607082  0.27012592  1
  O2-  O214  1  0.67122869  0.70759007  0.59596218  1
  O2-  O215  1  0.66909871  0.70361272  0.93256323  1
  O2-  O216  1  0.08207392  0.45556468  0.06765873  1
  O2-  O217  1  0.08089118  0.45117809  0.39541180  1
  O2-  O218  1  0.08500815  0.45672999  0.73098733  1
  O2-  O219  1  0.08723692  0.96311150  0.06313560  1
  O2-  O220  1  0.08662952  0.95689581  0.39747649  1
  O2-  O221  1  0.08589273  0.96034270  0.73101945  1
  O2-  O222  1  0.58175441  0.46319379  0.06776854  1
  O2-  O223  1  0.58477735  0.46261956  0.40137437  1
  O2-  O224  1  0.58475939  0.46139197  0.73502085  1
  O2-  O225  1  0.58261044  0.96150895  0.07067630  1
  O2-  O226  1  0.58535666  0.95170848  0.39649766  1
  O2-  O227  1  0.58205770  0.96163824  0.73366340  1
  O2-  O228  1  0.21169115  0.33152659  0.06767852  1
  O2-  O229  1  0.19940714  0.33218983  0.39545700  1
  O2-  O230  1  0.19958642  0.33147329  0.72297409  1
  O2-  O231  1  0.19610753  0.83494714  0.06132509  1
  O2-  O232  1  0.19900022  0.83312046  0.39379779  1
  O2-  O233  1  0.20130661  0.83822543  0.73201907  1
  O2-  O234  1  0.70651155  0.33094732  0.06852762  1
  O2-  O235  1  0.71086339  0.33300655  0.40041839  1
  O2-  O236  1  0.71146961  0.33341628  0.73737895  1
  O2-  O237  1  0.70993496  0.83222594  0.06692103  1
  O2-  O238  1  0.70380025  0.83020289  0.39371791  1
  O2-  O239  1  0.71338636  0.83450451  0.73326302  1
  O2-  O240  1  0.46167603  0.41705428  0.26474455  1
  O2-  O241  1  0.45840958  0.42182104  0.60117914  1
  O2-  O242  1  0.45590792  0.41820750  0.93549990  1
  O2-  O243  1  0.45779189  0.91932194  0.26685140  1
  O2-  O244  1  0.45539838  0.92049168  0.60082074  1
  O2-  O245  1  0.45190572  0.92566648  0.93683035  1
  O2-  O246  1  0.95265109  0.41767829  0.26458363  1
  O2-  O247  1  0.95515866  0.41691583  0.60489968  1
  O2-  O248  1  0.94927209  0.41876714  0.93975654  1
  O2-  O249  1  0.96314127  0.91512031  0.26526882  1
  O2-  O250  1  0.96052998  0.91081798  0.60365837  1
  O2-  O251  1  0.96468878  0.91404168  0.92837738  1
  O2-  O252  1  0.33198504  0.28936500  0.26745447  1
  O2-  O253  1  0.33285889  0.29431538  0.59713475  1
  O2-  O254  1  0.33703906  0.28464749  0.93180565  1
  O2-  O255  1  0.33152342  0.79168741  0.26750132  1
  O2-  O256  1  0.32600130  0.79574463  0.60117058  1
  O2-  O257  1  0.32555940  0.80061642  0.93545931  1
  O2-  O258  1  0.83216850  0.28453346  0.26556583  1
  O2-  O259  1  0.83511010  0.29818324  0.60753678  1
  O2-  O260  1  0.83247352  0.29643207  0.93701355  1
  O2-  O261  1  0.83231148  0.79078615  0.26477508  1
  O2-  O262  1  0.83861506  0.79388058  0.60307157  1
  O2-  O263  1  0.83414653  0.78981717  0.93037473  1
  O2-  O264  1  0.41126732  0.05008931  0.06371456  1
  O2-  O265  1  0.41922711  0.04239957  0.40250091  1
  O2-  O266  1  0.41115429  0.04653792  0.72986389  1
  O2-  O267  1  0.41364885  0.54735420  0.06332008  1
  O2-  O268  1  0.41435356  0.53912079  0.40096165  1
  O2-  O269  1  0.41711110  0.54380992  0.73689815  1
  O2-  O270  1  0.91798247  0.03925442  0.06279726  1
  O2-  O271  1  0.91794438  0.03725527  0.40162042  1
  O2-  O272  1  0.91783565  0.03928259  0.73126574  1
  O2-  O273  1  0.91705842  0.55120654  0.06494525  1
  O2-  O274  1  0.91895676  0.54971822  0.39432825  1
  O2-  O275  1  0.91861910  0.54898238  0.73166527  1
  O2-  O276  1  0.28456012  0.16026093  0.06196585  1
  O2-  O277  1  0.28852364  0.16610401  0.40454625  1
  O2-  O278  1  0.28773723  0.16436756  0.72739599  1
  O2-  O279  1  0.29262484  0.66696493  0.06301109  1
  O2-  O280  1  0.28580528  0.66610546  0.40154905  1
  O2-  O281  1  0.28418497  0.66654562  0.73755426  1
  O2-  O282  1  0.80497410  0.16466814  0.06078269  1
  O2-  O283  1  0.79208122  0.16328415  0.40388731  1
  O2-  O284  1  0.80871410  0.16663332  0.73088001  1
  O2-  O285  1  0.79562787  0.66586386  0.06219678  1
  O2-  O286  1  0.79821561  0.66646243  0.39610495  1
  O2-  O287  1  0.80005861  0.66777323  0.72791579  1
