# generated using pymatgen
data_Ca2Al2SiO7
_symmetry_space_group_name_H-M   'P 1'
_cell_length_a   15.46351169
_cell_length_b   15.46197997
_cell_length_c   15.28650430
_cell_angle_alpha   89.99680644
_cell_angle_beta   89.99052827
_cell_angle_gamma   89.97875801
_symmetry_Int_Tables_number   1
_chemical_formula_structural   Ca2Al2SiO7
_chemical_formula_sum   'Ca48 Al48 Si24 O168'
_cell_volume   3654.94949026
_cell_formula_units_Z   24
loop_
 _symmetry_equiv_pos_site_id
 _symmetry_equiv_pos_as_xyz
  1  'x, y, z'
loop_
 _atom_type_symbol
 _atom_type_oxidation_number
  Ca2+  2.0
  Al0+  0.0
  Si0+  0.0
  O2-  -2.0
loop_
 _atom_site_type_symbol
 _atom_site_label
 _atom_site_symmetry_multiplicity
 _atom_site_fract_x
 _atom_site_fract_y
 _atom_site_fract_z
 _atom_site_occupancy
  Ca2+  Ca0  1  0.17037061  0.09140911  0.17464972  1
  Ca2+  Ca1  1  0.17326998  0.08305032  0.49922971  1
  Ca2+  Ca2  1  0.16476387  0.07946568  0.83788512  1
  Ca2+  Ca3  1  0.17475349  0.58393130  0.16734369  1
  Ca2+  Ca4  1  0.16956100  0.58155161  0.50364202  1
  Ca2+  Ca5  1  0.17545664  0.58128258  0.84290665  1
  Ca2+  Ca6  1  0.67597297  0.08329577  0.17333209  1
  Ca2+  Ca7  1  0.67111445  0.09291986  0.50034264  1
  Ca2+  Ca8  1  0.66892036  0.07839899  0.84214043  1
  Ca2+  Ca9  1  0.66801721  0.57719679  0.17187988  1
  Ca2+  Ca10  1  0.66280391  0.57397423  0.50492733  1
  Ca2+  Ca11  1  0.67122566  0.58215989  0.83482494  1
  Ca2+  Ca12  1  0.07266191  0.32161357  0.16192179  1
  Ca2+  Ca13  1  0.07372968  0.32785839  0.48816839  1
  Ca2+  Ca14  1  0.07620320  0.33041228  0.83743464  1
  Ca2+  Ca15  1  0.06904062  0.83729565  0.16378333  1
  Ca2+  Ca16  1  0.07970339  0.83522095  0.49566257  1
  Ca2+  Ca17  1  0.07641062  0.83603481  0.83216726  1
  Ca2+  Ca18  1  0.58034826  0.33090324  0.16969762  1
  Ca2+  Ca19  1  0.58596518  0.32843044  0.49203756  1
  Ca2+  Ca20  1  0.58348551  0.33187103  0.82953060  1
  Ca2+  Ca21  1  0.57669478  0.83447628  0.16232015  1
  Ca2+  Ca22  1  0.58367993  0.81841295  0.49099298  1
  Ca2+  Ca23  1  0.58160142  0.83101698  0.83074959  1
  Ca2+  Ca24  1  0.34184760  0.41729187  0.17102284  1
  Ca2+  Ca25  1  0.33540489  0.41249887  0.49896887  1
  Ca2+  Ca26  1  0.33639003  0.42236475  0.84487133  1
  Ca2+  Ca27  1  0.33495157  0.91929300  0.17505808  1
  Ca2+  Ca28  1  0.33328336  0.91993394  0.49999454  1
  Ca2+  Ca29  1  0.32665979  0.91201709  0.83991178  1
  Ca2+  Ca30  1  0.83488796  0.41754798  0.17400397  1
  Ca2+  Ca31  1  0.82035161  0.41598593  0.50423359  1
  Ca2+  Ca32  1  0.82855451  0.42535508  0.84019500  1
  Ca2+  Ca33  1  0.83441522  0.92334717  0.16872860  1
  Ca2+  Ca34  1  0.83720708  0.92235635  0.49744566  1
  Ca2+  Ca35  1  0.82411228  0.92128900  0.84800427  1
  Ca2+  Ca36  1  0.41691629  0.17497902  0.16403028  1
  Ca2+  Ca37  1  0.42951142  0.16901825  0.48896207  1
  Ca2+  Ca38  1  0.42508378  0.17318860  0.82958158  1
  Ca2+  Ca39  1  0.42214362  0.67433379  0.16228153  1
  Ca2+  Ca40  1  0.42920439  0.67038945  0.49143936  1
  Ca2+  Ca41  1  0.42137322  0.66932835  0.83195732  1
  Ca2+  Ca42  1  0.91815325  0.16992663  0.16090277  1
  Ca2+  Ca43  1  0.92182985  0.17107191  0.48525222  1
  Ca2+  Ca44  1  0.91419909  0.16701646  0.83784339  1
  Ca2+  Ca45  1  0.90931353  0.67720200  0.16053169  1
  Ca2+  Ca46  1  0.91237130  0.67227531  0.49456312  1
  Ca2+  Ca47  1  0.90255512  0.67081725  0.83313196  1
  Al0+  Al48  1  -0.00041789  -0.00224753  -0.00544686  1
  Al0+  Al49  1  0.00097368  -0.00184519  0.33188338  1
  Al0+  Al50  1  0.00137842  0.00047441  0.67020143  1
  Al0+  Al51  1  0.00155218  0.49864890  0.00142420  1
  Al0+  Al52  1  0.00248676  0.50097639  0.33180139  1
  Al0+  Al53  1  0.00078362  0.50234054  0.67001955  1
  Al0+  Al54  1  0.49665656  -0.00177985  -0.00231868  1
  Al0+  Al55  1  0.50121230  -0.00135721  0.33378295  1
  Al0+  Al56  1  0.49946750  0.00325604  0.66266946  1
  Al0+  Al57  1  0.50007193  0.50090903  0.00094009  1
  Al0+  Al58  1  0.50191694  0.50068303  0.33203867  1
  Al0+  Al59  1  0.49901972  0.50082540  0.66735687  1
  Al0+  Al60  1  0.24940116  0.24949903  -0.01003982  1
  Al0+  Al61  1  0.25068613  0.25005290  0.33461298  1
  Al0+  Al62  1  0.24839370  0.24952843  0.66838773  1
  Al0+  Al63  1  0.25081243  0.74924823  0.00216239  1
  Al0+  Al64  1  0.25053573  0.74911890  0.33336928  1
  Al0+  Al65  1  0.24663581  0.75133003  0.67037714  1
  Al0+  Al66  1  0.75031472  0.24952560  -0.00108303  1
  Al0+  Al67  1  0.75014229  0.25133045  0.33485022  1
  Al0+  Al68  1  0.75008377  0.25185783  0.66901081  1
  Al0+  Al69  1  0.74822768  0.74805778  0.00369873  1
  Al0+  Al70  1  0.75128429  0.74986949  0.32577677  1
  Al0+  Al71  1  0.74865065  0.75230667  0.66306283  1
  Al0+  Al72  1  0.42781034  0.82146482  0.98490450  1
  Al0+  Al73  1  0.07066041  0.17747788  0.98255130  1
  Al0+  Al74  1  0.42836231  0.82094619  0.31966575  1
  Al0+  Al75  1  0.17969629  0.93016625  0.68165988  1
  Al0+  Al76  1  0.57034746  0.68043792  0.65310679  1
  Al0+  Al77  1  0.43080810  0.32157268  0.98593655  1
  Al0+  Al78  1  0.32292641  0.07209741  0.34639898  1
  Al0+  Al79  1  0.68001866  0.43060974  0.34680432  1
  Al0+  Al80  1  0.42940592  0.32017117  0.32005159  1
  Al0+  Al81  1  0.67514267  0.92807807  0.01522570  1
  Al0+  Al82  1  0.93056178  0.81992754  0.32009057  1
  Al0+  Al83  1  0.57383070  0.17738510  0.31803012  1
  Al0+  Al84  1  0.82182648  0.56899613  0.01543106  1
  Al0+  Al85  1  0.82109212  0.06953970  0.34702156  1
  Al0+  Al86  1  0.82099545  0.07041572  0.01536612  1
  Al0+  Al87  1  0.57218237  0.67770635  0.31600531  1
  Al0+  Al88  1  0.92779487  0.32225825  0.32043357  1
  Al0+  Al89  1  0.57201576  0.18029578  0.65296477  1
  Al0+  Al90  1  0.82096783  0.57318927  0.68045397  1
  Al0+  Al91  1  0.67747396  0.42843560  0.68361295  1
  Al0+  Al92  1  0.32167740  0.57054995  0.01544584  1
  Al0+  Al93  1  0.92787279  0.81788036  0.98469693  1
  Al0+  Al94  1  0.07133931  0.17832942  0.32092312  1
  Al0+  Al95  1  0.92656103  0.32288163  0.98310288  1
  Si0+  Si96  1  0.92940364  0.82188251  0.65209451  1
  Si0+  Si97  1  0.42460217  0.82197348  0.65051258  1
  Si0+  Si98  1  0.07273787  0.67831304  0.98373974  1
  Si0+  Si99  1  0.07014033  0.17803171  0.65022673  1
  Si0+  Si100  1  0.31935349  0.57065999  0.68080835  1
  Si0+  Si101  1  0.82446237  0.57355321  0.34904076  1
  Si0+  Si102  1  0.17890227  0.92658256  0.34935817  1
  Si0+  Si103  1  0.17973693  0.42586579  0.01786100  1
  Si0+  Si104  1  0.42607623  0.32245005  0.65097014  1
  Si0+  Si105  1  0.17922471  0.42944727  0.34870719  1
  Si0+  Si106  1  0.82172673  0.07126806  0.68105083  1
  Si0+  Si107  1  0.07422337  0.67627581  0.31665620  1
  Si0+  Si108  1  0.67750177  0.42704537  0.01749581  1
  Si0+  Si109  1  0.17777617  0.42804864  0.68239342  1
  Si0+  Si110  1  0.32098289  0.57149809  0.34983896  1
  Si0+  Si111  1  0.31866053  0.07168331  0.01304386  1
  Si0+  Si112  1  0.67840494  0.93007303  0.67848303  1
  Si0+  Si113  1  0.17902290  0.92833451  0.01594646  1
  Si0+  Si114  1  0.93116081  0.32276658  0.65253081  1
  Si0+  Si115  1  0.32269301  0.07262035  0.68520893  1
  Si0+  Si116  1  0.57134146  0.17693271  0.98412916  1
  Si0+  Si117  1  0.07245775  0.67920837  0.65263745  1
  Si0+  Si118  1  0.67843483  0.92592816  0.35125890  1
  Si0+  Si119  1  0.57102277  0.67825871  0.98197319  1
  O2-  O120  1  0.24739691  0.00183813  0.05684704  1
  O2-  O121  1  0.24895082  -0.00507437  0.39232766  1
  O2-  O122  1  0.25623629  0.00200577  0.73001296  1
  O2-  O123  1  0.24932125  0.49358258  0.06252784  1
  O2-  O124  1  0.25043412  0.50002991  0.39282545  1
  O2-  O125  1  0.25203426  0.49617844  0.72361917  1
  O2-  O126  1  0.74701427  0.00030848  0.06486427  1
  O2-  O127  1  0.74493682  -0.00303483  0.39654519  1
  O2-  O128  1  0.74773809  0.00240836  0.72115181  1
  O2-  O129  1  0.75136993  0.49036750  0.06112350  1
  O2-  O130  1  0.75657940  0.50470060  0.39313250  1
  O2-  O131  1  0.74965983  0.50131624  0.73162107  1
  O2-  O132  1  -0.00416829  0.24619088  0.27166271  1
  O2-  O133  1  0.00016298  0.25010146  0.60903665  1
  O2-  O134  1  -0.00375409  0.24788070  0.93286325  1
  O2-  O135  1  0.00363790  0.74313913  0.27418978  1
  O2-  O136  1  -0.00127708  0.74790173  0.61118700  1
  O2-  O137  1  0.00006206  0.74102875  0.93653047  1
  O2-  O138  1  0.49814863  0.24600496  0.26909712  1
  O2-  O139  1  0.49641070  0.25542658  0.60825909  1
  O2-  O140  1  0.50641236  0.24893025  0.93856700  1
  O2-  O141  1  0.50198945  0.75227735  0.26799728  1
  O2-  O142  1  0.49492604  0.75519435  0.60688438  1
  O2-  O143  1  0.50408277  0.74914278  0.93770173  1
  O2-  O144  1  0.07379574  0.17960759  0.09556833  1
  O2-  O145  1  0.07095182  0.18110841  0.43558237  1
  O2-  O146  1  0.07010358  0.17741998  0.75482418  1
  O2-  O147  1  0.07500446  0.68260790  0.08915332  1
  O2-  O148  1  0.07568141  0.67586512  0.42296577  1
  O2-  O149  1  0.07749013  0.67967780  0.75693933  1
  O2-  O150  1  0.56874175  0.17569260  0.08914273  1
  O2-  O151  1  0.57280316  0.18183047  0.43211701  1
  O2-  O152  1  0.56928162  0.17819399  0.76621878  1
  O2-  O153  1  0.56829346  0.67657184  0.08710652  1
  O2-  O154  1  0.56950136  0.67761155  0.43036204  1
  O2-  O155  1  0.56915364  0.68288305  0.76610771  1
  O2-  O156  1  0.17855110  0.43179654  0.24431038  1
  O2-  O157  1  0.17644919  0.42929348  0.57710310  1
  O2-  O158  1  0.18134713  0.42903581  0.91140192  1
  O2-  O159  1  0.17877158  0.92437728  0.24400514  1
  O2-  O160  1  0.17843679  0.93098866  0.56878832  1
  O2-  O161  1  0.18104351  0.92738072  0.91034350  1
  O2-  O162  1  0.67881064  0.43245840  0.23395727  1
  O2-  O163  1  0.67864812  0.42789405  0.57020701  1
  O2-  O164  1  0.67559220  0.43016338  0.91158598  1
  O2-  O165  1  0.68035639  0.92510171  0.24611849  1
  O2-  O166  1  0.68133661  0.92797080  0.57370332  1
  O2-  O167  1  0.67636069  0.93023970  0.90011058  1
  O2-  O168  1  0.42985194  0.31957016  0.09829911  1
  O2-  O169  1  0.42904330  0.32002827  0.43412650  1
  O2-  O170  1  0.42420959  0.32153054  0.75664410  1
  O2-  O171  1  0.42566913  0.82033824  0.09727350  1
  O2-  O172  1  0.42626949  0.81629298  0.43389709  1
  O2-  O173  1  0.42382596  0.81966126  0.75620974  1
  O2-  O174  1  0.92995349  0.32389663  0.09613835  1
  O2-  O175  1  0.93146461  0.32276405  0.43512390  1
  O2-  O176  1  0.93372212  0.32241561  0.75719755  1
  O2-  O177  1  0.93159586  0.81878735  0.09735688  1
  O2-  O178  1  0.93321997  0.81967303  0.43428928  1
  O2-  O179  1  0.92940642  0.82227143  0.75682271  1
  O2-  O180  1  0.31901410  0.07374910  0.23320325  1
  O2-  O181  1  0.32084966  0.07367904  0.57982764  1
  O2-  O182  1  0.31791360  0.06971314  0.90759615  1
  O2-  O183  1  0.31815854  0.57285996  0.24517067  1
  O2-  O184  1  0.31643924  0.57154303  0.57559926  1
  O2-  O185  1  0.31927015  0.56991545  0.90135042  1
  O2-  O186  1  0.82289705  0.06752316  0.23477442  1
  O2-  O187  1  0.82516960  0.07008197  0.57596180  1
  O2-  O188  1  0.81848124  0.06826341  0.90051478  1
  O2-  O189  1  0.82537920  0.57200546  0.24367910  1
  O2-  O190  1  0.82347475  0.57238424  0.56705996  1
  O2-  O191  1  0.81728535  0.57044591  0.90211864  1
  O2-  O192  1  0.05041682  0.07837588  0.27033546  1
  O2-  O193  1  0.04148884  0.08608311  0.60376166  1
  O2-  O194  1  0.04408283  0.07887127  0.92844553  1
  O2-  O195  1  0.05306576  0.58273679  0.26970916  1
  O2-  O196  1  0.04852717  0.58618681  0.60479358  1
  O2-  O197  1  0.05518215  0.58193387  0.94078023  1
  O2-  O198  1  0.55225883  0.07652428  0.26977635  1
  O2-  O199  1  0.54243009  0.08401446  0.59665486  1
  O2-  O200  1  0.54069812  0.08552136  0.93589196  1
  O2-  O201  1  0.53956055  0.58190999  0.26277592  1
  O2-  O202  1  0.53800728  0.58357224  0.60012796  1
  O2-  O203  1  0.54162380  0.58619361  0.93477620  1
  O2-  O204  1  0.16758967  0.21131757  0.26847107  1
  O2-  O205  1  0.16343657  0.20517347  0.60489544  1
  O2-  O206  1  0.16661412  0.20847821  0.92437279  1
  O2-  O207  1  0.16683210  0.70314966  0.27035023  1
  O2-  O208  1  0.16228077  0.71004932  0.60186940  1
  O2-  O209  1  0.16431966  0.70920037  0.93594977  1
  O2-  O210  1  0.67008279  0.20964590  0.26523033  1
  O2-  O211  1  0.66994981  0.20991099  0.60059761  1
  O2-  O212  1  0.66568526  0.19896104  0.93816183  1
  O2-  O213  1  0.67102236  0.70153162  0.26409557  1
  O2-  O214  1  0.66552832  0.71276377  0.59677970  1
  O2-  O215  1  0.66470665  0.70284013  0.93658305  1
  O2-  O216  1  0.08713331  0.45220980  0.06437391  1
  O2-  O217  1  0.08857306  0.45949736  0.39919642  1
  O2-  O218  1  0.08872910  0.45981882  0.73231325  1
  O2-  O219  1  0.08568882  0.95338815  0.06014432  1
  O2-  O220  1  0.08645363  0.95293638  0.39745781  1
  O2-  O221  1  0.08400918  0.96268659  0.73759932  1
  O2-  O222  1  0.58613788  0.45858666  0.06402005  1
  O2-  O223  1  0.58377437  0.46318408  0.40227120  1
  O2-  O224  1  0.57771591  0.45598156  0.73501019  1
  O2-  O225  1  0.57505456  0.95425488  0.06536215  1
  O2-  O226  1  0.58370178  0.94544851  0.39737019  1
  O2-  O227  1  0.58494478  0.95579085  0.72432490  1
  O2-  O228  1  0.20575798  0.33108612  0.05937932  1
  O2-  O229  1  0.20690554  0.33896692  0.39914958  1
  O2-  O230  1  0.20160707  0.33503663  0.72950125  1
  O2-  O231  1  0.20843185  0.83778678  0.06370749  1
  O2-  O232  1  0.20370700  0.83264823  0.39740145  1
  O2-  O233  1  0.20623346  0.83277158  0.73758166  1
  O2-  O234  1  0.69619000  0.33085261  0.05974212  1
  O2-  O235  1  0.71023565  0.33491976  0.40330579  1
  O2-  O236  1  0.70746466  0.33074611  0.73785121  1
  O2-  O237  1  0.70204850  0.82960386  0.06663941  1
  O2-  O238  1  0.70986364  0.83260918  0.39647227  1
  O2-  O239  1  0.70758507  0.83964968  0.72747612  1
  O2-  O240  1  0.45810924  0.41823940  0.26822290  1
  O2-  O241  1  0.44715550  0.41762637  0.60670348  1
  O2-  O242  1  0.45980616  0.41913128  0.93224557  1
  O2-  O243  1  0.45185993  0.92035473  0.26855106  1
  O2-  O244  1  0.44707747  0.91736561  0.60750057  1
  O2-  O245  1  0.45381808  0.91825018  0.92800050  1
  O2-  O246  1  0.96038601  0.41951718  0.26818192  1
  O2-  O247  1  0.96167085  0.41433416  0.60615356  1
  O2-  O248  1  0.96111729  0.42012042  0.92950043  1
  O2-  O249  1  0.96447106  0.91401564  0.26468818  1
  O2-  O250  1  0.96228682  0.91279426  0.60524020  1
  O2-  O251  1  0.96103549  0.91232879  0.92811028  1
  O2-  O252  1  0.32992212  0.29607302  0.26836275  1
  O2-  O253  1  0.33149434  0.29646370  0.60587192  1
  O2-  O254  1  0.33562623  0.29130477  0.92864762  1
  O2-  O255  1  0.33010409  0.79106113  0.26725373  1
  O2-  O256  1  0.33086585  0.79454595  0.60580123  1
  O2-  O257  1  0.33189645  0.78622488  0.93095050  1
  O2-  O258  1  0.82945722  0.29849921  0.26893409  1
  O2-  O259  1  0.83810194  0.29639338  0.60792263  1
  O2-  O260  1  0.82743179  0.29660233  0.92968083  1
  O2-  O261  1  0.83555113  0.79221823  0.26351062  1
  O2-  O262  1  0.83793955  0.79738543  0.60284700  1
  O2-  O263  1  0.82990479  0.78803918  0.93228755  1
  O2-  O264  1  0.41019106  0.04420318  0.05952376  1
  O2-  O265  1  0.41920737  0.04171117  0.40247632  1
  O2-  O266  1  0.41765626  0.04990248  0.72986782  1
  O2-  O267  1  0.41824366  0.54147501  0.06895604  1
  O2-  O268  1  0.41231091  0.54312449  0.39713239  1
  O2-  O269  1  0.41141775  0.54660591  0.72885852  1
  O2-  O270  1  0.92018232  0.03877053  0.06393981  1
  O2-  O271  1  0.91763777  0.03556854  0.40207053  1
  O2-  O272  1  0.91198742  0.04086323  0.72962817  1
  O2-  O273  1  0.92157996  0.54546563  0.06675440  1
  O2-  O274  1  0.92013785  0.55161845  0.39407494  1
  O2-  O275  1  0.92085409  0.54852607  0.73361051  1
  O2-  O276  1  0.29070648  0.16463635  0.05760489  1
  O2-  O277  1  0.28915686  0.16689522  0.40396646  1
  O2-  O278  1  0.29387906  0.16565864  0.73171931  1
  O2-  O279  1  0.28664636  0.66538628  0.07023279  1
  O2-  O280  1  0.29074469  0.66193033  0.39976458  1
  O2-  O281  1  0.28758136  0.66086983  0.72898931  1
  O2-  O282  1  0.79671731  0.17088341  0.06538058  1
  O2-  O283  1  0.79270509  0.16668896  0.40194855  1
  O2-  O284  1  0.79636563  0.16354632  0.72804255  1
  O2-  O285  1  0.78857310  0.66428376  0.06957522  1
  O2-  O286  1  0.79879055  0.66815399  0.39326082  1
  O2-  O287  1  0.79075901  0.67279195  0.73120745  1
