# generated using pymatgen
data_Ca2Al2SiO7
_symmetry_space_group_name_H-M   'P 1'
_cell_length_a   15.45819107
_cell_length_b   15.45913699
_cell_length_c   15.28442620
_cell_angle_alpha   89.99916644
_cell_angle_beta   90.00064494
_cell_angle_gamma   90.00579781
_symmetry_Int_Tables_number   1
_chemical_formula_structural   Ca2Al2SiO7
_chemical_formula_sum   'Ca48 Al48 Si24 O168'
_cell_volume   3652.52379192
_cell_formula_units_Z   24
loop_
 _symmetry_equiv_pos_site_id
 _symmetry_equiv_pos_as_xyz
  1  'x, y, z'
loop_
 _atom_type_symbol
 _atom_type_oxidation_number
  Ca2+  2.0
  Al0+  0.0
  Si0+  0.0
  O2-  -2.0
loop_
 _atom_site_type_symbol
 _atom_site_label
 _atom_site_symmetry_multiplicity
 _atom_site_fract_x
 _atom_site_fract_y
 _atom_site_fract_z
 _atom_site_occupancy
  Ca2+  Ca0  1  0.16994544  0.08154014  0.17273296  1
  Ca2+  Ca1  1  0.17170219  0.08585761  0.50667782  1
  Ca2+  Ca2  1  0.16719124  0.07724453  0.83268566  1
  Ca2+  Ca3  1  0.16075178  0.57067125  0.16929098  1
  Ca2+  Ca4  1  0.17103437  0.56740869  0.50798117  1
  Ca2+  Ca5  1  0.17164671  0.57327916  0.83723641  1
  Ca2+  Ca6  1  0.67305267  0.08550130  0.16704034  1
  Ca2+  Ca7  1  0.67489230  0.08834405  0.50789150  1
  Ca2+  Ca8  1  0.68116048  0.09141428  0.83624972  1
  Ca2+  Ca9  1  0.66604429  0.58288999  0.17156044  1
  Ca2+  Ca10  1  0.67086845  0.58060376  0.50226189  1
  Ca2+  Ca11  1  0.66218663  0.57236213  0.83685369  1
  Ca2+  Ca12  1  0.08394087  0.33276371  0.16679738  1
  Ca2+  Ca13  1  0.08520306  0.32588326  0.49421381  1
  Ca2+  Ca14  1  0.07907747  0.32993224  0.82204305  1
  Ca2+  Ca15  1  0.08578156  0.82593200  0.15615002  1
  Ca2+  Ca16  1  0.08650893  0.83373442  0.50130608  1
  Ca2+  Ca17  1  0.09682838  0.82948451  0.83058577  1
  Ca2+  Ca18  1  0.56917168  0.34056596  0.16015689  1
  Ca2+  Ca19  1  0.57159418  0.33919220  0.50098430  1
  Ca2+  Ca20  1  0.57368510  0.34223479  0.82813366  1
  Ca2+  Ca21  1  0.58413871  0.82072533  0.16151181  1
  Ca2+  Ca22  1  0.57525105  0.82898251  0.49486071  1
  Ca2+  Ca23  1  0.57761381  0.82502158  0.82649190  1
  Ca2+  Ca24  1  0.32425722  0.40750599  0.17030145  1
  Ca2+  Ca25  1  0.32593351  0.41362508  0.50738674  1
  Ca2+  Ca26  1  0.32415899  0.40932508  0.83505636  1
  Ca2+  Ca27  1  0.32872083  0.92246372  0.17128194  1
  Ca2+  Ca28  1  0.33095200  0.92865532  0.51146739  1
  Ca2+  Ca29  1  0.32796691  0.91811079  0.83190736  1
  Ca2+  Ca30  1  0.82774008  0.42192835  0.17412395  1
  Ca2+  Ca31  1  0.83159031  0.41259003  0.50450619  1
  Ca2+  Ca32  1  0.81947055  0.40616025  0.83573730  1
  Ca2+  Ca33  1  0.83555640  0.92304080  0.16692218  1
  Ca2+  Ca34  1  0.83036056  0.92448246  0.50754567  1
  Ca2+  Ca35  1  0.83901787  0.93220929  0.83635021  1
  Ca2+  Ca36  1  0.40974584  0.17655569  0.16666560  1
  Ca2+  Ca37  1  0.40396895  0.17621652  0.49705076  1
  Ca2+  Ca38  1  0.41398885  0.17639950  0.82633324  1
  Ca2+  Ca39  1  0.42959334  0.66049153  0.16114750  1
  Ca2+  Ca40  1  0.41568213  0.66831050  0.50060481  1
  Ca2+  Ca41  1  0.41604257  0.66801209  0.82588422  1
  Ca2+  Ca42  1  0.92066235  0.17117318  0.16485382  1
  Ca2+  Ca43  1  0.92657981  0.17679513  0.49886771  1
  Ca2+  Ca44  1  0.92108808  0.16800967  0.82138050  1
  Ca2+  Ca45  1  0.92063782  0.66428181  0.16212838  1
  Ca2+  Ca46  1  0.91560001  0.66570430  0.49343078  1
  Ca2+  Ca47  1  0.92580450  0.66691302  0.83267112  1
  Al0+  Al48  1  0.00097298  0.00084003  0.00989914  1
  Al0+  Al49  1  -0.00071973  -0.00036814  0.33027379  1
  Al0+  Al50  1  -0.00004200  -0.00138974  0.66881902  1
  Al0+  Al51  1  -0.00022906  0.50029706  -0.00244985  1
  Al0+  Al52  1  -0.00181020  0.50009540  0.33877211  1
  Al0+  Al53  1  -0.00134319  0.50174663  0.66639675  1
  Al0+  Al54  1  0.50240652  0.00127335  0.00061714  1
  Al0+  Al55  1  0.49970899  0.00011172  0.33521982  1
  Al0+  Al56  1  0.50059824  -0.00156371  0.66696768  1
  Al0+  Al57  1  0.49931548  0.50006205  -0.00544656  1
  Al0+  Al58  1  0.49943158  0.50051992  0.32584310  1
  Al0+  Al59  1  0.50223685  0.50079644  0.66746010  1
  Al0+  Al60  1  0.24854010  0.24979567  -0.00066301  1
  Al0+  Al61  1  0.24873522  0.24779419  0.33186569  1
  Al0+  Al62  1  0.24983784  0.24848378  0.66761873  1
  Al0+  Al63  1  0.25115303  0.74967505  0.00156058  1
  Al0+  Al64  1  0.24953620  0.74998915  0.33159314  1
  Al0+  Al65  1  0.25211998  0.74900693  0.66578634  1
  Al0+  Al66  1  0.74896640  0.25140547  0.01247472  1
  Al0+  Al67  1  0.74964650  0.25061014  0.33096648  1
  Al0+  Al68  1  0.74988597  0.25087296  0.67012475  1
  Al0+  Al69  1  0.75107054  0.75179732  -0.00787460  1
  Al0+  Al70  1  0.74980650  0.74980765  0.33311466  1
  Al0+  Al71  1  0.75154546  0.74896320  0.66726863  1
  Al0+  Al72  1  0.42959922  0.31926712  0.31996184  1
  Al0+  Al73  1  0.07083330  0.17757895  0.65298399  1
  Al0+  Al74  1  0.81938474  0.57089265  0.34614684  1
  Al0+  Al75  1  0.17772795  0.42856041  0.01453029  1
  Al0+  Al76  1  0.67707562  0.43172399  0.01610232  1
  Al0+  Al77  1  0.68141345  0.43096345  0.67883228  1
  Al0+  Al78  1  0.42946267  0.32058637  0.65323000  1
  Al0+  Al79  1  0.57007162  0.68127369  0.32000952  1
  Al0+  Al80  1  0.32152675  0.56996832  0.68031000  1
  Al0+  Al81  1  0.81915795  0.06959532  0.67802406  1
  Al0+  Al82  1  0.82143769  0.07167179  0.01693044  1
  Al0+  Al83  1  0.17997844  0.42976073  0.34706323  1
  Al0+  Al84  1  0.18174858  0.92838160  0.01534039  1
  Al0+  Al85  1  0.92663285  0.32275812  0.65329119  1
  Al0+  Al86  1  0.17927671  0.92877638  0.68048892  1
  Al0+  Al87  1  0.32348377  0.07263582  0.68321085  1
  Al0+  Al88  1  0.57204551  0.67936184  0.98326966  1
  Al0+  Al89  1  0.07152327  0.67831258  0.98593618  1
  Al0+  Al90  1  0.42833384  0.31844092  0.98444231  1
  Al0+  Al91  1  0.92786524  0.32328442  0.31648207  1
  Al0+  Al92  1  0.17765582  0.42709448  0.68159056  1
  Al0+  Al93  1  0.31991973  0.06890228  0.34674047  1
  Al0+  Al94  1  0.07040074  0.17858015  0.31589346  1
  Al0+  Al95  1  0.42888114  0.82096604  0.65226974  1
  Si0+  Si96  1  0.67771719  0.92511791  0.68321242  1
  Si0+  Si97  1  0.82163612  0.57341932  0.01436857  1
  Si0+  Si98  1  0.07086496  0.67906930  0.32002279  1
  Si0+  Si99  1  0.92838808  0.82069843  0.31831840  1
  Si0+  Si100  1  0.57379343  0.67832268  0.64815867  1
  Si0+  Si101  1  0.57393243  0.17527930  0.31658962  1
  Si0+  Si102  1  0.17626883  0.92531117  0.34984278  1
  Si0+  Si103  1  0.07173143  0.67929495  0.65035778  1
  Si0+  Si104  1  0.67829888  0.92682945  0.01633182  1
  Si0+  Si105  1  0.06913400  0.17816911  0.98518732  1
  Si0+  Si106  1  0.32141983  0.57164215  0.01705333  1
  Si0+  Si107  1  0.82139254  0.07166296  0.34962976  1
  Si0+  Si108  1  0.82338761  0.57598568  0.68580775  1
  Si0+  Si109  1  0.93036858  0.82474847  0.98251729  1
  Si0+  Si110  1  0.68055665  0.92866729  0.34742603  1
  Si0+  Si111  1  0.42726763  0.82402346  0.31556954  1
  Si0+  Si112  1  0.42880729  0.82408079  0.98379991  1
  Si0+  Si113  1  0.57281988  0.17772408  0.65226873  1
  Si0+  Si114  1  0.32430524  0.57323113  0.34786881  1
  Si0+  Si115  1  0.92759740  0.32058542  0.98659292  1
  Si0+  Si116  1  0.57455230  0.17801299  0.98426107  1
  Si0+  Si117  1  0.92833825  0.82019834  0.65163777  1
  Si0+  Si118  1  0.67550731  0.42802355  0.34970986  1
  Si0+  Si119  1  0.32349545  0.07260277  0.01706441  1
  O2-  O120  1  0.25731143  0.00164790  0.06177682  1
  O2-  O121  1  0.24598092  -0.00723404  0.39238885  1
  O2-  O122  1  0.25004031  0.00111721  0.73161922  1
  O2-  O123  1  0.25232699  0.50364154  0.06175303  1
  O2-  O124  1  0.25593817  0.50452205  0.39141207  1
  O2-  O125  1  0.25221016  0.49653612  0.73203349  1
  O2-  O126  1  0.74603383  -0.00414515  0.06193439  1
  O2-  O127  1  0.74688290  0.00349692  0.39089765  1
  O2-  O128  1  0.74398837  -0.00397714  0.72706613  1
  O2-  O129  1  0.75054092  0.50882832  0.06059181  1
  O2-  O130  1  0.74709478  0.49419350  0.39300361  1
  O2-  O131  1  0.75800156  0.50344545  0.72748893  1
  O2-  O132  1  -0.00093797  0.25126137  0.26493101  1
  O2-  O133  1  0.00394958  0.25578343  0.60430985  1
  O2-  O134  1  -0.00199864  0.24935673  0.94388332  1
  O2-  O135  1  0.00224600  0.75246757  0.27697189  1
  O2-  O136  1  -0.00159750  0.74895276  0.60841382  1
  O2-  O137  1  -0.00060841  0.75624428  0.93875134  1
  O2-  O138  1  0.50598660  0.24511988  0.27349957  1
  O2-  O139  1  0.50023184  0.24122587  0.60693272  1
  O2-  O140  1  0.50439813  0.24383489  0.93926230  1
  O2-  O141  1  0.49300335  0.75284059  0.27109941  1
  O2-  O142  1  0.50518219  0.74763385  0.60514810  1
  O2-  O143  1  0.49738416  0.75532889  0.93951326  1
  O2-  O144  1  0.06877562  0.17818590  0.09029614  1
  O2-  O145  1  0.06867349  0.17607625  0.42893018  1
  O2-  O146  1  0.06635704  0.17451118  0.76721330  1
  O2-  O147  1  0.06711931  0.67872010  0.09967099  1
  O2-  O148  1  0.07019060  0.68146736  0.42506104  1
  O2-  O149  1  0.07070653  0.68040633  0.75549896  1
  O2-  O150  1  0.57372965  0.17720391  0.09001151  1
  O2-  O151  1  0.57704719  0.17348359  0.42189344  1
  O2-  O152  1  0.57565087  0.18004652  0.75781808  1
  O2-  O153  1  0.57227407  0.68168253  0.09685058  1
  O2-  O154  1  0.57163447  0.68455809  0.43268256  1
  O2-  O155  1  0.57541219  0.68048012  0.75370392  1
  O2-  O156  1  0.17964898  0.43224271  0.23352611  1
  O2-  O157  1  0.17820748  0.42916376  0.56778572  1
  O2-  O158  1  0.17651056  0.42794910  0.90207657  1
  O2-  O159  1  0.17701057  0.92286023  0.24413871  1
  O2-  O160  1  0.17934624  0.92835991  0.56667264  1
  O2-  O161  1  0.18180305  0.92959372  0.90289198  1
  O2-  O162  1  0.67478453  0.43123551  0.24405643  1
  O2-  O163  1  0.68024634  0.43328738  0.56560203  1
  O2-  O164  1  0.67914357  0.43024229  0.90306189  1
  O2-  O165  1  0.68380253  0.92746842  0.24227136  1
  O2-  O166  1  0.68105818  0.92324463  0.57711401  1
  O2-  O167  1  0.67852211  0.92691325  0.91113737  1
  O2-  O168  1  0.42761532  0.31649524  0.09792264  1
  O2-  O169  1  0.43102965  0.32009923  0.43286506  1
  O2-  O170  1  0.43209737  0.32082073  0.76620899  1
  O2-  O171  1  0.43081619  0.82454913  0.08974880  1
  O2-  O172  1  0.42911817  0.82484550  0.42085498  1
  O2-  O173  1  0.43094403  0.81890694  0.76555764  1
  O2-  O174  1  0.92895563  0.32072046  0.09161294  1
  O2-  O175  1  0.92637602  0.32004535  0.42952096  1
  O2-  O176  1  0.92403429  0.31739341  0.76756084  1
  O2-  O177  1  0.92930099  0.82320478  0.08860071  1
  O2-  O178  1  0.92677369  0.82115456  0.42352444  1
  O2-  O179  1  0.92557090  0.81909086  0.75638627  1
  O2-  O180  1  0.31950014  0.06606409  0.23311598  1
  O2-  O181  1  0.32297157  0.07044748  0.56952743  1
  O2-  O182  1  0.32336714  0.07271551  0.91204722  1
  O2-  O183  1  0.32374118  0.57484247  0.24221709  1
  O2-  O184  1  0.31844174  0.57040394  0.56616178  1
  O2-  O185  1  0.31946060  0.57270557  0.91175623  1
  O2-  O186  1  0.82091775  0.06863677  0.24442595  1
  O2-  O187  1  0.81711452  0.06664852  0.56469791  1
  O2-  O188  1  0.82172214  0.07120445  0.90388001  1
  O2-  O189  1  0.81758868  0.57417841  0.23294797  1
  O2-  O190  1  0.82010032  0.58261949  0.58034214  1
  O2-  O191  1  0.82281859  0.57164809  0.90903240  1
  O2-  O192  1  0.04064741  0.07939571  0.26280954  1
  O2-  O193  1  0.03744250  0.08017569  0.59980907  1
  O2-  O194  1  0.03970765  0.08542655  0.94113654  1
  O2-  O195  1  0.03912318  0.58875662  0.27298017  1
  O2-  O196  1  0.04377960  0.58812463  0.60191836  1
  O2-  O197  1  0.03727945  0.58398969  0.92932999  1
  O2-  O198  1  0.54852127  0.08135126  0.26980359  1
  O2-  O199  1  0.55620646  0.08117940  0.60837803  1
  O2-  O200  1  0.55490237  0.08242928  0.93896815  1
  O2-  O201  1  0.54209911  0.58534261  0.26312737  1
  O2-  O202  1  0.54821247  0.58560673  0.60154473  1
  O2-  O203  1  0.53973128  0.58422624  0.92884776  1
  O2-  O204  1  0.16813325  0.20655926  0.26184096  1
  O2-  O205  1  0.17038606  0.20129282  0.60129436  1
  O2-  O206  1  0.16115780  0.20434698  0.93863298  1
  O2-  O207  1  0.16327925  0.70332173  0.27101614  1
  O2-  O208  1  0.16169278  0.70937023  0.60156765  1
  O2-  O209  1  0.16918435  0.70831460  0.93403549  1
  O2-  O210  1  0.66750302  0.19917874  0.26935509  1
  O2-  O211  1  0.66401392  0.20872346  0.60391439  1
  O2-  O212  1  0.66896124  0.20666097  0.94150647  1
  O2-  O213  1  0.66542069  0.71638934  0.26498366  1
  O2-  O214  1  0.66794859  0.70514473  0.60274003  1
  O2-  O215  1  0.66837062  0.70935043  0.92790752  1
  O2-  O216  1  0.08096810  0.46196425  0.06765414  1
  O2-  O217  1  0.08465685  0.46216908  0.40172023  1
  O2-  O218  1  0.07880034  0.45823534  0.73261351  1
  O2-  O219  1  0.08579326  0.95778186  0.07146544  1
  O2-  O220  1  0.08118224  0.94994613  0.39345498  1
  O2-  O221  1  0.07991934  0.95182935  0.73409774  1
  O2-  O222  1  0.57970896  0.46353824  0.06779961  1
  O2-  O223  1  0.58262169  0.45811202  0.39457732  1
  O2-  O224  1  0.58703254  0.46471348  0.73485557  1
  O2-  O225  1  0.58492828  0.95126990  0.06442292  1
  O2-  O226  1  0.58701691  0.95112777  0.39357078  1
  O2-  O227  1  0.58367601  0.94636353  0.72850771  1
  O2-  O228  1  0.20914358  0.33158850  0.06803595  1
  O2-  O229  1  0.21050224  0.33258437  0.39795834  1
  O2-  O230  1  0.20321954  0.32854688  0.73398490  1
  O2-  O231  1  0.21085455  0.83122018  0.07051177  1
  O2-  O232  1  0.19970258  0.83063303  0.39537055  1
  O2-  O233  1  0.21096852  0.83108122  0.73258603  1
  O2-  O234  1  0.70673672  0.33690097  0.07352595  1
  O2-  O235  1  0.69785116  0.33258196  0.39327878  1
  O2-  O236  1  0.70951524  0.33491957  0.73551952  1
  O2-  O237  1  0.70723275  0.83345665  0.06213118  1
  O2-  O238  1  0.71329939  0.83987539  0.39719375  1
  O2-  O239  1  0.70645278  0.83274208  0.73017281  1
  O2-  O240  1  0.45798192  0.41549352  0.26326469  1
  O2-  O241  1  0.46500555  0.41634229  0.59978029  1
  O2-  O242  1  0.45873825  0.41494286  0.93138734  1
  O2-  O243  1  0.45660965  0.91613981  0.26819660  1
  O2-  O244  1  0.46027710  0.91742849  0.59715762  1
  O2-  O245  1  0.45463910  0.91804747  0.93824907  1
  O2-  O246  1  0.95511889  0.42348847  0.26628796  1
  O2-  O247  1  0.94473499  0.42520598  0.60417153  1
  O2-  O248  1  0.95315540  0.41227527  0.93873766  1
  O2-  O249  1  0.95292383  0.91256231  0.26937011  1
  O2-  O250  1  0.95619617  0.91100809  0.60253981  1
  O2-  O251  1  0.95729497  0.91930942  0.93983786  1
  O2-  O252  1  0.33472719  0.28492450  0.26501015  1
  O2-  O253  1  0.33216746  0.29219384  0.60017355  1
  O2-  O254  1  0.33165583  0.28622777  0.93133106  1
  O2-  O255  1  0.33201864  0.80151431  0.27078707  1
  O2-  O256  1  0.33397315  0.78836313  0.59571192  1
  O2-  O257  1  0.33530718  0.79764138  0.93907982  1
  O2-  O258  1  0.82830341  0.29533238  0.26397242  1
  O2-  O259  1  0.83016602  0.28838840  0.59930940  1
  O2-  O260  1  0.83392067  0.29124371  0.94404839  1
  O2-  O261  1  0.83831373  0.79047993  0.26904521  1
  O2-  O262  1  0.83643356  0.79307678  0.60234819  1
  O2-  O263  1  0.83727819  0.80165175  0.93434668  1
  O2-  O264  1  0.41885287  0.05043377  0.06228914  1
  O2-  O265  1  0.41793627  0.04164444  0.40029867  1
  O2-  O266  1  0.42260868  0.04365911  0.73518986  1
  O2-  O267  1  0.41532040  0.54435497  0.06103357  1
  O2-  O268  1  0.41862745  0.54886467  0.39250259  1
  O2-  O269  1  0.42214446  0.54909855  0.73078303  1
  O2-  O270  1  0.91515735  0.03814515  0.07480400  1
  O2-  O271  1  0.91185581  0.03861449  0.39568318  1
  O2-  O272  1  0.91321306  0.03509323  0.73391299  1
  O2-  O273  1  0.91394424  0.54492555  0.06155525  1
  O2-  O274  1  0.91542003  0.54509714  0.40314651  1
  O2-  O275  1  0.91868022  0.55588678  0.72946425  1
  O2-  O276  1  0.29206477  0.16408245  0.06386331  1
  O2-  O277  1  0.28720795  0.16444303  0.39992644  1
  O2-  O278  1  0.29544963  0.16995432  0.73675866  1
  O2-  O279  1  0.29943140  0.66572450  0.06410433  1
  O2-  O280  1  0.29903683  0.66790561  0.39296559  1
  O2-  O281  1  0.29099639  0.66717656  0.73385837  1
  O2-  O282  1  0.78897285  0.16526662  0.07540038  1
  O2-  O283  1  0.79502451  0.16446560  0.39505029  1
  O2-  O284  1  0.78797599  0.16435920  0.73457451  1
  O2-  O285  1  0.80064639  0.67020824  0.05667391  1
  O2-  O286  1  0.78722849  0.66732585  0.40146073  1
  O2-  O287  1  0.79537467  0.66801220  0.73474460  1
