# generated using pymatgen
data_Ca2Al2SiO7
_symmetry_space_group_name_H-M   'P 1'
_cell_length_a   15.46178039
_cell_length_b   15.46203659
_cell_length_c   15.28668280
_cell_angle_alpha   90.00018736
_cell_angle_beta   90.00065356
_cell_angle_gamma   89.98258983
_symmetry_Int_Tables_number   1
_chemical_formula_structural   Ca2Al2SiO7
_chemical_formula_sum   'Ca48 Al48 Si24 O168'
_cell_volume   3654.59647798
_cell_formula_units_Z   24
loop_
 _symmetry_equiv_pos_site_id
 _symmetry_equiv_pos_as_xyz
  1  'x, y, z'
loop_
 _atom_type_symbol
 _atom_type_oxidation_number
  Ca2+  2.0
  Al0+  0.0
  Si0+  0.0
  O2-  -2.0
loop_
 _atom_site_type_symbol
 _atom_site_label
 _atom_site_symmetry_multiplicity
 _atom_site_fract_x
 _atom_site_fract_y
 _atom_site_fract_z
 _atom_site_occupancy
  Ca2+  Ca0  1  0.16607529  0.07840331  0.16809212  1
  Ca2+  Ca1  1  0.17116104  0.08583423  0.50530547  1
  Ca2+  Ca2  1  0.17444511  0.08436969  0.84039226  1
  Ca2+  Ca3  1  0.17139462  0.58113910  0.17172106  1
  Ca2+  Ca4  1  0.17230873  0.57366217  0.50415682  1
  Ca2+  Ca5  1  0.15809623  0.57555221  0.83644842  1
  Ca2+  Ca6  1  0.66045898  0.08622570  0.16463986  1
  Ca2+  Ca7  1  0.67217735  0.08229759  0.50999039  1
  Ca2+  Ca8  1  0.67037372  0.07675987  0.83809744  1
  Ca2+  Ca9  1  0.66753365  0.58007534  0.17032450  1
  Ca2+  Ca10  1  0.67187807  0.57868273  0.50871124  1
  Ca2+  Ca11  1  0.67414797  0.58328382  0.83493247  1
  Ca2+  Ca12  1  0.08250478  0.31872938  0.15930004  1
  Ca2+  Ca13  1  0.08514464  0.32303154  0.50346066  1
  Ca2+  Ca14  1  0.07947289  0.32315527  0.82746470  1
  Ca2+  Ca15  1  0.09337493  0.82957141  0.15918406  1
  Ca2+  Ca16  1  0.07521865  0.84272276  0.49672501  1
  Ca2+  Ca17  1  0.08601938  0.82815599  0.82941485  1
  Ca2+  Ca18  1  0.57365200  0.32320643  0.16176186  1
  Ca2+  Ca19  1  0.57799515  0.32490562  0.48998687  1
  Ca2+  Ca20  1  0.57658038  0.32731193  0.83592276  1
  Ca2+  Ca21  1  0.56897749  0.83890619  0.16037947  1
  Ca2+  Ca22  1  0.57088050  0.84098631  0.49968784  1
  Ca2+  Ca23  1  0.57483136  0.84855938  0.83069862  1
  Ca2+  Ca24  1  0.34339894  0.42150084  0.17313265  1
  Ca2+  Ca25  1  0.33281501  0.41906508  0.50524163  1
  Ca2+  Ca26  1  0.32645077  0.41416771  0.83793242  1
  Ca2+  Ca27  1  0.32622020  0.91835724  0.16732592  1
  Ca2+  Ca28  1  0.33025416  0.92005039  0.50483700  1
  Ca2+  Ca29  1  0.33423861  0.92603345  0.84149372  1
  Ca2+  Ca30  1  0.83578429  0.41132093  0.16604293  1
  Ca2+  Ca31  1  0.83639490  0.42118701  0.51097162  1
  Ca2+  Ca32  1  0.84702442  0.41833539  0.83554875  1
  Ca2+  Ca33  1  0.82398543  0.91696004  0.16803154  1
  Ca2+  Ca34  1  0.82517189  0.92244137  0.51476029  1
  Ca2+  Ca35  1  0.82576500  0.91654710  0.83394127  1
  Ca2+  Ca36  1  0.42296461  0.17015715  0.15806638  1
  Ca2+  Ca37  1  0.42073009  0.16863522  0.49396762  1
  Ca2+  Ca38  1  0.41761707  0.15708802  0.83241064  1
  Ca2+  Ca39  1  0.40554662  0.67892406  0.16463686  1
  Ca2+  Ca40  1  0.40979315  0.67808328  0.49515079  1
  Ca2+  Ca41  1  0.41737034  0.68355950  0.82869764  1
  Ca2+  Ca42  1  0.92962536  0.16823193  0.15949506  1
  Ca2+  Ca43  1  0.92873430  0.15879659  0.49967593  1
  Ca2+  Ca44  1  0.92807663  0.16810096  0.82421613  1
  Ca2+  Ca45  1  0.92704619  0.67016741  0.15808373  1
  Ca2+  Ca46  1  0.91269656  0.67132545  0.50415023  1
  Ca2+  Ca47  1  0.91995472  0.67164555  0.82757869  1
  Al0+  Al48  1  -0.00211166  -0.00156247  0.00049342  1
  Al0+  Al49  1  -0.00249313  -0.00039576  0.33072730  1
  Al0+  Al50  1  0.00039567  -0.00214453  0.66244583  1
  Al0+  Al51  1  0.00191705  0.50254964  -0.00233636  1
  Al0+  Al52  1  0.00043826  0.50144407  0.33535866  1
  Al0+  Al53  1  0.00075227  0.49895612  0.66986146  1
  Al0+  Al54  1  0.50049216  0.00089632  0.00205222  1
  Al0+  Al55  1  0.49855734  -0.00139011  0.32564934  1
  Al0+  Al56  1  0.49829948  0.00049164  0.66639651  1
  Al0+  Al57  1  0.50234766  0.50031022  -0.00296563  1
  Al0+  Al58  1  0.50232591  0.50252077  0.33817163  1
  Al0+  Al59  1  0.50069928  0.50156727  0.66833073  1
  Al0+  Al60  1  0.24917524  0.25154647  -0.00006952  1
  Al0+  Al61  1  0.24841656  0.25006782  0.32566967  1
  Al0+  Al62  1  0.25039967  0.25093970  0.67097247  1
  Al0+  Al63  1  0.25059549  0.74881460  -0.00829576  1
  Al0+  Al64  1  0.24754098  0.74923142  0.34019545  1
  Al0+  Al65  1  0.25147194  0.74855747  0.66054209  1
  Al0+  Al66  1  0.74837071  0.25269751  -0.00547859  1
  Al0+  Al67  1  0.75060105  0.25026805  0.33175284  1
  Al0+  Al68  1  0.74977729  0.25089205  0.66812497  1
  Al0+  Al69  1  0.75059480  0.74897816  0.00783608  1
  Al0+  Al70  1  0.74933072  0.75075745  0.33442707  1
  Al0+  Al71  1  0.74934182  0.74698381  0.67097821  1
  Al0+  Al72  1  0.32036220  0.07321159  0.01744348  1
  Al0+  Al73  1  0.93025671  0.32113958  0.98607135  1
  Al0+  Al74  1  0.67833701  0.92979036  0.68041213  1
  Al0+  Al75  1  0.31916948  0.07014310  0.67799035  1
  Al0+  Al76  1  0.56928866  0.17845935  0.98159472  1
  Al0+  Al77  1  0.42662300  0.81874694  0.31877646  1
  Al0+  Al78  1  0.17798198  0.92971675  0.34801875  1
  Al0+  Al79  1  0.92882333  0.81907574  0.65392457  1
  Al0+  Al80  1  0.67984061  0.92944083  0.01634519  1
  Al0+  Al81  1  0.18153333  0.43042833  0.68113776  1
  Al0+  Al82  1  0.57258508  0.17803217  0.31863155  1
  Al0+  Al83  1  0.07021919  0.17728214  0.31821429  1
  Al0+  Al84  1  0.82390036  0.07251441  0.68164148  1
  Al0+  Al85  1  0.92856635  0.32119662  0.65072595  1
  Al0+  Al86  1  0.42989137  0.82228791  0.65128356  1
  Al0+  Al87  1  0.07187680  0.68158847  0.98657775  1
  Al0+  Al88  1  0.42882178  0.32338442  0.32107920  1
  Al0+  Al89  1  0.07108554  0.17475606  0.98376646  1
  Al0+  Al90  1  0.82019610  0.56863140  0.68193243  1
  Al0+  Al91  1  0.42800611  0.32376601  0.98367900  1
  Al0+  Al92  1  0.43062758  0.81970361  0.98630428  1
  Al0+  Al93  1  0.07314088  0.17764194  0.65093168  1
  Al0+  Al94  1  0.17811970  0.92710010  0.01187907  1
  Al0+  Al95  1  0.32125574  0.57017892  0.34735713  1
  Si0+  Si96  1  0.82241409  0.57233102  0.34869665  1
  Si0+  Si97  1  0.82248428  0.56961999  0.01791274  1
  Si0+  Si98  1  0.92645388  0.82067561  0.31769503  1
  Si0+  Si99  1  0.56983812  0.17954611  0.65250018  1
  Si0+  Si100  1  0.06847019  0.67918052  0.32013677  1
  Si0+  Si101  1  0.92444756  0.82086552  0.98516823  1
  Si0+  Si102  1  0.57144125  0.67633210  0.64978144  1
  Si0+  Si103  1  0.92902763  0.32465386  0.31829833  1
  Si0+  Si104  1  0.17747337  0.92536935  0.68088425  1
  Si0+  Si105  1  0.17813944  0.43106722  0.01636186  1
  Si0+  Si106  1  0.07236073  0.67663114  0.64708481  1
  Si0+  Si107  1  0.32355686  0.57366276  0.68532268  1
  Si0+  Si108  1  0.67734356  0.92873529  0.34836132  1
  Si0+  Si109  1  0.67789908  0.42940809  0.01690275  1
  Si0+  Si110  1  0.57531917  0.67771808  0.98415265  1
  Si0+  Si111  1  0.42943391  0.32310144  0.65259431  1
  Si0+  Si112  1  0.82097650  0.07484115  0.01730144  1
  Si0+  Si113  1  0.32191168  0.07229112  0.34825240  1
  Si0+  Si114  1  0.67533277  0.42662122  0.68539074  1
  Si0+  Si115  1  0.68147135  0.42934950  0.34833435  1
  Si0+  Si116  1  0.32246093  0.56987742  0.01254864  1
  Si0+  Si117  1  0.57456544  0.67923677  0.31748713  1
  Si0+  Si118  1  0.17655678  0.42622437  0.34926162  1
  Si0+  Si119  1  0.81954075  0.07077405  0.34706406  1
  O2-  O120  1  0.24583169  0.00157573  0.06500839  1
  O2-  O121  1  0.25229637  0.00516636  0.39386384  1
  O2-  O122  1  0.24408292  -0.00450594  0.72400346  1
  O2-  O123  1  0.25500670  0.49666333  0.05748624  1
  O2-  O124  1  0.25140226  0.48966334  0.39215239  1
  O2-  O125  1  0.25455903  0.50641122  0.72987358  1
  O2-  O126  1  0.75319301  0.00563180  0.06373546  1
  O2-  O127  1  0.74511241  0.00302787  0.38923370  1
  O2-  O128  1  0.75226596  -0.00034069  0.73057574  1
  O2-  O129  1  0.75190969  0.49811345  0.05989961  1
  O2-  O130  1  0.75323656  0.49970703  0.39065958  1
  O2-  O131  1  0.74842778  0.49121930  0.72909752  1
  O2-  O132  1  -0.00234232  0.25635363  0.27503150  1
  O2-  O133  1  -0.00359476  0.24570131  0.60033411  1
  O2-  O134  1  -0.00309157  0.24553207  0.93568729  1
  O2-  O135  1  -0.00103563  0.75092090  0.27651916  1
  O2-  O136  1  0.00634032  0.74838000  0.60328067  1
  O2-  O137  1  -0.00019934  0.75936802  0.94201291  1
  O2-  O138  1  0.49718207  0.24813186  0.27119984  1
  O2-  O139  1  0.50199882  0.25389854  0.61043495  1
  O2-  O140  1  0.49268109  0.24614847  0.93200380  1
  O2-  O141  1  0.50288952  0.74405998  0.27319335  1
  O2-  O142  1  0.50365543  0.74543828  0.60531429  1
  O2-  O143  1  0.50964539  0.74853616  0.94019010  1
  O2-  O144  1  0.06903386  0.17688003  0.09805879  1
  O2-  O145  1  0.06966044  0.17640783  0.43094832  1
  O2-  O146  1  0.07502939  0.17957018  0.76371403  1
  O2-  O147  1  0.07023684  0.67877536  0.10049117  1
  O2-  O148  1  0.06477915  0.67603524  0.42474378  1
  O2-  O149  1  0.07158212  0.67754608  0.75277085  1
  O2-  O150  1  0.57059474  0.18294505  0.09530993  1
  O2-  O151  1  0.57519468  0.18033923  0.43286384  1
  O2-  O152  1  0.56804016  0.17852479  0.75699788  1
  O2-  O153  1  0.57498764  0.67572388  0.08997935  1
  O2-  O154  1  0.57991483  0.68106424  0.42271812  1
  O2-  O155  1  0.56924983  0.67194160  0.75509987  1
  O2-  O156  1  0.17019132  0.43151509  0.24401457  1
  O2-  O157  1  0.18535693  0.43093101  0.56743547  1
  O2-  O158  1  0.17560287  0.43515760  0.91147607  1
  O2-  O159  1  0.17888295  0.92695500  0.23533297  1
  O2-  O160  1  0.17942625  0.92569939  0.57487796  1
  O2-  O161  1  0.18165597  0.92338652  0.89862419  1
  O2-  O162  1  0.68258174  0.43105715  0.24327598  1
  O2-  O163  1  0.67219503  0.43025414  0.57935234  1
  O2-  O164  1  0.67489139  0.43319580  0.91229689  1
  O2-  O165  1  0.68115533  0.92464486  0.24355548  1
  O2-  O166  1  0.67741363  0.93325596  0.56586615  1
  O2-  O167  1  0.68324836  0.92721667  0.90379286  1
  O2-  O168  1  0.43502475  0.32999583  0.09694469  1
  O2-  O169  1  0.43215860  0.32267560  0.43536746  1
  O2-  O170  1  0.43085022  0.32530036  0.75711250  1
  O2-  O171  1  0.42802847  0.81531620  0.09963064  1
  O2-  O172  1  0.42943429  0.81954405  0.43185435  1
  O2-  O173  1  0.43094024  0.82163269  0.76409374  1
  O2-  O174  1  0.93344279  0.32168745  0.10065320  1
  O2-  O175  1  0.92804815  0.32738048  0.42324174  1
  O2-  O176  1  0.93374288  0.32241192  0.76362638  1
  O2-  O177  1  0.92055156  0.81518082  0.09129159  1
  O2-  O178  1  0.92380942  0.81887616  0.42260449  1
  O2-  O179  1  0.92868955  0.81564036  0.76676261  1
  O2-  O180  1  0.32208103  0.07045336  0.24323850  1
  O2-  O181  1  0.32143492  0.07058547  0.56426912  1
  O2-  O182  1  0.32088994  0.06900998  0.90366954  1
  O2-  O183  1  0.31729747  0.57210102  0.23381246  1
  O2-  O184  1  0.32359947  0.57173470  0.57942430  1
  O2-  O185  1  0.32147323  0.56921590  0.90768721  1
  O2-  O186  1  0.82078219  0.06882432  0.24206655  1
  O2-  O187  1  0.82032397  0.07063690  0.56694059  1
  O2-  O188  1  0.82019947  0.07340213  0.91221615  1
  O2-  O189  1  0.82270363  0.57318810  0.24360961  1
  O2-  O190  1  0.81711976  0.56865949  0.56794954  1
  O2-  O191  1  0.82184792  0.57108004  0.91329366  1
  O2-  O192  1  0.03333573  0.08302266  0.26316001  1
  O2-  O193  1  0.04847311  0.07815226  0.59757077  1
  O2-  O194  1  0.04533696  0.07505443  0.93268658  1
  O2-  O195  1  0.03965191  0.58813058  0.27038580  1
  O2-  O196  1  0.04199694  0.58462559  0.60141308  1
  O2-  O197  1  0.03548059  0.58800170  0.93122158  1
  O2-  O198  1  0.54796626  0.07952867  0.26530817  1
  O2-  O199  1  0.53848599  0.09015064  0.60281845  1
  O2-  O200  1  0.54584153  0.07839390  0.93129974  1
  O2-  O201  1  0.55326030  0.58377938  0.27396157  1
  O2-  O202  1  0.54544788  0.58302685  0.60119512  1
  O2-  O203  1  0.54924707  0.58562716  0.93615612  1
  O2-  O204  1  0.16610212  0.20513570  0.26213895  1
  O2-  O205  1  0.17016682  0.21406988  0.59820627  1
  O2-  O206  1  0.16908810  0.20624181  0.93411314  1
  O2-  O207  1  0.16058516  0.70641085  0.27428814  1
  O2-  O208  1  0.16742023  0.69684117  0.60165789  1
  O2-  O209  1  0.16668477  0.70612170  0.92728615  1
  O2-  O210  1  0.67014844  0.20966078  0.26483920  1
  O2-  O211  1  0.66267060  0.20466231  0.60559798  1
  O2-  O212  1  0.66587868  0.21211942  0.92862576  1
  O2-  O213  1  0.66726444  0.70615055  0.26869582  1
  O2-  O214  1  0.66591177  0.69938721  0.60504199  1
  O2-  O215  1  0.67086972  0.70048739  0.94122683  1
  O2-  O216  1  0.08956865  0.46721858  0.06560751  1
  O2-  O217  1  0.08609370  0.45990596  0.39845127  1
  O2-  O218  1  0.08609809  0.46253472  0.73566445  1
  O2-  O219  1  0.07621470  0.94646624  0.06410555  1
  O2-  O220  1  0.07877036  0.95903982  0.39865906  1
  O2-  O221  1  0.08220161  0.94492786  0.72442710  1
  O2-  O222  1  0.58845477  0.46250467  0.06677132  1
  O2-  O223  1  0.59154867  0.45804153  0.39903802  1
  O2-  O224  1  0.58410457  0.45835014  0.73345930  1
  O2-  O225  1  0.58367487  0.95954268  0.07076614  1
  O2-  O226  1  0.58324513  0.95297023  0.39224405  1
  O2-  O227  1  0.58179956  0.96279343  0.73281538  1
  O2-  O228  1  0.19930130  0.33774287  0.06256437  1
  O2-  O229  1  0.19665267  0.33040133  0.39233698  1
  O2-  O230  1  0.21377230  0.33625701  0.73746831  1
  O2-  O231  1  0.21103739  0.82770667  0.06368512  1
  O2-  O232  1  0.20585600  0.83348228  0.40408970  1
  O2-  O233  1  0.20365474  0.83031987  0.72382390  1
  O2-  O234  1  0.70468446  0.33751801  0.06462793  1
  O2-  O235  1  0.70821119  0.33734949  0.39627031  1
  O2-  O236  1  0.69462923  0.33177490  0.72965581  1
  O2-  O237  1  0.71162436  0.83306846  0.07292768  1
  O2-  O238  1  0.70863801  0.83801007  0.39670180  1
  O2-  O239  1  0.70231091  0.82995732  0.73149104  1
  O2-  O240  1  0.46172737  0.42213197  0.27058833  1
  O2-  O241  1  0.45625273  0.41606602  0.60561340  1
  O2-  O242  1  0.46349264  0.41982612  0.92872032  1
  O2-  O243  1  0.45697113  0.91382084  0.26293014  1
  O2-  O244  1  0.46291911  0.91749873  0.59540825  1
  O2-  O245  1  0.46108118  0.91660841  0.93502660  1
  O2-  O246  1  0.95276091  0.41933470  0.27208642  1
  O2-  O247  1  0.96084402  0.41961272  0.59854256  1
  O2-  O248  1  0.96247552  0.41894395  0.93486845  1
  O2-  O249  1  0.95093064  0.91222643  0.26959708  1
  O2-  O250  1  0.95579081  0.91490250  0.59593693  1
  O2-  O251  1  0.93967357  0.91705085  0.94310155  1
  O2-  O252  1  0.32863077  0.30480585  0.26877761  1
  O2-  O253  1  0.33843921  0.29419451  0.60572452  1
  O2-  O254  1  0.32606976  0.30524350  0.93644084  1
  O2-  O255  1  0.32981748  0.78332467  0.26836195  1
  O2-  O256  1  0.33385519  0.79048473  0.59547038  1
  O2-  O257  1  0.33798171  0.78465878  0.92873248  1
  O2-  O258  1  0.83547151  0.29904766  0.27203971  1
  O2-  O259  1  0.82587034  0.30197944  0.60136845  1
  O2-  O260  1  0.82868427  0.30525993  0.93623876  1
  O2-  O261  1  0.83569628  0.78966957  0.26925767  1
  O2-  O262  1  0.83254621  0.78369485  0.60008305  1
  O2-  O263  1  0.83433753  0.78540057  0.93852342  1
  O2-  O264  1  0.41877161  0.04329366  0.06920483  1
  O2-  O265  1  0.41635824  0.04496000  0.39293517  1
  O2-  O266  1  0.41427621  0.03724014  0.73265490  1
  O2-  O267  1  0.41592926  0.54623300  0.05976149  1
  O2-  O268  1  0.42007542  0.54773687  0.40229834  1
  O2-  O269  1  0.41750816  0.54896720  0.73049410  1
  O2-  O270  1  0.91420512  0.04831202  0.06447026  1
  O2-  O271  1  0.90931054  0.03844712  0.39523291  1
  O2-  O272  1  0.92265741  0.04251233  0.73187649  1
  O2-  O273  1  0.91435352  0.54137580  0.06594284  1
  O2-  O274  1  0.91424676  0.54675460  0.39717549  1
  O2-  O275  1  0.91752921  0.54181418  0.73557628  1
  O2-  O276  1  0.29563436  0.17375056  0.06871024  1
  O2-  O277  1  0.29737881  0.16781577  0.39172331  1
  O2-  O278  1  0.29283926  0.16653519  0.73342039  1
  O2-  O279  1  0.28964708  0.66044213  0.05912662  1
  O2-  O280  1  0.28367175  0.66241335  0.40537290  1
  O2-  O281  1  0.29824537  0.66840522  0.72866211  1
  O2-  O282  1  0.79382180  0.16911141  0.06206517  1
  O2-  O283  1  0.79611664  0.16422836  0.39371502  1
  O2-  O284  1  0.79625955  0.17136445  0.73305843  1
  O2-  O285  1  0.79411654  0.65964711  0.06914173  1
  O2-  O286  1  0.79243425  0.66366918  0.39644309  1
  O2-  O287  1  0.78697125  0.66264045  0.73896164  1
