# generated using pymatgen
data_Ca2Al2SiO7
_symmetry_space_group_name_H-M   'P 1'
_cell_length_a   15.46274553
_cell_length_b   15.46197555
_cell_length_c   15.28700573
_cell_angle_alpha   89.98793094
_cell_angle_beta   89.99296539
_cell_angle_gamma   89.99600956
_symmetry_Int_Tables_number   1
_chemical_formula_structural   Ca2Al2SiO7
_chemical_formula_sum   'Ca48 Al48 Si24 O168'
_cell_volume   3654.88743093
_cell_formula_units_Z   24
loop_
 _symmetry_equiv_pos_site_id
 _symmetry_equiv_pos_as_xyz
  1  'x, y, z'
loop_
 _atom_type_symbol
 _atom_type_oxidation_number
  Ca2+  2.0
  Al0+  0.0
  Si0+  0.0
  O2-  -2.0
loop_
 _atom_site_type_symbol
 _atom_site_label
 _atom_site_symmetry_multiplicity
 _atom_site_fract_x
 _atom_site_fract_y
 _atom_site_fract_z
 _atom_site_occupancy
  Ca2+  Ca0  1  0.17476993  0.09268114  0.16855215  1
  Ca2+  Ca1  1  0.17318483  0.09214569  0.50441962  1
  Ca2+  Ca2  1  0.17480728  0.08972222  0.83812280  1
  Ca2+  Ca3  1  0.17110140  0.58459467  0.16672050  1
  Ca2+  Ca4  1  0.16771100  0.57851004  0.50371390  1
  Ca2+  Ca5  1  0.16839577  0.56974269  0.84568315  1
  Ca2+  Ca6  1  0.66779732  0.07381591  0.17087862  1
  Ca2+  Ca7  1  0.67314525  0.08060662  0.49843903  1
  Ca2+  Ca8  1  0.66312887  0.07808991  0.84395138  1
  Ca2+  Ca9  1  0.67374285  0.58347590  0.16570046  1
  Ca2+  Ca10  1  0.67470620  0.58244353  0.50684147  1
  Ca2+  Ca11  1  0.67851362  0.58653154  0.83947605  1
  Ca2+  Ca12  1  0.08283300  0.32332011  0.15696513  1
  Ca2+  Ca13  1  0.09048101  0.32478355  0.50055801  1
  Ca2+  Ca14  1  0.09448861  0.32615376  0.83453846  1
  Ca2+  Ca15  1  0.08011032  0.82213643  0.15734820  1
  Ca2+  Ca16  1  0.08284621  0.82513270  0.49161305  1
  Ca2+  Ca17  1  0.08152300  0.82598748  0.83611815  1
  Ca2+  Ca18  1  0.57540860  0.32281259  0.15472691  1
  Ca2+  Ca19  1  0.57497543  0.33437630  0.49836242  1
  Ca2+  Ca20  1  0.57136163  0.33000343  0.83302380  1
  Ca2+  Ca21  1  0.58039864  0.83890294  0.15851058  1
  Ca2+  Ca22  1  0.57882958  0.83732140  0.49979559  1
  Ca2+  Ca23  1  0.57292281  0.83705677  0.83495100  1
  Ca2+  Ca24  1  0.33074456  0.42360639  0.16552768  1
  Ca2+  Ca25  1  0.32821956  0.42147048  0.50815874  1
  Ca2+  Ca26  1  0.32670794  0.41376686  0.84211220  1
  Ca2+  Ca27  1  0.33679220  0.92854656  0.16817556  1
  Ca2+  Ca28  1  0.33320806  0.92872077  0.50527727  1
  Ca2+  Ca29  1  0.34073034  0.92579300  0.83976923  1
  Ca2+  Ca30  1  0.84310045  0.41865773  0.16224146  1
  Ca2+  Ca31  1  0.83246473  0.42257146  0.50692430  1
  Ca2+  Ca32  1  0.83880644  0.42513340  0.84163184  1
  Ca2+  Ca33  1  0.82383676  0.91599198  0.16986551  1
  Ca2+  Ca34  1  0.83128250  0.92016425  0.49904841  1
  Ca2+  Ca35  1  0.82565812  0.91413028  0.84496321  1
  Ca2+  Ca36  1  0.41797189  0.16690746  0.15401595  1
  Ca2+  Ca37  1  0.40589770  0.17190568  0.49984560  1
  Ca2+  Ca38  1  0.41056962  0.17378488  0.83447131  1
  Ca2+  Ca39  1  0.41227811  0.67155929  0.15708225  1
  Ca2+  Ca40  1  0.41103393  0.67418163  0.49446299  1
  Ca2+  Ca41  1  0.40455846  0.68062647  0.83312480  1
  Ca2+  Ca42  1  0.92550133  0.16667107  0.15738244  1
  Ca2+  Ca43  1  0.92890855  0.16398427  0.49069768  1
  Ca2+  Ca44  1  0.92980524  0.17205577  0.83103036  1
  Ca2+  Ca45  1  0.92656224  0.66897540  0.15531568  1
  Ca2+  Ca46  1  0.92239360  0.66417585  0.49476195  1
  Ca2+  Ca47  1  0.91571642  0.66431059  0.83594763  1
  Al0+  Al48  1  0.00029829  -0.00176387  -0.00864344  1
  Al0+  Al49  1  -0.00016565  -0.00105022  0.33069613  1
  Al0+  Al50  1  0.00044591  -0.00136704  0.66186885  1
  Al0+  Al51  1  0.00081236  0.49876873  0.00382708  1
  Al0+  Al52  1  0.00087416  0.49902291  0.33048810  1
  Al0+  Al53  1  0.00015253  0.49918000  0.67357656  1
  Al0+  Al54  1  0.50050887  -0.00121365  0.00124667  1
  Al0+  Al55  1  0.49939550  0.00109658  0.34340124  1
  Al0+  Al56  1  0.50104501  -0.00016375  0.66436683  1
  Al0+  Al57  1  0.50202859  0.50012886  -0.00039634  1
  Al0+  Al58  1  0.49921210  0.50241414  0.33758933  1
  Al0+  Al59  1  0.50151863  0.50086154  0.66264643  1
  Al0+  Al60  1  0.25103968  0.25069136  0.00313426  1
  Al0+  Al61  1  0.24854876  0.25304185  0.33244443  1
  Al0+  Al62  1  0.25146536  0.25029272  0.66555472  1
  Al0+  Al63  1  0.24906440  0.75100247  -0.00612053  1
  Al0+  Al64  1  0.25095537  0.75100354  0.33262909  1
  Al0+  Al65  1  0.24857688  0.75195152  0.65934812  1
  Al0+  Al66  1  0.75107551  0.24893458  -0.00848637  1
  Al0+  Al67  1  0.74800603  0.25061205  0.33793382  1
  Al0+  Al68  1  0.75005703  0.25032723  0.66657321  1
  Al0+  Al69  1  0.74924346  0.74961539  0.00639701  1
  Al0+  Al70  1  0.74739727  0.74866700  0.33915361  1
  Al0+  Al71  1  0.75030977  0.75090264  0.66852416  1
  Al0+  Al72  1  0.07097219  0.17908841  0.31868672  1
  Al0+  Al73  1  0.67827114  0.92754432  0.35178616  1
  Al0+  Al74  1  0.07147586  0.67883996  0.31939316  1
  Al0+  Al75  1  0.18220070  0.43043420  0.68044991  1
  Al0+  Al76  1  0.57085181  0.17634374  0.98677959  1
  Al0+  Al77  1  0.42870512  0.82159818  0.65017228  1
  Al0+  Al78  1  0.32247673  0.57377311  0.01269485  1
  Al0+  Al79  1  0.42912242  0.82019747  0.98918351  1
  Al0+  Al80  1  0.92875768  0.32125745  0.98447577  1
  Al0+  Al81  1  0.31853570  0.07291090  0.34761973  1
  Al0+  Al82  1  0.82273846  0.07199118  0.34689837  1
  Al0+  Al83  1  0.31875627  0.06872674  0.01283200  1
  Al0+  Al84  1  0.07167162  0.67794983  0.98341928  1
  Al0+  Al85  1  0.32092406  0.57266266  0.34829323  1
  Al0+  Al86  1  0.42921034  0.32274883  0.98687572  1
  Al0+  Al87  1  0.67953216  0.93039711  0.01301090  1
  Al0+  Al88  1  0.82041215  0.56930587  0.01617617  1
  Al0+  Al89  1  0.81982695  0.57024546  0.68075814  1
  Al0+  Al90  1  0.07315780  0.17795882  0.98407526  1
  Al0+  Al91  1  0.92634716  0.81947508  0.98576969  1
  Al0+  Al92  1  0.31965531  0.06871505  0.68152353  1
  Al0+  Al93  1  0.17953181  0.42811657  0.01840842  1
  Al0+  Al94  1  0.07016474  0.17978817  0.65119190  1
  Al0+  Al95  1  0.43011458  0.32055834  0.65165200  1
  Si0+  Si96  1  0.92711976  0.32285395  0.64920474  1
  Si0+  Si97  1  0.92447100  0.32139615  0.31837296  1
  Si0+  Si98  1  0.82429079  0.07273307  0.01276458  1
  Si0+  Si99  1  0.43178920  0.82196959  0.31863032  1
  Si0+  Si100  1  0.57161841  0.67761308  0.31861225  1
  Si0+  Si101  1  0.82139095  0.56872960  0.34796767  1
  Si0+  Si102  1  0.68127544  0.93121888  0.68312106  1
  Si0+  Si103  1  0.92694206  0.82009899  0.64959227  1
  Si0+  Si104  1  0.17519183  0.92712689  0.01519300  1
  Si0+  Si105  1  0.67660009  0.42904660  0.34882353  1
  Si0+  Si106  1  0.57463520  0.17720404  0.64699424  1
  Si0+  Si107  1  0.17825653  0.92720991  0.34801789  1
  Si0+  Si108  1  0.92518582  0.82021710  0.31755646  1
  Si0+  Si109  1  0.06874061  0.67734603  0.65144820  1
  Si0+  Si110  1  0.82372507  0.07153347  0.68174243  1
  Si0+  Si111  1  0.42947490  0.32306656  0.31898625  1
  Si0+  Si112  1  0.57019252  0.17965666  0.32043769  1
  Si0+  Si113  1  0.57313506  0.67728721  0.98503266  1
  Si0+  Si114  1  0.17556284  0.92513252  0.68304133  1
  Si0+  Si115  1  0.67595560  0.42679490  0.68443742  1
  Si0+  Si116  1  0.67812423  0.42506060  0.01620864  1
  Si0+  Si117  1  0.57387530  0.68038541  0.64967249  1
  Si0+  Si118  1  0.32354611  0.57501471  0.68156299  1
  Si0+  Si119  1  0.17767125  0.43002597  0.35156825  1
  O2-  O120  1  0.24158672  -0.00281759  0.06081567  1
  O2-  O121  1  0.24048345  0.00107363  0.39380017  1
  O2-  O122  1  0.24510471  -0.00710074  0.72654926  1
  O2-  O123  1  0.25109938  0.50281857  0.06540099  1
  O2-  O124  1  0.24553927  0.49962585  0.39589742  1
  O2-  O125  1  0.25770030  0.50493895  0.72582280  1
  O2-  O126  1  0.75540402  0.00467854  0.05782415  1
  O2-  O127  1  0.75297626  -0.00161979  0.39959010  1
  O2-  O128  1  0.75021534  0.00391004  0.72507249  1
  O2-  O129  1  0.74775067  0.49192019  0.06277954  1
  O2-  O130  1  0.75084883  0.49753019  0.39064795  1
  O2-  O131  1  0.74567872  0.49485990  0.72703291  1
  O2-  O132  1  -0.01006084  0.24909961  0.27613361  1
  O2-  O133  1  -0.00716271  0.25235522  0.60367895  1
  O2-  O134  1  0.00200557  0.25113786  0.93425627  1
  O2-  O135  1  -0.00459882  0.75300931  0.27458891  1
  O2-  O136  1  -0.00101821  0.74964109  0.60809622  1
  O2-  O137  1  -0.00265696  0.74793878  0.93329008  1
  O2-  O138  1  0.49749058  0.24862123  0.27795467  1
  O2-  O139  1  0.50566666  0.24642534  0.60340267  1
  O2-  O140  1  0.50042502  0.24968733  0.93718886  1
  O2-  O141  1  0.50286984  0.75065429  0.27681358  1
  O2-  O142  1  0.50035763  0.74304147  0.60370466  1
  O2-  O143  1  0.49896189  0.74045042  0.94195413  1
  O2-  O144  1  0.07118242  0.17796373  0.09793516  1
  O2-  O145  1  0.07252853  0.18341749  0.43215306  1
  O2-  O146  1  0.06980390  0.17962651  0.76331714  1
  O2-  O147  1  0.07125055  0.68129481  0.09736454  1
  O2-  O148  1  0.06781635  0.67859118  0.43351825  1
  O2-  O149  1  0.06851323  0.67818287  0.75558871  1
  O2-  O150  1  0.56954396  0.17646384  0.10129267  1
  O2-  O151  1  0.57194729  0.18295851  0.42565325  1
  O2-  O152  1  0.57725575  0.17668769  0.75190513  1
  O2-  O153  1  0.57498684  0.67908270  0.09106848  1
  O2-  O154  1  0.57216728  0.67610947  0.42382170  1
  O2-  O155  1  0.57826380  0.68365505  0.75458279  1
  O2-  O156  1  0.17804596  0.42932034  0.24685973  1
  O2-  O157  1  0.18177236  0.43348289  0.56664373  1
  O2-  O158  1  0.18289351  0.42762151  0.90455018  1
  O2-  O159  1  0.18261928  0.92374658  0.24301552  1
  O2-  O160  1  0.17508367  0.92313242  0.57703705  1
  O2-  O161  1  0.17696466  0.92667334  0.90951033  1
  O2-  O162  1  0.67361272  0.42969283  0.24444734  1
  O2-  O163  1  0.67698995  0.42825434  0.57793037  1
  O2-  O164  1  0.67734670  0.42841466  0.91078597  1
  O2-  O165  1  0.67684691  0.92781934  0.23871412  1
  O2-  O166  1  0.68341266  0.93029091  0.57796601  1
  O2-  O167  1  0.67915534  0.93045475  0.89945576  1
  O2-  O168  1  0.43188937  0.32193471  0.10123864  1
  O2-  O169  1  0.43160546  0.32323983  0.42446727  1
  O2-  O170  1  0.43108066  0.32004274  0.76384210  1
  O2-  O171  1  0.43230245  0.82227830  0.10259960  1
  O2-  O172  1  0.43272863  0.82011386  0.42399454  1
  O2-  O173  1  0.43104841  0.82231256  0.76289148  1
  O2-  O174  1  0.92782153  0.31671195  0.09874586  1
  O2-  O175  1  0.92442031  0.32471531  0.42422438  1
  O2-  O176  1  0.92563533  0.32211419  0.75387028  1
  O2-  O177  1  0.92661128  0.81779638  0.09967804  1
  O2-  O178  1  0.92561814  0.81742934  0.42400355  1
  O2-  O179  1  0.92399907  0.82034206  0.75386229  1
  O2-  O180  1  0.32262499  0.07122225  0.23501026  1
  O2-  O181  1  0.31658232  0.06883156  0.56784233  1
  O2-  O182  1  0.31990560  0.06731472  0.89983209  1
  O2-  O183  1  0.32422861  0.57176645  0.23610856  1
  O2-  O184  1  0.32036378  0.57467102  0.57537205  1
  O2-  O185  1  0.32032750  0.57458376  0.89895392  1
  O2-  O186  1  0.81928662  0.07267817  0.23373245  1
  O2-  O187  1  0.82294107  0.06893140  0.57649800  1
  O2-  O188  1  0.82246058  0.07016720  0.90678725  1
  O2-  O189  1  0.82012284  0.56927026  0.24358230  1
  O2-  O190  1  0.81901325  0.56913064  0.56654508  1
  O2-  O191  1  0.81614810  0.57113101  0.90312280  1
  O2-  O192  1  0.04752577  0.07967868  0.26711426  1
  O2-  O193  1  0.04165890  0.08176641  0.59694555  1
  O2-  O194  1  0.04712736  0.08009415  0.92927334  1
  O2-  O195  1  0.04098963  0.58221694  0.26641850  1
  O2-  O196  1  0.03788481  0.58607697  0.60408921  1
  O2-  O197  1  0.04349298  0.57885127  0.93439785  1
  O2-  O198  1  0.54358141  0.08574899  0.27759140  1
  O2-  O199  1  0.54947599  0.08367750  0.60093739  1
  O2-  O200  1  0.54020454  0.07995587  0.93228495  1
  O2-  O201  1  0.54356440  0.58606065  0.27119349  1
  O2-  O202  1  0.55596697  0.58451020  0.60442324  1
  O2-  O203  1  0.55701576  0.58204999  0.93953833  1
  O2-  O204  1  0.16607492  0.21511590  0.26486649  1
  O2-  O205  1  0.16555251  0.21489683  0.59737705  1
  O2-  O206  1  0.17111258  0.20918549  0.93297146  1
  O2-  O207  1  0.16796483  0.71110163  0.26675048  1
  O2-  O208  1  0.16009233  0.70423734  0.60162555  1
  O2-  O209  1  0.16738523  0.70866404  0.92701889  1
  O2-  O210  1  0.66159633  0.20891446  0.27322316  1
  O2-  O211  1  0.66842266  0.20418163  0.59980987  1
  O2-  O212  1  0.66858795  0.20107439  0.93129404  1
  O2-  O213  1  0.66497207  0.70280161  0.27271304  1
  O2-  O214  1  0.66519117  0.71242395  0.60043950  1
  O2-  O215  1  0.66370654  0.71023279  0.93789117  1
  O2-  O216  1  0.08086326  0.45365872  0.07123330  1
  O2-  O217  1  0.08324816  0.45480492  0.39766136  1
  O2-  O218  1  0.08583415  0.45934639  0.73454849  1
  O2-  O219  1  0.07993543  0.94889470  0.05965444  1
  O2-  O220  1  0.08160700  0.94423770  0.39149859  1
  O2-  O221  1  0.08100490  0.94980157  0.72720053  1
  O2-  O222  1  0.58593087  0.45214517  0.06472995  1
  O2-  O223  1  0.58790668  0.46141916  0.40029531  1
  O2-  O224  1  0.58255863  0.45378620  0.72944966  1
  O2-  O225  1  0.58511816  0.96276155  0.06974958  1
  O2-  O226  1  0.58274271  0.95997519  0.40828556  1
  O2-  O227  1  0.58835015  0.95723565  0.72817803  1
  O2-  O228  1  0.21070426  0.33147082  0.07304292  1
  O2-  O229  1  0.20665989  0.33780679  0.39874183  1
  O2-  O230  1  0.21444893  0.33440809  0.73266651  1
  O2-  O231  1  0.20288215  0.83408550  0.06065255  1
  O2-  O232  1  0.20940926  0.83667997  0.39827691  1
  O2-  O233  1  0.20056978  0.83060528  0.72742901  1
  O2-  O234  1  0.70255199  0.33000206  0.06011036  1
  O2-  O235  1  0.70126409  0.33781032  0.39926657  1
  O2-  O236  1  0.69924261  0.33207193  0.72832985  1
  O2-  O237  1  0.70853496  0.83488616  0.06995801  1
  O2-  O238  1  0.70452285  0.82837410  0.40649739  1
  O2-  O239  1  0.71092308  0.83993881  0.72963735  1
  O2-  O240  1  0.46159017  0.41434674  0.27373686  1
  O2-  O241  1  0.46025477  0.41816770  0.59613995  1
  O2-  O242  1  0.45827985  0.42044966  0.93247283  1
  O2-  O243  1  0.46085279  0.91504380  0.27483494  1
  O2-  O244  1  0.46475753  0.91634758  0.59510344  1
  O2-  O245  1  0.46681797  0.91294174  0.93308335  1
  O2-  O246  1  0.95331095  0.41372980  0.27145993  1
  O2-  O247  1  0.95536768  0.41681121  0.60412677  1
  O2-  O248  1  0.95345601  0.42146566  0.93543496  1
  O2-  O249  1  0.94631075  0.91467770  0.27283739  1
  O2-  O250  1  0.95453002  0.91121033  0.60016185  1
  O2-  O251  1  0.95221589  0.91659049  0.92922397  1
  O2-  O252  1  0.33639153  0.29968999  0.27389343  1
  O2-  O253  1  0.33525270  0.28794378  0.59518258  1
  O2-  O254  1  0.33223527  0.29204380  0.93477120  1
  O2-  O255  1  0.33980194  0.79508376  0.27255452  1
  O2-  O256  1  0.33134205  0.79475845  0.59409689  1
  O2-  O257  1  0.33325539  0.79578825  0.93099501  1
  O2-  O258  1  0.82865609  0.30148536  0.27429625  1
  O2-  O259  1  0.83163159  0.30114125  0.60348127  1
  O2-  O260  1  0.83122583  0.29603767  0.92784034  1
  O2-  O261  1  0.83091139  0.79227795  0.27463305  1
  O2-  O262  1  0.83602110  0.79027467  0.60071186  1
  O2-  O263  1  0.82770975  0.78895978  0.93391816  1
  O2-  O264  1  0.41401432  0.03431379  0.06750553  1
  O2-  O265  1  0.41298826  0.04079355  0.40498514  1
  O2-  O266  1  0.41837322  0.03851666  0.73110128  1
  O2-  O267  1  0.42294373  0.54863544  0.06441762  1
  O2-  O268  1  0.41739151  0.54255219  0.40444187  1
  O2-  O269  1  0.42026665  0.55512385  0.72210138  1
  O2-  O270  1  0.91821211  0.04629154  0.05734786  1
  O2-  O271  1  0.92164056  0.04331164  0.40058147  1
  O2-  O272  1  0.91503524  0.04083756  0.72732286  1
  O2-  O273  1  0.91646566  0.54053452  0.07144814  1
  O2-  O274  1  0.91324526  0.54063679  0.39574430  1
  O2-  O275  1  0.91537341  0.54123094  0.73571224  1
  O2-  O276  1  0.29203588  0.16538426  0.06802488  1
  O2-  O277  1  0.28875337  0.17091916  0.40029530  1
  O2-  O278  1  0.28870659  0.16566646  0.73276028  1
  O2-  O279  1  0.29348605  0.67329592  0.06429409  1
  O2-  O280  1  0.29054225  0.66984015  0.40208396  1
  O2-  O281  1  0.29556354  0.66960399  0.72348223  1
  O2-  O282  1  0.80015884  0.16716221  0.05705814  1
  O2-  O283  1  0.79188721  0.16936400  0.40307671  1
  O2-  O284  1  0.79964011  0.16553282  0.72595281  1
  O2-  O285  1  0.78561965  0.66337623  0.07267042  1
  O2-  O286  1  0.79259845  0.65934830  0.39768428  1
  O2-  O287  1  0.78749955  0.66684448  0.73370279  1
