# generated using pymatgen
data_Ca2Al2SiO7
_symmetry_space_group_name_H-M   'P 1'
_cell_length_a   15.45663299
_cell_length_b   15.45725885
_cell_length_c   15.28332363
_cell_angle_alpha   90.00298190
_cell_angle_beta   90.00365298
_cell_angle_gamma   90.00285875
_symmetry_Int_Tables_number   1
_chemical_formula_structural   Ca2Al2SiO7
_chemical_formula_sum   'Ca48 Al48 Si24 O168'
_cell_volume   3651.44852143
_cell_formula_units_Z   24
loop_
 _symmetry_equiv_pos_site_id
 _symmetry_equiv_pos_as_xyz
  1  'x, y, z'
loop_
 _atom_type_symbol
 _atom_type_oxidation_number
  Ca2+  2.0
  Al0+  0.0
  Si0+  0.0
  O2-  -2.0
loop_
 _atom_site_type_symbol
 _atom_site_label
 _atom_site_symmetry_multiplicity
 _atom_site_fract_x
 _atom_site_fract_y
 _atom_site_fract_z
 _atom_site_occupancy
  Ca2+  Ca0  1  0.16107395  0.07740498  0.17221992  1
  Ca2+  Ca1  1  0.16128618  0.07002453  0.50647339  1
  Ca2+  Ca2  1  0.16359521  0.07785104  0.83529181  1
  Ca2+  Ca3  1  0.17651779  0.58100745  0.17682011  1
  Ca2+  Ca4  1  0.16634131  0.57695381  0.50130492  1
  Ca2+  Ca5  1  0.16703151  0.57863920  0.83430800  1
  Ca2+  Ca6  1  0.66870591  0.09179180  0.17478889  1
  Ca2+  Ca7  1  0.67667127  0.08465501  0.50517195  1
  Ca2+  Ca8  1  0.66973300  0.08408726  0.83345250  1
  Ca2+  Ca9  1  0.67136966  0.57311930  0.17521506  1
  Ca2+  Ca10  1  0.66931876  0.57410741  0.51028884  1
  Ca2+  Ca11  1  0.66695446  0.58296226  0.82851953  1
  Ca2+  Ca12  1  0.07287926  0.33608703  0.16331807  1
  Ca2+  Ca13  1  0.07721577  0.34007492  0.49247811  1
  Ca2+  Ca14  1  0.08215550  0.33106590  0.82843625  1
  Ca2+  Ca15  1  0.08971247  0.82869301  0.16938020  1
  Ca2+  Ca16  1  0.08557951  0.82602157  0.49851931  1
  Ca2+  Ca17  1  0.07849577  0.82561192  0.81920470  1
  Ca2+  Ca18  1  0.58455870  0.32534933  0.16965918  1
  Ca2+  Ca19  1  0.57613287  0.33887826  0.49206052  1
  Ca2+  Ca20  1  0.57857522  0.33261690  0.82620836  1
  Ca2+  Ca21  1  0.57321182  0.83081072  0.15886562  1
  Ca2+  Ca22  1  0.59383948  0.82651770  0.50184981  1
  Ca2+  Ca23  1  0.57819668  0.82992040  0.82309018  1
  Ca2+  Ca24  1  0.33046120  0.42623031  0.17804811  1
  Ca2+  Ca25  1  0.32634337  0.41271348  0.50446508  1
  Ca2+  Ca26  1  0.33046530  0.41964112  0.83442655  1
  Ca2+  Ca27  1  0.32996007  0.91763715  0.17300915  1
  Ca2+  Ca28  1  0.32236931  0.91689237  0.50224781  1
  Ca2+  Ca29  1  0.32766963  0.90942496  0.83644771  1
  Ca2+  Ca30  1  0.83045603  0.40597317  0.17370805  1
  Ca2+  Ca31  1  0.82154227  0.41518525  0.50575454  1
  Ca2+  Ca32  1  0.83227875  0.41984505  0.83192705  1
  Ca2+  Ca33  1  0.83040605  0.92834570  0.17496598  1
  Ca2+  Ca34  1  0.83426887  0.92888762  0.51130799  1
  Ca2+  Ca35  1  0.83069825  0.91644730  0.82857439  1
  Ca2+  Ca36  1  0.42630079  0.17159696  0.16366890  1
  Ca2+  Ca37  1  0.42382660  0.18021388  0.49338977  1
  Ca2+  Ca38  1  0.42341454  0.17192060  0.82574236  1
  Ca2+  Ca39  1  0.40930539  0.66765717  0.16319029  1
  Ca2+  Ca40  1  0.42038893  0.66236638  0.49811476  1
  Ca2+  Ca41  1  0.41881449  0.66706831  0.83017369  1
  Ca2+  Ca42  1  0.91884914  0.17625491  0.16412857  1
  Ca2+  Ca43  1  0.91156095  0.16876491  0.49364666  1
  Ca2+  Ca44  1  0.91917436  0.16939703  0.83308354  1
  Ca2+  Ca45  1  0.92803240  0.66339759  0.16571460  1
  Ca2+  Ca46  1  0.92634918  0.66321645  0.50002864  1
  Ca2+  Ca47  1  0.91990246  0.67148630  0.81626998  1
  Al0+  Al48  1  -0.00186070  -0.00007615  -0.00046822  1
  Al0+  Al49  1  -0.00175604  -0.00075700  0.34047295  1
  Al0+  Al50  1  0.00077719  -0.00002191  0.67353499  1
  Al0+  Al51  1  -0.00112614  0.50049471  -0.00378844  1
  Al0+  Al52  1  0.00176270  0.50197130  0.32521396  1
  Al0+  Al53  1  0.00087322  0.49866853  0.67055821  1
  Al0+  Al54  1  0.49790474  -0.00150801  -0.00862260  1
  Al0+  Al55  1  0.50032431  -0.00187216  0.33144208  1
  Al0+  Al56  1  0.50011429  0.00174501  0.66665447  1
  Al0+  Al57  1  0.50151623  0.50024442  0.00604856  1
  Al0+  Al58  1  0.50097022  0.50136789  0.33404674  1
  Al0+  Al59  1  0.49876583  0.50087742  0.66345316  1
  Al0+  Al60  1  0.24926558  0.24808358  -0.00124340  1
  Al0+  Al61  1  0.25085612  0.24987424  0.33101465  1
  Al0+  Al62  1  0.24997761  0.24987794  0.66687572  1
  Al0+  Al63  1  0.24955517  0.74907487  -0.00055769  1
  Al0+  Al64  1  0.25023113  0.74991938  0.33775438  1
  Al0+  Al65  1  0.25054194  0.74955788  0.66657075  1
  Al0+  Al66  1  0.75021959  0.24991163  -0.00855475  1
  Al0+  Al67  1  0.75061960  0.25024424  0.33515362  1
  Al0+  Al68  1  0.75047223  0.24950979  0.67652371  1
  Al0+  Al69  1  0.74944874  0.74951711  0.00456376  1
  Al0+  Al70  1  0.75113901  0.75111657  0.32864944  1
  Al0+  Al71  1  0.74989594  0.75237908  0.66479907  1
  Al0+  Al72  1  0.18010991  0.93115285  0.34696292  1
  Al0+  Al73  1  0.42888290  0.32074443  0.65355370  1
  Al0+  Al74  1  0.17777472  0.42743356  0.34629709  1
  Al0+  Al75  1  0.42807356  0.81854436  0.98620255  1
  Al0+  Al76  1  0.68232453  0.43013180  0.34562980  1
  Al0+  Al77  1  0.82258180  0.07229955  0.68630830  1
  Al0+  Al78  1  0.32165138  0.57146842  0.35082414  1
  Al0+  Al79  1  0.57005481  0.68099579  0.65298676  1
  Al0+  Al80  1  0.67558072  0.42947292  0.68317841  1
  Al0+  Al81  1  0.56971685  0.17913714  0.98401925  1
  Al0+  Al82  1  0.92915685  0.82299051  0.65080453  1
  Al0+  Al83  1  0.07231772  0.67627584  0.65062044  1
  Al0+  Al84  1  0.07145193  0.68100998  0.31834295  1
  Al0+  Al85  1  0.18156798  0.92798576  0.68231635  1
  Al0+  Al86  1  0.57067361  0.17945540  0.32108026  1
  Al0+  Al87  1  0.67765162  0.92914904  0.68163309  1
  Al0+  Al88  1  0.81819472  0.07060120  0.34530434  1
  Al0+  Al89  1  0.17880893  0.42766730  0.68103745  1
  Al0+  Al90  1  0.31960772  0.56947451  0.01334319  1
  Al0+  Al91  1  0.07200067  0.17699537  0.98491992  1
  Al0+  Al92  1  0.42677183  0.32399609  0.31648249  1
  Al0+  Al93  1  0.82097449  0.57027045  0.67913616  1
  Al0+  Al94  1  0.93061478  0.32041807  0.32304626  1
  Al0+  Al95  1  0.92949934  0.32225585  0.98135686  1
  Si0+  Si96  1  0.81871578  0.07042126  0.01658621  1
  Si0+  Si97  1  0.07090704  0.17905998  0.65165727  1
  Si0+  Si98  1  0.32275443  0.07078792  0.01437591  1
  Si0+  Si99  1  0.67668638  0.92844862  0.01544357  1
  Si0+  Si100  1  0.68118302  0.42825902  0.01600027  1
  Si0+  Si101  1  0.92693421  0.82064895  0.98663227  1
  Si0+  Si102  1  0.32559943  0.07260652  0.34873617  1
  Si0+  Si103  1  0.42825256  0.32401252  0.98463425  1
  Si0+  Si104  1  0.82383764  0.57532120  0.34749920  1
  Si0+  Si105  1  0.32100073  0.07241099  0.68332565  1
  Si0+  Si106  1  0.57360731  0.67866339  0.31668124  1
  Si0+  Si107  1  0.32211926  0.57152133  0.68361307  1
  Si0+  Si108  1  0.42718455  0.82448919  0.64787323  1
  Si0+  Si109  1  0.92819349  0.82446028  0.31515830  1
  Si0+  Si110  1  0.82219836  0.57288052  0.01627559  1
  Si0+  Si111  1  0.57378508  0.17860111  0.64957014  1
  Si0+  Si112  1  0.07220970  0.17420600  0.32047427  1
  Si0+  Si113  1  0.17638537  0.42627090  0.01673201  1
  Si0+  Si114  1  0.67569416  0.92550321  0.34772739  1
  Si0+  Si115  1  0.07030524  0.68126166  0.98466338  1
  Si0+  Si116  1  0.57377930  0.67712413  0.98469749  1
  Si0+  Si117  1  0.17861514  0.92959970  0.01520092  1
  Si0+  Si118  1  0.42936333  0.81920464  0.31925195  1
  Si0+  Si119  1  0.92897360  0.31983356  0.65202289  1
  O2-  O120  1  0.24834122  0.00252070  0.05698426  1
  O2-  O121  1  0.25102755  0.01006524  0.39268218  1
  O2-  O122  1  0.25780270  0.00003626  0.73060078  1
  O2-  O123  1  0.24747432  0.49257593  0.06038257  1
  O2-  O124  1  0.25309330  0.49493096  0.39812852  1
  O2-  O125  1  0.25182301  0.50427686  0.72748445  1
  O2-  O126  1  0.74526356  0.00127291  0.05908270  1
  O2-  O127  1  0.74413919  -0.00542251  0.38989044  1
  O2-  O128  1  0.74847924  0.00067313  0.73457179  1
  O2-  O129  1  0.75365941  0.49897514  0.05762104  1
  O2-  O130  1  0.75536810  0.50689374  0.39091022  1
  O2-  O131  1  0.74845668  0.50088441  0.73325207  1
  O2-  O132  1  0.00949406  0.24875756  0.27692877  1
  O2-  O133  1  -0.00121186  0.24822342  0.60889073  1
  O2-  O134  1  0.00507567  0.25269392  0.93338341  1
  O2-  O135  1  -0.00437075  0.75488249  0.26985992  1
  O2-  O136  1  -0.00004041  0.74915426  0.60184896  1
  O2-  O137  1  -0.00429028  0.74842290  0.94363110  1
  O2-  O138  1  0.49741987  0.24903011  0.26854208  1
  O2-  O139  1  0.50758386  0.24993441  0.60696887  1
  O2-  O140  1  0.49426958  0.25371873  0.93885517  1
  O2-  O141  1  0.50186527  0.74989689  0.27590945  1
  O2-  O142  1  0.49800451  0.75796451  0.60413784  1
  O2-  O143  1  0.50417824  0.74491927  0.94118958  1
  O2-  O144  1  0.06797962  0.17237915  0.09863403  1
  O2-  O145  1  0.06828288  0.17024638  0.42587347  1
  O2-  O146  1  0.07163541  0.18072994  0.75685542  1
  O2-  O147  1  0.07149549  0.68334359  0.08994412  1
  O2-  O148  1  0.07081911  0.68091654  0.43050491  1
  O2-  O149  1  0.07175728  0.67847303  0.76528296  1
  O2-  O150  1  0.57047648  0.17963999  0.09713853  1
  O2-  O151  1  0.56999948  0.17952730  0.43410526  1
  O2-  O152  1  0.56989470  0.17779609  0.75560431  1
  O2-  O153  1  0.57606193  0.67943814  0.09057099  1
  O2-  O154  1  0.57685695  0.68022090  0.42127248  1
  O2-  O155  1  0.56598984  0.68074826  0.76664018  1
  O2-  O156  1  0.17587390  0.43174656  0.23227571  1
  O2-  O157  1  0.17833721  0.42545009  0.56853038  1
  O2-  O158  1  0.17680925  0.42849390  0.91102768  1
  O2-  O159  1  0.18220954  0.93118528  0.23279289  1
  O2-  O160  1  0.18224154  0.92947137  0.56925690  1
  O2-  O161  1  0.17947405  0.92826346  0.91046722  1
  O2-  O162  1  0.68492580  0.42983849  0.23164774  1
  O2-  O163  1  0.67695858  0.42943776  0.56961370  1
  O2-  O164  1  0.67844951  0.43088634  0.91141286  1
  O2-  O165  1  0.67565335  0.92416539  0.24141688  1
  O2-  O166  1  0.67785086  0.93259901  0.56787744  1
  O2-  O167  1  0.67945880  0.92543845  0.91117202  1
  O2-  O168  1  0.43035358  0.32319719  0.08988120  1
  O2-  O169  1  0.42837150  0.32264856  0.42996636  1
  O2-  O170  1  0.42885643  0.31785239  0.76744090  1
  O2-  O171  1  0.42839400  0.81897656  0.09980607  1
  O2-  O172  1  0.42986941  0.82030578  0.42386332  1
  O2-  O173  1  0.42629408  0.82184606  0.75377926  1
  O2-  O174  1  0.92802142  0.31986598  0.09540969  1
  O2-  O175  1  0.92827799  0.31889615  0.43596786  1
  O2-  O176  1  0.93143667  0.31947719  0.75710604  1
  O2-  O177  1  0.92791961  0.82079275  0.09192803  1
  O2-  O178  1  0.92744092  0.82533407  0.41974995  1
  O2-  O179  1  0.93183217  0.82086608  0.76568861  1
  O2-  O180  1  0.32829070  0.06729589  0.24268409  1
  O2-  O181  1  0.31726094  0.07215845  0.57780218  1
  O2-  O182  1  0.32344240  0.06893351  0.90957544  1
  O2-  O183  1  0.31846075  0.57387663  0.23657691  1
  O2-  O184  1  0.32299779  0.57092055  0.57849644  1
  O2-  O185  1  0.31823020  0.56989895  0.90044232  1
  O2-  O186  1  0.81826608  0.06977338  0.23136881  1
  O2-  O187  1  0.82167490  0.07422741  0.57258768  1
  O2-  O188  1  0.81979607  0.06748501  0.91219779  1
  O2-  O189  1  0.82042171  0.57678828  0.24103511  1
  O2-  O190  1  0.82137106  0.56586948  0.56550917  1
  O2-  O191  1  0.82107777  0.57745569  0.91194961  1
  O2-  O192  1  0.04001527  0.08293406  0.27204423  1
  O2-  O193  1  0.04361291  0.08617321  0.60711744  1
  O2-  O194  1  0.03901386  0.07941873  0.93137929  1
  O2-  O195  1  0.04112536  0.58700831  0.25835155  1
  O2-  O196  1  0.04238763  0.57745164  0.59955780  1
  O2-  O197  1  0.04661006  0.58793630  0.93924134  1
  O2-  O198  1  0.54546368  0.07921551  0.26730658  1
  O2-  O199  1  0.54663131  0.08560702  0.60323912  1
  O2-  O200  1  0.53916956  0.08320336  0.92897453  1
  O2-  O201  1  0.54610953  0.58781683  0.26774696  1
  O2-  O202  1  0.53765706  0.58590146  0.59751935  1
  O2-  O203  1  0.54835024  0.58287839  0.94067868  1
  O2-  O204  1  0.16844173  0.18997664  0.27612660  1
  O2-  O205  1  0.16262957  0.20540443  0.60441515  1
  O2-  O206  1  0.17291728  0.19790039  0.93270295  1
  O2-  O207  1  0.16752935  0.71664840  0.26473486  1
  O2-  O208  1  0.17107350  0.70574301  0.59980484  1
  O2-  O209  1  0.16008504  0.71253206  0.93650840  1
  O2-  O210  1  0.66728985  0.21225840  0.26626302  1
  O2-  O211  1  0.66998677  0.20150337  0.60909423  1
  O2-  O212  1  0.66512966  0.20940455  0.92902777  1
  O2-  O213  1  0.66470660  0.70642314  0.26587433  1
  O2-  O214  1  0.66622691  0.71011505  0.59757841  1
  O2-  O215  1  0.66734459  0.70430786  0.93938963  1
  O2-  O216  1  0.08227607  0.45504692  0.06055640  1
  O2-  O217  1  0.07940287  0.46081097  0.39709792  1
  O2-  O218  1  0.08356301  0.45722555  0.73794192  1
  O2-  O219  1  0.08593125  0.95585453  0.06263042  1
  O2-  O220  1  0.08351662  0.95773083  0.40199417  1
  O2-  O221  1  0.08689428  0.96055584  0.73812867  1
  O2-  O222  1  0.59051804  0.45637379  0.06586915  1
  O2-  O223  1  0.58578585  0.46100790  0.39767160  1
  O2-  O224  1  0.57780370  0.46096648  0.73589545  1
  O2-  O225  1  0.58252880  0.95418004  0.05933402  1
  O2-  O226  1  0.58173170  0.94722131  0.39376789  1
  O2-  O227  1  0.57762839  0.95563522  0.73429794  1
  O2-  O228  1  0.19660783  0.33021984  0.06007378  1
  O2-  O229  1  0.19836613  0.32568662  0.39638098  1
  O2-  O230  1  0.21209542  0.33199878  0.73630959  1
  O2-  O231  1  0.20926209  0.83854906  0.06266554  1
  O2-  O232  1  0.21562536  0.83750824  0.40168052  1
  O2-  O233  1  0.21171116  0.83107749  0.73688670  1
  O2-  O234  1  0.71080507  0.33554606  0.06070537  1
  O2-  O235  1  0.71390185  0.33561244  0.40125227  1
  O2-  O236  1  0.70325066  0.33202009  0.73748796  1
  O2-  O237  1  0.70525613  0.83734539  0.06570953  1
  O2-  O238  1  0.70280079  0.83173885  0.39250770  1
  O2-  O239  1  0.70456971  0.83083310  0.73561735  1
  O2-  O240  1  0.45869831  0.42202966  0.26422065  1
  O2-  O241  1  0.45507412  0.41774981  0.59976972  1
  O2-  O242  1  0.45733508  0.41733370  0.93958626  1
  O2-  O243  1  0.45548042  0.91077609  0.26917619  1
  O2-  O244  1  0.44848340  0.91988694  0.60369068  1
  O2-  O245  1  0.45587361  0.91376046  0.92907066  1
  O2-  O246  1  0.95607664  0.41668358  0.26445157  1
  O2-  O247  1  0.95757344  0.41124128  0.60585067  1
  O2-  O248  1  0.95380400  0.42245201  0.92950435  1
  O2-  O249  1  0.95694660  0.91741389  0.26818893  1
  O2-  O250  1  0.96103803  0.92194763  0.60135156  1
  O2-  O251  1  0.95483962  0.91196508  0.93972330  1
  O2-  O252  1  0.32776978  0.29762140  0.26234205  1
  O2-  O253  1  0.33382505  0.28509681  0.59914727  1
  O2-  O254  1  0.33295481  0.30143313  0.94092336  1
  O2-  O255  1  0.33843208  0.78998522  0.27089608  1
  O2-  O256  1  0.33468896  0.79589172  0.60182487  1
  O2-  O257  1  0.33229647  0.78622084  0.93126163  1
  O2-  O258  1  0.83680919  0.28417244  0.26666851  1
  O2-  O259  1  0.83511100  0.29233661  0.60874356  1
  O2-  O260  1  0.83313982  0.29100881  0.92725969  1
  O2-  O261  1  0.83409157  0.80126242  0.26691064  1
  O2-  O262  1  0.82944916  0.80115387  0.59920819  1
  O2-  O263  1  0.83370513  0.79418498  0.94151269  1
  O2-  O264  1  0.41330774  0.03808080  0.06194616  1
  O2-  O265  1  0.41586816  0.03970022  0.39738087  1
  O2-  O266  1  0.41666460  0.05234593  0.72728028  1
  O2-  O267  1  0.41811539  0.54491352  0.06810702  1
  O2-  O268  1  0.42278702  0.54993997  0.39949038  1
  O2-  O269  1  0.41426223  0.54380704  0.73113060  1
  O2-  O270  1  0.90977315  0.03926969  0.06451897  1
  O2-  O271  1  0.91320837  0.04049070  0.40183526  1
  O2-  O272  1  0.91973920  0.04250130  0.74078205  1
  O2-  O273  1  0.91575241  0.54724391  0.06223259  1
  O2-  O274  1  0.91867567  0.55125993  0.38874088  1
  O2-  O275  1  0.91753771  0.54068701  0.73561890  1
  O2-  O276  1  0.29960748  0.16404204  0.06172768  1
  O2-  O277  1  0.30740817  0.16867436  0.39099025  1
  O2-  O278  1  0.29088127  0.16326932  0.73219908  1
  O2-  O279  1  0.28553417  0.66587470  0.06747046  1
  O2-  O280  1  0.29105912  0.66831499  0.40436713  1
  O2-  O281  1  0.29880500  0.66589107  0.72940205  1
  O2-  O282  1  0.79143864  0.16413284  0.06021518  1
  O2-  O283  1  0.78668118  0.16481504  0.40182557  1
  O2-  O284  1  0.79428905  0.16895910  0.74267272  1
  O2-  O285  1  0.79307876  0.66312362  0.06767461  1
  O2-  O286  1  0.79898964  0.66976780  0.39167405  1
  O2-  O287  1  0.79413626  0.66978172  0.73055208  1
