# generated using pymatgen
data_Ca2Al2SiO7
_symmetry_space_group_name_H-M   'P 1'
_cell_length_a   15.46039049
_cell_length_b   15.46168615
_cell_length_c   15.28647439
_cell_angle_alpha   90.00635653
_cell_angle_beta   90.00925592
_cell_angle_gamma   89.99873667
_symmetry_Int_Tables_number   1
_chemical_formula_structural   Ca2Al2SiO7
_chemical_formula_sum   'Ca48 Al48 Si24 O168'
_cell_volume   3654.13541072
_cell_formula_units_Z   24
loop_
 _symmetry_equiv_pos_site_id
 _symmetry_equiv_pos_as_xyz
  1  'x, y, z'
loop_
 _atom_type_symbol
 _atom_type_oxidation_number
  Ca2+  2.0
  Al0+  0.0
  Si0+  0.0
  O2-  -2.0
loop_
 _atom_site_type_symbol
 _atom_site_label
 _atom_site_symmetry_multiplicity
 _atom_site_fract_x
 _atom_site_fract_y
 _atom_site_fract_z
 _atom_site_occupancy
  Ca2+  Ca0  1  0.17407682  0.08275095  0.17389341  1
  Ca2+  Ca1  1  0.16383089  0.08044623  0.50662784  1
  Ca2+  Ca2  1  0.15706664  0.07972766  0.83154955  1
  Ca2+  Ca3  1  0.15877986  0.57760878  0.17137697  1
  Ca2+  Ca4  1  0.17113004  0.57705374  0.50510299  1
  Ca2+  Ca5  1  0.16561531  0.57203044  0.83990676  1
  Ca2+  Ca6  1  0.67126722  0.07724048  0.17693167  1
  Ca2+  Ca7  1  0.67432246  0.07833974  0.49756727  1
  Ca2+  Ca8  1  0.66672963  0.08425005  0.83996077  1
  Ca2+  Ca9  1  0.67262881  0.58483542  0.16304688  1
  Ca2+  Ca10  1  0.67017304  0.57882069  0.51051216  1
  Ca2+  Ca11  1  0.66823089  0.57453586  0.83994867  1
  Ca2+  Ca12  1  0.07408482  0.34203048  0.16293056  1
  Ca2+  Ca13  1  0.07662473  0.34083498  0.49594566  1
  Ca2+  Ca14  1  0.07607590  0.33731124  0.82652644  1
  Ca2+  Ca15  1  0.07552063  0.82228777  0.16006106  1
  Ca2+  Ca16  1  0.08301208  0.82818044  0.49169257  1
  Ca2+  Ca17  1  0.08102674  0.82900313  0.83033973  1
  Ca2+  Ca18  1  0.58304953  0.32650411  0.15725418  1
  Ca2+  Ca19  1  0.57517734  0.34122485  0.50079264  1
  Ca2+  Ca20  1  0.58498960  0.33526746  0.82595988  1
  Ca2+  Ca21  1  0.58401031  0.82980960  0.16040504  1
  Ca2+  Ca22  1  0.58450393  0.82786959  0.49613847  1
  Ca2+  Ca23  1  0.58233003  0.81719263  0.82977242  1
  Ca2+  Ca24  1  0.31788856  0.42326577  0.17470354  1
  Ca2+  Ca25  1  0.32258865  0.42337990  0.50732680  1
  Ca2+  Ca26  1  0.32493695  0.41413523  0.83230817  1
  Ca2+  Ca27  1  0.33386276  0.92337018  0.17416032  1
  Ca2+  Ca28  1  0.32768129  0.92523619  0.50474535  1
  Ca2+  Ca29  1  0.32608611  0.91577025  0.83267695  1
  Ca2+  Ca30  1  0.83423698  0.41724065  0.16547744  1
  Ca2+  Ca31  1  0.83084975  0.41187114  0.50484897  1
  Ca2+  Ca32  1  0.82819872  0.41665195  0.84231287  1
  Ca2+  Ca33  1  0.83256320  0.91831129  0.17618859  1
  Ca2+  Ca34  1  0.83692674  0.91844750  0.49865704  1
  Ca2+  Ca35  1  0.83607342  0.91860085  0.83963665  1
  Ca2+  Ca36  1  0.42204524  0.16471894  0.16070423  1
  Ca2+  Ca37  1  0.41013807  0.17437700  0.49771584  1
  Ca2+  Ca38  1  0.42497875  0.17551744  0.82871711  1
  Ca2+  Ca39  1  0.42139073  0.66304274  0.16407306  1
  Ca2+  Ca40  1  0.42013812  0.65376283  0.49963395  1
  Ca2+  Ca41  1  0.42805012  0.65247029  0.82795520  1
  Ca2+  Ca42  1  0.90885307  0.17769134  0.16551512  1
  Ca2+  Ca43  1  0.92100972  0.17663964  0.49693700  1
  Ca2+  Ca44  1  0.91979392  0.18290052  0.82683361  1
  Ca2+  Ca45  1  0.92363352  0.67172375  0.16017121  1
  Ca2+  Ca46  1  0.92680642  0.67181266  0.48822311  1
  Ca2+  Ca47  1  0.91757446  0.66477857  0.83827414  1
  Al0+  Al48  1  -0.00007129  -0.00024328  0.00066419  1
  Al0+  Al49  1  -0.00033119  0.00260136  0.33343974  1
  Al0+  Al50  1  -0.00025910  0.00134613  0.66798242  1
  Al0+  Al51  1  -0.00181747  0.50161332  -0.00040306  1
  Al0+  Al52  1  -0.00283332  0.49955773  0.32916710  1
  Al0+  Al53  1  -0.00016794  0.50333335  0.66522445  1
  Al0+  Al54  1  0.49994427  0.00049172  -0.00605745  1
  Al0+  Al55  1  0.50049917  -0.00124154  0.34279970  1
  Al0+  Al56  1  0.50121474  -0.00183594  0.66744956  1
  Al0+  Al57  1  0.49800289  0.49830043  0.00169352  1
  Al0+  Al58  1  0.49876830  0.49836793  0.33153672  1
  Al0+  Al59  1  0.50279886  0.49797488  0.66462388  1
  Al0+  Al60  1  0.25031780  0.24895156  0.00472869  1
  Al0+  Al61  1  0.24880177  0.25190641  0.33935133  1
  Al0+  Al62  1  0.25223931  0.24876386  0.66424819  1
  Al0+  Al63  1  0.24912850  0.75097595  -0.00225961  1
  Al0+  Al64  1  0.25449157  0.74917204  0.33106738  1
  Al0+  Al65  1  0.25268068  0.75302781  0.67494069  1
  Al0+  Al66  1  0.74947830  0.24857401  -0.00435334  1
  Al0+  Al67  1  0.74927279  0.24784345  0.33438913  1
  Al0+  Al68  1  0.75117428  0.24788381  0.66556203  1
  Al0+  Al69  1  0.74805003  0.74989532  -0.00459978  1
  Al0+  Al70  1  0.74913921  0.74881435  0.33435610  1
  Al0+  Al71  1  0.74905720  0.75081270  0.66274646  1
  Al0+  Al72  1  0.56941979  0.67937096  0.65155014  1
  Al0+  Al73  1  0.82279831  0.07248224  0.34973832  1
  Al0+  Al74  1  0.17849125  0.93105379  0.68072036  1
  Al0+  Al75  1  0.67728598  0.42633335  0.01589387  1
  Al0+  Al76  1  0.17856352  0.42886549  0.01426455  1
  Al0+  Al77  1  0.32358808  0.57194177  0.34812421  1
  Al0+  Al78  1  0.81918611  0.57203638  0.01571342  1
  Al0+  Al79  1  0.93004185  0.32021635  0.98686676  1
  Al0+  Al80  1  0.07364528  0.67948310  0.31902159  1
  Al0+  Al81  1  0.92824678  0.82270076  0.98409385  1
  Al0+  Al82  1  0.56851459  0.67782422  0.98690738  1
  Al0+  Al83  1  0.92928105  0.32411352  0.65103153  1
  Al0+  Al84  1  0.67974292  0.92614495  0.34897752  1
  Al0+  Al85  1  0.17714387  0.42862003  0.68266170  1
  Al0+  Al86  1  0.17518161  0.43186826  0.34932355  1
  Al0+  Al87  1  0.57081270  0.17907873  0.98758694  1
  Al0+  Al88  1  0.68269447  0.42867807  0.67835095  1
  Al0+  Al89  1  0.43113004  0.31970957  0.65245219  1
  Al0+  Al90  1  0.92719051  0.31939628  0.31753451  1
  Al0+  Al91  1  0.07156412  0.67881676  0.98212812  1
  Al0+  Al92  1  0.07078564  0.17883128  0.65235773  1
  Al0+  Al93  1  0.32136426  0.07192322  0.34720343  1
  Al0+  Al94  1  0.92815172  0.82288539  0.31921770  1
  Al0+  Al95  1  0.32224367  0.57044256  0.68304059  1
  Si0+  Si96  1  0.57363939  0.17426773  0.64711780  1
  Si0+  Si97  1  0.82125909  0.07046741  0.01398263  1
  Si0+  Si98  1  0.17797614  0.92837093  0.01683231  1
  Si0+  Si99  1  0.07502306  0.17770724  0.98580143  1
  Si0+  Si100  1  0.17916705  0.92831076  0.34685131  1
  Si0+  Si101  1  0.82246245  0.57592558  0.68177913  1
  Si0+  Si102  1  0.42625864  0.32034315  0.98524229  1
  Si0+  Si103  1  0.81889208  0.57050915  0.34779546  1
  Si0+  Si104  1  0.92972250  0.82173844  0.65142967  1
  Si0+  Si105  1  0.32174312  0.57372999  0.01699139  1
  Si0+  Si106  1  0.32170961  0.06853460  0.01373258  1
  Si0+  Si107  1  0.07407261  0.17868664  0.31614068  1
  Si0+  Si108  1  0.42756057  0.32097811  0.31697612  1
  Si0+  Si109  1  0.56800465  0.17855649  0.32063410  1
  Si0+  Si110  1  0.82006972  0.06867680  0.68384615  1
  Si0+  Si111  1  0.42750125  0.82392120  0.98248760  1
  Si0+  Si112  1  0.32503934  0.07250508  0.68590764  1
  Si0+  Si113  1  0.67822396  0.93005792  0.01229643  1
  Si0+  Si114  1  0.67872243  0.92758903  0.68439988  1
  Si0+  Si115  1  0.67856508  0.42758105  0.34698498  1
  Si0+  Si116  1  0.07391200  0.68129839  0.65276302  1
  Si0+  Si117  1  0.43165133  0.82305576  0.31946317  1
  Si0+  Si118  1  0.42769043  0.82342413  0.64848606  1
  Si0+  Si119  1  0.57101612  0.67677106  0.31785512  1
  O2-  O120  1  0.25041938  -0.00126674  0.05768465  1
  O2-  O121  1  0.24388145  -0.00015511  0.39270574  1
  O2-  O122  1  0.25273496  0.00673315  0.72899698  1
  O2-  O123  1  0.25061902  0.50734885  0.06023663  1
  O2-  O124  1  0.24722424  0.50487873  0.39720081  1
  O2-  O125  1  0.24783093  0.50171552  0.73383908  1
  O2-  O126  1  0.75079787  -0.00165233  0.05561194  1
  O2-  O127  1  0.75567922  -0.00536345  0.39864290  1
  O2-  O128  1  0.74747197  -0.00028358  0.72770873  1
  O2-  O129  1  0.74859830  0.49832230  0.06700379  1
  O2-  O130  1  0.74844263  0.49905043  0.38978591  1
  O2-  O131  1  0.75953569  0.50114848  0.72415671  1
  O2-  O132  1  0.00407151  0.24565936  0.27171428  1
  O2-  O133  1  0.00608830  0.25663544  0.60126256  1
  O2-  O134  1  0.00837188  0.24820647  0.94245845  1
  O2-  O135  1  0.00239724  0.75340703  0.27003269  1
  O2-  O136  1  0.00087084  0.75073526  0.61028118  1
  O2-  O137  1  0.00002193  0.75190709  0.93218583  1
  O2-  O138  1  0.49670925  0.24758213  0.27546913  1
  O2-  O139  1  0.50471803  0.24306976  0.60413032  1
  O2-  O140  1  0.50082075  0.25775602  0.94118000  1
  O2-  O141  1  0.50104776  0.75018200  0.27733303  1
  O2-  O142  1  0.49284870  0.75187133  0.60370713  1
  O2-  O143  1  0.49015749  0.74919449  0.93999161  1
  O2-  O144  1  0.07670187  0.17541965  0.09128858  1
  O2-  O145  1  0.07423943  0.17804852  0.42138666  1
  O2-  O146  1  0.06379166  0.17548086  0.76614848  1
  O2-  O147  1  0.07254739  0.68240956  0.09554270  1
  O2-  O148  1  0.07227954  0.68183653  0.43344535  1
  O2-  O149  1  0.07243258  0.68219127  0.75752357  1
  O2-  O150  1  0.56697417  0.17407841  0.10098898  1
  O2-  O151  1  0.56773558  0.18070270  0.42550902  1
  O2-  O152  1  0.57255850  0.17278058  0.75300204  1
  O2-  O153  1  0.56794874  0.68255652  0.10052987  1
  O2-  O154  1  0.57071455  0.67543962  0.42279705  1
  O2-  O155  1  0.57034234  0.68122397  0.76453153  1
  O2-  O156  1  0.17739273  0.43122562  0.23538721  1
  O2-  O157  1  0.17613265  0.43212360  0.56943658  1
  O2-  O158  1  0.18165663  0.42555990  0.90153968  1
  O2-  O159  1  0.18317259  0.92989290  0.24097550  1
  O2-  O160  1  0.17931662  0.93111627  0.56744599  1
  O2-  O161  1  0.17753656  0.93012322  0.91178550  1
  O2-  O162  1  0.67730109  0.42704340  0.24218850  1
  O2-  O163  1  0.68205290  0.43169992  0.56446288  1
  O2-  O164  1  0.67860928  0.42671631  0.90240138  1
  O2-  O165  1  0.67526452  0.92918358  0.23486769  1
  O2-  O166  1  0.67983147  0.92704317  0.57962655  1
  O2-  O167  1  0.67752786  0.93300768  0.90704128  1
  O2-  O168  1  0.42485578  0.31497222  0.09108953  1
  O2-  O169  1  0.43052525  0.32200195  0.42186989  1
  O2-  O170  1  0.43345576  0.31740729  0.76587429  1
  O2-  O171  1  0.43080051  0.83002102  0.08826050  1
  O2-  O172  1  0.43250923  0.82648288  0.42400360  1
  O2-  O173  1  0.43191036  0.82805873  0.75396482  1
  O2-  O174  1  0.92828065  0.31644112  0.10004344  1
  O2-  O175  1  0.92511412  0.31878592  0.43021866  1
  O2-  O176  1  0.92615873  0.32096328  0.76458054  1
  O2-  O177  1  0.93031449  0.82589299  0.09719310  1
  O2-  O178  1  0.92958545  0.81905134  0.43353867  1
  O2-  O179  1  0.92894175  0.82253965  0.75634032  1
  O2-  O180  1  0.32371745  0.06833365  0.23328365  1
  O2-  O181  1  0.32796822  0.06834838  0.58039275  1
  O2-  O182  1  0.32276387  0.06748191  0.90910008  1
  O2-  O183  1  0.32974689  0.56740362  0.23476010  1
  O2-  O184  1  0.31945463  0.56939399  0.56959553  1
  O2-  O185  1  0.32345098  0.57178189  0.91174161  1
  O2-  O186  1  0.81578128  0.07525428  0.23583679  1
  O2-  O187  1  0.81951399  0.06655056  0.57906141  1
  O2-  O188  1  0.82035201  0.06920734  0.90865149  1
  O2-  O189  1  0.81659706  0.57256353  0.24310632  1
  O2-  O190  1  0.81956004  0.58009090  0.57579914  1
  O2-  O191  1  0.81669927  0.57178342  0.90191736  1
  O2-  O192  1  0.05209576  0.08390979  0.27021282  1
  O2-  O193  1  0.03567962  0.08229762  0.59796911  1
  O2-  O194  1  0.04694037  0.08461497  0.94011891  1
  O2-  O195  1  0.03926683  0.58344689  0.26584408  1
  O2-  O196  1  0.04742208  0.59011862  0.60406390  1
  O2-  O197  1  0.04073495  0.58157701  0.92949440  1
  O2-  O198  1  0.54039034  0.08534371  0.27549090  1
  O2-  O199  1  0.54803386  0.07989299  0.60248890  1
  O2-  O200  1  0.53647292  0.08522154  0.92898229  1
  O2-  O201  1  0.54144236  0.58610999  0.26885226  1
  O2-  O202  1  0.54169870  0.58285335  0.59669044  1
  O2-  O203  1  0.54011801  0.57970228  0.93415723  1
  O2-  O204  1  0.16845110  0.20446770  0.27056998  1
  O2-  O205  1  0.17388773  0.19267386  0.60489961  1
  O2-  O206  1  0.16964821  0.19926470  0.93986679  1
  O2-  O207  1  0.17354931  0.70406109  0.26649765  1
  O2-  O208  1  0.16594397  0.71262150  0.60833308  1
  O2-  O209  1  0.17064849  0.70759075  0.93004693  1
  O2-  O210  1  0.65915281  0.20686233  0.27261752  1
  O2-  O211  1  0.66755165  0.19869882  0.60240053  1
  O2-  O212  1  0.66700911  0.20396471  0.93089002  1
  O2-  O213  1  0.66266493  0.70419046  0.27076869  1
  O2-  O214  1  0.66499537  0.71387798  0.59624067  1
  O2-  O215  1  0.66204923  0.71219898  0.93026627  1
  O2-  O216  1  0.08147054  0.45921082  0.06631288  1
  O2-  O217  1  0.07571989  0.45915533  0.40010563  1
  O2-  O218  1  0.07770245  0.45828755  0.73394162  1
  O2-  O219  1  0.08711933  0.95760562  0.06508440  1
  O2-  O220  1  0.08444375  0.94986009  0.39171868  1
  O2-  O221  1  0.08241654  0.96249696  0.73650927  1
  O2-  O222  1  0.57732674  0.45200879  0.06809966  1
  O2-  O223  1  0.58651706  0.45618031  0.39325581  1
  O2-  O224  1  0.58731845  0.46097480  0.73225028  1
  O2-  O225  1  0.58625308  0.95993516  0.05903903  1
  O2-  O226  1  0.58476862  0.95892891  0.40643287  1
  O2-  O227  1  0.58619989  0.95344117  0.73146538  1
  O2-  O228  1  0.21090557  0.33261509  0.06959959  1
  O2-  O229  1  0.20436851  0.33377714  0.40167502  1
  O2-  O230  1  0.20689322  0.32846168  0.73173398  1
  O2-  O231  1  0.20611691  0.83671024  0.06400572  1
  O2-  O232  1  0.20895359  0.83608224  0.39260489  1
  O2-  O233  1  0.21113358  0.83753939  0.73980582  1
  O2-  O234  1  0.70587241  0.32626655  0.06657183  1
  O2-  O235  1  0.70554224  0.33636549  0.39503375  1
  O2-  O236  1  0.70717120  0.32936023  0.73047291  1
  O2-  O237  1  0.70196065  0.83741227  0.05856879  1
  O2-  O238  1  0.70385808  0.82685655  0.40269256  1
  O2-  O239  1  0.70899860  0.83612959  0.73105423  1
  O2-  O240  1  0.45870526  0.41058784  0.26732069  1
  O2-  O241  1  0.46599106  0.41346344  0.59594068  1
  O2-  O242  1  0.44428289  0.41593219  0.94197727  1
  O2-  O243  1  0.46201563  0.91436860  0.27101169  1
  O2-  O244  1  0.45773236  0.91570473  0.60106866  1
  O2-  O245  1  0.45858723  0.91370573  0.93172836  1
  O2-  O246  1  0.95491818  0.41640045  0.26341655  1
  O2-  O247  1  0.95065500  0.42518897  0.59936935  1
  O2-  O248  1  0.95550662  0.41777416  0.93442327  1
  O2-  O249  1  0.95045395  0.92402852  0.26908717  1
  O2-  O250  1  0.95841492  0.91319578  0.60476304  1
  O2-  O251  1  0.95826108  0.92153961  0.93101239  1
  O2-  O252  1  0.33471046  0.29400829  0.27166842  1
  O2-  O253  1  0.33532115  0.28957481  0.59646966  1
  O2-  O254  1  0.33590900  0.28638421  0.93748210  1
  O2-  O255  1  0.34058128  0.79859378  0.26858530  1
  O2-  O256  1  0.33169397  0.80343314  0.60574924  1
  O2-  O257  1  0.33168763  0.80528298  0.93916222  1
  O2-  O258  1  0.83051530  0.28516960  0.26414844  1
  O2-  O259  1  0.83236833  0.28816723  0.59818937  1
  O2-  O260  1  0.83550956  0.28529884  0.93140861  1
  O2-  O261  1  0.82898096  0.79303621  0.26834039  1
  O2-  O262  1  0.83757249  0.79537656  0.60404146  1
  O2-  O263  1  0.82939055  0.79659086  0.93093074  1
  O2-  O264  1  0.41337802  0.03816432  0.06121089  1
  O2-  O265  1  0.41466514  0.03866222  0.40490931  1
  O2-  O266  1  0.41769507  0.04207954  0.73277852  1
  O2-  O267  1  0.41433513  0.54664437  0.06452809  1
  O2-  O268  1  0.42052592  0.53712700  0.40161245  1
  O2-  O269  1  0.42022379  0.53644786  0.73305264  1
  O2-  O270  1  0.91328448  0.04497342  0.06222577  1
  O2-  O271  1  0.92299862  0.05046835  0.40197298  1
  O2-  O272  1  0.90995841  0.03803746  0.73241465  1
  O2-  O273  1  0.91789625  0.54598311  0.06815345  1
  O2-  O274  1  0.91045285  0.54296049  0.39478628  1
  O2-  O275  1  0.91804434  0.55762734  0.72544435  1
  O2-  O276  1  0.29593903  0.15948805  0.06382769  1
  O2-  O277  1  0.29387929  0.16841683  0.40157034  1
  O2-  O278  1  0.30460130  0.16712255  0.73052314  1
  O2-  O279  1  0.30098213  0.67013764  0.06051463  1
  O2-  O280  1  0.30583361  0.67411604  0.39774699  1
  O2-  O281  1  0.30379709  0.67190728  0.73394097  1
  O2-  O282  1  0.79065918  0.16099837  0.06102767  1
  O2-  O283  1  0.78504510  0.16690022  0.40539684  1
  O2-  O284  1  0.79254582  0.16061508  0.73091850  1
  O2-  O285  1  0.78644227  0.67056227  0.06764044  1
  O2-  O286  1  0.79102642  0.66117922  0.39744213  1
  O2-  O287  1  0.79057630  0.66736859  0.72897660  1
