# generated using pymatgen
data_Ca2Al2SiO7
_symmetry_space_group_name_H-M   'P 1'
_cell_length_a   15.46336851
_cell_length_b   15.46305863
_cell_length_c   15.28713334
_cell_angle_alpha   90.01493055
_cell_angle_beta   90.00389825
_cell_angle_gamma   89.97567958
_symmetry_Int_Tables_number   1
_chemical_formula_structural   Ca2Al2SiO7
_chemical_formula_sum   'Ca48 Al48 Si24 O168'
_cell_volume   3655.32087729
_cell_formula_units_Z   24
loop_
 _symmetry_equiv_pos_site_id
 _symmetry_equiv_pos_as_xyz
  1  'x, y, z'
loop_
 _atom_type_symbol
 _atom_type_oxidation_number
  Ca2+  2.0
  Al0+  0.0
  Si0+  0.0
  O2-  -2.0
loop_
 _atom_site_type_symbol
 _atom_site_label
 _atom_site_symmetry_multiplicity
 _atom_site_fract_x
 _atom_site_fract_y
 _atom_site_fract_z
 _atom_site_occupancy
  Ca2+  Ca0  1  0.16459046  0.07584898  0.16644323  1
  Ca2+  Ca1  1  0.15953774  0.07469539  0.50346687  1
  Ca2+  Ca2  1  0.16396640  0.07310134  0.83909131  1
  Ca2+  Ca3  1  0.17365696  0.59179497  0.16380091  1
  Ca2+  Ca4  1  0.16310628  0.57605525  0.51089456  1
  Ca2+  Ca5  1  0.16184400  0.58060710  0.83831790  1
  Ca2+  Ca6  1  0.66827532  0.07715580  0.16601636  1
  Ca2+  Ca7  1  0.67153830  0.08179662  0.50528621  1
  Ca2+  Ca8  1  0.67349004  0.07521725  0.84163588  1
  Ca2+  Ca9  1  0.66796253  0.57814016  0.17341633  1
  Ca2+  Ca10  1  0.67071559  0.58289209  0.50781423  1
  Ca2+  Ca11  1  0.67382942  0.59509452  0.83271294  1
  Ca2+  Ca12  1  0.09165782  0.31767735  0.16154469  1
  Ca2+  Ca13  1  0.08749758  0.32318958  0.49968996  1
  Ca2+  Ca14  1  0.08693139  0.32155975  0.82444128  1
  Ca2+  Ca15  1  0.07609553  0.83733093  0.15829057  1
  Ca2+  Ca16  1  0.07694493  0.83776676  0.49699481  1
  Ca2+  Ca17  1  0.08419581  0.82650184  0.82674003  1
  Ca2+  Ca18  1  0.57459406  0.33652801  0.16376251  1
  Ca2+  Ca19  1  0.57923573  0.33545648  0.49230299  1
  Ca2+  Ca20  1  0.57597683  0.33353515  0.83322718  1
  Ca2+  Ca21  1  0.57077751  0.83953511  0.15988523  1
  Ca2+  Ca22  1  0.57104189  0.82862836  0.49893884  1
  Ca2+  Ca23  1  0.57111165  0.83529307  0.82810238  1
  Ca2+  Ca24  1  0.34095151  0.42195748  0.16772498  1
  Ca2+  Ca25  1  0.32913780  0.41754499  0.50572023  1
  Ca2+  Ca26  1  0.32875187  0.42438968  0.84029332  1
  Ca2+  Ca27  1  0.32053111  0.91122219  0.16921609  1
  Ca2+  Ca28  1  0.32314141  0.91162260  0.50505055  1
  Ca2+  Ca29  1  0.32427805  0.91644161  0.84285368  1
  Ca2+  Ca30  1  0.82567118  0.41796867  0.17485968  1
  Ca2+  Ca31  1  0.83011533  0.42056152  0.51217393  1
  Ca2+  Ca32  1  0.84206299  0.42385581  0.83236891  1
  Ca2+  Ca33  1  0.83091394  0.90730555  0.16812396  1
  Ca2+  Ca34  1  0.83823370  0.91157659  0.50477739  1
  Ca2+  Ca35  1  0.82822584  0.90351079  0.83903834  1
  Ca2+  Ca36  1  0.40674524  0.17817156  0.15957011  1
  Ca2+  Ca37  1  0.41638592  0.17390988  0.49398278  1
  Ca2+  Ca38  1  0.40679003  0.17005381  0.83550776  1
  Ca2+  Ca39  1  0.41346641  0.67729199  0.15984939  1
  Ca2+  Ca40  1  0.41352998  0.67866014  0.50094342  1
  Ca2+  Ca41  1  0.41557288  0.67780109  0.83059864  1
  Ca2+  Ca42  1  0.92996586  0.16486931  0.16312939  1
  Ca2+  Ca43  1  0.92950056  0.16821468  0.49975177  1
  Ca2+  Ca44  1  0.93072329  0.16960333  0.82737164  1
  Ca2+  Ca45  1  0.92526077  0.67554039  0.15971885  1
  Ca2+  Ca46  1  0.91949276  0.67218262  0.50327614  1
  Ca2+  Ca47  1  0.92627240  0.67416902  0.82726024  1
  Al0+  Al48  1  -0.00291664  0.00201736  -0.00487946  1
  Al0+  Al49  1  -0.00050350  -0.00021227  0.32866506  1
  Al0+  Al50  1  0.00043466  0.00146383  0.66531241  1
  Al0+  Al51  1  -0.00094331  0.49978011  0.00299861  1
  Al0+  Al52  1  0.00059127  0.50037694  0.33309414  1
  Al0+  Al53  1  -0.00223158  0.49948173  0.66985645  1
  Al0+  Al54  1  0.50157428  0.00312270  0.00447362  1
  Al0+  Al55  1  0.50031192  0.00062195  0.33093415  1
  Al0+  Al56  1  0.50016191  0.00202267  0.66240180  1
  Al0+  Al57  1  0.49929922  0.49934857  -0.00105431  1
  Al0+  Al58  1  0.50116639  0.50006321  0.33616603  1
  Al0+  Al59  1  0.50084218  0.49938719  0.66484242  1
  Al0+  Al60  1  0.24952186  0.25029245  -0.00685189  1
  Al0+  Al61  1  0.25174373  0.25001847  0.32572681  1
  Al0+  Al62  1  0.25096725  0.25004684  0.66566167  1
  Al0+  Al63  1  0.25007538  0.74827790  0.00068447  1
  Al0+  Al64  1  0.25028115  0.74954249  0.33587911  1
  Al0+  Al65  1  0.25003991  0.74916747  0.66308950  1
  Al0+  Al66  1  0.74879578  0.25011688  0.00186692  1
  Al0+  Al67  1  0.75021627  0.24911599  0.33848046  1
  Al0+  Al68  1  0.74882557  0.24957600  0.66631220  1
  Al0+  Al69  1  0.74979065  0.74849002  0.00633416  1
  Al0+  Al70  1  0.75038045  0.74924802  0.33204817  1
  Al0+  Al71  1  0.74874896  0.74827377  0.66380170  1
  Al0+  Al72  1  0.92987156  0.81952445  0.31837445  1
  Al0+  Al73  1  0.81941388  0.57103976  0.68204167  1
  Al0+  Al74  1  0.17759342  0.92830104  0.01405306  1
  Al0+  Al75  1  0.67974465  0.42955972  0.34827088  1
  Al0+  Al76  1  0.43144364  0.32096825  0.31959714  1
  Al0+  Al77  1  0.07216413  0.67721251  0.65166840  1
  Al0+  Al78  1  0.92776697  0.32109399  0.65295791  1
  Al0+  Al79  1  0.42942681  0.82329099  0.98804082  1
  Al0+  Al80  1  0.92730209  0.82072999  0.98526570  1
  Al0+  Al81  1  0.07332150  0.17927955  0.65007171  1
  Al0+  Al82  1  0.32057778  0.07294301  0.01484575  1
  Al0+  Al83  1  0.67993704  0.92799784  0.01386855  1
  Al0+  Al84  1  0.07203028  0.67842743  0.98550782  1
  Al0+  Al85  1  0.42813511  0.82122790  0.31761746  1
  Al0+  Al86  1  0.17902876  0.92905788  0.67989617  1
  Al0+  Al87  1  0.43000602  0.32135615  0.98420537  1
  Al0+  Al88  1  0.17933768  0.42878552  0.67983064  1
  Al0+  Al89  1  0.07040802  0.17985909  0.98440305  1
  Al0+  Al90  1  0.57076302  0.67864707  0.65248017  1
  Al0+  Al91  1  0.42720901  0.82384377  0.65182175  1
  Al0+  Al92  1  0.07036928  0.17999597  0.31771486  1
  Al0+  Al93  1  0.17869810  0.92995770  0.34768347  1
  Al0+  Al94  1  0.32148735  0.57020953  0.01329618  1
  Al0+  Al95  1  0.92954478  0.82095177  0.65222890  1
  Si0+  Si96  1  0.67881625  0.92997175  0.67939042  1
  Si0+  Si97  1  0.32368769  0.57121697  0.68292914  1
  Si0+  Si98  1  0.07307681  0.67485333  0.31660632  1
  Si0+  Si99  1  0.67872085  0.42824255  0.01507657  1
  Si0+  Si100  1  0.82042139  0.07203066  0.68145474  1
  Si0+  Si101  1  0.92467548  0.32222131  0.98593866  1
  Si0+  Si102  1  0.67638660  0.42599531  0.68630639  1
  Si0+  Si103  1  0.17760470  0.42801334  0.01709553  1
  Si0+  Si104  1  0.82085806  0.06937289  0.34925510  1
  Si0+  Si105  1  0.92724453  0.32316926  0.31787323  1
  Si0+  Si106  1  0.57114114  0.67916413  0.31663218  1
  Si0+  Si107  1  0.18009519  0.42693425  0.34641560  1
  Si0+  Si108  1  0.67758165  0.92805134  0.35021370  1
  Si0+  Si109  1  0.82287948  0.57224524  0.35148489  1
  Si0+  Si110  1  0.32221027  0.07370947  0.34914660  1
  Si0+  Si111  1  0.32101461  0.57057748  0.34978434  1
  Si0+  Si112  1  0.57514317  0.17726918  0.31592902  1
  Si0+  Si113  1  0.43013641  0.32041492  0.65167781  1
  Si0+  Si114  1  0.32463708  0.07213893  0.68151837  1
  Si0+  Si115  1  0.57443743  0.17910870  0.98283767  1
  Si0+  Si116  1  0.57140059  0.67721139  0.98626236  1
  Si0+  Si117  1  0.82129755  0.57030931  0.01809727  1
  Si0+  Si118  1  0.82095882  0.07452165  0.01752181  1
  Si0+  Si119  1  0.57212368  0.17907339  0.65151559  1
  O2-  O120  1  0.25153380  -0.00142292  0.06550250  1
  O2-  O121  1  0.25579979  0.00370532  0.39397673  1
  O2-  O122  1  0.25723498  0.00192412  0.72384672  1
  O2-  O123  1  0.24496175  0.49764658  0.06206330  1
  O2-  O124  1  0.24810642  0.50023960  0.38998946  1
  O2-  O125  1  0.25109008  0.50640571  0.72657399  1
  O2-  O126  1  0.75686045  0.00094222  0.06125089  1
  O2-  O127  1  0.74942823  -0.00158254  0.39232809  1
  O2-  O128  1  0.75324448  -0.00315659  0.72261911  1
  O2-  O129  1  0.75039904  0.49783839  0.05846028  1
  O2-  O130  1  0.75651599  0.50109161  0.39540482  1
  O2-  O131  1  0.74466649  0.49503957  0.72996254  1
  O2-  O132  1  -0.00251312  0.25778540  0.27177761  1
  O2-  O133  1  0.00204689  0.25306190  0.60107279  1
  O2-  O134  1  -0.00477200  0.25632289  0.94191249  1
  O2-  O135  1  0.00542851  0.74510619  0.27390014  1
  O2-  O136  1  0.00448581  0.75287981  0.60074583  1
  O2-  O137  1  0.00375161  0.75394407  0.93598319  1
  O2-  O138  1  0.50578791  0.24561273  0.27294109  1
  O2-  O139  1  0.50176700  0.25033848  0.60926256  1
  O2-  O140  1  0.50230821  0.24383672  0.93801794  1
  O2-  O141  1  0.50501924  0.74863098  0.27076756  1
  O2-  O142  1  0.49756683  0.74910309  0.60270889  1
  O2-  O143  1  0.50551177  0.74868418  0.94301599  1
  O2-  O144  1  0.06906309  0.18125532  0.09803817  1
  O2-  O145  1  0.06935753  0.18121511  0.43038483  1
  O2-  O146  1  0.07200325  0.17956815  0.76329110  1
  O2-  O147  1  0.06821946  0.67555913  0.09958781  1
  O2-  O148  1  0.07193679  0.67025813  0.42169305  1
  O2-  O149  1  0.07056344  0.67734397  0.76487038  1
  O2-  O150  1  0.58025443  0.18375608  0.08808565  1
  O2-  O151  1  0.57530180  0.17708742  0.42200196  1
  O2-  O152  1  0.57386160  0.17805349  0.75619006  1
  O2-  O153  1  0.57024028  0.67512994  0.09218008  1
  O2-  O154  1  0.57043297  0.68012507  0.42191389  1
  O2-  O155  1  0.57069381  0.68206442  0.76625716  1
  O2-  O156  1  0.18137754  0.42620899  0.24154238  1
  O2-  O157  1  0.18462136  0.42670193  0.56585692  1
  O2-  O158  1  0.17841889  0.42884219  0.91158762  1
  O2-  O159  1  0.17736218  0.93016921  0.23496670  1
  O2-  O160  1  0.17846721  0.93225686  0.56630135  1
  O2-  O161  1  0.17880704  0.92851491  0.90054886  1
  O2-  O162  1  0.68038157  0.43174500  0.23455161  1
  O2-  O163  1  0.67626993  0.42477833  0.58060628  1
  O2-  O164  1  0.67873453  0.42653125  0.91044530  1
  O2-  O165  1  0.67745932  0.92929000  0.24525813  1
  O2-  O166  1  0.67748715  0.93447576  0.57397599  1
  O2-  O167  1  0.67998717  0.92939034  0.90028320  1
  O2-  O168  1  0.43415740  0.32311144  0.09730677  1
  O2-  O169  1  0.43162305  0.31923872  0.43318219  1
  O2-  O170  1  0.43130660  0.32018185  0.75650773  1
  O2-  O171  1  0.43037983  0.82030006  0.10139987  1
  O2-  O172  1  0.42905804  0.81942985  0.43050014  1
  O2-  O173  1  0.43012769  0.82670622  0.76529053  1
  O2-  O174  1  0.92182154  0.32019233  0.09196269  1
  O2-  O175  1  0.92710486  0.32243079  0.42288983  1
  O2-  O176  1  0.92636006  0.31619049  0.76664550  1
  O2-  O177  1  0.92616651  0.81594548  0.09920001  1
  O2-  O178  1  0.92920103  0.81934554  0.43109635  1
  O2-  O179  1  0.92657101  0.81849487  0.76510740  1
  O2-  O180  1  0.32085323  0.07574627  0.24414452  1
  O2-  O181  1  0.32751251  0.07418234  0.57571598  1
  O2-  O182  1  0.31865737  0.07221858  0.90103271  1
  O2-  O183  1  0.32220756  0.57044768  0.24470557  1
  O2-  O184  1  0.32614751  0.56638501  0.57679419  1
  O2-  O185  1  0.32519826  0.56713785  0.90071627  1
  O2-  O186  1  0.81869616  0.07097138  0.24432279  1
  O2-  O187  1  0.81668233  0.07390252  0.57599295  1
  O2-  O188  1  0.81585058  0.08099276  0.91229635  1
  O2-  O189  1  0.82098230  0.57077038  0.24549014  1
  O2-  O190  1  0.81596439  0.57006918  0.56877276  1
  O2-  O191  1  0.82064413  0.57079716  0.91339782  1
  O2-  O192  1  0.03458039  0.08614045  0.26291420  1
  O2-  O193  1  0.03907113  0.08352942  0.59623297  1
  O2-  O194  1  0.03708606  0.08554603  0.92865680  1
  O2-  O195  1  0.04743151  0.58179199  0.26791578  1
  O2-  O196  1  0.03937896  0.57966030  0.59963232  1
  O2-  O197  1  0.03992925  0.57921044  0.93545675  1
  O2-  O198  1  0.55172025  0.08345821  0.27006801  1
  O2-  O199  1  0.54508171  0.08896645  0.60018902  1
  O2-  O200  1  0.55373196  0.08423120  0.93853305  1
  O2-  O201  1  0.54445969  0.58533807  0.27185597  1
  O2-  O202  1  0.54622044  0.57862622  0.59977721  1
  O2-  O203  1  0.54607985  0.58487585  0.93848552  1
  O2-  O204  1  0.16624514  0.21069096  0.26281946  1
  O2-  O205  1  0.17182377  0.20777145  0.59671969  1
  O2-  O206  1  0.16483449  0.21168223  0.92842349  1
  O2-  O207  1  0.16763835  0.69991963  0.27335452  1
  O2-  O208  1  0.17255901  0.69657523  0.59949935  1
  O2-  O209  1  0.17196722  0.69931411  0.93422706  1
  O2-  O210  1  0.66898382  0.20336839  0.27072651  1
  O2-  O211  1  0.66274204  0.20665331  0.60162394  1
  O2-  O212  1  0.66571915  0.20972938  0.93376159  1
  O2-  O213  1  0.66580161  0.70129854  0.27110951  1
  O2-  O214  1  0.66661078  0.70850271  0.59607806  1
  O2-  O215  1  0.66626794  0.70133769  0.94340348  1
  O2-  O216  1  0.08291526  0.44899277  0.06396874  1
  O2-  O217  1  0.08644662  0.45136786  0.39252354  1
  O2-  O218  1  0.08173179  0.45357621  0.73354353  1
  O2-  O219  1  0.07772251  0.95995582  0.06364967  1
  O2-  O220  1  0.08173447  0.96421172  0.39939715  1
  O2-  O221  1  0.08257761  0.96189263  0.73320123  1
  O2-  O222  1  0.58783741  0.45808861  0.06305020  1
  O2-  O223  1  0.58392864  0.46124192  0.40380722  1
  O2-  O224  1  0.58198598  0.45107280  0.73117390  1
  O2-  O225  1  0.58634721  0.96348474  0.07133994  1
  O2-  O226  1  0.58611638  0.95772225  0.39782935  1
  O2-  O227  1  0.58833137  0.96289215  0.72678550  1
  O2-  O228  1  0.20773312  0.33521207  0.06132679  1
  O2-  O229  1  0.21174045  0.33605362  0.39364906  1
  O2-  O230  1  0.21474596  0.33331576  0.73388366  1
  O2-  O231  1  0.20438687  0.82940295  0.06707680  1
  O2-  O232  1  0.20834482  0.83233175  0.40092707  1
  O2-  O233  1  0.20773379  0.83039559  0.73054008  1
  O2-  O234  1  0.70521522  0.33672451  0.06462730  1
  O2-  O235  1  0.70541053  0.33111276  0.40210052  1
  O2-  O236  1  0.70075950  0.33154400  0.73174406  1
  O2-  O237  1  0.70764998  0.83180370  0.07157013  1
  O2-  O238  1  0.70494350  0.83528808  0.39575298  1
  O2-  O239  1  0.70276189  0.83719026  0.72513704  1
  O2-  O240  1  0.46416496  0.41774053  0.26686048  1
  O2-  O241  1  0.45723503  0.41163184  0.60314722  1
  O2-  O242  1  0.46525515  0.41585071  0.92902064  1
  O2-  O243  1  0.45820826  0.91891079  0.26579482  1
  O2-  O244  1  0.45939360  0.92061439  0.59662140  1
  O2-  O245  1  0.46140825  0.92054279  0.93684674  1
  O2-  O246  1  0.94860262  0.41815295  0.27223054  1
  O2-  O247  1  0.94965318  0.42094968  0.60234834  1
  O2-  O248  1  0.94789377  0.41710680  0.94277646  1
  O2-  O249  1  0.95750977  0.91625947  0.26395927  1
  O2-  O250  1  0.95320342  0.92112673  0.60054727  1
  O2-  O251  1  0.94171230  0.92297367  0.93668589  1
  O2-  O252  1  0.33610625  0.29243929  0.26276947  1
  O2-  O253  1  0.33988581  0.29145480  0.60247472  1
  O2-  O254  1  0.33413222  0.29294110  0.92883008  1
  O2-  O255  1  0.33204836  0.78625282  0.26577191  1
  O2-  O256  1  0.33107193  0.79329922  0.59637104  1
  O2-  O257  1  0.33439160  0.78956270  0.93471928  1
  O2-  O258  1  0.83343525  0.29444255  0.27303225  1
  O2-  O259  1  0.82929935  0.29043595  0.59977960  1
  O2-  O260  1  0.83157983  0.29654882  0.93922035  1
  O2-  O261  1  0.83201079  0.78918713  0.26554293  1
  O2-  O262  1  0.83145943  0.79099565  0.59891267  1
  O2-  O263  1  0.82902927  0.78580508  0.93557941  1
  O2-  O264  1  0.42243226  0.05601070  0.06560661  1
  O2-  O265  1  0.41828772  0.05202457  0.39332257  1
  O2-  O266  1  0.41962279  0.05043697  0.72768459  1
  O2-  O267  1  0.41721614  0.53594608  0.06897816  1
  O2-  O268  1  0.41170571  0.54046534  0.39774704  1
  O2-  O269  1  0.41580914  0.54056906  0.72953422  1
  O2-  O270  1  0.91575937  0.05344189  0.06154460  1
  O2-  O271  1  0.91198971  0.04016183  0.39617093  1
  O2-  O272  1  0.91342163  0.04948507  0.72738398  1
  O2-  O273  1  0.91197223  0.54198982  0.06806949  1
  O2-  O274  1  0.91801592  0.54948272  0.39555206  1
  O2-  O275  1  0.91434226  0.54016718  0.73882649  1
  O2-  O276  1  0.28876804  0.17210910  0.06562169  1
  O2-  O277  1  0.29561002  0.16793195  0.39488795  1
  O2-  O278  1  0.29839372  0.16574245  0.72709181  1
  O2-  O279  1  0.29176724  0.66555326  0.07045222  1
  O2-  O280  1  0.29414110  0.66169616  0.39862067  1
  O2-  O281  1  0.30387085  0.66704594  0.72519047  1
  O2-  O282  1  0.78963379  0.16544364  0.06782736  1
  O2-  O283  1  0.79321293  0.16049349  0.39906232  1
  O2-  O284  1  0.78642218  0.16110606  0.73060494  1
  O2-  O285  1  0.79109158  0.65946637  0.06925808  1
  O2-  O286  1  0.79374907  0.66505194  0.39714916  1
  O2-  O287  1  0.78460364  0.66682780  0.73639832  1
