# generated using pymatgen
data_Ca2Al2SiO7
_symmetry_space_group_name_H-M   'P 1'
_cell_length_a   15.45838596
_cell_length_b   15.45796928
_cell_length_c   15.28387021
_cell_angle_alpha   90.00106421
_cell_angle_beta   89.99281413
_cell_angle_gamma   89.98721401
_symmetry_Int_Tables_number   1
_chemical_formula_structural   Ca2Al2SiO7
_chemical_formula_sum   'Ca48 Al48 Si24 O168'
_cell_volume   3652.16098937
_cell_formula_units_Z   24
loop_
 _symmetry_equiv_pos_site_id
 _symmetry_equiv_pos_as_xyz
  1  'x, y, z'
loop_
 _atom_type_symbol
 _atom_type_oxidation_number
  Ca2+  2.0
  Al0+  0.0
  Si0+  0.0
  O2-  -2.0
loop_
 _atom_site_type_symbol
 _atom_site_label
 _atom_site_symmetry_multiplicity
 _atom_site_fract_x
 _atom_site_fract_y
 _atom_site_fract_z
 _atom_site_occupancy
  Ca2+  Ca0  1  0.16523440  0.07231123  0.17188958  1
  Ca2+  Ca1  1  0.17398132  0.08133650  0.50391566  1
  Ca2+  Ca2  1  0.16553497  0.08258522  0.83663146  1
  Ca2+  Ca3  1  0.17320334  0.58646888  0.17670025  1
  Ca2+  Ca4  1  0.17101901  0.59158370  0.49941059  1
  Ca2+  Ca5  1  0.16690767  0.58291719  0.83656210  1
  Ca2+  Ca6  1  0.67541611  0.08117131  0.16722506  1
  Ca2+  Ca7  1  0.67367136  0.07901650  0.50770404  1
  Ca2+  Ca8  1  0.68151433  0.08337391  0.83612397  1
  Ca2+  Ca9  1  0.66382783  0.57443770  0.17370864  1
  Ca2+  Ca10  1  0.66422376  0.57767613  0.50758450  1
  Ca2+  Ca11  1  0.66878640  0.57776650  0.83107061  1
  Ca2+  Ca12  1  0.07709880  0.32346226  0.15506053  1
  Ca2+  Ca13  1  0.07831582  0.32870582  0.50008236  1
  Ca2+  Ca14  1  0.07023671  0.32214893  0.82620631  1
  Ca2+  Ca15  1  0.08168831  0.83688910  0.16494707  1
  Ca2+  Ca16  1  0.07234659  0.83335627  0.49332486  1
  Ca2+  Ca17  1  0.07557928  0.83949158  0.83304413  1
  Ca2+  Ca18  1  0.58072859  0.34015429  0.16745812  1
  Ca2+  Ca19  1  0.58238504  0.33694760  0.49386885  1
  Ca2+  Ca20  1  0.58885595  0.33638020  0.83125793  1
  Ca2+  Ca21  1  0.57576517  0.82621097  0.16135765  1
  Ca2+  Ca22  1  0.58231830  0.82014869  0.49656948  1
  Ca2+  Ca23  1  0.57186731  0.83221656  0.82335366  1
  Ca2+  Ca24  1  0.33271452  0.42128354  0.17795982  1
  Ca2+  Ca25  1  0.33664172  0.42085817  0.49864990  1
  Ca2+  Ca26  1  0.33037415  0.41933351  0.83578832  1
  Ca2+  Ca27  1  0.32183051  0.91677102  0.17467436  1
  Ca2+  Ca28  1  0.32844319  0.92165629  0.50709106  1
  Ca2+  Ca29  1  0.33080352  0.91731949  0.83982169  1
  Ca2+  Ca30  1  0.82322234  0.41185968  0.17032772  1
  Ca2+  Ca31  1  0.82344285  0.42345573  0.51327572  1
  Ca2+  Ca32  1  0.82721574  0.41310655  0.83705539  1
  Ca2+  Ca33  1  0.84651528  0.92089538  0.16662775  1
  Ca2+  Ca34  1  0.83807290  0.91682194  0.50772009  1
  Ca2+  Ca35  1  0.84638507  0.92548046  0.83638851  1
  Ca2+  Ca36  1  0.41329038  0.16894117  0.16871548  1
  Ca2+  Ca37  1  0.41204566  0.16933414  0.49418157  1
  Ca2+  Ca38  1  0.41825908  0.16596846  0.82543047  1
  Ca2+  Ca39  1  0.42046706  0.66545356  0.16468930  1
  Ca2+  Ca40  1  0.42701075  0.66409955  0.49556942  1
  Ca2+  Ca41  1  0.42141305  0.68007940  0.82690339  1
  Ca2+  Ca42  1  0.92187075  0.16988248  0.15382096  1
  Ca2+  Ca43  1  0.91756586  0.16728292  0.50322610  1
  Ca2+  Ca44  1  0.92184026  0.16742857  0.82740948  1
  Ca2+  Ca45  1  0.92219586  0.67846160  0.16484699  1
  Ca2+  Ca46  1  0.91565088  0.67468940  0.49344241  1
  Ca2+  Ca47  1  0.91137255  0.67656148  0.82544837  1
  Al0+  Al48  1  0.00348026  -0.00063912  0.00170707  1
  Al0+  Al49  1  0.00089085  0.00212171  0.33538497  1
  Al0+  Al50  1  0.00257427  -0.00062362  0.66123211  1
  Al0+  Al51  1  -0.00070238  0.50006930  -0.00145248  1
  Al0+  Al52  1  -0.00136560  0.50065210  0.32831267  1
  Al0+  Al53  1  -0.00028012  0.49960057  0.66725235  1
  Al0+  Al54  1  0.50127082  0.00151329  -0.00256042  1
  Al0+  Al55  1  0.50299626  0.00111719  0.33539666  1
  Al0+  Al56  1  0.49827638  0.00223044  0.66603697  1
  Al0+  Al57  1  0.50112527  0.49971489  0.00192192  1
  Al0+  Al58  1  0.49847493  0.49844678  0.33283562  1
  Al0+  Al59  1  0.49846884  0.50024252  0.67023642  1
  Al0+  Al60  1  0.25152553  0.25082075  -0.00360826  1
  Al0+  Al61  1  0.24973900  0.25079545  0.33127831  1
  Al0+  Al62  1  0.24984223  0.24903887  0.66764504  1
  Al0+  Al63  1  0.25177421  0.75075514  0.00017451  1
  Al0+  Al64  1  0.24916360  0.75007523  0.34166389  1
  Al0+  Al65  1  0.24930794  0.75185220  0.66566352  1
  Al0+  Al66  1  0.74799748  0.25025669  0.00704376  1
  Al0+  Al67  1  0.74811081  0.24898067  0.33739744  1
  Al0+  Al68  1  0.74951927  0.24865735  0.66997174  1
  Al0+  Al69  1  0.75005843  0.74847867  -0.00391645  1
  Al0+  Al70  1  0.74949615  0.75050150  0.32145334  1
  Al0+  Al71  1  0.74744243  0.74801231  0.66325632  1
  Al0+  Al72  1  0.82074517  0.06784027  0.01326865  1
  Al0+  Al73  1  0.32095436  0.07165461  0.68225762  1
  Al0+  Al74  1  0.07204302  0.17820312  0.98483580  1
  Al0+  Al75  1  0.43008485  0.31853753  0.32059295  1
  Al0+  Al76  1  0.92963110  0.82339894  0.31632038  1
  Al0+  Al77  1  0.32193700  0.07189265  0.34758379  1
  Al0+  Al78  1  0.92622693  0.32122821  0.65061633  1
  Al0+  Al79  1  0.56843389  0.67850587  0.65183706  1
  Al0+  Al80  1  0.67995818  0.43048651  0.34864357  1
  Al0+  Al81  1  0.56910970  0.67796547  0.31752726  1
  Al0+  Al82  1  0.68055513  0.43113171  0.01716489  1
  Al0+  Al83  1  0.07185716  0.17891563  0.64877857  1
  Al0+  Al84  1  0.92967643  0.81931142  0.65394103  1
  Al0+  Al85  1  0.42954917  0.82113176  0.98840698  1
  Al0+  Al86  1  0.42699917  0.82424052  0.64947654  1
  Al0+  Al87  1  0.92552264  0.32131938  0.98562140  1
  Al0+  Al88  1  0.31993561  0.57046066  0.34748521  1
  Al0+  Al89  1  0.82211582  0.06765779  0.67969232  1
  Al0+  Al90  1  0.17770236  0.92872760  0.35207973  1
  Al0+  Al91  1  0.93063334  0.81968377  0.98515169  1
  Al0+  Al92  1  0.18213987  0.93016467  0.01383008  1
  Al0+  Al93  1  0.67789850  0.42892346  0.68309709  1
  Al0+  Al94  1  0.82284702  0.57303225  0.68119790  1
  Al0+  Al95  1  0.07294502  0.67826360  0.31889023  1
  Si0+  Si96  1  0.82437705  0.57545424  0.01904339  1
  Si0+  Si97  1  0.32571651  0.07470924  0.01700551  1
  Si0+  Si98  1  0.31977408  0.57163331  0.68302125  1
  Si0+  Si99  1  0.67561090  0.92633609  0.01515617  1
  Si0+  Si100  1  0.17878358  0.42783343  0.68191698  1
  Si0+  Si101  1  0.07314504  0.67536647  0.65140987  1
  Si0+  Si102  1  0.67909014  0.92681835  0.34656989  1
  Si0+  Si103  1  0.57143040  0.17987328  0.65252255  1
  Si0+  Si104  1  0.42871533  0.82423661  0.31862923  1
  Si0+  Si105  1  0.67711417  0.92710057  0.68163111  1
  Si0+  Si106  1  0.82189761  0.57327364  0.34722661  1
  Si0+  Si107  1  0.17512484  0.42737844  0.34875226  1
  Si0+  Si108  1  0.82049498  0.07035188  0.34878525  1
  Si0+  Si109  1  0.31920368  0.56918925  0.01428112  1
  Si0+  Si110  1  0.92590560  0.32054639  0.31917367  1
  Si0+  Si111  1  0.57076649  0.17932967  0.98513777  1
  Si0+  Si112  1  0.42839785  0.32098692  0.65308496  1
  Si0+  Si113  1  0.57486844  0.17606521  0.31546104  1
  Si0+  Si114  1  0.17872488  0.42779202  0.01371350  1
  Si0+  Si115  1  0.57107729  0.67577040  0.98216059  1
  Si0+  Si116  1  0.07034950  0.18182777  0.31755506  1
  Si0+  Si117  1  0.43009685  0.32243462  0.98442119  1
  Si0+  Si118  1  0.17929034  0.92805479  0.68523990  1
  Si0+  Si119  1  0.07418825  0.67738079  0.98351039  1
  O2-  O120  1  0.25725857  0.00564591  0.05961819  1
  O2-  O121  1  0.25364957  -0.00178834  0.39978824  1
  O2-  O122  1  0.24977383  -0.00511924  0.72972861  1
  O2-  O123  1  0.24706938  0.50014150  0.05759282  1
  O2-  O124  1  0.24067179  0.49915622  0.39333704  1
  O2-  O125  1  0.24625672  0.50281792  0.72501654  1
  O2-  O126  1  0.74900352  -0.01031318  0.06065022  1
  O2-  O127  1  0.75220907  -0.00416107  0.38905630  1
  O2-  O128  1  0.74990726  -0.00939687  0.72714233  1
  O2-  O129  1  0.75699583  0.50471492  0.06293923  1
  O2-  O130  1  0.75480797  0.50470153  0.39390117  1
  O2-  O131  1  0.75354383  0.49799293  0.73172241  1
  O2-  O132  1  -0.00110504  0.25246149  0.27565265  1
  O2-  O133  1  -0.00166404  0.24998626  0.59894289  1
  O2-  O134  1  -0.00182617  0.24944688  0.93671619  1
  O2-  O135  1  0.00395259  0.75238538  0.26806253  1
  O2-  O136  1  0.00067287  0.74049084  0.60877051  1
  O2-  O137  1  0.00238057  0.74187485  0.93864457  1
  O2-  O138  1  0.50325964  0.24275756  0.27257654  1
  O2-  O139  1  0.50103407  0.25194360  0.61135354  1
  O2-  O140  1  0.49817653  0.24906965  0.94262620  1
  O2-  O141  1  0.49401051  0.75332359  0.27199054  1
  O2-  O142  1  0.49797560  0.75128760  0.60029548  1
  O2-  O143  1  0.50805334  0.75081490  0.94050992  1
  O2-  O144  1  0.07182138  0.18090311  0.09922686  1
  O2-  O145  1  0.07044385  0.18315950  0.42238054  1
  O2-  O146  1  0.07236092  0.18079542  0.76220563  1
  O2-  O147  1  0.07703471  0.67793755  0.08870596  1
  O2-  O148  1  0.06836536  0.67624635  0.43230527  1
  O2-  O149  1  0.07677923  0.67679313  0.75727994  1
  O2-  O150  1  0.56985046  0.17803654  0.09019741  1
  O2-  O151  1  0.57901133  0.17629915  0.42089018  1
  O2-  O152  1  0.57043993  0.17937565  0.75790664  1
  O2-  O153  1  0.56707264  0.67314307  0.08801303  1
  O2-  O154  1  0.56942547  0.67811255  0.43013171  1
  O2-  O155  1  0.56461787  0.67845361  0.76572770  1
  O2-  O156  1  0.17812233  0.42559277  0.24279343  1
  O2-  O157  1  0.18157367  0.42662858  0.57684723  1
  O2-  O158  1  0.18243970  0.42875354  0.90851316  1
  O2-  O159  1  0.17755145  0.93148999  0.23799210  1
  O2-  O160  1  0.17981255  0.92856712  0.58000033  1
  O2-  O161  1  0.18385419  0.92910434  0.90096958  1
  O2-  O162  1  0.68125445  0.43004661  0.23535033  1
  O2-  O163  1  0.67513931  0.43047525  0.56958179  1
  O2-  O164  1  0.67681890  0.43266328  0.90468029  1
  O2-  O165  1  0.67565244  0.92994963  0.24148660  1
  O2-  O166  1  0.67688568  0.93057648  0.57560687  1
  O2-  O167  1  0.67151028  0.93133693  0.90996569  1
  O2-  O168  1  0.42929915  0.32421517  0.08922413  1
  O2-  O169  1  0.43148235  0.31863745  0.43385979  1
  O2-  O170  1  0.42748522  0.32079156  0.75872050  1
  O2-  O171  1  0.42940011  0.81715912  0.10162279  1
  O2-  O172  1  0.43411864  0.82490844  0.42367402  1
  O2-  O173  1  0.42761408  0.82188458  0.76374591  1
  O2-  O174  1  0.92814394  0.31850605  0.10019756  1
  O2-  O175  1  0.92609925  0.31886448  0.42391569  1
  O2-  O176  1  0.92740801  0.31912509  0.76401030  1
  O2-  O177  1  0.93380819  0.81991407  0.09782517  1
  O2-  O178  1  0.92724000  0.82217060  0.42990791  1
  O2-  O179  1  0.93373279  0.82145010  0.76710133  1
  O2-  O180  1  0.31930644  0.07179905  0.23363922  1
  O2-  O181  1  0.31972291  0.07404916  0.56960219  1
  O2-  O182  1  0.32702403  0.07536718  0.91147692  1
  O2-  O183  1  0.32072544  0.56688982  0.23370491  1
  O2-  O184  1  0.32110079  0.56901987  0.57820939  1
  O2-  O185  1  0.31857110  0.56694457  0.90884256  1
  O2-  O186  1  0.81964869  0.07258644  0.24355786  1
  O2-  O187  1  0.81822030  0.06734726  0.56610039  1
  O2-  O188  1  0.81942409  0.06823251  0.90039857  1
  O2-  O189  1  0.82075179  0.57024959  0.24145175  1
  O2-  O190  1  0.82147932  0.57274454  0.56730162  1
  O2-  O191  1  0.82338952  0.57728652  0.91382917  1
  O2-  O192  1  0.04127318  0.09008816  0.27152251  1
  O2-  O193  1  0.04451017  0.08142184  0.59475554  1
  O2-  O194  1  0.04516846  0.07999551  0.93306391  1
  O2-  O195  1  0.04593562  0.57965555  0.26287171  1
  O2-  O196  1  0.05531866  0.58009681  0.60640468  1
  O2-  O197  1  0.05349754  0.58191275  0.93872256  1
  O2-  O198  1  0.55224411  0.08204151  0.26832781  1
  O2-  O199  1  0.54319865  0.08920499  0.60334743  1
  O2-  O200  1  0.54605038  0.08812327  0.93502652  1
  O2-  O201  1  0.53458329  0.58269772  0.26343128  1
  O2-  O202  1  0.53499130  0.58045394  0.60010223  1
  O2-  O203  1  0.53739361  0.58509673  0.93516436  1
  O2-  O204  1  0.16115024  0.20984339  0.26873433  1
  O2-  O205  1  0.16954965  0.21264458  0.59681811  1
  O2-  O206  1  0.17065255  0.20802102  0.93224066  1
  O2-  O207  1  0.17437553  0.70284313  0.26954783  1
  O2-  O208  1  0.16551734  0.70414051  0.60462604  1
  O2-  O209  1  0.16689962  0.70497998  0.93617199  1
  O2-  O210  1  0.66678232  0.20605376  0.26745863  1
  O2-  O211  1  0.66260859  0.20593522  0.60370914  1
  O2-  O212  1  0.66142897  0.21062693  0.93852436  1
  O2-  O213  1  0.66382624  0.70798318  0.25955594  1
  O2-  O214  1  0.66631075  0.70387253  0.59704950  1
  O2-  O215  1  0.66677359  0.69392504  0.93884068  1
  O2-  O216  1  0.08537559  0.45091549  0.06015234  1
  O2-  O217  1  0.07967821  0.44905884  0.39264735  1
  O2-  O218  1  0.08675697  0.45218063  0.73020686  1
  O2-  O219  1  0.08709501  0.96141352  0.07021477  1
  O2-  O220  1  0.08057347  0.96277260  0.40464386  1
  O2-  O221  1  0.08644265  0.95749768  0.73005017  1
  O2-  O222  1  0.58298482  0.46350999  0.07075548  1
  O2-  O223  1  0.58250123  0.46000964  0.39989113  1
  O2-  O224  1  0.57941708  0.45864954  0.73725224  1
  O2-  O225  1  0.58469093  0.95816606  0.06456426  1
  O2-  O226  1  0.58954100  0.95609996  0.39746086  1
  O2-  O227  1  0.58547283  0.95904069  0.72832357  1
  O2-  O228  1  0.20979426  0.33696951  0.06174533  1
  O2-  O229  1  0.20538564  0.33596270  0.39603843  1
  O2-  O230  1  0.21287992  0.33935450  0.73167955  1
  O2-  O231  1  0.21391030  0.83325780  0.06809322  1
  O2-  O232  1  0.20009070  0.82975699  0.40540018  1
  O2-  O233  1  0.20214505  0.83338982  0.73156574  1
  O2-  O234  1  0.70653845  0.33389566  0.07301607  1
  O2-  O235  1  0.70772777  0.33222750  0.40135595  1
  O2-  O236  1  0.70318044  0.32929564  0.73516682  1
  O2-  O237  1  0.69460935  0.82949869  0.05701151  1
  O2-  O238  1  0.70559997  0.83347187  0.39094702  1
  O2-  O239  1  0.69479208  0.83146578  0.72511652  1
  O2-  O240  1  0.46194739  0.41341464  0.26399877  1
  O2-  O241  1  0.45398346  0.41364570  0.60709576  1
  O2-  O242  1  0.46021384  0.41337682  0.93600896  1
  O2-  O243  1  0.45712852  0.91698335  0.27145263  1
  O2-  O244  1  0.45467514  0.92331843  0.59858275  1
  O2-  O245  1  0.45656361  0.91918695  0.93477321  1
  O2-  O246  1  0.94839542  0.41330823  0.27145748  1
  O2-  O247  1  0.95602152  0.42014516  0.59902575  1
  O2-  O248  1  0.95261688  0.42075779  0.93439900  1
  O2-  O249  1  0.95897486  0.92334757  0.26609495  1
  O2-  O250  1  0.96338856  0.91343789  0.59742127  1
  O2-  O251  1  0.96622538  0.91521169  0.93294511  1
  O2-  O252  1  0.33292099  0.29107802  0.26411674  1
  O2-  O253  1  0.33785548  0.29210815  0.60502706  1
  O2-  O254  1  0.33801261  0.29827489  0.93540180  1
  O2-  O255  1  0.33265353  0.80067778  0.27823307  1
  O2-  O256  1  0.32786302  0.79603640  0.59916544  1
  O2-  O257  1  0.33566918  0.78562985  0.93196212  1
  O2-  O258  1  0.83495716  0.28815895  0.27240805  1
  O2-  O259  1  0.82763630  0.29105995  0.59888529  1
  O2-  O260  1  0.82581532  0.29291959  0.93703962  1
  O2-  O261  1  0.83243951  0.79644510  0.25972826  1
  O2-  O262  1  0.83099487  0.79475741  0.60136593  1
  O2-  O263  1  0.83127450  0.79551094  0.93280233  1
  O2-  O264  1  0.42016635  0.05103549  0.06237919  1
  O2-  O265  1  0.42403668  0.05159444  0.39719036  1
  O2-  O266  1  0.41937604  0.04521751  0.73585710  1
  O2-  O267  1  0.41025608  0.53872050  0.06135772  1
  O2-  O268  1  0.41331926  0.53220469  0.40234501  1
  O2-  O269  1  0.40846323  0.53982166  0.73379600  1
  O2-  O270  1  0.91754566  0.03915168  0.06795847  1
  O2-  O271  1  0.91286867  0.04678336  0.39603642  1
  O2-  O272  1  0.92018240  0.03810942  0.73099700  1
  O2-  O273  1  0.91971985  0.55221774  0.06347468  1
  O2-  O274  1  0.91655597  0.54945494  0.39180152  1
  O2-  O275  1  0.92358496  0.55097837  0.73319516  1
  O2-  O276  1  0.30090299  0.16997440  0.06096414  1
  O2-  O277  1  0.29081313  0.17062453  0.39907688  1
  O2-  O278  1  0.29045456  0.16854577  0.73702966  1
  O2-  O279  1  0.29349770  0.66099007  0.06179094  1
  O2-  O280  1  0.29522276  0.66642593  0.40489202  1
  O2-  O281  1  0.29293055  0.66424990  0.72997634  1
  O2-  O282  1  0.78544607  0.16198253  0.07004862  1
  O2-  O283  1  0.78838681  0.15983510  0.39815393  1
  O2-  O284  1  0.78769971  0.16242106  0.73436196  1
  O2-  O285  1  0.79684591  0.66878708  0.06551147  1
  O2-  O286  1  0.79576678  0.66867391  0.38847321  1
  O2-  O287  1  0.78942221  0.67019811  0.73515627  1
