# generated using pymatgen
data_Ca2Al2SiO7
_symmetry_space_group_name_H-M   'P 1'
_cell_length_a   15.45756091
_cell_length_b   15.45653870
_cell_length_c   15.28391584
_cell_angle_alpha   90.00123514
_cell_angle_beta   90.00022291
_cell_angle_gamma   89.98595510
_symmetry_Int_Tables_number   1
_chemical_formula_structural   Ca2Al2SiO7
_chemical_formula_sum   'Ca48 Al48 Si24 O168'
_cell_volume   3651.63899795
_cell_formula_units_Z   24
loop_
 _symmetry_equiv_pos_site_id
 _symmetry_equiv_pos_as_xyz
  1  'x, y, z'
loop_
 _atom_type_symbol
 _atom_type_oxidation_number
  Ca2+  2.0
  Al0+  0.0
  Si0+  0.0
  O2-  -2.0
loop_
 _atom_site_type_symbol
 _atom_site_label
 _atom_site_symmetry_multiplicity
 _atom_site_fract_x
 _atom_site_fract_y
 _atom_site_fract_z
 _atom_site_occupancy
  Ca2+  Ca0  1  0.16839226  0.08474952  0.16994893  1
  Ca2+  Ca1  1  0.17071991  0.08097493  0.50187106  1
  Ca2+  Ca2  1  0.17954334  0.08710266  0.84251063  1
  Ca2+  Ca3  1  0.16488493  0.57502245  0.17543681  1
  Ca2+  Ca4  1  0.17030478  0.57931511  0.49528338  1
  Ca2+  Ca5  1  0.16784922  0.57635226  0.84277404  1
  Ca2+  Ca6  1  0.66915513  0.08176498  0.16572432  1
  Ca2+  Ca7  1  0.66183786  0.09048235  0.50404078  1
  Ca2+  Ca8  1  0.66778722  0.07931997  0.84470083  1
  Ca2+  Ca9  1  0.67178467  0.58611120  0.17185467  1
  Ca2+  Ca10  1  0.67204461  0.57584944  0.50441107  1
  Ca2+  Ca11  1  0.66095733  0.57807272  0.83864103  1
  Ca2+  Ca12  1  0.08618754  0.32864834  0.15787332  1
  Ca2+  Ca13  1  0.08681602  0.32738924  0.49090435  1
  Ca2+  Ca14  1  0.08232624  0.33008528  0.84088666  1
  Ca2+  Ca15  1  0.08570782  0.82196309  0.16052342  1
  Ca2+  Ca16  1  0.08456014  0.82866418  0.48887843  1
  Ca2+  Ca17  1  0.08056683  0.83133313  0.83623365  1
  Ca2+  Ca18  1  0.57014908  0.33160186  0.16342759  1
  Ca2+  Ca19  1  0.57684931  0.32716238  0.49568951  1
  Ca2+  Ca20  1  0.57135233  0.32918206  0.82355308  1
  Ca2+  Ca21  1  0.57898720  0.82648486  0.15447392  1
  Ca2+  Ca22  1  0.57220652  0.83692963  0.49867888  1
  Ca2+  Ca23  1  0.57686440  0.83576699  0.83681718  1
  Ca2+  Ca24  1  0.32566754  0.41763559  0.17235425  1
  Ca2+  Ca25  1  0.33594671  0.41417983  0.49798778  1
  Ca2+  Ca26  1  0.33015514  0.41063680  0.84274748  1
  Ca2+  Ca27  1  0.33050284  0.92162732  0.16902137  1
  Ca2+  Ca28  1  0.32752805  0.92076811  0.50655372  1
  Ca2+  Ca29  1  0.34448231  0.92802006  0.83887433  1
  Ca2+  Ca30  1  0.83638848  0.42081795  0.17063480  1
  Ca2+  Ca31  1  0.82911782  0.42220078  0.50361296  1
  Ca2+  Ca32  1  0.82514059  0.41102671  0.83991956  1
  Ca2+  Ca33  1  0.83302736  0.91531290  0.16377434  1
  Ca2+  Ca34  1  0.82952779  0.92044454  0.50352515  1
  Ca2+  Ca35  1  0.82687860  0.92178859  0.84839867  1
  Ca2+  Ca36  1  0.41153428  0.17738154  0.16195198  1
  Ca2+  Ca37  1  0.42314739  0.17427736  0.49612796  1
  Ca2+  Ca38  1  0.41418691  0.17309886  0.82668146  1
  Ca2+  Ca39  1  0.41691797  0.67111733  0.15780849  1
  Ca2+  Ca40  1  0.41063078  0.67063900  0.49533189  1
  Ca2+  Ca41  1  0.41932129  0.67931191  0.83381930  1
  Ca2+  Ca42  1  0.92911148  0.16928014  0.15683775  1
  Ca2+  Ca43  1  0.92313406  0.17113005  0.49087397  1
  Ca2+  Ca44  1  0.91873914  0.16460249  0.83762100  1
  Ca2+  Ca45  1  0.92660562  0.66674997  0.15913489  1
  Ca2+  Ca46  1  0.92180305  0.66635621  0.49075119  1
  Ca2+  Ca47  1  0.92143128  0.66912829  0.83877337  1
  Al0+  Al48  1  0.00156332  -0.00063473  -0.00431477  1
  Al0+  Al49  1  -0.00190868  0.00067209  0.33505636  1
  Al0+  Al50  1  -0.00043582  -0.00200041  0.66595487  1
  Al0+  Al51  1  -0.00095960  0.49753925  -0.00538039  1
  Al0+  Al52  1  -0.00003182  0.50127591  0.34045148  1
  Al0+  Al53  1  0.00106777  0.50091565  0.66720861  1
  Al0+  Al54  1  0.50065192  0.00048823  0.00930923  1
  Al0+  Al55  1  0.50136764  -0.00023065  0.33029423  1
  Al0+  Al56  1  0.49960570  -0.00095195  0.66234237  1
  Al0+  Al57  1  0.49902014  0.49952007  -0.00652804  1
  Al0+  Al58  1  0.50056871  0.50087331  0.33476005  1
  Al0+  Al59  1  0.50010564  0.50140535  0.66734141  1
  Al0+  Al60  1  0.24924993  0.25023237  0.00084960  1
  Al0+  Al61  1  0.25074310  0.24939330  0.33137258  1
  Al0+  Al62  1  0.24893809  0.24972518  0.66588171  1
  Al0+  Al63  1  0.25208820  0.75071385  -0.01036777  1
  Al0+  Al64  1  0.24796466  0.75051338  0.33643291  1
  Al0+  Al65  1  0.24827554  0.74823106  0.66412548  1
  Al0+  Al66  1  0.75017319  0.24987283  0.00453475  1
  Al0+  Al67  1  0.74925422  0.24899777  0.32997589  1
  Al0+  Al68  1  0.75169756  0.25193656  0.66745048  1
  Al0+  Al69  1  0.75025043  0.74796123  -0.00426680  1
  Al0+  Al70  1  0.74848051  0.75200429  0.34149396  1
  Al0+  Al71  1  0.75256893  0.75064913  0.66693032  1
  Al0+  Al72  1  0.32254620  0.57182943  0.34713041  1
  Al0+  Al73  1  0.42960505  0.82005108  0.65142871  1
  Al0+  Al74  1  0.57232345  0.67747320  0.98582766  1
  Al0+  Al75  1  0.82342481  0.07218843  0.01660200  1
  Al0+  Al76  1  0.57276590  0.17697868  0.31423831  1
  Al0+  Al77  1  0.07041415  0.17828815  0.32094422  1
  Al0+  Al78  1  0.42970241  0.32240663  0.31651151  1
  Al0+  Al79  1  0.31926470  0.06898730  0.67875883  1
  Al0+  Al80  1  0.07211343  0.17792498  0.98414764  1
  Al0+  Al81  1  0.17899913  0.43134397  0.01280063  1
  Al0+  Al82  1  0.42905760  0.82429457  0.98650662  1
  Al0+  Al83  1  0.82071564  0.57202119  0.34637312  1
  Al0+  Al84  1  0.92933211  0.82066878  0.98604401  1
  Al0+  Al85  1  0.32070801  0.07142642  0.01498943  1
  Al0+  Al86  1  0.07280432  0.67649160  0.98466147  1
  Al0+  Al87  1  0.67958071  0.92719010  0.01632770  1
  Al0+  Al88  1  0.42873412  0.31924939  0.98599424  1
  Al0+  Al89  1  0.67994413  0.43026158  0.68103957  1
  Al0+  Al90  1  0.92675607  0.32081042  0.98573340  1
  Al0+  Al91  1  0.06983295  0.67975085  0.32070322  1
  Al0+  Al92  1  0.57250582  0.17929206  0.65427066  1
  Al0+  Al93  1  0.17960918  0.42680473  0.34886387  1
  Al0+  Al94  1  0.42614185  0.32298930  0.65026622  1
  Al0+  Al95  1  0.17848670  0.93028398  0.34517825  1
  Si0+  Si96  1  0.57401668  0.67847126  0.64818718  1
  Si0+  Si97  1  0.92920319  0.82136284  0.64935114  1
  Si0+  Si98  1  0.57230472  0.68072087  0.32203860  1
  Si0+  Si99  1  0.32242870  0.57323200  0.01318913  1
  Si0+  Si100  1  0.17894937  0.42913405  0.68281009  1
  Si0+  Si101  1  0.06960944  0.67798761  0.64855070  1
  Si0+  Si102  1  0.67971036  0.92936371  0.68080284  1
  Si0+  Si103  1  0.06967763  0.17843547  0.65131196  1
  Si0+  Si104  1  0.81989708  0.07117666  0.34944622  1
  Si0+  Si105  1  0.82291096  0.07117374  0.68054955  1
  Si0+  Si106  1  0.82368443  0.57274594  0.68641564  1
  Si0+  Si107  1  0.67597121  0.42856249  0.01583073  1
  Si0+  Si108  1  0.92842173  0.32304504  0.31932668  1
  Si0+  Si109  1  0.67804172  0.92915111  0.35157129  1
  Si0+  Si110  1  0.32365518  0.07142061  0.35082059  1
  Si0+  Si111  1  0.42773875  0.81990740  0.31901827  1
  Si0+  Si112  1  0.92955270  0.32188118  0.65091657  1
  Si0+  Si113  1  0.32062700  0.57294651  0.68318031  1
  Si0+  Si114  1  0.67827119  0.42707012  0.34938477  1
  Si0+  Si115  1  0.57190448  0.17879673  0.98567149  1
  Si0+  Si116  1  0.17837794  0.92575030  0.01450061  1
  Si0+  Si117  1  0.92520889  0.82233868  0.31840366  1
  Si0+  Si118  1  0.17654728  0.92573709  0.68451168  1
  Si0+  Si119  1  0.82010229  0.56897496  0.01364257  1
  O2-  O120  1  0.24597202  -0.00503693  0.05920205  1
  O2-  O121  1  0.25274852  0.00422869  0.39442958  1
  O2-  O122  1  0.24573653  -0.00644558  0.72782684  1
  O2-  O123  1  0.25085271  0.50897529  0.05840593  1
  O2-  O124  1  0.25378427  0.49709022  0.39919400  1
  O2-  O125  1  0.25421274  0.49663956  0.72383389  1
  O2-  O126  1  0.75305715  -0.00190334  0.06656249  1
  O2-  O127  1  0.74649558  0.00315083  0.39342143  1
  O2-  O128  1  0.74817061  0.00360905  0.72134377  1
  O2-  O129  1  0.74821210  0.49926008  0.05697630  1
  O2-  O130  1  0.74795240  0.49550092  0.39331998  1
  O2-  O131  1  0.75305016  0.50630020  0.73012447  1
  O2-  O132  1  -0.00046852  0.25715925  0.27609775  1
  O2-  O133  1  -0.00059728  0.25006628  0.60837640  1
  O2-  O134  1  -0.00390650  0.24662287  0.93455202  1
  O2-  O135  1  -0.00619535  0.75363871  0.27546573  1
  O2-  O136  1  -0.00030897  0.75063097  0.60666883  1
  O2-  O137  1  0.00305530  0.75107300  0.93438044  1
  O2-  O138  1  0.49924274  0.24790276  0.26629765  1
  O2-  O139  1  0.50090518  0.25160119  0.60372803  1
  O2-  O140  1  0.50358563  0.24537785  0.93884904  1
  O2-  O141  1  0.49759078  0.74679142  0.27890594  1
  O2-  O142  1  0.50383623  0.74509828  0.60285846  1
  O2-  O143  1  0.50182309  0.75192580  0.93765566  1
  O2-  O144  1  0.07247034  0.18066012  0.09770459  1
  O2-  O145  1  0.06590212  0.17745653  0.43517773  1
  O2-  O146  1  0.06850112  0.17783344  0.75577141  1
  O2-  O147  1  0.07107687  0.67584235  0.09822870  1
  O2-  O148  1  0.06791697  0.68211688  0.43452190  1
  O2-  O149  1  0.06818570  0.67695657  0.75326451  1
  O2-  O150  1  0.57129215  0.18247101  0.09106761  1
  O2-  O151  1  0.57322161  0.17853041  0.42820551  1
  O2-  O152  1  0.57323023  0.17882239  0.76759381  1
  O2-  O153  1  0.57168694  0.67669147  0.10017693  1
  O2-  O154  1  0.57414127  0.68469744  0.42721532  1
  O2-  O155  1  0.57478544  0.68021643  0.75331352  1
  O2-  O156  1  0.17703082  0.42962769  0.23575019  1
  O2-  O157  1  0.17494922  0.43049739  0.57800161  1
  O2-  O158  1  0.18097808  0.43157443  0.89881992  1
  O2-  O159  1  0.18045051  0.92863683  0.23255310  1
  O2-  O160  1  0.17452622  0.92684258  0.57858153  1
  O2-  O161  1  0.17923737  0.92648579  0.90861861  1
  O2-  O162  1  0.67854832  0.42921359  0.24377227  1
  O2-  O163  1  0.68525312  0.43204255  0.56773271  1
  O2-  O164  1  0.67668120  0.42899964  0.91058748  1
  O2-  O165  1  0.67977248  0.92336408  0.24754493  1
  O2-  O166  1  0.68270728  0.92734009  0.57523280  1
  O2-  O167  1  0.67938384  0.93020930  0.90192318  1
  O2-  O168  1  0.42984780  0.32199078  0.09860242  1
  O2-  O169  1  0.43266797  0.32135676  0.43027039  1
  O2-  O170  1  0.42523974  0.32042679  0.76383762  1
  O2-  O171  1  0.42779066  0.82061225  0.10055582  1
  O2-  O172  1  0.42976344  0.82083199  0.42456906  1
  O2-  O173  1  0.43287577  0.82088113  0.76375517  1
  O2-  O174  1  0.92875935  0.32379738  0.09928349  1
  O2-  O175  1  0.92641807  0.31943710  0.42580534  1
  O2-  O176  1  0.92890367  0.32186798  0.75536214  1
  O2-  O177  1  0.92881117  0.81640813  0.09976017  1
  O2-  O178  1  0.92521919  0.82180784  0.42487968  1
  O2-  O179  1  0.92855235  0.82273243  0.75363950  1
  O2-  O180  1  0.32377511  0.06920189  0.24539305  1
  O2-  O181  1  0.31509211  0.06719916  0.56554906  1
  O2-  O182  1  0.32127124  0.07128096  0.90136713  1
  O2-  O183  1  0.32166178  0.57493610  0.23387111  1
  O2-  O184  1  0.31707410  0.57650903  0.57826418  1
  O2-  O185  1  0.32211551  0.57083350  0.90712528  1
  O2-  O186  1  0.82211657  0.06904312  0.24536280  1
  O2-  O187  1  0.82616046  0.06821392  0.57504644  1
  O2-  O188  1  0.81888722  0.07171980  0.90197715  1
  O2-  O189  1  0.81846882  0.57348963  0.23333324  1
  O2-  O190  1  0.82439107  0.57218674  0.58055188  1
  O2-  O191  1  0.81952639  0.56742816  0.90834203  1
  O2-  O192  1  0.03505561  0.08322220  0.26743467  1
  O2-  O193  1  0.04121394  0.08584387  0.60449112  1
  O2-  O194  1  0.04924670  0.07914217  0.92974508  1
  O2-  O195  1  0.03853071  0.58219362  0.27013713  1
  O2-  O196  1  0.03942426  0.58671446  0.60085732  1
  O2-  O197  1  0.03828985  0.58165939  0.92830745  1
  O2-  O198  1  0.54865340  0.07642234  0.26404882  1
  O2-  O199  1  0.54581532  0.08113453  0.59944741  1
  O2-  O200  1  0.54881049  0.08321634  0.94422433  1
  O2-  O201  1  0.55280212  0.58681175  0.27643648  1
  O2-  O202  1  0.55009275  0.58436063  0.60305575  1
  O2-  O203  1  0.54124423  0.58191095  0.92872416  1
  O2-  O204  1  0.16858822  0.20196206  0.26902513  1
  O2-  O205  1  0.16045891  0.20699973  0.60316910  1
  O2-  O206  1  0.16709195  0.21380528  0.92929201  1
  O2-  O207  1  0.16578697  0.71205770  0.26754036  1
  O2-  O208  1  0.16155352  0.70456679  0.60142298  1
  O2-  O209  1  0.17004027  0.70248051  0.92829819  1
  O2-  O210  1  0.67173907  0.20483723  0.26231257  1
  O2-  O211  1  0.67215030  0.20735121  0.60101637  1
  O2-  O212  1  0.66616712  0.20327883  0.94123227  1
  O2-  O213  1  0.66268424  0.71384212  0.27477314  1
  O2-  O214  1  0.66870108  0.70519400  0.60338774  1
  O2-  O215  1  0.66992256  0.70187911  0.93012756  1
  O2-  O216  1  0.08028992  0.45854167  0.06403153  1
  O2-  O217  1  0.08229845  0.45667188  0.40501636  1
  O2-  O218  1  0.08828754  0.46186859  0.73044762  1
  O2-  O219  1  0.08376287  0.94747704  0.05914488  1
  O2-  O220  1  0.08109850  0.95918670  0.40131970  1
  O2-  O221  1  0.08215133  0.95181500  0.72919700  1
  O2-  O222  1  0.58474150  0.45946642  0.06243321  1
  O2-  O223  1  0.58653649  0.45493078  0.39748610  1
  O2-  O224  1  0.58236776  0.45976143  0.73447380  1
  O2-  O225  1  0.58336126  0.95526759  0.07322446  1
  O2-  O226  1  0.58518167  0.95575004  0.39856760  1
  O2-  O227  1  0.58685325  0.95383140  0.72608928  1
  O2-  O228  1  0.21141573  0.33591676  0.06629147  1
  O2-  O229  1  0.20628633  0.32735503  0.40207495  1
  O2-  O230  1  0.20219601  0.33574034  0.72869430  1
  O2-  O231  1  0.20593654  0.83129522  0.05853490  1
  O2-  O232  1  0.20953698  0.83543438  0.40306387  1
  O2-  O233  1  0.19958697  0.83049489  0.72766937  1
  O2-  O234  1  0.70294212  0.33779272  0.06478485  1
  O2-  O235  1  0.70482759  0.33322391  0.39503765  1
  O2-  O236  1  0.71339281  0.33448390  0.73564446  1
  O2-  O237  1  0.70810275  0.82695255  0.06650838  1
  O2-  O238  1  0.70803221  0.84045840  0.40507601  1
  O2-  O239  1  0.71091364  0.83831024  0.72777475  1
  O2-  O240  1  0.45964674  0.42164612  0.26534686  1
  O2-  O241  1  0.45335693  0.42327545  0.60063700  1
  O2-  O242  1  0.45839863  0.41504596  0.93033952  1
  O2-  O243  1  0.45752622  0.91076935  0.27223782  1
  O2-  O244  1  0.46173676  0.91454432  0.59401729  1
  O2-  O245  1  0.46179418  0.92247410  0.93558652  1
  O2-  O246  1  0.95006859  0.41859002  0.27728667  1
  O2-  O247  1  0.95833091  0.41432811  0.60445032  1
  O2-  O248  1  0.95590709  0.41633836  0.92754019  1
  O2-  O249  1  0.94918083  0.91630508  0.27441857  1
  O2-  O250  1  0.95637459  0.91322921  0.60015449  1
  O2-  O251  1  0.95447354  0.91858412  0.93051932  1
  O2-  O252  1  0.33054539  0.29510794  0.26548047  1
  O2-  O253  1  0.32778413  0.29300477  0.59768047  1
  O2-  O254  1  0.33319347  0.28725907  0.93226286  1
  O2-  O255  1  0.33580188  0.79357638  0.27310218  1
  O2-  O256  1  0.33154978  0.78934365  0.59905383  1
  O2-  O257  1  0.33354321  0.79788665  0.92718649  1
  O2-  O258  1  0.83553880  0.29730434  0.27287995  1
  O2-  O259  1  0.83858104  0.29479949  0.60173098  1
  O2-  O260  1  0.82714585  0.29357594  0.93348881  1
  O2-  O261  1  0.83062009  0.79656436  0.27550837  1
  O2-  O262  1  0.83718546  0.79393780  0.60087493  1
  O2-  O263  1  0.83325729  0.78928003  0.92980956  1
  O2-  O264  1  0.41572693  0.04272243  0.07234958  1
  O2-  O265  1  0.41710031  0.04245872  0.39598579  1
  O2-  O266  1  0.41706288  0.03812407  0.73052118  1
  O2-  O267  1  0.41569044  0.54541301  0.05870866  1
  O2-  O268  1  0.42244795  0.54876862  0.40167639  1
  O2-  O269  1  0.41525328  0.55314754  0.72764208  1
  O2-  O270  1  0.92375113  0.04462074  0.06587096  1
  O2-  O271  1  0.90942569  0.04084804  0.40114388  1
  O2-  O272  1  0.91299465  0.03862292  0.72881687  1
  O2-  O273  1  0.91146861  0.53927873  0.06042799  1
  O2-  O274  1  0.91502370  0.54239845  0.40563804  1
  O2-  O275  1  0.91715534  0.54495364  0.73136397  1
  O2-  O276  1  0.28579333  0.16600370  0.06958832  1
  O2-  O277  1  0.29921644  0.16530808  0.39574902  1
  O2-  O278  1  0.28671262  0.16570126  0.73215747  1
  O2-  O279  1  0.30197746  0.66971943  0.05506357  1
  O2-  O280  1  0.28933722  0.66814720  0.40330113  1
  O2-  O281  1  0.28673585  0.66268638  0.73171748  1
  O2-  O282  1  0.79474488  0.16991662  0.07133238  1
  O2-  O283  1  0.79450866  0.16444187  0.39668636  1
  O2-  O284  1  0.80163940  0.16497542  0.72564904  1
  O2-  O285  1  0.79408000  0.66090621  0.06069040  1
  O2-  O286  1  0.78817546  0.66695646  0.40495420  1
  O2-  O287  1  0.80090481  0.66825996  0.72999972  1
