# generated using pymatgen
data_Ca2Al2SiO7
_symmetry_space_group_name_H-M   'P 1'
_cell_length_a   15.46014685
_cell_length_b   15.45998683
_cell_length_c   15.28461101
_cell_angle_alpha   89.98145460
_cell_angle_beta   90.01709942
_cell_angle_gamma   89.99954032
_symmetry_Int_Tables_number   1
_chemical_formula_structural   Ca2Al2SiO7
_chemical_formula_sum   'Ca48 Al48 Si24 O168'
_cell_volume   3653.23056915
_cell_formula_units_Z   24
loop_
 _symmetry_equiv_pos_site_id
 _symmetry_equiv_pos_as_xyz
  1  'x, y, z'
loop_
 _atom_type_symbol
 _atom_type_oxidation_number
  Ca2+  2.0
  Al0+  0.0
  Si0+  0.0
  O2-  -2.0
loop_
 _atom_site_type_symbol
 _atom_site_label
 _atom_site_symmetry_multiplicity
 _atom_site_fract_x
 _atom_site_fract_y
 _atom_site_fract_z
 _atom_site_occupancy
  Ca2+  Ca0  1  0.16988809  0.08360284  0.17957137  1
  Ca2+  Ca1  1  0.16640705  0.08400988  0.49890046  1
  Ca2+  Ca2  1  0.16692393  0.08538449  0.84047957  1
  Ca2+  Ca3  1  0.17235631  0.58160527  0.17000412  1
  Ca2+  Ca4  1  0.17088020  0.59059601  0.50153400  1
  Ca2+  Ca5  1  0.16975833  0.57705741  0.84413504  1
  Ca2+  Ca6  1  0.66490793  0.07809719  0.17678864  1
  Ca2+  Ca7  1  0.66873485  0.08068509  0.50691763  1
  Ca2+  Ca8  1  0.66313205  0.08231283  0.83515201  1
  Ca2+  Ca9  1  0.67420495  0.57356479  0.17908461  1
  Ca2+  Ca10  1  0.66995167  0.57929296  0.50197284  1
  Ca2+  Ca11  1  0.66611571  0.58435674  0.83695380  1
  Ca2+  Ca12  1  0.08770959  0.32344765  0.16232704  1
  Ca2+  Ca13  1  0.07299332  0.32769194  0.49478229  1
  Ca2+  Ca14  1  0.08128330  0.33165821  0.83122141  1
  Ca2+  Ca15  1  0.08929941  0.82390537  0.16506958  1
  Ca2+  Ca16  1  0.08644895  0.82567611  0.49076987  1
  Ca2+  Ca17  1  0.08610396  0.81848618  0.82818333  1
  Ca2+  Ca18  1  0.58154208  0.32340136  0.16285303  1
  Ca2+  Ca19  1  0.58358484  0.32274778  0.49407772  1
  Ca2+  Ca20  1  0.57212836  0.32652691  0.82544880  1
  Ca2+  Ca21  1  0.58621257  0.83714985  0.16391297  1
  Ca2+  Ca22  1  0.59305717  0.83234311  0.49784998  1
  Ca2+  Ca23  1  0.58807055  0.83135229  0.82817782  1
  Ca2+  Ca24  1  0.33354865  0.42292590  0.16724247  1
  Ca2+  Ca25  1  0.33470329  0.41869021  0.50238193  1
  Ca2+  Ca26  1  0.33294214  0.41858192  0.84316519  1
  Ca2+  Ca27  1  0.32652121  0.92582300  0.17691636  1
  Ca2+  Ca28  1  0.32912637  0.92269867  0.49419430  1
  Ca2+  Ca29  1  0.33373821  0.91956218  0.83563435  1
  Ca2+  Ca30  1  0.82755584  0.42101043  0.17503553  1
  Ca2+  Ca31  1  0.83083749  0.41494941  0.49970088  1
  Ca2+  Ca32  1  0.83519023  0.41353165  0.83238164  1
  Ca2+  Ca33  1  0.82225884  0.92223368  0.17453171  1
  Ca2+  Ca34  1  0.82657950  0.93011117  0.50441407  1
  Ca2+  Ca35  1  0.82168098  0.92122375  0.83510015  1
  Ca2+  Ca36  1  0.42595125  0.16664327  0.16078832  1
  Ca2+  Ca37  1  0.42615867  0.16591667  0.49389160  1
  Ca2+  Ca38  1  0.42455626  0.17777696  0.82929475  1
  Ca2+  Ca39  1  0.41088005  0.66556274  0.16482104  1
  Ca2+  Ca40  1  0.42171073  0.66662090  0.49584577  1
  Ca2+  Ca41  1  0.42076685  0.66679199  0.82816892  1
  Ca2+  Ca42  1  0.92655112  0.15671225  0.16763891  1
  Ca2+  Ca43  1  0.91115970  0.16681069  0.49390629  1
  Ca2+  Ca44  1  0.91943820  0.17016102  0.82819626  1
  Ca2+  Ca45  1  0.92575870  0.66313868  0.16511497  1
  Ca2+  Ca46  1  0.92712767  0.66525574  0.49062740  1
  Ca2+  Ca47  1  0.92902437  0.66519101  0.82755291  1
  Al0+  Al48  1  -0.00244891  -0.00167081  -0.00602749  1
  Al0+  Al49  1  -0.00226764  -0.00254170  0.33651118  1
  Al0+  Al50  1  0.00012071  -0.00197131  0.67446186  1
  Al0+  Al51  1  0.00148476  0.49929848  0.00056569  1
  Al0+  Al52  1  0.00086976  0.49969926  0.33046841  1
  Al0+  Al53  1  0.00147345  0.49812830  0.65837560  1
  Al0+  Al54  1  0.49953612  -0.00185060  -0.00091046  1
  Al0+  Al55  1  0.49744708  -0.00131365  0.33654705  1
  Al0+  Al56  1  0.49680059  -0.00052716  0.66837407  1
  Al0+  Al57  1  0.50077108  0.50111667  0.00175363  1
  Al0+  Al58  1  0.49936603  0.50042443  0.34036323  1
  Al0+  Al59  1  0.49977386  0.50266078  0.66054379  1
  Al0+  Al60  1  0.24997661  0.25070350  -0.00340050  1
  Al0+  Al61  1  0.25024323  0.25268426  0.33480635  1
  Al0+  Al62  1  0.24878487  0.25151562  0.66475268  1
  Al0+  Al63  1  0.25093559  0.75018681  -0.00275815  1
  Al0+  Al64  1  0.25118897  0.74966388  0.33614786  1
  Al0+  Al65  1  0.25219456  0.74952937  0.66419679  1
  Al0+  Al66  1  0.75264209  0.24859151  -0.00235906  1
  Al0+  Al67  1  0.74776939  0.25074507  0.33297743  1
  Al0+  Al68  1  0.75042807  0.25155526  0.66556658  1
  Al0+  Al69  1  0.75058793  0.75214367  0.00444585  1
  Al0+  Al70  1  0.75196398  0.74865499  0.33809913  1
  Al0+  Al71  1  0.75228995  0.75056655  0.66739182  1
  Al0+  Al72  1  0.57257003  0.17653418  0.98486840  1
  Al0+  Al73  1  0.67858683  0.93055749  0.01542168  1
  Al0+  Al74  1  0.82042817  0.07132324  0.34696253  1
  Al0+  Al75  1  0.82128311  0.07463249  0.68553714  1
  Al0+  Al76  1  0.06990694  0.17837298  0.32209327  1
  Al0+  Al77  1  0.07107961  0.67966212  0.98593136  1
  Al0+  Al78  1  0.57296779  0.68130826  0.65324442  1
  Al0+  Al79  1  0.07279594  0.67935162  0.31678083  1
  Al0+  Al80  1  0.07101216  0.17763212  0.98723172  1
  Al0+  Al81  1  0.82375015  0.57007205  0.34886312  1
  Al0+  Al82  1  0.67827075  0.42860688  0.34922743  1
  Al0+  Al83  1  0.67653652  0.92865082  0.34904341  1
  Al0+  Al84  1  0.92981544  0.31939153  0.65263674  1
  Al0+  Al85  1  0.32042637  0.07468323  0.34757427  1
  Al0+  Al86  1  0.43053267  0.32303290  0.98635030  1
  Al0+  Al87  1  0.56914461  0.17878350  0.65081646  1
  Al0+  Al88  1  0.17798742  0.42719855  0.01569185  1
  Al0+  Al89  1  0.17799516  0.92943528  0.34656133  1
  Al0+  Al90  1  0.32239280  0.57221552  0.01424759  1
  Al0+  Al91  1  0.42650366  0.32276053  0.64954653  1
  Al0+  Al92  1  0.07127686  0.67951158  0.65143462  1
  Al0+  Al93  1  0.56930538  0.17803415  0.31905357  1
  Al0+  Al94  1  0.31906104  0.57073328  0.34917599  1
  Al0+  Al95  1  0.67780331  0.92904481  0.68396768  1
  Si0+  Si96  1  0.67938665  0.42832460  0.01208857  1
  Si0+  Si97  1  0.31859809  0.07260101  0.68355905  1
  Si0+  Si98  1  0.82128046  0.57147002  0.01298392  1
  Si0+  Si99  1  0.92554003  0.82048617  0.98127999  1
  Si0+  Si100  1  0.17838259  0.43005040  0.68079866  1
  Si0+  Si101  1  0.92823871  0.32316950  0.98408894  1
  Si0+  Si102  1  0.92698203  0.32152307  0.31464364  1
  Si0+  Si103  1  0.18019840  0.92686111  0.68363951  1
  Si0+  Si104  1  0.42986046  0.81910540  0.31786267  1
  Si0+  Si105  1  0.42793020  0.32481576  0.31582954  1
  Si0+  Si106  1  0.32140081  0.57116266  0.68234994  1
  Si0+  Si107  1  0.57288022  0.68005870  0.98904954  1
  Si0+  Si108  1  0.17754531  0.92859983  0.01197633  1
  Si0+  Si109  1  0.92688014  0.82071674  0.31562660  1
  Si0+  Si110  1  0.82331344  0.07285125  0.01730403  1
  Si0+  Si111  1  0.42877750  0.82057891  0.98559469  1
  Si0+  Si112  1  0.67807609  0.43153987  0.68277860  1
  Si0+  Si113  1  0.31907995  0.07016903  0.01253106  1
  Si0+  Si114  1  0.42699966  0.82224668  0.64820969  1
  Si0+  Si115  1  0.57234838  0.67846949  0.31843069  1
  Si0+  Si116  1  0.92961320  0.82218398  0.64990172  1
  Si0+  Si117  1  0.82338728  0.56987809  0.68169870  1
  Si0+  Si118  1  0.07161667  0.17519649  0.65133508  1
  Si0+  Si119  1  0.17724753  0.42718824  0.35196860  1
  O2-  O120  1  0.24310004  0.00403705  0.05453321  1
  O2-  O121  1  0.24358823  0.00703593  0.39736320  1
  O2-  O122  1  0.24666246  0.00192968  0.72653941  1
  O2-  O123  1  0.25041907  0.50008532  0.06389266  1
  O2-  O124  1  0.24429710  0.49709197  0.39699622  1
  O2-  O125  1  0.25174474  0.49882481  0.72364992  1
  O2-  O126  1  0.74975273  0.00889499  0.06031635  1
  O2-  O127  1  0.74514710  0.00366098  0.39784264  1
  O2-  O128  1  0.74629363  0.00440806  0.73456777  1
  O2-  O129  1  0.75118494  0.49911689  0.05383160  1
  O2-  O130  1  0.75160059  0.49933342  0.39987271  1
  O2-  O131  1  0.74958321  0.50257407  0.72625174  1
  O2-  O132  1  -0.00509365  0.25125792  0.27189528  1
  O2-  O133  1  -0.00168707  0.23839377  0.60751508  1
  O2-  O134  1  -0.00276578  0.25366253  0.94159997  1
  O2-  O135  1  -0.00327886  0.75308508  0.27028993  1
  O2-  O136  1  -0.00115085  0.75529399  0.60408607  1
  O2-  O137  1  -0.00374382  0.75328747  0.93731422  1
  O2-  O138  1  0.49358023  0.25269427  0.27255578  1
  O2-  O139  1  0.49746836  0.25051348  0.59970532  1
  O2-  O140  1  0.50335798  0.25200756  0.93620621  1
  O2-  O141  1  0.50372386  0.75105267  0.27479195  1
  O2-  O142  1  0.50187444  0.75929859  0.60619333  1
  O2-  O143  1  0.50034898  0.74893375  0.94582678  1
  O2-  O144  1  0.07040941  0.17498042  0.10012483  1
  O2-  O145  1  0.06888727  0.18138400  0.43515709  1
  O2-  O146  1  0.07399039  0.17881436  0.75722379  1
  O2-  O147  1  0.07107237  0.68190332  0.09857483  1
  O2-  O148  1  0.07281214  0.68248157  0.42997898  1
  O2-  O149  1  0.07133439  0.67888704  0.76498648  1
  O2-  O150  1  0.57020098  0.17593389  0.09849526  1
  O2-  O151  1  0.56854918  0.17817320  0.43174865  1
  O2-  O152  1  0.56662747  0.18106816  0.76467840  1
  O2-  O153  1  0.57464503  0.68096646  0.09392609  1
  O2-  O154  1  0.57078692  0.67927841  0.42346388  1
  O2-  O155  1  0.56962856  0.67902395  0.76737119  1
  O2-  O156  1  0.17852143  0.42614837  0.24651572  1
  O2-  O157  1  0.17799405  0.43139166  0.57596026  1
  O2-  O158  1  0.17643360  0.43019273  0.90138745  1
  O2-  O159  1  0.18226360  0.92820969  0.23232060  1
  O2-  O160  1  0.18127544  0.92524846  0.57905753  1
  O2-  O161  1  0.18211068  0.92729702  0.90648019  1
  O2-  O162  1  0.67903886  0.43090650  0.23447440  1
  O2-  O163  1  0.67893456  0.43321783  0.57827466  1
  O2-  O164  1  0.67924728  0.43137604  0.90674002  1
  O2-  O165  1  0.67778445  0.92889988  0.23494789  1
  O2-  O166  1  0.68134686  0.92788514  0.57116221  1
  O2-  O167  1  0.68030733  0.92558328  0.90293017  1
  O2-  O168  1  0.43300050  0.32285938  0.09976352  1
  O2-  O169  1  0.42984586  0.32519495  0.42134870  1
  O2-  O170  1  0.42718050  0.32286273  0.76339249  1
  O2-  O171  1  0.42664894  0.82236738  0.09038747  1
  O2-  O172  1  0.42794594  0.81682151  0.42280163  1
  O2-  O173  1  0.42180339  0.81860867  0.75430532  1
  O2-  O174  1  0.92539498  0.32519524  0.08913256  1
  O2-  O175  1  0.92911825  0.32265900  0.42033316  1
  O2-  O176  1  0.93519992  0.32377605  0.76593402  1
  O2-  O177  1  0.92436057  0.81935176  0.08657534  1
  O2-  O178  1  0.92782263  0.81890767  0.42111273  1
  O2-  O179  1  0.93163065  0.81809502  0.75594994  1
  O2-  O180  1  0.32098596  0.07116214  0.23321183  1
  O2-  O181  1  0.31685621  0.07190522  0.57887483  1
  O2-  O182  1  0.31877683  0.06654805  0.90702190  1
  O2-  O183  1  0.31921601  0.57090619  0.23622081  1
  O2-  O184  1  0.31955166  0.57341627  0.57745586  1
  O2-  O185  1  0.32219442  0.57383750  0.90019231  1
  O2-  O186  1  0.82186138  0.06771139  0.23300945  1
  O2-  O187  1  0.82305381  0.07205793  0.57247749  1
  O2-  O188  1  0.82543609  0.07130931  0.91203631  1
  O2-  O189  1  0.82128908  0.56869974  0.23416784  1
  O2-  O190  1  0.82356735  0.56813002  0.57729775  1
  O2-  O191  1  0.82018157  0.57261915  0.90743131  1
  O2-  O192  1  0.04185164  0.07981145  0.26944804  1
  O2-  O193  1  0.05344106  0.07778954  0.61121593  1
  O2-  O194  1  0.04134120  0.08125569  0.93047083  1
  O2-  O195  1  0.04323314  0.58180087  0.26386772  1
  O2-  O196  1  0.04036437  0.58446422  0.59641360  1
  O2-  O197  1  0.03984268  0.58267902  0.93278405  1
  O2-  O198  1  0.53653800  0.08052687  0.26694762  1
  O2-  O199  1  0.53923997  0.07928732  0.60135775  1
  O2-  O200  1  0.53936564  0.07923613  0.93204463  1
  O2-  O201  1  0.54168938  0.58672761  0.27249253  1
  O2-  O202  1  0.53900105  0.58768624  0.59662828  1
  O2-  O203  1  0.54791249  0.58819730  0.94046767  1
  O2-  O204  1  0.16735656  0.21002451  0.26886916  1
  O2-  O205  1  0.16299377  0.20547675  0.60424481  1
  O2-  O206  1  0.16710685  0.20643273  0.93116485  1
  O2-  O207  1  0.16931880  0.71368454  0.26459864  1
  O2-  O208  1  0.16847838  0.71129925  0.59970667  1
  O2-  O209  1  0.16687272  0.71260457  0.93050533  1
  O2-  O210  1  0.66567403  0.20967870  0.26447062  1
  O2-  O211  1  0.66829651  0.20762016  0.60144133  1
  O2-  O212  1  0.67300330  0.20104579  0.93459440  1
  O2-  O213  1  0.66568807  0.70310525  0.27212364  1
  O2-  O214  1  0.67153287  0.70649024  0.60081717  1
  O2-  O215  1  0.66392542  0.70940341  0.94027575  1
  O2-  O216  1  0.07951062  0.45507590  0.06901182  1
  O2-  O217  1  0.08269145  0.45149357  0.39559990  1
  O2-  O218  1  0.08731391  0.46107842  0.72799052  1
  O2-  O219  1  0.08245259  0.94887748  0.05496611  1
  O2-  O220  1  0.07879559  0.94918462  0.39999167  1
  O2-  O221  1  0.08773046  0.94774302  0.73296572  1
  O2-  O222  1  0.58953747  0.45729485  0.06155635  1
  O2-  O223  1  0.58235774  0.45940715  0.40431005  1
  O2-  O224  1  0.58617754  0.46259913  0.72901389  1
  O2-  O225  1  0.57930320  0.95539374  0.06731271  1
  O2-  O226  1  0.57662486  0.94980083  0.40042764  1
  O2-  O227  1  0.57552604  0.95052499  0.73375057  1
  O2-  O228  1  0.20641955  0.32813710  0.06747884  1
  O2-  O229  1  0.20338963  0.33527688  0.40085722  1
  O2-  O230  1  0.20250773  0.33687249  0.72804867  1
  O2-  O231  1  0.21064810  0.83895637  0.05973825  1
  O2-  O232  1  0.21575425  0.83528480  0.40184756  1
  O2-  O233  1  0.21510092  0.83671643  0.73177306  1
  O2-  O234  1  0.70745683  0.33623628  0.05874694  1
  O2-  O235  1  0.70629612  0.33097763  0.40205004  1
  O2-  O236  1  0.70660704  0.34045743  0.73056307  1
  O2-  O237  1  0.71191670  0.83461491  0.07091558  1
  O2-  O238  1  0.70696746  0.83045708  0.40022868  1
  O2-  O239  1  0.71059625  0.83017043  0.73691973  1
  O2-  O240  1  0.45738594  0.41817754  0.27084375  1
  O2-  O241  1  0.45341601  0.42174451  0.59823568  1
  O2-  O242  1  0.45850327  0.42237200  0.93309595  1
  O2-  O243  1  0.45340899  0.91168646  0.26996932  1
  O2-  O244  1  0.44403275  0.91820364  0.60532332  1
  O2-  O245  1  0.45674488  0.91072058  0.93485252  1
  O2-  O246  1  0.95429485  0.41448386  0.26777472  1
  O2-  O247  1  0.96563512  0.41202887  0.59420006  1
  O2-  O248  1  0.95374375  0.41623968  0.93613028  1
  O2-  O249  1  0.95070502  0.91442026  0.26929175  1
  O2-  O250  1  0.95522320  0.91695582  0.60711891  1
  O2-  O251  1  0.94885785  0.91373655  0.93372928  1
  O2-  O252  1  0.33236690  0.30419991  0.27222275  1
  O2-  O253  1  0.32688614  0.29635517  0.59814442  1
  O2-  O254  1  0.33248892  0.29468402  0.93266069  1
  O2-  O255  1  0.33989477  0.78734684  0.26898648  1
  O2-  O256  1  0.33731753  0.78921921  0.59890652  1
  O2-  O257  1  0.33854817  0.79335518  0.93404243  1
  O2-  O258  1  0.83264786  0.29944334  0.26916832  1
  O2-  O259  1  0.83151074  0.29700145  0.59941206  1
  O2-  O260  1  0.83566093  0.29785216  0.93487209  1
  O2-  O261  1  0.83391032  0.79209338  0.26849440  1
  O2-  O262  1  0.83655651  0.79654352  0.60465098  1
  O2-  O263  1  0.83325692  0.79044363  0.93431275  1
  O2-  O264  1  0.40866940  0.03635175  0.06017873  1
  O2-  O265  1  0.41384363  0.03699344  0.40354021  1
  O2-  O266  1  0.40871855  0.04266506  0.73291119  1
  O2-  O267  1  0.42169688  0.54700491  0.06812692  1
  O2-  O268  1  0.41534704  0.54218854  0.40431236  1
  O2-  O269  1  0.41461261  0.54560733  0.72831582  1
  O2-  O270  1  0.91571904  0.04018833  0.06295081  1
  O2-  O271  1  0.91680809  0.04072427  0.40270105  1
  O2-  O272  1  0.92002664  0.04367698  0.73938798  1
  O2-  O273  1  0.91283555  0.54426024  0.06037567  1
  O2-  O274  1  0.92265625  0.54211331  0.40028824  1
  O2-  O275  1  0.91467330  0.53678579  0.72819975  1
  O2-  O276  1  0.29685895  0.16332321  0.05796227  1
  O2-  O277  1  0.29760394  0.17382933  0.40058088  1
  O2-  O278  1  0.29004695  0.16463910  0.73088460  1
  O2-  O279  1  0.29326003  0.67152701  0.06581721  1
  O2-  O280  1  0.28847940  0.66632405  0.40457902  1
  O2-  O281  1  0.29314600  0.66334455  0.72954588  1
  O2-  O282  1  0.80589071  0.16895457  0.06134690  1
  O2-  O283  1  0.79751575  0.17170136  0.39610421  1
  O2-  O284  1  0.79647751  0.17511762  0.73690691  1
  O2-  O285  1  0.79266113  0.66185610  0.06208227  1
  O2-  O286  1  0.79668679  0.66762070  0.40250277  1
  O2-  O287  1  0.79949587  0.66256198  0.72949171  1
