# generated using pymatgen
data_Ca2Al2SiO7
_symmetry_space_group_name_H-M   'P 1'
_cell_length_a   15.46559243
_cell_length_b   15.46308372
_cell_length_c   15.28774382
_cell_angle_alpha   89.99924798
_cell_angle_beta   89.99389427
_cell_angle_gamma   90.00500208
_symmetry_Int_Tables_number   1
_chemical_formula_structural   Ca2Al2SiO7
_chemical_formula_sum   'Ca48 Al48 Si24 O168'
_cell_volume   3655.99893346
_cell_formula_units_Z   24
loop_
 _symmetry_equiv_pos_site_id
 _symmetry_equiv_pos_as_xyz
  1  'x, y, z'
loop_
 _atom_type_symbol
 _atom_type_oxidation_number
  Ca2+  2.0
  Al0+  0.0
  Si0+  0.0
  O2-  -2.0
loop_
 _atom_site_type_symbol
 _atom_site_label
 _atom_site_symmetry_multiplicity
 _atom_site_fract_x
 _atom_site_fract_y
 _atom_site_fract_z
 _atom_site_occupancy
  Ca2+  Ca0  1  0.16617734  0.08403872  0.16687119  1
  Ca2+  Ca1  1  0.17252441  0.08470992  0.50161465  1
  Ca2+  Ca2  1  0.16275243  0.07819228  0.84305159  1
  Ca2+  Ca3  1  0.16553780  0.57471203  0.16687666  1
  Ca2+  Ca4  1  0.17035505  0.57846590  0.51387862  1
  Ca2+  Ca5  1  0.16772950  0.57509621  0.83372272  1
  Ca2+  Ca6  1  0.66981572  0.07592966  0.17253336  1
  Ca2+  Ca7  1  0.67754243  0.07949341  0.51195193  1
  Ca2+  Ca8  1  0.66604831  0.07626229  0.83161508  1
  Ca2+  Ca9  1  0.67302074  0.58602596  0.16888987  1
  Ca2+  Ca10  1  0.67379304  0.58032672  0.50509740  1
  Ca2+  Ca11  1  0.67639103  0.58220046  0.83647132  1
  Ca2+  Ca12  1  0.07438677  0.32908602  0.15717758  1
  Ca2+  Ca13  1  0.07679459  0.33655217  0.49786294  1
  Ca2+  Ca14  1  0.08402056  0.33482132  0.83487783  1
  Ca2+  Ca15  1  0.07641046  0.83622642  0.16251437  1
  Ca2+  Ca16  1  0.07111297  0.82433041  0.49914357  1
  Ca2+  Ca17  1  0.07754298  0.82760915  0.82172817  1
  Ca2+  Ca18  1  0.57517438  0.33088286  0.15763710  1
  Ca2+  Ca19  1  0.58493777  0.33438795  0.50331503  1
  Ca2+  Ca20  1  0.57439710  0.33435725  0.82157549  1
  Ca2+  Ca21  1  0.59159150  0.82245829  0.16096105  1
  Ca2+  Ca22  1  0.58924442  0.82774435  0.49702316  1
  Ca2+  Ca23  1  0.59297123  0.83114007  0.83163910  1
  Ca2+  Ca24  1  0.32658198  0.40709462  0.16542383  1
  Ca2+  Ca25  1  0.32699700  0.42203877  0.51335654  1
  Ca2+  Ca26  1  0.32743566  0.41204333  0.83406752  1
  Ca2+  Ca27  1  0.32398739  0.92155975  0.17100981  1
  Ca2+  Ca28  1  0.33498299  0.92246804  0.50296625  1
  Ca2+  Ca29  1  0.32449143  0.91792780  0.84093348  1
  Ca2+  Ca30  1  0.84432454  0.42690844  0.17034665  1
  Ca2+  Ca31  1  0.83176221  0.42673810  0.50853619  1
  Ca2+  Ca32  1  0.83707287  0.42860891  0.83800056  1
  Ca2+  Ca33  1  0.83104146  0.92183561  0.17206076  1
  Ca2+  Ca34  1  0.83543078  0.92330847  0.50790715  1
  Ca2+  Ca35  1  0.82719841  0.91802295  0.83277228  1
  Ca2+  Ca36  1  0.41467529  0.16873272  0.16039556  1
  Ca2+  Ca37  1  0.42279724  0.16867257  0.50026542  1
  Ca2+  Ca38  1  0.42156740  0.17883259  0.82538447  1
  Ca2+  Ca39  1  0.43292616  0.66451162  0.16011001  1
  Ca2+  Ca40  1  0.42275091  0.66317195  0.49636380  1
  Ca2+  Ca41  1  0.42172095  0.66367534  0.82797372  1
  Ca2+  Ca42  1  0.91514787  0.17847108  0.16081724  1
  Ca2+  Ca43  1  0.90888496  0.17227399  0.49296383  1
  Ca2+  Ca44  1  0.91984615  0.16835475  0.83006895  1
  Ca2+  Ca45  1  0.90720558  0.67096349  0.16447137  1
  Ca2+  Ca46  1  0.90582538  0.67499585  0.49850498  1
  Ca2+  Ca47  1  0.91768347  0.66864503  0.82448712  1
  Al0+  Al48  1  -0.00105866  0.00054910  0.00198697  1
  Al0+  Al49  1  0.00067882  -0.00146209  0.33360775  1
  Al0+  Al50  1  0.00058634  0.00015625  0.66474281  1
  Al0+  Al51  1  0.00190474  0.50186874  0.00608098  1
  Al0+  Al52  1  0.00004267  0.50070764  0.33523771  1
  Al0+  Al53  1  0.00309034  0.49845715  0.67060626  1
  Al0+  Al54  1  0.49970153  -0.00211668  0.00543081  1
  Al0+  Al55  1  0.49736660  -0.00052984  0.33616117  1
  Al0+  Al56  1  0.50065841  0.00073089  0.66665740  1
  Al0+  Al57  1  0.50238999  0.50126981  -0.00897699  1
  Al0+  Al58  1  0.49895086  0.49876410  0.32758748  1
  Al0+  Al59  1  0.49869900  0.50151355  0.66733512  1
  Al0+  Al60  1  0.24958779  0.25008012  -0.00326368  1
  Al0+  Al61  1  0.24943605  0.24858084  0.33881946  1
  Al0+  Al62  1  0.25076568  0.25065347  0.66479142  1
  Al0+  Al63  1  0.25078511  0.75033063  0.00754357  1
  Al0+  Al64  1  0.24984360  0.74905585  0.33282621  1
  Al0+  Al65  1  0.25058529  0.75017797  0.66468271  1
  Al0+  Al66  1  0.74916542  0.25205197  -0.00566807  1
  Al0+  Al67  1  0.74749655  0.24998076  0.32953597  1
  Al0+  Al68  1  0.75011599  0.24881847  0.67079259  1
  Al0+  Al69  1  0.75020024  0.75044743  0.00269455  1
  Al0+  Al70  1  0.74987823  0.74855462  0.32793222  1
  Al0+  Al71  1  0.74969210  0.75158264  0.66810115  1
  Al0+  Al72  1  0.82045204  0.07200480  0.34480561  1
  Al0+  Al73  1  0.31994643  0.07067281  0.34856107  1
  Al0+  Al74  1  0.82133063  0.57111887  0.68131447  1
  Al0+  Al75  1  0.17914034  0.42671358  0.68299057  1
  Al0+  Al76  1  0.56920133  0.67940592  0.31955844  1
  Al0+  Al77  1  0.82075960  0.56949717  0.01525594  1
  Al0+  Al78  1  0.07184513  0.67687631  0.65305569  1
  Al0+  Al79  1  0.67843708  0.42856089  0.68083840  1
  Al0+  Al80  1  0.81989098  0.57014568  0.34747276  1
  Al0+  Al81  1  0.06873452  0.17878758  0.98555315  1
  Al0+  Al82  1  0.57237924  0.68163313  0.98282063  1
  Al0+  Al83  1  0.82464687  0.07249807  0.68282324  1
  Al0+  Al84  1  0.18197587  0.42906563  0.01582445  1
  Al0+  Al85  1  0.17641179  0.92734284  0.01363412  1
  Al0+  Al86  1  0.67805895  0.92939921  0.68060624  1
  Al0+  Al87  1  0.57234121  0.17825000  0.65077074  1
  Al0+  Al88  1  0.67972618  0.93043863  0.01574211  1
  Al0+  Al89  1  0.93023558  0.82045014  0.31764465  1
  Al0+  Al90  1  0.92854753  0.32481041  0.98334296  1
  Al0+  Al91  1  0.42914498  0.32233225  0.64834095  1
  Al0+  Al92  1  0.92763758  0.32170920  0.32151762  1
  Al0+  Al93  1  0.32141206  0.57399029  0.68134066  1
  Al0+  Al94  1  0.92766442  0.82033023  0.65193071  1
  Al0+  Al95  1  0.42969572  0.31978320  0.98589980  1
  Si0+  Si96  1  0.67636564  0.42778397  0.01599302  1
  Si0+  Si97  1  0.32497794  0.57229271  0.01829036  1
  Si0+  Si98  1  0.56988456  0.17685729  0.31748276  1
  Si0+  Si99  1  0.67880674  0.92783346  0.34893471  1
  Si0+  Si100  1  0.32137656  0.07086682  0.68224548  1
  Si0+  Si101  1  0.07436441  0.67736829  0.31496159  1
  Si0+  Si102  1  0.67408539  0.42746855  0.34738198  1
  Si0+  Si103  1  0.07316693  0.17918161  0.31849196  1
  Si0+  Si104  1  0.07200495  0.17724071  0.65053159  1
  Si0+  Si105  1  0.32251918  0.56962521  0.34577329  1
  Si0+  Si106  1  0.92984584  0.82075015  0.98579828  1
  Si0+  Si107  1  0.42783077  0.31872183  0.31825668  1
  Si0+  Si108  1  0.42737556  0.82249177  0.65201773  1
  Si0+  Si109  1  0.17732761  0.92543934  0.35305585  1
  Si0+  Si110  1  0.82188426  0.07433456  0.01705866  1
  Si0+  Si111  1  0.07351900  0.68024147  0.98741678  1
  Si0+  Si112  1  0.42592953  0.82370512  0.31543974  1
  Si0+  Si113  1  0.42690948  0.82181803  0.98452728  1
  Si0+  Si114  1  0.17963096  0.42967908  0.34862186  1
  Si0+  Si115  1  0.92969364  0.32035092  0.65304087  1
  Si0+  Si116  1  0.18057747  0.93054115  0.67942686  1
  Si0+  Si117  1  0.57066862  0.68037765  0.65154106  1
  Si0+  Si118  1  0.32026807  0.07102405  0.01501819  1
  Si0+  Si119  1  0.57221045  0.17432017  0.98416698  1
  O2-  O120  1  0.25091591  0.00296249  0.05950083  1
  O2-  O121  1  0.24694644  -0.00570453  0.39595020  1
  O2-  O122  1  0.24931945  0.00179897  0.72479758  1
  O2-  O123  1  0.25861293  0.50182172  0.06393800  1
  O2-  O124  1  0.24881453  0.50289503  0.38921058  1
  O2-  O125  1  0.25138804  0.50008193  0.73059070  1
  O2-  O126  1  0.75055109  0.00867756  0.06210870  1
  O2-  O127  1  0.74668598  -0.00307894  0.39256083  1
  O2-  O128  1  0.75087749  0.00088450  0.73020738  1
  O2-  O129  1  0.74894728  0.49108305  0.06191627  1
  O2-  O130  1  0.74665188  0.49249279  0.39061438  1
  O2-  O131  1  0.75148395  0.49803887  0.73254768  1
  O2-  O132  1  0.00026770  0.24377630  0.27580376  1
  O2-  O133  1  -0.00079045  0.24725523  0.60994234  1
  O2-  O134  1  -0.00252561  0.24971942  0.93332750  1
  O2-  O135  1  0.00558009  0.74583992  0.27040566  1
  O2-  O136  1  -0.00469005  0.74351991  0.60216683  1
  O2-  O137  1  0.00433092  0.75278780  0.94537773  1
  O2-  O138  1  0.49847784  0.24779012  0.27527571  1
  O2-  O139  1  0.50335234  0.25245448  0.59822643  1
  O2-  O140  1  0.50645147  0.24629385  0.94145209  1
  O2-  O141  1  0.49507867  0.75543851  0.27221140  1
  O2-  O142  1  0.49895828  0.75181020  0.61019331  1
  O2-  O143  1  0.49529820  0.75509280  0.93760081  1
  O2-  O144  1  0.06865294  0.17941041  0.09968029  1
  O2-  O145  1  0.07693870  0.18253498  0.42417420  1
  O2-  O146  1  0.07337112  0.17444861  0.75520441  1
  O2-  O147  1  0.07340048  0.68113409  0.09287745  1
  O2-  O148  1  0.07815742  0.67858056  0.41999608  1
  O2-  O149  1  0.07432977  0.68253474  0.76697924  1
  O2-  O150  1  0.56987714  0.17420119  0.09061712  1
  O2-  O151  1  0.57007782  0.17630115  0.42191006  1
  O2-  O152  1  0.56541233  0.17511824  0.76420804  1
  O2-  O153  1  0.57098131  0.68232990  0.09636642  1
  O2-  O154  1  0.56662222  0.67943861  0.43278819  1
  O2-  O155  1  0.57054420  0.68252943  0.75642447  1
  O2-  O156  1  0.18167693  0.42763634  0.24346512  1
  O2-  O157  1  0.17999652  0.42638793  0.56840715  1
  O2-  O158  1  0.18255965  0.43067212  0.90375641  1
  O2-  O159  1  0.17826560  0.92529524  0.24733164  1
  O2-  O160  1  0.18346083  0.93254113  0.57433308  1
  O2-  O161  1  0.17910795  0.92661939  0.90025970  1
  O2-  O162  1  0.66876477  0.42861003  0.24195510  1
  O2-  O163  1  0.68080436  0.43149310  0.56636573  1
  O2-  O164  1  0.67460610  0.43129922  0.91107146  1
  O2-  O165  1  0.67898318  0.92999574  0.24304560  1
  O2-  O166  1  0.67743275  0.92913694  0.56668606  1
  O2-  O167  1  0.68105151  0.93069461  0.90325216  1
  O2-  O168  1  0.42963448  0.31636729  0.10030927  1
  O2-  O169  1  0.42790556  0.31998017  0.42262311  1
  O2-  O170  1  0.42766336  0.31805043  0.76173531  1
  O2-  O171  1  0.42655210  0.82046283  0.09016458  1
  O2-  O172  1  0.42482237  0.82355330  0.42118386  1
  O2-  O173  1  0.42376665  0.82340967  0.75684833  1
  O2-  O174  1  0.93153480  0.32324733  0.09756608  1
  O2-  O175  1  0.92996433  0.32213538  0.43486683  1
  O2-  O176  1  0.93218487  0.32082203  0.75768245  1
  O2-  O177  1  0.93026626  0.82038427  0.09131183  1
  O2-  O178  1  0.93021105  0.82024641  0.43017364  1
  O2-  O179  1  0.93158763  0.82218855  0.76590439  1
  O2-  O180  1  0.31801243  0.07148932  0.23537629  1
  O2-  O181  1  0.32036096  0.06879437  0.57683193  1
  O2-  O182  1  0.32104365  0.06837733  0.90950949  1
  O2-  O183  1  0.32342263  0.56664571  0.24081024  1
  O2-  O184  1  0.32012680  0.57376455  0.56663510  1
  O2-  O185  1  0.32176152  0.57598373  0.91338140  1
  O2-  O186  1  0.81655291  0.07222983  0.23163086  1
  O2-  O187  1  0.82479318  0.07119853  0.56860354  1
  O2-  O188  1  0.82418946  0.07099906  0.91198840  1
  O2-  O189  1  0.81854365  0.56997483  0.23430317  1
  O2-  O190  1  0.81765276  0.57106621  0.56737498  1
  O2-  O191  1  0.82076057  0.57197599  0.90266700  1
  O2-  O192  1  0.05431573  0.08296683  0.27580421  1
  O2-  O193  1  0.04765403  0.08558359  0.60092798  1
  O2-  O194  1  0.04164163  0.07924661  0.93302504  1
  O2-  O195  1  0.04887364  0.58314038  0.27051970  1
  O2-  O196  1  0.05136432  0.57564580  0.60275591  1
  O2-  O197  1  0.04446393  0.58898004  0.94157400  1
  O2-  O198  1  0.54030237  0.08481058  0.27042864  1
  O2-  O199  1  0.53886171  0.08110213  0.59639294  1
  O2-  O200  1  0.54297190  0.08110125  0.93967617  1
  O2-  O201  1  0.53613874  0.58394904  0.26307354  1
  O2-  O202  1  0.54245808  0.58958158  0.60290618  1
  O2-  O203  1  0.54396669  0.58569606  0.92781183  1
  O2-  O204  1  0.16526028  0.20954803  0.27100495  1
  O2-  O205  1  0.16311583  0.20649903  0.60202168  1
  O2-  O206  1  0.16769894  0.20457110  0.93304653  1
  O2-  O207  1  0.16848214  0.70181514  0.26760869  1
  O2-  O208  1  0.16817108  0.71136388  0.59754506  1
  O2-  O209  1  0.16677365  0.70632495  0.94242413  1
  O2-  O210  1  0.65994005  0.20424633  0.26668923  1
  O2-  O211  1  0.67284557  0.20304382  0.59967366  1
  O2-  O212  1  0.66674301  0.19471929  0.93909829  1
  O2-  O213  1  0.66417828  0.71030660  0.26296074  1
  O2-  O214  1  0.66139664  0.70977814  0.60319299  1
  O2-  O215  1  0.66812529  0.71671711  0.93067041  1
  O2-  O216  1  0.08770550  0.46336211  0.07256014  1
  O2-  O217  1  0.08821237  0.45665263  0.39637756  1
  O2-  O218  1  0.08216812  0.45341202  0.73803147  1
  O2-  O219  1  0.08096726  0.95892689  0.06971596  1
  O2-  O220  1  0.08464900  0.95212287  0.39922180  1
  O2-  O221  1  0.08895700  0.95719289  0.72652503  1
  O2-  O222  1  0.58366018  0.45817755  0.06262178  1
  O2-  O223  1  0.58183986  0.45720132  0.39491682  1
  O2-  O224  1  0.58017281  0.45805829  0.73197925  1
  O2-  O225  1  0.58151663  0.95527901  0.07127878  1
  O2-  O226  1  0.58345605  0.95011887  0.39265740  1
  O2-  O227  1  0.57943702  0.95714985  0.73471882  1
  O2-  O228  1  0.21276013  0.33159232  0.06950970  1
  O2-  O229  1  0.20868347  0.33891607  0.39675307  1
  O2-  O230  1  0.20931957  0.32827027  0.73501727  1
  O2-  O231  1  0.20858515  0.83329459  0.07267975  1
  O2-  O232  1  0.20435625  0.83170121  0.39829225  1
  O2-  O233  1  0.20982725  0.83956205  0.72661347  1
  O2-  O234  1  0.69427622  0.33070932  0.05907325  1
  O2-  O235  1  0.69537596  0.33213381  0.39087253  1
  O2-  O236  1  0.69941296  0.32868986  0.73227280  1
  O2-  O237  1  0.71522124  0.83591125  0.07048719  1
  O2-  O238  1  0.70455423  0.83364963  0.39205956  1
  O2-  O239  1  0.70662428  0.83217932  0.73485695  1
  O2-  O240  1  0.45432751  0.40967135  0.26843203  1
  O2-  O241  1  0.45444609  0.42268677  0.59718774  1
  O2-  O242  1  0.45677994  0.41662624  0.93209053  1
  O2-  O243  1  0.44956043  0.91813333  0.26989442  1
  O2-  O244  1  0.45525227  0.91376449  0.60334631  1
  O2-  O245  1  0.45015924  0.91682514  0.94031374  1
  O2-  O246  1  0.96293688  0.41719198  0.26784177  1
  O2-  O247  1  0.96028763  0.41118258  0.60487060  1
  O2-  O248  1  0.96289590  0.42297764  0.93421680  1
  O2-  O249  1  0.96174120  0.91746349  0.26313298  1
  O2-  O250  1  0.96210215  0.91718993  0.59820584  1
  O2-  O251  1  0.95467351  0.91350753  0.94012170  1
  O2-  O252  1  0.33567953  0.28829709  0.27219407  1
  O2-  O253  1  0.33141963  0.28977267  0.59515453  1
  O2-  O254  1  0.33463651  0.28740798  0.93142161  1
  O2-  O255  1  0.33190999  0.79812895  0.26965360  1
  O2-  O256  1  0.33732554  0.79507426  0.60056723  1
  O2-  O257  1  0.33232917  0.79611134  0.93988813  1
  O2-  O258  1  0.83041092  0.29475280  0.26599305  1
  O2-  O259  1  0.83719496  0.29488600  0.60635762  1
  O2-  O260  1  0.82793409  0.30304523  0.93234463  1
  O2-  O261  1  0.83424006  0.78955360  0.26244910  1
  O2-  O262  1  0.82844890  0.79517571  0.59851846  1
  O2-  O263  1  0.83958155  0.78933843  0.93933339  1
  O2-  O264  1  0.41266282  0.04522592  0.06413655  1
  O2-  O265  1  0.41627932  0.04038976  0.40398229  1
  O2-  O266  1  0.41168146  0.04142373  0.72984399  1
  O2-  O267  1  0.42035297  0.54672618  0.06045216  1
  O2-  O268  1  0.41290246  0.53851716  0.39386171  1
  O2-  O269  1  0.42004680  0.54896269  0.73340540  1
  O2-  O270  1  0.91356177  0.04537862  0.06519867  1
  O2-  O271  1  0.91897156  0.04488505  0.39676040  1
  O2-  O272  1  0.92318885  0.04262949  0.73494274  1
  O2-  O273  1  0.91774068  0.54306706  0.07144515  1
  O2-  O274  1  0.91799785  0.54330557  0.40049126  1
  O2-  O275  1  0.92045596  0.54455494  0.73262856  1
  O2-  O276  1  0.29422400  0.16403263  0.06156033  1
  O2-  O277  1  0.28742830  0.16546280  0.40563361  1
  O2-  O278  1  0.29430587  0.16304111  0.72733677  1
  O2-  O279  1  0.29835505  0.66441830  0.06786258  1
  O2-  O280  1  0.30056397  0.66404947  0.39090775  1
  O2-  O281  1  0.29360690  0.67261152  0.73448969  1
  O2-  O282  1  0.79893190  0.17050377  0.05955173  1
  O2-  O283  1  0.78832714  0.16892271  0.39783524  1
  O2-  O284  1  0.79822107  0.16998488  0.73675442  1
  O2-  O285  1  0.78543737  0.66483203  0.06931432  1
  O2-  O286  1  0.78521173  0.66669087  0.39890534  1
  O2-  O287  1  0.79240161  0.66933522  0.73309898  1
