# generated using pymatgen
data_Ca2Al2SiO7
_symmetry_space_group_name_H-M   'P 1'
_cell_length_a   15.45967094
_cell_length_b   15.45970552
_cell_length_c   15.28451375
_cell_angle_alpha   89.99998228
_cell_angle_beta   89.99336021
_cell_angle_gamma   89.98884200
_symmetry_Int_Tables_number   1
_chemical_formula_structural   Ca2Al2SiO7
_chemical_formula_sum   'Ca48 Al48 Si24 O168'
_cell_volume   3653.02865158
_cell_formula_units_Z   24
loop_
 _symmetry_equiv_pos_site_id
 _symmetry_equiv_pos_as_xyz
  1  'x, y, z'
loop_
 _atom_type_symbol
 _atom_type_oxidation_number
  Ca2+  2.0
  Al0+  0.0
  Si0+  0.0
  O2-  -2.0
loop_
 _atom_site_type_symbol
 _atom_site_label
 _atom_site_symmetry_multiplicity
 _atom_site_fract_x
 _atom_site_fract_y
 _atom_site_fract_z
 _atom_site_occupancy
  Ca2+  Ca0  1  0.16773238  0.07791053  0.17136539  1
  Ca2+  Ca1  1  0.16660989  0.07505174  0.51130766  1
  Ca2+  Ca2  1  0.16211749  0.07721739  0.83148889  1
  Ca2+  Ca3  1  0.16874630  0.57920977  0.16962520  1
  Ca2+  Ca4  1  0.16606220  0.57589771  0.50203835  1
  Ca2+  Ca5  1  0.16621148  0.57668717  0.83956251  1
  Ca2+  Ca6  1  0.67035188  0.07907657  0.17465281  1
  Ca2+  Ca7  1  0.66641215  0.08232845  0.49980309  1
  Ca2+  Ca8  1  0.66005233  0.08614646  0.83784346  1
  Ca2+  Ca9  1  0.68156052  0.59025987  0.17068738  1
  Ca2+  Ca10  1  0.68060650  0.59053902  0.50335975  1
  Ca2+  Ca11  1  0.67999300  0.58696049  0.83746481  1
  Ca2+  Ca12  1  0.08138494  0.33987081  0.16287494  1
  Ca2+  Ca13  1  0.09135126  0.33190789  0.49883453  1
  Ca2+  Ca14  1  0.08309014  0.33807619  0.82910110  1
  Ca2+  Ca15  1  0.07643956  0.81760042  0.15962016  1
  Ca2+  Ca16  1  0.08919719  0.81866002  0.49643905  1
  Ca2+  Ca17  1  0.08302334  0.81869835  0.82847549  1
  Ca2+  Ca18  1  0.58041157  0.32932586  0.16200048  1
  Ca2+  Ca19  1  0.57076743  0.33569554  0.49640180  1
  Ca2+  Ca20  1  0.57989375  0.32321043  0.82473828  1
  Ca2+  Ca21  1  0.57598566  0.83593806  0.16514228  1
  Ca2+  Ca22  1  0.57381552  0.83578407  0.49487771  1
  Ca2+  Ca23  1  0.57065470  0.83129998  0.82999152  1
  Ca2+  Ca24  1  0.32341740  0.42617759  0.17711249  1
  Ca2+  Ca25  1  0.32739269  0.41547316  0.50518136  1
  Ca2+  Ca26  1  0.32325917  0.41714739  0.84064494  1
  Ca2+  Ca27  1  0.33835879  0.91452655  0.17008647  1
  Ca2+  Ca28  1  0.33159555  0.91330006  0.50725199  1
  Ca2+  Ca29  1  0.33007664  0.90944717  0.83462774  1
  Ca2+  Ca30  1  0.83782732  0.42488261  0.16729351  1
  Ca2+  Ca31  1  0.83462717  0.42836298  0.50336370  1
  Ca2+  Ca32  1  0.83925265  0.42611577  0.83866611  1
  Ca2+  Ca33  1  0.82832114  0.91956304  0.17614789  1
  Ca2+  Ca34  1  0.82751162  0.91962224  0.50163834  1
  Ca2+  Ca35  1  0.83432527  0.91766285  0.84028826  1
  Ca2+  Ca36  1  0.42144634  0.17557301  0.16331912  1
  Ca2+  Ca37  1  0.41548178  0.18052729  0.50006821  1
  Ca2+  Ca38  1  0.42598731  0.17301067  0.82541579  1
  Ca2+  Ca39  1  0.40597148  0.67409780  0.16324426  1
  Ca2+  Ca40  1  0.40833612  0.67710686  0.49226854  1
  Ca2+  Ca41  1  0.40503313  0.67447858  0.83236549  1
  Ca2+  Ca42  1  0.91422532  0.17261863  0.16114499  1
  Ca2+  Ca43  1  0.92177736  0.16436926  0.49716259  1
  Ca2+  Ca44  1  0.92280409  0.17725300  0.82900892  1
  Ca2+  Ca45  1  0.92509624  0.66033976  0.15961830  1
  Ca2+  Ca46  1  0.92688688  0.65646703  0.49618962  1
  Ca2+  Ca47  1  0.92568007  0.66047248  0.83131354  1
  Al0+  Al48  1  -0.00065261  -0.00003429  -0.00035372  1
  Al0+  Al49  1  0.00015040  -0.00021343  0.33633424  1
  Al0+  Al50  1  -0.00113550  0.00007576  0.66894261  1
  Al0+  Al51  1  -0.00028648  0.49808172  -0.00029653  1
  Al0+  Al52  1  0.00123155  0.49722351  0.33669714  1
  Al0+  Al53  1  0.00108220  0.50067322  0.66995727  1
  Al0+  Al54  1  0.49931374  -0.00046230  -0.00674021  1
  Al0+  Al55  1  0.50001836  0.00072229  0.33398385  1
  Al0+  Al56  1  0.50071933  0.00062810  0.65972420  1
  Al0+  Al57  1  0.50027023  0.50090468  0.00321594  1
  Al0+  Al58  1  0.49995477  0.50307698  0.33003032  1
  Al0+  Al59  1  0.50253603  0.50208702  0.66433357  1
  Al0+  Al60  1  0.25053884  0.24672167  0.00483977  1
  Al0+  Al61  1  0.25025919  0.24871343  0.33005992  1
  Al0+  Al62  1  0.24977073  0.24842431  0.66546677  1
  Al0+  Al63  1  0.24766791  0.75029329  -0.00376299  1
  Al0+  Al64  1  0.24840817  0.74893753  0.32603764  1
  Al0+  Al65  1  0.24730631  0.74959351  0.66259611  1
  Al0+  Al66  1  0.75165371  0.24979011  -0.00843339  1
  Al0+  Al67  1  0.75121418  0.25012717  0.33820264  1
  Al0+  Al68  1  0.75086112  0.25001143  0.66194311  1
  Al0+  Al69  1  0.74800670  0.75224124  0.00211026  1
  Al0+  Al70  1  0.74896979  0.75238703  0.34351013  1
  Al0+  Al71  1  0.74984564  0.75302835  0.67333709  1
  Al0+  Al72  1  0.42754076  0.32358639  0.31707469  1
  Al0+  Al73  1  0.17863596  0.92714302  0.68070426  1
  Al0+  Al74  1  0.32129078  0.57365205  0.34889513  1
  Al0+  Al75  1  0.42984286  0.81878040  0.98560319  1
  Al0+  Al76  1  0.18054654  0.42769742  0.35063578  1
  Al0+  Al77  1  0.93156700  0.31962740  0.98674341  1
  Al0+  Al78  1  0.82115418  0.56997756  0.34678791  1
  Al0+  Al79  1  0.82043131  0.57076374  0.68256022  1
  Al0+  Al80  1  0.06863264  0.67840125  0.98365647  1
  Al0+  Al81  1  0.18227522  0.42780027  0.68120375  1
  Al0+  Al82  1  0.56982605  0.18090951  0.98808061  1
  Al0+  Al83  1  0.57316404  0.17876139  0.64769248  1
  Al0+  Al84  1  0.67724161  0.93023908  0.35009569  1
  Al0+  Al85  1  0.42851001  0.32366487  0.65338489  1
  Al0+  Al86  1  0.82262998  0.07288817  0.34930998  1
  Al0+  Al87  1  0.06976385  0.17806770  0.65355098  1
  Al0+  Al88  1  0.42980077  0.82069182  0.31860993  1
  Al0+  Al89  1  0.06836345  0.67851228  0.65088714  1
  Al0+  Al90  1  0.92594855  0.82276079  0.98688032  1
  Al0+  Al91  1  0.17934729  0.42660569  0.01615112  1
  Al0+  Al92  1  0.42927979  0.81737839  0.65231170  1
  Al0+  Al93  1  0.32148035  0.57318669  0.01470560  1
  Al0+  Al94  1  0.06821282  0.67698635  0.31832493  1
  Al0+  Al95  1  0.81919224  0.57085482  0.01390661  1
  Si0+  Si96  1  0.42666300  0.32313151  0.98531325  1
  Si0+  Si97  1  0.82102054  0.07189414  0.01286610  1
  Si0+  Si98  1  0.32309280  0.06827790  0.01497636  1
  Si0+  Si99  1  0.07110315  0.17595567  0.31806353  1
  Si0+  Si100  1  0.32090076  0.07080996  0.34797658  1
  Si0+  Si101  1  0.17960014  0.92919509  0.34642167  1
  Si0+  Si102  1  0.07488353  0.17524154  0.98424055  1
  Si0+  Si103  1  0.17792894  0.92956601  0.01556853  1
  Si0+  Si104  1  0.32382053  0.57317473  0.68115028  1
  Si0+  Si105  1  0.92985541  0.32270597  0.64798534  1
  Si0+  Si106  1  0.67780124  0.93200517  0.68524743  1
  Si0+  Si107  1  0.57420609  0.67634469  0.98421278  1
  Si0+  Si108  1  0.57588633  0.67924527  0.31692429  1
  Si0+  Si109  1  0.92701167  0.82279932  0.31988971  1
  Si0+  Si110  1  0.32230180  0.07029956  0.68340118  1
  Si0+  Si111  1  0.82122502  0.07241424  0.68468065  1
  Si0+  Si112  1  0.67662341  0.42726288  0.34902586  1
  Si0+  Si113  1  0.67748942  0.42686362  0.68280924  1
  Si0+  Si114  1  0.92910925  0.31898737  0.31975348  1
  Si0+  Si115  1  0.57218086  0.18078431  0.31667268  1
  Si0+  Si116  1  0.92594727  0.82312715  0.64974300  1
  Si0+  Si117  1  0.67691158  0.93151464  0.01399699  1
  Si0+  Si118  1  0.57623369  0.67947701  0.65047607  1
  Si0+  Si119  1  0.67863919  0.42498012  0.01463278  1
  O2-  O120  1  0.24993544  -0.00030267  0.05835005  1
  O2-  O121  1  0.25100091  -0.00105826  0.38995194  1
  O2-  O122  1  0.25461226  0.00079258  0.72851305  1
  O2-  O123  1  0.25309674  0.49757104  0.06456661  1
  O2-  O124  1  0.25462725  0.49767656  0.40024835  1
  O2-  O125  1  0.26111914  0.49919147  0.72555863  1
  O2-  O126  1  0.75212813  -0.00103964  0.05512260  1
  O2-  O127  1  0.75078926  0.00124731  0.39981620  1
  O2-  O128  1  0.74821160  0.00372869  0.72784098  1
  O2-  O129  1  0.74230657  0.49767335  0.06031559  1
  O2-  O130  1  0.74283054  0.49861052  0.39313154  1
  O2-  O131  1  0.74474574  0.49617139  0.72819010  1
  O2-  O132  1  -0.00089842  0.24640184  0.27744693  1
  O2-  O133  1  -0.00237435  0.25327791  0.60357495  1
  O2-  O134  1  0.01029490  0.24823496  0.94160775  1
  O2-  O135  1  -0.01000086  0.75012790  0.27427613  1
  O2-  O136  1  -0.00704680  0.75361270  0.60472632  1
  O2-  O137  1  -0.00526180  0.74971519  0.93456020  1
  O2-  O138  1  0.50593448  0.25116085  0.27152921  1
  O2-  O139  1  0.50268793  0.25397111  0.60161701  1
  O2-  O140  1  0.49847991  0.25801705  0.94074985  1
  O2-  O141  1  0.50379516  0.74478908  0.27273951  1
  O2-  O142  1  0.50209529  0.74141056  0.60528328  1
  O2-  O143  1  0.49962764  0.73896684  0.93993335  1
  O2-  O144  1  0.07198172  0.17021397  0.09007861  1
  O2-  O145  1  0.07183312  0.17354000  0.42282214  1
  O2-  O146  1  0.06629343  0.17703529  0.76661469  1
  O2-  O147  1  0.06764262  0.67977474  0.09743096  1
  O2-  O148  1  0.06841332  0.67853739  0.43155994  1
  O2-  O149  1  0.06844628  0.67822416  0.76361035  1
  O2-  O150  1  0.56912239  0.18024370  0.10131214  1
  O2-  O151  1  0.57068957  0.18177384  0.42175031  1
  O2-  O152  1  0.57099688  0.17903750  0.76180244  1
  O2-  O153  1  0.58012002  0.68151995  0.08937209  1
  O2-  O154  1  0.57845395  0.68161781  0.42246478  1
  O2-  O155  1  0.57937551  0.68339279  0.75608812  1
  O2-  O156  1  0.17863016  0.42737565  0.23737261  1
  O2-  O157  1  0.18128898  0.42820526  0.56846897  1
  O2-  O158  1  0.18127396  0.42505466  0.90243226  1
  O2-  O159  1  0.17855733  0.93322734  0.24092906  1
  O2-  O160  1  0.18094682  0.92853186  0.56711271  1
  O2-  O161  1  0.17816486  0.93125437  0.91062219  1
  O2-  O162  1  0.68046224  0.42344796  0.24329342  1
  O2-  O163  1  0.67885872  0.42756280  0.57719964  1
  O2-  O164  1  0.68094900  0.42374225  0.90919293  1
  O2-  O165  1  0.67709465  0.93288792  0.23577214  1
  O2-  O166  1  0.67906998  0.93123112  0.58052980  1
  O2-  O167  1  0.67476532  0.93416068  0.90883777  1
  O2-  O168  1  0.42768323  0.31893204  0.09085765  1
  O2-  O169  1  0.42686134  0.31952268  0.42989649  1
  O2-  O170  1  0.42933576  0.32046281  0.76736142  1
  O2-  O171  1  0.43360077  0.82351889  0.09842061  1
  O2-  O172  1  0.42963453  0.82164540  0.43158034  1
  O2-  O173  1  0.43053322  0.81756917  0.76558894  1
  O2-  O174  1  0.92787523  0.31601304  0.10018468  1
  O2-  O175  1  0.92925346  0.31863526  0.42463766  1
  O2-  O176  1  0.92966846  0.32101207  0.75377664  1
  O2-  O177  1  0.92849262  0.82605549  0.10065072  1
  O2-  O178  1  0.93092086  0.82541470  0.42536264  1
  O2-  O179  1  0.92637955  0.82327195  0.75537919  1
  O2-  O180  1  0.31995936  0.07024948  0.24224016  1
  O2-  O181  1  0.32028432  0.06962923  0.57744169  1
  O2-  O182  1  0.32410933  0.06821037  0.91024824  1
  O2-  O183  1  0.31699804  0.57428493  0.23560001  1
  O2-  O184  1  0.32126174  0.57501103  0.57586717  1
  O2-  O185  1  0.31975287  0.57232001  0.90069019  1
  O2-  O186  1  0.82162487  0.07323953  0.23498109  1
  O2-  O187  1  0.82286545  0.06977674  0.57986288  1
  O2-  O188  1  0.82049054  0.07166456  0.90783009  1
  O2-  O189  1  0.82109855  0.56816433  0.23361132  1
  O2-  O190  1  0.81950863  0.56926115  0.56923335  1
  O2-  O191  1  0.81814085  0.56917966  0.90090477  1
  O2-  O192  1  0.04304060  0.08436829  0.26904457  1
  O2-  O193  1  0.03666448  0.08190376  0.59905786  1
  O2-  O194  1  0.04430234  0.08425838  0.93607285  1
  O2-  O195  1  0.03717199  0.57957743  0.26651545  1
  O2-  O196  1  0.03566635  0.58214275  0.59787018  1
  O2-  O197  1  0.04059098  0.57994017  0.93212166  1
  O2-  O198  1  0.54373552  0.08773165  0.27109779  1
  O2-  O199  1  0.54303283  0.08181810  0.59405346  1
  O2-  O200  1  0.53588933  0.08677380  0.93118400  1
  O2-  O201  1  0.55821147  0.58424350  0.27092712  1
  O2-  O202  1  0.56115253  0.58309002  0.60713357  1
  O2-  O203  1  0.55733989  0.57979594  0.94067337  1
  O2-  O204  1  0.16230865  0.20228037  0.26864092  1
  O2-  O205  1  0.16734272  0.20364975  0.59978709  1
  O2-  O206  1  0.17081044  0.19417715  0.94067830  1
  O2-  O207  1  0.16159547  0.71275605  0.26206729  1
  O2-  O208  1  0.16335236  0.71155662  0.59578084  1
  O2-  O209  1  0.16511171  0.71087213  0.92975769  1
  O2-  O210  1  0.66761160  0.20438684  0.27251426  1
  O2-  O211  1  0.67306889  0.20309399  0.59606624  1
  O2-  O212  1  0.66587260  0.20762723  0.93095672  1
  O2-  O213  1  0.66850053  0.71088274  0.27070703  1
  O2-  O214  1  0.66722963  0.71329904  0.60343451  1
  O2-  O215  1  0.66397664  0.70977869  0.93461652  1
  O2-  O216  1  0.08049567  0.45520833  0.06743599  1
  O2-  O217  1  0.08233488  0.45531713  0.40378562  1
  O2-  O218  1  0.08599899  0.46089460  0.73428421  1
  O2-  O219  1  0.08714593  0.95970550  0.06438201  1
  O2-  O220  1  0.08897974  0.95716603  0.39533061  1
  O2-  O221  1  0.08263105  0.96014086  0.73499299  1
  O2-  O222  1  0.58315420  0.44368470  0.05968436  1
  O2-  O223  1  0.58200097  0.45067256  0.39295066  1
  O2-  O224  1  0.58324866  0.44991530  0.72929483  1
  O2-  O225  1  0.58677249  0.96464541  0.06175078  1
  O2-  O226  1  0.57988446  0.96193751  0.40386856  1
  O2-  O227  1  0.58517025  0.96079019  0.73094274  1
  O2-  O228  1  0.20299120  0.32575667  0.06859776  1
  O2-  O229  1  0.20728945  0.32640594  0.39939615  1
  O2-  O230  1  0.20809062  0.32913432  0.73441993  1
  O2-  O231  1  0.20563439  0.83796478  0.06227430  1
  O2-  O232  1  0.20771911  0.83710404  0.39131745  1
  O2-  O233  1  0.21060785  0.83105599  0.73479939  1
  O2-  O234  1  0.71030496  0.33280795  0.06112754  1
  O2-  O235  1  0.70458097  0.33580029  0.39800781  1
  O2-  O236  1  0.70448569  0.33250159  0.72744408  1
  O2-  O237  1  0.69963404  0.83937213  0.06255433  1
  O2-  O238  1  0.70313759  0.83358904  0.40760187  1
  O2-  O239  1  0.70521299  0.84111110  0.73479550  1
  O2-  O240  1  0.45555681  0.42111394  0.26381772  1
  O2-  O241  1  0.45457407  0.42291231  0.59975463  1
  O2-  O242  1  0.44701116  0.41870177  0.94195145  1
  O2-  O243  1  0.46105766  0.91846627  0.26543565  1
  O2-  O244  1  0.46040410  0.91394183  0.59912961  1
  O2-  O245  1  0.46461004  0.91283772  0.92899281  1
  O2-  O246  1  0.95925389  0.40942102  0.27136786  1
  O2-  O247  1  0.95720039  0.41578145  0.60319486  1
  O2-  O248  1  0.95940124  0.41534040  0.93100244  1
  O2-  O249  1  0.95612368  0.91545385  0.27254611  1
  O2-  O250  1  0.95109422  0.91704796  0.60499939  1
  O2-  O251  1  0.95478585  0.92142255  0.93351517  1
  O2-  O252  1  0.33359612  0.28537416  0.26182201  1
  O2-  O253  1  0.33255550  0.28917781  0.59934314  1
  O2-  O254  1  0.33442631  0.29107290  0.94021409  1
  O2-  O255  1  0.33328844  0.79247976  0.26285635  1
  O2-  O256  1  0.33247239  0.78957151  0.59795033  1
  O2-  O257  1  0.33193755  0.79321962  0.93204573  1
  O2-  O258  1  0.83680767  0.29238049  0.27214270  1
  O2-  O259  1  0.83625435  0.29804011  0.60204324  1
  O2-  O260  1  0.83833183  0.28573925  0.92775331  1
  O2-  O261  1  0.83000151  0.80359371  0.27902590  1
  O2-  O262  1  0.83073598  0.79959794  0.60642490  1
  O2-  O263  1  0.82507844  0.80122155  0.93600341  1
  O2-  O264  1  0.41349300  0.03637254  0.06318313  1
  O2-  O265  1  0.41249077  0.04511466  0.39523706  1
  O2-  O266  1  0.41716142  0.04479679  0.72691635  1
  O2-  O267  1  0.42360636  0.55428694  0.06573079  1
  O2-  O268  1  0.42437951  0.55509961  0.39629716  1
  O2-  O269  1  0.42117871  0.55766830  0.72412518  1
  O2-  O270  1  0.91365414  0.04801047  0.06117519  1
  O2-  O271  1  0.92103855  0.04390480  0.40294935  1
  O2-  O272  1  0.91159913  0.04304684  0.73398016  1
  O2-  O273  1  0.91419881  0.53572028  0.06713295  1
  O2-  O274  1  0.91451403  0.53297668  0.40216904  1
  O2-  O275  1  0.91552048  0.53680100  0.73641246  1
  O2-  O276  1  0.29808144  0.15963858  0.06527050  1
  O2-  O277  1  0.29065455  0.16138219  0.39524721  1
  O2-  O278  1  0.29532528  0.16267060  0.73061223  1
  O2-  O279  1  0.28976361  0.67196907  0.06588151  1
  O2-  O280  1  0.28757552  0.67192274  0.39965118  1
  O2-  O281  1  0.29060631  0.66438980  0.72760177  1
  O2-  O282  1  0.79047096  0.16316456  0.05979889  1
  O2-  O283  1  0.79549737  0.17054394  0.40454048  1
  O2-  O284  1  0.79587001  0.16640495  0.72939562  1
  O2-  O285  1  0.78913706  0.66838770  0.06755626  1
  O2-  O286  1  0.79412965  0.66664731  0.40252647  1
  O2-  O287  1  0.78992670  0.66792183  0.73630963  1
