# generated using pymatgen
data_Ca2Al2SiO7
_symmetry_space_group_name_H-M   'P 1'
_cell_length_a   15.45608926
_cell_length_b   15.45620027
_cell_length_c   15.28231947
_cell_angle_alpha   90.00798331
_cell_angle_beta   89.99449085
_cell_angle_gamma   89.99920919
_symmetry_Int_Tables_number   1
_chemical_formula_structural   Ca2Al2SiO7
_chemical_formula_sum   'Ca48 Al48 Si24 O168'
_cell_volume   3650.83008939
_cell_formula_units_Z   24
loop_
 _symmetry_equiv_pos_site_id
 _symmetry_equiv_pos_as_xyz
  1  'x, y, z'
loop_
 _atom_type_symbol
 _atom_type_oxidation_number
  Ca2+  2.0
  Al0+  0.0
  Si0+  0.0
  O2-  -2.0
loop_
 _atom_site_type_symbol
 _atom_site_label
 _atom_site_symmetry_multiplicity
 _atom_site_fract_x
 _atom_site_fract_y
 _atom_site_fract_z
 _atom_site_occupancy
  Ca2+  Ca0  1  0.17157584  0.08411265  0.17273243  1
  Ca2+  Ca1  1  0.15801107  0.07973995  0.49758106  1
  Ca2+  Ca2  1  0.17726589  0.08393170  0.83919974  1
  Ca2+  Ca3  1  0.17061678  0.57114376  0.17465501  1
  Ca2+  Ca4  1  0.17558136  0.58057160  0.50377075  1
  Ca2+  Ca5  1  0.16925957  0.58110505  0.83579903  1
  Ca2+  Ca6  1  0.66703671  0.07710050  0.16511911  1
  Ca2+  Ca7  1  0.67229091  0.07505136  0.50904514  1
  Ca2+  Ca8  1  0.67110254  0.08157157  0.84031083  1
  Ca2+  Ca9  1  0.67038179  0.57566002  0.17154256  1
  Ca2+  Ca10  1  0.67427131  0.58294831  0.49899679  1
  Ca2+  Ca11  1  0.66748384  0.57255868  0.83799194  1
  Ca2+  Ca12  1  0.07719469  0.33900112  0.16486029  1
  Ca2+  Ca13  1  0.08093474  0.32538800  0.48720383  1
  Ca2+  Ca14  1  0.07931650  0.33627506  0.83564553  1
  Ca2+  Ca15  1  0.07952268  0.83674909  0.16750721  1
  Ca2+  Ca16  1  0.07114107  0.83375435  0.49278754  1
  Ca2+  Ca17  1  0.07611422  0.82687540  0.82156970  1
  Ca2+  Ca18  1  0.57881984  0.32980174  0.15842106  1
  Ca2+  Ca19  1  0.57411094  0.32947375  0.49725400  1
  Ca2+  Ca20  1  0.58617093  0.31904737  0.82801949  1
  Ca2+  Ca21  1  0.58179299  0.83676924  0.15998432  1
  Ca2+  Ca22  1  0.58803182  0.83592375  0.49596748  1
  Ca2+  Ca23  1  0.58013085  0.84401956  0.83397774  1
  Ca2+  Ca24  1  0.32339914  0.41602855  0.17784122  1
  Ca2+  Ca25  1  0.33566146  0.41962837  0.50287677  1
  Ca2+  Ca26  1  0.33120593  0.41786468  0.83666883  1
  Ca2+  Ca27  1  0.33226585  0.92269151  0.16889547  1
  Ca2+  Ca28  1  0.32261528  0.91477065  0.50072757  1
  Ca2+  Ca29  1  0.33524749  0.92182988  0.84283503  1
  Ca2+  Ca30  1  0.83286871  0.41584085  0.17005559  1
  Ca2+  Ca31  1  0.84407841  0.42235229  0.49862186  1
  Ca2+  Ca32  1  0.82802143  0.41431192  0.84487672  1
  Ca2+  Ca33  1  0.82418393  0.91916182  0.17503464  1
  Ca2+  Ca34  1  0.82712422  0.91643305  0.50866408  1
  Ca2+  Ca35  1  0.82577685  0.92669665  0.83717562  1
  Ca2+  Ca36  1  0.42004182  0.16871064  0.16035708  1
  Ca2+  Ca37  1  0.42075129  0.17709624  0.49620233  1
  Ca2+  Ca38  1  0.43024245  0.16557112  0.82833427  1
  Ca2+  Ca39  1  0.41197514  0.67315868  0.16464614  1
  Ca2+  Ca40  1  0.41565010  0.66038877  0.49614617  1
  Ca2+  Ca41  1  0.41547294  0.67133653  0.82978505  1
  Ca2+  Ca42  1  0.92037893  0.17399832  0.16281996  1
  Ca2+  Ca43  1  0.91959923  0.16960642  0.49149945  1
  Ca2+  Ca44  1  0.90532720  0.16954084  0.83325468  1
  Ca2+  Ca45  1  0.90997999  0.67127273  0.16731697  1
  Ca2+  Ca46  1  0.91722939  0.67591974  0.49378037  1
  Ca2+  Ca47  1  0.92469049  0.67382711  0.82278197  1
  Al0+  Al48  1  0.00057272  0.00087159  0.00047894  1
  Al0+  Al49  1  -0.00012385  0.00007687  0.32682159  1
  Al0+  Al50  1  -0.00167950  0.00067072  0.66922270  1
  Al0+  Al51  1  0.00118822  0.50044936  -0.00178674  1
  Al0+  Al52  1  0.00089870  0.50082059  0.33882672  1
  Al0+  Al53  1  0.00315316  0.50034080  0.66366454  1
  Al0+  Al54  1  0.49897980  0.00046819  -0.00019618  1
  Al0+  Al55  1  0.50007070  -0.00078726  0.33880107  1
  Al0+  Al56  1  0.49932856  -0.00038768  0.66235489  1
  Al0+  Al57  1  0.49979316  0.50231663  0.00391809  1
  Al0+  Al58  1  0.50133640  0.49990879  0.33073934  1
  Al0+  Al59  1  0.49888735  0.50228183  0.66885682  1
  Al0+  Al60  1  0.24856236  0.25061379  0.00755489  1
  Al0+  Al61  1  0.25202193  0.24955518  0.33046984  1
  Al0+  Al62  1  0.24819752  0.25095785  0.66389263  1
  Al0+  Al63  1  0.25002899  0.75001450  -0.00535810  1
  Al0+  Al64  1  0.24987888  0.75123431  0.34025412  1
  Al0+  Al65  1  0.25050832  0.74720622  0.66776145  1
  Al0+  Al66  1  0.74991458  0.25053505  0.00175151  1
  Al0+  Al67  1  0.74871752  0.24838804  0.32998113  1
  Al0+  Al68  1  0.74973401  0.24963553  0.66198943  1
  Al0+  Al69  1  0.74948517  0.74946223  -0.00094357  1
  Al0+  Al70  1  0.74916922  0.74816389  0.33581444  1
  Al0+  Al71  1  0.74804661  0.74970546  0.66988287  1
  Al0+  Al72  1  0.56917270  0.18082117  0.98755084  1
  Al0+  Al73  1  0.82042312  0.56920641  0.34668756  1
  Al0+  Al74  1  0.92850487  0.82094894  0.65215360  1
  Al0+  Al75  1  0.17805277  0.93058750  0.34612511  1
  Al0+  Al76  1  0.17926247  0.43091710  0.01385093  1
  Al0+  Al77  1  0.43027466  0.81939315  0.98739654  1
  Al0+  Al78  1  0.67932394  0.92913516  0.34792813  1
  Al0+  Al79  1  0.92711583  0.81932877  0.31803250  1
  Al0+  Al80  1  0.32083308  0.07018593  0.01215422  1
  Al0+  Al81  1  0.57285084  0.17695560  0.64894256  1
  Al0+  Al82  1  0.93124972  0.31991928  0.98598043  1
  Al0+  Al83  1  0.92841160  0.32367608  0.31788271  1
  Al0+  Al84  1  0.07151795  0.17795521  0.31655952  1
  Al0+  Al85  1  0.82298184  0.07250419  0.01838560  1
  Al0+  Al86  1  0.67807427  0.42863011  0.01247150  1
  Al0+  Al87  1  0.82170404  0.07291997  0.68148318  1
  Al0+  Al88  1  0.17931517  0.42685475  0.35079297  1
  Al0+  Al89  1  0.67962305  0.92897275  0.01597200  1
  Al0+  Al90  1  0.32153215  0.57009070  0.68385141  1
  Al0+  Al91  1  0.67685910  0.92762003  0.68398545  1
  Al0+  Al92  1  0.43156403  0.32176559  0.31758505  1
  Al0+  Al93  1  0.07307609  0.67776730  0.64847700  1
  Al0+  Al94  1  0.42874579  0.32195855  0.65376990  1
  Al0+  Al95  1  0.32215172  0.57058269  0.34814512  1
  Si0+  Si96  1  0.82316517  0.57030360  0.68157224  1
  Si0+  Si97  1  0.17804843  0.92570200  0.01414852  1
  Si0+  Si98  1  0.82270585  0.57127695  0.01414852  1
  Si0+  Si99  1  0.07413778  0.17696994  0.98189623  1
  Si0+  Si100  1  0.42525452  0.32423394  0.98509596  1
  Si0+  Si101  1  0.57002394  0.67828102  0.65174367  1
  Si0+  Si102  1  0.68005373  0.43069044  0.67905178  1
  Si0+  Si103  1  0.07178971  0.17909593  0.65373072  1
  Si0+  Si104  1  0.42851119  0.82135444  0.65043531  1
  Si0+  Si105  1  0.17752072  0.42610040  0.68514148  1
  Si0+  Si106  1  0.67775038  0.42572637  0.35016438  1
  Si0+  Si107  1  0.17910428  0.92886082  0.68124544  1
  Si0+  Si108  1  0.07362263  0.68014177  0.31647916  1
  Si0+  Si109  1  0.06970591  0.68006125  0.98544715  1
  Si0+  Si110  1  0.92841804  0.32148776  0.65297183  1
  Si0+  Si111  1  0.57077402  0.17529867  0.31518475  1
  Si0+  Si112  1  0.31914958  0.07177977  0.67902123  1
  Si0+  Si113  1  0.57359274  0.67604380  0.98230450  1
  Si0+  Si114  1  0.32305926  0.07196131  0.35217164  1
  Si0+  Si115  1  0.42775840  0.82128705  0.32050768  1
  Si0+  Si116  1  0.57121623  0.67990079  0.31833669  1
  Si0+  Si117  1  0.82166116  0.07202333  0.34881141  1
  Si0+  Si118  1  0.32153420  0.57427172  0.01684761  1
  Si0+  Si119  1  0.92708359  0.82261795  0.98451828  1
  O2-  O120  1  0.24380063  -0.00291692  0.05771100  1
  O2-  O121  1  0.25050579  0.00642716  0.39546580  1
  O2-  O122  1  0.25102013  -0.00132439  0.72346952  1
  O2-  O123  1  0.25871776  0.50067304  0.06008014  1
  O2-  O124  1  0.25263786  0.49775545  0.40035818  1
  O2-  O125  1  0.24682642  0.49470935  0.72894611  1
  O2-  O126  1  0.75425366  -0.00319136  0.06752184  1
  O2-  O127  1  0.75399389  0.00326709  0.39426957  1
  O2-  O128  1  0.74778655  0.00217253  0.73091024  1
  O2-  O129  1  0.75218098  0.50458043  0.05786720  1
  O2-  O130  1  0.75148472  0.48911100  0.39469844  1
  O2-  O131  1  0.75572239  0.49617223  0.72349356  1
  O2-  O132  1  0.00193932  0.25316914  0.26783665  1
  O2-  O133  1  -0.00173260  0.24845482  0.61357665  1
  O2-  O134  1  0.00306213  0.24302442  0.93682280  1
  O2-  O135  1  0.00305749  0.74580574  0.26978406  1
  O2-  O136  1  0.00013099  0.74950098  0.60025334  1
  O2-  O137  1  -0.00010002  0.75260140  0.94333477  1
  O2-  O138  1  0.50513687  0.24649359  0.27044714  1
  O2-  O139  1  0.49965295  0.24964698  0.60232304  1
  O2-  O140  1  0.49554346  0.25765575  0.94064373  1
  O2-  O141  1  0.49869252  0.75038359  0.27816862  1
  O2-  O142  1  0.50217918  0.75250270  0.60956054  1
  O2-  O143  1  0.50562058  0.74592641  0.93872405  1
  O2-  O144  1  0.07540916  0.17783809  0.08674577  1
  O2-  O145  1  0.06712484  0.17667893  0.43124694  1
  O2-  O146  1  0.07740888  0.18044246  0.75859638  1
  O2-  O147  1  0.07069490  0.68017104  0.09027159  1
  O2-  O148  1  0.07328954  0.68408949  0.42174257  1
  O2-  O149  1  0.07087763  0.67889719  0.76323818  1
  O2-  O150  1  0.56616416  0.18074743  0.10059245  1
  O2-  O151  1  0.56893305  0.17563040  0.42072649  1
  O2-  O152  1  0.57237493  0.17819287  0.76287005  1
  O2-  O153  1  0.57395924  0.67467921  0.08778507  1
  O2-  O154  1  0.57231827  0.67963972  0.42381949  1
  O2-  O155  1  0.56851942  0.67419782  0.75665548  1
  O2-  O156  1  0.17964957  0.43111567  0.23693952  1
  O2-  O157  1  0.17650166  0.42419473  0.58033367  1
  O2-  O158  1  0.17811638  0.43397718  0.90037753  1
  O2-  O159  1  0.18317467  0.92834851  0.23300600  1
  O2-  O160  1  0.17877964  0.93049925  0.57622588  1
  O2-  O161  1  0.18008634  0.92462367  0.90802682  1
  O2-  O162  1  0.67556095  0.42990172  0.24459912  1
  O2-  O163  1  0.68020543  0.43421437  0.57405346  1
  O2-  O164  1  0.68019694  0.42997493  0.89852127  1
  O2-  O165  1  0.67734902  0.92887089  0.23515842  1
  O2-  O166  1  0.67926962  0.92674277  0.57022130  1
  O2-  O167  1  0.68011981  0.93005197  0.90276135  1
  O2-  O168  1  0.42678340  0.32265561  0.09061469  1
  O2-  O169  1  0.43425760  0.32179491  0.43085470  1
  O2-  O170  1  0.42924728  0.32001438  0.76763709  1
  O2-  O171  1  0.42781867  0.81701350  0.10069651  1
  O2-  O172  1  0.42819989  0.82116931  0.42581461  1
  O2-  O173  1  0.42707139  0.82126255  0.75566403  1
  O2-  O174  1  0.93361353  0.32377514  0.09809714  1
  O2-  O175  1  0.92882376  0.32015869  0.43233491  1
  O2-  O176  1  0.92803887  0.32398657  0.75819608  1
  O2-  O177  1  0.92646509  0.82017840  0.08957917  1
  O2-  O178  1  0.92663691  0.81857711  0.43086110  1
  O2-  O179  1  0.93215369  0.81857196  0.76639350  1
  O2-  O180  1  0.32644032  0.06786899  0.24653588  1
  O2-  O181  1  0.31597484  0.07078923  0.57414877  1
  O2-  O182  1  0.32006285  0.06837085  0.89817933  1
  O2-  O183  1  0.31965136  0.57308442  0.23435271  1
  O2-  O184  1  0.32299722  0.56934069  0.57136314  1
  O2-  O185  1  0.31955453  0.57609826  0.91114274  1
  O2-  O186  1  0.81955245  0.07109596  0.24345749  1
  O2-  O187  1  0.82340196  0.07288282  0.56784111  1
  O2-  O188  1  0.82102774  0.07099667  0.90470230  1
  O2-  O189  1  0.81491051  0.57222333  0.23354851  1
  O2-  O190  1  0.82133370  0.57060120  0.57660531  1
  O2-  O191  1  0.82305549  0.56988566  0.90801286  1
  O2-  O192  1  0.04390993  0.08090512  0.26057984  1
  O2-  O193  1  0.04537102  0.08659599  0.60722643  1
  O2-  O194  1  0.05404098  0.08127011  0.93649753  1
  O2-  O195  1  0.04950601  0.58498451  0.27404798  1
  O2-  O196  1  0.04651957  0.57873291  0.59654254  1
  O2-  O197  1  0.03975514  0.59035043  0.93506915  1
  O2-  O198  1  0.54051197  0.08208296  0.27053037  1
  O2-  O199  1  0.54274023  0.07930248  0.59554908  1
  O2-  O200  1  0.53545054  0.08577132  0.93253213  1
  O2-  O201  1  0.54512389  0.58856384  0.26917819  1
  O2-  O202  1  0.53922627  0.58890057  0.60150029  1
  O2-  O203  1  0.54564778  0.58304065  0.93465938  1
  O2-  O204  1  0.17246774  0.20033218  0.26696137  1
  O2-  O205  1  0.16105725  0.20762555  0.60183626  1
  O2-  O206  1  0.16730757  0.20685667  0.93583263  1
  O2-  O207  1  0.16667247  0.70945723  0.27076035  1
  O2-  O208  1  0.17226472  0.70593839  0.59844627  1
  O2-  O209  1  0.16105871  0.70670684  0.93556796  1
  O2-  O210  1  0.66548987  0.19679114  0.27030399  1
  O2-  O211  1  0.66979172  0.20771848  0.59414366  1
  O2-  O212  1  0.66543616  0.21250937  0.93352849  1
  O2-  O213  1  0.66113933  0.70923785  0.26914453  1
  O2-  O214  1  0.66303954  0.70298955  0.60496117  1
  O2-  O215  1  0.66797501  0.69816765  0.93537778  1
  O2-  O216  1  0.08463822  0.46796360  0.06752667  1
  O2-  O217  1  0.08118151  0.45418571  0.40397277  1
  O2-  O218  1  0.08399913  0.45434446  0.73158220  1
  O2-  O219  1  0.08346002  0.94719299  0.05898458  1
  O2-  O220  1  0.08052908  0.96066229  0.39922710  1
  O2-  O221  1  0.08830601  0.95698343  0.73018111  1
  O2-  O222  1  0.58212520  0.45969506  0.06838276  1
  O2-  O223  1  0.58743369  0.45965671  0.39753789  1
  O2-  O224  1  0.59132260  0.46421731  0.72837817  1
  O2-  O225  1  0.58118189  0.95905374  0.06718223  1
  O2-  O226  1  0.58249839  0.95754216  0.40324296  1
  O2-  O227  1  0.57541235  0.95421218  0.73216667  1
  O2-  O228  1  0.20308790  0.33377732  0.06872725  1
  O2-  O229  1  0.20710546  0.32695086  0.40065667  1
  O2-  O230  1  0.20265347  0.33236595  0.73213285  1
  O2-  O231  1  0.20662297  0.83319369  0.06046571  1
  O2-  O232  1  0.21127848  0.83696713  0.40453645  1
  O2-  O233  1  0.20717730  0.83694254  0.72810502  1
  O2-  O234  1  0.70898824  0.33453644  0.06853102  1
  O2-  O235  1  0.69627906  0.32961014  0.39345518  1
  O2-  O236  1  0.70467775  0.33723974  0.72408428  1
  O2-  O237  1  0.70342337  0.82726121  0.06558351  1
  O2-  O238  1  0.70917874  0.83216563  0.40101821  1
  O2-  O239  1  0.70284820  0.82819220  0.73712461  1
  O2-  O240  1  0.46205790  0.41822519  0.26259569  1
  O2-  O241  1  0.46000951  0.42024524  0.60206601  1
  O2-  O242  1  0.44783792  0.42044838  0.94263711  1
  O2-  O243  1  0.45595652  0.91346727  0.27413446  1
  O2-  O244  1  0.45171728  0.91297474  0.60080340  1
  O2-  O245  1  0.45981274  0.91547884  0.93179927  1
  O2-  O246  1  0.95411021  0.42448824  0.26819528  1
  O2-  O247  1  0.95779527  0.41262655  0.60517825  1
  O2-  O248  1  0.96374613  0.41642257  0.93024236  1
  O2-  O249  1  0.95770597  0.91486379  0.26296195  1
  O2-  O250  1  0.95779608  0.92000047  0.60108091  1
  O2-  O251  1  0.95451798  0.91476328  0.93774576  1
  O2-  O252  1  0.33489964  0.29169311  0.26457120  1
  O2-  O253  1  0.33016229  0.29377445  0.60036496  1
  O2-  O254  1  0.33104297  0.29789043  0.94105290  1
  O2-  O255  1  0.33618830  0.79309091  0.27298086  1
  O2-  O256  1  0.33735408  0.79055499  0.60386435  1
  O2-  O257  1  0.33428727  0.78907844  0.92956758  1
  O2-  O258  1  0.82847842  0.29637620  0.26661204  1
  O2-  O259  1  0.83715032  0.29774943  0.60332132  1
  O2-  O260  1  0.83355151  0.29150118  0.93265562  1
  O2-  O261  1  0.83160199  0.78343560  0.26441350  1
  O2-  O262  1  0.82902099  0.79070224  0.60271015  1
  O2-  O263  1  0.83618349  0.79316239  0.93622980  1
  O2-  O264  1  0.41406968  0.03578882  0.06873167  1
  O2-  O265  1  0.41371402  0.04161967  0.40155252  1
  O2-  O266  1  0.41181015  0.04455212  0.72436804  1
  O2-  O267  1  0.41748415  0.55766731  0.06098036  1
  O2-  O268  1  0.42258066  0.54416681  0.39859394  1
  O2-  O269  1  0.41835449  0.54151879  0.73949078  1
  O2-  O270  1  0.92431462  0.04841997  0.06739868  1
  O2-  O271  1  0.91639004  0.04737266  0.39168590  1
  O2-  O272  1  0.91998296  0.04555417  0.73699144  1
  O2-  O273  1  0.91511562  0.54470677  0.06072385  1
  O2-  O274  1  0.91735793  0.54564733  0.40328424  1
  O2-  O275  1  0.91676016  0.54534501  0.72714964  1
  O2-  O276  1  0.29238202  0.16577344  0.06860837  1
  O2-  O277  1  0.30085592  0.16657467  0.39609555  1
  O2-  O278  1  0.28836149  0.16227508  0.72733189  1
  O2-  O279  1  0.28971291  0.66635770  0.06251652  1
  O2-  O280  1  0.29453338  0.66861111  0.40275175  1
  O2-  O281  1  0.29003764  0.66703898  0.73838115  1
  O2-  O282  1  0.79218559  0.16991669  0.07008280  1
  O2-  O283  1  0.79600733  0.16604290  0.39480999  1
  O2-  O284  1  0.79358015  0.17313030  0.73247739  1
  O2-  O285  1  0.79821095  0.66518894  0.05972577  1
  O2-  O286  1  0.78210920  0.66197201  0.40365344  1
  O2-  O287  1  0.79204169  0.66000153  0.73081807  1
