# generated using pymatgen
data_Ca2Al2SiO7
_symmetry_space_group_name_H-M   'P 1'
_cell_length_a   15.45826843
_cell_length_b   15.45916452
_cell_length_c   15.28393537
_cell_angle_alpha   90.00414468
_cell_angle_beta   89.99998101
_cell_angle_gamma   90.01510434
_symmetry_Int_Tables_number   1
_chemical_formula_structural   Ca2Al2SiO7
_chemical_formula_sum   'Ca48 Al48 Si24 O168'
_cell_volume   3652.43116519
_cell_formula_units_Z   24
loop_
 _symmetry_equiv_pos_site_id
 _symmetry_equiv_pos_as_xyz
  1  'x, y, z'
loop_
 _atom_type_symbol
 _atom_type_oxidation_number
  Ca2+  2.0
  Al0+  0.0
  Si0+  0.0
  O2-  -2.0
loop_
 _atom_site_type_symbol
 _atom_site_label
 _atom_site_symmetry_multiplicity
 _atom_site_fract_x
 _atom_site_fract_y
 _atom_site_fract_z
 _atom_site_occupancy
  Ca2+  Ca0  1  0.17348165  0.07916969  0.17076317  1
  Ca2+  Ca1  1  0.16242517  0.07015990  0.50427762  1
  Ca2+  Ca2  1  0.17002163  0.07936052  0.83487208  1
  Ca2+  Ca3  1  0.17557639  0.58320719  0.16962291  1
  Ca2+  Ca4  1  0.17813118  0.58524205  0.51136387  1
  Ca2+  Ca5  1  0.17074952  0.57775974  0.83331603  1
  Ca2+  Ca6  1  0.66455170  0.07023234  0.17335200  1
  Ca2+  Ca7  1  0.66643289  0.07719541  0.50895508  1
  Ca2+  Ca8  1  0.66882571  0.07605016  0.83113060  1
  Ca2+  Ca9  1  0.67674114  0.58972700  0.17301396  1
  Ca2+  Ca10  1  0.67206020  0.58451267  0.50324037  1
  Ca2+  Ca11  1  0.67184802  0.57497970  0.83551836  1
  Ca2+  Ca12  1  0.08650582  0.33523331  0.16126235  1
  Ca2+  Ca13  1  0.07972602  0.33885416  0.50360345  1
  Ca2+  Ca14  1  0.08173938  0.33847373  0.82442240  1
  Ca2+  Ca15  1  0.07070605  0.83734751  0.16271594  1
  Ca2+  Ca16  1  0.07628207  0.83518065  0.49702891  1
  Ca2+  Ca17  1  0.07338088  0.82869846  0.82039306  1
  Ca2+  Ca18  1  0.58341564  0.32487854  0.16489262  1
  Ca2+  Ca19  1  0.58683605  0.32474544  0.50058878  1
  Ca2+  Ca20  1  0.57701457  0.32826039  0.81632710  1
  Ca2+  Ca21  1  0.59167294  0.82875979  0.16533505  1
  Ca2+  Ca22  1  0.58596093  0.83157296  0.49284021  1
  Ca2+  Ca23  1  0.58490592  0.83617267  0.82987369  1
  Ca2+  Ca24  1  0.32966668  0.42612212  0.16869109  1
  Ca2+  Ca25  1  0.33335932  0.42628216  0.51036038  1
  Ca2+  Ca26  1  0.32705557  0.42265240  0.83600384  1
  Ca2+  Ca27  1  0.32688516  0.92032391  0.17136510  1
  Ca2+  Ca28  1  0.31918826  0.91072232  0.50477380  1
  Ca2+  Ca29  1  0.32522817  0.92044941  0.83478080  1
  Ca2+  Ca30  1  0.83627309  0.43367341  0.17153015  1
  Ca2+  Ca31  1  0.82914708  0.42102432  0.50825206  1
  Ca2+  Ca32  1  0.83160340  0.41844929  0.83409614  1
  Ca2+  Ca33  1  0.82578956  0.90763461  0.17152648  1
  Ca2+  Ca34  1  0.82578178  0.91664863  0.50779094  1
  Ca2+  Ca35  1  0.82703386  0.91091477  0.83227288  1
  Ca2+  Ca36  1  0.42102104  0.16059193  0.16180748  1
  Ca2+  Ca37  1  0.42773928  0.17149798  0.49782119  1
  Ca2+  Ca38  1  0.42014608  0.17110745  0.82276491  1
  Ca2+  Ca39  1  0.41915320  0.66150859  0.16724759  1
  Ca2+  Ca40  1  0.42144727  0.66137530  0.49422541  1
  Ca2+  Ca41  1  0.41513301  0.66133799  0.82805539  1
  Ca2+  Ca42  1  0.92026079  0.16939672  0.16382788  1
  Ca2+  Ca43  1  0.90833026  0.17128258  0.50357137  1
  Ca2+  Ca44  1  0.91540424  0.17272298  0.82179263  1
  Ca2+  Ca45  1  0.90828622  0.67580123  0.16141039  1
  Ca2+  Ca46  1  0.91977779  0.67627648  0.49572492  1
  Ca2+  Ca47  1  0.92090971  0.67326636  0.82666947  1
  Al0+  Al48  1  -0.00226431  0.00160628  -0.00631607  1
  Al0+  Al49  1  -0.00052824  0.00202029  0.33074471  1
  Al0+  Al50  1  -0.00160236  0.00098888  0.67107121  1
  Al0+  Al51  1  -0.00069798  0.50051819  0.00736545  1
  Al0+  Al52  1  0.00052514  0.50184594  0.33646482  1
  Al0+  Al53  1  0.00256701  0.50145315  0.66046959  1
  Al0+  Al54  1  0.50063493  -0.00243223  0.00618586  1
  Al0+  Al55  1  0.49900808  0.00064195  0.33260060  1
  Al0+  Al56  1  0.49990876  -0.00158953  0.66486700  1
  Al0+  Al57  1  0.49977256  0.49775924  0.00259776  1
  Al0+  Al58  1  0.50029143  0.49853247  0.33016225  1
  Al0+  Al59  1  0.50157384  0.50024534  0.66983550  1
  Al0+  Al60  1  0.25138767  0.24892507  0.00731491  1
  Al0+  Al61  1  0.24971008  0.25084449  0.33287161  1
  Al0+  Al62  1  0.24998154  0.25128404  0.66228626  1
  Al0+  Al63  1  0.24985715  0.74975622  0.00314788  1
  Al0+  Al64  1  0.24959852  0.74934815  0.33934408  1
  Al0+  Al65  1  0.25071482  0.75082233  0.67286206  1
  Al0+  Al66  1  0.75039645  0.24713423  -0.00021218  1
  Al0+  Al67  1  0.75014559  0.25050453  0.32360068  1
  Al0+  Al68  1  0.75051889  0.24949789  0.66637633  1
  Al0+  Al69  1  0.74857317  0.74920768  -0.00035509  1
  Al0+  Al70  1  0.74988062  0.75014776  0.33515115  1
  Al0+  Al71  1  0.74998040  0.75058820  0.66751296  1
  Al0+  Al72  1  0.17823888  0.42826634  0.68008844  1
  Al0+  Al73  1  0.82078778  0.57204524  0.34929434  1
  Al0+  Al74  1  0.32034149  0.06904760  0.01212131  1
  Al0+  Al75  1  0.68081520  0.42911578  0.67794555  1
  Al0+  Al76  1  0.17764450  0.92922355  0.68119665  1
  Al0+  Al77  1  0.92755998  0.82038943  0.98387495  1
  Al0+  Al78  1  0.92934007  0.32196159  0.65389028  1
  Al0+  Al79  1  0.32322954  0.57292515  0.01764654  1
  Al0+  Al80  1  0.32161839  0.56907826  0.34863266  1
  Al0+  Al81  1  0.82037046  0.07157668  0.68130204  1
  Al0+  Al82  1  0.68161426  0.93044744  0.01510989  1
  Al0+  Al83  1  0.81812564  0.56893241  0.01185530  1
  Al0+  Al84  1  0.57063801  0.17809197  0.31664794  1
  Al0+  Al85  1  0.17812656  0.93083612  0.34559426  1
  Al0+  Al86  1  0.67726125  0.92681883  0.68192530  1
  Al0+  Al87  1  0.93029493  0.82083777  0.31901882  1
  Al0+  Al88  1  0.92786127  0.82219022  0.64998707  1
  Al0+  Al89  1  0.42769834  0.32329229  0.65152357  1
  Al0+  Al90  1  0.07314367  0.68007568  0.65128370  1
  Al0+  Al91  1  0.32309461  0.57161381  0.68247463  1
  Al0+  Al92  1  0.17874282  0.42937415  0.01570455  1
  Al0+  Al93  1  0.67960504  0.93030129  0.34735518  1
  Al0+  Al94  1  0.57103931  0.17751325  0.65231220  1
  Al0+  Al95  1  0.57014525  0.67950753  0.32022094  1
  Si0+  Si96  1  0.07293756  0.67744643  0.98460696  1
  Si0+  Si97  1  0.42808447  0.82153867  0.98629835  1
  Si0+  Si98  1  0.07347109  0.67798802  0.31551787  1
  Si0+  Si99  1  0.56960786  0.67821562  0.98463340  1
  Si0+  Si100  1  0.82318651  0.57227460  0.68216224  1
  Si0+  Si101  1  0.82364953  0.07454797  0.01852516  1
  Si0+  Si102  1  0.92972720  0.32339798  0.31646977  1
  Si0+  Si103  1  0.32151712  0.07162235  0.67962853  1
  Si0+  Si104  1  0.42518860  0.82156284  0.31693148  1
  Si0+  Si105  1  0.17775635  0.42654615  0.35217352  1
  Si0+  Si106  1  0.92991707  0.32179179  0.98634518  1
  Si0+  Si107  1  0.17499397  0.92853357  0.01542211  1
  Si0+  Si108  1  0.67973317  0.42595947  0.34794315  1
  Si0+  Si109  1  0.57056895  0.17614904  0.98397129  1
  Si0+  Si110  1  0.32212481  0.07363255  0.35167516  1
  Si0+  Si111  1  0.07301548  0.17731882  0.64969925  1
  Si0+  Si112  1  0.42686380  0.32098931  0.31329410  1
  Si0+  Si113  1  0.07275950  0.18042260  0.98505748  1
  Si0+  Si114  1  0.42899241  0.82121661  0.65311016  1
  Si0+  Si115  1  0.67711855  0.42425322  0.01697025  1
  Si0+  Si116  1  0.57114733  0.67878272  0.65389650  1
  Si0+  Si117  1  0.07151571  0.18004454  0.31735722  1
  Si0+  Si118  1  0.82209669  0.07487092  0.34785541  1
  Si0+  Si119  1  0.43001086  0.31925938  0.98531194  1
  O2-  O120  1  0.24483756  -0.00428004  0.06012958  1
  O2-  O121  1  0.25453723  0.00341870  0.39415440  1
  O2-  O122  1  0.25115456  0.00602635  0.72604911  1
  O2-  O123  1  0.24889427  0.50265260  0.06631882  1
  O2-  O124  1  0.24646392  0.49519896  0.39462325  1
  O2-  O125  1  0.25096593  0.49873463  0.73035440  1
  O2-  O126  1  0.75764425  0.00367084  0.06238202  1
  O2-  O127  1  0.75245215  0.00751787  0.39140147  1
  O2-  O128  1  0.75059637  -0.00241933  0.73144237  1
  O2-  O129  1  0.74504699  0.49329310  0.06109369  1
  O2-  O130  1  0.74643960  0.49580405  0.39304202  1
  O2-  O131  1  0.75650663  0.50158947  0.72652628  1
  O2-  O132  1  0.00271342  0.25356955  0.27477951  1
  O2-  O133  1  0.00459845  0.24737917  0.60671804  1
  O2-  O134  1  0.00140677  0.25149359  0.94376135  1
  O2-  O135  1  0.00441600  0.74583384  0.27016381  1
  O2-  O136  1  0.00118096  0.75163742  0.60019775  1
  O2-  O137  1  0.00694715  0.74893015  0.94046771  1
  O2-  O138  1  0.49388703  0.25050219  0.26825434  1
  O2-  O139  1  0.50000549  0.25091415  0.60252588  1
  O2-  O140  1  0.50333031  0.25076346  0.94225469  1
  O2-  O141  1  0.49558745  0.75458180  0.27215029  1
  O2-  O142  1  0.50050485  0.75030136  0.61223155  1
  O2-  O143  1  0.49404907  0.74541326  0.94388211  1
  O2-  O144  1  0.07100853  0.17968313  0.09068414  1
  O2-  O145  1  0.07190664  0.17856160  0.42179020  1
  O2-  O146  1  0.07434677  0.17765219  0.75562389  1
  O2-  O147  1  0.07306037  0.67865257  0.09044478  1
  O2-  O148  1  0.07320853  0.67896723  0.42057782  1
  O2-  O149  1  0.07109784  0.68029059  0.76558322  1
  O2-  O150  1  0.56914468  0.17725774  0.08934530  1
  O2-  O151  1  0.57181988  0.18007959  0.42900182  1
  O2-  O152  1  0.56762830  0.17768380  0.76663020  1
  O2-  O153  1  0.57173854  0.67997562  0.08975240  1
  O2-  O154  1  0.56937010  0.67993472  0.43338292  1
  O2-  O155  1  0.57116806  0.67841072  0.75946871  1
  O2-  O156  1  0.17837221  0.42539741  0.24626144  1
  O2-  O157  1  0.17971937  0.42976793  0.56658337  1
  O2-  O158  1  0.17863513  0.42725769  0.90287357  1
  O2-  O159  1  0.17869617  0.93467151  0.23198916  1
  O2-  O160  1  0.17929444  0.93033732  0.56789761  1
  O2-  O161  1  0.17652662  0.93030478  0.91009101  1
  O2-  O162  1  0.68322630  0.42492715  0.24182405  1
  O2-  O163  1  0.68179044  0.43167382  0.56472364  1
  O2-  O164  1  0.67711056  0.42410800  0.91149939  1
  O2-  O165  1  0.68206542  0.92998436  0.23382088  1
  O2-  O166  1  0.67627543  0.92680247  0.56852270  1
  O2-  O167  1  0.67903956  0.93194836  0.90267805  1
  O2-  O168  1  0.43194473  0.31798198  0.09061032  1
  O2-  O169  1  0.42653479  0.32024261  0.41828593  1
  O2-  O170  1  0.42855136  0.32042431  0.76596000  1
  O2-  O171  1  0.42908411  0.82368525  0.09128059  1
  O2-  O172  1  0.42442592  0.82067939  0.42254313  1
  O2-  O173  1  0.42936705  0.82320006  0.75868803  1
  O2-  O174  1  0.93031617  0.31949779  0.09183974  1
  O2-  O175  1  0.92759476  0.32204044  0.42107952  1
  O2-  O176  1  0.93017602  0.32108720  0.76760635  1
  O2-  O177  1  0.92813103  0.81931040  0.09746500  1
  O2-  O178  1  0.93128296  0.82224869  0.43125722  1
  O2-  O179  1  0.92752509  0.81739693  0.76393320  1
  O2-  O180  1  0.31994540  0.07329805  0.24545421  1
  O2-  O181  1  0.32118753  0.06816805  0.57413957  1
  O2-  O182  1  0.31909400  0.06872567  0.89913622  1
  O2-  O183  1  0.32004814  0.56790458  0.23547634  1
  O2-  O184  1  0.32418761  0.57155757  0.56886999  1
  O2-  O185  1  0.32536010  0.56993968  0.90495966  1
  O2-  O186  1  0.82272897  0.07535776  0.24178141  1
  O2-  O187  1  0.81827768  0.07240629  0.56733738  1
  O2-  O188  1  0.82203016  0.08087454  0.91386512  1
  O2-  O189  1  0.81948280  0.57083560  0.23561869  1
  O2-  O190  1  0.81965222  0.57266261  0.57655330  1
  O2-  O191  1  0.81677100  0.56583601  0.89891971  1
  O2-  O192  1  0.04122370  0.09080968  0.26580813  1
  O2-  O193  1  0.04427694  0.08474449  0.60366430  1
  O2-  O194  1  0.04607463  0.08929703  0.93582223  1
  O2-  O195  1  0.04922111  0.58290166  0.27094964  1
  O2-  O196  1  0.04774579  0.58253684  0.59588230  1
  O2-  O197  1  0.04290458  0.58392942  0.94084945  1
  O2-  O198  1  0.53888105  0.08126966  0.26196535  1
  O2-  O199  1  0.54074711  0.07990164  0.59827026  1
  O2-  O200  1  0.53871407  0.08482366  0.93909409  1
  O2-  O201  1  0.54215800  0.58223870  0.26450547  1
  O2-  O202  1  0.54395852  0.58777954  0.60531290  1
  O2-  O203  1  0.54598591  0.58380607  0.93937534  1
  O2-  O204  1  0.16407047  0.20616679  0.26873531  1
  O2-  O205  1  0.16569579  0.20048722  0.60072277  1
  O2-  O206  1  0.16576573  0.20699158  0.93995976  1
  O2-  O207  1  0.16752757  0.70479614  0.27053033  1
  O2-  O208  1  0.17252252  0.71061692  0.60134094  1
  O2-  O209  1  0.16831003  0.69927185  0.94007270  1
  O2-  O210  1  0.66598338  0.21007373  0.25869514  1
  O2-  O211  1  0.66854559  0.20707201  0.59949374  1
  O2-  O212  1  0.66491281  0.19983535  0.93956502  1
  O2-  O213  1  0.66582097  0.71269429  0.26514498  1
  O2-  O214  1  0.66276129  0.70565438  0.60600562  1
  O2-  O215  1  0.65887337  0.70993104  0.93523547  1
  O2-  O216  1  0.08055443  0.45488089  0.07138820  1
  O2-  O217  1  0.08331595  0.45064424  0.39601483  1
  O2-  O218  1  0.07935620  0.45751169  0.73223636  1
  O2-  O219  1  0.08158313  0.95786061  0.05991443  1
  O2-  O220  1  0.08297573  0.96651520  0.39906990  1
  O2-  O221  1  0.08247993  0.95964506  0.73658785  1
  O2-  O222  1  0.58378493  0.44838418  0.06351444  1
  O2-  O223  1  0.58449373  0.44787137  0.39008574  1
  O2-  O224  1  0.58676843  0.46154049  0.73558994  1
  O2-  O225  1  0.58594000  0.96092419  0.07113409  1
  O2-  O226  1  0.58031269  0.95698572  0.39765989  1
  O2-  O227  1  0.57844335  0.95588780  0.73467840  1
  O2-  O228  1  0.20902022  0.33199364  0.07107951  1
  O2-  O229  1  0.20138856  0.33174564  0.39647185  1
  O2-  O230  1  0.20297805  0.32776452  0.73119297  1
  O2-  O231  1  0.19885232  0.83492248  0.06149927  1
  O2-  O232  1  0.20739614  0.83493400  0.40063717  1
  O2-  O233  1  0.21253473  0.83634704  0.73856971  1
  O2-  O234  1  0.70319742  0.33022336  0.06255380  1
  O2-  O235  1  0.70917241  0.33276460  0.39235653  1
  O2-  O236  1  0.70965289  0.33334879  0.73342761  1
  O2-  O237  1  0.71139830  0.83292399  0.06756558  1
  O2-  O238  1  0.71059675  0.83459692  0.40083792  1
  O2-  O239  1  0.70523741  0.82853181  0.73644099  1
  O2-  O240  1  0.45519961  0.41311207  0.26538754  1
  O2-  O241  1  0.45982123  0.42113404  0.59994474  1
  O2-  O242  1  0.45540149  0.41219699  0.93895026  1
  O2-  O243  1  0.44729452  0.91667640  0.27209347  1
  O2-  O244  1  0.45487728  0.91164713  0.60241758  1
  O2-  O245  1  0.46172380  0.91127037  0.93796878  1
  O2-  O246  1  0.95809095  0.41576959  0.26953584  1
  O2-  O247  1  0.95872032  0.41697021  0.59633154  1
  O2-  O248  1  0.95594597  0.41458086  0.94088225  1
  O2-  O249  1  0.96050593  0.91830361  0.26407649  1
  O2-  O250  1  0.95467468  0.92261435  0.60149008  1
  O2-  O251  1  0.95272002  0.91937178  0.93149164  1
  O2-  O252  1  0.33214313  0.29640312  0.26746712  1
  O2-  O253  1  0.33018085  0.29604184  0.59622359  1
  O2-  O254  1  0.33791326  0.28843962  0.94083421  1
  O2-  O255  1  0.33219238  0.79382400  0.26994749  1
  O2-  O256  1  0.33733195  0.79312381  0.60627282  1
  O2-  O257  1  0.33381512  0.80000827  0.94004339  1
  O2-  O258  1  0.84020740  0.29500725  0.26448801  1
  O2-  O259  1  0.83435780  0.28964648  0.59786078  1
  O2-  O260  1  0.83714319  0.29369486  0.94010324  1
  O2-  O261  1  0.83401937  0.78692091  0.26595701  1
  O2-  O262  1  0.82888932  0.79232989  0.59861644  1
  O2-  O263  1  0.83194988  0.78483602  0.93115933  1
  O2-  O264  1  0.41450696  0.03608636  0.06959486  1
  O2-  O265  1  0.41625408  0.05015358  0.39572411  1
  O2-  O266  1  0.41342777  0.04307953  0.72709874  1
  O2-  O267  1  0.42129429  0.54102991  0.07061222  1
  O2-  O268  1  0.41955229  0.53782994  0.39957906  1
  O2-  O269  1  0.42102060  0.54379497  0.73628524  1
  O2-  O270  1  0.91927994  0.05161959  0.06190140  1
  O2-  O271  1  0.91604164  0.05116198  0.39264798  1
  O2-  O272  1  0.91912223  0.04889626  0.73604867  1
  O2-  O273  1  0.91325703  0.54033646  0.06993271  1
  O2-  O274  1  0.91797618  0.54228207  0.40169415  1
  O2-  O275  1  0.91745520  0.54748106  0.72537182  1
  O2-  O276  1  0.29090475  0.16345071  0.07120876  1
  O2-  O277  1  0.29488828  0.16724817  0.39594852  1
  O2-  O278  1  0.29799265  0.16606889  0.72440646  1
  O2-  O279  1  0.29792648  0.67279573  0.07017332  1
  O2-  O280  1  0.29413031  0.66635545  0.40209584  1
  O2-  O281  1  0.29557173  0.66924229  0.73715789  1
  O2-  O282  1  0.79688899  0.16727054  0.06749837  1
  O2-  O283  1  0.79701864  0.17010046  0.39044516  1
  O2-  O284  1  0.79095743  0.16893789  0.73618370  1
  O2-  O285  1  0.78341066  0.66377815  0.06657090  1
  O2-  O286  1  0.78697812  0.66630712  0.40379045  1
  O2-  O287  1  0.79392583  0.66385754  0.72947869  1
