# generated using pymatgen
data_Ca2Al2SiO7
_symmetry_space_group_name_H-M   'P 1'
_cell_length_a   15.45891130
_cell_length_b   15.45921778
_cell_length_c   15.28414802
_cell_angle_alpha   89.99751410
_cell_angle_beta   89.98709543
_cell_angle_gamma   90.00544825
_symmetry_Int_Tables_number   1
_chemical_formula_structural   Ca2Al2SiO7
_chemical_formula_sum   'Ca48 Al48 Si24 O168'
_cell_volume   3652.64648844
_cell_formula_units_Z   24
loop_
 _symmetry_equiv_pos_site_id
 _symmetry_equiv_pos_as_xyz
  1  'x, y, z'
loop_
 _atom_type_symbol
 _atom_type_oxidation_number
  Ca2+  2.0
  Al0+  0.0
  Si0+  0.0
  O2-  -2.0
loop_
 _atom_site_type_symbol
 _atom_site_label
 _atom_site_symmetry_multiplicity
 _atom_site_fract_x
 _atom_site_fract_y
 _atom_site_fract_z
 _atom_site_occupancy
  Ca2+  Ca0  1  0.16522049  0.07110869  0.17538373  1
  Ca2+  Ca1  1  0.17465977  0.08781882  0.50010546  1
  Ca2+  Ca2  1  0.17505329  0.07764250  0.83852741  1
  Ca2+  Ca3  1  0.17457003  0.58225200  0.17046098  1
  Ca2+  Ca4  1  0.17297273  0.58593245  0.49948750  1
  Ca2+  Ca5  1  0.17618278  0.58160522  0.84084683  1
  Ca2+  Ca6  1  0.66650044  0.08704259  0.16443261  1
  Ca2+  Ca7  1  0.67057914  0.08081077  0.50706926  1
  Ca2+  Ca8  1  0.67455459  0.07362563  0.83938250  1
  Ca2+  Ca9  1  0.66984156  0.58129725  0.17069795  1
  Ca2+  Ca10  1  0.67434740  0.57865333  0.50720154  1
  Ca2+  Ca11  1  0.67325542  0.58546724  0.83376591  1
  Ca2+  Ca12  1  0.07770010  0.33152188  0.16187047  1
  Ca2+  Ca13  1  0.07630090  0.32497879  0.48911904  1
  Ca2+  Ca14  1  0.08283090  0.33646222  0.83520703  1
  Ca2+  Ca15  1  0.08895470  0.83168381  0.16081533  1
  Ca2+  Ca16  1  0.08025584  0.83086246  0.49471679  1
  Ca2+  Ca17  1  0.07158586  0.84425743  0.83325277  1
  Ca2+  Ca18  1  0.57605948  0.32120679  0.16524714  1
  Ca2+  Ca19  1  0.57636831  0.32449335  0.48869704  1
  Ca2+  Ca20  1  0.58423054  0.32502080  0.83364019  1
  Ca2+  Ca21  1  0.57463184  0.83577984  0.15679293  1
  Ca2+  Ca22  1  0.57858249  0.83768287  0.50335131  1
  Ca2+  Ca23  1  0.57475133  0.84331456  0.82962512  1
  Ca2+  Ca24  1  0.33647613  0.42667257  0.17242607  1
  Ca2+  Ca25  1  0.33907979  0.42600668  0.50381572  1
  Ca2+  Ca26  1  0.32773075  0.42899917  0.84205841  1
  Ca2+  Ca27  1  0.32364618  0.91647810  0.17196350  1
  Ca2+  Ca28  1  0.32931931  0.92702825  0.50310630  1
  Ca2+  Ca29  1  0.33246660  0.91454560  0.83831326  1
  Ca2+  Ca30  1  0.83732293  0.40933550  0.16847993  1
  Ca2+  Ca31  1  0.83652720  0.41963136  0.50356019  1
  Ca2+  Ca32  1  0.83904519  0.42312488  0.83862748  1
  Ca2+  Ca33  1  0.83159841  0.91915046  0.16457013  1
  Ca2+  Ca34  1  0.82656491  0.92250849  0.51325739  1
  Ca2+  Ca35  1  0.82836607  0.92070703  0.84279206  1
  Ca2+  Ca36  1  0.42512549  0.15746586  0.16549314  1
  Ca2+  Ca37  1  0.41847241  0.16751712  0.48820473  1
  Ca2+  Ca38  1  0.42419046  0.15775739  0.82895136  1
  Ca2+  Ca39  1  0.41135796  0.66987376  0.15999341  1
  Ca2+  Ca40  1  0.40651695  0.67177170  0.49849464  1
  Ca2+  Ca41  1  0.40949673  0.67626359  0.82965146  1
  Ca2+  Ca42  1  0.92031673  0.17273199  0.16079902  1
  Ca2+  Ca43  1  0.92098820  0.16858455  0.49127660  1
  Ca2+  Ca44  1  0.91197606  0.16541218  0.83279524  1
  Ca2+  Ca45  1  0.92795845  0.67387057  0.16100017  1
  Ca2+  Ca46  1  0.92052515  0.67142518  0.49583289  1
  Ca2+  Ca47  1  0.91475961  0.67959276  0.82581672  1
  Al0+  Al48  1  0.00088420  0.00135393  0.00395842  1
  Al0+  Al49  1  -0.00397057  -0.00044182  0.33502826  1
  Al0+  Al50  1  0.00057162  0.00174175  0.66277705  1
  Al0+  Al51  1  0.00193276  0.49954971  -0.00087369  1
  Al0+  Al52  1  0.00111235  0.50399950  0.32633150  1
  Al0+  Al53  1  -0.00020353  0.49950855  0.66928396  1
  Al0+  Al54  1  0.50231073  -0.00108396  -0.00607127  1
  Al0+  Al55  1  0.49959078  -0.00196482  0.33303814  1
  Al0+  Al56  1  0.49972323  -0.00069242  0.66648027  1
  Al0+  Al57  1  0.50285683  0.49954734  0.00213118  1
  Al0+  Al58  1  0.50223348  0.50018656  0.33559911  1
  Al0+  Al59  1  0.50007377  0.50020517  0.67205281  1
  Al0+  Al60  1  0.25013684  0.25168724  0.00274739  1
  Al0+  Al61  1  0.24865606  0.25138648  0.32754468  1
  Al0+  Al62  1  0.25036925  0.24985165  0.67132205  1
  Al0+  Al63  1  0.25144226  0.74986687  0.00160937  1
  Al0+  Al64  1  0.24802842  0.74959499  0.33786355  1
  Al0+  Al65  1  0.24906844  0.74998672  0.66532506  1
  Al0+  Al66  1  0.75088055  0.25078775  -0.00624283  1
  Al0+  Al67  1  0.74761323  0.24991209  0.32811902  1
  Al0+  Al68  1  0.74943669  0.24943550  0.66793360  1
  Al0+  Al69  1  0.75005703  0.75006002  0.00187995  1
  Al0+  Al70  1  0.74895896  0.74976676  0.33468091  1
  Al0+  Al71  1  0.74770768  0.74846684  0.66846633  1
  Al0+  Al72  1  0.32195882  0.56903032  0.34915362  1
  Al0+  Al73  1  0.32202762  0.57046954  0.01608238  1
  Al0+  Al74  1  0.82049788  0.07258486  0.01723928  1
  Al0+  Al75  1  0.32043689  0.07156966  0.68006443  1
  Al0+  Al76  1  0.82349135  0.07220772  0.68088306  1
  Al0+  Al77  1  0.07158399  0.68270114  0.31893933  1
  Al0+  Al78  1  0.32104600  0.07141869  0.34610745  1
  Al0+  Al79  1  0.92971653  0.82161050  0.98743062  1
  Al0+  Al80  1  0.92937276  0.32149665  0.31900848  1
  Al0+  Al81  1  0.92713594  0.82190639  0.65311863  1
  Al0+  Al82  1  0.17567477  0.92821217  0.35069629  1
  Al0+  Al83  1  0.56945210  0.17963552  0.98271243  1
  Al0+  Al84  1  0.82177633  0.56939442  0.67968066  1
  Al0+  Al85  1  0.32035567  0.57195411  0.68122100  1
  Al0+  Al86  1  0.93105041  0.32046469  0.98306992  1
  Al0+  Al87  1  0.67837467  0.92833774  0.01713598  1
  Al0+  Al88  1  0.56887642  0.17623116  0.31819189  1
  Al0+  Al89  1  0.42734371  0.32414910  0.31932068  1
  Al0+  Al90  1  0.42945548  0.81843537  0.98717278  1
  Al0+  Al91  1  0.17764903  0.42828356  0.01758089  1
  Al0+  Al92  1  0.18003839  0.93092152  0.01191342  1
  Al0+  Al93  1  0.67898450  0.92855121  0.68164868  1
  Al0+  Al94  1  0.07170002  0.17591384  0.31757634  1
  Al0+  Al95  1  0.42803271  0.82073835  0.65024669  1
  Si0+  Si96  1  0.17804622  0.92791756  0.68250421  1
  Si0+  Si97  1  0.82193705  0.57196844  0.34695478  1
  Si0+  Si98  1  0.81753698  0.07222520  0.34784910  1
  Si0+  Si99  1  0.07393052  0.17709894  0.98167229  1
  Si0+  Si100  1  0.17810342  0.42691777  0.68253981  1
  Si0+  Si101  1  0.07346216  0.18007103  0.65236274  1
  Si0+  Si102  1  0.57095088  0.67505611  0.64899651  1
  Si0+  Si103  1  0.07228811  0.67918664  0.98190947  1
  Si0+  Si104  1  0.32436964  0.07237085  0.01482175  1
  Si0+  Si105  1  0.68092793  0.42869288  0.34784542  1
  Si0+  Si106  1  0.42871613  0.32180697  0.65419171  1
  Si0+  Si107  1  0.17534094  0.42904997  0.34953429  1
  Si0+  Si108  1  0.42774569  0.32414573  0.98198674  1
  Si0+  Si109  1  0.56998650  0.17998920  0.65109920  1
  Si0+  Si110  1  0.07015860  0.67651097  0.65025633  1
  Si0+  Si111  1  0.68096079  0.42849484  0.01580258  1
  Si0+  Si112  1  0.43012108  0.81814475  0.32006877  1
  Si0+  Si113  1  0.67773848  0.42707015  0.68413165  1
  Si0+  Si114  1  0.67817842  0.92642531  0.34938703  1
  Si0+  Si115  1  0.57398379  0.67518449  0.98330711  1
  Si0+  Si116  1  0.92910742  0.32152662  0.65240461  1
  Si0+  Si117  1  0.92434204  0.82179864  0.31707724  1
  Si0+  Si118  1  0.57368582  0.67854437  0.31992379  1
  Si0+  Si119  1  0.82172611  0.57171646  0.01608744  1
  O2-  O120  1  0.25323425  0.00682802  0.05877453  1
  O2-  O121  1  0.24543769  0.00405906  0.39848943  1
  O2-  O122  1  0.24805721  -0.00488440  0.72665891  1
  O2-  O123  1  0.25261339  0.49699713  0.06722185  1
  O2-  O124  1  0.24950889  0.49121458  0.39556573  1
  O2-  O125  1  0.24549329  0.49715026  0.72587669  1
  O2-  O126  1  0.74946420  0.00010289  0.06875433  1
  O2-  O127  1  0.74838247  -0.00094176  0.38992441  1
  O2-  O128  1  0.75635381  -0.00444878  0.73014235  1
  O2-  O129  1  0.75149399  0.50003186  0.05876487  1
  O2-  O130  1  0.75442499  0.49759453  0.38965837  1
  O2-  O131  1  0.74782479  0.49454315  0.72794402  1
  O2-  O132  1  0.00141488  0.25037160  0.26855279  1
  O2-  O133  1  -0.00153299  0.24877544  0.61137887  1
  O2-  O134  1  0.00626963  0.24660117  0.93581573  1
  O2-  O135  1  -0.00103012  0.75985211  0.27308685  1
  O2-  O136  1  0.00118631  0.74585760  0.60682461  1
  O2-  O137  1  0.00373770  0.74769949  0.93758558  1
  O2-  O138  1  0.49206181  0.24482816  0.27007311  1
  O2-  O139  1  0.49852665  0.25087428  0.60986162  1
  O2-  O140  1  0.49088209  0.25121178  0.93587544  1
  O2-  O141  1  0.50069737  0.74658793  0.27780507  1
  O2-  O142  1  0.50159248  0.74312165  0.60440758  1
  O2-  O143  1  0.50456746  0.74329152  0.94054532  1
  O2-  O144  1  0.07191223  0.17664841  0.08683579  1
  O2-  O145  1  0.06782861  0.17844329  0.43230629  1
  O2-  O146  1  0.07655257  0.18169409  0.75709756  1
  O2-  O147  1  0.07084474  0.68015711  0.08767210  1
  O2-  O148  1  0.06755550  0.68039906  0.43241668  1
  O2-  O149  1  0.06890048  0.67408582  0.75556560  1
  O2-  O150  1  0.56817508  0.18142061  0.09568724  1
  O2-  O151  1  0.57232228  0.17927062  0.43238223  1
  O2-  O152  1  0.57041110  0.18217488  0.75602333  1
  O2-  O153  1  0.57492774  0.67390226  0.08941031  1
  O2-  O154  1  0.57862017  0.67952646  0.42466852  1
  O2-  O155  1  0.57071641  0.67155519  0.75420382  1
  O2-  O156  1  0.17238425  0.43524422  0.24473321  1
  O2-  O157  1  0.17755559  0.42450544  0.57707779  1
  O2-  O158  1  0.17837393  0.43214605  0.90310461  1
  O2-  O159  1  0.18043333  0.92601925  0.23705807  1
  O2-  O160  1  0.17820303  0.92907634  0.57707813  1
  O2-  O161  1  0.18003818  0.93249294  0.89845958  1
  O2-  O162  1  0.68007293  0.43093607  0.24284807  1
  O2-  O163  1  0.67784860  0.42681088  0.57822895  1
  O2-  O164  1  0.68087987  0.43056214  0.91044220  1
  O2-  O165  1  0.67865277  0.92152835  0.24495440  1
  O2-  O166  1  0.67868060  0.93292354  0.56704091  1
  O2-  O167  1  0.67888707  0.92878578  0.90395451  1
  O2-  O168  1  0.43242575  0.32743167  0.08711301  1
  O2-  O169  1  0.43435792  0.32694406  0.43373060  1
  O2-  O170  1  0.43070501  0.32150418  0.75910437  1
  O2-  O171  1  0.42963183  0.81715912  0.10083075  1
  O2-  O172  1  0.43239426  0.81839860  0.42527026  1
  O2-  O173  1  0.42801624  0.81962582  0.76307462  1
  O2-  O174  1  0.93089781  0.31997918  0.09577646  1
  O2-  O175  1  0.92836713  0.32070027  0.43360500  1
  O2-  O176  1  0.93053035  0.32397613  0.75709163  1
  O2-  O177  1  0.92997037  0.81759205  0.10052143  1
  O2-  O178  1  0.91993305  0.81662308  0.42272687  1
  O2-  O179  1  0.92938697  0.82153245  0.76619304  1
  O2-  O180  1  0.32622601  0.06292279  0.23304318  1
  O2-  O181  1  0.31851362  0.07552330  0.56734895  1
  O2-  O182  1  0.32285484  0.07040070  0.90868476  1
  O2-  O183  1  0.32300430  0.57067773  0.23672596  1
  O2-  O184  1  0.31965499  0.56930505  0.56798355  1
  O2-  O185  1  0.32013554  0.57049431  0.90223787  1
  O2-  O186  1  0.81672825  0.07301058  0.24326296  1
  O2-  O187  1  0.81966479  0.07542187  0.56659983  1
  O2-  O188  1  0.81923520  0.07093942  0.90364456  1
  O2-  O189  1  0.81759351  0.57500977  0.24205068  1
  O2-  O190  1  0.82166727  0.56573922  0.56600524  1
  O2-  O191  1  0.82000617  0.57126841  0.91079151  1
  O2-  O192  1  0.03949969  0.07776222  0.26626336  1
  O2-  O193  1  0.04955088  0.08856646  0.60292646  1
  O2-  O194  1  0.04699928  0.08426170  0.93507149  1
  O2-  O195  1  0.03813839  0.58914934  0.26126134  1
  O2-  O196  1  0.04372613  0.58278826  0.60340088  1
  O2-  O197  1  0.04618486  0.58571575  0.93648494  1
  O2-  O198  1  0.54468661  0.07663840  0.26527732  1
  O2-  O199  1  0.54271676  0.08850643  0.60401665  1
  O2-  O200  1  0.54135720  0.08328910  0.92706106  1
  O2-  O201  1  0.54950468  0.58586646  0.27311055  1
  O2-  O202  1  0.54693941  0.58011385  0.60309783  1
  O2-  O203  1  0.55159705  0.58081054  0.93677175  1
  O2-  O204  1  0.17082860  0.19793532  0.26463825  1
  O2-  O205  1  0.16382082  0.21257445  0.60371124  1
  O2-  O206  1  0.16876583  0.20236881  0.93627673  1
  O2-  O207  1  0.16869673  0.71148463  0.26510505  1
  O2-  O208  1  0.16323978  0.70296696  0.60370033  1
  O2-  O209  1  0.16604600  0.70467459  0.93715713  1
  O2-  O210  1  0.66391021  0.21132604  0.26330065  1
  O2-  O211  1  0.66193946  0.20921394  0.60351362  1
  O2-  O212  1  0.66363282  0.21635006  0.92806734  1
  O2-  O213  1  0.66424081  0.70731758  0.26963716  1
  O2-  O214  1  0.66436900  0.70053083  0.60182110  1
  O2-  O215  1  0.66777546  0.70060464  0.93778476  1
  O2-  O216  1  0.07962409  0.45900021  0.06966697  1
  O2-  O217  1  0.08359774  0.46214743  0.39710403  1
  O2-  O218  1  0.08440037  0.45163014  0.72886716  1
  O2-  O219  1  0.08454305  0.95898383  0.06857186  1
  O2-  O220  1  0.07411142  0.95072072  0.40078882  1
  O2-  O221  1  0.08499461  0.95697729  0.72732652  1
  O2-  O222  1  0.58991674  0.45569889  0.06486417  1
  O2-  O223  1  0.59203135  0.45987495  0.39891650  1
  O2-  O224  1  0.58577223  0.45353062  0.73284374  1
  O2-  O225  1  0.57921822  0.95838390  0.06780557  1
  O2-  O226  1  0.58632869  0.95339253  0.39665610  1
  O2-  O227  1  0.58246724  0.96224884  0.73382125  1
  O2-  O228  1  0.19980996  0.32762388  0.06818538  1
  O2-  O229  1  0.19235743  0.33213141  0.39159285  1
  O2-  O230  1  0.20524651  0.33564511  0.73239535  1
  O2-  O231  1  0.21175683  0.83481307  0.06570634  1
  O2-  O232  1  0.20752522  0.83164338  0.40505751  1
  O2-  O233  1  0.20101791  0.83382749  0.72773473  1
  O2-  O234  1  0.71101034  0.33775749  0.06226229  1
  O2-  O235  1  0.70696485  0.33655979  0.39597032  1
  O2-  O236  1  0.70289249  0.33380811  0.73020522  1
  O2-  O237  1  0.70488952  0.82863465  0.06971497  1
  O2-  O238  1  0.70722848  0.83533022  0.39884117  1
  O2-  O239  1  0.69703421  0.82714742  0.73109841  1
  O2-  O240  1  0.46686234  0.41917784  0.26554433  1
  O2-  O241  1  0.45809758  0.41381264  0.60742920  1
  O2-  O242  1  0.46047269  0.41582294  0.93464037  1
  O2-  O243  1  0.45933654  0.90844493  0.27169783  1
  O2-  O244  1  0.46202811  0.91674971  0.59581218  1
  O2-  O245  1  0.45971289  0.91400564  0.93103531  1
  O2-  O246  1  0.95385208  0.42090888  0.26667721  1
  O2-  O247  1  0.95784002  0.41291305  0.60379059  1
  O2-  O248  1  0.96180738  0.41832389  0.92964324  1
  O2-  O249  1  0.94107222  0.91808946  0.27514450  1
  O2-  O250  1  0.95733455  0.91844673  0.59769717  1
  O2-  O251  1  0.96103389  0.91876568  0.93480220  1
  O2-  O252  1  0.32606523  0.30985001  0.26928796  1
  O2-  O253  1  0.33571974  0.29618342  0.60832357  1
  O2-  O254  1  0.33128232  0.30511006  0.93923299  1
  O2-  O255  1  0.33793921  0.78977139  0.27522026  1
  O2-  O256  1  0.33096205  0.79003856  0.59639774  1
  O2-  O257  1  0.33351643  0.78720179  0.93148678  1
  O2-  O258  1  0.83074164  0.29398848  0.26658777  1
  O2-  O259  1  0.83556603  0.29685725  0.60616017  1
  O2-  O260  1  0.83441374  0.29304598  0.92760768  1
  O2-  O261  1  0.83341366  0.78879172  0.26917386  1
  O2-  O262  1  0.82986206  0.79029759  0.60028457  1
  O2-  O263  1  0.83289532  0.78875436  0.93478871  1
  O2-  O264  1  0.41747251  0.04366250  0.05821888  1
  O2-  O265  1  0.41872893  0.03881095  0.40098445  1
  O2-  O266  1  0.41695884  0.04099640  0.73246293  1
  O2-  O267  1  0.42281589  0.54504188  0.06661136  1
  O2-  O268  1  0.42053523  0.54206935  0.40289699  1
  O2-  O269  1  0.41696290  0.54217137  0.73530058  1
  O2-  O270  1  0.91908495  0.04538228  0.06941340  1
  O2-  O271  1  0.90930769  0.04692467  0.39653295  1
  O2-  O272  1  0.92480710  0.05120264  0.73011460  1
  O2-  O273  1  0.91393898  0.54401057  0.06154394  1
  O2-  O274  1  0.91473041  0.54716894  0.39314433  1
  O2-  O275  1  0.91715439  0.53874449  0.73592760  1
  O2-  O276  1  0.30529893  0.16818995  0.05808100  1
  O2-  O277  1  0.29866108  0.17379623  0.39535312  1
  O2-  O278  1  0.28986442  0.16690706  0.73719097  1
  O2-  O279  1  0.29135366  0.66769930  0.06901798  1
  O2-  O280  1  0.28658959  0.66396587  0.40349430  1
  O2-  O281  1  0.28836588  0.66841107  0.73407796  1
  O2-  O282  1  0.78962231  0.17216532  0.06628561  1
  O2-  O283  1  0.78757776  0.16384570  0.39525933  1
  O2-  O284  1  0.79201851  0.16985233  0.73380619  1
  O2-  O285  1  0.79292694  0.66175467  0.06576104  1
  O2-  O286  1  0.78930203  0.66144443  0.39696099  1
  O2-  O287  1  0.78918154  0.66447393  0.73451311  1
