# generated using pymatgen
data_Ca2Al2SiO7
_symmetry_space_group_name_H-M   'P 1'
_cell_length_a   15.46075343
_cell_length_b   15.45898685
_cell_length_c   15.28429439
_cell_angle_alpha   89.99998620
_cell_angle_beta   90.00642144
_cell_angle_gamma   90.02505933
_symmetry_Int_Tables_number   1
_chemical_formula_structural   Ca2Al2SiO7
_chemical_formula_sum   'Ca48 Al48 Si24 O168'
_cell_volume   3653.06190325
_cell_formula_units_Z   24
loop_
 _symmetry_equiv_pos_site_id
 _symmetry_equiv_pos_as_xyz
  1  'x, y, z'
loop_
 _atom_type_symbol
 _atom_type_oxidation_number
  Ca2+  2.0
  Al0+  0.0
  Si0+  0.0
  O2-  -2.0
loop_
 _atom_site_type_symbol
 _atom_site_label
 _atom_site_symmetry_multiplicity
 _atom_site_fract_x
 _atom_site_fract_y
 _atom_site_fract_z
 _atom_site_occupancy
  Ca2+  Ca0  1  0.17219554  0.08233248  0.16703613  1
  Ca2+  Ca1  1  0.17061876  0.08844635  0.50789631  1
  Ca2+  Ca2  1  0.17686174  0.08029053  0.83617116  1
  Ca2+  Ca3  1  0.17180496  0.57580873  0.17223260  1
  Ca2+  Ca4  1  0.16408281  0.57428007  0.50690843  1
  Ca2+  Ca5  1  0.17525166  0.57470238  0.83769874  1
  Ca2+  Ca6  1  0.67303620  0.07628095  0.17761520  1
  Ca2+  Ca7  1  0.67838674  0.08302709  0.50704775  1
  Ca2+  Ca8  1  0.67037495  0.08994828  0.83060788  1
  Ca2+  Ca9  1  0.65890853  0.57363255  0.17246942  1
  Ca2+  Ca10  1  0.66388303  0.57534509  0.50568509  1
  Ca2+  Ca11  1  0.66852917  0.57507379  0.83377701  1
  Ca2+  Ca12  1  0.09104090  0.33066987  0.16461375  1
  Ca2+  Ca13  1  0.09002603  0.32604210  0.49460615  1
  Ca2+  Ca14  1  0.09037436  0.33001643  0.82606257  1
  Ca2+  Ca15  1  0.08740248  0.82892809  0.16268036  1
  Ca2+  Ca16  1  0.07518142  0.82652969  0.49585225  1
  Ca2+  Ca17  1  0.08120963  0.83501929  0.82659494  1
  Ca2+  Ca18  1  0.57919515  0.33683603  0.15770543  1
  Ca2+  Ca19  1  0.58974016  0.33185163  0.49846432  1
  Ca2+  Ca20  1  0.57986564  0.33360421  0.82929652  1
  Ca2+  Ca21  1  0.58196257  0.82831292  0.16294195  1
  Ca2+  Ca22  1  0.57830125  0.82919346  0.49384336  1
  Ca2+  Ca23  1  0.56865437  0.83287326  0.82546670  1
  Ca2+  Ca24  1  0.32834618  0.41674658  0.16643820  1
  Ca2+  Ca25  1  0.32207884  0.42409301  0.50814007  1
  Ca2+  Ca26  1  0.32725608  0.42307897  0.83963372  1
  Ca2+  Ca27  1  0.33419850  0.91732364  0.16182712  1
  Ca2+  Ca28  1  0.33268468  0.92107620  0.50889791  1
  Ca2+  Ca29  1  0.33735998  0.92476615  0.83939012  1
  Ca2+  Ca30  1  0.81973249  0.41446507  0.17222240  1
  Ca2+  Ca31  1  0.82329132  0.42321694  0.50799665  1
  Ca2+  Ca32  1  0.82240246  0.41624248  0.83178966  1
  Ca2+  Ca33  1  0.82632497  0.92337523  0.17699916  1
  Ca2+  Ca34  1  0.83170042  0.92212152  0.50432706  1
  Ca2+  Ca35  1  0.83857435  0.92201075  0.83211866  1
  Ca2+  Ca36  1  0.41705136  0.17383655  0.15725691  1
  Ca2+  Ca37  1  0.42260952  0.16525529  0.50182978  1
  Ca2+  Ca38  1  0.41568466  0.17001100  0.82600326  1
  Ca2+  Ca39  1  0.42040850  0.66849679  0.15929346  1
  Ca2+  Ca40  1  0.41712051  0.66843699  0.49841723  1
  Ca2+  Ca41  1  0.40391483  0.67455687  0.82972047  1
  Ca2+  Ca42  1  0.92087352  0.16376889  0.16773422  1
  Ca2+  Ca43  1  0.92636493  0.16076192  0.49611691  1
  Ca2+  Ca44  1  0.92554308  0.16768654  0.82152537  1
  Ca2+  Ca45  1  0.92629714  0.66109427  0.16583834  1
  Ca2+  Ca46  1  0.91582335  0.66746157  0.49722489  1
  Ca2+  Ca47  1  0.91616347  0.67258760  0.82323301  1
  Al0+  Al48  1  0.00101634  -0.00015680  0.00357113  1
  Al0+  Al49  1  0.00251326  0.00047747  0.33010056  1
  Al0+  Al50  1  -0.00116606  -0.00012039  0.66126099  1
  Al0+  Al51  1  -0.00065260  0.49910207  0.00048134  1
  Al0+  Al52  1  -0.00116986  0.49833049  0.33157492  1
  Al0+  Al53  1  -0.00276288  0.49900473  0.67435861  1
  Al0+  Al54  1  0.50330046  -0.00112643  0.00075915  1
  Al0+  Al55  1  0.49946920  0.00096357  0.33500088  1
  Al0+  Al56  1  0.50002656  0.00083575  0.66069581  1
  Al0+  Al57  1  0.50096698  0.49867071  0.00108047  1
  Al0+  Al58  1  0.49807793  0.50132886  0.33422439  1
  Al0+  Al59  1  0.49738331  0.50116469  0.67397513  1
  Al0+  Al60  1  0.25172529  0.24892397  0.00125891  1
  Al0+  Al61  1  0.25016779  0.25054455  0.33208615  1
  Al0+  Al62  1  0.25158228  0.24888186  0.66829684  1
  Al0+  Al63  1  0.25032563  0.74988484  0.00251308  1
  Al0+  Al64  1  0.24975180  0.75188186  0.32887949  1
  Al0+  Al65  1  0.24712981  0.74989732  0.66222849  1
  Al0+  Al66  1  0.75264249  0.25087944  0.00379841  1
  Al0+  Al67  1  0.75144715  0.24939836  0.33991773  1
  Al0+  Al68  1  0.75062437  0.24864284  0.67044959  1
  Al0+  Al69  1  0.75246608  0.74972378  -0.00096448  1
  Al0+  Al70  1  0.74766254  0.75025821  0.33045901  1
  Al0+  Al71  1  0.74790196  0.75074363  0.66549071  1
  Al0+  Al72  1  0.82277884  0.06984945  0.34980490  1
  Al0+  Al73  1  0.82217472  0.06873574  0.68136443  1
  Al0+  Al74  1  0.32284474  0.06885773  0.67845946  1
  Al0+  Al75  1  0.32126862  0.57176295  0.01687302  1
  Al0+  Al76  1  0.31949177  0.57401016  0.68096125  1
  Al0+  Al77  1  0.07256709  0.17928341  0.31677124  1
  Al0+  Al78  1  0.67694896  0.92697460  0.34941595  1
  Al0+  Al79  1  0.57174697  0.18098148  0.65260019  1
  Al0+  Al80  1  0.07027592  0.67738639  0.31945955  1
  Al0+  Al81  1  0.43037954  0.82009217  0.98585955  1
  Al0+  Al82  1  0.68132212  0.43021268  0.01448904  1
  Al0+  Al83  1  0.82026534  0.57406764  0.68110391  1
  Al0+  Al84  1  0.92708485  0.82112035  0.65241620  1
  Al0+  Al85  1  0.67762946  0.42743667  0.68286599  1
  Al0+  Al86  1  0.17793598  0.92957640  0.01467230  1
  Al0+  Al87  1  0.17770177  0.42815447  0.01651431  1
  Al0+  Al88  1  0.42921466  0.32012152  0.98561417  1
  Al0+  Al89  1  0.07197885  0.18138310  0.65390654  1
  Al0+  Al90  1  0.17902070  0.42943229  0.34738991  1
  Al0+  Al91  1  0.17832179  0.42719693  0.68122135  1
  Al0+  Al92  1  0.42668689  0.82096310  0.65201006  1
  Al0+  Al93  1  0.56951083  0.67890066  0.31996612  1
  Al0+  Al94  1  0.32428830  0.07065030  0.01515125  1
  Al0+  Al95  1  0.67623106  0.43006796  0.34740651  1
  Si0+  Si96  1  0.42828720  0.32366276  0.64953515  1
  Si0+  Si97  1  0.82209712  0.57154881  0.34757877  1
  Si0+  Si98  1  0.92752476  0.32064559  0.98456852  1
  Si0+  Si99  1  0.92960653  0.82192657  0.98536015  1
  Si0+  Si100  1  0.57269041  0.17935595  0.31914398  1
  Si0+  Si101  1  0.57061232  0.67735620  0.65113073  1
  Si0+  Si102  1  0.17702455  0.92875790  0.67908480  1
  Si0+  Si103  1  0.43025689  0.31989138  0.31975149  1
  Si0+  Si104  1  0.82200988  0.57468071  0.01828849  1
  Si0+  Si105  1  0.57383601  0.67719911  0.98174686  1
  Si0+  Si106  1  0.07062644  0.67831557  0.98415975  1
  Si0+  Si107  1  0.92850341  0.82186174  0.31495400  1
  Si0+  Si108  1  0.92728124  0.32261865  0.65042784  1
  Si0+  Si109  1  0.06934153  0.67627658  0.65121376  1
  Si0+  Si110  1  0.06999736  0.17883801  0.98482336  1
  Si0+  Si111  1  0.32054482  0.57421668  0.34981292  1
  Si0+  Si112  1  0.68064746  0.92725907  0.01348845  1
  Si0+  Si113  1  0.18035277  0.92757953  0.34897849  1
  Si0+  Si114  1  0.67708255  0.92866810  0.68382601  1
  Si0+  Si115  1  0.82186859  0.07059565  0.01503890  1
  Si0+  Si116  1  0.92684015  0.32089351  0.31628599  1
  Si0+  Si117  1  0.57525521  0.17784324  0.98541867  1
  Si0+  Si118  1  0.42770458  0.82500702  0.31447875  1
  Si0+  Si119  1  0.32001100  0.07204155  0.34870280  1
  O2-  O120  1  0.25183474  -0.00076586  0.06595310  1
  O2-  O121  1  0.25049421  -0.00069461  0.39066764  1
  O2-  O122  1  0.24897641  -0.00699042  0.72395384  1
  O2-  O123  1  0.24956488  0.49967027  0.06755907  1
  O2-  O124  1  0.24827974  0.50919663  0.39326190  1
  O2-  O125  1  0.24964127  0.49994656  0.73021149  1
  O2-  O126  1  0.75004265  -0.00000033  0.05585864  1
  O2-  O127  1  0.75010506  -0.00207881  0.39881250  1
  O2-  O128  1  0.74712138  -0.00471559  0.73010612  1
  O2-  O129  1  0.75270375  0.50732555  0.06281543  1
  O2-  O130  1  0.75037211  0.50629760  0.39156274  1
  O2-  O131  1  0.74908498  0.50141853  0.73103674  1
  O2-  O132  1  -0.00348624  0.25337448  0.27060341  1
  O2-  O133  1  -0.00043289  0.25806498  0.60598859  1
  O2-  O134  1  0.00269650  0.25360520  0.94307726  1
  O2-  O135  1  -0.00465425  0.75151419  0.27024115  1
  O2-  O136  1  -0.00187492  0.74258189  0.60672670  1
  O2-  O137  1  0.00004534  0.75076894  0.94269481  1
  O2-  O138  1  0.50447507  0.25207684  0.27629638  1
  O2-  O139  1  0.50032498  0.25855006  0.60431169  1
  O2-  O140  1  0.50355174  0.24314931  0.94161386  1
  O2-  O141  1  0.49731756  0.75603984  0.27257739  1
  O2-  O142  1  0.50006853  0.74436171  0.60679929  1
  O2-  O143  1  0.50330991  0.74398265  0.93776843  1
  O2-  O144  1  0.06704735  0.17723988  0.09009506  1
  O2-  O145  1  0.07465534  0.18018701  0.42959271  1
  O2-  O146  1  0.07021619  0.17956637  0.76745463  1
  O2-  O147  1  0.06755299  0.67811455  0.08949356  1
  O2-  O148  1  0.06852016  0.67937843  0.43242350  1
  O2-  O149  1  0.07042657  0.67981339  0.75686997  1
  O2-  O150  1  0.57748430  0.17935490  0.09151061  1
  O2-  O151  1  0.57107108  0.17888514  0.42395563  1
  O2-  O152  1  0.57027145  0.18037780  0.76595047  1
  O2-  O153  1  0.57557490  0.68033348  0.08759441  1
  O2-  O154  1  0.56559188  0.67740217  0.43292000  1
  O2-  O155  1  0.57355307  0.68029553  0.75657876  1
  O2-  O156  1  0.18347611  0.42849790  0.23463779  1
  O2-  O157  1  0.17939295  0.42832965  0.56714694  1
  O2-  O158  1  0.17661220  0.42977440  0.90341470  1
  O2-  O159  1  0.18173370  0.92673201  0.24404576  1
  O2-  O160  1  0.17752768  0.92995142  0.57307590  1
  O2-  O161  1  0.17215007  0.93345597  0.90131580  1
  O2-  O162  1  0.67685576  0.42982990  0.23408340  1
  O2-  O163  1  0.67935618  0.42943544  0.56896505  1
  O2-  O164  1  0.68442650  0.42776190  0.90214972  1
  O2-  O165  1  0.67805934  0.93024067  0.23470338  1
  O2-  O166  1  0.67814647  0.93010450  0.57844870  1
  O2-  O167  1  0.68228811  0.92598174  0.90871327  1
  O2-  O168  1  0.43185649  0.31883468  0.09965655  1
  O2-  O169  1  0.42945247  0.31762778  0.42464919  1
  O2-  O170  1  0.42779318  0.32051598  0.75501940  1
  O2-  O171  1  0.43550886  0.82090201  0.09904410  1
  O2-  O172  1  0.42582483  0.82543324  0.42002499  1
  O2-  O173  1  0.42836918  0.82199339  0.76515010  1
  O2-  O174  1  0.92307434  0.31721912  0.08955418  1
  O2-  O175  1  0.92688465  0.32153794  0.42149383  1
  O2-  O176  1  0.92671039  0.31871517  0.75650168  1
  O2-  O177  1  0.92821787  0.82182327  0.09029126  1
  O2-  O178  1  0.93048678  0.82193087  0.42038836  1
  O2-  O179  1  0.93167709  0.82251471  0.76622941  1
  O2-  O180  1  0.32059356  0.07236692  0.24376414  1
  O2-  O181  1  0.32113247  0.06869977  0.56472976  1
  O2-  O182  1  0.32298984  0.06962121  0.90171165  1
  O2-  O183  1  0.32186905  0.57279352  0.24440713  1
  O2-  O184  1  0.31781795  0.57340575  0.56682917  1
  O2-  O185  1  0.31657452  0.57276054  0.90371179  1
  O2-  O186  1  0.82010331  0.06900359  0.23501498  1
  O2-  O187  1  0.82309611  0.06689140  0.56895820  1
  O2-  O188  1  0.82386471  0.07023647  0.91015380  1
  O2-  O189  1  0.82342969  0.56839633  0.24177333  1
  O2-  O190  1  0.81945725  0.57309438  0.56716962  1
  O2-  O191  1  0.82093334  0.57719923  0.91315234  1
  O2-  O192  1  0.04336553  0.08215538  0.26182092  1
  O2-  O193  1  0.03906745  0.08599031  0.59857051  1
  O2-  O194  1  0.03688053  0.08809451  0.93819147  1
  O2-  O195  1  0.03874099  0.58143681  0.26348069  1
  O2-  O196  1  0.04410839  0.58140602  0.60752616  1
  O2-  O197  1  0.04127167  0.58682228  0.93680353  1
  O2-  O198  1  0.54268639  0.08792791  0.27116169  1
  O2-  O199  1  0.53912411  0.08633960  0.59562650  1
  O2-  O200  1  0.55577173  0.08240538  0.94106514  1
  O2-  O201  1  0.53586903  0.58318852  0.26434384  1
  O2-  O202  1  0.54528357  0.58267023  0.60682008  1
  O2-  O203  1  0.55174526  0.58240319  0.93830721  1
  O2-  O204  1  0.16857004  0.21234027  0.26204233  1
  O2-  O205  1  0.16930947  0.20954703  0.59925150  1
  O2-  O206  1  0.16356393  0.20205324  0.93986037  1
  O2-  O207  1  0.16633379  0.71001828  0.26462080  1
  O2-  O208  1  0.16049490  0.70370494  0.60126240  1
  O2-  O209  1  0.16224396  0.70630999  0.93798947  1
  O2-  O210  1  0.66636303  0.20359145  0.27356467  1
  O2-  O211  1  0.66990017  0.20910455  0.59956998  1
  O2-  O212  1  0.66838521  0.20709879  0.93944305  1
  O2-  O213  1  0.66688888  0.70540145  0.26360358  1
  O2-  O214  1  0.66287207  0.70404518  0.60288397  1
  O2-  O215  1  0.66780514  0.70521006  0.93667180  1
  O2-  O216  1  0.07762070  0.45484134  0.06800569  1
  O2-  O217  1  0.07981439  0.45503480  0.39809257  1
  O2-  O218  1  0.07924080  0.45085744  0.73424202  1
  O2-  O219  1  0.08078566  0.95931706  0.07144484  1
  O2-  O220  1  0.08746141  0.95373852  0.39375931  1
  O2-  O221  1  0.08514022  0.95775268  0.72574103  1
  O2-  O222  1  0.58444335  0.45831431  0.06834810  1
  O2-  O223  1  0.57981600  0.46022374  0.40155128  1
  O2-  O224  1  0.57936293  0.45422934  0.73584225  1
  O2-  O225  1  0.58998670  0.95317406  0.06312668  1
  O2-  O226  1  0.57801659  0.95533082  0.40067836  1
  O2-  O227  1  0.58449897  0.95830763  0.72893766  1
  O2-  O228  1  0.20621214  0.32909813  0.06735159  1
  O2-  O229  1  0.21479218  0.33392072  0.40029067  1
  O2-  O230  1  0.20925113  0.33006598  0.73421089  1
  O2-  O231  1  0.20435466  0.83108651  0.06763913  1
  O2-  O232  1  0.20811575  0.83600878  0.39719209  1
  O2-  O233  1  0.19706238  0.83361841  0.72321115  1
  O2-  O234  1  0.71502618  0.33437449  0.07004405  1
  O2-  O235  1  0.70755267  0.33395073  0.40075424  1
  O2-  O236  1  0.70915336  0.33079342  0.73705120  1
  O2-  O237  1  0.71093695  0.83636017  0.06218013  1
  O2-  O238  1  0.70271672  0.82720476  0.40021711  1
  O2-  O239  1  0.69953156  0.83450083  0.72926479  1
  O2-  O240  1  0.45464016  0.41281129  0.27302755  1
  O2-  O241  1  0.44926737  0.41964489  0.60621096  1
  O2-  O242  1  0.46147774  0.41643775  0.93220174  1
  O2-  O243  1  0.45344802  0.91906368  0.26854624  1
  O2-  O244  1  0.46003963  0.91553444  0.59575608  1
  O2-  O245  1  0.46437728  0.91671941  0.93244477  1
  O2-  O246  1  0.94920562  0.41455845  0.26870898  1
  O2-  O247  1  0.94707682  0.41889190  0.60742227  1
  O2-  O248  1  0.94959765  0.41463564  0.93880240  1
  O2-  O249  1  0.95723602  0.91409947  0.26746086  1
  O2-  O250  1  0.96176877  0.91439609  0.59502873  1
  O2-  O251  1  0.95761759  0.91439627  0.93859138  1
  O2-  O252  1  0.34091269  0.28749049  0.27031846  1
  O2-  O253  1  0.33686543  0.29271598  0.60199828  1
  O2-  O254  1  0.33237557  0.28980446  0.93165286  1
  O2-  O255  1  0.33447502  0.79948408  0.26762224  1
  O2-  O256  1  0.32959165  0.79301958  0.59634705  1
  O2-  O257  1  0.33127635  0.79350108  0.93439498  1
  O2-  O258  1  0.83348614  0.29164508  0.26942423  1
  O2-  O259  1  0.83489013  0.29377346  0.60453432  1
  O2-  O260  1  0.83813264  0.28754786  0.93512084  1
  O2-  O261  1  0.83353751  0.79985741  0.26973859  1
  O2-  O262  1  0.82918597  0.79465040  0.59871906  1
  O2-  O263  1  0.83796955  0.79507546  0.93646018  1
  O2-  O264  1  0.42356459  0.04315592  0.06819648  1
  O2-  O265  1  0.41265306  0.04635920  0.39548977  1
  O2-  O266  1  0.41938194  0.03886215  0.73185404  1
  O2-  O267  1  0.42084142  0.54433361  0.06738787  1
  O2-  O268  1  0.41176403  0.54408953  0.39727192  1
  O2-  O269  1  0.41787491  0.55147072  0.73542164  1
  O2-  O270  1  0.91194883  0.04089193  0.06440976  1
  O2-  O271  1  0.92278267  0.04115045  0.39861303  1
  O2-  O272  1  0.91821874  0.03533828  0.73558494  1
  O2-  O273  1  0.91530296  0.54657333  0.06321445  1
  O2-  O274  1  0.91396583  0.54369875  0.39540669  1
  O2-  O275  1  0.91731501  0.54765077  0.73774995  1
  O2-  O276  1  0.29411902  0.16773285  0.06909016  1
  O2-  O277  1  0.29016725  0.16258452  0.39629762  1
  O2-  O278  1  0.29201541  0.16441936  0.73274040  1
  O2-  O279  1  0.29352341  0.66983405  0.07048862  1
  O2-  O280  1  0.29883293  0.67024258  0.39252630  1
  O2-  O281  1  0.28742521  0.67208464  0.73296090  1
  O2-  O282  1  0.79515394  0.16174204  0.06377839  1
  O2-  O283  1  0.79600519  0.16774305  0.40313391  1
  O2-  O284  1  0.79242878  0.16465076  0.73667984  1
  O2-  O285  1  0.79991083  0.66913803  0.06516503  1
  O2-  O286  1  0.80069678  0.66733941  0.38975356  1
  O2-  O287  1  0.79205098  0.67263881  0.73473454  1
