# generated using pymatgen
data_Ca2Al2SiO7
_symmetry_space_group_name_H-M   'P 1'
_cell_length_a   15.45336594
_cell_length_b   15.45357698
_cell_length_c   15.28054012
_cell_angle_alpha   89.99956536
_cell_angle_beta   90.00111810
_cell_angle_gamma   90.01100967
_symmetry_Int_Tables_number   1
_chemical_formula_structural   Ca2Al2SiO7
_chemical_formula_sum   'Ca48 Al48 Si24 O168'
_cell_volume   3649.14235739
_cell_formula_units_Z   24
loop_
 _symmetry_equiv_pos_site_id
 _symmetry_equiv_pos_as_xyz
  1  'x, y, z'
loop_
 _atom_type_symbol
 _atom_type_oxidation_number
  Ca2+  2.0
  Al0+  0.0
  Si0+  0.0
  O2-  -2.0
loop_
 _atom_site_type_symbol
 _atom_site_label
 _atom_site_symmetry_multiplicity
 _atom_site_fract_x
 _atom_site_fract_y
 _atom_site_fract_z
 _atom_site_occupancy
  Ca2+  Ca0  1  0.17829745  0.07564692  0.16834024  1
  Ca2+  Ca1  1  0.16959256  0.08836948  0.50249649  1
  Ca2+  Ca2  1  0.16968100  0.08144718  0.84015413  1
  Ca2+  Ca3  1  0.17213754  0.58116041  0.17879267  1
  Ca2+  Ca4  1  0.17265127  0.57936532  0.50402961  1
  Ca2+  Ca5  1  0.16854074  0.57841681  0.83325181  1
  Ca2+  Ca6  1  0.66878715  0.07650953  0.17698136  1
  Ca2+  Ca7  1  0.67739070  0.07107916  0.50626621  1
  Ca2+  Ca8  1  0.66974797  0.08171819  0.83393699  1
  Ca2+  Ca9  1  0.66804068  0.58777735  0.17087395  1
  Ca2+  Ca10  1  0.65910093  0.57397879  0.50286831  1
  Ca2+  Ca11  1  0.66943323  0.57792604  0.83757241  1
  Ca2+  Ca12  1  0.08476781  0.33450985  0.16616496  1
  Ca2+  Ca13  1  0.08296902  0.33592044  0.50034320  1
  Ca2+  Ca14  1  0.07892998  0.32707709  0.81926586  1
  Ca2+  Ca15  1  0.08044150  0.83069786  0.16098556  1
  Ca2+  Ca16  1  0.07613519  0.82845926  0.49570199  1
  Ca2+  Ca17  1  0.07176313  0.84106468  0.82901321  1
  Ca2+  Ca18  1  0.58460097  0.32646986  0.16245935  1
  Ca2+  Ca19  1  0.57908520  0.34204694  0.49694209  1
  Ca2+  Ca20  1  0.58110510  0.32762849  0.82591951  1
  Ca2+  Ca21  1  0.58097519  0.82581242  0.16010425  1
  Ca2+  Ca22  1  0.58812034  0.82923235  0.49353289  1
  Ca2+  Ca23  1  0.58194947  0.82920490  0.83160231  1
  Ca2+  Ca24  1  0.32669044  0.42407897  0.17791503  1
  Ca2+  Ca25  1  0.32683018  0.42707926  0.50787047  1
  Ca2+  Ca26  1  0.33336361  0.41625003  0.82748103  1
  Ca2+  Ca27  1  0.34063724  0.92352243  0.16577982  1
  Ca2+  Ca28  1  0.33458270  0.92388079  0.50188780  1
  Ca2+  Ca29  1  0.32585196  0.92089328  0.84605879  1
  Ca2+  Ca30  1  0.82573169  0.42520696  0.17164792  1
  Ca2+  Ca31  1  0.82167642  0.41327237  0.50707087  1
  Ca2+  Ca32  1  0.83285907  0.41908770  0.83555733  1
  Ca2+  Ca33  1  0.82839476  0.92012987  0.17316588  1
  Ca2+  Ca34  1  0.82658082  0.91921843  0.50708373  1
  Ca2+  Ca35  1  0.83367734  0.91534321  0.83380549  1
  Ca2+  Ca36  1  0.41992263  0.16278154  0.15965303  1
  Ca2+  Ca37  1  0.41285393  0.17500294  0.49671879  1
  Ca2+  Ca38  1  0.42050214  0.16838504  0.82923949  1
  Ca2+  Ca39  1  0.42784190  0.66671184  0.16156653  1
  Ca2+  Ca40  1  0.41798231  0.66331940  0.49242440  1
  Ca2+  Ca41  1  0.41815359  0.66832803  0.83099245  1
  Ca2+  Ca42  1  0.91344411  0.16725111  0.16473216  1
  Ca2+  Ca43  1  0.91504131  0.16519791  0.50217107  1
  Ca2+  Ca44  1  0.92502774  0.16880952  0.81814151  1
  Ca2+  Ca45  1  0.92032276  0.67089447  0.15898881  1
  Ca2+  Ca46  1  0.92100190  0.67072409  0.49532084  1
  Ca2+  Ca47  1  0.91015069  0.67700359  0.83079481  1
  Al0+  Al48  1  0.00072027  0.00004098  0.00184732  1
  Al0+  Al49  1  0.00150340  0.00274107  0.33383190  1
  Al0+  Al50  1  0.00029431  -0.00039909  0.65854055  1
  Al0+  Al51  1  -0.00170669  0.50060861  0.00467163  1
  Al0+  Al52  1  -0.00110232  0.49952338  0.33091563  1
  Al0+  Al53  1  0.00064597  0.49974576  0.66639901  1
  Al0+  Al54  1  0.50117236  0.00040702  -0.00562118  1
  Al0+  Al55  1  0.50012165  0.00088880  0.34248909  1
  Al0+  Al56  1  0.50066639  -0.00192023  0.66966212  1
  Al0+  Al57  1  0.49920008  0.49724929  -0.00374677  1
  Al0+  Al58  1  0.49879703  0.50110657  0.33225702  1
  Al0+  Al59  1  0.50082160  0.49952310  0.67286666  1
  Al0+  Al60  1  0.24967276  0.24995624  0.00411712  1
  Al0+  Al61  1  0.24808686  0.24998276  0.33715562  1
  Al0+  Al62  1  0.25195975  0.25159618  0.66235182  1
  Al0+  Al63  1  0.24888675  0.74762036  0.00087161  1
  Al0+  Al64  1  0.24939697  0.75219098  0.33138337  1
  Al0+  Al65  1  0.25202750  0.75109629  0.67003437  1
  Al0+  Al66  1  0.74893913  0.25052485  -0.00423757  1
  Al0+  Al67  1  0.75010612  0.25092243  0.33917205  1
  Al0+  Al68  1  0.75078907  0.24747946  0.67102748  1
  Al0+  Al69  1  0.75164285  0.74881686  -0.00333781  1
  Al0+  Al70  1  0.74987311  0.75033179  0.33156754  1
  Al0+  Al71  1  0.74853298  0.74989067  0.66437439  1
  Al0+  Al72  1  0.81925264  0.57128525  0.01400198  1
  Al0+  Al73  1  0.17862812  0.42870446  0.68280863  1
  Al0+  Al74  1  0.32139280  0.07046248  0.34843212  1
  Al0+  Al75  1  0.57193724  0.67716352  0.98255996  1
  Al0+  Al76  1  0.93126385  0.82132534  0.98704422  1
  Al0+  Al77  1  0.67944943  0.92689845  0.34689094  1
  Al0+  Al78  1  0.17671346  0.92723980  0.01505786  1
  Al0+  Al79  1  0.92708922  0.32286302  0.65106932  1
  Al0+  Al80  1  0.56984673  0.67854522  0.32007104  1
  Al0+  Al81  1  0.92804431  0.81959942  0.65096091  1
  Al0+  Al82  1  0.43260435  0.32066434  0.65167361  1
  Al0+  Al83  1  0.07234913  0.17903764  0.65007651  1
  Al0+  Al84  1  0.32186318  0.57261711  0.68437433  1
  Al0+  Al85  1  0.67919286  0.43084402  0.34485345  1
  Al0+  Al86  1  0.42806940  0.82040217  0.98465711  1
  Al0+  Al87  1  0.32063998  0.57304702  0.34638176  1
  Al0+  Al88  1  0.17633915  0.42906503  0.34912427  1
  Al0+  Al89  1  0.57202275  0.17866343  0.98676511  1
  Al0+  Al90  1  0.67839434  0.92631703  0.68567600  1
  Al0+  Al91  1  0.32258331  0.07108512  0.01368745  1
  Al0+  Al92  1  0.82263329  0.06804614  0.68379403  1
  Al0+  Al93  1  0.07074987  0.67867912  0.31975610  1
  Al0+  Al94  1  0.67952943  0.42807081  0.68182206  1
  Al0+  Al95  1  0.82286726  0.07238273  0.34831967  1
  Si0+  Si96  1  0.68015008  0.92909224  0.01368285  1
  Si0+  Si97  1  0.32108486  0.07185140  0.68130348  1
  Si0+  Si98  1  0.17752784  0.92832042  0.35114904  1
  Si0+  Si99  1  0.57223714  0.17525164  0.64779295  1
  Si0+  Si100  1  0.67728685  0.42682363  0.01662839  1
  Si0+  Si101  1  0.42788236  0.32025104  0.31833477  1
  Si0+  Si102  1  0.07256203  0.17927488  0.31430494  1
  Si0+  Si103  1  0.07197755  0.67505285  0.98278454  1
  Si0+  Si104  1  0.92657121  0.31996637  0.31644471  1
  Si0+  Si105  1  0.17997888  0.92934496  0.67950268  1
  Si0+  Si106  1  0.82210726  0.57290018  0.34920827  1
  Si0+  Si107  1  0.82113796  0.07275675  0.01384203  1
  Si0+  Si108  1  0.07452283  0.67876575  0.65136631  1
  Si0+  Si109  1  0.32224761  0.57021084  0.01599730  1
  Si0+  Si110  1  0.42739226  0.82200767  0.65082616  1
  Si0+  Si111  1  0.42807311  0.82560571  0.31779697  1
  Si0+  Si112  1  0.07037591  0.18086996  0.98779339  1
  Si0+  Si113  1  0.17818862  0.42944494  0.01545111  1
  Si0+  Si114  1  0.92905058  0.82308729  0.31578839  1
  Si0+  Si115  1  0.82268972  0.57227297  0.68111577  1
  Si0+  Si116  1  0.42534187  0.32079512  0.98379923  1
  Si0+  Si117  1  0.57051262  0.17978205  0.32181706  1
  Si0+  Si118  1  0.92937006  0.32196335  0.98673206  1
  Si0+  Si119  1  0.56894275  0.67968777  0.65166652  1
  O2-  O120  1  0.25408783  -0.00488995  0.06351823  1
  O2-  O121  1  0.24699619  -0.00408700  0.39571028  1
  O2-  O122  1  0.24917746  0.00169934  0.72243315  1
  O2-  O123  1  0.24947606  0.50019374  0.05726831  1
  O2-  O124  1  0.24711755  0.50305427  0.39656391  1
  O2-  O125  1  0.24862302  0.50153676  0.73458671  1
  O2-  O126  1  0.74992268  0.00199864  0.05606331  1
  O2-  O127  1  0.75449918  -0.00385102  0.39578408  1
  O2-  O128  1  0.75051125  -0.00221313  0.73633948  1
  O2-  O129  1  0.74150583  0.49940276  0.06093371  1
  O2-  O130  1  0.75118086  0.50721002  0.39329442  1
  O2-  O131  1  0.75879384  0.49919433  0.72603493  1
  O2-  O132  1  -0.00077799  0.24963548  0.27354888  1
  O2-  O133  1  0.00003193  0.25170118  0.60063307  1
  O2-  O134  1  -0.00058537  0.25071190  0.94469072  1
  O2-  O135  1  -0.00328598  0.75354826  0.27139897  1
  O2-  O136  1  0.00285480  0.74392163  0.60642545  1
  O2-  O137  1  0.00742787  0.74781063  0.93923123  1
  O2-  O138  1  0.49861193  0.24864015  0.27639146  1
  O2-  O139  1  0.50705130  0.24671531  0.60235708  1
  O2-  O140  1  0.49494240  0.25195789  0.94176261  1
  O2-  O141  1  0.49565949  0.75504293  0.27489745  1
  O2-  O142  1  0.49843084  0.75122726  0.60904523  1
  O2-  O143  1  0.49855370  0.74793643  0.93243469  1
  O2-  O144  1  0.07021204  0.18290450  0.09319129  1
  O2-  O145  1  0.07449888  0.17879233  0.41866970  1
  O2-  O146  1  0.07260830  0.17874771  0.76477696  1
  O2-  O147  1  0.06895185  0.67266464  0.08848629  1
  O2-  O148  1  0.06854765  0.68082388  0.43297181  1
  O2-  O149  1  0.07556698  0.68136676  0.75703109  1
  O2-  O150  1  0.57474198  0.18085233  0.10068813  1
  O2-  O151  1  0.56893799  0.18158165  0.42640158  1
  O2-  O152  1  0.56811778  0.17539617  0.75377739  1
  O2-  O153  1  0.57104687  0.67844729  0.09644104  1
  O2-  O154  1  0.56786849  0.67717389  0.43328840  1
  O2-  O155  1  0.56889066  0.68076413  0.75668439  1
  O2-  O156  1  0.17980189  0.42828532  0.23434384  1
  O2-  O157  1  0.18011879  0.43108571  0.56977406  1
  O2-  O158  1  0.17670732  0.42813959  0.91095496  1
  O2-  O159  1  0.17591712  0.93022710  0.24568433  1
  O2-  O160  1  0.18368945  0.92708226  0.57429962  1
  O2-  O161  1  0.17345474  0.93406930  0.90110292  1
  O2-  O162  1  0.68195726  0.42747572  0.23161089  1
  O2-  O163  1  0.67674596  0.43306687  0.56857002  1
  O2-  O164  1  0.68075975  0.42491550  0.91134859  1
  O2-  O165  1  0.67866017  0.92938795  0.23245690  1
  O2-  O166  1  0.67838728  0.92593257  0.57218988  1
  O2-  O167  1  0.68192874  0.92943982  0.90895876  1
  O2-  O168  1  0.42469598  0.32196805  0.08975168  1
  O2-  O169  1  0.42910715  0.32069926  0.42317611  1
  O2-  O170  1  0.43279691  0.31669864  0.76518816  1
  O2-  O171  1  0.43237603  0.82061728  0.09859751  1
  O2-  O172  1  0.42830573  0.82644240  0.42363235  1
  O2-  O173  1  0.42557695  0.82242261  0.75558294  1
  O2-  O174  1  0.92906321  0.32052359  0.09228610  1
  O2-  O175  1  0.92464180  0.32021165  0.42072760  1
  O2-  O176  1  0.93016300  0.32147533  0.76569344  1
  O2-  O177  1  0.93117985  0.82090262  0.10026342  1
  O2-  O178  1  0.93013737  0.82160171  0.42126929  1
  O2-  O179  1  0.92994236  0.81939234  0.76434180  1
  O2-  O180  1  0.32249993  0.07004127  0.23540066  1
  O2-  O181  1  0.32149260  0.06960192  0.57595182  1
  O2-  O182  1  0.31732984  0.07466008  0.90006538  1
  O2-  O183  1  0.32138041  0.56873072  0.23213011  1
  O2-  O184  1  0.32125729  0.57397145  0.57100161  1
  O2-  O185  1  0.32168416  0.56931082  0.91121121  1
  O2-  O186  1  0.81944808  0.07324534  0.23342140  1
  O2-  O187  1  0.82085219  0.06535470  0.57040362  1
  O2-  O188  1  0.82281650  0.07345864  0.90946911  1
  O2-  O189  1  0.82174653  0.57093709  0.24323197  1
  O2-  O190  1  0.81994308  0.57399252  0.57545697  1
  O2-  O191  1  0.82174255  0.56734598  0.90105396  1
  O2-  O192  1  0.04602570  0.08693866  0.26615643  1
  O2-  O193  1  0.04529231  0.08165063  0.59422301  1
  O2-  O194  1  0.04331510  0.08913060  0.94095675  1
  O2-  O195  1  0.04065851  0.58194879  0.26414723  1
  O2-  O196  1  0.05197841  0.58421857  0.60656980  1
  O2-  O197  1  0.04129852  0.58251268  0.93663553  1
  O2-  O198  1  0.54301602  0.08686140  0.27574620  1
  O2-  O199  1  0.54279357  0.08192651  0.60295683  1
  O2-  O200  1  0.54456567  0.08342675  0.92950884  1
  O2-  O201  1  0.53819252  0.58298441  0.26280283  1
  O2-  O202  1  0.53985256  0.58753669  0.60652057  1
  O2-  O203  1  0.54497807  0.57708294  0.93176176  1
  O2-  O204  1  0.16360063  0.20990012  0.26581544  1
  O2-  O205  1  0.17065466  0.20705572  0.59691023  1
  O2-  O206  1  0.16230462  0.20903597  0.94080553  1
  O2-  O207  1  0.16744286  0.70937496  0.26448287  1
  O2-  O208  1  0.16688525  0.70926222  0.60497655  1
  O2-  O209  1  0.16752121  0.69375725  0.93895233  1
  O2-  O210  1  0.66218218  0.20911647  0.27412715  1
  O2-  O211  1  0.66807953  0.19669324  0.60675364  1
  O2-  O212  1  0.66669616  0.21186232  0.92919601  1
  O2-  O213  1  0.66772771  0.70728038  0.26596942  1
  O2-  O214  1  0.66042435  0.70579663  0.60295486  1
  O2-  O215  1  0.67000171  0.70586968  0.93019698  1
  O2-  O216  1  0.08675182  0.45645906  0.06453422  1
  O2-  O217  1  0.07640486  0.45451734  0.39882335  1
  O2-  O218  1  0.07908203  0.45494145  0.73576368  1
  O2-  O219  1  0.08144285  0.96200405  0.07170495  1
  O2-  O220  1  0.08482525  0.95613122  0.39755738  1
  O2-  O221  1  0.08731206  0.95659154  0.72404215  1
  O2-  O222  1  0.58078413  0.44591389  0.05957440  1
  O2-  O223  1  0.58235941  0.46052828  0.39793212  1
  O2-  O224  1  0.58633688  0.46267565  0.73917988  1
  O2-  O225  1  0.58782811  0.95625350  0.05953383  1
  O2-  O226  1  0.58338356  0.95623511  0.40309559  1
  O2-  O227  1  0.57920667  0.95504489  0.73779279  1
  O2-  O228  1  0.20567812  0.33804011  0.06449999  1
  O2-  O229  1  0.20462889  0.33121679  0.40079951  1
  O2-  O230  1  0.21119456  0.33033352  0.73450129  1
  O2-  O231  1  0.19813187  0.82586274  0.06499765  1
  O2-  O232  1  0.20148828  0.83472420  0.39713582  1
  O2-  O233  1  0.20825098  0.83943470  0.72981905  1
  O2-  O234  1  0.70835238  0.33457061  0.06367435  1
  O2-  O235  1  0.71019319  0.33631007  0.40150514  1
  O2-  O236  1  0.70469434  0.33007307  0.73513113  1
  O2-  O237  1  0.70984531  0.83772408  0.06033940  1
  O2-  O238  1  0.70615627  0.82812502  0.39997920  1
  O2-  O239  1  0.70712465  0.82710214  0.73641701  1
  O2-  O240  1  0.45646024  0.41107210  0.26938912  1
  O2-  O241  1  0.46419928  0.41844171  0.60036375  1
  O2-  O242  1  0.45025727  0.41334449  0.93568626  1
  O2-  O243  1  0.45711584  0.91918151  0.27256991  1
  O2-  O244  1  0.45507041  0.91433610  0.60365438  1
  O2-  O245  1  0.45473213  0.91877834  0.93099792  1
  O2-  O246  1  0.95354058  0.41175858  0.26740238  1
  O2-  O247  1  0.95214137  0.42268306  0.59870720  1
  O2-  O248  1  0.95843247  0.41358383  0.94048144  1
  O2-  O249  1  0.95573760  0.91746579  0.27098770  1
  O2-  O250  1  0.96135546  0.91346433  0.59445338  1
  O2-  O251  1  0.96124243  0.91880874  0.93298875  1
  O2-  O252  1  0.33562452  0.29166929  0.27163943  1
  O2-  O253  1  0.33696959  0.29017838  0.59631660  1
  O2-  O254  1  0.33182480  0.29414540  0.93753643  1
  O2-  O255  1  0.33332689  0.80493967  0.27211076  1
  O2-  O256  1  0.33567361  0.79505565  0.60227988  1
  O2-  O257  1  0.32759906  0.79374699  0.93385886  1
  O2-  O258  1  0.83551284  0.28947651  0.26750005  1
  O2-  O259  1  0.82783460  0.29290404  0.60024626  1
  O2-  O260  1  0.83742614  0.29675595  0.93923210  1
  O2-  O261  1  0.83505504  0.79865590  0.26987853  1
  O2-  O262  1  0.83180244  0.78794104  0.59657287  1
  O2-  O263  1  0.83636472  0.78874701  0.93150902  1
  O2-  O264  1  0.42295983  0.04511185  0.06473375  1
  O2-  O265  1  0.41600419  0.04213942  0.40675730  1
  O2-  O266  1  0.41227008  0.04288630  0.72870046  1
  O2-  O267  1  0.41417538  0.53983320  0.06232196  1
  O2-  O268  1  0.41739074  0.54145967  0.39953292  1
  O2-  O269  1  0.41793600  0.54031905  0.73910384  1
  O2-  O270  1  0.91247789  0.04564125  0.06267214  1
  O2-  O271  1  0.92351478  0.05005799  0.39816945  1
  O2-  O272  1  0.92316298  0.03931582  0.73278454  1
  O2-  O273  1  0.91426868  0.53748810  0.07104092  1
  O2-  O274  1  0.91459644  0.54493235  0.39480047  1
  O2-  O275  1  0.91782794  0.55334669  0.72682998  1
  O2-  O276  1  0.29107110  0.16807593  0.06948434  1
  O2-  O277  1  0.28843339  0.16610392  0.40191193  1
  O2-  O278  1  0.29514646  0.16405379  0.72723842  1
  O2-  O279  1  0.29691012  0.66213782  0.06364675  1
  O2-  O280  1  0.29645911  0.67331168  0.39696038  1
  O2-  O281  1  0.29415428  0.67154480  0.73777705  1
  O2-  O282  1  0.79307770  0.16536071  0.06058446  1
  O2-  O283  1  0.79183383  0.16837298  0.40265631  1
  O2-  O284  1  0.79665823  0.16698498  0.73698256  1
  O2-  O285  1  0.79135315  0.66855493  0.06843765  1
  O2-  O286  1  0.80112851  0.66787776  0.39316866  1
  O2-  O287  1  0.79076015  0.66338653  0.72827395  1
