# generated using pymatgen
data_Ca2Al2SiO7
_symmetry_space_group_name_H-M   'P 1'
_cell_length_a   15.47341230
_cell_length_b   15.47623181
_cell_length_c   15.29621873
_cell_angle_alpha   90.01164362
_cell_angle_beta   89.99184728
_cell_angle_gamma   90.01122091
_symmetry_Int_Tables_number   1
_chemical_formula_structural   Ca2Al2SiO7
_chemical_formula_sum   'Ca48 Al48 Si24 O168'
_cell_volume   3662.98708508
_cell_formula_units_Z   24
loop_
 _symmetry_equiv_pos_site_id
 _symmetry_equiv_pos_as_xyz
  1  'x, y, z'
loop_
 _atom_type_symbol
 _atom_type_oxidation_number
  Ca2+  2.0
  Al0+  0.0
  Si0+  0.0
  O2-  -2.0
loop_
 _atom_site_type_symbol
 _atom_site_label
 _atom_site_symmetry_multiplicity
 _atom_site_fract_x
 _atom_site_fract_y
 _atom_site_fract_z
 _atom_site_occupancy
  Ca2+  Ca0  1  0.16795775  0.07517664  0.16971929  1
  Ca2+  Ca1  1  0.15497174  0.07723107  0.49606301  1
  Ca2+  Ca2  1  0.17293194  0.07888517  0.84289971  1
  Ca2+  Ca3  1  0.17419014  0.57342775  0.17289032  1
  Ca2+  Ca4  1  0.17429422  0.57419180  0.49819495  1
  Ca2+  Ca5  1  0.17850250  0.57068182  0.83683625  1
  Ca2+  Ca6  1  0.67153750  0.09118321  0.17809713  1
  Ca2+  Ca7  1  0.67755653  0.09829620  0.49853686  1
  Ca2+  Ca8  1  0.67442351  0.08819848  0.83523815  1
  Ca2+  Ca9  1  0.66522211  0.57460169  0.16634198  1
  Ca2+  Ca10  1  0.66718983  0.57565244  0.49852568  1
  Ca2+  Ca11  1  0.67242273  0.57823275  0.84732943  1
  Ca2+  Ca12  1  0.08125260  0.34190517  0.16455688  1
  Ca2+  Ca13  1  0.07492507  0.33599165  0.48922712  1
  Ca2+  Ca14  1  0.07942875  0.34203800  0.82641670  1
  Ca2+  Ca15  1  0.09185305  0.82879585  0.16587345  1
  Ca2+  Ca16  1  0.08875265  0.82517099  0.48705085  1
  Ca2+  Ca17  1  0.08765995  0.83267837  0.83307635  1
  Ca2+  Ca18  1  0.57571653  0.33773670  0.16752147  1
  Ca2+  Ca19  1  0.57175866  0.33472173  0.49092671  1
  Ca2+  Ca20  1  0.56880232  0.34427227  0.83514577  1
  Ca2+  Ca21  1  0.57507473  0.82653289  0.16282600  1
  Ca2+  Ca22  1  0.57473463  0.82683970  0.49125688  1
  Ca2+  Ca23  1  0.58390816  0.82340413  0.83296147  1
  Ca2+  Ca24  1  0.33323344  0.42369447  0.17390752  1
  Ca2+  Ca25  1  0.32529170  0.41501619  0.50494260  1
  Ca2+  Ca26  1  0.32845111  0.41759405  0.84264042  1
  Ca2+  Ca27  1  0.32743073  0.91782395  0.17347309  1
  Ca2+  Ca28  1  0.33110566  0.91525090  0.49636938  1
  Ca2+  Ca29  1  0.32838289  0.92777260  0.84366875  1
  Ca2+  Ca30  1  0.82109050  0.41276866  0.17260294  1
  Ca2+  Ca31  1  0.82829540  0.40113263  0.49902958  1
  Ca2+  Ca32  1  0.82592111  0.41820907  0.84207361  1
  Ca2+  Ca33  1  0.82962035  0.92435526  0.17493436  1
  Ca2+  Ca34  1  0.83438108  0.93268437  0.50254189  1
  Ca2+  Ca35  1  0.83419958  0.92436893  0.83658047  1
  Ca2+  Ca36  1  0.41081666  0.17969057  0.16375524  1
  Ca2+  Ca37  1  0.42231439  0.17976477  0.49037248  1
  Ca2+  Ca38  1  0.40949708  0.18021944  0.83293351  1
  Ca2+  Ca39  1  0.41129520  0.66696706  0.16221563  1
  Ca2+  Ca40  1  0.40371772  0.66972659  0.49228716  1
  Ca2+  Ca41  1  0.41956884  0.65411310  0.83428408  1
  Ca2+  Ca42  1  0.92186109  0.16889365  0.17347057  1
  Ca2+  Ca43  1  0.91871645  0.17280617  0.49115244  1
  Ca2+  Ca44  1  0.92033022  0.17372907  0.82485158  1
  Ca2+  Ca45  1  0.92401722  0.66013858  0.16263711  1
  Ca2+  Ca46  1  0.92799833  0.66896833  0.48994773  1
  Ca2+  Ca47  1  0.91820054  0.66366627  0.83087676  1
  Al0+  Al48  1  -0.00061462  0.00019865  0.00123621  1
  Al0+  Al49  1  -0.00201498  0.00093061  0.33811209  1
  Al0+  Al50  1  -0.00272539  -0.00031944  0.67274875  1
  Al0+  Al51  1  0.00009156  0.50243387  0.00064800  1
  Al0+  Al52  1  0.00002884  0.50198809  0.32683240  1
  Al0+  Al53  1  -0.00026643  0.50159150  0.66272041  1
  Al0+  Al54  1  0.50208409  0.00157582  0.00063394  1
  Al0+  Al55  1  0.50042813  -0.00270722  0.32714192  1
  Al0+  Al56  1  0.50081996  -0.00393351  0.66695884  1
  Al0+  Al57  1  0.50143416  0.50012098  -0.00124540  1
  Al0+  Al58  1  0.50317901  0.50241251  0.33948922  1
  Al0+  Al59  1  0.50224767  0.50007095  0.66317266  1
  Al0+  Al60  1  0.24756958  0.24727871  0.00184319  1
  Al0+  Al61  1  0.24923866  0.24790302  0.33020632  1
  Al0+  Al62  1  0.24760309  0.24627724  0.66430008  1
  Al0+  Al63  1  0.24840624  0.75013296  -0.00006849  1
  Al0+  Al64  1  0.24867413  0.75087752  0.33109615  1
  Al0+  Al65  1  0.25091350  0.74829449  0.67188830  1
  Al0+  Al66  1  0.75119125  0.25027334  0.00254471  1
  Al0+  Al67  1  0.75086605  0.25123995  0.33452670  1
  Al0+  Al68  1  0.75136560  0.24930711  0.67200679  1
  Al0+  Al69  1  0.75115272  0.75283268  -0.00138653  1
  Al0+  Al70  1  0.74955725  0.75115423  0.33505853  1
  Al0+  Al71  1  0.74922519  0.75125281  0.66418508  1
  Al0+  Al72  1  0.42843906  0.81870089  0.31921411  1
  Al0+  Al73  1  0.81842924  0.07012003  0.34732709  1
  Al0+  Al74  1  0.17748593  0.42631039  0.67960267  1
  Al0+  Al75  1  0.42756355  0.32382043  0.31902633  1
  Al0+  Al76  1  0.92990346  0.32140664  0.65437702  1
  Al0+  Al77  1  0.67969552  0.42851176  0.01567802  1
  Al0+  Al78  1  0.68127746  0.43033431  0.34944737  1
  Al0+  Al79  1  0.93014675  0.32154895  0.31611836  1
  Al0+  Al80  1  0.42781902  0.32071166  0.65332190  1
  Al0+  Al81  1  0.82152533  0.57440773  0.01386338  1
  Al0+  Al82  1  0.17767702  0.42724658  0.01424031  1
  Al0+  Al83  1  0.57101356  0.18047250  0.32048064  1
  Al0+  Al84  1  0.18090578  0.93156696  0.34723828  1
  Al0+  Al85  1  0.57027815  0.68081305  0.98670302  1
  Al0+  Al86  1  0.17862921  0.92976327  0.01491023  1
  Al0+  Al87  1  0.32258217  0.56902919  0.01454616  1
  Al0+  Al88  1  0.17794494  0.42566945  0.34768022  1
  Al0+  Al89  1  0.32105039  0.57050579  0.34719407  1
  Al0+  Al90  1  0.07026150  0.68024793  0.31766679  1
  Al0+  Al91  1  0.32356296  0.07222191  0.01561051  1
  Al0+  Al92  1  0.42883550  0.31925252  0.98733291  1
  Al0+  Al93  1  0.07138030  0.17620178  0.31766167  1
  Al0+  Al94  1  0.81910582  0.07077890  0.68336250  1
  Al0+  Al95  1  0.32208167  0.57013902  0.68276123  1
  Si0+  Si96  1  0.92706881  0.82247639  0.31763414  1
  Si0+  Si97  1  0.07149010  0.67876450  0.98103684  1
  Si0+  Si98  1  0.82296294  0.57447738  0.35049954  1
  Si0+  Si99  1  0.67946201  0.92908907  0.01472948  1
  Si0+  Si100  1  0.57273025  0.67880651  0.65053562  1
  Si0+  Si101  1  0.67573298  0.92600814  0.35097457  1
  Si0+  Si102  1  0.42684703  0.82353999  0.98143537  1
  Si0+  Si103  1  0.32549858  0.07172990  0.35066400  1
  Si0+  Si104  1  0.67777378  0.92515641  0.68515880  1
  Si0+  Si105  1  0.32375208  0.06921987  0.67937260  1
  Si0+  Si106  1  0.17921840  0.92835922  0.68089658  1
  Si0+  Si107  1  0.82018849  0.07081248  0.01619461  1
  Si0+  Si108  1  0.57547387  0.67836881  0.31654898  1
  Si0+  Si109  1  0.92937568  0.32139604  0.98444663  1
  Si0+  Si110  1  0.92818990  0.82259329  0.65152356  1
  Si0+  Si111  1  0.07081245  0.17417967  0.65124728  1
  Si0+  Si112  1  0.07111018  0.68222610  0.65155469  1
  Si0+  Si113  1  0.42867676  0.81987343  0.65266812  1
  Si0+  Si114  1  0.92991350  0.82276142  0.98358398  1
  Si0+  Si115  1  0.06805078  0.17684748  0.98391409  1
  Si0+  Si116  1  0.68098036  0.42952909  0.68224801  1
  Si0+  Si117  1  0.57113869  0.17575103  0.65337782  1
  Si0+  Si118  1  0.82032823  0.57463321  0.67919057  1
  Si0+  Si119  1  0.57589948  0.17704345  0.98230151  1
  O2-  O120  1  0.25559203  -0.00415153  0.06412574  1
  O2-  O121  1  0.25287923  0.00736769  0.39684400  1
  O2-  O122  1  0.24903590  0.00092314  0.72098386  1
  O2-  O123  1  0.25322007  0.49501961  0.06368551  1
  O2-  O124  1  0.25514830  0.49282402  0.39734009  1
  O2-  O125  1  0.25568934  0.49152649  0.73014597  1
  O2-  O126  1  0.74407143  0.00525780  0.05715631  1
  O2-  O127  1  0.74119942  -0.00232263  0.39497330  1
  O2-  O128  1  0.74375246  -0.00377117  0.72988656  1
  O2-  O129  1  0.75220124  0.50104204  0.06402730  1
  O2-  O130  1  0.75798830  0.50370561  0.39683552  1
  O2-  O131  1  0.75216124  0.50173492  0.72240876  1
  O2-  O132  1  0.00769935  0.25514405  0.26616197  1
  O2-  O133  1  0.00781233  0.24901850  0.60980389  1
  O2-  O134  1  0.00239701  0.25286786  0.94128717  1
  O2-  O135  1  -0.00735143  0.75306443  0.27133124  1
  O2-  O136  1  0.00032473  0.75395516  0.60881732  1
  O2-  O137  1  -0.00050301  0.75083131  0.93985380  1
  O2-  O138  1  0.49650183  0.24810791  0.26939203  1
  O2-  O139  1  0.50183608  0.24329548  0.60978161  1
  O2-  O140  1  0.50421855  0.24342599  0.93961792  1
  O2-  O141  1  0.50283365  0.74336428  0.27409288  1
  O2-  O142  1  0.49679337  0.74574299  0.61070705  1
  O2-  O143  1  0.49332202  0.75266837  0.93661006  1
  O2-  O144  1  0.06256748  0.17029435  0.08789139  1
  O2-  O145  1  0.06370444  0.17184379  0.43154193  1
  O2-  O146  1  0.06818861  0.16870993  0.75695669  1
  O2-  O147  1  0.07084687  0.67961949  0.08543424  1
  O2-  O148  1  0.06911930  0.68369175  0.43172523  1
  O2-  O149  1  0.06866395  0.68415894  0.75670044  1
  O2-  O150  1  0.58037055  0.17674299  0.08696329  1
  O2-  O151  1  0.57052403  0.18326014  0.43487110  1
  O2-  O152  1  0.57012492  0.17400443  0.75891073  1
  O2-  O153  1  0.57285838  0.68565946  0.09898871  1
  O2-  O154  1  0.58052698  0.68273667  0.42255162  1
  O2-  O155  1  0.57735179  0.68141974  0.75533665  1
  O2-  O156  1  0.17662465  0.43133964  0.23473551  1
  O2-  O157  1  0.17448651  0.42976099  0.56680399  1
  O2-  O158  1  0.17590629  0.43002793  0.90011520  1
  O2-  O159  1  0.18150079  0.93083197  0.23498316  1
  O2-  O160  1  0.17833351  0.92636433  0.57613427  1
  O2-  O161  1  0.17725061  0.93312240  0.90006142  1
  O2-  O162  1  0.68090757  0.43151893  0.23697373  1
  O2-  O163  1  0.68153184  0.42920179  0.57746073  1
  O2-  O164  1  0.68158883  0.42955808  0.90097064  1
  O2-  O165  1  0.67959912  0.92262577  0.24542557  1
  O2-  O166  1  0.67909875  0.92047124  0.58029968  1
  O2-  O167  1  0.68284838  0.92777313  0.90931290  1
  O2-  O168  1  0.43031966  0.31999010  0.09934355  1
  O2-  O169  1  0.42998221  0.32239631  0.43331082  1
  O2-  O170  1  0.42931061  0.32079639  0.76667083  1
  O2-  O171  1  0.42896708  0.82432425  0.08658577  1
  O2-  O172  1  0.42946106  0.81806207  0.43337557  1
  O2-  O173  1  0.43050517  0.82413328  0.75727195  1
  O2-  O174  1  0.92713724  0.31923023  0.08881563  1
  O2-  O175  1  0.92838242  0.31739570  0.43021671  1
  O2-  O176  1  0.92830057  0.31999758  0.76808155  1
  O2-  O177  1  0.92923368  0.82550317  0.08799152  1
  O2-  O178  1  0.92828545  0.82070338  0.42384836  1
  O2-  O179  1  0.92785671  0.82226657  0.75675593  1
  O2-  O180  1  0.32747568  0.06652618  0.24562321  1
  O2-  O181  1  0.32804188  0.06590751  0.57493005  1
  O2-  O182  1  0.31953196  0.07120222  0.90048407  1
  O2-  O183  1  0.31926634  0.57223385  0.23410921  1
  O2-  O184  1  0.31626232  0.57718724  0.57028487  1
  O2-  O185  1  0.32070968  0.56698266  0.90057121  1
  O2-  O186  1  0.81770109  0.06653932  0.23394495  1
  O2-  O187  1  0.81888713  0.06934817  0.57096077  1
  O2-  O188  1  0.82085395  0.06912020  0.91073278  1
  O2-  O189  1  0.81865445  0.57829886  0.24554696  1
  O2-  O190  1  0.81751830  0.58027500  0.57476071  1
  O2-  O191  1  0.82084745  0.57215607  0.89899679  1
  O2-  O192  1  0.03198316  0.08059700  0.26471099  1
  O2-  O193  1  0.03739958  0.08224866  0.60519869  1
  O2-  O194  1  0.03393971  0.08760572  0.93317125  1
  O2-  O195  1  0.04020930  0.58591846  0.26060989  1
  O2-  O196  1  0.04182316  0.59205130  0.60294310  1
  O2-  O197  1  0.04114807  0.58847139  0.93125878  1
  O2-  O198  1  0.55250871  0.07878931  0.27013605  1
  O2-  O199  1  0.54999483  0.08052038  0.60795800  1
  O2-  O200  1  0.55542422  0.08152544  0.93630280  1
  O2-  O201  1  0.55483728  0.58331469  0.27440775  1
  O2-  O202  1  0.55179953  0.58608654  0.60279847  1
  O2-  O203  1  0.54392673  0.58400458  0.93035338  1
  O2-  O204  1  0.17372318  0.18919000  0.26926631  1
  O2-  O205  1  0.16656696  0.18826524  0.60626464  1
  O2-  O206  1  0.16176369  0.19774553  0.93760236  1
  O2-  O207  1  0.16338361  0.71691572  0.26302981  1
  O2-  O208  1  0.16281901  0.71275025  0.60622190  1
  O2-  O209  1  0.16203995  0.70859650  0.93147245  1
  O2-  O210  1  0.66826414  0.21103117  0.26777357  1
  O2-  O211  1  0.66535805  0.20407140  0.61080664  1
  O2-  O212  1  0.66924452  0.20535015  0.93488749  1
  O2-  O213  1  0.66706489  0.70886392  0.26895037  1
  O2-  O214  1  0.66193878  0.71228824  0.60065340  1
  O2-  O215  1  0.66627128  0.71656957  0.93094262  1
  O2-  O216  1  0.08067459  0.46047711  0.06537630  1
  O2-  O217  1  0.07908502  0.46069621  0.39747389  1
  O2-  O218  1  0.08012071  0.46286759  0.73211830  1
  O2-  O219  1  0.08107984  0.96139842  0.06684124  1
  O2-  O220  1  0.08345415  0.95900529  0.40261938  1
  O2-  O221  1  0.08680692  0.95375079  0.72878303  1
  O2-  O222  1  0.58261992  0.45881807  0.06698001  1
  O2-  O223  1  0.58751045  0.46374349  0.40780607  1
  O2-  O224  1  0.58942836  0.45914506  0.72848004  1
  O2-  O225  1  0.58565480  0.94911382  0.06021537  1
  O2-  O226  1  0.58064973  0.94701767  0.39529525  1
  O2-  O227  1  0.58325872  0.94744782  0.73103141  1
  O2-  O228  1  0.19479021  0.32571106  0.06215426  1
  O2-  O229  1  0.19812426  0.32397183  0.39800215  1
  O2-  O230  1  0.19521346  0.32319809  0.72841347  1
  O2-  O231  1  0.20036191  0.82924719  0.06365994  1
  O2-  O232  1  0.21457538  0.83632198  0.40215466  1
  O2-  O233  1  0.20851308  0.83847488  0.73096102  1
  O2-  O234  1  0.70970216  0.33067223  0.06803969  1
  O2-  O235  1  0.71324483  0.33471689  0.40445461  1
  O2-  O236  1  0.70882954  0.33898841  0.73139951  1
  O2-  O237  1  0.71368536  0.84102042  0.06379798  1
  O2-  O238  1  0.70477751  0.83439960  0.40023741  1
  O2-  O239  1  0.70848278  0.83341990  0.73342053  1
  O2-  O240  1  0.46238368  0.42212073  0.27057918  1
  O2-  O241  1  0.46175498  0.41615216  0.59924946  1
  O2-  O242  1  0.46205078  0.41480164  0.93156399  1
  O2-  O243  1  0.45977771  0.91332029  0.26242154  1
  O2-  O244  1  0.45891802  0.90985223  0.60239267  1
  O2-  O245  1  0.45651575  0.91677530  0.93507520  1
  O2-  O246  1  0.94866759  0.42221135  0.26465696  1
  O2-  O247  1  0.95313540  0.41958524  0.59982799  1
  O2-  O248  1  0.95425200  0.41470810  0.93781455  1
  O2-  O249  1  0.95298383  0.91568298  0.27299368  1
  O2-  O250  1  0.95465074  0.91546610  0.60621323  1
  O2-  O251  1  0.96019356  0.91354388  0.93351105  1
  O2-  O252  1  0.32864251  0.29863358  0.26696360  1
  O2-  O253  1  0.33076341  0.28962393  0.60059411  1
  O2-  O254  1  0.33165409  0.28614121  0.93324079  1
  O2-  O255  1  0.33308394  0.78924272  0.26415448  1
  O2-  O256  1  0.33542223  0.79361863  0.60699055  1
  O2-  O257  1  0.33167946  0.80189279  0.93655433  1
  O2-  O258  1  0.83406379  0.28540383  0.26412639  1
  O2-  O259  1  0.83330132  0.28571665  0.60291607  1
  O2-  O260  1  0.83819023  0.29021558  0.93645533  1
  O2-  O261  1  0.83200263  0.80013467  0.27301162  1
  O2-  O262  1  0.83662507  0.79508661  0.60392724  1
  O2-  O263  1  0.83837151  0.79725459  0.93376485  1
  O2-  O264  1  0.42490699  0.05108949  0.06437275  1
  O2-  O265  1  0.41744451  0.03936949  0.39717195  1
  O2-  O266  1  0.41339402  0.03748782  0.72929152  1
  O2-  O267  1  0.42238819  0.54700227  0.06495192  1
  O2-  O268  1  0.42266792  0.55520358  0.39880864  1
  O2-  O269  1  0.42512456  0.54871550  0.72906208  1
  O2-  O270  1  0.90908123  0.03591622  0.06283296  1
  O2-  O271  1  0.91180366  0.03572282  0.40495950  1
  O2-  O272  1  0.91399852  0.03678494  0.74025740  1
  O2-  O273  1  0.92063404  0.54978491  0.06377301  1
  O2-  O274  1  0.91829433  0.55299949  0.39342770  1
  O2-  O275  1  0.91361814  0.55025777  0.72446936  1
  O2-  O276  1  0.28951831  0.16684500  0.06958576  1
  O2-  O277  1  0.30493557  0.16692034  0.39424974  1
  O2-  O278  1  0.29664601  0.16079330  0.72704713  1
  O2-  O279  1  0.29362970  0.66905339  0.06217238  1
  O2-  O280  1  0.28400872  0.66703214  0.39963799  1
  O2-  O281  1  0.29005952  0.66715711  0.73873776  1
  O2-  O282  1  0.79773738  0.16357150  0.06233120  1
  O2-  O283  1  0.78810904  0.16586154  0.40246964  1
  O2-  O284  1  0.78847514  0.16588532  0.74098949  1
  O2-  O285  1  0.79547976  0.67379918  0.06477985  1
  O2-  O286  1  0.79534018  0.66758239  0.39881732  1
  O2-  O287  1  0.79117486  0.66581561  0.72832188  1
