# generated using pymatgen
data_Ca2Al2SiO7
_symmetry_space_group_name_H-M   'P 1'
_cell_length_a   15.46806252
_cell_length_b   15.46723105
_cell_length_c   15.29081485
_cell_angle_alpha   89.98409529
_cell_angle_beta   90.01089950
_cell_angle_gamma   90.01230263
_symmetry_Int_Tables_number   1
_chemical_formula_structural   Ca2Al2SiO7
_chemical_formula_sum   'Ca48 Al48 Si24 O168'
_cell_volume   3658.29806083
_cell_formula_units_Z   24
loop_
 _symmetry_equiv_pos_site_id
 _symmetry_equiv_pos_as_xyz
  1  'x, y, z'
loop_
 _atom_type_symbol
 _atom_type_oxidation_number
  Ca2+  2.0
  Al0+  0.0
  Si0+  0.0
  O2-  -2.0
loop_
 _atom_site_type_symbol
 _atom_site_label
 _atom_site_symmetry_multiplicity
 _atom_site_fract_x
 _atom_site_fract_y
 _atom_site_fract_z
 _atom_site_occupancy
  Ca2+  Ca0  1  0.17656650  0.09123343  0.16900868  1
  Ca2+  Ca1  1  0.17673226  0.09036690  0.50522946  1
  Ca2+  Ca2  1  0.17349823  0.08381286  0.84338464  1
  Ca2+  Ca3  1  0.16893664  0.57405893  0.16422553  1
  Ca2+  Ca4  1  0.16730766  0.57193511  0.51118357  1
  Ca2+  Ca5  1  0.16818823  0.57542231  0.84073157  1
  Ca2+  Ca6  1  0.67133971  0.07960994  0.16894993  1
  Ca2+  Ca7  1  0.66711345  0.07952938  0.50247195  1
  Ca2+  Ca8  1  0.66965403  0.08526936  0.84437817  1
  Ca2+  Ca9  1  0.66548070  0.58166685  0.16759416  1
  Ca2+  Ca10  1  0.67337730  0.58223571  0.50714877  1
  Ca2+  Ca11  1  0.67618066  0.58715976  0.83578344  1
  Ca2+  Ca12  1  0.08865608  0.32539155  0.16290948  1
  Ca2+  Ca13  1  0.09381674  0.32598670  0.49882686  1
  Ca2+  Ca14  1  0.09446755  0.32450710  0.83249795  1
  Ca2+  Ca15  1  0.08941888  0.82758035  0.15468171  1
  Ca2+  Ca16  1  0.08746185  0.82288387  0.49802036  1
  Ca2+  Ca17  1  0.09741511  0.82103331  0.83401958  1
  Ca2+  Ca18  1  0.57204301  0.32561345  0.15229806  1
  Ca2+  Ca19  1  0.58150804  0.32578082  0.49833542  1
  Ca2+  Ca20  1  0.57491595  0.32200757  0.83171444  1
  Ca2+  Ca21  1  0.57544788  0.84367915  0.16268658  1
  Ca2+  Ca22  1  0.57737439  0.83388573  0.49084532  1
  Ca2+  Ca23  1  0.57559940  0.84161046  0.83504421  1
  Ca2+  Ca24  1  0.32156326  0.40894760  0.16590142  1
  Ca2+  Ca25  1  0.32131931  0.42099041  0.50849334  1
  Ca2+  Ca26  1  0.32449657  0.42348176  0.84164543  1
  Ca2+  Ca27  1  0.33493600  0.92379294  0.16492514  1
  Ca2+  Ca28  1  0.33763009  0.92563120  0.49957456  1
  Ca2+  Ca29  1  0.33040072  0.92656080  0.84253514  1
  Ca2+  Ca30  1  0.83294700  0.41650020  0.16738746  1
  Ca2+  Ca31  1  0.83227774  0.42103593  0.50659708  1
  Ca2+  Ca32  1  0.83668701  0.42106815  0.83356033  1
  Ca2+  Ca33  1  0.82468777  0.92921803  0.16868104  1
  Ca2+  Ca34  1  0.82935612  0.92035985  0.49850186  1
  Ca2+  Ca35  1  0.82437702  0.92390309  0.84479466  1
  Ca2+  Ca36  1  0.41764984  0.16581914  0.15610670  1
  Ca2+  Ca37  1  0.41691745  0.15938311  0.49890213  1
  Ca2+  Ca38  1  0.42159252  0.16030557  0.83152540  1
  Ca2+  Ca39  1  0.41056704  0.67947210  0.15723169  1
  Ca2+  Ca40  1  0.41095357  0.67383581  0.49467960  1
  Ca2+  Ca41  1  0.40218688  0.67262145  0.83304516  1
  Ca2+  Ca42  1  0.92505772  0.15819476  0.16203599  1
  Ca2+  Ca43  1  0.93148393  0.16268819  0.49371827  1
  Ca2+  Ca44  1  0.93035224  0.16011257  0.83200436  1
  Ca2+  Ca45  1  0.92495540  0.67183195  0.15780618  1
  Ca2+  Ca46  1  0.92066525  0.66201137  0.50098907  1
  Ca2+  Ca47  1  0.92892719  0.66644825  0.82733167  1
  Al0+  Al48  1  -0.00194175  -0.00178386  0.00172203  1
  Al0+  Al49  1  0.00063278  -0.00252303  0.33327818  1
  Al0+  Al50  1  -0.00217238  -0.00122873  0.66102057  1
  Al0+  Al51  1  0.00076049  0.50053835  0.00080419  1
  Al0+  Al52  1  0.00014111  0.49809208  0.33622917  1
  Al0+  Al53  1  -0.00177343  0.49978936  0.67023811  1
  Al0+  Al54  1  0.49990394  -0.00116820  -0.00213058  1
  Al0+  Al55  1  0.50012329  -0.00077106  0.33643347  1
  Al0+  Al56  1  0.49967195  -0.00048187  0.66473813  1
  Al0+  Al57  1  0.50146884  0.50263015  -0.00178407  1
  Al0+  Al58  1  0.50035137  0.50032442  0.33405952  1
  Al0+  Al59  1  0.50010693  0.50036780  0.66826976  1
  Al0+  Al60  1  0.24900529  0.25228802  -0.00052545  1
  Al0+  Al61  1  0.25070418  0.25034647  0.33911874  1
  Al0+  Al62  1  0.25249695  0.25028444  0.67026509  1
  Al0+  Al63  1  0.25131679  0.74937854  -0.00184563  1
  Al0+  Al64  1  0.25106843  0.75069146  0.32747913  1
  Al0+  Al65  1  0.24865569  0.75111066  0.65934862  1
  Al0+  Al66  1  0.75120999  0.25278639  0.00015423  1
  Al0+  Al67  1  0.75230925  0.25068430  0.33770464  1
  Al0+  Al68  1  0.74908435  0.24847869  0.66159526  1
  Al0+  Al69  1  0.75023490  0.75106060  0.00446796  1
  Al0+  Al70  1  0.75034617  0.74894764  0.33561368  1
  Al0+  Al71  1  0.74832113  0.75025026  0.66971962  1
  Al0+  Al72  1  0.07037771  0.67971043  0.98657519  1
  Al0+  Al73  1  0.17995296  0.43028955  0.34909208  1
  Al0+  Al74  1  0.07184190  0.17951296  0.31983306  1
  Al0+  Al75  1  0.57075050  0.17878987  0.98683859  1
  Al0+  Al76  1  0.17817292  0.42898137  0.01712958  1
  Al0+  Al77  1  0.32317587  0.57185303  0.01601264  1
  Al0+  Al78  1  0.57033324  0.17820491  0.65044696  1
  Al0+  Al79  1  0.43056043  0.81987276  0.98452470  1
  Al0+  Al80  1  0.06919326  0.17814097  0.98813279  1
  Al0+  Al81  1  0.43051210  0.82113057  0.31782841  1
  Al0+  Al82  1  0.67789418  0.92912767  0.01484312  1
  Al0+  Al83  1  0.17890514  0.92817534  0.01295690  1
  Al0+  Al84  1  0.31980550  0.07206967  0.01399990  1
  Al0+  Al85  1  0.07253107  0.17891459  0.65310198  1
  Al0+  Al86  1  0.06938200  0.67920786  0.65162230  1
  Al0+  Al87  1  0.31909018  0.06981363  0.34739093  1
  Al0+  Al88  1  0.42664524  0.32362408  0.98454679  1
  Al0+  Al89  1  0.32174512  0.57438643  0.68040176  1
  Al0+  Al90  1  0.17874918  0.42879362  0.68403395  1
  Al0+  Al91  1  0.82200489  0.07489285  0.01373250  1
  Al0+  Al92  1  0.81914784  0.57079620  0.68099870  1
  Al0+  Al93  1  0.82381458  0.07256842  0.35152722  1
  Al0+  Al94  1  0.32068264  0.06852888  0.68101260  1
  Al0+  Al95  1  0.67945498  0.93011965  0.35019034  1
  Si0+  Si96  1  0.67934247  0.43013537  0.01401903  1
  Si0+  Si97  1  0.42985984  0.82002468  0.64999977  1
  Si0+  Si98  1  0.57335614  0.67872692  0.65214879  1
  Si0+  Si99  1  0.06966318  0.67730830  0.31787672  1
  Si0+  Si100  1  0.57237495  0.18008826  0.31954388  1
  Si0+  Si101  1  0.57354938  0.67647636  0.31688345  1
  Si0+  Si102  1  0.43050137  0.32176480  0.32051788  1
  Si0+  Si103  1  0.17728222  0.92383489  0.35015622  1
  Si0+  Si104  1  0.92697717  0.32329290  0.31712334  1
  Si0+  Si105  1  0.92713045  0.32112895  0.65003684  1
  Si0+  Si106  1  0.32187515  0.57384274  0.34876305  1
  Si0+  Si107  1  0.82042812  0.56956847  0.34763787  1
  Si0+  Si108  1  0.57554227  0.67767471  0.98198532  1
  Si0+  Si109  1  0.17473635  0.92849929  0.68013663  1
  Si0+  Si110  1  0.92742435  0.81917770  0.31758233  1
  Si0+  Si111  1  0.92607712  0.82112710  0.98353314  1
  Si0+  Si112  1  0.82144688  0.07102925  0.68087484  1
  Si0+  Si113  1  0.42916095  0.32333657  0.64844145  1
  Si0+  Si114  1  0.92331347  0.82073857  0.64836039  1
  Si0+  Si115  1  0.67772839  0.42521506  0.68379458  1
  Si0+  Si116  1  0.92742075  0.32410853  0.98320265  1
  Si0+  Si117  1  0.67679531  0.42853574  0.34821649  1
  Si0+  Si118  1  0.67897498  0.92998660  0.68159918  1
  Si0+  Si119  1  0.82154840  0.57123232  0.01596157  1
  O2-  O120  1  0.24521454  0.00355776  0.06546090  1
  O2-  O121  1  0.24269356  -0.00420129  0.39377151  1
  O2-  O122  1  0.23973392  -0.00019835  0.72462614  1
  O2-  O123  1  0.25450453  0.49717547  0.06661892  1
  O2-  O124  1  0.25330560  0.50678761  0.39453939  1
  O2-  O125  1  0.24981455  0.50334975  0.73081586  1
  O2-  O126  1  0.74718521  0.00492181  0.06221806  1
  O2-  O127  1  0.74991171  0.00248148  0.40231899  1
  O2-  O128  1  0.74982832  0.00096433  0.72289991  1
  O2-  O129  1  0.74970694  0.50138942  0.05826911  1
  O2-  O130  1  0.74840684  0.49942253  0.38974258  1
  O2-  O131  1  0.74526538  0.49531435  0.72789187  1
  O2-  O132  1  -0.00714152  0.25161793  0.27475823  1
  O2-  O133  1  -0.00202054  0.25472271  0.60622501  1
  O2-  O134  1  -0.00611777  0.25289574  0.94083155  1
  O2-  O135  1  0.00237989  0.75193402  0.27591108  1
  O2-  O136  1  -0.00555632  0.75403693  0.60391371  1
  O2-  O137  1  -0.00187617  0.75665262  0.93883568  1
  O2-  O138  1  0.50263771  0.25214669  0.27820376  1
  O2-  O139  1  0.49649902  0.25343871  0.60279983  1
  O2-  O140  1  0.49521697  0.24699457  0.93598196  1
  O2-  O141  1  0.50484823  0.74432236  0.27320941  1
  O2-  O142  1  0.49783013  0.74440942  0.60958739  1
  O2-  O143  1  0.50557260  0.74450800  0.93764437  1
  O2-  O144  1  0.06850921  0.18032109  0.10135285  1
  O2-  O145  1  0.07259995  0.18324859  0.43319385  1
  O2-  O146  1  0.06958914  0.17620696  0.76574681  1
  O2-  O147  1  0.06581355  0.67874004  0.10034877  1
  O2-  O148  1  0.06736583  0.67662703  0.42319356  1
  O2-  O149  1  0.06905948  0.68118067  0.76410633  1
  O2-  O150  1  0.57270905  0.18267974  0.10106107  1
  O2-  O151  1  0.57157424  0.18204507  0.42501397  1
  O2-  O152  1  0.57258536  0.17836900  0.76278387  1
  O2-  O153  1  0.57834916  0.67696986  0.08763804  1
  O2-  O154  1  0.57452644  0.67457088  0.42277258  1
  O2-  O155  1  0.58023611  0.68246431  0.75624249  1
  O2-  O156  1  0.17915822  0.43059173  0.23674031  1
  O2-  O157  1  0.18055496  0.43011743  0.56973336  1
  O2-  O158  1  0.17470612  0.43163468  0.90425962  1
  O2-  O159  1  0.17827303  0.91953348  0.24534097  1
  O2-  O160  1  0.17667809  0.92687016  0.57419369  1
  O2-  O161  1  0.18227264  0.92800951  0.89900519  1
  O2-  O162  1  0.67576989  0.42955398  0.24328823  1
  O2-  O163  1  0.67931597  0.42711575  0.57744761  1
  O2-  O164  1  0.68202516  0.43083341  0.90923947  1
  O2-  O165  1  0.68077700  0.93109023  0.23750437  1
  O2-  O166  1  0.67951861  0.92887004  0.57656236  1
  O2-  O167  1  0.68132229  0.92679078  0.90056139  1
  O2-  O168  1  0.43111193  0.32324904  0.09923897  1
  O2-  O169  1  0.43367996  0.32404491  0.42565219  1
  O2-  O170  1  0.43240948  0.32485866  0.75328951  1
  O2-  O171  1  0.43208482  0.81961014  0.09757374  1
  O2-  O172  1  0.43181488  0.81811171  0.43174707  1
  O2-  O173  1  0.43111200  0.82204330  0.75457705  1
  O2-  O174  1  0.92656950  0.32752802  0.08883799  1
  O2-  O175  1  0.92568504  0.32805627  0.42233607  1
  O2-  O176  1  0.92225629  0.31871025  0.75517016  1
  O2-  O177  1  0.92351439  0.81563273  0.08927658  1
  O2-  O178  1  0.92564329  0.81532122  0.42286139  1
  O2-  O179  1  0.91879986  0.81952721  0.75327994  1
  O2-  O180  1  0.32067618  0.07191841  0.23513322  1
  O2-  O181  1  0.32236595  0.06488053  0.56747967  1
  O2-  O182  1  0.32013009  0.06924484  0.90036931  1
  O2-  O183  1  0.32226616  0.57336426  0.24390850  1
  O2-  O184  1  0.32044800  0.57343563  0.56597928  1
  O2-  O185  1  0.31878683  0.57189996  0.90261015  1
  O2-  O186  1  0.82180475  0.07219386  0.23855818  1
  O2-  O187  1  0.82158486  0.06896340  0.57599400  1
  O2-  O188  1  0.82146566  0.07226204  0.89934011  1
  O2-  O189  1  0.82027170  0.56902921  0.24252493  1
  O2-  O190  1  0.81638101  0.56973185  0.56721236  1
  O2-  O191  1  0.82081501  0.57112438  0.91106712  1
  O2-  O192  1  0.04583694  0.07989691  0.26964822  1
  O2-  O193  1  0.04039689  0.08256364  0.59770722  1
  O2-  O194  1  0.03852431  0.08110422  0.93393766  1
  O2-  O195  1  0.03648273  0.58682100  0.27152264  1
  O2-  O196  1  0.03464673  0.58272717  0.59869312  1
  O2-  O197  1  0.03413918  0.58497543  0.93285193  1
  O2-  O198  1  0.54378823  0.08812584  0.27512766  1
  O2-  O199  1  0.53786749  0.08190567  0.59580718  1
  O2-  O200  1  0.54713470  0.08009087  0.93328993  1
  O2-  O201  1  0.55010173  0.58183655  0.27097898  1
  O2-  O202  1  0.55279181  0.58420286  0.60589037  1
  O2-  O203  1  0.55572509  0.58343548  0.93537776  1
  O2-  O204  1  0.16819524  0.21528129  0.26846425  1
  O2-  O205  1  0.17016388  0.21024077  0.60074681  1
  O2-  O206  1  0.16510926  0.20954610  0.93407509  1
  O2-  O207  1  0.16243911  0.70184074  0.27187905  1
  O2-  O208  1  0.16420664  0.71088632  0.59305971  1
  O2-  O209  1  0.16617169  0.70943866  0.93201604  1
  O2-  O210  1  0.66554293  0.20759757  0.27518599  1
  O2-  O211  1  0.66646669  0.20943069  0.59421828  1
  O2-  O212  1  0.66856488  0.21250588  0.93429850  1
  O2-  O213  1  0.66812749  0.70030208  0.27159587  1
  O2-  O214  1  0.66274556  0.71095430  0.60097134  1
  O2-  O215  1  0.66952502  0.70526561  0.93658689  1
  O2-  O216  1  0.08064551  0.46189777  0.07069718  1
  O2-  O217  1  0.08242727  0.45969788  0.40272746  1
  O2-  O218  1  0.07870702  0.45332030  0.73354111  1
  O2-  O219  1  0.07707343  0.94542863  0.06266270  1
  O2-  O220  1  0.08190751  0.94276164  0.39487624  1
  O2-  O221  1  0.07863948  0.94712100  0.72340160  1
  O2-  O222  1  0.58899601  0.45877270  0.06344434  1
  O2-  O223  1  0.58638662  0.45703770  0.39863262  1
  O2-  O224  1  0.58410158  0.44958331  0.72830094  1
  O2-  O225  1  0.57961988  0.95558650  0.06648199  1
  O2-  O226  1  0.58194367  0.95843360  0.40471505  1
  O2-  O227  1  0.58741788  0.95845542  0.72770748  1
  O2-  O228  1  0.20542440  0.33081300  0.07067246  1
  O2-  O229  1  0.21485792  0.33630790  0.40488360  1
  O2-  O230  1  0.20975173  0.33153644  0.73594408  1
  O2-  O231  1  0.21097810  0.83132374  0.06618191  1
  O2-  O232  1  0.20762702  0.83121793  0.39767374  1
  O2-  O233  1  0.20499784  0.83546179  0.72371947  1
  O2-  O234  1  0.70827918  0.34045470  0.06475541  1
  O2-  O235  1  0.70471141  0.33808376  0.39793280  1
  O2-  O236  1  0.70612745  0.33211401  0.72853795  1
  O2-  O237  1  0.70829885  0.83175444  0.06974594  1
  O2-  O238  1  0.70847056  0.83001076  0.40192496  1
  O2-  O239  1  0.70573636  0.83851159  0.72923519  1
  O2-  O240  1  0.45733154  0.41394916  0.27284254  1
  O2-  O241  1  0.45627612  0.41688610  0.60083493  1
  O2-  O242  1  0.46146784  0.42047828  0.93198139  1
  O2-  O243  1  0.46368104  0.91762999  0.26581328  1
  O2-  O244  1  0.46413611  0.90894898  0.60083757  1
  O2-  O245  1  0.46213301  0.91495459  0.92806812  1
  O2-  O246  1  0.95425296  0.41638585  0.26945469  1
  O2-  O247  1  0.94908735  0.41650737  0.60563622  1
  O2-  O248  1  0.95416593  0.41714056  0.93643689  1
  O2-  O249  1  0.95016046  0.91228413  0.27174312  1
  O2-  O250  1  0.94680174  0.91432424  0.60108141  1
  O2-  O251  1  0.94493168  0.91602653  0.93874161  1
  O2-  O252  1  0.33905440  0.29175611  0.27544139  1
  O2-  O253  1  0.33568366  0.29717802  0.60300287  1
  O2-  O254  1  0.32689186  0.30239229  0.93365402  1
  O2-  O255  1  0.33382520  0.79217434  0.26314886  1
  O2-  O256  1  0.33820420  0.79648153  0.59973531  1
  O2-  O257  1  0.33512659  0.78806096  0.92918455  1
  O2-  O258  1  0.83141048  0.30215729  0.27173034  1
  O2-  O259  1  0.83439735  0.29557080  0.60076923  1
  O2-  O260  1  0.83303084  0.30349065  0.93657089  1
  O2-  O261  1  0.83765130  0.78551423  0.26960146  1
  O2-  O262  1  0.83119142  0.79069453  0.60026498  1
  O2-  O263  1  0.83420752  0.79009693  0.93640261  1
  O2-  O264  1  0.41808510  0.04123604  0.06482608  1
  O2-  O265  1  0.41489968  0.03689160  0.40222498  1
  O2-  O266  1  0.41625930  0.03221089  0.73336431  1
  O2-  O267  1  0.42549949  0.55259352  0.06514907  1
  O2-  O268  1  0.41686701  0.54962821  0.39412876  1
  O2-  O269  1  0.42280901  0.55192598  0.73049738  1
  O2-  O270  1  0.91718592  0.04090236  0.06902755  1
  O2-  O271  1  0.92145103  0.03878019  0.40394168  1
  O2-  O272  1  0.91313270  0.04169664  0.72758298  1
  O2-  O273  1  0.91132568  0.54134401  0.06536640  1
  O2-  O274  1  0.91078261  0.54031989  0.39686431  1
  O2-  O275  1  0.91418630  0.54083697  0.73662452  1
  O2-  O276  1  0.29505737  0.17152715  0.06564640  1
  O2-  O277  1  0.29012123  0.16557572  0.40444073  1
  O2-  O278  1  0.29868723  0.16739782  0.73192562  1
  O2-  O279  1  0.28922946  0.66811300  0.06886435  1
  O2-  O280  1  0.29646671  0.66818446  0.39337023  1
  O2-  O281  1  0.29348597  0.67473817  0.72828751  1
  O2-  O282  1  0.79856848  0.17470559  0.06618309  1
  O2-  O283  1  0.79910321  0.17263689  0.40374277  1
  O2-  O284  1  0.79384305  0.16367519  0.72534458  1
  O2-  O285  1  0.79407046  0.66201020  0.06529405  1
  O2-  O286  1  0.79339392  0.66036089  0.39697543  1
  O2-  O287  1  0.78600983  0.66621508  0.73551260  1
