# generated using pymatgen
data_Ca2Al2SiO7
_symmetry_space_group_name_H-M   'P 1'
_cell_length_a   15.45464737
_cell_length_b   15.45461752
_cell_length_c   15.28081053
_cell_angle_alpha   90.00416373
_cell_angle_beta   90.00049643
_cell_angle_gamma   90.01918855
_symmetry_Int_Tables_number   1
_chemical_formula_structural   Ca2Al2SiO7
_chemical_formula_sum   'Ca48 Al48 Si24 O168'
_cell_volume   3649.75512396
_cell_formula_units_Z   24
loop_
 _symmetry_equiv_pos_site_id
 _symmetry_equiv_pos_as_xyz
  1  'x, y, z'
loop_
 _atom_type_symbol
 _atom_type_oxidation_number
  Ca2+  2.0
  Al0+  0.0
  Si0+  0.0
  O2-  -2.0
loop_
 _atom_site_type_symbol
 _atom_site_label
 _atom_site_symmetry_multiplicity
 _atom_site_fract_x
 _atom_site_fract_y
 _atom_site_fract_z
 _atom_site_occupancy
  Ca2+  Ca0  1  0.16263940  0.07163394  0.17276187  1
  Ca2+  Ca1  1  0.16965043  0.08226595  0.50172228  1
  Ca2+  Ca2  1  0.17457864  0.08075609  0.83728193  1
  Ca2+  Ca3  1  0.17392705  0.57490091  0.17188168  1
  Ca2+  Ca4  1  0.17663840  0.57493707  0.50443186  1
  Ca2+  Ca5  1  0.17223851  0.57523647  0.83751660  1
  Ca2+  Ca6  1  0.66639264  0.08421069  0.16338194  1
  Ca2+  Ca7  1  0.66817393  0.08690659  0.50755878  1
  Ca2+  Ca8  1  0.67683905  0.08569242  0.84061455  1
  Ca2+  Ca9  1  0.67153159  0.58025556  0.16909124  1
  Ca2+  Ca10  1  0.67154570  0.57692298  0.50458372  1
  Ca2+  Ca11  1  0.66368184  0.56828678  0.83751649  1
  Ca2+  Ca12  1  0.09067218  0.33084187  0.16461922  1
  Ca2+  Ca13  1  0.08432673  0.33362413  0.49516110  1
  Ca2+  Ca14  1  0.07809689  0.33910980  0.82607896  1
  Ca2+  Ca15  1  0.08202738  0.83509792  0.15715049  1
  Ca2+  Ca16  1  0.07876399  0.83645897  0.49618697  1
  Ca2+  Ca17  1  0.07443016  0.83909750  0.83259484  1
  Ca2+  Ca18  1  0.58764451  0.32480785  0.15987669  1
  Ca2+  Ca19  1  0.58794341  0.32282536  0.49828492  1
  Ca2+  Ca20  1  0.59061145  0.32528827  0.82683319  1
  Ca2+  Ca21  1  0.56989933  0.83419970  0.15702502  1
  Ca2+  Ca22  1  0.57283885  0.83079761  0.49185531  1
  Ca2+  Ca23  1  0.58011708  0.83607546  0.83420872  1
  Ca2+  Ca24  1  0.32687561  0.42570548  0.17249650  1
  Ca2+  Ca25  1  0.32386497  0.42070985  0.50870759  1
  Ca2+  Ca26  1  0.32509723  0.42547240  0.84061871  1
  Ca2+  Ca27  1  0.32482837  0.90810047  0.17055167  1
  Ca2+  Ca28  1  0.32896451  0.91871520  0.50167879  1
  Ca2+  Ca29  1  0.33111915  0.92060922  0.83955013  1
  Ca2+  Ca30  1  0.82765851  0.42088359  0.16865168  1
  Ca2+  Ca31  1  0.83256949  0.41892874  0.50570945  1
  Ca2+  Ca32  1  0.82358969  0.40686698  0.83465562  1
  Ca2+  Ca33  1  0.82997153  0.91857446  0.16403441  1
  Ca2+  Ca34  1  0.83199025  0.92486851  0.50888718  1
  Ca2+  Ca35  1  0.83319530  0.92557541  0.84238176  1
  Ca2+  Ca36  1  0.42955893  0.16626376  0.16020214  1
  Ca2+  Ca37  1  0.42634299  0.16202820  0.49527455  1
  Ca2+  Ca38  1  0.42991818  0.16205212  0.82678367  1
  Ca2+  Ca39  1  0.40420325  0.67331941  0.16339149  1
  Ca2+  Ca40  1  0.41088837  0.66676774  0.49484194  1
  Ca2+  Ca41  1  0.40681688  0.66876178  0.83376800  1
  Ca2+  Ca42  1  0.92292466  0.16327669  0.16329422  1
  Ca2+  Ca43  1  0.91980224  0.17343891  0.49855255  1
  Ca2+  Ca44  1  0.91443846  0.16757496  0.82568385  1
  Ca2+  Ca45  1  0.91699497  0.67096938  0.15919497  1
  Ca2+  Ca46  1  0.91528369  0.67077097  0.49518302  1
  Ca2+  Ca47  1  0.91385817  0.68184339  0.82740240  1
  Al0+  Al48  1  0.00097745  0.00158991  0.00207226  1
  Al0+  Al49  1  -0.00141490  0.00169279  0.33446801  1
  Al0+  Al50  1  -0.00094646  0.00074090  0.66447869  1
  Al0+  Al51  1  0.00079761  0.49913770  0.00137964  1
  Al0+  Al52  1  -0.00195747  0.50174365  0.33950541  1
  Al0+  Al53  1  -0.00040034  0.50293366  0.66491816  1
  Al0+  Al54  1  0.50214728  -0.00027660  -0.00678301  1
  Al0+  Al55  1  0.50013709  -0.00176084  0.32365780  1
  Al0+  Al56  1  0.49957553  -0.00168000  0.66466315  1
  Al0+  Al57  1  0.50003893  0.49990730  0.00965477  1
  Al0+  Al58  1  0.50199723  0.49935249  0.33653711  1
  Al0+  Al59  1  0.50017369  0.50008805  0.67278077  1
  Al0+  Al60  1  0.25209032  0.24970334  0.00170578  1
  Al0+  Al61  1  0.25069856  0.24804685  0.33111715  1
  Al0+  Al62  1  0.25144810  0.24876254  0.67549917  1
  Al0+  Al63  1  0.24892749  0.75032056  -0.00072923  1
  Al0+  Al64  1  0.24637824  0.75002706  0.33876438  1
  Al0+  Al65  1  0.24796863  0.74992039  0.66870307  1
  Al0+  Al66  1  0.75280428  0.24992830  0.00624636  1
  Al0+  Al67  1  0.75161695  0.24938739  0.32776172  1
  Al0+  Al68  1  0.75236066  0.24896987  0.66353173  1
  Al0+  Al69  1  0.74838340  0.75163002  -0.00270126  1
  Al0+  Al70  1  0.74798541  0.75117695  0.33703006  1
  Al0+  Al71  1  0.74773755  0.75041030  0.66012082  1
  Al0+  Al72  1  0.93040733  0.32147063  0.65343887  1
  Al0+  Al73  1  0.32160839  0.57112930  0.34998046  1
  Al0+  Al74  1  0.57214623  0.17939304  0.31714794  1
  Al0+  Al75  1  0.32335152  0.06992180  0.67928881  1
  Al0+  Al76  1  0.42739584  0.81729201  0.31994041  1
  Al0+  Al77  1  0.57216546  0.18159957  0.98351348  1
  Al0+  Al78  1  0.57056038  0.17942847  0.65289341  1
  Al0+  Al79  1  0.07133490  0.17955504  0.31990917  1
  Al0+  Al80  1  0.18070918  0.93210489  0.01190779  1
  Al0+  Al81  1  0.92851616  0.82161483  0.98714408  1
  Al0+  Al82  1  0.81950592  0.57302704  0.34681305  1
  Al0+  Al83  1  0.92815356  0.82267406  0.65100892  1
  Al0+  Al84  1  0.67791281  0.92813416  0.01469781  1
  Al0+  Al85  1  0.17933593  0.42565009  0.34971439  1
  Al0+  Al86  1  0.67980986  0.42806484  0.01448080  1
  Al0+  Al87  1  0.42767530  0.81904089  0.98423859  1
  Al0+  Al88  1  0.68240230  0.42922379  0.67826703  1
  Al0+  Al89  1  0.17669683  0.42679425  0.01674039  1
  Al0+  Al90  1  0.32164470  0.57223115  0.68391472  1
  Al0+  Al91  1  0.17688528  0.92971719  0.34804146  1
  Al0+  Al92  1  0.81986197  0.06957148  0.67810871  1
  Al0+  Al93  1  0.32012161  0.57158734  0.01707026  1
  Al0+  Al94  1  0.82206307  0.07141788  0.01712498  1
  Al0+  Al95  1  0.17676020  0.42798414  0.68271402  1
  Si0+  Si96  1  0.42781806  0.32259343  0.65232632  1
  Si0+  Si97  1  0.07265419  0.17851081  0.98489678  1
  Si0+  Si98  1  0.07079901  0.67703328  0.98291238  1
  Si0+  Si99  1  0.32438025  0.06986403  0.34701800  1
  Si0+  Si100  1  0.57004671  0.67624819  0.65115701  1
  Si0+  Si101  1  0.42792887  0.81985834  0.65115117  1
  Si0+  Si102  1  0.82177662  0.57545198  0.68337661  1
  Si0+  Si103  1  0.42835055  0.32348071  0.98329735  1
  Si0+  Si104  1  0.07527224  0.17813755  0.65137896  1
  Si0+  Si105  1  0.42833097  0.32302518  0.31736286  1
  Si0+  Si106  1  0.07156862  0.68005845  0.64763394  1
  Si0+  Si107  1  0.92912211  0.32409555  0.31493903  1
  Si0+  Si108  1  0.92700937  0.82218160  0.31781464  1
  Si0+  Si109  1  0.82015218  0.07075004  0.34959220  1
  Si0+  Si110  1  0.68008231  0.42569611  0.35070277  1
  Si0+  Si111  1  0.57351928  0.67688426  0.31705806  1
  Si0+  Si112  1  0.17749967  0.92915657  0.68320839  1
  Si0+  Si113  1  0.67705740  0.93046952  0.34825623  1
  Si0+  Si114  1  0.32502726  0.07171796  0.01685923  1
  Si0+  Si115  1  0.93113905  0.32136214  0.98630871  1
  Si0+  Si116  1  0.67687843  0.92595339  0.68128972  1
  Si0+  Si117  1  0.82151996  0.57352547  0.01286460  1
  Si0+  Si118  1  0.57279928  0.67589985  0.98304336  1
  Si0+  Si119  1  0.06795444  0.67982586  0.31892395  1
  O2-  O120  1  0.25628413  0.00389194  0.06193185  1
  O2-  O121  1  0.25308397  0.00414906  0.39239268  1
  O2-  O122  1  0.24701033  -0.00287563  0.72633930  1
  O2-  O123  1  0.24950466  0.49779662  0.06571083  1
  O2-  O124  1  0.25409919  0.49480046  0.39932741  1
  O2-  O125  1  0.25051539  0.49853771  0.73166248  1
  O2-  O126  1  0.74948637  -0.00054307  0.06676767  1
  O2-  O127  1  0.74680827  0.00201951  0.39165888  1
  O2-  O128  1  0.74727770  -0.00704752  0.72429872  1
  O2-  O129  1  0.75255792  0.50605293  0.05849673  1
  O2-  O130  1  0.74645051  0.49698131  0.39395707  1
  O2-  O131  1  0.75665313  0.50378527  0.72743890  1
  O2-  O132  1  0.00108194  0.25830671  0.27162082  1
  O2-  O133  1  0.01015929  0.25105872  0.60800420  1
  O2-  O134  1  0.00545751  0.25366175  0.94417703  1
  O2-  O135  1  -0.00318719  0.75052089  0.27536523  1
  O2-  O136  1  0.00175241  0.74788929  0.60261575  1
  O2-  O137  1  0.00082575  0.74508870  0.93917083  1
  O2-  O138  1  0.49824093  0.25566008  0.27218228  1
  O2-  O139  1  0.49424385  0.25254726  0.60553012  1
  O2-  O140  1  0.49743663  0.25633062  0.93682736  1
  O2-  O141  1  0.49963751  0.73968648  0.27321325  1
  O2-  O142  1  0.49743077  0.74667754  0.60977923  1
  O2-  O143  1  0.50240599  0.74307807  0.93836590  1
  O2-  O144  1  0.07035060  0.17669743  0.09010450  1
  O2-  O145  1  0.06723220  0.17735686  0.43304030  1
  O2-  O146  1  0.07289941  0.17487393  0.75703375  1
  O2-  O147  1  0.06878625  0.67712663  0.08891175  1
  O2-  O148  1  0.06592833  0.68197131  0.42400534  1
  O2-  O149  1  0.07103756  0.68162614  0.75317372  1
  O2-  O150  1  0.57040315  0.18310598  0.09691248  1
  O2-  O151  1  0.57267852  0.17914682  0.43065494  1
  O2-  O152  1  0.57219306  0.18033496  0.76552980  1
  O2-  O153  1  0.57623845  0.67796735  0.08860681  1
  O2-  O154  1  0.57652634  0.68099342  0.42296862  1
  O2-  O155  1  0.57391834  0.67700093  0.75574024  1
  O2-  O156  1  0.17965353  0.42862358  0.23641224  1
  O2-  O157  1  0.17854826  0.42841847  0.56919280  1
  O2-  O158  1  0.17437756  0.42886221  0.90344901  1
  O2-  O159  1  0.17563514  0.92934500  0.23504225  1
  O2-  O160  1  0.17820156  0.92927889  0.57730038  1
  O2-  O161  1  0.17980319  0.93565612  0.89867138  1
  O2-  O162  1  0.68210316  0.42563423  0.24508985  1
  O2-  O163  1  0.68358043  0.43103252  0.56502429  1
  O2-  O164  1  0.68251213  0.42658984  0.90126123  1
  O2-  O165  1  0.67871346  0.92856978  0.24377437  1
  O2-  O166  1  0.67619272  0.92665127  0.57496808  1
  O2-  O167  1  0.67997672  0.92882971  0.90089669  1
  O2-  O168  1  0.42891928  0.32005081  0.08912575  1
  O2-  O169  1  0.42932036  0.32123258  0.42311077  1
  O2-  O170  1  0.43087499  0.32202310  0.75766425  1
  O2-  O171  1  0.42673357  0.81783309  0.09742260  1
  O2-  O172  1  0.43091949  0.81972742  0.43363233  1
  O2-  O173  1  0.42912437  0.82128013  0.75595943  1
  O2-  O174  1  0.93066936  0.32222323  0.09143161  1
  O2-  O175  1  0.92545555  0.32109688  0.42055603  1
  O2-  O176  1  0.92818723  0.31733091  0.76682108  1
  O2-  O177  1  0.93020638  0.81901843  0.10080078  1
  O2-  O178  1  0.92761868  0.82202026  0.42308899  1
  O2-  O179  1  0.92939476  0.82290180  0.76401597  1
  O2-  O180  1  0.32513583  0.06754909  0.24163993  1
  O2-  O181  1  0.32464783  0.06645603  0.56585173  1
  O2-  O182  1  0.32278585  0.07048691  0.91092603  1
  O2-  O183  1  0.31708054  0.57238965  0.23696894  1
  O2-  O184  1  0.32064241  0.57247855  0.57038777  1
  O2-  O185  1  0.31768800  0.57034711  0.90358673  1
  O2-  O186  1  0.82201479  0.06868515  0.24496018  1
  O2-  O187  1  0.81809559  0.06946628  0.56442480  1
  O2-  O188  1  0.82255183  0.07198604  0.90334819  1
  O2-  O189  1  0.81794102  0.57378296  0.23342322  1
  O2-  O190  1  0.81809883  0.57632527  0.57752515  1
  O2-  O191  1  0.82117239  0.57298010  0.90741994  1
  O2-  O192  1  0.03381290  0.08458581  0.26501049  1
  O2-  O193  1  0.04581903  0.08638506  0.60311933  1
  O2-  O194  1  0.04112968  0.08910191  0.93544482  1
  O2-  O195  1  0.03938233  0.58776446  0.27216126  1
  O2-  O196  1  0.04658064  0.58686749  0.60046474  1
  O2-  O197  1  0.04554399  0.58316260  0.93668778  1
  O2-  O198  1  0.54100759  0.08380672  0.26166802  1
  O2-  O199  1  0.54071010  0.08158758  0.59883703  1
  O2-  O200  1  0.54297498  0.08495396  0.92906595  1
  O2-  O201  1  0.55695248  0.57984768  0.27465256  1
  O2-  O202  1  0.54331282  0.58426517  0.60304148  1
  O2-  O203  1  0.54808364  0.58029171  0.94030915  1
  O2-  O204  1  0.16977714  0.20189827  0.26493542  1
  O2-  O205  1  0.17113504  0.19893031  0.60750009  1
  O2-  O206  1  0.16696449  0.20091003  0.93939143  1
  O2-  O207  1  0.15926768  0.70886620  0.27217607  1
  O2-  O208  1  0.16467800  0.70828290  0.60092060  1
  O2-  O209  1  0.16261514  0.70543362  0.93580782  1
  O2-  O210  1  0.66884393  0.20955602  0.26252900  1
  O2-  O211  1  0.66566667  0.21260996  0.59722608  1
  O2-  O212  1  0.67112289  0.21377591  0.93478932  1
  O2-  O213  1  0.66520513  0.70845763  0.26976236  1
  O2-  O214  1  0.66020260  0.70497133  0.59962560  1
  O2-  O215  1  0.66497643  0.70206997  0.93380636  1
  O2-  O216  1  0.07806752  0.45505747  0.07014774  1
  O2-  O217  1  0.08047393  0.45559737  0.40060989  1
  O2-  O218  1  0.07792483  0.45973153  0.73368431  1
  O2-  O219  1  0.08587735  0.96412200  0.06804774  1
  O2-  O220  1  0.08093312  0.96285498  0.40264184  1
  O2-  O221  1  0.08408748  0.95609370  0.72810335  1
  O2-  O222  1  0.58441224  0.45519499  0.07161980  1
  O2-  O223  1  0.58581147  0.44742866  0.39654065  1
  O2-  O224  1  0.58666220  0.45884718  0.73391036  1
  O2-  O225  1  0.57915988  0.95792400  0.06612069  1
  O2-  O226  1  0.58458676  0.95833333  0.39442947  1
  O2-  O227  1  0.58363360  0.95125966  0.72678511  1
  O2-  O228  1  0.20484666  0.32721526  0.06765812  1
  O2-  O229  1  0.20459200  0.32498818  0.40023646  1
  O2-  O230  1  0.20065637  0.32896232  0.73600750  1
  O2-  O231  1  0.20739465  0.83421148  0.06449661  1
  O2-  O232  1  0.20600471  0.83453466  0.40464972  1
  O2-  O233  1  0.20189729  0.83577249  0.72913201  1
  O2-  O234  1  0.71668363  0.33597592  0.07201521  1
  O2-  O235  1  0.71009185  0.33261307  0.39567590  1
  O2-  O236  1  0.71602314  0.33367484  0.73171535  1
  O2-  O237  1  0.70500213  0.82915025  0.06761631  1
  O2-  O238  1  0.70449276  0.83937616  0.39785737  1
  O2-  O239  1  0.69985852  0.83111992  0.72540211  1
  O2-  O240  1  0.45369616  0.41746075  0.27206999  1
  O2-  O241  1  0.45465281  0.41635945  0.60670781  1
  O2-  O242  1  0.45294937  0.41895295  0.94137498  1
  O2-  O243  1  0.46018330  0.91151856  0.26300775  1
  O2-  O244  1  0.45841106  0.90968572  0.60100753  1
  O2-  O245  1  0.45967446  0.91490407  0.92887588  1
  O2-  O246  1  0.94970715  0.42019424  0.27197983  1
  O2-  O247  1  0.95341632  0.42102224  0.60053307  1
  O2-  O248  1  0.95434392  0.41412901  0.93773184  1
  O2-  O249  1  0.95531765  0.91397767  0.27178263  1
  O2-  O250  1  0.96008205  0.91863823  0.59528654  1
  O2-  O251  1  0.96333519  0.91773538  0.93414933  1
  O2-  O252  1  0.33552837  0.29714269  0.27003100  1
  O2-  O253  1  0.33284296  0.29742040  0.60864252  1
  O2-  O254  1  0.33430599  0.29789321  0.93723232  1
  O2-  O255  1  0.32835257  0.78905324  0.26911228  1
  O2-  O256  1  0.33444501  0.79466270  0.60525962  1
  O2-  O257  1  0.33091115  0.78954082  0.92894938  1
  O2-  O258  1  0.83765674  0.29418985  0.26645865  1
  O2-  O259  1  0.83753846  0.28534201  0.59525432  1
  O2-  O260  1  0.84039199  0.28944647  0.93957396  1
  O2-  O261  1  0.83390820  0.79451193  0.27282154  1
  O2-  O262  1  0.83086236  0.79336003  0.59591454  1
  O2-  O263  1  0.83180115  0.79317517  0.93169024  1
  O2-  O264  1  0.41909012  0.04589620  0.05991778  1
  O2-  O265  1  0.41728008  0.03992394  0.39297792  1
  O2-  O266  1  0.41828000  0.03532844  0.73446878  1
  O2-  O267  1  0.41903501  0.54819773  0.07118452  1
  O2-  O268  1  0.42395730  0.55044106  0.39915198  1
  O2-  O269  1  0.42064758  0.54787448  0.73680498  1
  O2-  O270  1  0.91944114  0.04098323  0.07061491  1
  O2-  O271  1  0.91000568  0.04033930  0.39877763  1
  O2-  O272  1  0.91745886  0.04147818  0.73142602  1
  O2-  O273  1  0.91433379  0.54700902  0.06014422  1
  O2-  O274  1  0.91482986  0.54486141  0.40406870  1
  O2-  O275  1  0.91722343  0.55642636  0.72633040  1
  O2-  O276  1  0.30171561  0.16581496  0.06218214  1
  O2-  O277  1  0.30206693  0.16418110  0.39244453  1
  O2-  O278  1  0.29728505  0.16528736  0.73743608  1
  O2-  O279  1  0.28792019  0.66941777  0.06806316  1
  O2-  O280  1  0.28748832  0.66719489  0.40431740  1
  O2-  O281  1  0.29042619  0.67076598  0.73565181  1
  O2-  O282  1  0.79455066  0.16827893  0.07296798  1
  O2-  O283  1  0.79406355  0.16454507  0.39380333  1
  O2-  O284  1  0.78846620  0.16503468  0.73228032  1
  O2-  O285  1  0.79638480  0.66669838  0.05968574  1
  O2-  O286  1  0.78793137  0.66884086  0.40351809  1
  O2-  O287  1  0.79167734  0.66855410  0.72803725  1
