# generated using pymatgen
data_Ca2Al2SiO7
_symmetry_space_group_name_H-M   'P 1'
_cell_length_a   15.45653643
_cell_length_b   15.45589904
_cell_length_c   15.28231679
_cell_angle_alpha   90.00920500
_cell_angle_beta   89.99427469
_cell_angle_gamma   90.00014672
_symmetry_Int_Tables_number   1
_chemical_formula_structural   Ca2Al2SiO7
_chemical_formula_sum   'Ca48 Al48 Si24 O168'
_cell_volume   3650.86390709
_cell_formula_units_Z   24
loop_
 _symmetry_equiv_pos_site_id
 _symmetry_equiv_pos_as_xyz
  1  'x, y, z'
loop_
 _atom_type_symbol
 _atom_type_oxidation_number
  Ca2+  2.0
  Al0+  0.0
  Si0+  0.0
  O2-  -2.0
loop_
 _atom_site_type_symbol
 _atom_site_label
 _atom_site_symmetry_multiplicity
 _atom_site_fract_x
 _atom_site_fract_y
 _atom_site_fract_z
 _atom_site_occupancy
  Ca2+  Ca0  1  0.17475156  0.07346639  0.17346367  1
  Ca2+  Ca1  1  0.16778682  0.08403399  0.49731850  1
  Ca2+  Ca2  1  0.17642590  0.07591223  0.84347729  1
  Ca2+  Ca3  1  0.17459571  0.58656598  0.17486032  1
  Ca2+  Ca4  1  0.17284371  0.58141191  0.50340420  1
  Ca2+  Ca5  1  0.16320513  0.57679597  0.83186359  1
  Ca2+  Ca6  1  0.67055614  0.07318118  0.17044196  1
  Ca2+  Ca7  1  0.67754164  0.08796455  0.50604037  1
  Ca2+  Ca8  1  0.67096855  0.07934087  0.83469545  1
  Ca2+  Ca9  1  0.66553726  0.57605084  0.17253636  1
  Ca2+  Ca10  1  0.66806764  0.57396909  0.50361479  1
  Ca2+  Ca11  1  0.65591853  0.57799998  0.83675402  1
  Ca2+  Ca12  1  0.07868387  0.32666330  0.16613072  1
  Ca2+  Ca13  1  0.07261037  0.33124489  0.49088164  1
  Ca2+  Ca14  1  0.07643452  0.33173190  0.82167216  1
  Ca2+  Ca15  1  0.08048404  0.84136488  0.16335315  1
  Ca2+  Ca16  1  0.07902992  0.83929860  0.49622837  1
  Ca2+  Ca17  1  0.07425849  0.84075939  0.83272232  1
  Ca2+  Ca18  1  0.58861396  0.33486849  0.16488566  1
  Ca2+  Ca19  1  0.59472149  0.32959279  0.49925289  1
  Ca2+  Ca20  1  0.58778577  0.32972711  0.82635460  1
  Ca2+  Ca21  1  0.57382692  0.82989387  0.15502481  1
  Ca2+  Ca22  1  0.57169888  0.82931605  0.49632903  1
  Ca2+  Ca23  1  0.57881095  0.82867372  0.82731428  1
  Ca2+  Ca24  1  0.33351194  0.42658417  0.17476194  1
  Ca2+  Ca25  1  0.32767725  0.42251289  0.50438957  1
  Ca2+  Ca26  1  0.32726655  0.41542917  0.83487264  1
  Ca2+  Ca27  1  0.32947967  0.91863173  0.17526393  1
  Ca2+  Ca28  1  0.33229669  0.91310045  0.49889189  1
  Ca2+  Ca29  1  0.33471414  0.91753139  0.84260580  1
  Ca2+  Ca30  1  0.82384120  0.42226029  0.17672101  1
  Ca2+  Ca31  1  0.82915950  0.41432799  0.50452166  1
  Ca2+  Ca32  1  0.82208396  0.41461244  0.83503318  1
  Ca2+  Ca33  1  0.82685533  0.91383724  0.17040491  1
  Ca2+  Ca34  1  0.83945580  0.93024535  0.50631324  1
  Ca2+  Ca35  1  0.83282778  0.91803764  0.83899486  1
  Ca2+  Ca36  1  0.41078686  0.16474779  0.16426924  1
  Ca2+  Ca37  1  0.42350228  0.16467740  0.49546747  1
  Ca2+  Ca38  1  0.42473582  0.16210009  0.82868865  1
  Ca2+  Ca39  1  0.41796105  0.67607656  0.16089042  1
  Ca2+  Ca40  1  0.41748846  0.67249773  0.49565058  1
  Ca2+  Ca41  1  0.42724603  0.67815193  0.82792904  1
  Ca2+  Ca42  1  0.91777931  0.16418186  0.17238526  1
  Ca2+  Ca43  1  0.91393637  0.17533050  0.49088055  1
  Ca2+  Ca44  1  0.91546674  0.17110632  0.82356759  1
  Ca2+  Ca45  1  0.91661916  0.66921350  0.16212274  1
  Ca2+  Ca46  1  0.91435274  0.67010079  0.49655157  1
  Ca2+  Ca47  1  0.91260227  0.68179607  0.82974613  1
  Al0+  Al48  1  0.00297487  0.00252585  -0.00101884  1
  Al0+  Al49  1  -0.00008412  0.00068609  0.33547934  1
  Al0+  Al50  1  0.00207078  0.00155584  0.66842136  1
  Al0+  Al51  1  -0.00161059  0.49844935  -0.00100670  1
  Al0+  Al52  1  -0.00206492  0.50138047  0.32980975  1
  Al0+  Al53  1  -0.00083218  0.50124120  0.66817839  1
  Al0+  Al54  1  0.50293389  0.00271209  0.00347056  1
  Al0+  Al55  1  0.49820612  -0.00039815  0.33164411  1
  Al0+  Al56  1  0.50150523  0.00064327  0.65762344  1
  Al0+  Al57  1  0.49810802  0.49780564  0.00007639  1
  Al0+  Al58  1  0.49991371  0.49889157  0.34249219  1
  Al0+  Al59  1  0.49899955  0.50060404  0.66825479  1
  Al0+  Al60  1  0.24922130  0.24971536  0.00228563  1
  Al0+  Al61  1  0.25038616  0.24803230  0.33174521  1
  Al0+  Al62  1  0.25113450  0.24940201  0.67190592  1
  Al0+  Al63  1  0.24816359  0.74816536  -0.00271142  1
  Al0+  Al64  1  0.24910783  0.75072053  0.33803143  1
  Al0+  Al65  1  0.24956176  0.75045310  0.66672590  1
  Al0+  Al66  1  0.75020163  0.25185308  0.00469327  1
  Al0+  Al67  1  0.74928599  0.24853914  0.33197986  1
  Al0+  Al68  1  0.75142562  0.25058645  0.66827510  1
  Al0+  Al69  1  0.75162439  0.74920971  -0.00416891  1
  Al0+  Al70  1  0.74798495  0.74702036  0.33670425  1
  Al0+  Al71  1  0.74967923  0.75089409  0.65582137  1
  Al0+  Al72  1  0.93024411  0.82342050  0.65160368  1
  Al0+  Al73  1  0.93017081  0.32059251  0.65395930  1
  Al0+  Al74  1  0.32329422  0.07083594  0.01474905  1
  Al0+  Al75  1  0.82177490  0.07080426  0.68095529  1
  Al0+  Al76  1  0.67806375  0.42978657  0.01437204  1
  Al0+  Al77  1  0.57158798  0.67591922  0.64814772  1
  Al0+  Al78  1  0.68025455  0.43101737  0.68224982  1
  Al0+  Al79  1  0.57098541  0.67697283  0.98619541  1
  Al0+  Al80  1  0.07193118  0.17796961  0.31653205  1
  Al0+  Al81  1  0.32033513  0.57166814  0.34695626  1
  Al0+  Al82  1  0.17911170  0.92699711  0.01460895  1
  Al0+  Al83  1  0.68000882  0.42857496  0.35042674  1
  Al0+  Al84  1  0.57117400  0.18150300  0.65377699  1
  Al0+  Al85  1  0.32254195  0.07240685  0.35140473  1
  Al0+  Al86  1  0.92671213  0.32218902  0.31532296  1
  Al0+  Al87  1  0.17902206  0.92970785  0.35085573  1
  Al0+  Al88  1  0.93077989  0.82169809  0.98841703  1
  Al0+  Al89  1  0.68133555  0.92733765  0.01090741  1
  Al0+  Al90  1  0.42872527  0.81940513  0.31708260  1
  Al0+  Al91  1  0.42778699  0.82172523  0.64987647  1
  Al0+  Al92  1  0.82313354  0.57284618  0.34902654  1
  Al0+  Al93  1  0.42852795  0.82357723  0.98589898  1
  Al0+  Al94  1  0.81866641  0.06696592  0.34576993  1
  Al0+  Al95  1  0.17841932  0.42915760  0.67897994  1
  Si0+  Si96  1  0.67815263  0.92845615  0.68029321  1
  Si0+  Si97  1  0.07488133  0.17869174  0.65124647  1
  Si0+  Si98  1  0.42728427  0.32057060  0.98561919  1
  Si0+  Si99  1  0.92863191  0.32075765  0.98367821  1
  Si0+  Si100  1  0.07101455  0.67830983  0.64971494  1
  Si0+  Si101  1  0.57097792  0.17893495  0.31631251  1
  Si0+  Si102  1  0.42901779  0.32179966  0.31967853  1
  Si0+  Si103  1  0.82235450  0.57556135  0.68480125  1
  Si0+  Si104  1  0.17624589  0.42802562  0.01594130  1
  Si0+  Si105  1  0.07079822  0.67951753  0.31954770  1
  Si0+  Si106  1  0.31875297  0.56829161  0.01324668  1
  Si0+  Si107  1  0.57320419  0.18086018  0.98646830  1
  Si0+  Si108  1  0.57069424  0.67590822  0.31647974  1
  Si0+  Si109  1  0.32120340  0.57328664  0.68643359  1
  Si0+  Si110  1  0.92795290  0.82120682  0.31975441  1
  Si0+  Si111  1  0.17753477  0.42768197  0.34673660  1
  Si0+  Si112  1  0.07255767  0.67393944  0.98253186  1
  Si0+  Si113  1  0.82314740  0.07325884  0.01656359  1
  Si0+  Si114  1  0.07174891  0.18130006  0.98300914  1
  Si0+  Si115  1  0.32371914  0.07010108  0.68142958  1
  Si0+  Si116  1  0.42557294  0.32156244  0.65101619  1
  Si0+  Si117  1  0.67567916  0.92571189  0.35034001  1
  Si0+  Si118  1  0.82301678  0.57176183  0.01487036  1
  Si0+  Si119  1  0.17979526  0.92858603  0.68348279  1
  O2-  O120  1  0.25677593  -0.00671822  0.06361655  1
  O2-  O121  1  0.25107611  0.00090639  0.40231138  1
  O2-  O122  1  0.25390505  -0.00224155  0.72362845  1
  O2-  O123  1  0.24471679  0.50095574  0.05777556  1
  O2-  O124  1  0.24551144  0.49598924  0.39206885  1
  O2-  O125  1  0.25321511  0.50241124  0.72940392  1
  O2-  O126  1  0.75837704  -0.00012632  0.05859112  1
  O2-  O127  1  0.74623912  -0.00811733  0.39507938  1
  O2-  O128  1  0.74981515  -0.00687496  0.72691631  1
  O2-  O129  1  0.75093575  0.50672223  0.05887602  1
  O2-  O130  1  0.75432453  0.49851504  0.39927945  1
  O2-  O131  1  0.75130771  0.50938846  0.72991784  1
  O2-  O132  1  0.00041038  0.25094358  0.26571671  1
  O2-  O133  1  0.00724265  0.24820968  0.60779854  1
  O2-  O134  1  -0.00058442  0.25039200  0.93996717  1
  O2-  O135  1  -0.00286132  0.74811263  0.27775631  1
  O2-  O136  1  0.00371067  0.74750312  0.60465526  1
  O2-  O137  1  0.00616896  0.74656439  0.94136324  1
  O2-  O138  1  0.49869333  0.25012879  0.27566962  1
  O2-  O139  1  0.49714725  0.25687136  0.60620924  1
  O2-  O140  1  0.49862249  0.24920665  0.94503965  1
  O2-  O141  1  0.50516690  0.74641909  0.27062075  1
  O2-  O142  1  0.49812199  0.74773314  0.60046705  1
  O2-  O143  1  0.50310519  0.75354489  0.93665717  1
  O2-  O144  1  0.07249340  0.18330868  0.08749096  1
  O2-  O145  1  0.07122628  0.18142215  0.43032198  1
  O2-  O146  1  0.07490099  0.18021363  0.75752189  1
  O2-  O147  1  0.07178971  0.66786844  0.08793400  1
  O2-  O148  1  0.07164270  0.67881297  0.42444148  1
  O2-  O149  1  0.07073678  0.67853164  0.75557291  1
  O2-  O150  1  0.57559281  0.18312053  0.09149165  1
  O2-  O151  1  0.57214102  0.18021739  0.42139910  1
  O2-  O152  1  0.56899206  0.18051173  0.76754516  1
  O2-  O153  1  0.56691842  0.67498903  0.09985990  1
  O2-  O154  1  0.56876793  0.67667282  0.42169065  1
  O2-  O155  1  0.56915671  0.67714273  0.76214144  1
  O2-  O156  1  0.18027660  0.43049421  0.24044383  1
  O2-  O157  1  0.18078970  0.43068920  0.56611722  1
  O2-  O158  1  0.17676177  0.42728919  0.91069501  1
  O2-  O159  1  0.17911931  0.92840666  0.23742553  1
  O2-  O160  1  0.17751723  0.92915217  0.57894723  1
  O2-  O161  1  0.17687244  0.93244610  0.90061006  1
  O2-  O162  1  0.67795860  0.43141158  0.23631909  1
  O2-  O163  1  0.68422201  0.42853527  0.56999282  1
  O2-  O164  1  0.67999951  0.42607650  0.90150534  1
  O2-  O165  1  0.67762075  0.92651360  0.24414283  1
  O2-  O166  1  0.67819817  0.93305911  0.57489250  1
  O2-  O167  1  0.68181187  0.93048874  0.89767705  1
  O2-  O168  1  0.42567875  0.32308040  0.09072943  1
  O2-  O169  1  0.42776358  0.32172897  0.42453699  1
  O2-  O170  1  0.42311970  0.31787549  0.75711481  1
  O2-  O171  1  0.42778808  0.81976332  0.09941132  1
  O2-  O172  1  0.42948352  0.81695647  0.42994154  1
  O2-  O173  1  0.42817542  0.82303662  0.76369309  1
  O2-  O174  1  0.93022573  0.32192040  0.08815563  1
  O2-  O175  1  0.92809356  0.32115493  0.42903246  1
  O2-  O176  1  0.93089284  0.31803334  0.76798842  1
  O2-  O177  1  0.93077335  0.81941146  0.10178672  1
  O2-  O178  1  0.93079311  0.82186143  0.42470802  1
  O2-  O179  1  0.93235936  0.82394630  0.76508918  1
  O2-  O180  1  0.32209126  0.07150837  0.23801180  1
  O2-  O181  1  0.32201886  0.07342143  0.57707217  1
  O2-  O182  1  0.32053707  0.07449815  0.90052095  1
  O2-  O183  1  0.31932778  0.57003367  0.23308208  1
  O2-  O184  1  0.31881945  0.57293303  0.58081502  1
  O2-  O185  1  0.31776572  0.56369294  0.90838589  1
  O2-  O186  1  0.81668714  0.06375231  0.23215278  1
  O2-  O187  1  0.82112505  0.07147987  0.56807412  1
  O2-  O188  1  0.82104414  0.07641570  0.91080387  1
  O2-  O189  1  0.82122704  0.57497908  0.23491050  1
  O2-  O190  1  0.82496166  0.57236771  0.57964096  1
  O2-  O191  1  0.82789772  0.56849382  0.90960455  1
  O2-  O192  1  0.03928052  0.08023842  0.26373669  1
  O2-  O193  1  0.05005692  0.08520209  0.60645538  1
  O2-  O194  1  0.04634453  0.08947011  0.93457795  1
  O2-  O195  1  0.04726830  0.58787931  0.26875064  1
  O2-  O196  1  0.04564025  0.58505870  0.60330370  1
  O2-  O197  1  0.04348208  0.58137099  0.93415010  1
  O2-  O198  1  0.54364863  0.08702407  0.26872237  1
  O2-  O199  1  0.54147119  0.08718610  0.59592919  1
  O2-  O200  1  0.54889304  0.08890920  0.93804844  1
  O2-  O201  1  0.54205254  0.58161345  0.27328693  1
  O2-  O202  1  0.54174779  0.57681090  0.59723887  1
  O2-  O203  1  0.53619299  0.57973367  0.93297736  1
  O2-  O204  1  0.17066419  0.20613176  0.26270775  1
  O2-  O205  1  0.16933017  0.20329654  0.60688247  1
  O2-  O206  1  0.16304337  0.21182362  0.93496165  1
  O2-  O207  1  0.16134211  0.70974102  0.27088014  1
  O2-  O208  1  0.16538157  0.70238025  0.60501787  1
  O2-  O209  1  0.16629555  0.69461143  0.93485218  1
  O2-  O210  1  0.66111912  0.20731889  0.26623673  1
  O2-  O211  1  0.66693173  0.21374093  0.59992920  1
  O2-  O212  1  0.66395197  0.21243655  0.93840041  1
  O2-  O213  1  0.66616918  0.69806755  0.27204656  1
  O2-  O214  1  0.66936624  0.70204539  0.59387258  1
  O2-  O215  1  0.67134703  0.69824300  0.93445431  1
  O2-  O216  1  0.08333661  0.45307175  0.06221300  1
  O2-  O217  1  0.08358335  0.45342736  0.39037562  1
  O2-  O218  1  0.08310202  0.46175783  0.73610195  1
  O2-  O219  1  0.08270135  0.96258624  0.06805598  1
  O2-  O220  1  0.08096301  0.95948488  0.40364186  1
  O2-  O221  1  0.08985511  0.96037633  0.73260197  1
  O2-  O222  1  0.57941680  0.45565253  0.06723887  1
  O2-  O223  1  0.58237532  0.45523302  0.40534212  1
  O2-  O224  1  0.58007750  0.45499563  0.73416588  1
  O2-  O225  1  0.58758038  0.96156995  0.06823546  1
  O2-  O226  1  0.58315504  0.95469178  0.39486850  1
  O2-  O227  1  0.58527665  0.95864818  0.72587806  1
  O2-  O228  1  0.20684541  0.33783251  0.06394106  1
  O2-  O229  1  0.20335131  0.33459675  0.39188356  1
  O2-  O230  1  0.20941759  0.33326815  0.73662222  1
  O2-  O231  1  0.19555980  0.82381422  0.06260167  1
  O2-  O232  1  0.20592137  0.83160974  0.40495126  1
  O2-  O233  1  0.20332123  0.83534743  0.73038341  1
  O2-  O234  1  0.71167073  0.33487742  0.07040567  1
  O2-  O235  1  0.70695666  0.32864455  0.39951819  1
  O2-  O236  1  0.71485908  0.33548574  0.73694724  1
  O2-  O237  1  0.71061596  0.83041168  0.06560206  1
  O2-  O238  1  0.69688928  0.83104397  0.39480309  1
  O2-  O239  1  0.70055912  0.83244336  0.72216032  1
  O2-  O240  1  0.45819074  0.41392869  0.27255358  1
  O2-  O241  1  0.44510098  0.41745277  0.60886475  1
  O2-  O242  1  0.45467972  0.41085063  0.93546191  1
  O2-  O243  1  0.45753420  0.91749372  0.26489319  1
  O2-  O244  1  0.45691209  0.91862052  0.59473617  1
  O2-  O245  1  0.45592784  0.92402368  0.93633262  1
  O2-  O246  1  0.95424054  0.42140549  0.26211867  1
  O2-  O247  1  0.95886697  0.41860084  0.60236872  1
  O2-  O248  1  0.95620278  0.41245251  0.93545896  1
  O2-  O249  1  0.95703979  0.91173353  0.27154582  1
  O2-  O250  1  0.96545094  0.91943396  0.59880886  1
  O2-  O251  1  0.96113435  0.91905030  0.93394973  1
  O2-  O252  1  0.33728358  0.29678021  0.26991685  1
  O2-  O253  1  0.33320164  0.29269595  0.60399662  1
  O2-  O254  1  0.33489476  0.29346918  0.93764725  1
  O2-  O255  1  0.33100646  0.78598094  0.26668623  1
  O2-  O256  1  0.32799034  0.79344204  0.59928425  1
  O2-  O257  1  0.32985597  0.79302818  0.93336118  1
  O2-  O258  1  0.82949285  0.28929551  0.26192490  1
  O2-  O259  1  0.83554574  0.28677725  0.60022490  1
  O2-  O260  1  0.83623281  0.29148133  0.93809707  1
  O2-  O261  1  0.83440276  0.79452506  0.27441742  1
  O2-  O262  1  0.83413093  0.79764072  0.59562208  1
  O2-  O263  1  0.83602372  0.79118598  0.93041329  1
  O2-  O264  1  0.42429527  0.05443305  0.06597413  1
  O2-  O265  1  0.42208013  0.04480123  0.40214711  1
  O2-  O266  1  0.41672342  0.04270323  0.72685907  1
  O2-  O267  1  0.40792803  0.53590812  0.06255664  1
  O2-  O268  1  0.41382011  0.53928888  0.40434723  1
  O2-  O269  1  0.41421702  0.54746078  0.73264355  1
  O2-  O270  1  0.91865578  0.05237778  0.05935257  1
  O2-  O271  1  0.91496110  0.03936299  0.40069221  1
  O2-  O272  1  0.91971521  0.04308092  0.73518050  1
  O2-  O273  1  0.91525924  0.54203348  0.06326505  1
  O2-  O274  1  0.92399966  0.55004444  0.39958569  1
  O2-  O275  1  0.91564532  0.54985337  0.73192185  1
  O2-  O276  1  0.28910956  0.16844561  0.06776167  1
  O2-  O277  1  0.29554827  0.17224130  0.40283310  1
  O2-  O278  1  0.29651559  0.16129552  0.73153158  1
  O2-  O279  1  0.29323174  0.66080984  0.05991470  1
  O2-  O280  1  0.28555046  0.66457078  0.40375312  1
  O2-  O281  1  0.29216357  0.66581058  0.73317964  1
  O2-  O282  1  0.79263252  0.16427213  0.06483744  1
  O2-  O283  1  0.78649477  0.16354783  0.39782166  1
  O2-  O284  1  0.78761611  0.16526714  0.73686331  1
  O2-  O285  1  0.80297284  0.66681961  0.05921945  1
  O2-  O286  1  0.79420251  0.67028108  0.40425129  1
  O2-  O287  1  0.79837896  0.67180896  0.72650823  1
