# generated using pymatgen
data_Ca2Al2SiO7
_symmetry_space_group_name_H-M   'P 1'
_cell_length_a   15.46148099
_cell_length_b   15.46193078
_cell_length_c   15.28639021
_cell_angle_alpha   90.00460371
_cell_angle_beta   89.99126518
_cell_angle_gamma   90.00143281
_symmetry_Int_Tables_number   1
_chemical_formula_structural   Ca2Al2SiO7
_chemical_formula_sum   'Ca48 Al48 Si24 O168'
_cell_volume   3654.43086691
_cell_formula_units_Z   24
loop_
 _symmetry_equiv_pos_site_id
 _symmetry_equiv_pos_as_xyz
  1  'x, y, z'
loop_
 _atom_type_symbol
 _atom_type_oxidation_number
  Ca2+  2.0
  Al0+  0.0
  Si0+  0.0
  O2-  -2.0
loop_
 _atom_site_type_symbol
 _atom_site_label
 _atom_site_symmetry_multiplicity
 _atom_site_fract_x
 _atom_site_fract_y
 _atom_site_fract_z
 _atom_site_occupancy
  Ca2+  Ca0  1  0.17443627  0.08537940  0.16756563  1
  Ca2+  Ca1  1  0.17537983  0.07355805  0.51262537  1
  Ca2+  Ca2  1  0.17427119  0.07622316  0.83391300  1
  Ca2+  Ca3  1  0.17713219  0.58810228  0.17326533  1
  Ca2+  Ca4  1  0.17450329  0.59903848  0.50362549  1
  Ca2+  Ca5  1  0.17965829  0.59221405  0.83298864  1
  Ca2+  Ca6  1  0.66808173  0.07557993  0.17349898  1
  Ca2+  Ca7  1  0.66778066  0.07066174  0.51114276  1
  Ca2+  Ca8  1  0.66417656  0.07836539  0.82476807  1
  Ca2+  Ca9  1  0.67039973  0.57904068  0.17594212  1
  Ca2+  Ca10  1  0.66467750  0.57369640  0.50644822  1
  Ca2+  Ca11  1  0.65778831  0.58036258  0.83425731  1
  Ca2+  Ca12  1  0.07590284  0.33563554  0.16029280  1
  Ca2+  Ca13  1  0.07715736  0.33330758  0.50091889  1
  Ca2+  Ca14  1  0.07059330  0.33489481  0.82687256  1
  Ca2+  Ca15  1  0.07816596  0.82751940  0.17089206  1
  Ca2+  Ca16  1  0.07684642  0.82965723  0.49875054  1
  Ca2+  Ca17  1  0.08209539  0.83032547  0.82041982  1
  Ca2+  Ca18  1  0.57982992  0.33589467  0.16210662  1
  Ca2+  Ca19  1  0.59228063  0.33010607  0.50258885  1
  Ca2+  Ca20  1  0.57817501  0.32830860  0.82418721  1
  Ca2+  Ca21  1  0.58098154  0.82736425  0.16525779  1
  Ca2+  Ca22  1  0.57485300  0.83969992  0.49734433  1
  Ca2+  Ca23  1  0.57964332  0.82047053  0.82165211  1
  Ca2+  Ca24  1  0.33987349  0.42909919  0.16952591  1
  Ca2+  Ca25  1  0.33160460  0.43218693  0.50605678  1
  Ca2+  Ca26  1  0.33932904  0.42821716  0.83749419  1
  Ca2+  Ca27  1  0.33732714  0.92044016  0.17068139  1
  Ca2+  Ca28  1  0.33063002  0.91242952  0.51253450  1
  Ca2+  Ca29  1  0.33777710  0.92283361  0.82804204  1
  Ca2+  Ca30  1  0.82812315  0.42235996  0.17634963  1
  Ca2+  Ca31  1  0.82669436  0.42224222  0.50577457  1
  Ca2+  Ca32  1  0.82952480  0.41124244  0.83242651  1
  Ca2+  Ca33  1  0.82546541  0.91381352  0.17713545  1
  Ca2+  Ca34  1  0.82756295  0.91460601  0.50941654  1
  Ca2+  Ca35  1  0.83160896  0.91495782  0.83023256  1
  Ca2+  Ca36  1  0.41763002  0.17508720  0.15633039  1
  Ca2+  Ca37  1  0.42494473  0.15834053  0.50036166  1
  Ca2+  Ca38  1  0.41457280  0.16897099  0.82617961  1
  Ca2+  Ca39  1  0.41861855  0.66753417  0.16295803  1
  Ca2+  Ca40  1  0.41639808  0.67394001  0.50015014  1
  Ca2+  Ca41  1  0.42287921  0.66543665  0.82397608  1
  Ca2+  Ca42  1  0.91847039  0.17438720  0.15990051  1
  Ca2+  Ca43  1  0.90455192  0.17089192  0.50356075  1
  Ca2+  Ca44  1  0.90958962  0.17578230  0.82417242  1
  Ca2+  Ca45  1  0.91531153  0.66590751  0.16898409  1
  Ca2+  Ca46  1  0.92480572  0.67366774  0.49414750  1
  Ca2+  Ca47  1  0.92776994  0.67379738  0.82001291  1
  Al0+  Al48  1  -0.00051787  -0.00004787  0.00311095  1
  Al0+  Al49  1  0.00191542  0.00132869  0.32718483  1
  Al0+  Al50  1  0.00085349  0.00198238  0.67225286  1
  Al0+  Al51  1  -0.00049807  0.50101601  -0.00485167  1
  Al0+  Al52  1  0.00175534  0.49865040  0.33176220  1
  Al0+  Al53  1  0.00005146  0.49894303  0.65728020  1
  Al0+  Al54  1  0.50013396  -0.00104192  0.00554189  1
  Al0+  Al55  1  0.50177546  0.00111849  0.32929413  1
  Al0+  Al56  1  0.50158946  0.00076313  0.66837862  1
  Al0+  Al57  1  0.50000231  0.49853752  -0.00147469  1
  Al0+  Al58  1  0.49830320  0.49893583  0.34228419  1
  Al0+  Al59  1  0.49969805  0.49854007  0.67031707  1
  Al0+  Al60  1  0.24857611  0.24962824  -0.00035886  1
  Al0+  Al61  1  0.25116899  0.25161186  0.33284705  1
  Al0+  Al62  1  0.24798472  0.25343066  0.66874655  1
  Al0+  Al63  1  0.24940688  0.75190299  0.00598269  1
  Al0+  Al64  1  0.25000028  0.75291518  0.32686794  1
  Al0+  Al65  1  0.25180798  0.75049454  0.67072071  1
  Al0+  Al66  1  0.74948320  0.24863482  -0.00156078  1
  Al0+  Al67  1  0.74969520  0.24896194  0.33233473  1
  Al0+  Al68  1  0.74751020  0.25070288  0.66608013  1
  Al0+  Al69  1  0.74954066  0.74849115  -0.00319215  1
  Al0+  Al70  1  0.74894216  0.74969733  0.33815861  1
  Al0+  Al71  1  0.75092294  0.74645603  0.66432055  1
  Al0+  Al72  1  0.42977373  0.82230071  0.31781868  1
  Al0+  Al73  1  0.56804492  0.18054135  0.65310065  1
  Al0+  Al74  1  0.82022996  0.07073482  0.68139030  1
  Al0+  Al75  1  0.07089424  0.67834598  0.31579450  1
  Al0+  Al76  1  0.31879259  0.57326892  0.34780603  1
  Al0+  Al77  1  0.92840438  0.82440175  0.65310853  1
  Al0+  Al78  1  0.42881469  0.32006747  0.98666702  1
  Al0+  Al79  1  0.92616014  0.82183177  0.31801535  1
  Al0+  Al80  1  0.43233948  0.82033520  0.65397199  1
  Al0+  Al81  1  0.68064124  0.43046469  0.68329874  1
  Al0+  Al82  1  0.32050964  0.07104165  0.01521587  1
  Al0+  Al83  1  0.57197280  0.67446033  0.64986410  1
  Al0+  Al84  1  0.92872986  0.32089208  0.98631745  1
  Al0+  Al85  1  0.92775234  0.31920037  0.65022685  1
  Al0+  Al86  1  0.67858078  0.42772263  0.34899735  1
  Al0+  Al87  1  0.67884253  0.92955302  0.34620102  1
  Al0+  Al88  1  0.57025163  0.67955078  0.98825649  1
  Al0+  Al89  1  0.32320809  0.07371338  0.67989743  1
  Al0+  Al90  1  0.17939010  0.92837838  0.68092247  1
  Al0+  Al91  1  0.07278720  0.67962771  0.65236912  1
  Al0+  Al92  1  0.31908467  0.57016865  0.68071650  1
  Al0+  Al93  1  0.32164015  0.57026344  0.01506281  1
  Al0+  Al94  1  0.67897136  0.92421943  0.68278720  1
  Al0+  Al95  1  0.82379906  0.57145867  0.34915237  1
  Si0+  Si96  1  0.17970376  0.93193957  0.34662976  1
  Si0+  Si97  1  0.17488378  0.42766465  0.68383716  1
  Si0+  Si98  1  0.07122601  0.17642150  0.98232609  1
  Si0+  Si99  1  0.68031093  0.42794045  0.01415617  1
  Si0+  Si100  1  0.92809905  0.82118145  0.98581679  1
  Si0+  Si101  1  0.92914058  0.31878798  0.31760778  1
  Si0+  Si102  1  0.68124076  0.92658267  0.01565778  1
  Si0+  Si103  1  0.32122051  0.07311378  0.34663923  1
  Si0+  Si104  1  0.57176545  0.17551837  0.98345517  1
  Si0+  Si105  1  0.17833821  0.42596649  0.34956324  1
  Si0+  Si106  1  0.57104728  0.17986239  0.31652833  1
  Si0+  Si107  1  0.56982200  0.67498309  0.31874180  1
  Si0+  Si108  1  0.82195169  0.57119977  0.01309434  1
  Si0+  Si109  1  0.07475830  0.17955581  0.31701802  1
  Si0+  Si110  1  0.42692524  0.82311014  0.98380320  1
  Si0+  Si111  1  0.82501483  0.57026468  0.68398082  1
  Si0+  Si112  1  0.07181753  0.68090375  0.98537039  1
  Si0+  Si113  1  0.42527495  0.32296793  0.64865856  1
  Si0+  Si114  1  0.42815494  0.32111902  0.31902286  1
  Si0+  Si115  1  0.82073733  0.07158042  0.01626468  1
  Si0+  Si116  1  0.82436941  0.07132789  0.34698980  1
  Si0+  Si117  1  0.07359764  0.17869887  0.65035024  1
  Si0+  Si118  1  0.17542566  0.42956834  0.01539878  1
  Si0+  Si119  1  0.17518432  0.92850604  0.02154379  1
  O2-  O120  1  0.24645217  -0.00375701  0.06408832  1
  O2-  O121  1  0.25232169  0.00119032  0.38857497  1
  O2-  O122  1  0.25132589  0.00158804  0.72963828  1
  O2-  O123  1  0.24606208  0.49522511  0.06142578  1
  O2-  O124  1  0.24078182  0.50040354  0.39250528  1
  O2-  O125  1  0.24335778  0.49613151  0.72783984  1
  O2-  O126  1  0.75131300  -0.00078065  0.05843177  1
  O2-  O127  1  0.76036334  -0.00154803  0.38940007  1
  O2-  O128  1  0.75383694  -0.00577876  0.73300114  1
  O2-  O129  1  0.75172858  0.49892750  0.05544726  1
  O2-  O130  1  0.74933977  0.50118893  0.39784844  1
  O2-  O131  1  0.75312691  0.50652898  0.73159563  1
  O2-  O132  1  0.00174326  0.24918367  0.27518232  1
  O2-  O133  1  0.00178757  0.24311519  0.60399462  1
  O2-  O134  1  0.00238816  0.24530378  0.93939683  1
  O2-  O135  1  -0.00593854  0.74622387  0.26584251  1
  O2-  O136  1  -0.00035042  0.75133105  0.60424152  1
  O2-  O137  1  0.00219559  0.75356767  0.94444924  1
  O2-  O138  1  0.50106931  0.25226233  0.27537056  1
  O2-  O139  1  0.48991632  0.25077924  0.60403076  1
  O2-  O140  1  0.50034232  0.24202221  0.94116267  1
  O2-  O141  1  0.50302655  0.74493911  0.27258682  1
  O2-  O142  1  0.50561651  0.75177142  0.60058379  1
  O2-  O143  1  0.49316872  0.75170585  0.94184891  1
  O2-  O144  1  0.06949680  0.17710197  0.08875827  1
  O2-  O145  1  0.07883998  0.17982429  0.42127286  1
  O2-  O146  1  0.07509696  0.18288564  0.75588105  1
  O2-  O147  1  0.07043516  0.67958900  0.09025765  1
  O2-  O148  1  0.07318518  0.68380022  0.42833705  1
  O2-  O149  1  0.07163557  0.67976585  0.76710136  1
  O2-  O150  1  0.57338956  0.17716705  0.08979624  1
  O2-  O151  1  0.57097436  0.17782920  0.42095027  1
  O2-  O152  1  0.56777817  0.18290928  0.76649109  1
  O2-  O153  1  0.57346601  0.68125103  0.10171308  1
  O2-  O154  1  0.56648542  0.67323526  0.42338225  1
  O2-  O155  1  0.56660107  0.67402867  0.76413945  1
  O2-  O156  1  0.18096121  0.42094647  0.24372980  1
  O2-  O157  1  0.17734429  0.42387314  0.57821827  1
  O2-  O158  1  0.17252571  0.43251740  0.91038785  1
  O2-  O159  1  0.17937779  0.93565069  0.24112646  1
  O2-  O160  1  0.17992826  0.92986311  0.56674659  1
  O2-  O161  1  0.17091841  0.92889331  0.91677551  1
  O2-  O162  1  0.67984875  0.42629344  0.23416761  1
  O2-  O163  1  0.68300437  0.42930386  0.57047467  1
  O2-  O164  1  0.68112444  0.42636339  0.90963685  1
  O2-  O165  1  0.67814816  0.93386391  0.23191725  1
  O2-  O166  1  0.67671492  0.92982432  0.56933047  1
  O2-  O167  1  0.68266152  0.92555453  0.91140078  1
  O2-  O168  1  0.43362667  0.32104742  0.10061729  1
  O2-  O169  1  0.42360599  0.31730611  0.42326854  1
  O2-  O170  1  0.42783318  0.32301859  0.75461950  1
  O2-  O171  1  0.42995373  0.82391132  0.08991018  1
  O2-  O172  1  0.42874586  0.82644321  0.42984456  1
  O2-  O173  1  0.43196287  0.81881895  0.76797226  1
  O2-  O174  1  0.92955832  0.31916311  0.10010241  1
  O2-  O175  1  0.92803078  0.31593807  0.42207356  1
  O2-  O176  1  0.92933007  0.31873755  0.76368856  1
  O2-  O177  1  0.92578811  0.81962978  0.09077142  1
  O2-  O178  1  0.93167269  0.82814928  0.43014759  1
  O2-  O179  1  0.93155621  0.82144671  0.76797700  1
  O2-  O180  1  0.31871636  0.07485325  0.24121416  1
  O2-  O181  1  0.32054535  0.07302667  0.56559869  1
  O2-  O182  1  0.31971648  0.07031801  0.90307149  1
  O2-  O183  1  0.32089219  0.56901393  0.23409976  1
  O2-  O184  1  0.31759193  0.57014362  0.56760111  1
  O2-  O185  1  0.32054272  0.57028189  0.90252942  1
  O2-  O186  1  0.82121187  0.07470221  0.24057129  1
  O2-  O187  1  0.81603466  0.07221868  0.56753042  1
  O2-  O188  1  0.82173293  0.07294875  0.91210483  1
  O2-  O189  1  0.82157352  0.56682842  0.23387332  1
  O2-  O190  1  0.82681362  0.56528395  0.57885492  1
  O2-  O191  1  0.82337567  0.57224745  0.90865646  1
  O2-  O192  1  0.04842476  0.08918728  0.26569655  1
  O2-  O193  1  0.05246353  0.08369530  0.60671939  1
  O2-  O194  1  0.04504127  0.08217684  0.93864834  1
  O2-  O195  1  0.04907129  0.57674062  0.26409912  1
  O2-  O196  1  0.04815494  0.58139602  0.59794347  1
  O2-  O197  1  0.04358942  0.59000161  0.93724410  1
  O2-  O198  1  0.54151994  0.09040789  0.26515010  1
  O2-  O199  1  0.54029022  0.08388126  0.59792233  1
  O2-  O200  1  0.54863930  0.08021755  0.94094480  1
  O2-  O201  1  0.54228543  0.58097531  0.27260867  1
  O2-  O202  1  0.53787687  0.57726646  0.59854200  1
  O2-  O203  1  0.54207667  0.58228094  0.93557211  1
  O2-  O204  1  0.16519844  0.21060415  0.26685414  1
  O2-  O205  1  0.16525862  0.20868475  0.60146091  1
  O2-  O206  1  0.16487698  0.20046839  0.93737473  1
  O2-  O207  1  0.16615172  0.71395096  0.25953155  1
  O2-  O208  1  0.17042226  0.71096995  0.60162788  1
  O2-  O209  1  0.16451360  0.70924692  0.94024759  1
  O2-  O210  1  0.66319798  0.20628247  0.26747631  1
  O2-  O211  1  0.66219254  0.21545112  0.59778289  1
  O2-  O212  1  0.66433642  0.20339418  0.93765641  1
  O2-  O213  1  0.66484879  0.69879102  0.27450294  1
  O2-  O214  1  0.67405570  0.69160703  0.60233772  1
  O2-  O215  1  0.66599462  0.71041490  0.93221402  1
  O2-  O216  1  0.08235134  0.45795647  0.06318566  1
  O2-  O217  1  0.08226345  0.44314413  0.39246753  1
  O2-  O218  1  0.08023404  0.45292794  0.72741462  1
  O2-  O219  1  0.08236135  0.95672600  0.06985108  1
  O2-  O220  1  0.08830402  0.96249314  0.39270485  1
  O2-  O221  1  0.08287625  0.95768520  0.73767139  1
  O2-  O222  1  0.58901813  0.45617398  0.06209333  1
  O2-  O223  1  0.57997668  0.45066067  0.40272816  1
  O2-  O224  1  0.58315372  0.45778422  0.73747499  1
  O2-  O225  1  0.58923748  0.95317624  0.06385613  1
  O2-  O226  1  0.58452950  0.96887683  0.39878067  1
  O2-  O227  1  0.58336079  0.95940210  0.73740165  1
  O2-  O228  1  0.19593148  0.33378132  0.05962360  1
  O2-  O229  1  0.20978527  0.33498598  0.39846979  1
  O2-  O230  1  0.19838568  0.33484635  0.73264252  1
  O2-  O231  1  0.20046483  0.83533124  0.06878920  1
  O2-  O232  1  0.20638558  0.83965210  0.39092928  1
  O2-  O233  1  0.20959630  0.83279812  0.73789834  1
  O2-  O234  1  0.70735039  0.33552440  0.06230417  1
  O2-  O235  1  0.70928550  0.32868015  0.39926496  1
  O2-  O236  1  0.71344525  0.33476841  0.73729225  1
  O2-  O237  1  0.71220216  0.83574585  0.06403230  1
  O2-  O238  1  0.69887756  0.83124620  0.39877497  1
  O2-  O239  1  0.70448594  0.82424190  0.73461314  1
  O2-  O240  1  0.45629728  0.41375422  0.27316919  1
  O2-  O241  1  0.45684596  0.41405521  0.60247497  1
  O2-  O242  1  0.46268222  0.41435820  0.93150175  1
  O2-  O243  1  0.46355108  0.91825221  0.26150974  1
  O2-  O244  1  0.45602561  0.92022725  0.60206372  1
  O2-  O245  1  0.45504926  0.91678682  0.94004858  1
  O2-  O246  1  0.95618394  0.41019627  0.26913683  1
  O2-  O247  1  0.96048833  0.41312015  0.59319220  1
  O2-  O248  1  0.95860941  0.41708082  0.93125321  1
  O2-  O249  1  0.95878343  0.91963060  0.26161882  1
  O2-  O250  1  0.95523892  0.92438409  0.60326562  1
  O2-  O251  1  0.95248864  0.91551385  0.94223219  1
  O2-  O252  1  0.33782189  0.29162956  0.26824017  1
  O2-  O253  1  0.32930009  0.30413036  0.60499711  1
  O2-  O254  1  0.33015530  0.29408175  0.93502391  1
  O2-  O255  1  0.33369194  0.79498357  0.26098237  1
  O2-  O256  1  0.33415618  0.78985350  0.60251179  1
  O2-  O257  1  0.33056653  0.80188449  0.94276470  1
  O2-  O258  1  0.83826633  0.28877275  0.26818102  1
  O2-  O259  1  0.83223661  0.28672691  0.59634873  1
  O2-  O260  1  0.83217792  0.28875539  0.93337706  1
  O2-  O261  1  0.82565043  0.79608086  0.26597495  1
  O2-  O262  1  0.82995908  0.79727087  0.60149517  1
  O2-  O263  1  0.83821414  0.79095458  0.93705092  1
  O2-  O264  1  0.41787620  0.04249767  0.07123767  1
  O2-  O265  1  0.41495995  0.04772105  0.38938813  1
  O2-  O266  1  0.42030513  0.04637123  0.73469287  1
  O2-  O267  1  0.41782725  0.53615660  0.06910863  1
  O2-  O268  1  0.41235083  0.53895523  0.40368005  1
  O2-  O269  1  0.41368588  0.53517480  0.73586874  1
  O2-  O270  1  0.91351297  0.04693864  0.06452261  1
  O2-  O271  1  0.92090847  0.05362925  0.38917995  1
  O2-  O272  1  0.92045905  0.05258674  0.73513592  1
  O2-  O273  1  0.91392200  0.54333875  0.06086071  1
  O2-  O274  1  0.92224703  0.54022202  0.39935703  1
  O2-  O275  1  0.91798189  0.53928058  0.72931247  1
  O2-  O276  1  0.28826785  0.16810918  0.07016886  1
  O2-  O277  1  0.29262415  0.16429919  0.39398657  1
  O2-  O278  1  0.29392836  0.17270985  0.73191633  1
  O2-  O279  1  0.29149227  0.66759031  0.06893189  1
  O2-  O280  1  0.28879029  0.67183759  0.39705457  1
  O2-  O281  1  0.28965773  0.66516296  0.73784744  1
  O2-  O282  1  0.79070759  0.16276995  0.06540521  1
  O2-  O283  1  0.79416384  0.16327690  0.39289304  1
  O2-  O284  1  0.78443328  0.16692676  0.73496855  1
  O2-  O285  1  0.79240606  0.66242223  0.06151260  1
  O2-  O286  1  0.80181936  0.67123868  0.39953779  1
  O2-  O287  1  0.80595795  0.66572093  0.72824620  1
