# generated using pymatgen
data_Ca2Al2SiO7
_symmetry_space_group_name_H-M   'P 1'
_cell_length_a   15.46023472
_cell_length_b   15.46165297
_cell_length_c   15.28492945
_cell_angle_alpha   90.02010268
_cell_angle_beta   90.01072361
_cell_angle_gamma   89.97267208
_symmetry_Int_Tables_number   1
_chemical_formula_structural   Ca2Al2SiO7
_chemical_formula_sum   'Ca48 Al48 Si24 O168'
_cell_volume   3653.72081354
_cell_formula_units_Z   24
loop_
 _symmetry_equiv_pos_site_id
 _symmetry_equiv_pos_as_xyz
  1  'x, y, z'
loop_
 _atom_type_symbol
 _atom_type_oxidation_number
  Ca2+  2.0
  Al0+  0.0
  Si0+  0.0
  O2-  -2.0
loop_
 _atom_site_type_symbol
 _atom_site_label
 _atom_site_symmetry_multiplicity
 _atom_site_fract_x
 _atom_site_fract_y
 _atom_site_fract_z
 _atom_site_occupancy
  Ca2+  Ca0  1  0.16558979  0.07954473  0.16913460  1
  Ca2+  Ca1  1  0.16175214  0.08310222  0.50594464  1
  Ca2+  Ca2  1  0.16198449  0.07583101  0.83568263  1
  Ca2+  Ca3  1  0.16793574  0.57649781  0.16799630  1
  Ca2+  Ca4  1  0.17733068  0.57764023  0.51334822  1
  Ca2+  Ca5  1  0.17097817  0.57354771  0.83663007  1
  Ca2+  Ca6  1  0.65856327  0.07658241  0.16610029  1
  Ca2+  Ca7  1  0.66871034  0.08280765  0.50803257  1
  Ca2+  Ca8  1  0.66491289  0.08072441  0.84155575  1
  Ca2+  Ca9  1  0.66085662  0.58247460  0.17225204  1
  Ca2+  Ca10  1  0.65985593  0.57407824  0.50448892  1
  Ca2+  Ca11  1  0.66190273  0.58348921  0.83277288  1
  Ca2+  Ca12  1  0.08407481  0.32887911  0.16151460  1
  Ca2+  Ca13  1  0.08084850  0.32908693  0.49332477  1
  Ca2+  Ca14  1  0.08155686  0.33265211  0.82294229  1
  Ca2+  Ca15  1  0.07295607  0.83734183  0.16092046  1
  Ca2+  Ca16  1  0.07444853  0.83998885  0.49861546  1
  Ca2+  Ca17  1  0.07544555  0.84468802  0.82763842  1
  Ca2+  Ca18  1  0.57294874  0.33455644  0.16092823  1
  Ca2+  Ca19  1  0.58330858  0.33440065  0.49581486  1
  Ca2+  Ca20  1  0.58281053  0.32488467  0.82638460  1
  Ca2+  Ca21  1  0.57756236  0.82504917  0.15566422  1
  Ca2+  Ca22  1  0.57572481  0.81779220  0.49260709  1
  Ca2+  Ca23  1  0.58428020  0.82339349  0.83092143  1
  Ca2+  Ca24  1  0.33463838  0.41053272  0.16896924  1
  Ca2+  Ca25  1  0.33153103  0.42075854  0.50874455  1
  Ca2+  Ca26  1  0.32703679  0.41714200  0.83586551  1
  Ca2+  Ca27  1  0.33285275  0.90957831  0.16970371  1
  Ca2+  Ca28  1  0.32809738  0.91714120  0.50737929  1
  Ca2+  Ca29  1  0.32295133  0.91440278  0.84236897  1
  Ca2+  Ca30  1  0.82452882  0.41873183  0.17752938  1
  Ca2+  Ca31  1  0.82539742  0.40774817  0.50489516  1
  Ca2+  Ca32  1  0.82743757  0.41229723  0.83390048  1
  Ca2+  Ca33  1  0.82957198  0.91142149  0.16748324  1
  Ca2+  Ca34  1  0.83704616  0.91561169  0.50458648  1
  Ca2+  Ca35  1  0.83031547  0.91532834  0.84142586  1
  Ca2+  Ca36  1  0.42043234  0.17825843  0.15952113  1
  Ca2+  Ca37  1  0.42151696  0.17329546  0.49689376  1
  Ca2+  Ca38  1  0.42695736  0.16742105  0.83404863  1
  Ca2+  Ca39  1  0.42724375  0.67384339  0.16268642  1
  Ca2+  Ca40  1  0.42305869  0.66286675  0.49600910  1
  Ca2+  Ca41  1  0.42271862  0.66596843  0.83126102  1
  Ca2+  Ca42  1  0.92003874  0.17100880  0.17044330  1
  Ca2+  Ca43  1  0.92763922  0.17913998  0.50082318  1
  Ca2+  Ca44  1  0.92344286  0.17316985  0.82320888  1
  Ca2+  Ca45  1  0.91356405  0.67711680  0.16270130  1
  Ca2+  Ca46  1  0.91611769  0.67737695  0.49870211  1
  Ca2+  Ca47  1  0.91663211  0.67966554  0.83021789  1
  Al0+  Al48  1  -0.00031015  0.00202462  0.00259124  1
  Al0+  Al49  1  -0.00081156  0.00018528  0.32657822  1
  Al0+  Al50  1  -0.00132480  0.00366350  0.66279149  1
  Al0+  Al51  1  -0.00037705  0.50098644  0.00568042  1
  Al0+  Al52  1  -0.00173767  0.50038637  0.33278936  1
  Al0+  Al53  1  -0.00317871  0.50436423  0.66654531  1
  Al0+  Al54  1  0.49920611  0.00021691  -0.00111367  1
  Al0+  Al55  1  0.49800140  -0.00060575  0.33504952  1
  Al0+  Al56  1  0.50048700  -0.00066372  0.66291539  1
  Al0+  Al57  1  0.49849438  0.50030000  -0.00701302  1
  Al0+  Al58  1  0.49984618  0.49892311  0.33015391  1
  Al0+  Al59  1  0.50155007  0.49972525  0.67284587  1
  Al0+  Al60  1  0.24932382  0.24905438  -0.00045332  1
  Al0+  Al61  1  0.25150842  0.24662403  0.32740708  1
  Al0+  Al62  1  0.25285754  0.24788014  0.66850468  1
  Al0+  Al63  1  0.24904098  0.74696424  0.00402891  1
  Al0+  Al64  1  0.24897092  0.74883566  0.33297921  1
  Al0+  Al65  1  0.24893320  0.75138837  0.67689738  1
  Al0+  Al66  1  0.75170362  0.25047572  0.00065279  1
  Al0+  Al67  1  0.75220995  0.24710025  0.33457802  1
  Al0+  Al68  1  0.75103245  0.24859160  0.66455524  1
  Al0+  Al69  1  0.75128848  0.75105372  -0.00315852  1
  Al0+  Al70  1  0.75079215  0.74893634  0.32877489  1
  Al0+  Al71  1  0.74795615  0.74899973  0.65731784  1
  Al0+  Al72  1  0.42665920  0.32137688  0.98175490  1
  Al0+  Al73  1  0.43107246  0.31968249  0.32179606  1
  Al0+  Al74  1  0.57220632  0.67990917  0.98233963  1
  Al0+  Al75  1  0.57292765  0.18002914  0.98638577  1
  Al0+  Al76  1  0.68224928  0.42814105  0.68130867  1
  Al0+  Al77  1  0.07358475  0.18126045  0.65379440  1
  Al0+  Al78  1  0.17926868  0.42848183  0.01523919  1
  Al0+  Al79  1  0.57174248  0.17738980  0.65200813  1
  Al0+  Al80  1  0.93234533  0.82160036  0.98566448  1
  Al0+  Al81  1  0.92777664  0.32272999  0.31710753  1
  Al0+  Al82  1  0.17817008  0.92823165  0.01607984  1
  Al0+  Al83  1  0.07160288  0.18038761  0.31592774  1
  Al0+  Al84  1  0.17683317  0.42741111  0.67890582  1
  Al0+  Al85  1  0.42684236  0.82227525  0.32006659  1
  Al0+  Al86  1  0.32286116  0.57159096  0.68346364  1
  Al0+  Al87  1  0.17811227  0.93296479  0.67908698  1
  Al0+  Al88  1  0.67962040  0.92958691  0.01246046  1
  Al0+  Al89  1  0.92987504  0.82172478  0.65328812  1
  Al0+  Al90  1  0.93064096  0.81992355  0.31824180  1
  Al0+  Al91  1  0.42566395  0.82153279  0.98405082  1
  Al0+  Al92  1  0.56840427  0.67819063  0.65075812  1
  Al0+  Al93  1  0.56986342  0.67849895  0.31813460  1
  Al0+  Al94  1  0.92923444  0.32538436  0.65374604  1
  Al0+  Al95  1  0.67932131  0.42932399  0.34586056  1
  Si0+  Si96  1  0.82224785  0.06848088  0.35061250  1
  Si0+  Si97  1  0.67891761  0.42822428  0.01419323  1
  Si0+  Si98  1  0.17831693  0.92950843  0.34806632  1
  Si0+  Si99  1  0.32649634  0.07175297  0.68448452  1
  Si0+  Si100  1  0.07385770  0.67916646  0.65189306  1
  Si0+  Si101  1  0.32131869  0.07162255  0.34939246  1
  Si0+  Si102  1  0.17907375  0.42647668  0.34655371  1
  Si0+  Si103  1  0.67821592  0.92771233  0.34920644  1
  Si0+  Si104  1  0.43026098  0.32131494  0.65093557  1
  Si0+  Si105  1  0.32379448  0.57043350  0.02036788  1
  Si0+  Si106  1  0.67894195  0.92743663  0.67909728  1
  Si0+  Si107  1  0.57412454  0.17592557  0.31827765  1
  Si0+  Si108  1  0.07106467  0.67549488  0.98407038  1
  Si0+  Si109  1  0.06960593  0.18016409  0.98459877  1
  Si0+  Si110  1  0.82003213  0.57101610  0.01485829  1
  Si0+  Si111  1  0.42516173  0.82191615  0.65143164  1
  Si0+  Si112  1  0.31931486  0.56982224  0.34703472  1
  Si0+  Si113  1  0.82059286  0.57698038  0.68363230  1
  Si0+  Si114  1  0.32151891  0.07095380  0.01813018  1
  Si0+  Si115  1  0.92964424  0.32365582  0.98614995  1
  Si0+  Si116  1  0.82264282  0.07439401  0.01889319  1
  Si0+  Si117  1  0.82326591  0.57393858  0.35146943  1
  Si0+  Si118  1  0.07351246  0.67633217  0.31742605  1
  Si0+  Si119  1  0.81921340  0.06928053  0.68119232  1
  O2-  O120  1  0.25684152  -0.00157856  0.06369985  1
  O2-  O121  1  0.25160294  -0.00188504  0.39030419  1
  O2-  O122  1  0.25488918  0.00502689  0.72694692  1
  O2-  O123  1  0.25606648  0.49989224  0.06432238  1
  O2-  O124  1  0.24733010  0.49943770  0.38926098  1
  O2-  O125  1  0.24849884  0.49935204  0.73000502  1
  O2-  O126  1  0.75175468  0.00667666  0.06146289  1
  O2-  O127  1  0.74881751  -0.00099040  0.39268957  1
  O2-  O128  1  0.74831592  -0.00127087  0.72352970  1
  O2-  O129  1  0.74747101  0.50134718  0.05679900  1
  O2-  O130  1  0.75595253  0.50272794  0.39344667  1
  O2-  O131  1  0.75784386  0.50266666  0.72791807  1
  O2-  O132  1  0.00366517  0.25612457  0.26525588  1
  O2-  O133  1  0.01058946  0.26240864  0.60561597  1
  O2-  O134  1  0.00071348  0.25342061  0.94353883  1
  O2-  O135  1  0.00378989  0.74352519  0.27262900  1
  O2-  O136  1  0.00678382  0.74913168  0.60676010  1
  O2-  O137  1  0.01054055  0.75095406  0.93887440  1
  O2-  O138  1  0.50845563  0.24735400  0.27543709  1
  O2-  O139  1  0.49840679  0.25279499  0.60526315  1
  O2-  O140  1  0.50311729  0.25264843  0.93433818  1
  O2-  O141  1  0.50258110  0.75529437  0.26962572  1
  O2-  O142  1  0.49003035  0.75028573  0.60635822  1
  O2-  O143  1  0.49928674  0.75188144  0.93332596  1
  O2-  O144  1  0.06842778  0.17997221  0.08967673  1
  O2-  O145  1  0.07161332  0.18055682  0.42926514  1
  O2-  O146  1  0.06726727  0.17699895  0.76750345  1
  O2-  O147  1  0.06565295  0.67297062  0.08986531  1
  O2-  O148  1  0.07571366  0.67813475  0.42294112  1
  O2-  O149  1  0.07171807  0.67858017  0.75730340  1
  O2-  O150  1  0.57250021  0.18240118  0.10042468  1
  O2-  O151  1  0.57204948  0.17444903  0.42405957  1
  O2-  O152  1  0.57175337  0.17653081  0.76466058  1
  O2-  O153  1  0.57240430  0.67983444  0.09592008  1
  O2-  O154  1  0.56617388  0.67692348  0.43178531  1
  O2-  O155  1  0.57166534  0.68234219  0.76320244  1
  O2-  O156  1  0.18080195  0.42778941  0.24129532  1
  O2-  O157  1  0.18023956  0.42930615  0.56447730  1
  O2-  O158  1  0.17566061  0.43084221  0.90263238  1
  O2-  O159  1  0.17815839  0.93058292  0.24302534  1
  O2-  O160  1  0.17830614  0.93400393  0.56530347  1
  O2-  O161  1  0.17457641  0.93445359  0.90314516  1
  O2-  O162  1  0.67902052  0.43158478  0.23229358  1
  O2-  O163  1  0.68147288  0.42812624  0.56801888  1
  O2-  O164  1  0.68348798  0.42502504  0.90931679  1
  O2-  O165  1  0.67859308  0.92931462  0.24406478  1
  O2-  O166  1  0.68066371  0.92934597  0.57365477  1
  O2-  O167  1  0.68409985  0.92913454  0.89905357  1
  O2-  O168  1  0.42875234  0.31946403  0.09591743  1
  O2-  O169  1  0.42963071  0.31860792  0.43489237  1
  O2-  O170  1  0.43102434  0.31904042  0.75613822  1
  O2-  O171  1  0.42816391  0.81863145  0.09779955  1
  O2-  O172  1  0.42561733  0.82053765  0.43390591  1
  O2-  O173  1  0.42799813  0.82480970  0.75647950  1
  O2-  O174  1  0.92945260  0.32285315  0.09108571  1
  O2-  O175  1  0.92905329  0.32041314  0.43026479  1
  O2-  O176  1  0.92682786  0.31899737  0.76790589  1
  O2-  O177  1  0.93118998  0.81884028  0.09877342  1
  O2-  O178  1  0.93261059  0.82149602  0.43150244  1
  O2-  O179  1  0.92920174  0.82199737  0.76621854  1
  O2-  O180  1  0.32176201  0.07321318  0.24467796  1
  O2-  O181  1  0.32907141  0.06994691  0.57855916  1
  O2-  O182  1  0.31809763  0.07234480  0.91257012  1
  O2-  O183  1  0.31768952  0.57015730  0.24218690  1
  O2-  O184  1  0.32204395  0.56995210  0.56866213  1
  O2-  O185  1  0.32145755  0.57094068  0.91507123  1
  O2-  O186  1  0.82235572  0.06823395  0.24551889  1
  O2-  O187  1  0.81888162  0.06743991  0.57583902  1
  O2-  O188  1  0.82479740  0.07501539  0.91320042  1
  O2-  O189  1  0.82347197  0.57495996  0.24552743  1
  O2-  O190  1  0.81753492  0.58180295  0.57833369  1
  O2-  O191  1  0.82282707  0.56930994  0.90995310  1
  O2-  O192  1  0.03764972  0.08430308  0.26181012  1
  O2-  O193  1  0.03414954  0.08842776  0.59650237  1
  O2-  O194  1  0.03810627  0.08966875  0.93756251  1
  O2-  O195  1  0.04965299  0.58240514  0.27116595  1
  O2-  O196  1  0.04740910  0.58714550  0.60284510  1
  O2-  O197  1  0.03708711  0.58501557  0.93650605  1
  O2-  O198  1  0.54454386  0.08333627  0.27262315  1
  O2-  O199  1  0.54170480  0.08105529  0.59596508  1
  O2-  O200  1  0.54461897  0.08172237  0.93381560  1
  O2-  O201  1  0.53737870  0.58260803  0.26370925  1
  O2-  O202  1  0.53943267  0.57962339  0.59999723  1
  O2-  O203  1  0.54506633  0.58130588  0.93006789  1
  O2-  O204  1  0.17022711  0.20376977  0.26165859  1
  O2-  O205  1  0.17597856  0.19611699  0.60372318  1
  O2-  O206  1  0.16191301  0.20422671  0.93812897  1
  O2-  O207  1  0.16572740  0.70237908  0.26916862  1
  O2-  O208  1  0.16854158  0.70392232  0.60758699  1
  O2-  O209  1  0.16791673  0.69156271  0.94340026  1
  O2-  O210  1  0.66921161  0.19513108  0.27427040  1
  O2-  O211  1  0.66820686  0.20684185  0.59801803  1
  O2-  O212  1  0.67294884  0.20594437  0.93449297  1
  O2-  O213  1  0.66980014  0.70192541  0.26721016  1
  O2-  O214  1  0.66218392  0.71187653  0.59327892  1
  O2-  O215  1  0.67029768  0.70929895  0.92961255  1
  O2-  O216  1  0.08360357  0.46230593  0.07163763  1
  O2-  O217  1  0.08521313  0.45112769  0.39139928  1
  O2-  O218  1  0.07697186  0.45556877  0.73015434  1
  O2-  O219  1  0.08309887  0.96505061  0.07088647  1
  O2-  O220  1  0.08653877  0.96102517  0.39362802  1
  O2-  O221  1  0.08185193  0.96806296  0.73224127  1
  O2-  O222  1  0.58490247  0.45436713  0.05747674  1
  O2-  O223  1  0.58242081  0.46083960  0.39987620  1
  O2-  O224  1  0.58676079  0.45821985  0.73660535  1
  O2-  O225  1  0.58231995  0.95859692  0.06712096  1
  O2-  O226  1  0.58592920  0.95456280  0.39700208  1
  O2-  O227  1  0.58639061  0.95390468  0.72516584  1
  O2-  O228  1  0.20742186  0.33032290  0.06799970  1
  O2-  O229  1  0.20930926  0.33442226  0.39133962  1
  O2-  O230  1  0.20455432  0.32833521  0.73163432  1
  O2-  O231  1  0.20072700  0.82849985  0.06832706  1
  O2-  O232  1  0.20241243  0.83609935  0.39471399  1
  O2-  O233  1  0.20174408  0.83612704  0.73561523  1
  O2-  O234  1  0.70913679  0.33781776  0.06355685  1
  O2-  O235  1  0.70812136  0.33049489  0.39810367  1
  O2-  O236  1  0.71444684  0.33118110  0.73499030  1
  O2-  O237  1  0.71491102  0.83414631  0.06707574  1
  O2-  O238  1  0.70758874  0.83535049  0.39469618  1
  O2-  O239  1  0.70883333  0.83570977  0.72436419  1
  O2-  O240  1  0.45929161  0.41493070  0.26496671  1
  O2-  O241  1  0.45667620  0.41502870  0.60672348  1
  O2-  O242  1  0.44996098  0.42042439  0.93037638  1
  O2-  O243  1  0.44965856  0.92286565  0.26951045  1
  O2-  O244  1  0.45370484  0.91372490  0.60277342  1
  O2-  O245  1  0.44828604  0.92212670  0.93464442  1
  O2-  O246  1  0.94805215  0.42413993  0.26697523  1
  O2-  O247  1  0.94171924  0.42804982  0.60416997  1
  O2-  O248  1  0.95635853  0.41603643  0.94037613  1
  O2-  O249  1  0.96219485  0.91459323  0.26230168  1
  O2-  O250  1  0.96035106  0.91770352  0.59815176  1
  O2-  O251  1  0.95920997  0.92056153  0.93464426  1
  O2-  O252  1  0.33708769  0.28611728  0.26496577  1
  O2-  O253  1  0.33657785  0.29590064  0.60471510  1
  O2-  O254  1  0.32903860  0.28883170  0.93015235  1
  O2-  O255  1  0.32895368  0.79184159  0.26751436  1
  O2-  O256  1  0.32901514  0.80034627  0.60887425  1
  O2-  O257  1  0.32576870  0.79215688  0.93432754  1
  O2-  O258  1  0.83125022  0.28745542  0.26369718  1
  O2-  O259  1  0.83617154  0.28434316  0.59868971  1
  O2-  O260  1  0.83819478  0.29520770  0.93895023  1
  O2-  O261  1  0.83405879  0.79072785  0.26395849  1
  O2-  O262  1  0.83524806  0.78948381  0.59637489  1
  O2-  O263  1  0.83768077  0.78745768  0.93127948  1
  O2-  O264  1  0.41670513  0.05172090  0.06346183  1
  O2-  O265  1  0.41328304  0.04635837  0.39925356  1
  O2-  O266  1  0.41917008  0.04304441  0.73134219  1
  O2-  O267  1  0.41832495  0.54465457  0.06477906  1
  O2-  O268  1  0.41042189  0.53971529  0.39388134  1
  O2-  O269  1  0.41930355  0.54195278  0.73820975  1
  O2-  O270  1  0.91442522  0.04588741  0.06700202  1
  O2-  O271  1  0.91336132  0.03609831  0.39680649  1
  O2-  O272  1  0.91041600  0.04119427  0.72930159  1
  O2-  O273  1  0.91006993  0.54266868  0.06601420  1
  O2-  O274  1  0.91833542  0.55230780  0.39762313  1
  O2-  O275  1  0.91643559  0.56020341  0.72878784  1
  O2-  O276  1  0.29001513  0.16272571  0.06530967  1
  O2-  O277  1  0.29089652  0.16231975  0.39818947  1
  O2-  O278  1  0.30525823  0.16593781  0.73064595  1
  O2-  O279  1  0.29628842  0.66273682  0.06861424  1
  O2-  O280  1  0.29169605  0.66145134  0.39617773  1
  O2-  O281  1  0.29586288  0.66942123  0.73827840  1
  O2-  O282  1  0.79908302  0.16848423  0.06611738  1
  O2-  O283  1  0.79705902  0.16048830  0.39910843  1
  O2-  O284  1  0.79189339  0.16036951  0.72961963  1
  O2-  O285  1  0.79280012  0.66307602  0.06209893  1
  O2-  O286  1  0.79681352  0.66783128  0.39728176  1
  O2-  O287  1  0.78714624  0.66820651  0.73105059  1
