# generated using pymatgen
data_Ca2Al2SiO7
_symmetry_space_group_name_H-M   'P 1'
_cell_length_a   15.45920086
_cell_length_b   15.46013483
_cell_length_c   15.28516033
_cell_angle_alpha   90.01645510
_cell_angle_beta   90.01085957
_cell_angle_gamma   89.99859042
_symmetry_Int_Tables_number   1
_chemical_formula_structural   Ca2Al2SiO7
_chemical_formula_sum   'Ca48 Al48 Si24 O168'
_cell_volume   3653.17342565
_cell_formula_units_Z   24
loop_
 _symmetry_equiv_pos_site_id
 _symmetry_equiv_pos_as_xyz
  1  'x, y, z'
loop_
 _atom_type_symbol
 _atom_type_oxidation_number
  Ca2+  2.0
  Al0+  0.0
  Si0+  0.0
  O2-  -2.0
loop_
 _atom_site_type_symbol
 _atom_site_label
 _atom_site_symmetry_multiplicity
 _atom_site_fract_x
 _atom_site_fract_y
 _atom_site_fract_z
 _atom_site_occupancy
  Ca2+  Ca0  1  0.17209286  0.07782236  0.17100381  1
  Ca2+  Ca1  1  0.16929721  0.07899035  0.50422878  1
  Ca2+  Ca2  1  0.15914225  0.07784795  0.83621937  1
  Ca2+  Ca3  1  0.16766813  0.57474002  0.16762397  1
  Ca2+  Ca4  1  0.17634366  0.58029465  0.50890042  1
  Ca2+  Ca5  1  0.17369400  0.57536532  0.83642855  1
  Ca2+  Ca6  1  0.66033910  0.07327156  0.17302454  1
  Ca2+  Ca7  1  0.66587688  0.07694824  0.50962889  1
  Ca2+  Ca8  1  0.66960772  0.08165766  0.83309459  1
  Ca2+  Ca9  1  0.66261630  0.57587070  0.16576669  1
  Ca2+  Ca10  1  0.66279257  0.57633439  0.51159193  1
  Ca2+  Ca11  1  0.66185554  0.57380366  0.83222354  1
  Ca2+  Ca12  1  0.08606126  0.32488302  0.15402768  1
  Ca2+  Ca13  1  0.07909168  0.32796138  0.50113789  1
  Ca2+  Ca14  1  0.08153655  0.32217297  0.82625187  1
  Ca2+  Ca15  1  0.08009895  0.84390047  0.16392356  1
  Ca2+  Ca16  1  0.07353983  0.84765919  0.49924456  1
  Ca2+  Ca17  1  0.07943252  0.84007455  0.82378326  1
  Ca2+  Ca18  1  0.57333181  0.32742606  0.16119276  1
  Ca2+  Ca19  1  0.57938595  0.32162182  0.49866076  1
  Ca2+  Ca20  1  0.57910535  0.33410496  0.82255741  1
  Ca2+  Ca21  1  0.57842787  0.83987302  0.15891645  1
  Ca2+  Ca22  1  0.59474102  0.82845373  0.49724552  1
  Ca2+  Ca23  1  0.58257583  0.83259733  0.82801311  1
  Ca2+  Ca24  1  0.33193092  0.40580190  0.16640273  1
  Ca2+  Ca25  1  0.34505738  0.41984657  0.50673735  1
  Ca2+  Ca26  1  0.33943301  0.41946424  0.83700333  1
  Ca2+  Ca27  1  0.32631654  0.92230968  0.17459690  1
  Ca2+  Ca28  1  0.32385953  0.92382395  0.50477526  1
  Ca2+  Ca29  1  0.32276691  0.91604593  0.84058462  1
  Ca2+  Ca30  1  0.82656415  0.41640124  0.16771524  1
  Ca2+  Ca31  1  0.82728090  0.41558334  0.51184949  1
  Ca2+  Ca32  1  0.82064010  0.40524919  0.83333361  1
  Ca2+  Ca33  1  0.82301258  0.91608480  0.17262271  1
  Ca2+  Ca34  1  0.82815127  0.91991653  0.50911520  1
  Ca2+  Ca35  1  0.82466825  0.91837671  0.83069090  1
  Ca2+  Ca36  1  0.41629535  0.16912816  0.16547697  1
  Ca2+  Ca37  1  0.42522021  0.16940382  0.49374198  1
  Ca2+  Ca38  1  0.42297271  0.17943278  0.82568417  1
  Ca2+  Ca39  1  0.41715535  0.67808889  0.16040071  1
  Ca2+  Ca40  1  0.42051965  0.66555295  0.50433926  1
  Ca2+  Ca41  1  0.41936479  0.67136120  0.82693688  1
  Ca2+  Ca42  1  0.92635218  0.16341750  0.16174889  1
  Ca2+  Ca43  1  0.91773512  0.16179860  0.50681105  1
  Ca2+  Ca44  1  0.92540820  0.16461289  0.82339149  1
  Ca2+  Ca45  1  0.91831360  0.67426699  0.16565561  1
  Ca2+  Ca46  1  0.91436913  0.68246047  0.49669669  1
  Ca2+  Ca47  1  0.91867318  0.67426742  0.82556559  1
  Al0+  Al48  1  -0.00080532  0.00004426  -0.00011245  1
  Al0+  Al49  1  -0.00296595  0.00050837  0.32959997  1
  Al0+  Al50  1  -0.00086040  0.00033827  0.66581208  1
  Al0+  Al51  1  0.00042127  0.50133982  0.00403572  1
  Al0+  Al52  1  -0.00009306  0.50167514  0.33314629  1
  Al0+  Al53  1  0.00142860  0.50096984  0.66332758  1
  Al0+  Al54  1  0.49921087  0.00064761  -0.00268120  1
  Al0+  Al55  1  0.49948294  -0.00180028  0.33901977  1
  Al0+  Al56  1  0.49634396  -0.00025271  0.66836252  1
  Al0+  Al57  1  0.50156432  0.50192301  0.00371344  1
  Al0+  Al58  1  0.49930628  0.49911723  0.32801696  1
  Al0+  Al59  1  0.50057325  0.50394232  0.66836061  1
  Al0+  Al60  1  0.25099708  0.24988373  -0.00634371  1
  Al0+  Al61  1  0.24879617  0.24995935  0.33484903  1
  Al0+  Al62  1  0.24896827  0.25085368  0.65785856  1
  Al0+  Al63  1  0.24881933  0.74967804  0.00087445  1
  Al0+  Al64  1  0.24889886  0.74611582  0.33718940  1
  Al0+  Al65  1  0.25087774  0.74870579  0.67472158  1
  Al0+  Al66  1  0.75100734  0.25001266  0.00844176  1
  Al0+  Al67  1  0.74944258  0.24925737  0.32808457  1
  Al0+  Al68  1  0.75028369  0.24874407  0.66788678  1
  Al0+  Al69  1  0.75103616  0.75029893  0.00395718  1
  Al0+  Al70  1  0.75231372  0.74831635  0.32913262  1
  Al0+  Al71  1  0.74999957  0.74891702  0.66309718  1
  Al0+  Al72  1  0.06996102  0.17898123  0.98648651  1
  Al0+  Al73  1  0.67626220  0.92594917  0.68166004  1
  Al0+  Al74  1  0.56964558  0.68291857  0.65451903  1
  Al0+  Al75  1  0.67833527  0.42859792  0.01569445  1
  Al0+  Al76  1  0.17714306  0.92799410  0.34857903  1
  Al0+  Al77  1  0.43126382  0.32112521  0.98498655  1
  Al0+  Al78  1  0.68079054  0.42948835  0.67765032  1
  Al0+  Al79  1  0.32089767  0.07247944  0.34953345  1
  Al0+  Al80  1  0.67890443  0.93007340  0.01350331  1
  Al0+  Al81  1  0.57136445  0.17616709  0.65314666  1
  Al0+  Al82  1  0.42898603  0.32095639  0.31630319  1
  Al0+  Al83  1  0.57168837  0.17540621  0.31682111  1
  Al0+  Al84  1  0.42749695  0.82251936  0.98718348  1
  Al0+  Al85  1  0.18061936  0.93210010  0.68091526  1
  Al0+  Al86  1  0.43030566  0.32327047  0.65237833  1
  Al0+  Al87  1  0.93026014  0.81954223  0.65419235  1
  Al0+  Al88  1  0.67951941  0.92785236  0.34689688  1
  Al0+  Al89  1  0.81996982  0.07051739  0.68202644  1
  Al0+  Al90  1  0.93050455  0.82122582  0.31698681  1
  Al0+  Al91  1  0.18087915  0.42856157  0.01157841  1
  Al0+  Al92  1  0.17810419  0.92857427  0.01407492  1
  Al0+  Al93  1  0.92807022  0.32227215  0.65313825  1
  Al0+  Al94  1  0.32142459  0.56918010  0.68165930  1
  Al0+  Al95  1  0.07101528  0.17771758  0.64893915  1
  Si0+  Si96  1  0.42728593  0.81870786  0.32146606  1
  Si0+  Si97  1  0.32157387  0.07204743  0.01438405  1
  Si0+  Si98  1  0.07096878  0.67678330  0.98465445  1
  Si0+  Si99  1  0.32188706  0.07589127  0.68487008  1
  Si0+  Si100  1  0.06911414  0.18098939  0.31693185  1
  Si0+  Si101  1  0.57460158  0.17780010  0.98336020  1
  Si0+  Si102  1  0.07480458  0.67799136  0.65064668  1
  Si0+  Si103  1  0.92866791  0.32501691  0.31645653  1
  Si0+  Si104  1  0.17733279  0.42862140  0.34832457  1
  Si0+  Si105  1  0.67931579  0.43012833  0.34794381  1
  Si0+  Si106  1  0.42444185  0.82209908  0.65040211  1
  Si0+  Si107  1  0.57300633  0.68006200  0.98410056  1
  Si0+  Si108  1  0.82425757  0.57261767  0.68159368  1
  Si0+  Si109  1  0.17609103  0.42696324  0.68221260  1
  Si0+  Si110  1  0.82249969  0.07135344  0.01859636  1
  Si0+  Si111  1  0.92743914  0.32418382  0.98553680  1
  Si0+  Si112  1  0.92956305  0.81972017  0.98428372  1
  Si0+  Si113  1  0.32249376  0.57229460  0.01896615  1
  Si0+  Si114  1  0.57172405  0.67835784  0.31694376  1
  Si0+  Si115  1  0.82140965  0.07353563  0.34934587  1
  Si0+  Si116  1  0.32174332  0.56953548  0.34833229  1
  Si0+  Si117  1  0.07319723  0.67618253  0.31514107  1
  Si0+  Si118  1  0.82304118  0.57324096  0.01846352  1
  Si0+  Si119  1  0.82182778  0.56976560  0.34889478  1
  O2-  O120  1  0.25509871  0.00099725  0.05945980  1
  O2-  O121  1  0.24892114  -0.00050067  0.39851598  1
  O2-  O122  1  0.25376981  0.00682915  0.72987389  1
  O2-  O123  1  0.25645295  0.50059378  0.06288691  1
  O2-  O124  1  0.25178399  0.49661659  0.38929982  1
  O2-  O125  1  0.24842965  0.49192184  0.72621581  1
  O2-  O126  1  0.75034756  0.00642835  0.06270077  1
  O2-  O127  1  0.75052081  0.00644848  0.39164722  1
  O2-  O128  1  0.74492700  0.00115901  0.73152999  1
  O2-  O129  1  0.75479993  0.50304601  0.06166783  1
  O2-  O130  1  0.75181070  0.49876385  0.39153029  1
  O2-  O131  1  0.76031998  0.49971072  0.72538556  1
  O2-  O132  1  -0.00023957  0.25415183  0.27424060  1
  O2-  O133  1  -0.00054351  0.25156789  0.60007810  1
  O2-  O134  1  -0.00447793  0.25531675  0.94234297  1
  O2-  O135  1  0.00950414  0.74967464  0.27076707  1
  O2-  O136  1  0.00607722  0.74596629  0.60614079  1
  O2-  O137  1  0.00275349  0.75048707  0.94271153  1
  O2-  O138  1  0.49880709  0.24678060  0.26654364  1
  O2-  O139  1  0.49781639  0.24701267  0.60321795  1
  O2-  O140  1  0.51032864  0.25078392  0.93986734  1
  O2-  O141  1  0.50291371  0.75257877  0.27718339  1
  O2-  O142  1  0.50003087  0.76123732  0.60519441  1
  O2-  O143  1  0.50441370  0.74926389  0.94159357  1
  O2-  O144  1  0.06884889  0.18000944  0.10045377  1
  O2-  O145  1  0.06769122  0.18156468  0.42138971  1
  O2-  O146  1  0.06969229  0.17824883  0.76266726  1
  O2-  O147  1  0.06897551  0.67431453  0.08987459  1
  O2-  O148  1  0.07080090  0.66921481  0.41996181  1
  O2-  O149  1  0.07294877  0.67724017  0.75659195  1
  O2-  O150  1  0.57226900  0.17646348  0.08903230  1
  O2-  O151  1  0.57461035  0.17890177  0.42978012  1
  O2-  O152  1  0.57101571  0.17930746  0.76717275  1
  O2-  O153  1  0.57196014  0.68014337  0.09047189  1
  O2-  O154  1  0.57155244  0.67505323  0.42174668  1
  O2-  O155  1  0.56790168  0.68074186  0.76752144  1
  O2-  O156  1  0.17528841  0.43030388  0.24295300  1
  O2-  O157  1  0.17287718  0.43174213  0.57627666  1
  O2-  O158  1  0.17921171  0.43215766  0.89931001  1
  O2-  O159  1  0.17973083  0.93007499  0.23459604  1
  O2-  O160  1  0.18141698  0.93172224  0.56791220  1
  O2-  O161  1  0.17665108  0.92922737  0.90127299  1
  O2-  O162  1  0.68101416  0.43374504  0.24259179  1
  O2-  O163  1  0.68070665  0.43294621  0.56411539  1
  O2-  O164  1  0.67899891  0.43008861  0.90295349  1
  O2-  O165  1  0.68088020  0.92696138  0.23324575  1
  O2-  O166  1  0.68242931  0.92385027  0.56807361  1
  O2-  O167  1  0.68190361  0.92728827  0.90132942  1
  O2-  O168  1  0.43013173  0.31743415  0.09800930  1
  O2-  O169  1  0.43438051  0.32660460  0.42893999  1
  O2-  O170  1  0.43292227  0.32398920  0.76625122  1
  O2-  O171  1  0.42803612  0.82039401  0.10127893  1
  O2-  O172  1  0.42490222  0.81380554  0.42604943  1
  O2-  O173  1  0.42207787  0.81714776  0.75600241  1
  O2-  O174  1  0.92951223  0.32401145  0.09193327  1
  O2-  O175  1  0.92938557  0.32890314  0.42085600  1
  O2-  O176  1  0.93077181  0.32334800  0.76683348  1
  O2-  O177  1  0.92979555  0.81786840  0.08961775  1
  O2-  O178  1  0.92935706  0.81854947  0.42959461  1
  O2-  O179  1  0.93072676  0.81670692  0.76780173  1
  O2-  O180  1  0.31840406  0.07165683  0.23516513  1
  O2-  O181  1  0.32104953  0.07334176  0.57930572  1
  O2-  O182  1  0.32075267  0.07128380  0.90913392  1
  O2-  O183  1  0.32043361  0.57301478  0.24336663  1
  O2-  O184  1  0.32018587  0.56962769  0.56785440  1
  O2-  O185  1  0.32140211  0.57284062  0.91373339  1
  O2-  O186  1  0.82413726  0.07168794  0.24334894  1
  O2-  O187  1  0.82090331  0.06754205  0.56814952  1
  O2-  O188  1  0.82440989  0.07072187  0.91365775  1
  O2-  O189  1  0.82229158  0.56832199  0.24354607  1
  O2-  O190  1  0.82166867  0.57354457  0.57565983  1
  O2-  O191  1  0.82463261  0.57675869  0.91347790  1
  O2-  O192  1  0.03873837  0.09043255  0.26808503  1
  O2-  O193  1  0.03853046  0.08129576  0.59509555  1
  O2-  O194  1  0.03624989  0.08318149  0.93281493  1
  O2-  O195  1  0.04079960  0.58510061  0.26532922  1
  O2-  O196  1  0.05171999  0.58476626  0.60268083  1
  O2-  O197  1  0.04009533  0.58637498  0.93597363  1
  O2-  O198  1  0.54246277  0.07532260  0.26654815  1
  O2-  O199  1  0.54394700  0.07671808  0.60093304  1
  O2-  O200  1  0.54658624  0.08590413  0.93612696  1
  O2-  O201  1  0.53952538  0.58906679  0.26669708  1
  O2-  O202  1  0.53392312  0.58906979  0.59778272  1
  O2-  O203  1  0.54664472  0.58642661  0.93947164  1
  O2-  O204  1  0.16117471  0.20810338  0.27002796  1
  O2-  O205  1  0.16790326  0.20564412  0.59290343  1
  O2-  O206  1  0.16534622  0.20862454  0.93120001  1
  O2-  O207  1  0.16887144  0.69567809  0.27042936  1
  O2-  O208  1  0.16887547  0.70384594  0.60622391  1
  O2-  O209  1  0.16401744  0.70044228  0.93884857  1
  O2-  O210  1  0.67005116  0.20441645  0.26196105  1
  O2-  O211  1  0.66942670  0.20477662  0.60094602  1
  O2-  O212  1  0.67139046  0.20035405  0.94304986  1
  O2-  O213  1  0.66436389  0.70149932  0.26895440  1
  O2-  O214  1  0.66677973  0.70615249  0.59727937  1
  O2-  O215  1  0.66773437  0.70406334  0.94025052  1
  O2-  O216  1  0.08492327  0.46079518  0.06847376  1
  O2-  O217  1  0.08665220  0.46058475  0.39589127  1
  O2-  O218  1  0.08424036  0.45688282  0.73006214  1
  O2-  O219  1  0.08179509  0.96168653  0.06775101  1
  O2-  O220  1  0.07753685  0.95896917  0.39677618  1
  O2-  O221  1  0.08338759  0.96164403  0.73356623  1
  O2-  O222  1  0.58413963  0.46375064  0.07282371  1
  O2-  O223  1  0.58769531  0.46185719  0.39233887  1
  O2-  O224  1  0.58797995  0.46821251  0.73306857  1
  O2-  O225  1  0.58049498  0.95888490  0.06594177  1
  O2-  O226  1  0.58149648  0.94934857  0.40068796  1
  O2-  O227  1  0.57470781  0.94750837  0.73113881  1
  O2-  O228  1  0.21119649  0.33138242  0.06537884  1
  O2-  O229  1  0.19952383  0.33613092  0.39525351  1
  O2-  O230  1  0.19716472  0.33102345  0.72377052  1
  O2-  O231  1  0.20411426  0.83007248  0.06718385  1
  O2-  O232  1  0.20197659  0.82732953  0.39876574  1
  O2-  O233  1  0.20954054  0.83492782  0.73534714  1
  O2-  O234  1  0.70875932  0.33329645  0.07341320  1
  O2-  O235  1  0.70622050  0.33661088  0.39113016  1
  O2-  O236  1  0.70817228  0.33357788  0.73370474  1
  O2-  O237  1  0.71111545  0.83376877  0.06880379  1
  O2-  O238  1  0.71376584  0.82995586  0.39660126  1
  O2-  O239  1  0.70979520  0.82811917  0.73390794  1
  O2-  O240  1  0.45859776  0.41892953  0.26075382  1
  O2-  O241  1  0.46277178  0.42088159  0.60074914  1
  O2-  O242  1  0.45868015  0.42152017  0.93717489  1
  O2-  O243  1  0.45091939  0.91173382  0.27553461  1
  O2-  O244  1  0.43936008  0.91871490  0.60832456  1
  O2-  O245  1  0.45499943  0.91890586  0.93200393  1
  O2-  O246  1  0.95622414  0.41697588  0.26820703  1
  O2-  O247  1  0.95508363  0.42149033  0.59837460  1
  O2-  O248  1  0.95079394  0.41896877  0.94212120  1
  O2-  O249  1  0.95666669  0.91834324  0.26097214  1
  O2-  O250  1  0.96116563  0.91478313  0.59933292  1
  O2-  O251  1  0.95568616  0.91192560  0.93847326  1
  O2-  O252  1  0.32745558  0.29529712  0.26716484  1
  O2-  O253  1  0.32982817  0.30374797  0.60025499  1
  O2-  O254  1  0.33589061  0.29043642  0.92957756  1
  O2-  O255  1  0.33716019  0.78532151  0.27259772  1
  O2-  O256  1  0.33440565  0.78601904  0.60325312  1
  O2-  O257  1  0.33132386  0.78882780  0.93372593  1
  O2-  O258  1  0.83702119  0.29760521  0.26827168  1
  O2-  O259  1  0.83023729  0.29457139  0.59938833  1
  O2-  O260  1  0.83241236  0.29831595  0.94330869  1
  O2-  O261  1  0.83655078  0.78311431  0.26042251  1
  O2-  O262  1  0.83585415  0.78617353  0.59784835  1
  O2-  O263  1  0.83826538  0.78841643  0.93827117  1
  O2-  O264  1  0.41549312  0.04829756  0.06085079  1
  O2-  O265  1  0.41798653  0.04302896  0.40346326  1
  O2-  O266  1  0.41519756  0.05201398  0.73194894  1
  O2-  O267  1  0.41714024  0.55215276  0.06502737  1
  O2-  O268  1  0.41463415  0.54200509  0.39423815  1
  O2-  O269  1  0.41720180  0.54138055  0.73785733  1
  O2-  O270  1  0.91378486  0.03981659  0.06673884  1
  O2-  O271  1  0.91400229  0.04513704  0.39509922  1
  O2-  O272  1  0.91686672  0.03785778  0.73549475  1
  O2-  O273  1  0.91582439  0.54805814  0.06748398  1
  O2-  O274  1  0.91426674  0.54444750  0.39614935  1
  O2-  O275  1  0.92029038  0.55379963  0.72571251  1
  O2-  O276  1  0.29240385  0.16443913  0.06065634  1
  O2-  O277  1  0.29142707  0.17070543  0.40229242  1
  O2-  O278  1  0.29559950  0.17088940  0.72739471  1
  O2-  O279  1  0.29148730  0.66393374  0.06666807  1
  O2-  O280  1  0.29295231  0.65908546  0.39950418  1
  O2-  O281  1  0.28860622  0.66315184  0.73955082  1
  O2-  O282  1  0.80404989  0.16614769  0.06607534  1
  O2-  O283  1  0.80019684  0.16936212  0.39275265  1
  O2-  O284  1  0.79665921  0.16953340  0.73612176  1
  O2-  O285  1  0.79478694  0.66490448  0.06823591  1
  O2-  O286  1  0.79324122  0.66169629  0.39444573  1
  O2-  O287  1  0.79331849  0.66337578  0.72965726  1
