# generated using pymatgen
data_Ca2Al2SiO7
_symmetry_space_group_name_H-M   'P 1'
_cell_length_a   15.46733043
_cell_length_b   15.46960878
_cell_length_c   15.29093745
_cell_angle_alpha   90.00169771
_cell_angle_beta   89.99849378
_cell_angle_gamma   90.02117162
_symmetry_Int_Tables_number   1
_chemical_formula_structural   Ca2Al2SiO7
_chemical_formula_sum   'Ca48 Al48 Si24 O168'
_cell_volume   3658.71664142
_cell_formula_units_Z   24
loop_
 _symmetry_equiv_pos_site_id
 _symmetry_equiv_pos_as_xyz
  1  'x, y, z'
loop_
 _atom_type_symbol
 _atom_type_oxidation_number
  Ca2+  2.0
  Al0+  0.0
  Si0+  0.0
  O2-  -2.0
loop_
 _atom_site_type_symbol
 _atom_site_label
 _atom_site_symmetry_multiplicity
 _atom_site_fract_x
 _atom_site_fract_y
 _atom_site_fract_z
 _atom_site_occupancy
  Ca2+  Ca0  1  0.17069602  0.07612593  0.17447287  1
  Ca2+  Ca1  1  0.16769196  0.07472032  0.50486711  1
  Ca2+  Ca2  1  0.17681934  0.07492773  0.83860026  1
  Ca2+  Ca3  1  0.16798066  0.58494589  0.17529580  1
  Ca2+  Ca4  1  0.17823455  0.59609213  0.49835309  1
  Ca2+  Ca5  1  0.17408950  0.58613346  0.83539117  1
  Ca2+  Ca6  1  0.67125154  0.07666529  0.16382950  1
  Ca2+  Ca7  1  0.67340514  0.07415905  0.50117428  1
  Ca2+  Ca8  1  0.67455930  0.08132658  0.84332205  1
  Ca2+  Ca9  1  0.67539479  0.58038490  0.16496190  1
  Ca2+  Ca10  1  0.66498391  0.57722934  0.50789661  1
  Ca2+  Ca11  1  0.66700674  0.57412601  0.83990790  1
  Ca2+  Ca12  1  0.07511410  0.32539978  0.16359339  1
  Ca2+  Ca13  1  0.07758539  0.32296357  0.48644126  1
  Ca2+  Ca14  1  0.07548934  0.33135299  0.83239282  1
  Ca2+  Ca15  1  0.07854272  0.83701010  0.16430316  1
  Ca2+  Ca16  1  0.08191010  0.83557490  0.48962900  1
  Ca2+  Ca17  1  0.07954373  0.84610840  0.83478561  1
  Ca2+  Ca18  1  0.58231115  0.32450581  0.15641892  1
  Ca2+  Ca19  1  0.58300819  0.33234287  0.49829381  1
  Ca2+  Ca20  1  0.59071612  0.32988327  0.83314603  1
  Ca2+  Ca21  1  0.57754691  0.84636561  0.16316769  1
  Ca2+  Ca22  1  0.57750192  0.82961423  0.49130017  1
  Ca2+  Ca23  1  0.58612668  0.82857043  0.82928591  1
  Ca2+  Ca24  1  0.33301501  0.42496924  0.17267792  1
  Ca2+  Ca25  1  0.33221208  0.42901668  0.50291510  1
  Ca2+  Ca26  1  0.33591500  0.42381494  0.83308326  1
  Ca2+  Ca27  1  0.32448592  0.92375951  0.17445307  1
  Ca2+  Ca28  1  0.32332486  0.92114920  0.49991491  1
  Ca2+  Ca29  1  0.32309924  0.92169752  0.84003779  1
  Ca2+  Ca30  1  0.83578832  0.41316336  0.16593668  1
  Ca2+  Ca31  1  0.82978247  0.41515407  0.50465193  1
  Ca2+  Ca32  1  0.82324175  0.42042204  0.84583966  1
  Ca2+  Ca33  1  0.82405469  0.90611475  0.16898202  1
  Ca2+  Ca34  1  0.83324566  0.91734074  0.50204918  1
  Ca2+  Ca35  1  0.83004576  0.92715355  0.84493882  1
  Ca2+  Ca36  1  0.42138685  0.15547606  0.15927575  1
  Ca2+  Ca37  1  0.41273014  0.16135135  0.49441573  1
  Ca2+  Ca38  1  0.42094747  0.15824412  0.83245949  1
  Ca2+  Ca39  1  0.41369873  0.67467378  0.16780112  1
  Ca2+  Ca40  1  0.41761289  0.66931324  0.49376231  1
  Ca2+  Ca41  1  0.42405737  0.66758787  0.82304249  1
  Ca2+  Ca42  1  0.91580525  0.17251398  0.16218632  1
  Ca2+  Ca43  1  0.92111826  0.16936378  0.49175206  1
  Ca2+  Ca44  1  0.90558385  0.16834519  0.83207203  1
  Ca2+  Ca45  1  0.91886075  0.67599817  0.16234979  1
  Ca2+  Ca46  1  0.92695283  0.67526540  0.48770039  1
  Ca2+  Ca47  1  0.91144201  0.67291460  0.83582687  1
  Al0+  Al48  1  0.00163947  0.00147170  0.00146547  1
  Al0+  Al49  1  -0.00176925  0.00116515  0.32783602  1
  Al0+  Al50  1  -0.00095642  0.00224969  0.67297330  1
  Al0+  Al51  1  0.00130892  0.50029777  -0.00296334  1
  Al0+  Al52  1  -0.00109930  0.49993973  0.32800071  1
  Al0+  Al53  1  -0.00030039  0.50129565  0.66461005  1
  Al0+  Al54  1  0.50016746  0.00018199  -0.00292689  1
  Al0+  Al55  1  0.50203011  -0.00143893  0.33834774  1
  Al0+  Al56  1  0.50046101  -0.00072384  0.66553861  1
  Al0+  Al57  1  0.50042863  0.49946639  0.00358153  1
  Al0+  Al58  1  0.50077561  0.49864626  0.33578037  1
  Al0+  Al59  1  0.50013910  0.49877734  0.66957273  1
  Al0+  Al60  1  0.25134686  0.25369831  0.00046902  1
  Al0+  Al61  1  0.25096291  0.25308040  0.33154503  1
  Al0+  Al62  1  0.24965775  0.25043561  0.66897376  1
  Al0+  Al63  1  0.25077778  0.75063012  0.00118882  1
  Al0+  Al64  1  0.25325248  0.75137732  0.33303060  1
  Al0+  Al65  1  0.24939845  0.75003491  0.67578906  1
  Al0+  Al66  1  0.74741974  0.24932319  -0.00093641  1
  Al0+  Al67  1  0.74720292  0.24939897  0.33151976  1
  Al0+  Al68  1  0.74767015  0.25042252  0.67014253  1
  Al0+  Al69  1  0.75052082  0.74791949  0.00190092  1
  Al0+  Al70  1  0.74939644  0.74533613  0.33657610  1
  Al0+  Al71  1  0.75067561  0.74818322  0.65953780  1
  Al0+  Al72  1  0.07328600  0.17801031  0.31809866  1
  Al0+  Al73  1  0.32111443  0.07206839  0.01460954  1
  Al0+  Al74  1  0.56808881  0.17894371  0.98525360  1
  Al0+  Al75  1  0.82322581  0.57059249  0.01568642  1
  Al0+  Al76  1  0.92639428  0.82163124  0.31860942  1
  Al0+  Al77  1  0.57052812  0.67781368  0.65285185  1
  Al0+  Al78  1  0.68017841  0.92632068  0.34820353  1
  Al0+  Al79  1  0.31960426  0.56986561  0.68066465  1
  Al0+  Al80  1  0.68022774  0.92711423  0.01270713  1
  Al0+  Al81  1  0.81865660  0.06960533  0.67849689  1
  Al0+  Al82  1  0.17646668  0.93058977  0.34788222  1
  Al0+  Al83  1  0.68002082  0.43052657  0.68030378  1
  Al0+  Al84  1  0.92601285  0.32032251  0.31861882  1
  Al0+  Al85  1  0.92887353  0.82123691  0.98506589  1
  Al0+  Al86  1  0.43251606  0.82090745  0.32004097  1
  Al0+  Al87  1  0.32183689  0.07332614  0.34806400  1
  Al0+  Al88  1  0.67865925  0.42858053  0.01746223  1
  Al0+  Al89  1  0.17885481  0.92827397  0.01806626  1
  Al0+  Al90  1  0.32112424  0.57108022  0.34610870  1
  Al0+  Al91  1  0.07339279  0.68077712  0.31922390  1
  Al0+  Al92  1  0.92976140  0.31937066  0.98400692  1
  Al0+  Al93  1  0.17820323  0.92872355  0.68285179  1
  Al0+  Al94  1  0.32301682  0.07326529  0.68233631  1
  Al0+  Al95  1  0.82195005  0.07263252  0.01603555  1
  Si0+  Si96  1  0.07411962  0.67854781  0.98100282  1
  Si0+  Si97  1  0.07033577  0.18060363  0.65340183  1
  Si0+  Si98  1  0.42741976  0.32569186  0.98164498  1
  Si0+  Si99  1  0.67983841  0.42797749  0.34931545  1
  Si0+  Si100  1  0.42823276  0.32044868  0.65104218  1
  Si0+  Si101  1  0.56996738  0.67708303  0.98601399  1
  Si0+  Si102  1  0.81953936  0.07377778  0.34873765  1
  Si0+  Si103  1  0.82450551  0.57271224  0.68200623  1
  Si0+  Si104  1  0.42687157  0.82141035  0.65009224  1
  Si0+  Si105  1  0.07528083  0.17898250  0.98090280  1
  Si0+  Si106  1  0.17630604  0.42965873  0.34905822  1
  Si0+  Si107  1  0.92720699  0.32132410  0.65270056  1
  Si0+  Si108  1  0.32169586  0.57111602  0.01516794  1
  Si0+  Si109  1  0.17867517  0.43042139  0.01468632  1
  Si0+  Si110  1  0.42932329  0.82002437  0.98375015  1
  Si0+  Si111  1  0.57178847  0.67401433  0.31526052  1
  Si0+  Si112  1  0.56861311  0.17883310  0.31957209  1
  Si0+  Si113  1  0.82236036  0.56934499  0.35038719  1
  Si0+  Si114  1  0.17595058  0.42703533  0.68273991  1
  Si0+  Si115  1  0.67873548  0.92471615  0.68100467  1
  Si0+  Si116  1  0.42980900  0.32315597  0.31956280  1
  Si0+  Si117  1  0.57159682  0.17865665  0.64962433  1
  Si0+  Si118  1  0.93092878  0.82251444  0.65290622  1
  Si0+  Si119  1  0.07207086  0.67790272  0.65250932  1
  O2-  O120  1  0.24762068  0.00381104  0.06590691  1
  O2-  O121  1  0.24550079  0.00593897  0.39778659  1
  O2-  O122  1  0.25369261  -0.00151864  0.73050263  1
  O2-  O123  1  0.24922045  0.50196874  0.05663113  1
  O2-  O124  1  0.24279558  0.50027638  0.39380091  1
  O2-  O125  1  0.24338316  0.49680708  0.72775736  1
  O2-  O126  1  0.75593593  -0.00568696  0.06427941  1
  O2-  O127  1  0.75846946  -0.00180620  0.39354235  1
  O2-  O128  1  0.74540269  -0.00596342  0.72536954  1
  O2-  O129  1  0.75425394  0.49630419  0.06728096  1
  O2-  O130  1  0.75206022  0.49707372  0.39227517  1
  O2-  O131  1  0.75489164  0.50521589  0.72562699  1
  O2-  O132  1  -0.00135777  0.24877207  0.26984576  1
  O2-  O133  1  0.00001838  0.25265238  0.61063988  1
  O2-  O134  1  0.00143405  0.24243922  0.93522837  1
  O2-  O135  1  0.00290857  0.75372943  0.26931668  1
  O2-  O136  1  0.00220758  0.75080152  0.61193825  1
  O2-  O137  1  0.00601112  0.74815925  0.93697460  1
  O2-  O138  1  0.49302823  0.24556121  0.27834955  1
  O2-  O139  1  0.49560758  0.24562876  0.60811570  1
  O2-  O140  1  0.49282156  0.25392155  0.93817186  1
  O2-  O141  1  0.50828259  0.74715314  0.27123897  1
  O2-  O142  1  0.49738587  0.75385935  0.60611607  1
  O2-  O143  1  0.50081295  0.74902439  0.94217140  1
  O2-  O144  1  0.07904575  0.18509387  0.08584450  1
  O2-  O145  1  0.07151998  0.18095099  0.43295890  1
  O2-  O146  1  0.07048863  0.18305578  0.75813080  1
  O2-  O147  1  0.07652620  0.67716720  0.08605663  1
  O2-  O148  1  0.07071161  0.68067547  0.43372459  1
  O2-  O149  1  0.07039430  0.67236790  0.75714018  1
  O2-  O150  1  0.56584042  0.17963766  0.09878702  1
  O2-  O151  1  0.57158099  0.18243941  0.42515820  1
  O2-  O152  1  0.57355323  0.18066824  0.75420020  1
  O2-  O153  1  0.56604619  0.67357904  0.09073125  1
  O2-  O154  1  0.56894698  0.67117586  0.42115897  1
  O2-  O155  1  0.56980515  0.67864741  0.76629319  1
  O2-  O156  1  0.17956350  0.42984922  0.24340154  1
  O2-  O157  1  0.17657701  0.42533410  0.57753824  1
  O2-  O158  1  0.17953831  0.43163249  0.90915498  1
  O2-  O159  1  0.17991651  0.92922521  0.23513162  1
  O2-  O160  1  0.17541951  0.92896790  0.56952299  1
  O2-  O161  1  0.18303407  0.92739087  0.90424637  1
  O2-  O162  1  0.67753730  0.42823155  0.24502603  1
  O2-  O163  1  0.68166514  0.42926429  0.56650520  1
  O2-  O164  1  0.67736736  0.43256919  0.90368149  1
  O2-  O165  1  0.67799423  0.93001425  0.23579338  1
  O2-  O166  1  0.68049564  0.92543737  0.57529586  1
  O2-  O167  1  0.67961607  0.92699942  0.89855549  1
  O2-  O168  1  0.42869075  0.33077522  0.08714379  1
  O2-  O169  1  0.43389059  0.32771994  0.42480437  1
  O2-  O170  1  0.42903464  0.32302153  0.75579746  1
  O2-  O171  1  0.42894066  0.81847428  0.08869607  1
  O2-  O172  1  0.43339733  0.81808313  0.43335963  1
  O2-  O173  1  0.42846248  0.81943794  0.75603015  1
  O2-  O174  1  0.93365411  0.31976557  0.09658241  1
  O2-  O175  1  0.92535873  0.31864814  0.43341296  1
  O2-  O176  1  0.92782295  0.32170228  0.75745808  1
  O2-  O177  1  0.92666539  0.81615646  0.09727463  1
  O2-  O178  1  0.92576998  0.81816934  0.43326083  1
  O2-  O179  1  0.92894656  0.82125909  0.75775134  1
  O2-  O180  1  0.32393766  0.07030727  0.23510611  1
  O2-  O181  1  0.31915701  0.07507246  0.56917590  1
  O2-  O182  1  0.32091674  0.06885271  0.90093841  1
  O2-  O183  1  0.32384990  0.56631562  0.23296600  1
  O2-  O184  1  0.31914825  0.56903742  0.56785557  1
  O2-  O185  1  0.32248496  0.56974054  0.90981739  1
  O2-  O186  1  0.81323277  0.08071061  0.24438270  1
  O2-  O187  1  0.81901953  0.06919347  0.56509876  1
  O2-  O188  1  0.81612343  0.07173859  0.90191208  1
  O2-  O189  1  0.82083148  0.57045392  0.24589975  1
  O2-  O190  1  0.82633206  0.57007205  0.57632873  1
  O2-  O191  1  0.81915488  0.57071111  0.90142681  1
  O2-  O192  1  0.04721962  0.08079644  0.26400693  1
  O2-  O193  1  0.03963182  0.08926315  0.60687349  1
  O2-  O194  1  0.05629124  0.08313577  0.93783380  1
  O2-  O195  1  0.04481277  0.58226303  0.26652230  1
  O2-  O196  1  0.04488862  0.58675899  0.60210851  1
  O2-  O197  1  0.04894727  0.58530650  0.93333789  1
  O2-  O198  1  0.54494574  0.08603522  0.27398225  1
  O2-  O199  1  0.54962012  0.08469739  0.60271807  1
  O2-  O200  1  0.53801361  0.08325099  0.92775154  1
  O2-  O201  1  0.54099977  0.58223095  0.26843589  1
  O2-  O202  1  0.53790979  0.58095835  0.59975421  1
  O2-  O203  1  0.53854274  0.58629286  0.93742631  1
  O2-  O204  1  0.17060608  0.21085524  0.26483563  1
  O2-  O205  1  0.16222664  0.20818102  0.60578975  1
  O2-  O206  1  0.16658310  0.21294065  0.93311731  1
  O2-  O207  1  0.17344141  0.70255495  0.26800285  1
  O2-  O208  1  0.16566834  0.70494962  0.60855391  1
  O2-  O209  1  0.16882932  0.70360386  0.93505419  1
  O2-  O210  1  0.65730971  0.21217585  0.27053805  1
  O2-  O211  1  0.66099152  0.21321452  0.60070783  1
  O2-  O212  1  0.66335728  0.21150224  0.92963876  1
  O2-  O213  1  0.66782410  0.69340995  0.27371546  1
  O2-  O214  1  0.66788029  0.70370273  0.59622146  1
  O2-  O215  1  0.66216456  0.70227524  0.93879901  1
  O2-  O216  1  0.08780318  0.45809340  0.06217685  1
  O2-  O217  1  0.08126354  0.45119378  0.39380420  1
  O2-  O218  1  0.08187030  0.45312888  0.72817528  1
  O2-  O219  1  0.07889130  0.95184428  0.06717163  1
  O2-  O220  1  0.07540131  0.95511965  0.39854930  1
  O2-  O221  1  0.08206722  0.96205670  0.73721226  1
  O2-  O222  1  0.58104585  0.45966554  0.07085546  1
  O2-  O223  1  0.58920858  0.45804026  0.39851758  1
  O2-  O224  1  0.58402293  0.45957246  0.73490804  1
  O2-  O225  1  0.58282643  0.96053951  0.06370796  1
  O2-  O226  1  0.58718638  0.96210922  0.40608158  1
  O2-  O227  1  0.58374132  0.94736483  0.72445434  1
  O2-  O228  1  0.20735709  0.34012160  0.06349315  1
  O2-  O229  1  0.20546436  0.33788445  0.39686053  1
  O2-  O230  1  0.20306367  0.33552104  0.73162700  1
  O2-  O231  1  0.21040182  0.82971814  0.06860222  1
  O2-  O232  1  0.21019220  0.83306246  0.40023419  1
  O2-  O233  1  0.20242978  0.83054591  0.73820294  1
  O2-  O234  1  0.70315824  0.32932332  0.06752049  1
  O2-  O235  1  0.70579945  0.33583289  0.39781870  1
  O2-  O236  1  0.71035783  0.33489312  0.73491119  1
  O2-  O237  1  0.70210727  0.82786328  0.06602690  1
  O2-  O238  1  0.70514531  0.82744907  0.40161979  1
  O2-  O239  1  0.70438065  0.83019132  0.72484279  1
  O2-  O240  1  0.46505220  0.41136291  0.26924422  1
  O2-  O241  1  0.46096062  0.41044169  0.60257914  1
  O2-  O242  1  0.45763693  0.41800457  0.93386130  1
  O2-  O243  1  0.46543320  0.91720902  0.26687559  1
  O2-  O244  1  0.45089094  0.91550528  0.60401848  1
  O2-  O245  1  0.45734156  0.91045739  0.93481611  1
  O2-  O246  1  0.95240190  0.41858251  0.26588743  1
  O2-  O247  1  0.95229862  0.41443758  0.60546462  1
  O2-  O248  1  0.96348331  0.41585042  0.92939181  1
  O2-  O249  1  0.94443680  0.92195936  0.26748146  1
  O2-  O250  1  0.95853073  0.91494083  0.60667559  1
  O2-  O251  1  0.95770254  0.91977257  0.93216771  1
  O2-  O252  1  0.33575138  0.30664065  0.27287605  1
  O2-  O253  1  0.33450437  0.29784344  0.60425209  1
  O2-  O254  1  0.33226584  0.30598764  0.93592261  1
  O2-  O255  1  0.33799094  0.78791023  0.26445457  1
  O2-  O256  1  0.33281834  0.79207600  0.60745254  1
  O2-  O257  1  0.33842600  0.78918131  0.93567134  1
  O2-  O258  1  0.82740726  0.29198604  0.26616939  1
  O2-  O259  1  0.83569981  0.29146767  0.60566471  1
  O2-  O260  1  0.83146507  0.29152397  0.93183408  1
  O2-  O261  1  0.82918884  0.78498946  0.26787809  1
  O2-  O262  1  0.83958806  0.79539200  0.60343985  1
  O2-  O263  1  0.83245741  0.78675442  0.93053385  1
  O2-  O264  1  0.41885254  0.03979165  0.06476842  1
  O2-  O265  1  0.41877877  0.04126451  0.40240902  1
  O2-  O266  1  0.42413040  0.04796182  0.73112400  1
  O2-  O267  1  0.41168513  0.54148831  0.06374305  1
  O2-  O268  1  0.41597372  0.53465232  0.40135534  1
  O2-  O269  1  0.41436185  0.53557640  0.73561345  1
  O2-  O270  1  0.92421757  0.05633131  0.06260427  1
  O2-  O271  1  0.91591378  0.05548500  0.39087206  1
  O2-  O272  1  0.91415565  0.04303241  0.73523483  1
  O2-  O273  1  0.92349252  0.54542841  0.06505886  1
  O2-  O274  1  0.91468050  0.54216685  0.39755553  1
  O2-  O275  1  0.91779162  0.54793804  0.72887985  1
  O2-  O276  1  0.30152919  0.17496025  0.06225561  1
  O2-  O277  1  0.30189101  0.17624995  0.39631029  1
  O2-  O278  1  0.29455177  0.17182791  0.73521641  1
  O2-  O279  1  0.29557471  0.66305396  0.06171526  1
  O2-  O280  1  0.29420424  0.66738519  0.40162112  1
  O2-  O281  1  0.29107574  0.66455546  0.73872059  1
  O2-  O282  1  0.78619034  0.16800013  0.06842757  1
  O2-  O283  1  0.78530051  0.16392698  0.39897452  1
  O2-  O284  1  0.78579939  0.16508495  0.73253722  1
  O2-  O285  1  0.78953452  0.66580663  0.07034292  1
  O2-  O286  1  0.79326863  0.65888081  0.40152857  1
  O2-  O287  1  0.79883751  0.66743325  0.72518661  1
