# generated using pymatgen
data_Ca2Al2SiO7
_symmetry_space_group_name_H-M   'P 1'
_cell_length_a   15.46256534
_cell_length_b   15.46395782
_cell_length_c   15.28788891
_cell_angle_alpha   90.00214497
_cell_angle_beta   90.01496315
_cell_angle_gamma   89.99207704
_symmetry_Int_Tables_number   1
_chemical_formula_structural   Ca2Al2SiO7
_chemical_formula_sum   'Ca48 Al48 Si24 O168'
_cell_volume   3655.52453508
_cell_formula_units_Z   24
loop_
 _symmetry_equiv_pos_site_id
 _symmetry_equiv_pos_as_xyz
  1  'x, y, z'
loop_
 _atom_type_symbol
 _atom_type_oxidation_number
  Ca2+  2.0
  Al0+  0.0
  Si0+  0.0
  O2-  -2.0
loop_
 _atom_site_type_symbol
 _atom_site_label
 _atom_site_symmetry_multiplicity
 _atom_site_fract_x
 _atom_site_fract_y
 _atom_site_fract_z
 _atom_site_occupancy
  Ca2+  Ca0  1  0.16969036  0.08778605  0.16511701  1
  Ca2+  Ca1  1  0.16799897  0.07731800  0.50319918  1
  Ca2+  Ca2  1  0.17184928  0.08390220  0.84364511  1
  Ca2+  Ca3  1  0.15800709  0.57486543  0.16786734  1
  Ca2+  Ca4  1  0.16829143  0.57792777  0.51191666  1
  Ca2+  Ca5  1  0.16142680  0.57854941  0.83432556  1
  Ca2+  Ca6  1  0.66756722  0.06641785  0.17222485  1
  Ca2+  Ca7  1  0.66405759  0.07733278  0.50390454  1
  Ca2+  Ca8  1  0.66588901  0.07696652  0.83800422  1
  Ca2+  Ca9  1  0.67028512  0.58610603  0.17165993  1
  Ca2+  Ca10  1  0.66747582  0.57629176  0.50879320  1
  Ca2+  Ca11  1  0.67635780  0.59373544  0.83647107  1
  Ca2+  Ca12  1  0.08216329  0.33624750  0.16066459  1
  Ca2+  Ca13  1  0.07264268  0.34628446  0.49890207  1
  Ca2+  Ca14  1  0.08286006  0.33712699  0.82981665  1
  Ca2+  Ca15  1  0.06858377  0.82778249  0.15686646  1
  Ca2+  Ca16  1  0.07839102  0.82281255  0.49547799  1
  Ca2+  Ca17  1  0.07946313  0.82076276  0.82842740  1
  Ca2+  Ca18  1  0.58301922  0.33600964  0.16532908  1
  Ca2+  Ca19  1  0.59551746  0.33016689  0.49651092  1
  Ca2+  Ca20  1  0.58811301  0.32508334  0.82253969  1
  Ca2+  Ca21  1  0.58998129  0.82434889  0.16397500  1
  Ca2+  Ca22  1  0.57655424  0.81942762  0.49410774  1
  Ca2+  Ca23  1  0.58154603  0.82377023  0.83037905  1
  Ca2+  Ca24  1  0.32025849  0.41899924  0.17114370  1
  Ca2+  Ca25  1  0.32078652  0.42544487  0.50781786  1
  Ca2+  Ca26  1  0.32521342  0.42523807  0.83510320  1
  Ca2+  Ca27  1  0.33851096  0.92225178  0.17061006  1
  Ca2+  Ca28  1  0.34126278  0.91107256  0.50390280  1
  Ca2+  Ca29  1  0.33736673  0.92060184  0.83667244  1
  Ca2+  Ca30  1  0.83222654  0.42530889  0.17265435  1
  Ca2+  Ca31  1  0.82933252  0.41945353  0.50872520  1
  Ca2+  Ca32  1  0.83216414  0.42676888  0.83046127  1
  Ca2+  Ca33  1  0.82588666  0.90625504  0.17042665  1
  Ca2+  Ca34  1  0.82792654  0.91042548  0.49898481  1
  Ca2+  Ca35  1  0.82617232  0.91165583  0.84321805  1
  Ca2+  Ca36  1  0.41455894  0.16803500  0.16051186  1
  Ca2+  Ca37  1  0.42366317  0.17017061  0.50100973  1
  Ca2+  Ca38  1  0.41967368  0.16759527  0.82902353  1
  Ca2+  Ca39  1  0.43067111  0.66722725  0.16454401  1
  Ca2+  Ca40  1  0.42401232  0.66603261  0.49626802  1
  Ca2+  Ca41  1  0.42653393  0.66791893  0.82213003  1
  Ca2+  Ca42  1  0.92190105  0.17684080  0.16195192  1
  Ca2+  Ca43  1  0.91431800  0.18278995  0.49531855  1
  Ca2+  Ca44  1  0.92319509  0.17435038  0.82709768  1
  Ca2+  Ca45  1  0.91480997  0.67386844  0.15834455  1
  Ca2+  Ca46  1  0.92053191  0.66088062  0.50046836  1
  Ca2+  Ca47  1  0.92126379  0.65960665  0.83503917  1
  Al0+  Al48  1  -0.00065244  0.00323978  -0.00695347  1
  Al0+  Al49  1  0.00241791  0.00113786  0.33061366  1
  Al0+  Al50  1  0.00045870  0.00055461  0.66661172  1
  Al0+  Al51  1  -0.00287264  0.50099602  0.00576201  1
  Al0+  Al52  1  -0.00118093  0.49833196  0.33227561  1
  Al0+  Al53  1  -0.00251685  0.50007769  0.66643113  1
  Al0+  Al54  1  0.50063080  0.00082038  0.00902728  1
  Al0+  Al55  1  0.50129726  0.00064409  0.33644572  1
  Al0+  Al56  1  0.50056659  0.00169781  0.66008456  1
  Al0+  Al57  1  0.49829743  0.49938624  -0.00490525  1
  Al0+  Al58  1  0.49988078  0.49769553  0.33263983  1
  Al0+  Al59  1  0.49732335  0.49640016  0.67006029  1
  Al0+  Al60  1  0.24969634  0.25041706  0.00404669  1
  Al0+  Al61  1  0.25135666  0.24983219  0.34068041  1
  Al0+  Al62  1  0.25047346  0.24716740  0.66813456  1
  Al0+  Al63  1  0.25036410  0.75059559  -0.00107454  1
  Al0+  Al64  1  0.25221403  0.75127824  0.32773593  1
  Al0+  Al65  1  0.24788263  0.75129378  0.66402835  1
  Al0+  Al66  1  0.74924861  0.24953971  -0.00038168  1
  Al0+  Al67  1  0.75252155  0.24933546  0.32786878  1
  Al0+  Al68  1  0.75195848  0.24793309  0.66278027  1
  Al0+  Al69  1  0.74879327  0.74948087  0.00082165  1
  Al0+  Al70  1  0.75119815  0.75000659  0.33419825  1
  Al0+  Al71  1  0.74802106  0.75092327  0.66739843  1
  Al0+  Al72  1  0.92955896  0.32117734  0.31719708  1
  Al0+  Al73  1  0.42889075  0.82298528  0.31554670  1
  Al0+  Al74  1  0.18067659  0.43240489  0.01387518  1
  Al0+  Al75  1  0.68183655  0.93066873  0.01336559  1
  Al0+  Al76  1  0.67996624  0.92811484  0.35055952  1
  Al0+  Al77  1  0.93206140  0.31933449  0.65421687  1
  Al0+  Al78  1  0.57192717  0.67549592  0.65166118  1
  Al0+  Al79  1  0.07170578  0.18209668  0.98656290  1
  Al0+  Al80  1  0.81752792  0.56872553  0.01546817  1
  Al0+  Al81  1  0.17826404  0.42974955  0.34863762  1
  Al0+  Al82  1  0.67812064  0.42545009  0.68080016  1
  Al0+  Al83  1  0.32084395  0.57446447  0.68146033  1
  Al0+  Al84  1  0.06803720  0.67975803  0.65311022  1
  Al0+  Al85  1  0.57082909  0.67663199  0.31830448  1
  Al0+  Al86  1  0.56946724  0.67835266  0.98530336  1
  Al0+  Al87  1  0.92726973  0.82104732  0.98434157  1
  Al0+  Al88  1  0.93087685  0.82163140  0.32100189  1
  Al0+  Al89  1  0.17768102  0.42889589  0.68229722  1
  Al0+  Al90  1  0.07178030  0.67731626  0.98539075  1
  Al0+  Al91  1  0.57095068  0.18117164  0.65297529  1
  Al0+  Al92  1  0.31926268  0.06917450  0.01366141  1
  Al0+  Al93  1  0.67911004  0.42827574  0.34520085  1
  Al0+  Al94  1  0.42911468  0.82096458  0.65382550  1
  Al0+  Al95  1  0.81827367  0.57291895  0.68234640  1
  Si0+  Si96  1  0.17927997  0.92902564  0.34707907  1
  Si0+  Si97  1  0.67892758  0.93175058  0.68107604  1
  Si0+  Si98  1  0.92701261  0.82592948  0.65007538  1
  Si0+  Si99  1  0.32187913  0.57235757  0.34796163  1
  Si0+  Si100  1  0.32553299  0.57461217  0.01772173  1
  Si0+  Si101  1  0.82126315  0.57206407  0.35051325  1
  Si0+  Si102  1  0.07467808  0.17552673  0.64861063  1
  Si0+  Si103  1  0.82440860  0.07551825  0.01662142  1
  Si0+  Si104  1  0.07266272  0.67725369  0.31722948  1
  Si0+  Si105  1  0.67500424  0.42455657  0.01567227  1
  Si0+  Si106  1  0.07478724  0.17853927  0.31726909  1
  Si0+  Si107  1  0.32153780  0.06864596  0.68101364  1
  Si0+  Si108  1  0.32205744  0.07128413  0.35174035  1
  Si0+  Si109  1  0.42917600  0.82493631  0.98538532  1
  Si0+  Si110  1  0.42781117  0.31862302  0.31864804  1
  Si0+  Si111  1  0.82367869  0.07164094  0.34931187  1
  Si0+  Si112  1  0.17660604  0.92908678  0.68171015  1
  Si0+  Si113  1  0.57000229  0.17832244  0.98739739  1
  Si0+  Si114  1  0.92619805  0.32283551  0.98225790  1
  Si0+  Si115  1  0.82252198  0.07096524  0.68086285  1
  Si0+  Si116  1  0.57191312  0.17908017  0.31638080  1
  Si0+  Si117  1  0.42801382  0.31960419  0.98574723  1
  Si0+  Si118  1  0.17537499  0.92715928  0.01614825  1
  Si0+  Si119  1  0.42467976  0.32093089  0.64973700  1
  O2-  O120  1  0.24574440  -0.00597976  0.06176378  1
  O2-  O121  1  0.25349510  -0.00338889  0.39134666  1
  O2-  O122  1  0.24955122  -0.00093943  0.72297690  1
  O2-  O123  1  0.25181785  0.51058077  0.06158873  1
  O2-  O124  1  0.24838186  0.50936045  0.39283579  1
  O2-  O125  1  0.24900631  0.50181032  0.73158982  1
  O2-  O126  1  0.75961913  0.00314979  0.06018843  1
  O2-  O127  1  0.75684449  0.00227149  0.39574494  1
  O2-  O128  1  0.75459794  -0.00232409  0.72387857  1
  O2-  O129  1  0.74205638  0.49374921  0.06053091  1
  O2-  O130  1  0.75105901  0.50422195  0.39273415  1
  O2-  O131  1  0.74144528  0.50441912  0.73174751  1
  O2-  O132  1  0.00800039  0.24881508  0.27326153  1
  O2-  O133  1  0.00931376  0.24719162  0.60550003  1
  O2-  O134  1  -0.00458134  0.25401919  0.93901108  1
  O2-  O135  1  0.00477958  0.74679429  0.27404746  1
  O2-  O136  1  -0.00760158  0.75401985  0.60663905  1
  O2-  O137  1  0.00285591  0.75262366  0.93546281  1
  O2-  O138  1  0.50080883  0.25013027  0.27434650  1
  O2-  O139  1  0.50113414  0.26021168  0.60544774  1
  O2-  O140  1  0.50390144  0.25301147  0.94432934  1
  O2-  O141  1  0.50170481  0.75158226  0.26707314  1
  O2-  O142  1  0.49575712  0.74446304  0.60358272  1
  O2-  O143  1  0.49100951  0.75086517  0.94107721  1
  O2-  O144  1  0.07230055  0.18482448  0.09992036  1
  O2-  O145  1  0.07403820  0.17494822  0.42272146  1
  O2-  O146  1  0.07385721  0.17218836  0.75399635  1
  O2-  O147  1  0.06873457  0.67819184  0.09936689  1
  O2-  O148  1  0.07255339  0.67827096  0.42304426  1
  O2-  O149  1  0.06816916  0.68135006  0.76569445  1
  O2-  O150  1  0.56848718  0.17836105  0.09255816  1
  O2-  O151  1  0.57108836  0.17935832  0.42147840  1
  O2-  O152  1  0.56749778  0.17698959  0.76657974  1
  O2-  O153  1  0.57001969  0.67812798  0.09831389  1
  O2-  O154  1  0.56849021  0.67444546  0.43146324  1
  O2-  O155  1  0.57399994  0.68311080  0.76525858  1
  O2-  O156  1  0.18116449  0.42754701  0.23530599  1
  O2-  O157  1  0.17922592  0.43028888  0.56845274  1
  O2-  O158  1  0.18329393  0.43002100  0.90136690  1
  O2-  O159  1  0.17781590  0.93306450  0.24239162  1
  O2-  O160  1  0.17323137  0.93215046  0.57638559  1
  O2-  O161  1  0.17723056  0.92954293  0.91041275  1
  O2-  O162  1  0.68023023  0.42823011  0.23181973  1
  O2-  O163  1  0.68516502  0.42315538  0.56721167  1
  O2-  O164  1  0.67654610  0.41929096  0.91077330  1
  O2-  O165  1  0.68048083  0.93021332  0.23739979  1
  O2-  O166  1  0.67977028  0.93391887  0.57609735  1
  O2-  O167  1  0.67926235  0.93511898  0.89986338  1
  O2-  O168  1  0.42816860  0.31779126  0.09140506  1
  O2-  O169  1  0.42584373  0.31501970  0.42325866  1
  O2-  O170  1  0.42024390  0.31351680  0.75530367  1
  O2-  O171  1  0.43268159  0.82728470  0.09066398  1
  O2-  O172  1  0.42928045  0.82126616  0.42881453  1
  O2-  O173  1  0.43374923  0.82706504  0.76751457  1
  O2-  O174  1  0.92566426  0.32033490  0.08809783  1
  O2-  O175  1  0.92868591  0.31957978  0.43014188  1
  O2-  O176  1  0.93197049  0.31533284  0.76722745  1
  O2-  O177  1  0.92792379  0.81914738  0.09817811  1
  O2-  O178  1  0.93398997  0.82277813  0.43420951  1
  O2-  O179  1  0.93056643  0.83232325  0.75498552  1
  O2-  O180  1  0.32104845  0.07499583  0.24673355  1
  O2-  O181  1  0.32088942  0.06898479  0.57580018  1
  O2-  O182  1  0.32123763  0.06842946  0.90038036  1
  O2-  O183  1  0.32299741  0.56821411  0.24223658  1
  O2-  O184  1  0.31771123  0.57331247  0.56727861  1
  O2-  O185  1  0.32963376  0.57101159  0.91282437  1
  O2-  O186  1  0.82126560  0.07241864  0.24374997  1
  O2-  O187  1  0.82244491  0.07080967  0.57577887  1
  O2-  O188  1  0.82000795  0.07954452  0.91092344  1
  O2-  O189  1  0.82205284  0.57113402  0.24474444  1
  O2-  O190  1  0.82069953  0.57075918  0.56860174  1
  O2-  O191  1  0.81835261  0.56749280  0.90286835  1
  O2-  O192  1  0.04895597  0.08623930  0.26865100  1
  O2-  O193  1  0.04563555  0.08312473  0.60104713  1
  O2-  O194  1  0.04574371  0.08549881  0.92992719  1
  O2-  O195  1  0.04510809  0.58411961  0.27193213  1
  O2-  O196  1  0.03733471  0.58395663  0.59813202  1
  O2-  O197  1  0.03767729  0.57973131  0.93446697  1
  O2-  O198  1  0.54129598  0.08787586  0.27021280  1
  O2-  O199  1  0.53424351  0.08864199  0.59459535  1
  O2-  O200  1  0.53743991  0.08796468  0.94026797  1
  O2-  O201  1  0.54040130  0.57849317  0.26420222  1
  O2-  O202  1  0.54751359  0.57388134  0.60370016  1
  O2-  O203  1  0.54334809  0.58055328  0.93140182  1
  O2-  O204  1  0.16993617  0.20362631  0.27409132  1
  O2-  O205  1  0.16998683  0.19563366  0.60386588  1
  O2-  O206  1  0.16862994  0.21298171  0.93309207  1
  O2-  O207  1  0.16664496  0.70012191  0.27140667  1
  O2-  O208  1  0.16282788  0.71315275  0.59719491  1
  O2-  O209  1  0.17263533  0.70087610  0.93421704  1
  O2-  O210  1  0.66321415  0.20468512  0.26752758  1
  O2-  O211  1  0.66823715  0.20504341  0.59736534  1
  O2-  O212  1  0.66328423  0.20086727  0.93975691  1
  O2-  O213  1  0.67026870  0.70553198  0.26823341  1
  O2-  O214  1  0.66910288  0.70864190  0.59839213  1
  O2-  O215  1  0.66371526  0.71526797  0.93238370  1
  O2-  O216  1  0.08321520  0.45917416  0.06860419  1
  O2-  O217  1  0.08007284  0.45789353  0.39988578  1
  O2-  O218  1  0.07933742  0.45689794  0.73377299  1
  O2-  O219  1  0.08204236  0.95710663  0.06074681  1
  O2-  O220  1  0.08961629  0.96087938  0.39726065  1
  O2-  O221  1  0.08622662  0.95923300  0.73093293  1
  O2-  O222  1  0.57947860  0.44823573  0.05900001  1
  O2-  O223  1  0.58010172  0.45161183  0.39826510  1
  O2-  O224  1  0.57431963  0.43655532  0.72764743  1
  O2-  O225  1  0.58839099  0.96558378  0.07094219  1
  O2-  O226  1  0.58464805  0.96377125  0.40411058  1
  O2-  O227  1  0.58914128  0.96762309  0.72702037  1
  O2-  O228  1  0.21604906  0.33761114  0.06924904  1
  O2-  O229  1  0.21211308  0.33445496  0.40344049  1
  O2-  O230  1  0.20585386  0.32819114  0.73174015  1
  O2-  O231  1  0.19722009  0.83256243  0.06176584  1
  O2-  O232  1  0.20388260  0.83548056  0.39292607  1
  O2-  O233  1  0.20258742  0.83787754  0.72958972  1
  O2-  O234  1  0.69981394  0.33053873  0.06308270  1
  O2-  O235  1  0.71114538  0.32996273  0.39542799  1
  O2-  O236  1  0.71352075  0.32797478  0.73356274  1
  O2-  O237  1  0.71178698  0.83481888  0.06812439  1
  O2-  O238  1  0.71150212  0.83193079  0.40454651  1
  O2-  O239  1  0.70208154  0.83920550  0.72849395  1
  O2-  O240  1  0.45297043  0.41009562  0.26984820  1
  O2-  O241  1  0.43910126  0.41719068  0.60690641  1
  O2-  O242  1  0.44927260  0.41200178  0.93752713  1
  O2-  O243  1  0.45536376  0.92441658  0.26757148  1
  O2-  O244  1  0.46144277  0.91725637  0.59778116  1
  O2-  O245  1  0.46065414  0.91759049  0.93995214  1
  O2-  O246  1  0.95883470  0.41776429  0.26262364  1
  O2-  O247  1  0.95965726  0.41545083  0.59850727  1
  O2-  O248  1  0.95330915  0.41621275  0.93923305  1
  O2-  O249  1  0.96156002  0.91820220  0.26621754  1
  O2-  O250  1  0.95589150  0.91797861  0.60142761  1
  O2-  O251  1  0.94804484  0.92243548  0.93388730  1
  O2-  O252  1  0.33718047  0.28591127  0.27078912  1
  O2-  O253  1  0.33548196  0.28476037  0.59997729  1
  O2-  O254  1  0.33963388  0.28440201  0.93800306  1
  O2-  O255  1  0.32951839  0.79915805  0.26123886  1
  O2-  O256  1  0.32776029  0.80284439  0.60280440  1
  O2-  O257  1  0.33233014  0.80860253  0.94264426  1
  O2-  O258  1  0.83566078  0.28652968  0.25973658  1
  O2-  O259  1  0.83837264  0.28316677  0.59777148  1
  O2-  O260  1  0.83247208  0.29600363  0.93672381  1
  O2-  O261  1  0.83408593  0.79187657  0.26810470  1
  O2-  O262  1  0.83163077  0.80331541  0.60736763  1
  O2-  O263  1  0.83039089  0.78958944  0.93169333  1
  O2-  O264  1  0.41476517  0.04125892  0.07198405  1
  O2-  O265  1  0.41460246  0.04699151  0.39922456  1
  O2-  O266  1  0.41355039  0.04011671  0.72803091  1
  O2-  O267  1  0.41651251  0.54103756  0.06568505  1
  O2-  O268  1  0.41270308  0.53984052  0.39518229  1
  O2-  O269  1  0.41840371  0.54491390  0.73587716  1
  O2-  O270  1  0.92041731  0.05603898  0.05980603  1
  O2-  O271  1  0.91889172  0.04947378  0.39389530  1
  O2-  O272  1  0.91577809  0.04734361  0.72824527  1
  O2-  O273  1  0.91250277  0.53819787  0.07293265  1
  O2-  O274  1  0.91446669  0.54329998  0.39570805  1
  O2-  O275  1  0.91475041  0.53834126  0.73510531  1
  O2-  O276  1  0.28717091  0.16440764  0.07041889  1
  O2-  O277  1  0.29169373  0.16054205  0.40285551  1
  O2-  O278  1  0.29548164  0.16003277  0.72991321  1
  O2-  O279  1  0.30651476  0.67088389  0.06114816  1
  O2-  O280  1  0.30261320  0.66898586  0.39000387  1
  O2-  O281  1  0.29317487  0.67361313  0.73315000  1
  O2-  O282  1  0.79459391  0.16733286  0.06506269  1
  O2-  O283  1  0.79406867  0.16443607  0.39485516  1
  O2-  O284  1  0.79156707  0.16044690  0.72990272  1
  O2-  O285  1  0.78598403  0.66502984  0.06913500  1
  O2-  O286  1  0.80018690  0.66602661  0.39662549  1
  O2-  O287  1  0.79480074  0.67339514  0.73524584  1
