# generated using pymatgen
data_Ca2Al2SiO7
_symmetry_space_group_name_H-M   'P 1'
_cell_length_a   15.47511071
_cell_length_b   15.47179048
_cell_length_c   15.29646696
_cell_angle_alpha   89.98832429
_cell_angle_beta   90.01063504
_cell_angle_gamma   89.99625060
_symmetry_Int_Tables_number   1
_chemical_formula_structural   Ca2Al2SiO7
_chemical_formula_sum   'Ca48 Al48 Si24 O168'
_cell_volume   3662.39730641
_cell_formula_units_Z   24
loop_
 _symmetry_equiv_pos_site_id
 _symmetry_equiv_pos_as_xyz
  1  'x, y, z'
loop_
 _atom_type_symbol
 _atom_type_oxidation_number
  Ca2+  2.0
  Al0+  0.0
  Si0+  0.0
  O2-  -2.0
loop_
 _atom_site_type_symbol
 _atom_site_label
 _atom_site_symmetry_multiplicity
 _atom_site_fract_x
 _atom_site_fract_y
 _atom_site_fract_z
 _atom_site_occupancy
  Ca2+  Ca0  1  0.16536237  0.08652036  0.17349621  1
  Ca2+  Ca1  1  0.16670448  0.08635587  0.50225795  1
  Ca2+  Ca2  1  0.17193975  0.08091678  0.83914314  1
  Ca2+  Ca3  1  0.16795229  0.58081208  0.16190710  1
  Ca2+  Ca4  1  0.16647249  0.58363089  0.50584612  1
  Ca2+  Ca5  1  0.16949427  0.58717915  0.84350598  1
  Ca2+  Ca6  1  0.67342979  0.08924306  0.16625671  1
  Ca2+  Ca7  1  0.67439273  0.08833097  0.50727580  1
  Ca2+  Ca8  1  0.67030501  0.07529083  0.83768734  1
  Ca2+  Ca9  1  0.66780785  0.57316776  0.17421316  1
  Ca2+  Ca10  1  0.67796179  0.56910662  0.50554065  1
  Ca2+  Ca11  1  0.66507503  0.57365584  0.84061089  1
  Ca2+  Ca12  1  0.06878059  0.33536477  0.16157226  1
  Ca2+  Ca13  1  0.07244436  0.32540761  0.48917451  1
  Ca2+  Ca14  1  0.07490824  0.34067894  0.83404665  1
  Ca2+  Ca15  1  0.07738960  0.82662018  0.15947099  1
  Ca2+  Ca16  1  0.07211118  0.82853007  0.50257267  1
  Ca2+  Ca17  1  0.07414463  0.82260131  0.82600188  1
  Ca2+  Ca18  1  0.59557639  0.32626759  0.16231353  1
  Ca2+  Ca19  1  0.59039820  0.32724002  0.49409160  1
  Ca2+  Ca20  1  0.59882783  0.32336122  0.83181807  1
  Ca2+  Ca21  1  0.58747359  0.82526134  0.15693903  1
  Ca2+  Ca22  1  0.58171718  0.84094698  0.50166595  1
  Ca2+  Ca23  1  0.58635000  0.83203944  0.82830756  1
  Ca2+  Ca24  1  0.33116619  0.41600958  0.16833259  1
  Ca2+  Ca25  1  0.33312992  0.41109361  0.50067099  1
  Ca2+  Ca26  1  0.32211470  0.42395427  0.84538721  1
  Ca2+  Ca27  1  0.33032542  0.91904256  0.16921725  1
  Ca2+  Ca28  1  0.33322428  0.91659873  0.50746001  1
  Ca2+  Ca29  1  0.33529840  0.91164026  0.83489952  1
  Ca2+  Ca30  1  0.82643370  0.41458596  0.17058746  1
  Ca2+  Ca31  1  0.82658689  0.41595166  0.50249265  1
  Ca2+  Ca32  1  0.82559375  0.41890192  0.83504652  1
  Ca2+  Ca33  1  0.82815668  0.92740239  0.16906589  1
  Ca2+  Ca34  1  0.82944555  0.92941229  0.51048630  1
  Ca2+  Ca35  1  0.83199213  0.92669374  0.83699188  1
  Ca2+  Ca36  1  0.43049264  0.17599160  0.16512684  1
  Ca2+  Ca37  1  0.43343513  0.17355019  0.49276235  1
  Ca2+  Ca38  1  0.43330593  0.16552532  0.82846612  1
  Ca2+  Ca39  1  0.42296294  0.66511671  0.15812353  1
  Ca2+  Ca40  1  0.42012130  0.67298622  0.50110082  1
  Ca2+  Ca41  1  0.42298455  0.66665382  0.83365100  1
  Ca2+  Ca42  1  0.90689506  0.17634690  0.16460629  1
  Ca2+  Ca43  1  0.91404565  0.16837143  0.49007569  1
  Ca2+  Ca44  1  0.90372705  0.17079938  0.83389998  1
  Ca2+  Ca45  1  0.91803523  0.66324608  0.15836537  1
  Ca2+  Ca46  1  0.90884023  0.66476734  0.50104694  1
  Ca2+  Ca47  1  0.92630278  0.66303422  0.82320857  1
  Al0+  Al48  1  0.00130926  0.00207502  0.00438741  1
  Al0+  Al49  1  0.00046184  -0.00456499  0.33415270  1
  Al0+  Al50  1  0.00246891  -0.00223322  0.66881111  1
  Al0+  Al51  1  0.00077514  0.49882492  -0.00566930  1
  Al0+  Al52  1  0.00345228  0.50111555  0.33264427  1
  Al0+  Al53  1  0.00094304  0.49651222  0.66324789  1
  Al0+  Al54  1  0.49868990  0.00032858  0.00140956  1
  Al0+  Al55  1  0.49647273  0.00110237  0.32832404  1
  Al0+  Al56  1  0.50052848  0.00184594  0.66069915  1
  Al0+  Al57  1  0.49811335  0.50076995  0.00327270  1
  Al0+  Al58  1  0.49755743  0.50251565  0.33745563  1
  Al0+  Al59  1  0.49632888  0.49931313  0.67078983  1
  Al0+  Al60  1  0.24853898  0.25023206  0.00443852  1
  Al0+  Al61  1  0.25227661  0.24901579  0.32892884  1
  Al0+  Al62  1  0.25104989  0.24966832  0.66903019  1
  Al0+  Al63  1  0.24898027  0.75059088  0.00211465  1
  Al0+  Al64  1  0.24881829  0.75030537  0.33411919  1
  Al0+  Al65  1  0.25060066  0.74938259  0.65908879  1
  Al0+  Al66  1  0.75119022  0.25113269  -0.00290523  1
  Al0+  Al67  1  0.75119196  0.24889473  0.33319961  1
  Al0+  Al68  1  0.75148220  0.25029415  0.66818297  1
  Al0+  Al69  1  0.74942565  0.75243117  -0.00361666  1
  Al0+  Al70  1  0.74886108  0.75080337  0.33648744  1
  Al0+  Al71  1  0.75115746  0.74904429  0.66651311  1
  Al0+  Al72  1  0.57181825  0.67763146  0.98765670  1
  Al0+  Al73  1  0.92979370  0.31957071  0.98343465  1
  Al0+  Al74  1  0.67663960  0.92737373  0.01528188  1
  Al0+  Al75  1  0.06939833  0.67686254  0.64959840  1
  Al0+  Al76  1  0.92958990  0.32186483  0.31787183  1
  Al0+  Al77  1  0.06865111  0.68077448  0.98724913  1
  Al0+  Al78  1  0.17625201  0.42821331  0.01684062  1
  Al0+  Al79  1  0.56999583  0.18068685  0.98411513  1
  Al0+  Al80  1  0.82391065  0.07070453  0.68218053  1
  Al0+  Al81  1  0.31989750  0.57217483  0.01625530  1
  Al0+  Al82  1  0.42960958  0.32485717  0.31814677  1
  Al0+  Al83  1  0.57271263  0.18012237  0.31656236  1
  Al0+  Al84  1  0.67598451  0.92919067  0.67981706  1
  Al0+  Al85  1  0.43251916  0.81958650  0.65375515  1
  Al0+  Al86  1  0.82003511  0.06843283  0.34646685  1
  Al0+  Al87  1  0.92642253  0.82213937  0.65123606  1
  Al0+  Al88  1  0.82396220  0.57334775  0.34650623  1
  Al0+  Al89  1  0.67888498  0.42851716  0.34773814  1
  Al0+  Al90  1  0.07057767  0.17574470  0.31941607  1
  Al0+  Al91  1  0.67748660  0.42988810  0.68305924  1
  Al0+  Al92  1  0.82068359  0.07114545  0.01689669  1
  Al0+  Al93  1  0.57172387  0.18251591  0.65312294  1
  Al0+  Al94  1  0.82354152  0.56992104  0.68197015  1
  Al0+  Al95  1  0.67999984  0.43093280  0.01344550  1
  Si0+  Si96  1  0.18119376  0.92711548  0.68198327  1
  Si0+  Si97  1  0.93137709  0.31729852  0.65091676  1
  Si0+  Si98  1  0.42624824  0.82110433  0.31731352  1
  Si0+  Si99  1  0.32189345  0.07222093  0.01652066  1
  Si0+  Si100  1  0.18003717  0.93014999  0.01543968  1
  Si0+  Si101  1  0.32011301  0.07057297  0.34979339  1
  Si0+  Si102  1  0.42520665  0.32240428  0.98267095  1
  Si0+  Si103  1  0.07568997  0.17761278  0.65436916  1
  Si0+  Si104  1  0.42751825  0.82179299  0.98560643  1
  Si0+  Si105  1  0.32010416  0.57404655  0.35168970  1
  Si0+  Si106  1  0.31861785  0.57331451  0.68162053  1
  Si0+  Si107  1  0.07338419  0.67969318  0.31639673  1
  Si0+  Si108  1  0.92798871  0.82551065  0.98407048  1
  Si0+  Si109  1  0.67485172  0.92766456  0.34913313  1
  Si0+  Si110  1  0.17994747  0.92689429  0.35092900  1
  Si0+  Si111  1  0.57300801  0.67296009  0.64983441  1
  Si0+  Si112  1  0.07427414  0.17650451  0.98216629  1
  Si0+  Si113  1  0.32041954  0.07037358  0.68076106  1
  Si0+  Si114  1  0.56948326  0.68197825  0.32113960  1
  Si0+  Si115  1  0.18124153  0.42866863  0.34895335  1
  Si0+  Si116  1  0.42416055  0.32210516  0.65247376  1
  Si0+  Si117  1  0.18053125  0.42730634  0.67977911  1
  Si0+  Si118  1  0.92825995  0.81896854  0.31791645  1
  Si0+  Si119  1  0.82271313  0.57328845  0.01204482  1
  O2-  O120  1  0.24867839  0.00279421  0.05832930  1
  O2-  O121  1  0.24757943  0.00122576  0.39316161  1
  O2-  O122  1  0.25105585  -0.00122499  0.72503083  1
  O2-  O123  1  0.25050710  0.49799915  0.06695852  1
  O2-  O124  1  0.25198616  0.49967103  0.39297761  1
  O2-  O125  1  0.24853463  0.50093701  0.72170989  1
  O2-  O126  1  0.74786033  -0.00074434  0.06593105  1
  O2-  O127  1  0.74074653  -0.00141980  0.39268139  1
  O2-  O128  1  0.75270661  -0.00380328  0.72940313  1
  O2-  O129  1  0.75057427  0.51025600  0.05843546  1
  O2-  O130  1  0.75544217  0.49746899  0.39542531  1
  O2-  O131  1  0.74500263  0.50637706  0.73299717  1
  O2-  O132  1  -0.00093647  0.24643851  0.26800720  1
  O2-  O133  1  0.00013865  0.24236282  0.61172006  1
  O2-  O134  1  0.00564855  0.24405537  0.93727501  1
  O2-  O135  1  -0.00482804  0.74346346  0.27575464  1
  O2-  O136  1  -0.00665427  0.74477436  0.59989547  1
  O2-  O137  1  -0.00873980  0.75163222  0.94036297  1
  O2-  O138  1  0.50686114  0.25925488  0.26779453  1
  O2-  O139  1  0.49967136  0.26147396  0.60914599  1
  O2-  O140  1  0.49555318  0.25663448  0.93703413  1
  O2-  O141  1  0.50007041  0.75391218  0.27639041  1
  O2-  O142  1  0.50997339  0.74827316  0.60581722  1
  O2-  O143  1  0.49887145  0.75585159  0.94282298  1
  O2-  O144  1  0.07571266  0.17504482  0.08723074  1
  O2-  O145  1  0.07153917  0.17833636  0.43380409  1
  O2-  O146  1  0.08377677  0.18144393  0.75877975  1
  O2-  O147  1  0.06882690  0.68395906  0.10088985  1
  O2-  O148  1  0.08023626  0.68323288  0.42080696  1
  O2-  O149  1  0.07335165  0.68026389  0.76296901  1
  O2-  O150  1  0.56866483  0.18134599  0.09685255  1
  O2-  O151  1  0.56949304  0.17672330  0.43018068  1
  O2-  O152  1  0.56885139  0.18029386  0.76611368  1
  O2-  O153  1  0.56965374  0.67877475  0.10134370  1
  O2-  O154  1  0.56621125  0.68429736  0.42601729  1
  O2-  O155  1  0.56662591  0.66974226  0.75510837  1
  O2-  O156  1  0.18092795  0.43117021  0.24451272  1
  O2-  O157  1  0.18351139  0.42445818  0.57454796  1
  O2-  O158  1  0.17832348  0.42979676  0.90257047  1
  O2-  O159  1  0.18316935  0.92335139  0.24573639  1
  O2-  O160  1  0.18241834  0.92838888  0.57678928  1
  O2-  O161  1  0.18207177  0.92972024  0.91033747  1
  O2-  O162  1  0.67820469  0.43243828  0.23419700  1
  O2-  O163  1  0.67880689  0.42799520  0.56956803  1
  O2-  O164  1  0.68197271  0.43038877  0.90064168  1
  O2-  O165  1  0.67728371  0.92308966  0.24394145  1
  O2-  O166  1  0.67348381  0.93701118  0.56593215  1
  O2-  O167  1  0.67571511  0.92827552  0.90217288  1
  O2-  O168  1  0.42337720  0.31864836  0.08794862  1
  O2-  O169  1  0.42616656  0.31920656  0.43200458  1
  O2-  O170  1  0.41419244  0.31671557  0.75705283  1
  O2-  O171  1  0.42443900  0.82061065  0.09151529  1
  O2-  O172  1  0.42361748  0.82047345  0.42230927  1
  O2-  O173  1  0.42771239  0.81677476  0.76638134  1
  O2-  O174  1  0.92995516  0.32046637  0.09611400  1
  O2-  O175  1  0.93283248  0.32131460  0.43193685  1
  O2-  O176  1  0.93353858  0.31933071  0.75586750  1
  O2-  O177  1  0.93207528  0.82574852  0.09024328  1
  O2-  O178  1  0.93168895  0.82102284  0.42242528  1
  O2-  O179  1  0.93502400  0.82737771  0.76431588  1
  O2-  O180  1  0.31975524  0.06622489  0.24472028  1
  O2-  O181  1  0.31650759  0.07054747  0.57577628  1
  O2-  O182  1  0.32123605  0.07051018  0.91103203  1
  O2-  O183  1  0.31795200  0.58017637  0.24744403  1
  O2-  O184  1  0.31855365  0.57418783  0.57620431  1
  O2-  O185  1  0.31676363  0.57432305  0.90228028  1
  O2-  O186  1  0.82174155  0.06569839  0.23391515  1
  O2-  O187  1  0.82455639  0.07219312  0.56840540  1
  O2-  O188  1  0.82166585  0.06847763  0.90361115  1
  O2-  O189  1  0.82015770  0.57794945  0.23284691  1
  O2-  O190  1  0.82443198  0.56217075  0.56855972  1
  O2-  O191  1  0.82326024  0.57050638  0.90681812  1
  O2-  O192  1  0.04939280  0.07398841  0.26988597  1
  O2-  O193  1  0.05589434  0.08294506  0.61006337  1
  O2-  O194  1  0.05138356  0.08135414  0.93720525  1
  O2-  O195  1  0.05470985  0.58560090  0.27092951  1
  O2-  O196  1  0.04711534  0.57650344  0.59726700  1
  O2-  O197  1  0.04386746  0.58410425  0.93199518  1
  O2-  O198  1  0.53509726  0.08385143  0.26338095  1
  O2-  O199  1  0.53488367  0.08934445  0.59689988  1
  O2-  O200  1  0.53439274  0.08370605  0.93302496  1
  O2-  O201  1  0.53897946  0.59097075  0.27474628  1
  O2-  O202  1  0.53705521  0.58297945  0.60172437  1
  O2-  O203  1  0.53598090  0.58303827  0.93258050  1
  O2-  O204  1  0.17001479  0.20206618  0.26843842  1
  O2-  O205  1  0.16513898  0.21005305  0.60355608  1
  O2-  O206  1  0.16900229  0.20081151  0.93681722  1
  O2-  O207  1  0.16186183  0.71655271  0.26733613  1
  O2-  O208  1  0.16585587  0.71094846  0.59492086  1
  O2-  O209  1  0.16479732  0.71603285  0.93480512  1
  O2-  O210  1  0.67206863  0.20317712  0.26493705  1
  O2-  O211  1  0.66868655  0.21212744  0.59971438  1
  O2-  O212  1  0.66609388  0.21146670  0.93092610  1
  O2-  O213  1  0.66137561  0.70821691  0.27345200  1
  O2-  O214  1  0.66903349  0.68987355  0.60701701  1
  O2-  O215  1  0.66821525  0.70547780  0.93182173  1
  O2-  O216  1  0.07920806  0.46179196  0.06876013  1
  O2-  O217  1  0.09045954  0.45716872  0.39787725  1
  O2-  O218  1  0.08797916  0.45177698  0.72552598  1
  O2-  O219  1  0.08901251  0.95564604  0.06517355  1
  O2-  O220  1  0.08764365  0.95055044  0.39841358  1
  O2-  O221  1  0.09099069  0.95374307  0.73165024  1
  O2-  O222  1  0.58157156  0.45579231  0.06556950  1
  O2-  O223  1  0.58062352  0.45986852  0.40086234  1
  O2-  O224  1  0.57573852  0.45078974  0.73360310  1
  O2-  O225  1  0.57630215  0.95173153  0.06712040  1
  O2-  O226  1  0.57796070  0.94995416  0.39013764  1
  O2-  O227  1  0.57783472  0.96096499  0.73230569  1
  O2-  O228  1  0.20103784  0.32874440  0.06926575  1
  O2-  O229  1  0.21010374  0.33628348  0.39534668  1
  O2-  O230  1  0.21060791  0.33755772  0.73023480  1
  O2-  O231  1  0.21036458  0.84052897  0.06579532  1
  O2-  O232  1  0.21346714  0.83762901  0.40010048  1
  O2-  O233  1  0.21324485  0.83600136  0.72770063  1
  O2-  O234  1  0.71611176  0.33593812  0.06573625  1
  O2-  O235  1  0.70561161  0.32954985  0.39937252  1
  O2-  O236  1  0.71407856  0.33394250  0.73496831  1
  O2-  O237  1  0.70579301  0.82843972  0.06841015  1
  O2-  O238  1  0.70106130  0.83543475  0.39748496  1
  O2-  O239  1  0.69341524  0.82594168  0.72600618  1
  O2-  O240  1  0.44453846  0.42838114  0.27123602  1
  O2-  O241  1  0.44026441  0.41924562  0.61012862  1
  O2-  O242  1  0.44539555  0.41829932  0.94033124  1
  O2-  O243  1  0.44736396  0.91400899  0.26956940  1
  O2-  O244  1  0.45742996  0.91666264  0.59661801  1
  O2-  O245  1  0.44719979  0.91669347  0.94030373  1
  O2-  O246  1  0.96243509  0.41987111  0.26581040  1
  O2-  O247  1  0.96375012  0.40614291  0.60110852  1
  O2-  O248  1  0.96317397  0.41436447  0.92720358  1
  O2-  O249  1  0.96317488  0.90711435  0.26807268  1
  O2-  O250  1  0.96540774  0.91814895  0.59673372  1
  O2-  O251  1  0.96229103  0.91661113  0.93865767  1
  O2-  O252  1  0.33420721  0.28954285  0.26328715  1
  O2-  O253  1  0.33431755  0.28875891  0.60141675  1
  O2-  O254  1  0.33111192  0.29457406  0.93769138  1
  O2-  O255  1  0.33547700  0.78959765  0.26958518  1
  O2-  O256  1  0.33771515  0.78650402  0.59572798  1
  O2-  O257  1  0.33477938  0.79393636  0.93871303  1
  O2-  O258  1  0.83108695  0.29515995  0.26616542  1
  O2-  O259  1  0.83967177  0.29129064  0.60382736  1
  O2-  O260  1  0.83520124  0.28749033  0.92726134  1
  O2-  O261  1  0.83445447  0.79652073  0.27229516  1
  O2-  O262  1  0.82623000  0.80201540  0.59802956  1
  O2-  O263  1  0.83281441  0.80831956  0.94005129  1
  O2-  O264  1  0.41072643  0.04111719  0.06668850  1
  O2-  O265  1  0.41076082  0.03908882  0.39760655  1
  O2-  O266  1  0.41168182  0.04188174  0.72705026  1
  O2-  O267  1  0.41759972  0.54565237  0.07029498  1
  O2-  O268  1  0.41166301  0.55083089  0.40146767  1
  O2-  O269  1  0.40984509  0.54791388  0.73051964  1
  O2-  O270  1  0.92042530  0.04467751  0.06913366  1
  O2-  O271  1  0.91656288  0.03370771  0.39964610  1
  O2-  O272  1  0.92417824  0.04545563  0.73432211  1
  O2-  O273  1  0.91528677  0.54415055  0.05774089  1
  O2-  O274  1  0.92609049  0.55292172  0.39557972  1
  O2-  O275  1  0.92129002  0.53475956  0.73337811  1
  O2-  O276  1  0.29504918  0.16327742  0.06473146  1
  O2-  O277  1  0.29409810  0.16269673  0.39709206  1
  O2-  O278  1  0.29053886  0.16047650  0.73038763  1
  O2-  O279  1  0.28837884  0.66977903  0.07063992  1
  O2-  O280  1  0.28702826  0.66434409  0.40050257  1
  O2-  O281  1  0.28846976  0.66450611  0.72804322  1
  O2-  O282  1  0.78949350  0.16935959  0.06689630  1
  O2-  O283  1  0.79504223  0.16648984  0.39941757  1
  O2-  O284  1  0.79334662  0.16821135  0.73376888  1
  O2-  O285  1  0.80483366  0.66991263  0.05444039  1
  O2-  O286  1  0.79090149  0.66993654  0.40191096  1
  O2-  O287  1  0.80909583  0.67341975  0.72817474  1
