# generated using pymatgen
data_Ca2Al2SiO7
_symmetry_space_group_name_H-M   'P 1'
_cell_length_a   15.45860702
_cell_length_b   15.45794524
_cell_length_c   15.28410159
_cell_angle_alpha   90.00661775
_cell_angle_beta   90.00737532
_cell_angle_gamma   89.97920563
_symmetry_Int_Tables_number   1
_chemical_formula_structural   Ca2Al2SiO7
_chemical_formula_sum   'Ca48 Al48 Si24 O168'
_cell_volume   3652.26265046
_cell_formula_units_Z   24
loop_
 _symmetry_equiv_pos_site_id
 _symmetry_equiv_pos_as_xyz
  1  'x, y, z'
loop_
 _atom_type_symbol
 _atom_type_oxidation_number
  Ca2+  2.0
  Al0+  0.0
  Si0+  0.0
  O2-  -2.0
loop_
 _atom_site_type_symbol
 _atom_site_label
 _atom_site_symmetry_multiplicity
 _atom_site_fract_x
 _atom_site_fract_y
 _atom_site_fract_z
 _atom_site_occupancy
  Ca2+  Ca0  1  0.15957183  0.07414073  0.16893397  1
  Ca2+  Ca1  1  0.16117441  0.08243481  0.50256996  1
  Ca2+  Ca2  1  0.16575576  0.08003830  0.84121581  1
  Ca2+  Ca3  1  0.17376484  0.57981566  0.17745318  1
  Ca2+  Ca4  1  0.17568190  0.56912949  0.50276766  1
  Ca2+  Ca5  1  0.16421420  0.57828307  0.83922375  1
  Ca2+  Ca6  1  0.65552048  0.07988078  0.16737829  1
  Ca2+  Ca7  1  0.66586059  0.08648063  0.50341325  1
  Ca2+  Ca8  1  0.66606453  0.07591792  0.84547228  1
  Ca2+  Ca9  1  0.67828517  0.59344002  0.16772807  1
  Ca2+  Ca10  1  0.66850324  0.58037240  0.50671244  1
  Ca2+  Ca11  1  0.66499504  0.58670213  0.83800214  1
  Ca2+  Ca12  1  0.09272258  0.32368819  0.16354720  1
  Ca2+  Ca13  1  0.09603804  0.32525252  0.49597452  1
  Ca2+  Ca14  1  0.08827007  0.32175720  0.82728757  1
  Ca2+  Ca15  1  0.08164070  0.82846081  0.15516037  1
  Ca2+  Ca16  1  0.07726358  0.83603609  0.49572416  1
  Ca2+  Ca17  1  0.07590407  0.83097569  0.83416568  1
  Ca2+  Ca18  1  0.57246658  0.32766818  0.15953339  1
  Ca2+  Ca19  1  0.57494609  0.33598892  0.49355596  1
  Ca2+  Ca20  1  0.57309520  0.33823444  0.82817280  1
  Ca2+  Ca21  1  0.57514514  0.82911242  0.15351576  1
  Ca2+  Ca22  1  0.57693355  0.82817880  0.50132144  1
  Ca2+  Ca23  1  0.58206815  0.82536973  0.83111879  1
  Ca2+  Ca24  1  0.33375853  0.41934240  0.17323930  1
  Ca2+  Ca25  1  0.33085004  0.41104652  0.50336882  1
  Ca2+  Ca26  1  0.33288018  0.41072408  0.83370694  1
  Ca2+  Ca27  1  0.32036125  0.91090496  0.17035420  1
  Ca2+  Ca28  1  0.32801946  0.91761094  0.50419954  1
  Ca2+  Ca29  1  0.33270276  0.91508417  0.84314732  1
  Ca2+  Ca30  1  0.83545693  0.43142302  0.17149305  1
  Ca2+  Ca31  1  0.82682064  0.42200087  0.50638759  1
  Ca2+  Ca32  1  0.82302634  0.42281252  0.84094001  1
  Ca2+  Ca33  1  0.82747889  0.91260649  0.16436127  1
  Ca2+  Ca34  1  0.83371496  0.91817905  0.50588727  1
  Ca2+  Ca35  1  0.83152649  0.91093778  0.84182560  1
  Ca2+  Ca36  1  0.42096729  0.17779845  0.16267793  1
  Ca2+  Ca37  1  0.42040966  0.18003931  0.49224436  1
  Ca2+  Ca38  1  0.42031846  0.17567357  0.83389501  1
  Ca2+  Ca39  1  0.41853994  0.66922311  0.15672193  1
  Ca2+  Ca40  1  0.41782124  0.66406071  0.49997017  1
  Ca2+  Ca41  1  0.42432996  0.67895667  0.82981962  1
  Ca2+  Ca42  1  0.92758372  0.16821886  0.16356560  1
  Ca2+  Ca43  1  0.92789063  0.17052364  0.49556611  1
  Ca2+  Ca44  1  0.92968389  0.16100639  0.83116353  1
  Ca2+  Ca45  1  0.92199927  0.66683189  0.15596257  1
  Ca2+  Ca46  1  0.91369881  0.67058265  0.49797842  1
  Ca2+  Ca47  1  0.91483374  0.67415778  0.83642560  1
  Al0+  Al48  1  -0.00031829  0.00022422  -0.00182779  1
  Al0+  Al49  1  -0.00343703  0.00050562  0.33355476  1
  Al0+  Al50  1  0.00020750  -0.00058770  0.65962623  1
  Al0+  Al51  1  -0.00092250  0.49808276  0.00090637  1
  Al0+  Al52  1  0.00031792  0.50149059  0.34436330  1
  Al0+  Al53  1  0.00008023  0.49971907  0.67254750  1
  Al0+  Al54  1  0.49812459  0.00334372  0.00039605  1
  Al0+  Al55  1  0.49800341  -0.00231214  0.33254021  1
  Al0+  Al56  1  0.49966848  -0.00066865  0.66450322  1
  Al0+  Al57  1  0.49872121  0.49963858  -0.00617603  1
  Al0+  Al58  1  0.50281775  0.50264735  0.33067557  1
  Al0+  Al59  1  0.50003311  0.50081707  0.66338803  1
  Al0+  Al60  1  0.25035244  0.24856453  -0.00639296  1
  Al0+  Al61  1  0.25165499  0.24700090  0.32602166  1
  Al0+  Al62  1  0.25214052  0.24753151  0.66371356  1
  Al0+  Al63  1  0.24881667  0.74791625  -0.00380538  1
  Al0+  Al64  1  0.24768919  0.74949289  0.34439870  1
  Al0+  Al65  1  0.24833871  0.74941992  0.66387863  1
  Al0+  Al66  1  0.75039662  0.24961142  0.00060173  1
  Al0+  Al67  1  0.75204365  0.24876975  0.32915399  1
  Al0+  Al68  1  0.75326194  0.25064221  0.67401107  1
  Al0+  Al69  1  0.75030836  0.75087369  0.00291414  1
  Al0+  Al70  1  0.74907496  0.75243032  0.33922597  1
  Al0+  Al71  1  0.75067576  0.75166245  0.65852740  1
  Al0+  Al72  1  0.57021943  0.68000013  0.64951024  1
  Al0+  Al73  1  0.67834085  0.42975402  0.68043143  1
  Al0+  Al74  1  0.18162989  0.42571708  0.34692640  1
  Al0+  Al75  1  0.06873152  0.18015592  0.98606402  1
  Al0+  Al76  1  0.32466261  0.57180244  0.34821905  1
  Al0+  Al77  1  0.17596449  0.93005609  0.34833868  1
  Al0+  Al78  1  0.42999204  0.32355064  0.31675439  1
  Al0+  Al79  1  0.18103941  0.42701906  0.68255210  1
  Al0+  Al80  1  0.17929961  0.92845992  0.01139964  1
  Al0+  Al81  1  0.57227269  0.68023222  0.98694472  1
  Al0+  Al82  1  0.07027013  0.18082878  0.65181662  1
  Al0+  Al83  1  0.67819471  0.93067017  0.01320124  1
  Al0+  Al84  1  0.92977493  0.82033543  0.98797979  1
  Al0+  Al85  1  0.57299944  0.17864364  0.98424536  1
  Al0+  Al86  1  0.42601073  0.82219481  0.98858349  1
  Al0+  Al87  1  0.82130725  0.57319260  0.34949764  1
  Al0+  Al88  1  0.07049047  0.17930400  0.31813967  1
  Al0+  Al89  1  0.81952675  0.57004521  0.01334793  1
  Al0+  Al90  1  0.43138698  0.31919293  0.65137256  1
  Al0+  Al91  1  0.42621744  0.82344056  0.64971941  1
  Al0+  Al92  1  0.93158688  0.81882776  0.65153181  1
  Al0+  Al93  1  0.42937193  0.32152754  0.98253351  1
  Al0+  Al94  1  0.07255580  0.67478817  0.98724922  1
  Al0+  Al95  1  0.57328251  0.17694093  0.31890810  1
  Si0+  Si96  1  0.17947493  0.42677579  0.01346628  1
  Si0+  Si97  1  0.82095323  0.57488900  0.68518282  1
  Si0+  Si98  1  0.92816172  0.32485408  0.31792297  1
  Si0+  Si99  1  0.67709521  0.93026056  0.35040681  1
  Si0+  Si100  1  0.92715305  0.32335435  0.65158162  1
  Si0+  Si101  1  0.32129439  0.06909932  0.68136519  1
  Si0+  Si102  1  0.32168304  0.57282715  0.68600066  1
  Si0+  Si103  1  0.67982884  0.93053830  0.68050876  1
  Si0+  Si104  1  0.17716263  0.92903988  0.68170782  1
  Si0+  Si105  1  0.32042118  0.57004546  0.01204654  1
  Si0+  Si106  1  0.32223845  0.06912473  0.34973811  1
  Si0+  Si107  1  0.92681980  0.32380996  0.98359281  1
  Si0+  Si108  1  0.42630141  0.81892729  0.31910998  1
  Si0+  Si109  1  0.68085439  0.42720935  0.34733183  1
  Si0+  Si110  1  0.82046143  0.07137768  0.34906691  1
  Si0+  Si111  1  0.57572204  0.17771455  0.65254565  1
  Si0+  Si112  1  0.06955693  0.67982173  0.32184307  1
  Si0+  Si113  1  0.32052506  0.07380804  0.01790459  1
  Si0+  Si114  1  0.57273292  0.68156856  0.31790720  1
  Si0+  Si115  1  0.07276074  0.67384712  0.64766568  1
  Si0+  Si116  1  0.82340621  0.07321904  0.01805925  1
  Si0+  Si117  1  0.82320235  0.07017363  0.68157206  1
  Si0+  Si118  1  0.92756124  0.82088380  0.31745896  1
  Si0+  Si119  1  0.67528971  0.42728514  0.01784097  1
  O2-  O120  1  0.25529829  0.00067364  0.06074762  1
  O2-  O121  1  0.24994635  0.00501005  0.39598078  1
  O2-  O122  1  0.25306666  -0.00532832  0.72331892  1
  O2-  O123  1  0.24836469  0.49996690  0.05477034  1
  O2-  O124  1  0.25790420  0.49372349  0.39691432  1
  O2-  O125  1  0.25236592  0.50446684  0.73061257  1
  O2-  O126  1  0.75020705  0.00834693  0.06150992  1
  O2-  O127  1  0.74465860  0.00530309  0.39166740  1
  O2-  O128  1  0.74791359  0.00392048  0.72306899  1
  O2-  O129  1  0.74424098  0.49612849  0.06193527  1
  O2-  O130  1  0.74854122  0.49586006  0.39390887  1
  O2-  O131  1  0.75263361  0.50514013  0.72767001  1
  O2-  O132  1  0.00092723  0.26024286  0.27358362  1
  O2-  O133  1  -0.00086913  0.25927793  0.60554431  1
  O2-  O134  1  -0.00635051  0.25375517  0.93870337  1
  O2-  O135  1  -0.00168960  0.74941739  0.27702280  1
  O2-  O136  1  0.00444505  0.74336602  0.60326100  1
  O2-  O137  1  0.00176615  0.74849133  0.93803424  1
  O2-  O138  1  0.50390172  0.25146412  0.26989301  1
  O2-  O139  1  0.51105827  0.24857656  0.60656465  1
  O2-  O140  1  0.50568556  0.25348985  0.93313261  1
  O2-  O141  1  0.49601095  0.74682241  0.27687772  1
  O2-  O142  1  0.49559386  0.74942332  0.59881695  1
  O2-  O143  1  0.50188218  0.75460694  0.93854823  1
  O2-  O144  1  0.06818599  0.18060158  0.09915726  1
  O2-  O145  1  0.06660855  0.17804871  0.43130062  1
  O2-  O146  1  0.06845962  0.17780458  0.76477522  1
  O2-  O147  1  0.07275245  0.67455031  0.10156982  1
  O2-  O148  1  0.06733804  0.68246317  0.42683120  1
  O2-  O149  1  0.07270728  0.67488683  0.75307220  1
  O2-  O150  1  0.56937842  0.18004218  0.09768360  1
  O2-  O151  1  0.57269579  0.17790043  0.43309880  1
  O2-  O152  1  0.57339213  0.17552795  0.75753652  1
  O2-  O153  1  0.57052162  0.68144958  0.10125285  1
  O2-  O154  1  0.57521090  0.68457682  0.42271692  1
  O2-  O155  1  0.57254521  0.68409881  0.76274714  1
  O2-  O156  1  0.17914650  0.43009676  0.23289718  1
  O2-  O157  1  0.18416890  0.42610889  0.56967376  1
  O2-  O158  1  0.18066591  0.42616469  0.90828699  1
  O2-  O159  1  0.17619100  0.92774790  0.23533666  1
  O2-  O160  1  0.17539292  0.93292373  0.57640717  1
  O2-  O161  1  0.17881459  0.93146915  0.89804729  1
  O2-  O162  1  0.68329471  0.42824369  0.24196291  1
  O2-  O163  1  0.68194918  0.42875959  0.56688505  1
  O2-  O164  1  0.67744368  0.42786885  0.91211922  1
  O2-  O165  1  0.67813310  0.92704911  0.24571590  1
  O2-  O166  1  0.68103067  0.93269840  0.57488562  1
  O2-  O167  1  0.68160148  0.93002116  0.89972234  1
  O2-  O168  1  0.42763578  0.32200175  0.09587931  1
  O2-  O169  1  0.43135763  0.32110435  0.43057882  1
  O2-  O170  1  0.43002222  0.31599430  0.76388948  1
  O2-  O171  1  0.42434627  0.81691151  0.10284354  1
  O2-  O172  1  0.42934256  0.82103494  0.42404053  1
  O2-  O173  1  0.42878155  0.82538768  0.76282945  1
  O2-  O174  1  0.92945627  0.32499748  0.08942037  1
  O2-  O175  1  0.92317110  0.32057017  0.42344306  1
  O2-  O176  1  0.92612480  0.31955071  0.75695440  1
  O2-  O177  1  0.93039494  0.81923645  0.10200393  1
  O2-  O178  1  0.92771756  0.82118890  0.42282853  1
  O2-  O179  1  0.93120546  0.82018023  0.76404726  1
  O2-  O180  1  0.32393530  0.06467544  0.24458739  1
  O2-  O181  1  0.32039611  0.06935819  0.57615487  1
  O2-  O182  1  0.31759393  0.07565139  0.91182893  1
  O2-  O183  1  0.32040481  0.57625648  0.23424618  1
  O2-  O184  1  0.32019853  0.57168852  0.58033954  1
  O2-  O185  1  0.32004713  0.57019153  0.90710766  1
  O2-  O186  1  0.82500022  0.06809180  0.24461286  1
  O2-  O187  1  0.82301512  0.06961054  0.57615163  1
  O2-  O188  1  0.82547655  0.07090615  0.91218854  1
  O2-  O189  1  0.82092300  0.57552166  0.23646060  1
  O2-  O190  1  0.81998224  0.57376566  0.57917612  1
  O2-  O191  1  0.81902457  0.56859077  0.90044499  1
  O2-  O192  1  0.03146897  0.08432998  0.26554293  1
  O2-  O193  1  0.03487545  0.08662263  0.59610178  1
  O2-  O194  1  0.03735115  0.08454373  0.93101901  1
  O2-  O195  1  0.04305110  0.58656639  0.27697279  1
  O2-  O196  1  0.04578783  0.57983784  0.60294167  1
  O2-  O197  1  0.04260332  0.57732838  0.93337432  1
  O2-  O198  1  0.54177739  0.07806194  0.26785593  1
  O2-  O199  1  0.54850761  0.08489312  0.60542077  1
  O2-  O200  1  0.54212908  0.08153193  0.93060845  1
  O2-  O201  1  0.55461839  0.58787761  0.27112140  1
  O2-  O202  1  0.54385630  0.58163054  0.59594838  1
  O2-  O203  1  0.54432913  0.58291691  0.93346340  1
  O2-  O204  1  0.16801201  0.20144997  0.26298935  1
  O2-  O205  1  0.16736872  0.20804665  0.59798400  1
  O2-  O206  1  0.16390697  0.21079696  0.93034513  1
  O2-  O207  1  0.16220010  0.70836502  0.27664947  1
  O2-  O208  1  0.16619960  0.69872822  0.60160317  1
  O2-  O209  1  0.16882095  0.70160712  0.93082925  1
  O2-  O210  1  0.67383534  0.19795077  0.26682691  1
  O2-  O211  1  0.67224642  0.19930861  0.61032842  1
  O2-  O212  1  0.67516645  0.19801723  0.93517540  1
  O2-  O213  1  0.66277086  0.71731553  0.27143654  1
  O2-  O214  1  0.66674523  0.71207432  0.59418989  1
  O2-  O215  1  0.66989066  0.70898390  0.93435815  1
  O2-  O216  1  0.08623481  0.44928637  0.06006164  1
  O2-  O217  1  0.08477404  0.45548926  0.40329621  1
  O2-  O218  1  0.08219160  0.45320186  0.73562054  1
  O2-  O219  1  0.08309209  0.96142024  0.06583527  1
  O2-  O220  1  0.07886892  0.96185955  0.40187201  1
  O2-  O221  1  0.08653886  0.96267048  0.72769285  1
  O2-  O222  1  0.58073162  0.45269604  0.06143825  1
  O2-  O223  1  0.58737553  0.45412502  0.39260194  1
  O2-  O224  1  0.58130547  0.46030249  0.73319160  1
  O2-  O225  1  0.58056903  0.95975208  0.06791553  1
  O2-  O226  1  0.58412951  0.95431136  0.39795963  1
  O2-  O227  1  0.58677736  0.95477156  0.72688402  1
  O2-  O228  1  0.21051506  0.33542899  0.05999247  1
  O2-  O229  1  0.20717017  0.32462539  0.39617081  1
  O2-  O230  1  0.21468760  0.32980423  0.73445833  1
  O2-  O231  1  0.20752558  0.83016134  0.06489944  1
  O2-  O232  1  0.20596870  0.83540463  0.40614763  1
  O2-  O233  1  0.19732970  0.83376204  0.72509586  1
  O2-  O234  1  0.70087778  0.33310187  0.06308086  1
  O2-  O235  1  0.70621192  0.33297934  0.39311008  1
  O2-  O236  1  0.70986379  0.33389468  0.73707760  1
  O2-  O237  1  0.71151561  0.83628945  0.07048540  1
  O2-  O238  1  0.71033325  0.84185050  0.40147661  1
  O2-  O239  1  0.71197947  0.83902719  0.72493766  1
  O2-  O240  1  0.45753611  0.42290982  0.26452752  1
  O2-  O241  1  0.45719192  0.41711539  0.59880981  1
  O2-  O242  1  0.45415148  0.41963778  0.92776714  1
  O2-  O243  1  0.45493042  0.90995212  0.27141931  1
  O2-  O244  1  0.45826938  0.92066082  0.59478860  1
  O2-  O245  1  0.44723680  0.92306624  0.93979457  1
  O2-  O246  1  0.95057619  0.42133515  0.27674154  1
  O2-  O247  1  0.94687685  0.41958647  0.60892587  1
  O2-  O248  1  0.95267865  0.41570375  0.93535500  1
  O2-  O249  1  0.95389148  0.91291568  0.27124788  1
  O2-  O250  1  0.96345187  0.91403226  0.59420584  1
  O2-  O251  1  0.95633476  0.91807687  0.93355167  1
  O2-  O252  1  0.33320394  0.29290333  0.26217766  1
  O2-  O253  1  0.33754144  0.28198709  0.59662631  1
  O2-  O254  1  0.33348041  0.28735496  0.92810090  1
  O2-  O255  1  0.33227669  0.79206961  0.27619374  1
  O2-  O256  1  0.32604970  0.79823545  0.59833338  1
  O2-  O257  1  0.33117011  0.79050107  0.93148266  1
  O2-  O258  1  0.83758395  0.29544273  0.26775778  1
  O2-  O259  1  0.83515025  0.29293134  0.60395719  1
  O2-  O260  1  0.83222310  0.30082981  0.93889421  1
  O2-  O261  1  0.83418337  0.79364733  0.27322591  1
  O2-  O262  1  0.83559063  0.79168159  0.59404387  1
  O2-  O263  1  0.83255470  0.79045814  0.93468822  1
  O2-  O264  1  0.41532043  0.05479520  0.06332066  1
  O2-  O265  1  0.41391551  0.03968397  0.39899951  1
  O2-  O266  1  0.41427612  0.04402681  0.72863223  1
  O2-  O267  1  0.41237481  0.54186923  0.05977051  1
  O2-  O268  1  0.42650008  0.55174818  0.39797308  1
  O2-  O269  1  0.41590638  0.54736681  0.72939428  1
  O2-  O270  1  0.91471823  0.04246616  0.06596833  1
  O2-  O271  1  0.90865542  0.03772250  0.40055416  1
  O2-  O272  1  0.91344280  0.03567654  0.72807104  1
  O2-  O273  1  0.91616158  0.53743078  0.06882955  1
  O2-  O274  1  0.91658039  0.54570897  0.40750874  1
  O2-  O275  1  0.91530998  0.55194363  0.73035653  1
  O2-  O276  1  0.28818188  0.16545133  0.06437542  1
  O2-  O277  1  0.29968539  0.16458812  0.39256500  1
  O2-  O278  1  0.28985437  0.15882938  0.72994858  1
  O2-  O279  1  0.29362148  0.66146287  0.06076821  1
  O2-  O280  1  0.29013755  0.66581057  0.40689668  1
  O2-  O281  1  0.29577237  0.66773616  0.72996049  1
  O2-  O282  1  0.80439766  0.16886425  0.06337680  1
  O2-  O283  1  0.79805282  0.16498187  0.39651352  1
  O2-  O284  1  0.80357490  0.16294240  0.73059782  1
  O2-  O285  1  0.79025349  0.66609360  0.06964853  1
  O2-  O286  1  0.78702601  0.66864829  0.40464386  1
  O2-  O287  1  0.79297614  0.66934554  0.72780370  1
