# generated using pymatgen
data_Ca2Al2SiO7
_symmetry_space_group_name_H-M   'P 1'
_cell_length_a   15.45980350
_cell_length_b   15.45926648
_cell_length_c   15.28433825
_cell_angle_alpha   90.00583824
_cell_angle_beta   89.98480098
_cell_angle_gamma   90.01147344
_symmetry_Int_Tables_number   1
_chemical_formula_structural   Ca2Al2SiO7
_chemical_formula_sum   'Ca48 Al48 Si24 O168'
_cell_volume   3652.91416184
_cell_formula_units_Z   24
loop_
 _symmetry_equiv_pos_site_id
 _symmetry_equiv_pos_as_xyz
  1  'x, y, z'
loop_
 _atom_type_symbol
 _atom_type_oxidation_number
  Ca2+  2.0
  Al0+  0.0
  Si0+  0.0
  O2-  -2.0
loop_
 _atom_site_type_symbol
 _atom_site_label
 _atom_site_symmetry_multiplicity
 _atom_site_fract_x
 _atom_site_fract_y
 _atom_site_fract_z
 _atom_site_occupancy
  Ca2+  Ca0  1  0.17129226  0.07736451  0.17611566  1
  Ca2+  Ca1  1  0.15892936  0.07604669  0.49669548  1
  Ca2+  Ca2  1  0.16872506  0.07018492  0.84175854  1
  Ca2+  Ca3  1  0.18039531  0.58131214  0.16944541  1
  Ca2+  Ca4  1  0.17790672  0.59023248  0.50464611  1
  Ca2+  Ca5  1  0.17410888  0.58762703  0.83611477  1
  Ca2+  Ca6  1  0.67195838  0.07582740  0.17685137  1
  Ca2+  Ca7  1  0.67174056  0.08005960  0.49519947  1
  Ca2+  Ca8  1  0.66738384  0.08314839  0.83679556  1
  Ca2+  Ca9  1  0.66651846  0.57329470  0.17130624  1
  Ca2+  Ca10  1  0.67237622  0.58000631  0.49898948  1
  Ca2+  Ca11  1  0.68215418  0.57717479  0.84111612  1
  Ca2+  Ca12  1  0.07488906  0.32745238  0.16438625  1
  Ca2+  Ca13  1  0.07034482  0.33001376  0.48915119  1
  Ca2+  Ca14  1  0.07119402  0.33999712  0.82928985  1
  Ca2+  Ca15  1  0.08440622  0.83956244  0.16749858  1
  Ca2+  Ca16  1  0.08552735  0.83177318  0.49506816  1
  Ca2+  Ca17  1  0.08901465  0.82934782  0.82874208  1
  Ca2+  Ca18  1  0.57719120  0.33967448  0.16411842  1
  Ca2+  Ca19  1  0.57869060  0.33571611  0.48999874  1
  Ca2+  Ca20  1  0.58031897  0.34044033  0.83873540  1
  Ca2+  Ca21  1  0.58177370  0.82683016  0.16265850  1
  Ca2+  Ca22  1  0.58453560  0.82347753  0.48763851  1
  Ca2+  Ca23  1  0.57193775  0.83324663  0.83182042  1
  Ca2+  Ca24  1  0.34520630  0.42362322  0.17376237  1
  Ca2+  Ca25  1  0.33698185  0.42640989  0.50001031  1
  Ca2+  Ca26  1  0.33596312  0.42813717  0.84119170  1
  Ca2+  Ca27  1  0.32716983  0.92489867  0.17149587  1
  Ca2+  Ca28  1  0.32132022  0.92142994  0.50138921  1
  Ca2+  Ca29  1  0.32278547  0.91769995  0.84519769  1
  Ca2+  Ca30  1  0.82506377  0.41194665  0.17013451  1
  Ca2+  Ca31  1  0.83079351  0.41335563  0.50407676  1
  Ca2+  Ca32  1  0.83634823  0.42332558  0.84231868  1
  Ca2+  Ca33  1  0.83131836  0.92147226  0.18153123  1
  Ca2+  Ca34  1  0.83681195  0.91747703  0.49354264  1
  Ca2+  Ca35  1  0.83137366  0.91920985  0.83793861  1
  Ca2+  Ca36  1  0.40919932  0.17414365  0.16171707  1
  Ca2+  Ca37  1  0.41436734  0.17378148  0.48908103  1
  Ca2+  Ca38  1  0.41248917  0.17035276  0.83629675  1
  Ca2+  Ca39  1  0.41922305  0.66683293  0.16289941  1
  Ca2+  Ca40  1  0.42057705  0.66290124  0.49019019  1
  Ca2+  Ca41  1  0.40766030  0.67009234  0.83275085  1
  Ca2+  Ca42  1  0.91646424  0.17175604  0.16758783  1
  Ca2+  Ca43  1  0.91994883  0.17373346  0.48791439  1
  Ca2+  Ca44  1  0.91592046  0.18085719  0.82940619  1
  Ca2+  Ca45  1  0.91341185  0.67336595  0.16297783  1
  Ca2+  Ca46  1  0.92320002  0.66814401  0.49478621  1
  Ca2+  Ca47  1  0.92356249  0.66049432  0.82462791  1
  Al0+  Al48  1  -0.00085655  -0.00101339  0.00065313  1
  Al0+  Al49  1  -0.00005875  -0.00052413  0.33381831  1
  Al0+  Al50  1  -0.00180691  0.00077363  0.67346167  1
  Al0+  Al51  1  0.00175943  0.50245780  0.00116564  1
  Al0+  Al52  1  0.00109745  0.50112648  0.32605974  1
  Al0+  Al53  1  0.00088430  0.50151650  0.65811712  1
  Al0+  Al54  1  0.49896048  -0.00060309  -0.00273092  1
  Al0+  Al55  1  0.49883460  -0.00076313  0.34216411  1
  Al0+  Al56  1  0.49953325  0.00108363  0.66537034  1
  Al0+  Al57  1  0.50337051  0.49972920  -0.00019388  1
  Al0+  Al58  1  0.50317759  0.50068476  0.33481533  1
  Al0+  Al59  1  0.50071943  0.50117871  0.67176137  1
  Al0+  Al60  1  0.24918444  0.24936706  -0.00652369  1
  Al0+  Al61  1  0.24833717  0.25234814  0.32915590  1
  Al0+  Al62  1  0.24958332  0.24992941  0.66636356  1
  Al0+  Al63  1  0.24959973  0.74939471  0.00518521  1
  Al0+  Al64  1  0.25187947  0.75035854  0.33971907  1
  Al0+  Al65  1  0.24947393  0.75194110  0.66934302  1
  Al0+  Al66  1  0.75002886  0.24983613  -0.00234206  1
  Al0+  Al67  1  0.74730930  0.24933392  0.33837014  1
  Al0+  Al68  1  0.74671516  0.24870036  0.66392265  1
  Al0+  Al69  1  0.75053613  0.74974514  -0.00095393  1
  Al0+  Al70  1  0.75043852  0.74726307  0.32765113  1
  Al0+  Al71  1  0.74829353  0.74990524  0.67162795  1
  Al0+  Al72  1  0.07159490  0.68157063  0.65250732  1
  Al0+  Al73  1  0.82509677  0.57271995  0.01660838  1
  Al0+  Al74  1  0.32125846  0.56987572  0.68149119  1
  Al0+  Al75  1  0.67819487  0.92461427  0.34721894  1
  Al0+  Al76  1  0.32074847  0.07566860  0.34897367  1
  Al0+  Al77  1  0.68194487  0.42853919  0.01568267  1
  Al0+  Al78  1  0.17885574  0.92967049  0.35027097  1
  Al0+  Al79  1  0.07046305  0.17852944  0.31762191  1
  Al0+  Al80  1  0.17924323  0.93144367  0.68241637  1
  Al0+  Al81  1  0.42824166  0.32244173  0.98522989  1
  Al0+  Al82  1  0.82196246  0.56978756  0.67751467  1
  Al0+  Al83  1  0.92991189  0.32042421  0.98594902  1
  Al0+  Al84  1  0.82066556  0.07063875  0.34825532  1
  Al0+  Al85  1  0.92473082  0.32244491  0.31665360  1
  Al0+  Al86  1  0.68104617  0.42986703  0.34800538  1
  Al0+  Al87  1  0.93156785  0.81792413  0.32105070  1
  Al0+  Al88  1  0.32109568  0.56877461  0.01407504  1
  Al0+  Al89  1  0.43040766  0.32022626  0.32156961  1
  Al0+  Al90  1  0.32108100  0.56859264  0.34678759  1
  Al0+  Al91  1  0.17791093  0.92840060  0.01763575  1
  Al0+  Al92  1  0.42941664  0.81928811  0.98775960  1
  Al0+  Al93  1  0.57109003  0.67892332  0.31908094  1
  Al0+  Al94  1  0.92882222  0.32127245  0.65198147  1
  Al0+  Al95  1  0.32180173  0.07248705  0.01434330  1
  Si0+  Si96  1  0.07100285  0.17577428  0.98076291  1
  Si0+  Si97  1  0.07102878  0.17644678  0.65144054  1
  Si0+  Si98  1  0.07696775  0.67819931  0.31442029  1
  Si0+  Si99  1  0.42880582  0.82139593  0.65097972  1
  Si0+  Si100  1  0.81846723  0.07155539  0.68319135  1
  Si0+  Si101  1  0.67784612  0.92882005  0.01263261  1
  Si0+  Si102  1  0.92490739  0.82366881  0.65189909  1
  Si0+  Si103  1  0.42977247  0.32222015  0.65263273  1
  Si0+  Si104  1  0.32441835  0.07391722  0.68485860  1
  Si0+  Si105  1  0.67832891  0.42618887  0.68462472  1
  Si0+  Si106  1  0.17720292  0.42692813  0.01485681  1
  Si0+  Si107  1  0.57185603  0.17705710  0.98308249  1
  Si0+  Si108  1  0.56992546  0.17714183  0.64919128  1
  Si0+  Si109  1  0.42741636  0.82264858  0.31855426  1
  Si0+  Si110  1  0.81956836  0.06990922  0.01318305  1
  Si0+  Si111  1  0.17523555  0.42874189  0.34887259  1
  Si0+  Si112  1  0.57099118  0.68019789  0.65275072  1
  Si0+  Si113  1  0.07071533  0.68099539  0.98563649  1
  Si0+  Si114  1  0.57376941  0.67754216  0.97979019  1
  Si0+  Si115  1  0.82455655  0.57217284  0.34869121  1
  Si0+  Si116  1  0.17811081  0.42701563  0.68100994  1
  Si0+  Si117  1  0.92718887  0.82231858  0.98374554  1
  Si0+  Si118  1  0.57055367  0.17507225  0.31815999  1
  Si0+  Si119  1  0.67687609  0.92835834  0.68318260  1
  O2-  O120  1  0.24801119  0.00328958  0.06454712  1
  O2-  O121  1  0.24917804  0.00382645  0.40002516  1
  O2-  O122  1  0.25391090  0.00678247  0.72797328  1
  O2-  O123  1  0.25323743  0.48730783  0.05945582  1
  O2-  O124  1  0.24359040  0.49740729  0.39442313  1
  O2-  O125  1  0.24764979  0.49371857  0.72745614  1
  O2-  O126  1  0.75050004  -0.00278750  0.05459396  1
  O2-  O127  1  0.74973739  -0.00332577  0.39846110  1
  O2-  O128  1  0.74882817  -0.00135862  0.72574946  1
  O2-  O129  1  0.75423701  0.49989857  0.06575658  1
  O2-  O130  1  0.76173079  0.49850705  0.39395690  1
  O2-  O131  1  0.75184697  0.49129283  0.72587126  1
  O2-  O132  1  -0.00261908  0.25019995  0.26821278  1
  O2-  O133  1  0.00471985  0.24714490  0.60715778  1
  O2-  O134  1  0.00566298  0.24788416  0.93624369  1
  O2-  O135  1  0.00657412  0.74544492  0.27089430  1
  O2-  O136  1  -0.00566673  0.75547921  0.60873177  1
  O2-  O137  1  -0.00273884  0.75015515  0.94259793  1
  O2-  O138  1  0.49920983  0.24035796  0.27389962  1
  O2-  O139  1  0.49808345  0.24870953  0.61014230  1
  O2-  O140  1  0.50200801  0.24541666  0.93905764  1
  O2-  O141  1  0.49875643  0.75682144  0.27424184  1
  O2-  O142  1  0.49947339  0.74998617  0.60898480  1
  O2-  O143  1  0.50250634  0.74442730  0.93617575  1
  O2-  O144  1  0.06835086  0.17418761  0.08566993  1
  O2-  O145  1  0.06804325  0.18087935  0.43205906  1
  O2-  O146  1  0.06822649  0.17600885  0.75712625  1
  O2-  O147  1  0.07124700  0.68183320  0.09029422  1
  O2-  O148  1  0.07702204  0.67868623  0.42029860  1
  O2-  O149  1  0.07182027  0.68244375  0.76607039  1
  O2-  O150  1  0.57499555  0.17383309  0.08782566  1
  O2-  O151  1  0.57058106  0.17798540  0.42439383  1
  O2-  O152  1  0.57193887  0.17386597  0.75424500  1
  O2-  O153  1  0.57517191  0.67970282  0.08507322  1
  O2-  O154  1  0.56960174  0.67846576  0.43324138  1
  O2-  O155  1  0.57160675  0.68307292  0.75767565  1
  O2-  O156  1  0.17529714  0.43064513  0.24326165  1
  O2-  O157  1  0.18109678  0.42621367  0.57576763  1
  O2-  O158  1  0.17441050  0.43258002  0.90876917  1
  O2-  O159  1  0.18148055  0.92865355  0.23721883  1
  O2-  O160  1  0.17939549  0.93184372  0.57004939  1
  O2-  O161  1  0.17812721  0.92813434  0.90333869  1
  O2-  O162  1  0.67830002  0.43149736  0.23558831  1
  O2-  O163  1  0.67507317  0.42708798  0.57926372  1
  O2-  O164  1  0.68372614  0.42979825  0.90131407  1
  O2-  O165  1  0.67965432  0.92670776  0.23312746  1
  O2-  O166  1  0.67571543  0.92731497  0.57898009  1
  O2-  O167  1  0.67909442  0.93054181  0.90663378  1
  O2-  O168  1  0.43157675  0.32335478  0.09767901  1
  O2-  O169  1  0.43388816  0.32196796  0.43556140  1
  O2-  O170  1  0.43180934  0.32243436  0.75765640  1
  O2-  O171  1  0.43380998  0.81914160  0.10021594  1
  O2-  O172  1  0.42765149  0.81885404  0.42483272  1
  O2-  O173  1  0.43062935  0.82161934  0.75641941  1
  O2-  O174  1  0.92859555  0.31626306  0.09801097  1
  O2-  O175  1  0.92668298  0.32134598  0.43080203  1
  O2-  O176  1  0.92906095  0.32039747  0.76559533  1
  O2-  O177  1  0.92521838  0.82419011  0.08829064  1
  O2-  O178  1  0.93122688  0.81480926  0.43457645  1
  O2-  O179  1  0.92374160  0.82352876  0.75799586  1
  O2-  O180  1  0.32132521  0.07374926  0.23572522  1
  O2-  O181  1  0.32761465  0.07369626  0.57988986  1
  O2-  O182  1  0.32068182  0.06884278  0.89995825  1
  O2-  O183  1  0.32131824  0.56810466  0.23376619  1
  O2-  O184  1  0.32434921  0.56832166  0.56865462  1
  O2-  O185  1  0.31658280  0.57072345  0.90054453  1
  O2-  O186  1  0.81785214  0.06938952  0.23410683  1
  O2-  O187  1  0.81814678  0.07175452  0.57897443  1
  O2-  O188  1  0.81787123  0.06855239  0.90718721  1
  O2-  O189  1  0.82135708  0.57412089  0.24352604  1
  O2-  O190  1  0.81780797  0.57245749  0.56488722  1
  O2-  O191  1  0.82524399  0.57183132  0.90213207  1
  O2-  O192  1  0.04267343  0.08006590  0.26556336  1
  O2-  O193  1  0.04076259  0.08351358  0.60652659  1
  O2-  O194  1  0.03940173  0.08350996  0.93340486  1
  O2-  O195  1  0.05483417  0.58448857  0.26769635  1
  O2-  O196  1  0.04441682  0.58599474  0.59502579  1
  O2-  O197  1  0.04594266  0.58902549  0.93642331  1
  O2-  O198  1  0.55020744  0.07890770  0.27529881  1
  O2-  O199  1  0.54360247  0.08518757  0.60090979  1
  O2-  O200  1  0.54652845  0.08436010  0.93309712  1
  O2-  O201  1  0.53607350  0.58485897  0.26441371  1
  O2-  O202  1  0.54434332  0.58683016  0.60775368  1
  O2-  O203  1  0.55123778  0.58345829  0.93429607  1
  O2-  O204  1  0.16731703  0.20845810  0.26278347  1
  O2-  O205  1  0.16683477  0.19727114  0.60753377  1
  O2-  O206  1  0.16526148  0.19612384  0.93364492  1
  O2-  O207  1  0.17032321  0.70691193  0.26970453  1
  O2-  O208  1  0.16774430  0.71509303  0.59874810  1
  O2-  O209  1  0.16156136  0.71145651  0.93733527  1
  O2-  O210  1  0.66349092  0.20224095  0.27276654  1
  O2-  O211  1  0.66089543  0.20500770  0.60048625  1
  O2-  O212  1  0.66403081  0.20472273  0.93316372  1
  O2-  O213  1  0.66649583  0.70666043  0.26216271  1
  O2-  O214  1  0.66233811  0.71006791  0.60528251  1
  O2-  O215  1  0.66644840  0.70753115  0.93228357  1
  O2-  O216  1  0.08802449  0.45989641  0.06444712  1
  O2-  O217  1  0.08114386  0.45436918  0.39452552  1
  O2-  O218  1  0.08444359  0.45558393  0.72506212  1
  O2-  O219  1  0.07743561  0.95484587  0.06699754  1
  O2-  O220  1  0.08012648  0.95610721  0.40313322  1
  O2-  O221  1  0.08147953  0.95888498  0.73766292  1
  O2-  O222  1  0.58374857  0.45789844  0.06723166  1
  O2-  O223  1  0.58818176  0.46760084  0.40517251  1
  O2-  O224  1  0.58728264  0.45741177  0.73289630  1
  O2-  O225  1  0.58711986  0.95745474  0.05955008  1
  O2-  O226  1  0.58095402  0.95073987  0.40378095  1
  O2-  O227  1  0.58557039  0.95959559  0.73102522  1
  O2-  O228  1  0.19311075  0.32939651  0.05408757  1
  O2-  O229  1  0.19984145  0.33546264  0.39479792  1
  O2-  O230  1  0.19980571  0.33256501  0.72828673  1
  O2-  O231  1  0.20739738  0.83134221  0.07030074  1
  O2-  O232  1  0.20995883  0.83250335  0.40494976  1
  O2-  O233  1  0.21264930  0.83595718  0.73689527  1
  O2-  O234  1  0.70776876  0.32854002  0.06614778  1
  O2-  O235  1  0.70385962  0.33234469  0.40392465  1
  O2-  O236  1  0.69802165  0.33027535  0.72853019  1
  O2-  O237  1  0.70285524  0.83589725  0.05758644  1
  O2-  O238  1  0.70941574  0.82639378  0.39934606  1
  O2-  O239  1  0.70301584  0.83757153  0.73370072  1
  O2-  O240  1  0.46879998  0.41424858  0.26839193  1
  O2-  O241  1  0.46084230  0.41398734  0.60650419  1
  O2-  O242  1  0.46385810  0.41770654  0.92926379  1
  O2-  O243  1  0.44983785  0.91819013  0.27618369  1
  O2-  O244  1  0.45680006  0.91370821  0.60499645  1
  O2-  O245  1  0.46170221  0.91455665  0.92975016  1
  O2-  O246  1  0.95209809  0.42121211  0.26386874  1
  O2-  O247  1  0.95783721  0.41668148  0.59579363  1
  O2-  O248  1  0.96212680  0.41853112  0.93400293  1
  O2-  O249  1  0.95826195  0.91540015  0.26723458  1
  O2-  O250  1  0.94964915  0.91879934  0.60908367  1
  O2-  O251  1  0.95478785  0.91395031  0.93444699  1
  O2-  O252  1  0.33207794  0.29959180  0.26761844  1
  O2-  O253  1  0.33621273  0.29806177  0.60662157  1
  O2-  O254  1  0.33117965  0.29601777  0.92793778  1
  O2-  O255  1  0.33518651  0.79320143  0.27272534  1
  O2-  O256  1  0.33711741  0.79381044  0.60493884  1
  O2-  O257  1  0.33231203  0.78697857  0.93422517  1
  O2-  O258  1  0.82563931  0.29105214  0.26746968  1
  O2-  O259  1  0.83084572  0.28917120  0.60149871  1
  O2-  O260  1  0.83433096  0.28697870  0.92992505  1
  O2-  O261  1  0.83620861  0.78751560  0.26394583  1
  O2-  O262  1  0.83033524  0.79865957  0.60770694  1
  O2-  O263  1  0.83459134  0.79751795  0.93484178  1
  O2-  O264  1  0.42092598  0.04377813  0.06471423  1
  O2-  O265  1  0.41868958  0.04853907  0.40452967  1
  O2-  O266  1  0.41817939  0.04718142  0.73089014  1
  O2-  O267  1  0.42065847  0.54465839  0.06345320  1
  O2-  O268  1  0.41610116  0.53483575  0.40193644  1
  O2-  O269  1  0.41770601  0.54059642  0.73747339  1
  O2-  O270  1  0.91119297  0.04307737  0.05961327  1
  O2-  O271  1  0.91775560  0.04148824  0.40236773  1
  O2-  O272  1  0.90934926  0.04610930  0.73381558  1
  O2-  O273  1  0.92454893  0.54977538  0.06808037  1
  O2-  O274  1  0.92156443  0.55375721  0.39063665  1
  O2-  O275  1  0.92092773  0.54268380  0.72890740  1
  O2-  O276  1  0.29792483  0.17414041  0.06142956  1
  O2-  O277  1  0.29304837  0.17520827  0.40054704  1
  O2-  O278  1  0.30072316  0.16902283  0.72952822  1
  O2-  O279  1  0.28579629  0.66243352  0.06926081  1
  O2-  O280  1  0.29317001  0.66506057  0.40261331  1
  O2-  O281  1  0.28885649  0.66655074  0.73408915  1
  O2-  O282  1  0.79038159  0.16077925  0.05951223  1
  O2-  O283  1  0.78869660  0.16624516  0.40465683  1
  O2-  O284  1  0.78538719  0.16191308  0.73153781  1
  O2-  O285  1  0.79537402  0.67242494  0.06600167  1
  O2-  O286  1  0.79263080  0.66303793  0.39606722  1
  O2-  O287  1  0.78921476  0.66533471  0.73435416  1
