# generated using pymatgen
data_Ca2Al2SiO7
_symmetry_space_group_name_H-M   'P 1'
_cell_length_a   15.46755549
_cell_length_b   15.46942658
_cell_length_c   15.29098609
_cell_angle_alpha   90.00473280
_cell_angle_beta   90.00476161
_cell_angle_gamma   90.02581813
_symmetry_Int_Tables_number   1
_chemical_formula_structural   Ca2Al2SiO7
_chemical_formula_sum   'Ca48 Al48 Si24 O168'
_cell_volume   3658.73828372
_cell_formula_units_Z   24
loop_
 _symmetry_equiv_pos_site_id
 _symmetry_equiv_pos_as_xyz
  1  'x, y, z'
loop_
 _atom_type_symbol
 _atom_type_oxidation_number
  Ca2+  2.0
  Al0+  0.0
  Si0+  0.0
  O2-  -2.0
loop_
 _atom_site_type_symbol
 _atom_site_label
 _atom_site_symmetry_multiplicity
 _atom_site_fract_x
 _atom_site_fract_y
 _atom_site_fract_z
 _atom_site_occupancy
  Ca2+  Ca0  1  0.17647577  0.07246195  0.17817774  1
  Ca2+  Ca1  1  0.17243889  0.06975486  0.50114451  1
  Ca2+  Ca2  1  0.16885626  0.07387677  0.83406588  1
  Ca2+  Ca3  1  0.16429324  0.57849720  0.17503834  1
  Ca2+  Ca4  1  0.17424160  0.58246548  0.50272540  1
  Ca2+  Ca5  1  0.16802651  0.58071697  0.83395129  1
  Ca2+  Ca6  1  0.67239171  0.08080630  0.17105504  1
  Ca2+  Ca7  1  0.66730637  0.08868053  0.49671741  1
  Ca2+  Ca8  1  0.67182934  0.07616624  0.84344680  1
  Ca2+  Ca9  1  0.67787142  0.58558990  0.17083634  1
  Ca2+  Ca10  1  0.67186016  0.58742244  0.50830235  1
  Ca2+  Ca11  1  0.66389404  0.57653497  0.83951532  1
  Ca2+  Ca12  1  0.08575268  0.33688037  0.16079626  1
  Ca2+  Ca13  1  0.08495019  0.34090389  0.49431624  1
  Ca2+  Ca14  1  0.08615437  0.33706291  0.82858008  1
  Ca2+  Ca15  1  0.08858061  0.81961524  0.16429876  1
  Ca2+  Ca16  1  0.09349606  0.82334240  0.49608146  1
  Ca2+  Ca17  1  0.08335933  0.81941733  0.82552400  1
  Ca2+  Ca18  1  0.58909571  0.32720269  0.16415605  1
  Ca2+  Ca19  1  0.57827263  0.33344400  0.49796929  1
  Ca2+  Ca20  1  0.58315485  0.33630825  0.82334966  1
  Ca2+  Ca21  1  0.57090136  0.83866493  0.16120070  1
  Ca2+  Ca22  1  0.57095164  0.82750803  0.49696177  1
  Ca2+  Ca23  1  0.57561479  0.83062750  0.82724272  1
  Ca2+  Ca24  1  0.32032070  0.42567205  0.17567815  1
  Ca2+  Ca25  1  0.32845127  0.42724566  0.50955758  1
  Ca2+  Ca26  1  0.32878165  0.42220824  0.83395016  1
  Ca2+  Ca27  1  0.33188732  0.91454096  0.17751184  1
  Ca2+  Ca28  1  0.32853140  0.90999326  0.50081125  1
  Ca2+  Ca29  1  0.33186539  0.90481057  0.83207684  1
  Ca2+  Ca30  1  0.83026913  0.42812746  0.16560684  1
  Ca2+  Ca31  1  0.82626116  0.42349254  0.50096166  1
  Ca2+  Ca32  1  0.81938587  0.42247442  0.83921212  1
  Ca2+  Ca33  1  0.82862765  0.92402436  0.17046424  1
  Ca2+  Ca34  1  0.83665684  0.92411682  0.50171537  1
  Ca2+  Ca35  1  0.82530810  0.92140164  0.84324411  1
  Ca2+  Ca36  1  0.42086425  0.16276704  0.16682442  1
  Ca2+  Ca37  1  0.41607655  0.17423000  0.49154753  1
  Ca2+  Ca38  1  0.41827013  0.17818937  0.82590208  1
  Ca2+  Ca39  1  0.40792848  0.67760823  0.16539275  1
  Ca2+  Ca40  1  0.40844014  0.67160111  0.49822045  1
  Ca2+  Ca41  1  0.42011273  0.67436055  0.82309184  1
  Ca2+  Ca42  1  0.91420842  0.16393000  0.16275923  1
  Ca2+  Ca43  1  0.91820269  0.16960932  0.49196303  1
  Ca2+  Ca44  1  0.91565188  0.16719925  0.83050749  1
  Ca2+  Ca45  1  0.92591335  0.65534252  0.16304673  1
  Ca2+  Ca46  1  0.92927616  0.66122968  0.49324610  1
  Ca2+  Ca47  1  0.92745896  0.65398715  0.83273267  1
  Al0+  Al48  1  0.00241363  -0.00117338  0.00178310  1
  Al0+  Al49  1  -0.00136964  0.00050472  0.33963202  1
  Al0+  Al50  1  0.00246835  0.00152326  0.67119979  1
  Al0+  Al51  1  -0.00118611  0.49608785  -0.00053297  1
  Al0+  Al52  1  -0.00425399  0.49920340  0.33563547  1
  Al0+  Al53  1  -0.00078206  0.49838588  0.66372932  1
  Al0+  Al54  1  0.49952653  0.00214522  -0.00428977  1
  Al0+  Al55  1  0.50130940  0.00185465  0.32912319  1
  Al0+  Al56  1  0.50227553  0.00116950  0.66310601  1
  Al0+  Al57  1  0.49683945  0.49953937  0.00641138  1
  Al0+  Al58  1  0.49924969  0.49970211  0.33304458  1
  Al0+  Al59  1  0.50116104  0.49961114  0.66627585  1
  Al0+  Al60  1  0.24954656  0.24873626  0.00207106  1
  Al0+  Al61  1  0.24811881  0.24811920  0.33678604  1
  Al0+  Al62  1  0.25052847  0.24840439  0.66481770  1
  Al0+  Al63  1  0.24922520  0.74900434  -0.00973329  1
  Al0+  Al64  1  0.24843503  0.74734686  0.33017061  1
  Al0+  Al65  1  0.24847970  0.74990641  0.66834357  1
  Al0+  Al66  1  0.75132356  0.25017210  0.00398152  1
  Al0+  Al67  1  0.75002937  0.24954484  0.33193771  1
  Al0+  Al68  1  0.75281028  0.25250717  0.66910297  1
  Al0+  Al69  1  0.74982990  0.75123278  0.00860674  1
  Al0+  Al70  1  0.75017892  0.75145913  0.33837652  1
  Al0+  Al71  1  0.75284846  0.75430299  0.66534366  1
  Al0+  Al72  1  0.32172135  0.57093901  0.34762706  1
  Al0+  Al73  1  0.42910752  0.82106129  0.64983252  1
  Al0+  Al74  1  0.57421793  0.67821497  0.65382654  1
  Al0+  Al75  1  0.81868256  0.57245611  0.34887302  1
  Al0+  Al76  1  0.43034046  0.81781402  0.31982626  1
  Al0+  Al77  1  0.82064626  0.57119816  0.01366143  1
  Al0+  Al78  1  0.81954890  0.07132036  0.34864810  1
  Al0+  Al79  1  0.42852566  0.32103604  0.65333160  1
  Al0+  Al80  1  0.06733525  0.67958581  0.31925991  1
  Al0+  Al81  1  0.82302486  0.06996391  0.01489441  1
  Al0+  Al82  1  0.32132106  0.57198767  0.68335526  1
  Al0+  Al83  1  0.57034463  0.18195180  0.31830190  1
  Al0+  Al84  1  0.43024369  0.82192247  0.98505533  1
  Al0+  Al85  1  0.06813869  0.67797979  0.65135369  1
  Al0+  Al86  1  0.18031128  0.42853779  0.01278623  1
  Al0+  Al87  1  0.32459743  0.07063892  0.34791605  1
  Al0+  Al88  1  0.67563269  0.92898399  0.01549792  1
  Al0+  Al89  1  0.17804060  0.42741604  0.68219135  1
  Al0+  Al90  1  0.06775690  0.67694008  0.98496518  1
  Al0+  Al91  1  0.67989704  0.43111601  0.67792283  1
  Al0+  Al92  1  0.18069700  0.92946470  0.68264268  1
  Al0+  Al93  1  0.67456149  0.42864019  0.01621020  1
  Al0+  Al94  1  0.17679761  0.42877483  0.34743889  1
  Al0+  Al95  1  0.17958964  0.92724136  0.34665118  1
  Si0+  Si96  1  0.57318391  0.67667886  0.98747718  1
  Si0+  Si97  1  0.57558871  0.67649200  0.31634897  1
  Si0+  Si98  1  0.42468365  0.32291404  0.31473998  1
  Si0+  Si99  1  0.07079812  0.17713185  0.31799874  1
  Si0+  Si100  1  0.31993180  0.07199474  0.01302982  1
  Si0+  Si101  1  0.18160012  0.92701614  0.01367769  1
  Si0+  Si102  1  0.82147816  0.07209368  0.68163698  1
  Si0+  Si103  1  0.92930949  0.31875562  0.65044235  1
  Si0+  Si104  1  0.92769068  0.82428211  0.98504272  1
  Si0+  Si105  1  0.92926936  0.31815963  0.98324771  1
  Si0+  Si106  1  0.92586036  0.82493229  0.31692524  1
  Si0+  Si107  1  0.92955245  0.82666300  0.65054250  1
  Si0+  Si108  1  0.42665844  0.32026721  0.98688636  1
  Si0+  Si109  1  0.67686530  0.92891372  0.35245303  1
  Si0+  Si110  1  0.67849547  0.42771700  0.34908327  1
  Si0+  Si111  1  0.57516505  0.17974019  0.65096420  1
  Si0+  Si112  1  0.07114666  0.17714152  0.65081529  1
  Si0+  Si113  1  0.92934028  0.31906702  0.31629235  1
  Si0+  Si114  1  0.57196355  0.18199209  0.98375593  1
  Si0+  Si115  1  0.32015617  0.57399632  0.01676702  1
  Si0+  Si116  1  0.07278840  0.17705593  0.98448237  1
  Si0+  Si117  1  0.32479788  0.07184529  0.68364592  1
  Si0+  Si118  1  0.67921460  0.93011141  0.68112365  1
  Si0+  Si119  1  0.82221092  0.57443968  0.68207122  1
  O2-  O120  1  0.25460223  -0.00403205  0.05504387  1
  O2-  O121  1  0.25441861  -0.00325220  0.39676771  1
  O2-  O122  1  0.25980783  0.00039367  0.72960670  1
  O2-  O123  1  0.25102676  0.50540744  0.05996973  1
  O2-  O124  1  0.25297899  0.49546999  0.39687223  1
  O2-  O125  1  0.24911458  0.49924706  0.73322171  1
  O2-  O126  1  0.75079632  -0.00143474  0.06456425  1
  O2-  O127  1  0.74751919  -0.00411664  0.39742500  1
  O2-  O128  1  0.75047938  0.00158317  0.72310043  1
  O2-  O129  1  0.74314242  0.50486290  0.06393090  1
  O2-  O130  1  0.73819826  0.50351437  0.39427873  1
  O2-  O131  1  0.74782764  0.51173248  0.72523822  1
  O2-  O132  1  0.00351897  0.25095946  0.27421768  1
  O2-  O133  1  0.00414952  0.25175599  0.60831355  1
  O2-  O134  1  -0.00003756  0.24599042  0.94145002  1
  O2-  O135  1  -0.00727992  0.75508079  0.27219513  1
  O2-  O136  1  -0.00619336  0.75450959  0.60633396  1
  O2-  O137  1  -0.00951883  0.75086569  0.93960667  1
  O2-  O138  1  0.49463722  0.25523770  0.26979552  1
  O2-  O139  1  0.50375296  0.24555232  0.60792535  1
  O2-  O140  1  0.50384510  0.25610660  0.94262537  1
  O2-  O141  1  0.50459339  0.74263790  0.27195863  1
  O2-  O142  1  0.49870457  0.74553894  0.60202239  1
  O2-  O143  1  0.50726423  0.74748166  0.94217580  1
  O2-  O144  1  0.07428113  0.17728637  0.08934538  1
  O2-  O145  1  0.06719290  0.17611548  0.42310103  1
  O2-  O146  1  0.06724855  0.17466597  0.75631253  1
  O2-  O147  1  0.06918496  0.67838493  0.09793878  1
  O2-  O148  1  0.06690024  0.67993815  0.43208650  1
  O2-  O149  1  0.06485288  0.67737889  0.76488860  1
  O2-  O150  1  0.57082312  0.18037280  0.08857970  1
  O2-  O151  1  0.57310718  0.18658819  0.43149030  1
  O2-  O152  1  0.57699583  0.18046792  0.75695970  1
  O2-  O153  1  0.57051131  0.67648817  0.09293343  1
  O2-  O154  1  0.57870881  0.67932911  0.42158315  1
  O2-  O155  1  0.57675634  0.68271540  0.76786592  1
  O2-  O156  1  0.17642905  0.43024896  0.23335801  1
  O2-  O157  1  0.17784010  0.42772638  0.56930465  1
  O2-  O158  1  0.18288811  0.42582914  0.90022468  1
  O2-  O159  1  0.17990937  0.92915592  0.23223047  1
  O2-  O160  1  0.17748714  0.93271326  0.57028674  1
  O2-  O161  1  0.18070759  0.92967031  0.90859452  1
  O2-  O162  1  0.68320893  0.42595136  0.24362736  1
  O2-  O163  1  0.68627226  0.42398051  0.56545762  1
  O2-  O164  1  0.67688850  0.42686099  0.90246101  1
  O2-  O165  1  0.67774886  0.93077300  0.24695029  1
  O2-  O166  1  0.67998407  0.93120425  0.57636934  1
  O2-  O167  1  0.67667616  0.93324211  0.90115485  1
  O2-  O168  1  0.42386393  0.31421316  0.09140871  1
  O2-  O169  1  0.42632267  0.32158621  0.42022520  1
  O2-  O170  1  0.42953677  0.31769417  0.76729052  1
  O2-  O171  1  0.42753018  0.82225202  0.09818866  1
  O2-  O172  1  0.43118082  0.81791304  0.43232784  1
  O2-  O173  1  0.43417429  0.82243794  0.76363517  1
  O2-  O174  1  0.93029818  0.31817681  0.08831846  1
  O2-  O175  1  0.92779760  0.31688466  0.42177282  1
  O2-  O176  1  0.92608999  0.31532739  0.75547442  1
  O2-  O177  1  0.93317122  0.82995002  0.09001439  1
  O2-  O178  1  0.92612300  0.82559236  0.42260728  1
  O2-  O179  1  0.93014880  0.83035612  0.75610528  1
  O2-  O180  1  0.32161370  0.06950158  0.23335994  1
  O2-  O181  1  0.32241105  0.07358470  0.57866440  1
  O2-  O182  1  0.31656686  0.07676633  0.90811868  1
  O2-  O183  1  0.31821775  0.57143665  0.23345710  1
  O2-  O184  1  0.31902212  0.57108976  0.57013336  1
  O2-  O185  1  0.32228461  0.57228444  0.91151446  1
  O2-  O186  1  0.81922323  0.07081219  0.23604080  1
  O2-  O187  1  0.82185920  0.07338270  0.57677501  1
  O2-  O188  1  0.82142663  0.07034573  0.90053402  1
  O2-  O189  1  0.82067301  0.56842502  0.23601170  1
  O2-  O190  1  0.82277423  0.57069087  0.57645459  1
  O2-  O191  1  0.82153682  0.56608512  0.89994596  1
  O2-  O192  1  0.03889650  0.08628876  0.27055871  1
  O2-  O193  1  0.03750982  0.08775906  0.60236499  1
  O2-  O194  1  0.04625879  0.08478951  0.93623449  1
  O2-  O195  1  0.03246622  0.58269696  0.26686571  1
  O2-  O196  1  0.03607908  0.58199199  0.59683390  1
  O2-  O197  1  0.03648846  0.57978633  0.93156649  1
  O2-  O198  1  0.54297719  0.08539302  0.26215146  1
  O2-  O199  1  0.55388991  0.08561123  0.60478651  1
  O2-  O200  1  0.54169386  0.09203838  0.93375893  1
  O2-  O201  1  0.55512924  0.58059411  0.27245416  1
  O2-  O202  1  0.55498334  0.57746860  0.60297955  1
  O2-  O203  1  0.54558594  0.58233605  0.94254810  1
  O2-  O204  1  0.16395827  0.20008829  0.27049043  1
  O2-  O205  1  0.16443591  0.19837865  0.60497297  1
  O2-  O206  1  0.16348416  0.20712972  0.93562112  1
  O2-  O207  1  0.16290458  0.70947604  0.26285120  1
  O2-  O208  1  0.16484104  0.71050907  0.60068884  1
  O2-  O209  1  0.16237140  0.71005993  0.92871577  1
  O2-  O210  1  0.66666158  0.21430224  0.26300366  1
  O2-  O211  1  0.66822975  0.20877856  0.60523383  1
  O2-  O212  1  0.66553043  0.20656462  0.93770613  1
  O2-  O213  1  0.66903034  0.70537154  0.27060029  1
  O2-  O214  1  0.67225711  0.71084845  0.60035851  1
  O2-  O215  1  0.66917178  0.69787054  0.94422417  1
  O2-  O216  1  0.08176502  0.45371300  0.06410828  1
  O2-  O217  1  0.07876986  0.45774415  0.39950164  1
  O2-  O218  1  0.07725891  0.45390657  0.73244134  1
  O2-  O219  1  0.09090953  0.95618308  0.06127560  1
  O2-  O220  1  0.08286310  0.95819404  0.40082518  1
  O2-  O221  1  0.08631835  0.96674284  0.73873891  1
  O2-  O222  1  0.57463922  0.44806274  0.06960841  1
  O2-  O223  1  0.58121035  0.44276090  0.39016299  1
  O2-  O224  1  0.58257404  0.45319595  0.73301743  1
  O2-  O225  1  0.57837167  0.96371445  0.06701664  1
  O2-  O226  1  0.58529817  0.95969975  0.39798549  1
  O2-  O227  1  0.58797556  0.95906436  0.72915156  1
  O2-  O228  1  0.21153809  0.33197401  0.06747416  1
  O2-  O229  1  0.19634621  0.32722171  0.39658228  1
  O2-  O230  1  0.20437546  0.32656947  0.73240655  1
  O2-  O231  1  0.20867491  0.83424889  0.05836497  1
  O2-  O232  1  0.20764843  0.82928066  0.39804405  1
  O2-  O233  1  0.20731665  0.83291948  0.73758775  1
  O2-  O234  1  0.70985207  0.33235503  0.06870339  1
  O2-  O235  1  0.71383119  0.33798844  0.39620607  1
  O2-  O236  1  0.71765742  0.33683015  0.73500502  1
  O2-  O237  1  0.69800665  0.83077232  0.07021276  1
  O2-  O238  1  0.70033467  0.83545938  0.39895430  1
  O2-  O239  1  0.70842472  0.83973201  0.73061035  1
  O2-  O240  1  0.44824148  0.41733472  0.26895911  1
  O2-  O241  1  0.45989941  0.41614021  0.59847810  1
  O2-  O242  1  0.44662214  0.41554726  0.94334397  1
  O2-  O243  1  0.46131804  0.91512071  0.26629341  1
  O2-  O244  1  0.45953270  0.92004259  0.59830058  1
  O2-  O245  1  0.45762719  0.91968188  0.93029967  1
  O2-  O246  1  0.95470027  0.41131439  0.26930580  1
  O2-  O247  1  0.95267034  0.41096139  0.60221406  1
  O2-  O248  1  0.95782257  0.40804608  0.93340894  1
  O2-  O249  1  0.95185916  0.91923661  0.27213763  1
  O2-  O250  1  0.95844790  0.91969137  0.60425634  1
  O2-  O251  1  0.95785263  0.91595108  0.93548472  1
  O2-  O252  1  0.33093642  0.29458488  0.26973968  1
  O2-  O253  1  0.33282763  0.28882218  0.59822521  1
  O2-  O254  1  0.33811777  0.28466455  0.93702960  1
  O2-  O255  1  0.33399102  0.78755839  0.26424449  1
  O2-  O256  1  0.32874041  0.79558127  0.60142863  1
  O2-  O257  1  0.33518745  0.78953155  0.92894059  1
  O2-  O258  1  0.83971062  0.28696944  0.26795087  1
  O2-  O259  1  0.84004945  0.28572158  0.60062179  1
  O2-  O260  1  0.83740411  0.28945112  0.93526040  1
  O2-  O261  1  0.83056244  0.80187297  0.27307183  1
  O2-  O262  1  0.83453921  0.80766436  0.60482857  1
  O2-  O263  1  0.83028335  0.80541285  0.94375990  1
  O2-  O264  1  0.41410722  0.04996058  0.05687887  1
  O2-  O265  1  0.42470395  0.04873311  0.39850230  1
  O2-  O266  1  0.42098361  0.05187101  0.72769431  1
  O2-  O267  1  0.41268044  0.55005225  0.06524861  1
  O2-  O268  1  0.42260578  0.54859317  0.39871612  1
  O2-  O269  1  0.42069337  0.54408168  0.73449974  1
  O2-  O270  1  0.92256972  0.04380918  0.06684173  1
  O2-  O271  1  0.91551287  0.04327330  0.40516498  1
  O2-  O272  1  0.91279966  0.04512669  0.73010027  1
  O2-  O273  1  0.91539863  0.53207590  0.06732599  1
  O2-  O274  1  0.91098364  0.53315564  0.40438051  1
  O2-  O275  1  0.91235777  0.53905737  0.72821734  1
  O2-  O276  1  0.28733492  0.15989669  0.06455263  1
  O2-  O277  1  0.29315805  0.16751433  0.40121060  1
  O2-  O278  1  0.29423387  0.16348969  0.73148248  1
  O2-  O279  1  0.29159249  0.66795551  0.05987228  1
  O2-  O280  1  0.28831099  0.66714130  0.39987286  1
  O2-  O281  1  0.29198582  0.66962565  0.73674906  1
  O2-  O282  1  0.79544238  0.16814893  0.06703430  1
  O2-  O283  1  0.78674002  0.16752065  0.40254485  1
  O2-  O284  1  0.79392838  0.16333174  0.73020774  1
  O2-  O285  1  0.80334700  0.67117609  0.06764815  1
  O2-  O286  1  0.79587467  0.67067749  0.40328151  1
  O2-  O287  1  0.80676155  0.67140440  0.72479029  1
