# generated using pymatgen
data_Ca2Al2SiO7
_symmetry_space_group_name_H-M   'P 1'
_cell_length_a   15.47249933
_cell_length_b   15.47535214
_cell_length_c   15.29681317
_cell_angle_alpha   89.98762260
_cell_angle_beta   90.00937910
_cell_angle_gamma   89.97288664
_symmetry_Int_Tables_number   1
_chemical_formula_structural   Ca2Al2SiO7
_chemical_formula_sum   'Ca48 Al48 Si24 O168'
_cell_volume   3662.70473888
_cell_formula_units_Z   24
loop_
 _symmetry_equiv_pos_site_id
 _symmetry_equiv_pos_as_xyz
  1  'x, y, z'
loop_
 _atom_type_symbol
 _atom_type_oxidation_number
  Ca2+  2.0
  Al0+  0.0
  Si0+  0.0
  O2-  -2.0
loop_
 _atom_site_type_symbol
 _atom_site_label
 _atom_site_symmetry_multiplicity
 _atom_site_fract_x
 _atom_site_fract_y
 _atom_site_fract_z
 _atom_site_occupancy
  Ca2+  Ca0  1  0.16475210  0.07163682  0.16799660  1
  Ca2+  Ca1  1  0.16680698  0.06945651  0.50631502  1
  Ca2+  Ca2  1  0.17421578  0.07219129  0.83851857  1
  Ca2+  Ca3  1  0.16152858  0.58899637  0.17221571  1
  Ca2+  Ca4  1  0.17060114  0.58980390  0.50782051  1
  Ca2+  Ca5  1  0.16838109  0.59084367  0.83437408  1
  Ca2+  Ca6  1  0.67030202  0.07705387  0.17067133  1
  Ca2+  Ca7  1  0.67380325  0.08106911  0.51154698  1
  Ca2+  Ca8  1  0.67448224  0.08970342  0.83299362  1
  Ca2+  Ca9  1  0.67089357  0.59418893  0.17358749  1
  Ca2+  Ca10  1  0.66843775  0.58741504  0.50714885  1
  Ca2+  Ca11  1  0.65696652  0.58167064  0.83583928  1
  Ca2+  Ca12  1  0.08794411  0.31925673  0.16226120  1
  Ca2+  Ca13  1  0.08681791  0.32220675  0.49371221  1
  Ca2+  Ca14  1  0.08729742  0.32385591  0.83126187  1
  Ca2+  Ca15  1  0.07768560  0.83167189  0.16246446  1
  Ca2+  Ca16  1  0.08087521  0.83056608  0.49627542  1
  Ca2+  Ca17  1  0.08033502  0.83729334  0.82830399  1
  Ca2+  Ca18  1  0.58183919  0.33053113  0.16433619  1
  Ca2+  Ca19  1  0.58359722  0.33196788  0.50834493  1
  Ca2+  Ca20  1  0.57723984  0.32809069  0.81887532  1
  Ca2+  Ca21  1  0.57387247  0.82576534  0.16150879  1
  Ca2+  Ca22  1  0.57560155  0.82387831  0.49278885  1
  Ca2+  Ca23  1  0.57684191  0.82424068  0.82985560  1
  Ca2+  Ca24  1  0.33036768  0.42161687  0.16881288  1
  Ca2+  Ca25  1  0.33475689  0.42370720  0.50940801  1
  Ca2+  Ca26  1  0.33925117  0.42297988  0.82985582  1
  Ca2+  Ca27  1  0.32397084  0.90850923  0.16941385  1
  Ca2+  Ca28  1  0.32154256  0.91251983  0.50654374  1
  Ca2+  Ca29  1  0.32436646  0.91948555  0.84207349  1
  Ca2+  Ca30  1  0.83129090  0.42900174  0.17615530  1
  Ca2+  Ca31  1  0.82796684  0.42802884  0.50675408  1
  Ca2+  Ca32  1  0.82477284  0.41817392  0.83542540  1
  Ca2+  Ca33  1  0.83619679  0.90696426  0.17018125  1
  Ca2+  Ca34  1  0.84001197  0.91879998  0.50679738  1
  Ca2+  Ca35  1  0.83767984  0.91277378  0.83205909  1
  Ca2+  Ca36  1  0.41222632  0.16625105  0.15999344  1
  Ca2+  Ca37  1  0.41265853  0.16802571  0.50388321  1
  Ca2+  Ca38  1  0.41393459  0.16880767  0.82237057  1
  Ca2+  Ca39  1  0.42222488  0.68069452  0.16386862  1
  Ca2+  Ca40  1  0.42367308  0.66721390  0.49804871  1
  Ca2+  Ca41  1  0.42004849  0.66955825  0.82834268  1
  Ca2+  Ca42  1  0.93309805  0.16207763  0.16384629  1
  Ca2+  Ca43  1  0.92068393  0.16493049  0.49632093  1
  Ca2+  Ca44  1  0.92334821  0.16025381  0.82894366  1
  Ca2+  Ca45  1  0.92318377  0.67425907  0.16292983  1
  Ca2+  Ca46  1  0.92455348  0.67664743  0.49290647  1
  Ca2+  Ca47  1  0.93060429  0.67945523  0.82739312  1
  Al0+  Al48  1  0.00141242  0.00245472  -0.00443265  1
  Al0+  Al49  1  0.00188861  0.00066483  0.33016542  1
  Al0+  Al50  1  -0.00063337  0.00142083  0.67107428  1
  Al0+  Al51  1  -0.00305921  0.49958741  -0.00187017  1
  Al0+  Al52  1  -0.00216189  0.49865665  0.33785621  1
  Al0+  Al53  1  -0.00068008  0.49938620  0.66584253  1
  Al0+  Al54  1  0.50330264  0.00103653  0.00035528  1
  Al0+  Al55  1  0.50000540  0.00279431  0.33080365  1
  Al0+  Al56  1  0.50149422  -0.00006150  0.66479663  1
  Al0+  Al57  1  0.49890048  0.49633088  0.00170330  1
  Al0+  Al58  1  0.50002286  0.49644608  0.32965306  1
  Al0+  Al59  1  0.49896923  0.49888260  0.66664147  1
  Al0+  Al60  1  0.24992090  0.25113253  -0.00156834  1
  Al0+  Al61  1  0.25124320  0.25041062  0.32863228  1
  Al0+  Al62  1  0.24946228  0.25117086  0.66392539  1
  Al0+  Al63  1  0.25149647  0.74904568  0.00034761  1
  Al0+  Al64  1  0.25069814  0.74936437  0.33281510  1
  Al0+  Al65  1  0.24951999  0.74833685  0.67344262  1
  Al0+  Al66  1  0.74929213  0.25139630  0.00549483  1
  Al0+  Al67  1  0.74870577  0.25085316  0.33275165  1
  Al0+  Al68  1  0.74935259  0.25082189  0.67148846  1
  Al0+  Al69  1  0.75107913  0.74912076  -0.00707560  1
  Al0+  Al70  1  0.75015672  0.75031770  0.33451822  1
  Al0+  Al71  1  0.75215110  0.75127147  0.66152355  1
  Al0+  Al72  1  0.18011883  0.92894466  0.34767273  1
  Al0+  Al73  1  0.17976898  0.92864692  0.68259765  1
  Al0+  Al74  1  0.32225041  0.07220287  0.67934433  1
  Al0+  Al75  1  0.07138892  0.18006272  0.32000362  1
  Al0+  Al76  1  0.07109761  0.18096425  0.98329235  1
  Al0+  Al77  1  0.32302904  0.07226881  0.01525402  1
  Al0+  Al78  1  0.57260840  0.17696425  0.65195873  1
  Al0+  Al79  1  0.56953718  0.67891591  0.65353831  1
  Al0+  Al80  1  0.81965717  0.57251624  0.34872129  1
  Al0+  Al81  1  0.68067125  0.43304661  0.68100608  1
  Al0+  Al82  1  0.07151029  0.67644715  0.31977177  1
  Al0+  Al83  1  0.42803942  0.82348939  0.32011955  1
  Al0+  Al84  1  0.57082788  0.67757870  0.32002299  1
  Al0+  Al85  1  0.93018645  0.82209970  0.31880268  1
  Al0+  Al86  1  0.81936518  0.07074241  0.68005035  1
  Al0+  Al87  1  0.07194194  0.67593952  0.98528901  1
  Al0+  Al88  1  0.07315743  0.67786744  0.65090357  1
  Al0+  Al89  1  0.31985849  0.56964070  0.67979542  1
  Al0+  Al90  1  0.42801554  0.31992788  0.65052789  1
  Al0+  Al91  1  0.56972750  0.67767192  0.98492426  1
  Al0+  Al92  1  0.42893894  0.82330942  0.98381983  1
  Al0+  Al93  1  0.93023174  0.82222343  0.98339950  1
  Al0+  Al94  1  0.17898335  0.92781481  0.01782428  1
  Al0+  Al95  1  0.93171929  0.82328854  0.64974272  1
  Si0+  Si96  1  0.92592150  0.32156208  0.98376128  1
  Si0+  Si97  1  0.92596767  0.32123599  0.31761152  1
  Si0+  Si98  1  0.68181954  0.92770890  0.01463026  1
  Si0+  Si99  1  0.06947428  0.18154343  0.65127549  1
  Si0+  Si100  1  0.42937918  0.31888577  0.98493773  1
  Si0+  Si101  1  0.32107742  0.56859734  0.34674933  1
  Si0+  Si102  1  0.67720534  0.93027085  0.34771629  1
  Si0+  Si103  1  0.81897920  0.57027577  0.01469977  1
  Si0+  Si104  1  0.92629141  0.32161839  0.65243421  1
  Si0+  Si105  1  0.17946584  0.42670771  0.34689764  1
  Si0+  Si106  1  0.82360649  0.57449325  0.68604151  1
  Si0+  Si107  1  0.82038847  0.07097055  0.34602059  1
  Si0+  Si108  1  0.82063638  0.07341114  0.01686352  1
  Si0+  Si109  1  0.17519432  0.42659287  0.68271547  1
  Si0+  Si110  1  0.42697714  0.82276777  0.65177527  1
  Si0+  Si111  1  0.32216496  0.56914079  0.01701777  1
  Si0+  Si112  1  0.67655084  0.42596962  0.35207468  1
  Si0+  Si113  1  0.17719169  0.42981712  0.01434950  1
  Si0+  Si114  1  0.67744351  0.92538292  0.68283416  1
  Si0+  Si115  1  0.57320855  0.17944755  0.31681022  1
  Si0+  Si116  1  0.32323141  0.07491670  0.35017944  1
  Si0+  Si117  1  0.42911771  0.31975654  0.31558946  1
  Si0+  Si118  1  0.57374227  0.17965736  0.98654330  1
  Si0+  Si119  1  0.67747044  0.42862728  0.01791092  1
  O2-  O120  1  0.25448525  -0.00181268  0.06693889  1
  O2-  O121  1  0.25810083  0.00254485  0.39229963  1
  O2-  O122  1  0.25597826  -0.00275636  0.73110513  1
  O2-  O123  1  0.24376115  0.50452476  0.05814312  1
  O2-  O124  1  0.24527303  0.50199384  0.38862602  1
  O2-  O125  1  0.24103017  0.49806664  0.72599163  1
  O2-  O126  1  0.75424182  -0.00216533  0.05826547  1
  O2-  O127  1  0.75069559  -0.00042520  0.38893294  1
  O2-  O128  1  0.74396180  -0.00319759  0.72701244  1
  O2-  O129  1  0.74526804  0.50214563  0.05929814  1
  O2-  O130  1  0.74183905  0.49872136  0.39350379  1
  O2-  O131  1  0.75164599  0.50927043  0.73133285  1
  O2-  O132  1  -0.00388951  0.25490757  0.27273292  1
  O2-  O133  1  -0.00071418  0.25352261  0.60884797  1
  O2-  O134  1  -0.00626409  0.25388635  0.93745914  1
  O2-  O135  1  0.00067529  0.74875351  0.26929673  1
  O2-  O136  1  0.00208965  0.74990596  0.60070573  1
  O2-  O137  1  0.00778333  0.75497765  0.93592369  1
  O2-  O138  1  0.49965979  0.24778022  0.27438206  1
  O2-  O139  1  0.49737583  0.24505373  0.60067423  1
  O2-  O140  1  0.49712547  0.24422307  0.94546325  1
  O2-  O141  1  0.50119975  0.75173911  0.27105228  1
  O2-  O142  1  0.49735534  0.75578195  0.60721162  1
  O2-  O143  1  0.49755653  0.74798816  0.93397395  1
  O2-  O144  1  0.06984776  0.18305037  0.09667406  1
  O2-  O145  1  0.06940718  0.18199549  0.43321138  1
  O2-  O146  1  0.06896471  0.18412194  0.75622259  1
  O2-  O147  1  0.06490877  0.67013527  0.09843562  1
  O2-  O148  1  0.07152838  0.67588158  0.43263268  1
  O2-  O149  1  0.07071204  0.67622880  0.76407279  1
  O2-  O150  1  0.57749178  0.18407384  0.09211980  1
  O2-  O151  1  0.57797369  0.18028256  0.42092260  1
  O2-  O152  1  0.57621623  0.18304011  0.76565471  1
  O2-  O153  1  0.56986024  0.67948064  0.09850356  1
  O2-  O154  1  0.56779260  0.67674733  0.43350722  1
  O2-  O155  1  0.56621106  0.67872587  0.76641006  1
  O2-  O156  1  0.18306349  0.42327976  0.24161282  1
  O2-  O157  1  0.17604005  0.42316987  0.57693298  1
  O2-  O158  1  0.17936659  0.42734316  0.90966131  1
  O2-  O159  1  0.17786333  0.93062832  0.23502508  1
  O2-  O160  1  0.17849858  0.93040551  0.56858233  1
  O2-  O161  1  0.17823624  0.93178621  0.90472519  1
  O2-  O162  1  0.67843591  0.42104969  0.24619973  1
  O2-  O163  1  0.68378876  0.43228532  0.56792174  1
  O2-  O164  1  0.67781960  0.42495443  0.91338012  1
  O2-  O165  1  0.67634785  0.93354844  0.24224540  1
  O2-  O166  1  0.67853967  0.92657942  0.57696734  1
  O2-  O167  1  0.68136299  0.92992038  0.90996689  1
  O2-  O168  1  0.43124772  0.32115265  0.09062747  1
  O2-  O169  1  0.42676660  0.32150584  0.41982009  1
  O2-  O170  1  0.42996427  0.32028324  0.76437882  1
  O2-  O171  1  0.43181738  0.82162147  0.09751043  1
  O2-  O172  1  0.42983752  0.82204518  0.43374147  1
  O2-  O173  1  0.42896774  0.82195441  0.75713255  1
  O2-  O174  1  0.92615930  0.32053340  0.08944854  1
  O2-  O175  1  0.92465185  0.31814360  0.42317399  1
  O2-  O176  1  0.92687911  0.32046145  0.75760353  1
  O2-  O177  1  0.92638141  0.81812911  0.09686388  1
  O2-  O178  1  0.93136410  0.82444078  0.43161061  1
  O2-  O179  1  0.93264035  0.82276426  0.76303875  1
  O2-  O180  1  0.32179363  0.07933386  0.24492627  1
  O2-  O181  1  0.31643396  0.07317936  0.56551743  1
  O2-  O182  1  0.32106681  0.07563569  0.90232983  1
  O2-  O183  1  0.32257922  0.56408179  0.24147753  1
  O2-  O184  1  0.32095109  0.56676923  0.56615133  1
  O2-  O185  1  0.32752471  0.56333088  0.91251594  1
  O2-  O186  1  0.81718688  0.07328293  0.24075417  1
  O2-  O187  1  0.82020573  0.07216904  0.56640152  1
  O2-  O188  1  0.81590632  0.08059757  0.91248984  1
  O2-  O189  1  0.81887801  0.56875031  0.23499227  1
  O2-  O190  1  0.82345365  0.57034520  0.58045435  1
  O2-  O191  1  0.81870568  0.56513841  0.91019652  1
  O2-  O192  1  0.03752421  0.08664931  0.26348416  1
  O2-  O193  1  0.03825492  0.09084814  0.60543765  1
  O2-  O194  1  0.03967838  0.08649764  0.92810017  1
  O2-  O195  1  0.04426442  0.57554530  0.27000395  1
  O2-  O196  1  0.04699582  0.57691844  0.60059902  1
  O2-  O197  1  0.03833913  0.57905845  0.93119299  1
  O2-  O198  1  0.54828215  0.08803221  0.26762101  1
  O2-  O199  1  0.55199061  0.07723678  0.59825936  1
  O2-  O200  1  0.55659424  0.08577478  0.94119336  1
  O2-  O201  1  0.54449065  0.57814074  0.26729649  1
  O2-  O202  1  0.53694091  0.58344213  0.59970126  1
  O2-  O203  1  0.54146105  0.57670033  0.93698493  1
  O2-  O204  1  0.16601272  0.21437613  0.26435527  1
  O2-  O205  1  0.15973182  0.21031501  0.60224306  1
  O2-  O206  1  0.16561918  0.21789939  0.93007746  1
  O2-  O207  1  0.17103633  0.70108495  0.26849465  1
  O2-  O208  1  0.17349796  0.70408244  0.60148237  1
  O2-  O209  1  0.17503296  0.69250134  0.93998142  1
  O2-  O210  1  0.66317006  0.21067968  0.26621380  1
  O2-  O211  1  0.66964481  0.21284155  0.59921815  1
  O2-  O212  1  0.66338686  0.21479288  0.93955223  1
  O2-  O213  1  0.66895613  0.70682032  0.26848515  1
  O2-  O214  1  0.66753378  0.70622277  0.60122436  1
  O2-  O215  1  0.66767359  0.70435418  0.93164210  1
  O2-  O216  1  0.08285900  0.45065405  0.06045811  1
  O2-  O217  1  0.08524934  0.44462359  0.39312674  1
  O2-  O218  1  0.08012204  0.44603251  0.72870493  1
  O2-  O219  1  0.08012060  0.96297689  0.06766275  1
  O2-  O220  1  0.08442347  0.96583558  0.40053968  1
  O2-  O221  1  0.08409604  0.96467568  0.73544981  1
  O2-  O222  1  0.58448980  0.45145776  0.06604226  1
  O2-  O223  1  0.58054289  0.44642361  0.39460156  1
  O2-  O224  1  0.58318713  0.45965524  0.73474476  1
  O2-  O225  1  0.59193117  0.95830884  0.06469521  1
  O2-  O226  1  0.58679929  0.96182771  0.39566915  1
  O2-  O227  1  0.58298867  0.94753124  0.72803219  1
  O2-  O228  1  0.21134831  0.34062109  0.06397416  1
  O2-  O229  1  0.21359139  0.33714662  0.39555395  1
  O2-  O230  1  0.20536176  0.33504187  0.73046814  1
  O2-  O231  1  0.20462035  0.82715788  0.06893676  1
  O2-  O232  1  0.21037737  0.83164624  0.40108974  1
  O2-  O233  1  0.20340288  0.83007690  0.73588086  1
  O2-  O234  1  0.70842535  0.33869239  0.06887269  1
  O2-  O235  1  0.70635320  0.33360360  0.39900745  1
  O2-  O236  1  0.71400842  0.33788231  0.73690183  1
  O2-  O237  1  0.70970393  0.83534868  0.06124630  1
  O2-  O238  1  0.70111169  0.83788389  0.39442700  1
  O2-  O239  1  0.70652638  0.83319970  0.73005183  1
  O2-  O240  1  0.45854398  0.40943006  0.26445138  1
  O2-  O241  1  0.46197195  0.41577013  0.59654809  1
  O2-  O242  1  0.46155144  0.40864383  0.93719306  1
  O2-  O243  1  0.45479291  0.92257289  0.26733268  1
  O2-  O244  1  0.44928707  0.91654399  0.60503155  1
  O2-  O245  1  0.46138632  0.92130019  0.93262048  1
  O2-  O246  1  0.95022059  0.41517503  0.27292422  1
  O2-  O247  1  0.95038939  0.41398628  0.60470264  1
  O2-  O248  1  0.94937053  0.41454959  0.93686594  1
  O2-  O249  1  0.95648468  0.92042214  0.26475016  1
  O2-  O250  1  0.95937175  0.92337542  0.59953443  1
  O2-  O251  1  0.95059130  0.92335308  0.93348735  1
  O2-  O252  1  0.33837960  0.29298753  0.26511634  1
  O2-  O253  1  0.32883151  0.29566754  0.59601794  1
  O2-  O254  1  0.33693810  0.29700166  0.93770186  1
  O2-  O255  1  0.33247873  0.79016682  0.26565999  1
  O2-  O256  1  0.33421392  0.79307797  0.60777100  1
  O2-  O257  1  0.33009820  0.79590692  0.93357498  1
  O2-  O258  1  0.83290856  0.29534308  0.26979109  1
  O2-  O259  1  0.83653757  0.29061638  0.60437365  1
  O2-  O260  1  0.83135604  0.29509809  0.93984827  1
  O2-  O261  1  0.83017144  0.79534657  0.26852380  1
  O2-  O262  1  0.83211855  0.79836629  0.59785321  1
  O2-  O263  1  0.83375468  0.79023256  0.92876047  1
  O2-  O264  1  0.42576656  0.05228875  0.06514809  1
  O2-  O265  1  0.41987938  0.05610573  0.39302906  1
  O2-  O266  1  0.42502542  0.05397674  0.72734910  1
  O2-  O267  1  0.40975885  0.53070495  0.06729681  1
  O2-  O268  1  0.41132581  0.53370592  0.39336030  1
  O2-  O269  1  0.41344704  0.53267709  0.73563115  1
  O2-  O270  1  0.91474651  0.05048787  0.06037631  1
  O2-  O271  1  0.91289003  0.04613309  0.39237096  1
  O2-  O272  1  0.91462314  0.04144012  0.73663917  1
  O2-  O273  1  0.90910439  0.53828286  0.06378009  1
  O2-  O274  1  0.91431089  0.53724180  0.40486029  1
  O2-  O275  1  0.91549674  0.54270307  0.73220256  1
  O2-  O276  1  0.29211295  0.17199980  0.06721557  1
  O2-  O277  1  0.29437011  0.16844596  0.39533045  1
  O2-  O278  1  0.29077163  0.17085309  0.73055371  1
  O2-  O279  1  0.30255627  0.66263468  0.06342590  1
  O2-  O280  1  0.29915356  0.66118468  0.39376552  1
  O2-  O281  1  0.29374844  0.66475483  0.73783277  1
  O2-  O282  1  0.78774884  0.16257282  0.06814400  1
  O2-  O283  1  0.79133351  0.16312820  0.39286449  1
  O2-  O284  1  0.78906217  0.16618566  0.73720412  1
  O2-  O285  1  0.79218362  0.66299334  0.06046186  1
  O2-  O286  1  0.79066881  0.66888935  0.40368087  1
  O2-  O287  1  0.80133109  0.66989875  0.72808948  1
