# generated using pymatgen
data_Ca2Al2SiO7
_symmetry_space_group_name_H-M   'P 1'
_cell_length_a   15.46830351
_cell_length_b   15.46541637
_cell_length_c   15.29075801
_cell_angle_alpha   89.98862069
_cell_angle_beta   90.00097636
_cell_angle_gamma   89.98490991
_symmetry_Int_Tables_number   1
_chemical_formula_structural   Ca2Al2SiO7
_chemical_formula_sum   'Ca48 Al48 Si24 O168'
_cell_volume   3657.91233759
_cell_formula_units_Z   24
loop_
 _symmetry_equiv_pos_site_id
 _symmetry_equiv_pos_as_xyz
  1  'x, y, z'
loop_
 _atom_type_symbol
 _atom_type_oxidation_number
  Ca2+  2.0
  Al0+  0.0
  Si0+  0.0
  O2-  -2.0
loop_
 _atom_site_type_symbol
 _atom_site_label
 _atom_site_symmetry_multiplicity
 _atom_site_fract_x
 _atom_site_fract_y
 _atom_site_fract_z
 _atom_site_occupancy
  Ca2+  Ca0  1  0.17630311  0.07947301  0.17225745  1
  Ca2+  Ca1  1  0.16711315  0.08037242  0.50425507  1
  Ca2+  Ca2  1  0.16518221  0.07139285  0.83861203  1
  Ca2+  Ca3  1  0.16730780  0.57172993  0.17779133  1
  Ca2+  Ca4  1  0.17197655  0.58063030  0.50756796  1
  Ca2+  Ca5  1  0.16593142  0.57499934  0.83167091  1
  Ca2+  Ca6  1  0.67419954  0.08912569  0.17294337  1
  Ca2+  Ca7  1  0.67067000  0.08964584  0.50853415  1
  Ca2+  Ca8  1  0.67817246  0.09167605  0.83399824  1
  Ca2+  Ca9  1  0.66488528  0.58766007  0.16992337  1
  Ca2+  Ca10  1  0.66861673  0.58543909  0.50637876  1
  Ca2+  Ca11  1  0.66346146  0.58802955  0.83697783  1
  Ca2+  Ca12  1  0.09827029  0.32746399  0.16750522  1
  Ca2+  Ca13  1  0.09111727  0.32628440  0.49691441  1
  Ca2+  Ca14  1  0.08136509  0.32875102  0.82242573  1
  Ca2+  Ca15  1  0.08598870  0.83092310  0.16743512  1
  Ca2+  Ca16  1  0.08910371  0.82241590  0.49633370  1
  Ca2+  Ca17  1  0.09106197  0.83214286  0.82410687  1
  Ca2+  Ca18  1  0.57360370  0.33025468  0.17000746  1
  Ca2+  Ca19  1  0.57471998  0.32288285  0.49556599  1
  Ca2+  Ca20  1  0.57774780  0.32694148  0.82448076  1
  Ca2+  Ca21  1  0.57393691  0.82938809  0.16430007  1
  Ca2+  Ca22  1  0.56864774  0.83095470  0.49884165  1
  Ca2+  Ca23  1  0.57487253  0.82463962  0.82535046  1
  Ca2+  Ca24  1  0.32642506  0.42192595  0.17829055  1
  Ca2+  Ca25  1  0.32634197  0.42451167  0.50158835  1
  Ca2+  Ca26  1  0.32136726  0.41880286  0.83395292  1
  Ca2+  Ca27  1  0.33593657  0.92539872  0.17119187  1
  Ca2+  Ca28  1  0.33485426  0.91817471  0.50489949  1
  Ca2+  Ca29  1  0.32489650  0.91755761  0.83294451  1
  Ca2+  Ca30  1  0.82806002  0.41810681  0.17139136  1
  Ca2+  Ca31  1  0.83266072  0.41149689  0.50591865  1
  Ca2+  Ca32  1  0.83449971  0.41505919  0.83296230  1
  Ca2+  Ca33  1  0.83300993  0.91783337  0.17187295  1
  Ca2+  Ca34  1  0.83380190  0.91982716  0.50591978  1
  Ca2+  Ca35  1  0.83614157  0.93330543  0.83760063  1
  Ca2+  Ca36  1  0.40759609  0.16909484  0.16733725  1
  Ca2+  Ca37  1  0.42421678  0.16669185  0.48682822  1
  Ca2+  Ca38  1  0.41953549  0.16255180  0.82831039  1
  Ca2+  Ca39  1  0.41173866  0.67129105  0.16537677  1
  Ca2+  Ca40  1  0.40490510  0.67542701  0.49800121  1
  Ca2+  Ca41  1  0.42208877  0.66900750  0.82110776  1
  Ca2+  Ca42  1  0.92539468  0.16370977  0.16578951  1
  Ca2+  Ca43  1  0.92916787  0.16679077  0.50287117  1
  Ca2+  Ca44  1  0.92023197  0.16959841  0.82222650  1
  Ca2+  Ca45  1  0.92249038  0.67185274  0.16961470  1
  Ca2+  Ca46  1  0.93263831  0.67039782  0.49404665  1
  Ca2+  Ca47  1  0.92581979  0.67250806  0.82499160  1
  Al0+  Al48  1  -0.00090146  0.00031975  0.00863059  1
  Al0+  Al49  1  -0.00137353  0.00223873  0.32634311  1
  Al0+  Al50  1  -0.00094802  0.00238117  0.67195832  1
  Al0+  Al51  1  -0.00224340  0.50038742  0.00463075  1
  Al0+  Al52  1  -0.00293234  0.49928548  0.33308643  1
  Al0+  Al53  1  -0.00285971  0.50134105  0.66394720  1
  Al0+  Al54  1  0.50196624  -0.00052364  0.00033715  1
  Al0+  Al55  1  0.50414912  -0.00337824  0.32821447  1
  Al0+  Al56  1  0.50204583  -0.00261623  0.66160128  1
  Al0+  Al57  1  0.50004845  0.49803761  -0.00449959  1
  Al0+  Al58  1  0.50082244  0.49786988  0.33521607  1
  Al0+  Al59  1  0.50246366  0.49901643  0.66756210  1
  Al0+  Al60  1  0.24961542  0.24963463  0.00190402  1
  Al0+  Al61  1  0.25158921  0.24875990  0.33344590  1
  Al0+  Al62  1  0.25080491  0.25077251  0.66722599  1
  Al0+  Al63  1  0.24899090  0.74900020  0.00094254  1
  Al0+  Al64  1  0.24960061  0.74964373  0.32401260  1
  Al0+  Al65  1  0.25088327  0.75086499  0.66798682  1
  Al0+  Al66  1  0.74995180  0.25208213  0.00591587  1
  Al0+  Al67  1  0.75098297  0.24989800  0.33119482  1
  Al0+  Al68  1  0.74970462  0.25124284  0.66451665  1
  Al0+  Al69  1  0.75130173  0.75089503  -0.00410882  1
  Al0+  Al70  1  0.75070347  0.75106201  0.33184550  1
  Al0+  Al71  1  0.74821095  0.75086827  0.66608008  1
  Al0+  Al72  1  0.81869066  0.07108234  0.67910227  1
  Al0+  Al73  1  0.42915224  0.32018260  0.31824228  1
  Al0+  Al74  1  0.07184336  0.18051572  0.31814060  1
  Al0+  Al75  1  0.32287532  0.06977225  0.01378182  1
  Al0+  Al76  1  0.32154116  0.57305784  0.34765744  1
  Al0+  Al77  1  0.56906004  0.17954039  0.65536378  1
  Al0+  Al78  1  0.57248585  0.67638781  0.65033068  1
  Al0+  Al79  1  0.17743367  0.43083285  0.01379539  1
  Al0+  Al80  1  0.81921447  0.07308352  0.01691047  1
  Al0+  Al81  1  0.32166337  0.57118131  0.68242525  1
  Al0+  Al82  1  0.42818957  0.82022730  0.31747475  1
  Al0+  Al83  1  0.32271917  0.06777958  0.34742108  1
  Al0+  Al84  1  0.92844983  0.82147733  0.31892852  1
  Al0+  Al85  1  0.56960673  0.67933979  0.98658125  1
  Al0+  Al86  1  0.92908476  0.32145693  0.65298140  1
  Al0+  Al87  1  0.42806760  0.81909217  0.65169195  1
  Al0+  Al88  1  0.17984714  0.93122890  0.67638417  1
  Al0+  Al89  1  0.07059045  0.68033102  0.65539765  1
  Al0+  Al90  1  0.57280187  0.17740783  0.31664343  1
  Al0+  Al91  1  0.07350979  0.17770259  0.65415302  1
  Al0+  Al92  1  0.07181452  0.67744814  0.31671248  1
  Al0+  Al93  1  0.17816655  0.92619855  0.01709038  1
  Al0+  Al94  1  0.17706908  0.42785959  0.35014252  1
  Al0+  Al95  1  0.17624567  0.42789407  0.68151173  1
  Si0+  Si96  1  0.42680493  0.32269575  0.65091581  1
  Si0+  Si97  1  0.92717594  0.32181218  0.98650655  1
  Si0+  Si98  1  0.81968864  0.57254993  0.01540244  1
  Si0+  Si99  1  0.82114726  0.07181038  0.35057494  1
  Si0+  Si100  1  0.06942839  0.67761427  0.98458181  1
  Si0+  Si101  1  0.82033243  0.57392129  0.68220633  1
  Si0+  Si102  1  0.67749399  0.42987691  0.01573174  1
  Si0+  Si103  1  0.68068572  0.92673651  0.01693455  1
  Si0+  Si104  1  0.32610916  0.07260186  0.67955736  1
  Si0+  Si105  1  0.68085412  0.42943046  0.68234131  1
  Si0+  Si106  1  0.68013644  0.42767506  0.34985827  1
  Si0+  Si107  1  0.92987228  0.82212023  0.98360238  1
  Si0+  Si108  1  0.42826981  0.31950083  0.98327322  1
  Si0+  Si109  1  0.57366503  0.17984866  0.98512898  1
  Si0+  Si110  1  0.68097809  0.92719753  0.34954707  1
  Si0+  Si111  1  0.92685262  0.32192909  0.31484388  1
  Si0+  Si112  1  0.81890586  0.57205780  0.34925736  1
  Si0+  Si113  1  0.06983671  0.17966531  0.98560237  1
  Si0+  Si114  1  0.57278809  0.67755994  0.31831133  1
  Si0+  Si115  1  0.17639388  0.92941672  0.34875087  1
  Si0+  Si116  1  0.92762643  0.82442735  0.65380566  1
  Si0+  Si117  1  0.67677071  0.92683651  0.68477634  1
  Si0+  Si118  1  0.32376887  0.56946303  0.01493865  1
  Si0+  Si119  1  0.42651044  0.82325259  0.98144755  1
  O2-  O120  1  0.25321094  -0.00396365  0.06467087  1
  O2-  O121  1  0.24777476  -0.00606194  0.39465918  1
  O2-  O122  1  0.25222612  0.00902129  0.72281420  1
  O2-  O123  1  0.25172130  0.50562167  0.05996436  1
  O2-  O124  1  0.24615701  0.50414821  0.39710333  1
  O2-  O125  1  0.24905042  0.49922168  0.73225097  1
  O2-  O126  1  0.74439883  -0.00137763  0.06378407  1
  O2-  O127  1  0.74979076  0.00076701  0.39158356  1
  O2-  O128  1  0.74483681  -0.00350028  0.72861750  1
  O2-  O129  1  0.74550290  0.50430722  0.05733107  1
  O2-  O130  1  0.74971151  0.49986189  0.39214397  1
  O2-  O131  1  0.74865116  0.50356326  0.72529045  1
  O2-  O132  1  0.00022804  0.25897516  0.27041411  1
  O2-  O133  1  0.00656225  0.25515247  0.60444817  1
  O2-  O134  1  -0.00163427  0.25135501  0.94451088  1
  O2-  O135  1  0.00183668  0.75227180  0.26686715  1
  O2-  O136  1  -0.00324915  0.75682728  0.61002909  1
  O2-  O137  1  0.00481877  0.75496915  0.94186716  1
  O2-  O138  1  0.49705346  0.24465741  0.26571014  1
  O2-  O139  1  0.48843193  0.24665756  0.60854769  1
  O2-  O140  1  0.49796216  0.24564384  0.94263924  1
  O2-  O141  1  0.49951427  0.74018462  0.27330773  1
  O2-  O142  1  0.49693120  0.74372969  0.60121472  1
  O2-  O143  1  0.49309600  0.75110886  0.93933681  1
  O2-  O144  1  0.06948505  0.18151624  0.09060771  1
  O2-  O145  1  0.06835665  0.17656887  0.43075106  1
  O2-  O146  1  0.06902680  0.17533052  0.76840569  1
  O2-  O147  1  0.06450628  0.67476423  0.08905286  1
  O2-  O148  1  0.06995489  0.67806883  0.43028772  1
  O2-  O149  1  0.06738067  0.68056093  0.76927783  1
  O2-  O150  1  0.57754031  0.18379199  0.08944600  1
  O2-  O151  1  0.57507062  0.18138384  0.43020128  1
  O2-  O152  1  0.57060860  0.18326347  0.76934664  1
  O2-  O153  1  0.57055939  0.68056364  0.09973065  1
  O2-  O154  1  0.57838619  0.68133195  0.42302119  1
  O2-  O155  1  0.57339683  0.68009330  0.76430558  1
  O2-  O156  1  0.18020152  0.42991234  0.23582629  1
  O2-  O157  1  0.17693558  0.42897614  0.56887428  1
  O2-  O158  1  0.17557251  0.43127912  0.90100940  1
  O2-  O159  1  0.17713822  0.93291751  0.24309552  1
  O2-  O160  1  0.17856623  0.93040324  0.56365194  1
  O2-  O161  1  0.17671676  0.92834113  0.90318686  1
  O2-  O162  1  0.68196296  0.42849671  0.24416550  1
  O2-  O163  1  0.68340370  0.42756992  0.57747059  1
  O2-  O164  1  0.67943849  0.42689240  0.91078406  1
  O2-  O165  1  0.68385645  0.92489800  0.24420336  1
  O2-  O166  1  0.67842741  0.92609554  0.57929507  1
  O2-  O167  1  0.68442240  0.92648679  0.91158792  1
  O2-  O168  1  0.43061828  0.32286729  0.08781208  1
  O2-  O169  1  0.43353542  0.32048602  0.43156838  1
  O2-  O170  1  0.43044560  0.32336234  0.75736468  1
  O2-  O171  1  0.42906778  0.82347966  0.08702235  1
  O2-  O172  1  0.43025991  0.82276433  0.42985029  1
  O2-  O173  1  0.43045279  0.82057564  0.76563746  1
  O2-  O174  1  0.92400751  0.32208606  0.09121194  1
  O2-  O175  1  0.92092644  0.31846884  0.41972517  1
  O2-  O176  1  0.92623897  0.31891038  0.76746353  1
  O2-  O177  1  0.92566766  0.81840655  0.08819346  1
  O2-  O178  1  0.92621599  0.81871879  0.43247927  1
  O2-  O179  1  0.92749481  0.82252322  0.75997709  1
  O2-  O180  1  0.32072638  0.06673212  0.23433204  1
  O2-  O181  1  0.32925688  0.06979955  0.57433998  1
  O2-  O182  1  0.32210109  0.07098352  0.89982640  1
  O2-  O183  1  0.32291912  0.57011429  0.23329701  1
  O2-  O184  1  0.32009517  0.57098093  0.56938504  1
  O2-  O185  1  0.32511330  0.56643364  0.90959374  1
  O2-  O186  1  0.81921943  0.07238864  0.24512158  1
  O2-  O187  1  0.81805778  0.06931625  0.56619038  1
  O2-  O188  1  0.81839812  0.07502089  0.90378236  1
  O2-  O189  1  0.81596588  0.57177319  0.24351815  1
  O2-  O190  1  0.81911004  0.57498461  0.57734791  1
  O2-  O191  1  0.82143428  0.57117724  0.91039069  1
  O2-  O192  1  0.03596369  0.08725676  0.26066341  1
  O2-  O193  1  0.03705375  0.08202083  0.60062785  1
  O2-  O194  1  0.03987484  0.08667980  0.94200380  1
  O2-  O195  1  0.03564770  0.58057567  0.26390556  1
  O2-  O196  1  0.03595793  0.58664041  0.60000780  1
  O2-  O197  1  0.03313863  0.58805525  0.93730866  1
  O2-  O198  1  0.55481720  0.07680797  0.26565123  1
  O2-  O199  1  0.54936961  0.08092847  0.60203878  1
  O2-  O200  1  0.55279185  0.08537592  0.93982848  1
  O2-  O201  1  0.55509795  0.58113084  0.27528332  1
  O2-  O202  1  0.55437065  0.57446806  0.60186227  1
  O2-  O203  1  0.54468348  0.58055432  0.93288214  1
  O2-  O204  1  0.16850162  0.20882613  0.26358861  1
  O2-  O205  1  0.17396107  0.19910228  0.60264303  1
  O2-  O206  1  0.16174329  0.20656440  0.93856769  1
  O2-  O207  1  0.16839031  0.70250495  0.25960423  1
  O2-  O208  1  0.16609480  0.71119724  0.60209282  1
  O2-  O209  1  0.16410722  0.69832457  0.93974190  1
  O2-  O210  1  0.66916210  0.21359005  0.26301282  1
  O2-  O211  1  0.66239690  0.21717732  0.60056912  1
  O2-  O212  1  0.66372597  0.21514592  0.93775034  1
  O2-  O213  1  0.66381427  0.70891799  0.26910546  1
  O2-  O214  1  0.67050640  0.70752463  0.59776534  1
  O2-  O215  1  0.66725726  0.70971194  0.93295653  1
  O2-  O216  1  0.08060022  0.45995836  0.06878349  1
  O2-  O217  1  0.07427397  0.44887797  0.39700153  1
  O2-  O218  1  0.07658403  0.45790665  0.73303628  1
  O2-  O219  1  0.08076323  0.95530917  0.07094685  1
  O2-  O220  1  0.08247863  0.95792150  0.39223142  1
  O2-  O221  1  0.08363397  0.95892984  0.73445376  1
  O2-  O222  1  0.58518993  0.45594403  0.06280823  1
  O2-  O223  1  0.58877886  0.45266953  0.39803834  1
  O2-  O224  1  0.58900959  0.45269646  0.73207993  1
  O2-  O225  1  0.58519616  0.94745998  0.06043287  1
  O2-  O226  1  0.58862397  0.95189756  0.39589622  1
  O2-  O227  1  0.58335317  0.95214192  0.73115424  1
  O2-  O228  1  0.20973125  0.33417279  0.06541451  1
  O2-  O229  1  0.20886453  0.33004781  0.40074166  1
  O2-  O230  1  0.20431098  0.32868458  0.73579461  1
  O2-  O231  1  0.20131476  0.82538295  0.06785084  1
  O2-  O232  1  0.19840141  0.83252852  0.38768470  1
  O2-  O233  1  0.21235639  0.83683352  0.73406815  1
  O2-  O234  1  0.70942491  0.34148275  0.06701172  1
  O2-  O235  1  0.71195351  0.33686688  0.39688941  1
  O2-  O236  1  0.71275324  0.33993790  0.73255089  1
  O2-  O237  1  0.71141498  0.83463564  0.06385017  1
  O2-  O238  1  0.71211163  0.83695045  0.39828021  1
  O2-  O239  1  0.70301153  0.83354379  0.73198178  1
  O2-  O240  1  0.46443673  0.41695169  0.26373153  1
  O2-  O241  1  0.46212219  0.41221286  0.60427475  1
  O2-  O242  1  0.46037293  0.40889262  0.93343820  1
  O2-  O243  1  0.46762632  0.91216910  0.26003296  1
  O2-  O244  1  0.46107195  0.91514384  0.59662103  1
  O2-  O245  1  0.45601196  0.91585187  0.93522951  1
  O2-  O246  1  0.94293128  0.41825521  0.27074479  1
  O2-  O247  1  0.94557451  0.42245722  0.60181959  1
  O2-  O248  1  0.95262158  0.41516732  0.94039540  1
  O2-  O249  1  0.95161995  0.92006897  0.26442480  1
  O2-  O250  1  0.95046149  0.91838032  0.60922305  1
  O2-  O251  1  0.95390959  0.91682464  0.94018360  1
  O2-  O252  1  0.33130140  0.29387826  0.26420880  1
  O2-  O253  1  0.33126343  0.30662952  0.60743673  1
  O2-  O254  1  0.33646511  0.29218053  0.93569324  1
  O2-  O255  1  0.33264914  0.79468449  0.25938311  1
  O2-  O256  1  0.33003799  0.79372825  0.59814526  1
  O2-  O257  1  0.33117149  0.80009078  0.93799080  1
  O2-  O258  1  0.83578007  0.29111891  0.26543785  1
  O2-  O259  1  0.83318204  0.28827273  0.59806136  1
  O2-  O260  1  0.83455450  0.29438422  0.93962116  1
  O2-  O261  1  0.83190176  0.78798626  0.26281492  1
  O2-  O262  1  0.83408425  0.79883201  0.60845636  1
  O2-  O263  1  0.84039885  0.79053249  0.93360606  1
  O2-  O264  1  0.42357076  0.04618506  0.06564782  1
  O2-  O265  1  0.42212972  0.03752833  0.39633630  1
  O2-  O266  1  0.41789944  0.04166160  0.72764273  1
  O2-  O267  1  0.41648981  0.54023095  0.06111789  1
  O2-  O268  1  0.42079954  0.54428135  0.39931774  1
  O2-  O269  1  0.42158215  0.54213132  0.73381356  1
  O2-  O270  1  0.91430334  0.04150296  0.07193955  1
  O2-  O271  1  0.91347358  0.04335936  0.39549981  1
  O2-  O272  1  0.91333329  0.04106481  0.73774673  1
  O2-  O273  1  0.90821151  0.54088976  0.06643782  1
  O2-  O274  1  0.91054984  0.54547841  0.39638532  1
  O2-  O275  1  0.91068678  0.54558332  0.73206516  1
  O2-  O276  1  0.29229443  0.16777239  0.06617620  1
  O2-  O277  1  0.29489451  0.16538385  0.39930756  1
  O2-  O278  1  0.30844203  0.16843485  0.72406457  1
  O2-  O279  1  0.30317636  0.66557428  0.05707134  1
  O2-  O280  1  0.29447364  0.67395243  0.39561561  1
  O2-  O281  1  0.29372834  0.66928146  0.73606041  1
  O2-  O282  1  0.78806448  0.16915129  0.07217800  1
  O2-  O283  1  0.79203559  0.16392666  0.39612708  1
  O2-  O284  1  0.78482763  0.16720520  0.73369195  1
  O2-  O285  1  0.79291479  0.66487220  0.06221777  1
  O2-  O286  1  0.78919087  0.66303745  0.39651583  1
  O2-  O287  1  0.79311601  0.66564893  0.73151901  1
