# generated using pymatgen
data_Ca2Al2SiO7
_symmetry_space_group_name_H-M   'P 1'
_cell_length_a   15.45695540
_cell_length_b   15.45679565
_cell_length_c   15.28228150
_cell_angle_alpha   90.01038202
_cell_angle_beta   89.98983055
_cell_angle_gamma   89.97831170
_symmetry_Int_Tables_number   1
_chemical_formula_structural   Ca2Al2SiO7
_chemical_formula_sum   'Ca48 Al48 Si24 O168'
_cell_volume   3651.16592013
_cell_formula_units_Z   24
loop_
 _symmetry_equiv_pos_site_id
 _symmetry_equiv_pos_as_xyz
  1  'x, y, z'
loop_
 _atom_type_symbol
 _atom_type_oxidation_number
  Ca2+  2.0
  Al0+  0.0
  Si0+  0.0
  O2-  -2.0
loop_
 _atom_site_type_symbol
 _atom_site_label
 _atom_site_symmetry_multiplicity
 _atom_site_fract_x
 _atom_site_fract_y
 _atom_site_fract_z
 _atom_site_occupancy
  Ca2+  Ca0  1  0.18058073  0.08834372  0.17062335  1
  Ca2+  Ca1  1  0.17374423  0.09064903  0.50411300  1
  Ca2+  Ca2  1  0.16954608  0.08405182  0.83929821  1
  Ca2+  Ca3  1  0.16553043  0.57952513  0.17010946  1
  Ca2+  Ca4  1  0.15976038  0.57298513  0.50657283  1
  Ca2+  Ca5  1  0.15449728  0.58061104  0.83319730  1
  Ca2+  Ca6  1  0.67123606  0.07964570  0.17244754  1
  Ca2+  Ca7  1  0.66090012  0.07694113  0.50447897  1
  Ca2+  Ca8  1  0.67129451  0.08218371  0.83413765  1
  Ca2+  Ca9  1  0.66788520  0.57411514  0.17495996  1
  Ca2+  Ca10  1  0.67313105  0.57326378  0.50576495  1
  Ca2+  Ca11  1  0.67517287  0.58255436  0.83316701  1
  Ca2+  Ca12  1  0.07435131  0.33707024  0.16577391  1
  Ca2+  Ca13  1  0.07780803  0.33840919  0.50042982  1
  Ca2+  Ca14  1  0.07570793  0.32749562  0.82472433  1
  Ca2+  Ca15  1  0.07422711  0.82830341  0.15835243  1
  Ca2+  Ca16  1  0.06990781  0.82897225  0.49629555  1
  Ca2+  Ca17  1  0.07360896  0.82518966  0.82564616  1
  Ca2+  Ca18  1  0.57512016  0.33103634  0.16455273  1
  Ca2+  Ca19  1  0.58344502  0.32074738  0.48883436  1
  Ca2+  Ca20  1  0.57613868  0.32490039  0.82780950  1
  Ca2+  Ca21  1  0.58129820  0.83767328  0.16655363  1
  Ca2+  Ca22  1  0.58508937  0.83846616  0.49888250  1
  Ca2+  Ca23  1  0.57323620  0.84435230  0.82810673  1
  Ca2+  Ca24  1  0.32887454  0.41103288  0.17695756  1
  Ca2+  Ca25  1  0.32206526  0.40950078  0.50267064  1
  Ca2+  Ca26  1  0.32480256  0.41261354  0.83817676  1
  Ca2+  Ca27  1  0.33842255  0.92769301  0.16999784  1
  Ca2+  Ca28  1  0.33709287  0.92405836  0.50532129  1
  Ca2+  Ca29  1  0.33476301  0.91927868  0.84108222  1
  Ca2+  Ca30  1  0.83102940  0.41429679  0.17445246  1
  Ca2+  Ca31  1  0.83560764  0.41611557  0.50595042  1
  Ca2+  Ca32  1  0.84458296  0.42015880  0.83429342  1
  Ca2+  Ca33  1  0.83522988  0.92065947  0.17293821  1
  Ca2+  Ca34  1  0.82435190  0.90986209  0.50667704  1
  Ca2+  Ca35  1  0.83229807  0.91772088  0.83891780  1
  Ca2+  Ca36  1  0.41646043  0.17081899  0.16693762  1
  Ca2+  Ca37  1  0.42711782  0.16764396  0.49236443  1
  Ca2+  Ca38  1  0.41920535  0.16675908  0.83026759  1
  Ca2+  Ca39  1  0.42045050  0.67253633  0.15871000  1
  Ca2+  Ca40  1  0.41406855  0.67457244  0.50023417  1
  Ca2+  Ca41  1  0.41743655  0.68000248  0.82893000  1
  Ca2+  Ca42  1  0.90991066  0.17734570  0.16141728  1
  Ca2+  Ca43  1  0.92257302  0.17597097  0.49668021  1
  Ca2+  Ca44  1  0.91559168  0.17444438  0.82719303  1
  Ca2+  Ca45  1  0.92027086  0.67816116  0.16086313  1
  Ca2+  Ca46  1  0.91207299  0.67168064  0.50205246  1
  Ca2+  Ca47  1  0.92268980  0.67314339  0.82643785  1
  Al0+  Al48  1  -0.00024352  0.00055061  0.00382480  1
  Al0+  Al49  1  0.00193848  0.00054808  0.32889304  1
  Al0+  Al50  1  0.00097598  0.00097699  0.65893931  1
  Al0+  Al51  1  -0.00081045  0.49957337  -0.00279395  1
  Al0+  Al52  1  0.00153197  0.50088026  0.33263785  1
  Al0+  Al53  1  -0.00005675  0.50016472  0.66965140  1
  Al0+  Al54  1  0.50069188  0.00049474  0.00218921  1
  Al0+  Al55  1  0.50153298  0.00066560  0.33685127  1
  Al0+  Al56  1  0.50019967  0.00109826  0.66440685  1
  Al0+  Al57  1  0.49845316  0.49901971  -0.00551764  1
  Al0+  Al58  1  0.50046227  0.50104821  0.33656907  1
  Al0+  Al59  1  0.49848326  0.50202316  0.66916120  1
  Al0+  Al60  1  0.24996664  0.25038552  0.00214502  1
  Al0+  Al61  1  0.25067851  0.25037531  0.34035967  1
  Al0+  Al62  1  0.25000684  0.25117349  0.67091367  1
  Al0+  Al63  1  0.25092802  0.74762491  -0.00565728  1
  Al0+  Al64  1  0.24961962  0.75065806  0.33247899  1
  Al0+  Al65  1  0.25005467  0.75107559  0.65796371  1
  Al0+  Al66  1  0.74848485  0.24933289  -0.00062204  1
  Al0+  Al67  1  0.75060797  0.24853479  0.32951952  1
  Al0+  Al68  1  0.74793058  0.24828329  0.65979259  1
  Al0+  Al69  1  0.74960963  0.74761470  -0.00039755  1
  Al0+  Al70  1  0.75010277  0.75074547  0.33144074  1
  Al0+  Al71  1  0.74654337  0.74829451  0.67481266  1
  Al0+  Al72  1  0.07062515  0.67903635  0.98475829  1
  Al0+  Al73  1  0.92715768  0.82407176  0.98459546  1
  Al0+  Al74  1  0.81949663  0.56840104  0.68166391  1
  Al0+  Al75  1  0.17963603  0.43134101  0.34714601  1
  Al0+  Al76  1  0.82172438  0.07166733  0.01302166  1
  Al0+  Al77  1  0.42882593  0.32128087  0.32065696  1
  Al0+  Al78  1  0.57166861  0.17635305  0.31521702  1
  Al0+  Al79  1  0.42690287  0.32107012  0.98581863  1
  Al0+  Al80  1  0.07015031  0.67883102  0.64920552  1
  Al0+  Al81  1  0.68241482  0.92998946  0.34724562  1
  Al0+  Al82  1  0.18071049  0.43051984  0.68382369  1
  Al0+  Al83  1  0.43255378  0.82142601  0.98861291  1
  Al0+  Al84  1  0.92739431  0.31904286  0.98665296  1
  Al0+  Al85  1  0.67919358  0.93033416  0.68200409  1
  Al0+  Al86  1  0.56896640  0.18029831  0.65320667  1
  Al0+  Al87  1  0.43027999  0.82142386  0.65165577  1
  Al0+  Al88  1  0.07409834  0.17802122  0.65214137  1
  Al0+  Al89  1  0.32095004  0.07065572  0.01406658  1
  Al0+  Al90  1  0.31996587  0.06919419  0.34950905  1
  Al0+  Al91  1  0.92762908  0.82099604  0.31854302  1
  Al0+  Al92  1  0.92513633  0.82149674  0.65211010  1
  Al0+  Al93  1  0.92933244  0.32081153  0.65169410  1
  Al0+  Al94  1  0.93083746  0.32105234  0.31908611  1
  Al0+  Al95  1  0.67860612  0.42700086  0.34594366  1
  Si0+  Si96  1  0.17920514  0.43023117  0.01614107  1
  Si0+  Si97  1  0.32267939  0.57558459  0.68514381  1
  Si0+  Si98  1  0.42755067  0.32426302  0.65125048  1
  Si0+  Si99  1  0.82383829  0.07264657  0.68059447  1
  Si0+  Si100  1  0.57173889  0.67638050  0.64954900  1
  Si0+  Si101  1  0.67594003  0.42438933  0.68384756  1
  Si0+  Si102  1  0.07323876  0.17898918  0.98678066  1
  Si0+  Si103  1  0.42883086  0.82097288  0.31868370  1
  Si0+  Si104  1  0.17798952  0.92816426  0.67979446  1
  Si0+  Si105  1  0.32031077  0.06930161  0.68277222  1
  Si0+  Si106  1  0.07406746  0.17808471  0.31536866  1
  Si0+  Si107  1  0.82096704  0.57098163  0.34815733  1
  Si0+  Si108  1  0.07253729  0.67854629  0.31583913  1
  Si0+  Si109  1  0.82532868  0.07300472  0.35070483  1
  Si0+  Si110  1  0.32261647  0.57129345  0.01421781  1
  Si0+  Si111  1  0.57113944  0.67902913  0.31964107  1
  Si0+  Si112  1  0.17708280  0.92613545  0.35048541  1
  Si0+  Si113  1  0.17891980  0.92500080  0.01555686  1
  Si0+  Si114  1  0.82145129  0.56944679  0.01686255  1
  Si0+  Si115  1  0.57090906  0.17853923  0.98299455  1
  Si0+  Si116  1  0.67862830  0.92731742  0.01688332  1
  Si0+  Si117  1  0.57243177  0.67480429  0.98257156  1
  Si0+  Si118  1  0.32389798  0.57568189  0.35017121  1
  Si0+  Si119  1  0.67684719  0.42953372  0.01376185  1
  O2-  O120  1  0.24670639  -0.00527635  0.06062066  1
  O2-  O121  1  0.24481549  -0.00515620  0.39624274  1
  O2-  O122  1  0.24688286  0.00054760  0.72437914  1
  O2-  O123  1  0.25203237  0.50039422  0.05739643  1
  O2-  O124  1  0.25621742  0.50548568  0.39270145  1
  O2-  O125  1  0.25535564  0.50623241  0.73062293  1
  O2-  O126  1  0.75207581  -0.00863840  0.05980226  1
  O2-  O127  1  0.75818541  0.00288345  0.39487554  1
  O2-  O128  1  0.75885875  0.00074067  0.72645451  1
  O2-  O129  1  0.74883225  0.49924840  0.05770740  1
  O2-  O130  1  0.75635280  0.49856370  0.39245695  1
  O2-  O131  1  0.74657104  0.49061003  0.72902551  1
  O2-  O132  1  0.00304592  0.24429267  0.27091040  1
  O2-  O133  1  0.00152103  0.24901147  0.60210364  1
  O2-  O134  1  -0.00018478  0.24170188  0.94191692  1
  O2-  O135  1  0.00559311  0.74916613  0.27266359  1
  O2-  O136  1  -0.00282880  0.75026533  0.60044728  1
  O2-  O137  1  0.00059311  0.75330055  0.93592697  1
  O2-  O138  1  0.50118207  0.25143061  0.26742129  1
  O2-  O139  1  0.50001444  0.26047155  0.60740028  1
  O2-  O140  1  0.49994096  0.24531221  0.93923743  1
  O2-  O141  1  0.49773221  0.74772674  0.27690060  1
  O2-  O142  1  0.50342085  0.74518362  0.60496447  1
  O2-  O143  1  0.50850824  0.74891314  0.94033228  1
  O2-  O144  1  0.07688779  0.18432187  0.09224568  1
  O2-  O145  1  0.07338265  0.17820174  0.42070150  1
  O2-  O146  1  0.07526053  0.17820674  0.76621834  1
  O2-  O147  1  0.06924487  0.67828688  0.09895347  1
  O2-  O148  1  0.07289440  0.67818218  0.42086115  1
  O2-  O149  1  0.06929063  0.68180592  0.76273979  1
  O2-  O150  1  0.57163451  0.17963697  0.08822468  1
  O2-  O151  1  0.56840378  0.17539979  0.42881234  1
  O2-  O152  1  0.56611903  0.17970031  0.76683791  1
  O2-  O153  1  0.57005172  0.67080517  0.08853995  1
  O2-  O154  1  0.57197285  0.67987550  0.42435456  1
  O2-  O155  1  0.56950420  0.67444362  0.75521682  1
  O2-  O156  1  0.17912671  0.43403525  0.23332776  1
  O2-  O157  1  0.18258735  0.43052192  0.57072016  1
  O2-  O158  1  0.17972758  0.42976810  0.91130578  1
  O2-  O159  1  0.18048026  0.92444112  0.24470999  1
  O2-  O160  1  0.18116385  0.92846519  0.57478710  1
  O2-  O161  1  0.18069093  0.92607402  0.90974162  1
  O2-  O162  1  0.67738657  0.43192594  0.23215693  1
  O2-  O163  1  0.67452679  0.42705354  0.57836473  1
  O2-  O164  1  0.67572452  0.43151751  0.90878033  1
  O2-  O165  1  0.68256596  0.92885407  0.23384160  1
  O2-  O166  1  0.67788943  0.93190965  0.56890764  1
  O2-  O167  1  0.67516227  0.93060901  0.91150600  1
  O2-  O168  1  0.42794699  0.32358379  0.09844062  1
  O2-  O169  1  0.42948214  0.31922894  0.43412534  1
  O2-  O170  1  0.42746751  0.32124808  0.75744051  1
  O2-  O171  1  0.43425466  0.81946595  0.10218196  1
  O2-  O172  1  0.42872067  0.81986278  0.42358653  1
  O2-  O173  1  0.43109406  0.82235712  0.76499360  1
  O2-  O174  1  0.92871529  0.32135656  0.09990504  1
  O2-  O175  1  0.93274018  0.32256967  0.43152600  1
  O2-  O176  1  0.93047516  0.31828446  0.76564885  1
  O2-  O177  1  0.92779091  0.82065018  0.09860464  1
  O2-  O178  1  0.92520523  0.81686582  0.43115417  1
  O2-  O179  1  0.92772683  0.82200160  0.76555218  1
  O2-  O180  1  0.31975836  0.06788676  0.23602600  1
  O2-  O181  1  0.32107321  0.06797961  0.57772493  1
  O2-  O182  1  0.31997259  0.06937962  0.90070104  1
  O2-  O183  1  0.32367971  0.57937655  0.24419278  1
  O2-  O184  1  0.32447869  0.57424719  0.57951692  1
  O2-  O185  1  0.32462137  0.57113915  0.90966023  1
  O2-  O186  1  0.82363772  0.07170444  0.24462291  1
  O2-  O187  1  0.82175058  0.07393462  0.57526687  1
  O2-  O188  1  0.81784098  0.07455142  0.89998852  1
  O2-  O189  1  0.81808757  0.57126003  0.24197168  1
  O2-  O190  1  0.81574349  0.56840064  0.56823331  1
  O2-  O191  1  0.82108368  0.56895726  0.91202278  1
  O2-  O192  1  0.05461166  0.08323951  0.26876046  1
  O2-  O193  1  0.05087988  0.08031204  0.59577358  1
  O2-  O194  1  0.05492509  0.08249467  0.94476428  1
  O2-  O195  1  0.04516562  0.58640741  0.26808810  1
  O2-  O196  1  0.04059058  0.58024674  0.59920596  1
  O2-  O197  1  0.03848314  0.58202609  0.93205425  1
  O2-  O198  1  0.53965374  0.07837856  0.26301298  1
  O2-  O199  1  0.53228504  0.08700346  0.59787773  1
  O2-  O200  1  0.54611336  0.08451803  0.93812017  1
  O2-  O201  1  0.54448580  0.58749258  0.27073197  1
  O2-  O202  1  0.54581378  0.58270711  0.60262072  1
  O2-  O203  1  0.54227262  0.58490537  0.93222532  1
  O2-  O204  1  0.16704928  0.20806493  0.27105008  1
  O2-  O205  1  0.17265611  0.20912062  0.60063334  1
  O2-  O206  1  0.16423244  0.20895444  0.93791816  1
  O2-  O207  1  0.16717148  0.70257367  0.26946886  1
  O2-  O208  1  0.16837535  0.70512971  0.59541697  1
  O2-  O209  1  0.17025763  0.70092299  0.93173331  1
  O2-  O210  1  0.67081812  0.20190662  0.26336613  1
  O2-  O211  1  0.66539772  0.20406281  0.59655905  1
  O2-  O212  1  0.66224509  0.20786843  0.93483598  1
  O2-  O213  1  0.66073984  0.70869361  0.26872698  1
  O2-  O214  1  0.66484598  0.70249242  0.60469590  1
  O2-  O215  1  0.66778895  0.69513258  0.93899732  1
  O2-  O216  1  0.08757208  0.46064809  0.06315745  1
  O2-  O217  1  0.08400746  0.46478038  0.40186909  1
  O2-  O218  1  0.08419232  0.46045754  0.73804153  1
  O2-  O219  1  0.08519813  0.94855822  0.06240901  1
  O2-  O220  1  0.08245648  0.95080683  0.39452617  1
  O2-  O221  1  0.08518752  0.95420731  0.72640031  1
  O2-  O222  1  0.58510663  0.45996928  0.06083313  1
  O2-  O223  1  0.58404353  0.46104781  0.40228479  1
  O2-  O224  1  0.58264021  0.45313303  0.73072676  1
  O2-  O225  1  0.58721659  0.95753821  0.06549557  1
  O2-  O226  1  0.58553629  0.95919385  0.40136154  1
  O2-  O227  1  0.58365298  0.96794002  0.73547114  1
  O2-  O228  1  0.20658584  0.33876556  0.06405377  1
  O2-  O229  1  0.20887885  0.33568423  0.40318645  1
  O2-  O230  1  0.21312161  0.33440899  0.73984248  1
  O2-  O231  1  0.20611802  0.83118603  0.06087675  1
  O2-  O232  1  0.20266787  0.83236458  0.39654360  1
  O2-  O233  1  0.20877121  0.83661977  0.72613360  1
  O2-  O234  1  0.70295079  0.33732464  0.06040434  1
  O2-  O235  1  0.70687822  0.32910050  0.39755365  1
  O2-  O236  1  0.69804652  0.32907257  0.72770322  1
  O2-  O237  1  0.69658608  0.83022853  0.06000384  1
  O2-  O238  1  0.71070169  0.83181337  0.40041412  1
  O2-  O239  1  0.70027492  0.83220134  0.73725234  1
  O2-  O240  1  0.45346462  0.42248388  0.27007539  1
  O2-  O241  1  0.44591468  0.42077310  0.60911043  1
  O2-  O242  1  0.45733027  0.41655662  0.92934794  1
  O2-  O243  1  0.46076448  0.91133329  0.27201784  1
  O2-  O244  1  0.46358243  0.91633541  0.59721683  1
  O2-  O245  1  0.46208206  0.91812702  0.93381426  1
  O2-  O246  1  0.96267680  0.41799066  0.26484121  1
  O2-  O247  1  0.95857287  0.41910757  0.60101290  1
  O2-  O248  1  0.96090543  0.41446819  0.93358168  1
  O2-  O249  1  0.95686865  0.91860531  0.26532517  1
  O2-  O250  1  0.95207265  0.91936270  0.59797268  1
  O2-  O251  1  0.95276317  0.92435931  0.93470574  1
  O2-  O252  1  0.33003381  0.29074313  0.26916129  1
  O2-  O253  1  0.33535560  0.29401131  0.60676629  1
  O2-  O254  1  0.33036743  0.28990272  0.93227880  1
  O2-  O255  1  0.33630840  0.79601251  0.27091891  1
  O2-  O256  1  0.33520623  0.79245914  0.59424131  1
  O2-  O257  1  0.33703613  0.79001608  0.93356197  1
  O2-  O258  1  0.83397464  0.29213788  0.26449238  1
  O2-  O259  1  0.83031276  0.29524326  0.59926213  1
  O2-  O260  1  0.82998205  0.29179378  0.93289700  1
  O2-  O261  1  0.83281430  0.78694531  0.26250073  1
  O2-  O262  1  0.82551382  0.78932990  0.60388582  1
  O2-  O263  1  0.82783354  0.79437990  0.93466453  1
  O2-  O264  1  0.41728834  0.03943822  0.06876971  1
  O2-  O265  1  0.41542902  0.03547117  0.40339772  1
  O2-  O266  1  0.41059157  0.03752627  0.73041365  1
  O2-  O267  1  0.41521726  0.54452313  0.06167648  1
  O2-  O268  1  0.41773593  0.55403020  0.39708630  1
  O2-  O269  1  0.41721615  0.55311975  0.73215039  1
  O2-  O270  1  0.91972849  0.04863849  0.06927083  1
  O2-  O271  1  0.92115993  0.05052375  0.39326222  1
  O2-  O272  1  0.91979368  0.05230812  0.72451678  1
  O2-  O273  1  0.91256737  0.53997434  0.06473032  1
  O2-  O274  1  0.91600158  0.54996337  0.39196482  1
  O2-  O275  1  0.91547386  0.53922583  0.73748756  1
  O2-  O276  1  0.28859470  0.16680236  0.06918494  1
  O2-  O277  1  0.29012235  0.16485404  0.40518114  1
  O2-  O278  1  0.29574627  0.16198170  0.73027114  1
  O2-  O279  1  0.29514657  0.66315627  0.06290334  1
  O2-  O280  1  0.29678320  0.66902843  0.39701910  1
  O2-  O281  1  0.29656256  0.67064439  0.72821090  1
  O2-  O282  1  0.78540348  0.16670228  0.06851372  1
  O2-  O283  1  0.79944358  0.16661143  0.39536766  1
  O2-  O284  1  0.79223385  0.16501773  0.72729455  1
  O2-  O285  1  0.79373703  0.66161521  0.06478443  1
  O2-  O286  1  0.78941374  0.66246634  0.39429406  1
  O2-  O287  1  0.78488863  0.66211187  0.73988858  1
