# generated using pymatgen
data_Ca2Al2SiO7
_symmetry_space_group_name_H-M   'P 1'
_cell_length_a   15.47634442
_cell_length_b   15.47323080
_cell_length_c   15.29436710
_cell_angle_alpha   90.02436914
_cell_angle_beta   89.99746525
_cell_angle_gamma   90.00735457
_symmetry_Int_Tables_number   1
_chemical_formula_structural   Ca2Al2SiO7
_chemical_formula_sum   'Ca48 Al48 Si24 O168'
_cell_volume   3662.52718054
_cell_formula_units_Z   24
loop_
 _symmetry_equiv_pos_site_id
 _symmetry_equiv_pos_as_xyz
  1  'x, y, z'
loop_
 _atom_type_symbol
 _atom_type_oxidation_number
  Ca2+  2.0
  Al0+  0.0
  Si0+  0.0
  O2-  -2.0
loop_
 _atom_site_type_symbol
 _atom_site_label
 _atom_site_symmetry_multiplicity
 _atom_site_fract_x
 _atom_site_fract_y
 _atom_site_fract_z
 _atom_site_occupancy
  Ca2+  Ca0  1  0.17229562  0.07367491  0.16747536  1
  Ca2+  Ca1  1  0.17192067  0.07396855  0.50804536  1
  Ca2+  Ca2  1  0.18051436  0.07451523  0.83561312  1
  Ca2+  Ca3  1  0.16702142  0.58394346  0.16581336  1
  Ca2+  Ca4  1  0.17687348  0.57536432  0.51191725  1
  Ca2+  Ca5  1  0.17196313  0.58105409  0.83204877  1
  Ca2+  Ca6  1  0.66813649  0.08180818  0.17046686  1
  Ca2+  Ca7  1  0.66719521  0.07504286  0.50209328  1
  Ca2+  Ca8  1  0.65861584  0.08022251  0.83627237  1
  Ca2+  Ca9  1  0.65674302  0.57626893  0.16392102  1
  Ca2+  Ca10  1  0.67069451  0.57876775  0.51609402  1
  Ca2+  Ca11  1  0.65573986  0.57319579  0.83496390  1
  Ca2+  Ca12  1  0.07311235  0.32806893  0.15621279  1
  Ca2+  Ca13  1  0.07951291  0.33748949  0.50241127  1
  Ca2+  Ca14  1  0.07223184  0.34210314  0.82458113  1
  Ca2+  Ca15  1  0.08942076  0.83213416  0.15795240  1
  Ca2+  Ca16  1  0.08757391  0.83762399  0.49684333  1
  Ca2+  Ca17  1  0.09004727  0.83269330  0.83040038  1
  Ca2+  Ca18  1  0.57652788  0.32630406  0.15557964  1
  Ca2+  Ca19  1  0.57122004  0.34041142  0.50092009  1
  Ca2+  Ca20  1  0.57981299  0.32949429  0.83091471  1
  Ca2+  Ca21  1  0.58161460  0.82816013  0.15581506  1
  Ca2+  Ca22  1  0.58507340  0.83392949  0.50275536  1
  Ca2+  Ca23  1  0.57485420  0.82831085  0.82229840  1
  Ca2+  Ca24  1  0.34239718  0.41622509  0.16908826  1
  Ca2+  Ca25  1  0.33248072  0.41873619  0.51467694  1
  Ca2+  Ca26  1  0.34371860  0.42093270  0.83513839  1
  Ca2+  Ca27  1  0.33052354  0.91750541  0.16509993  1
  Ca2+  Ca28  1  0.32509386  0.91983028  0.51453800  1
  Ca2+  Ca29  1  0.33597740  0.92150899  0.84023118  1
  Ca2+  Ca30  1  0.82657140  0.41213252  0.16324692  1
  Ca2+  Ca31  1  0.82639261  0.42253793  0.51417084  1
  Ca2+  Ca32  1  0.82527497  0.41606848  0.83484636  1
  Ca2+  Ca33  1  0.82498906  0.92494392  0.17705534  1
  Ca2+  Ca34  1  0.82267570  0.92126858  0.50366543  1
  Ca2+  Ca35  1  0.82520293  0.91519017  0.83270677  1
  Ca2+  Ca36  1  0.41929961  0.17483055  0.15672456  1
  Ca2+  Ca37  1  0.40663236  0.17749461  0.50178925  1
  Ca2+  Ca38  1  0.41101738  0.17227849  0.82952689  1
  Ca2+  Ca39  1  0.42302370  0.67665735  0.15550283  1
  Ca2+  Ca40  1  0.41849937  0.66831553  0.50710596  1
  Ca2+  Ca41  1  0.42312095  0.67596270  0.82782662  1
  Ca2+  Ca42  1  0.91417418  0.16789238  0.15914265  1
  Ca2+  Ca43  1  0.91325720  0.16933478  0.49878057  1
  Ca2+  Ca44  1  0.91752054  0.17963118  0.82748345  1
  Ca2+  Ca45  1  0.92715049  0.67141906  0.15766261  1
  Ca2+  Ca46  1  0.91518333  0.66587039  0.50162531  1
  Ca2+  Ca47  1  0.92458931  0.65859943  0.82863756  1
  Al0+  Al48  1  -0.00051632  -0.00026366  0.00264003  1
  Al0+  Al49  1  -0.00036525  0.00115126  0.33933906  1
  Al0+  Al50  1  0.00037963  0.00029351  0.66912822  1
  Al0+  Al51  1  -0.00042855  0.50166043  -0.00493669  1
  Al0+  Al52  1  0.00009028  0.50041467  0.33061590  1
  Al0+  Al53  1  -0.00037261  0.50074631  0.66539762  1
  Al0+  Al54  1  0.49990334  0.00117845  0.00197722  1
  Al0+  Al55  1  0.49867253  0.00171099  0.33733272  1
  Al0+  Al56  1  0.50019018  0.00073608  0.66814409  1
  Al0+  Al57  1  0.50001720  0.49942650  0.00216337  1
  Al0+  Al58  1  0.49929445  0.50228164  0.33054310  1
  Al0+  Al59  1  0.50101791  0.49991929  0.66669036  1
  Al0+  Al60  1  0.24804278  0.24910059  0.00160524  1
  Al0+  Al61  1  0.24549184  0.25088511  0.32676534  1
  Al0+  Al62  1  0.24576354  0.24707319  0.66874654  1
  Al0+  Al63  1  0.25009665  0.74730206  -0.00369865  1
  Al0+  Al64  1  0.25133228  0.74758716  0.33629903  1
  Al0+  Al65  1  0.24940344  0.74652973  0.66790484  1
  Al0+  Al66  1  0.74892598  0.25171519  -0.00309487  1
  Al0+  Al67  1  0.74839881  0.25201150  0.33756490  1
  Al0+  Al68  1  0.75109536  0.25098592  0.66253156  1
  Al0+  Al69  1  0.75403161  0.74725187  -0.00152697  1
  Al0+  Al70  1  0.75153651  0.74899883  0.33310940  1
  Al0+  Al71  1  0.75400618  0.75125569  0.67051124  1
  Al0+  Al72  1  0.17903458  0.42783472  0.68077982  1
  Al0+  Al73  1  0.57176975  0.17848762  0.98617020  1
  Al0+  Al74  1  0.57314454  0.68023750  0.65179530  1
  Al0+  Al75  1  0.07120859  0.68032315  0.98484971  1
  Al0+  Al76  1  0.18219654  0.92801503  0.34710826  1
  Al0+  Al77  1  0.67813120  0.42808297  0.68198313  1
  Al0+  Al78  1  0.32348647  0.07300687  0.01820067  1
  Al0+  Al79  1  0.42793437  0.32136076  0.32017993  1
  Al0+  Al80  1  0.43066489  0.82140862  0.98686056  1
  Al0+  Al81  1  0.67685733  0.92648622  0.34761449  1
  Al0+  Al82  1  0.92976891  0.31951162  0.98588704  1
  Al0+  Al83  1  0.82055140  0.07369187  0.34848027  1
  Al0+  Al84  1  0.67941241  0.43027020  0.01561103  1
  Al0+  Al85  1  0.17805513  0.92704510  0.68198606  1
  Al0+  Al86  1  0.92942097  0.32172514  0.65007378  1
  Al0+  Al87  1  0.42644812  0.31990535  0.98492504  1
  Al0+  Al88  1  0.57414807  0.67814423  0.98560532  1
  Al0+  Al89  1  0.18051231  0.92740353  0.01531889  1
  Al0+  Al90  1  0.42879360  0.31889876  0.65463432  1
  Al0+  Al91  1  0.82166316  0.57226110  0.68237862  1
  Al0+  Al92  1  0.32300545  0.56918620  0.68366170  1
  Al0+  Al93  1  0.68002608  0.93067609  0.68138014  1
  Al0+  Al94  1  0.32199386  0.07091329  0.68101253  1
  Al0+  Al95  1  0.42810344  0.82211840  0.65058402  1
  Si0+  Si96  1  0.67807415  0.43218486  0.34809031  1
  Si0+  Si97  1  0.07026144  0.67896270  0.64884094  1
  Si0+  Si98  1  0.81942754  0.07098737  0.01231564  1
  Si0+  Si99  1  0.82224614  0.07272406  0.68422929  1
  Si0+  Si100  1  0.82550918  0.57135960  0.01953503  1
  Si0+  Si101  1  0.06826656  0.17758117  0.31651431  1
  Si0+  Si102  1  0.07132798  0.17547927  0.98257847  1
  Si0+  Si103  1  0.92801176  0.32223357  0.31758667  1
  Si0+  Si104  1  0.17495999  0.42935902  0.01558040  1
  Si0+  Si105  1  0.32010014  0.56795212  0.01710364  1
  Si0+  Si106  1  0.32023011  0.07552502  0.34960407  1
  Si0+  Si107  1  0.92842136  0.82428003  0.98321294  1
  Si0+  Si108  1  0.57245792  0.17870142  0.31816341  1
  Si0+  Si109  1  0.42775443  0.82103937  0.32073228  1
  Si0+  Si110  1  0.93043982  0.82369470  0.64997946  1
  Si0+  Si111  1  0.57273543  0.68059124  0.31860077  1
  Si0+  Si112  1  0.67966912  0.92646759  0.01314338  1
  Si0+  Si113  1  0.07155129  0.67981490  0.31893739  1
  Si0+  Si114  1  0.92957729  0.82160199  0.31920606  1
  Si0+  Si115  1  0.32108779  0.56880969  0.34788491  1
  Si0+  Si116  1  0.06936906  0.17643828  0.64796910  1
  Si0+  Si117  1  0.17648683  0.42915098  0.34567622  1
  Si0+  Si118  1  0.57378942  0.17692229  0.64740220  1
  Si0+  Si119  1  0.82358084  0.56974030  0.34659440  1
  O2-  O120  1  0.25215146  -0.00126286  0.06695676  1
  O2-  O121  1  0.25748560  0.00140638  0.39348762  1
  O2-  O122  1  0.25662688  -0.00792228  0.72963624  1
  O2-  O123  1  0.25068903  0.49458413  0.05998607  1
  O2-  O124  1  0.25312149  0.49366889  0.38736085  1
  O2-  O125  1  0.25555062  0.49250082  0.73337373  1
  O2-  O126  1  0.75001665  -0.00137973  0.05537961  1
  O2-  O127  1  0.74804991  0.00084251  0.39567917  1
  O2-  O128  1  0.75093799  0.00825972  0.72962150  1
  O2-  O129  1  0.75276480  0.50692870  0.06416298  1
  O2-  O130  1  0.75077492  0.50163304  0.38906799  1
  O2-  O131  1  0.74702757  0.50349406  0.73157111  1
  O2-  O132  1  -0.00469909  0.24789723  0.27504916  1
  O2-  O133  1  0.00268213  0.24653991  0.60166346  1
  O2-  O134  1  0.00640835  0.24760173  0.93868485  1
  O2-  O135  1  0.00368740  0.75381229  0.27630070  1
  O2-  O136  1  0.00247840  0.75350217  0.60692859  1
  O2-  O137  1  -0.00151018  0.75720979  0.93949073  1
  O2-  O138  1  0.50115121  0.24496877  0.27467268  1
  O2-  O139  1  0.50351804  0.24538576  0.60453234  1
  O2-  O140  1  0.49510762  0.24483216  0.93627692  1
  O2-  O141  1  0.50565502  0.75668863  0.27893961  1
  O2-  O142  1  0.50209270  0.75205698  0.59913337  1
  O2-  O143  1  0.50845008  0.75577153  0.93767464  1
  O2-  O144  1  0.06680984  0.17605923  0.08911401  1
  O2-  O145  1  0.07065639  0.17954581  0.42107164  1
  O2-  O146  1  0.06486722  0.17430905  0.75300254  1
  O2-  O147  1  0.06936477  0.67955158  0.09931357  1
  O2-  O148  1  0.06998840  0.67698780  0.42343687  1
  O2-  O149  1  0.06786276  0.67700297  0.75352425  1
  O2-  O150  1  0.57509751  0.18132409  0.10057338  1
  O2-  O151  1  0.57500467  0.18044807  0.42323150  1
  O2-  O152  1  0.57628618  0.17821813  0.75255794  1
  O2-  O153  1  0.57012036  0.68001373  0.10080996  1
  O2-  O154  1  0.57358865  0.67592929  0.42283829  1
  O2-  O155  1  0.57206774  0.68234064  0.76467203  1
  O2-  O156  1  0.17143363  0.43290295  0.24069550  1
  O2-  O157  1  0.17930190  0.43170498  0.56583516  1
  O2-  O158  1  0.17079416  0.43351382  0.91151059  1
  O2-  O159  1  0.18268164  0.92641939  0.23440589  1
  O2-  O160  1  0.17671997  0.93127221  0.56760992  1
  O2-  O161  1  0.17966360  0.92887727  0.90280961  1
  O2-  O162  1  0.67864131  0.43226255  0.24299665  1
  O2-  O163  1  0.67986630  0.42991409  0.56701697  1
  O2-  O164  1  0.68052576  0.42882860  0.90378708  1
  O2-  O165  1  0.68051719  0.92423381  0.23354714  1
  O2-  O166  1  0.68375938  0.93090092  0.56809797  1
  O2-  O167  1  0.68250038  0.92599557  0.90855853  1
  O2-  O168  1  0.43086813  0.32075967  0.09952019  1
  O2-  O169  1  0.42755511  0.32360731  0.43301186  1
  O2-  O170  1  0.42935140  0.31770651  0.76665039  1
  O2-  O171  1  0.43134101  0.81844996  0.10205210  1
  O2-  O172  1  0.42386039  0.81644858  0.42495380  1
  O2-  O173  1  0.42947611  0.82151938  0.76358968  1
  O2-  O174  1  0.93011037  0.31683436  0.10031204  1
  O2-  O175  1  0.93119668  0.32615945  0.42197785  1
  O2-  O176  1  0.93027830  0.32035487  0.76287112  1
  O2-  O177  1  0.92742986  0.82327995  0.08950674  1
  O2-  O178  1  0.92831551  0.81817793  0.42398074  1
  O2-  O179  1  0.93123240  0.82591420  0.75476573  1
  O2-  O180  1  0.31769743  0.07635111  0.24440125  1
  O2-  O181  1  0.31675880  0.07317017  0.56653870  1
  O2-  O182  1  0.32087289  0.07380323  0.90552683  1
  O2-  O183  1  0.32010830  0.57123272  0.24263715  1
  O2-  O184  1  0.31937672  0.56882433  0.56877558  1
  O2-  O185  1  0.31981180  0.56802456  0.91287988  1
  O2-  O186  1  0.82026179  0.07264269  0.23417900  1
  O2-  O187  1  0.82279526  0.06968151  0.57845730  1
  O2-  O188  1  0.82069504  0.06989132  0.90770126  1
  O2-  O189  1  0.82748646  0.56841551  0.24192496  1
  O2-  O190  1  0.82217207  0.56979798  0.56726557  1
  O2-  O191  1  0.83065396  0.56887234  0.91516335  1
  O2-  O192  1  0.04040435  0.08541392  0.26951653  1
  O2-  O193  1  0.04004728  0.08398566  0.60004021  1
  O2-  O194  1  0.04135940  0.08350830  0.93706672  1
  O2-  O195  1  0.04011588  0.58947163  0.26924113  1
  O2-  O196  1  0.03787021  0.58973256  0.59839947  1
  O2-  O197  1  0.03765262  0.58584254  0.93012587  1
  O2-  O198  1  0.55096086  0.08292016  0.27362603  1
  O2-  O199  1  0.54916626  0.08320507  0.60154812  1
  O2-  O200  1  0.55163278  0.07750240  0.93716173  1
  O2-  O201  1  0.53895114  0.59130862  0.26882147  1
  O2-  O202  1  0.54435138  0.58164703  0.59827189  1
  O2-  O203  1  0.53905075  0.58180570  0.93627088  1
  O2-  O204  1  0.15758404  0.20739653  0.26507805  1
  O2-  O205  1  0.16248092  0.20054648  0.60057296  1
  O2-  O206  1  0.16593755  0.19752597  0.93998427  1
  O2-  O207  1  0.16452276  0.70441143  0.27179185  1
  O2-  O208  1  0.16272726  0.70194026  0.60061719  1
  O2-  O209  1  0.16737246  0.70602387  0.92995450  1
  O2-  O210  1  0.66554385  0.20774743  0.27146199  1
  O2-  O211  1  0.66715804  0.20235445  0.60017688  1
  O2-  O212  1  0.66745230  0.21033315  0.93080984  1
  O2-  O213  1  0.66604232  0.70264616  0.27040299  1
  O2-  O214  1  0.67371598  0.70861338  0.60116428  1
  O2-  O215  1  0.67667120  0.69442221  0.93841286  1
  O2-  O216  1  0.08564202  0.46351274  0.06568547  1
  O2-  O217  1  0.08697789  0.46259199  0.39481653  1
  O2-  O218  1  0.08357012  0.46520204  0.73214686  1
  O2-  O219  1  0.08052321  0.95630750  0.06833429  1
  O2-  O220  1  0.08476822  0.95777863  0.39949489  1
  O2-  O221  1  0.08130906  0.95986078  0.73508497  1
  O2-  O222  1  0.58351506  0.46202758  0.07271018  1
  O2-  O223  1  0.58672093  0.46325163  0.39423727  1
  O2-  O224  1  0.57997427  0.45360189  0.73411018  1
  O2-  O225  1  0.58853632  0.95204794  0.06225466  1
  O2-  O226  1  0.57798200  0.95249763  0.40060896  1
  O2-  O227  1  0.58310102  0.95800725  0.73422572  1
  O2-  O228  1  0.19472270  0.33497074  0.06154411  1
  O2-  O229  1  0.19670616  0.33458048  0.38981871  1
  O2-  O230  1  0.19227804  0.32614517  0.72932420  1
  O2-  O231  1  0.20794514  0.82708259  0.06656315  1
  O2-  O232  1  0.20960541  0.82995493  0.40041778  1
  O2-  O233  1  0.19618567  0.82501855  0.72835731  1
  O2-  O234  1  0.71503431  0.33452219  0.07027698  1
  O2-  O235  1  0.70318198  0.34033494  0.39527074  1
  O2-  O236  1  0.71040631  0.32994481  0.73170114  1
  O2-  O237  1  0.70933460  0.83471662  0.06094039  1
  O2-  O238  1  0.70958703  0.82872995  0.39992101  1
  O2-  O239  1  0.71650966  0.83694978  0.73576814  1
  O2-  O240  1  0.46045938  0.41823409  0.26639130  1
  O2-  O241  1  0.45895675  0.41568526  0.59934685  1
  O2-  O242  1  0.45801873  0.41822746  0.93661697  1
  O2-  O243  1  0.44695545  0.91671264  0.27718225  1
  O2-  O244  1  0.45474934  0.92180482  0.59868935  1
  O2-  O245  1  0.45212715  0.92178994  0.93825862  1
  O2-  O246  1  0.95990411  0.41233237  0.26811811  1
  O2-  O247  1  0.96313733  0.41748263  0.59490235  1
  O2-  O248  1  0.95961980  0.41607249  0.93395835  1
  O2-  O249  1  0.95364457  0.91544097  0.27433092  1
  O2-  O250  1  0.95772008  0.91538668  0.60142261  1
  O2-  O251  1  0.95090758  0.91851059  0.93788536  1
  O2-  O252  1  0.32936810  0.29621933  0.26638911  1
  O2-  O253  1  0.33015092  0.28839571  0.60170813  1
  O2-  O254  1  0.32468675  0.29949514  0.93650678  1
  O2-  O255  1  0.33928587  0.78461542  0.27110385  1
  O2-  O256  1  0.32961884  0.78886805  0.59850154  1
  O2-  O257  1  0.33507045  0.78708457  0.93471955  1
  O2-  O258  1  0.83405378  0.29747340  0.27281148  1
  O2-  O259  1  0.83350537  0.29125516  0.59381133  1
  O2-  O260  1  0.83518882  0.28716746  0.93188089  1
  O2-  O261  1  0.83950945  0.79080986  0.26918306  1
  O2-  O262  1  0.84005508  0.79402051  0.60100657  1
  O2-  O263  1  0.83610053  0.79723476  0.93622513  1
  O2-  O264  1  0.42231136  0.04611986  0.07294673  1
  O2-  O265  1  0.41624771  0.05873036  0.39307874  1
  O2-  O266  1  0.42238714  0.05207229  0.73163799  1
  O2-  O267  1  0.41110809  0.54173949  0.06774447  1
  O2-  O268  1  0.41381633  0.54442395  0.39464260  1
  O2-  O269  1  0.42182049  0.54518928  0.73485599  1
  O2-  O270  1  0.91087879  0.04485406  0.06241730  1
  O2-  O271  1  0.91796653  0.04574632  0.40293766  1
  O2-  O272  1  0.91390528  0.04359869  0.73097122  1
  O2-  O273  1  0.91737144  0.54086086  0.06818122  1
  O2-  O274  1  0.91467550  0.54042476  0.39522463  1
  O2-  O275  1  0.91858916  0.53932083  0.73358963  1
  O2-  O276  1  0.29117799  0.17109835  0.07217028  1
  O2-  O277  1  0.28644569  0.16772050  0.39443464  1
  O2-  O278  1  0.28534863  0.16526471  0.73571555  1
  O2-  O279  1  0.28810448  0.65841928  0.06532582  1
  O2-  O280  1  0.28890512  0.65775909  0.39744910  1
  O2-  O281  1  0.28869831  0.66502701  0.73618484  1
  O2-  O282  1  0.79066105  0.16197468  0.06077845  1
  O2-  O283  1  0.79368695  0.17227776  0.40236646  1
  O2-  O284  1  0.80085983  0.16832037  0.72612058  1
  O2-  O285  1  0.80575028  0.66736856  0.06475940  1
  O2-  O286  1  0.79929805  0.66281517  0.39248055  1
  O2-  O287  1  0.80510208  0.67284996  0.73361695  1
