# generated using pymatgen
data_Ca2Al2SiO7
_symmetry_space_group_name_H-M   'P 1'
_cell_length_a   15.45891101
_cell_length_b   15.46118880
_cell_length_c   15.28424655
_cell_angle_alpha   90.01163924
_cell_angle_beta   90.00070092
_cell_angle_gamma   89.99939458
_symmetry_Int_Tables_number   1
_chemical_formula_structural   Ca2Al2SiO7
_chemical_formula_sum   'Ca48 Al48 Si24 O168'
_cell_volume   3653.13570965
_cell_formula_units_Z   24
loop_
 _symmetry_equiv_pos_site_id
 _symmetry_equiv_pos_as_xyz
  1  'x, y, z'
loop_
 _atom_type_symbol
 _atom_type_oxidation_number
  Ca2+  2.0
  Al0+  0.0
  Si0+  0.0
  O2-  -2.0
loop_
 _atom_site_type_symbol
 _atom_site_label
 _atom_site_symmetry_multiplicity
 _atom_site_fract_x
 _atom_site_fract_y
 _atom_site_fract_z
 _atom_site_occupancy
  Ca2+  Ca0  1  0.17762202  0.08872846  0.17358400  1
  Ca2+  Ca1  1  0.17447073  0.09086008  0.50703669  1
  Ca2+  Ca2  1  0.17374774  0.08637288  0.83209695  1
  Ca2+  Ca3  1  0.16771171  0.57496960  0.17191382  1
  Ca2+  Ca4  1  0.16341084  0.57032676  0.50402162  1
  Ca2+  Ca5  1  0.15977298  0.57565915  0.83409468  1
  Ca2+  Ca6  1  0.67385546  0.07938205  0.17440630  1
  Ca2+  Ca7  1  0.67113987  0.07551065  0.50587177  1
  Ca2+  Ca8  1  0.66129464  0.08159069  0.83528694  1
  Ca2+  Ca9  1  0.67083569  0.58298230  0.16979281  1
  Ca2+  Ca10  1  0.66582179  0.56885583  0.50373685  1
  Ca2+  Ca11  1  0.67148059  0.57661088  0.83890059  1
  Ca2+  Ca12  1  0.08134306  0.32806700  0.16553545  1
  Ca2+  Ca13  1  0.08786843  0.32565089  0.49650588  1
  Ca2+  Ca14  1  0.07268707  0.33235553  0.82349307  1
  Ca2+  Ca15  1  0.06912837  0.83649343  0.16286520  1
  Ca2+  Ca16  1  0.07167991  0.84617794  0.49851836  1
  Ca2+  Ca17  1  0.07294638  0.83805123  0.82470196  1
  Ca2+  Ca18  1  0.58117907  0.32855663  0.16402598  1
  Ca2+  Ca19  1  0.58140843  0.32996356  0.49536953  1
  Ca2+  Ca20  1  0.58615899  0.31905635  0.82502614  1
  Ca2+  Ca21  1  0.58141316  0.83122418  0.15831231  1
  Ca2+  Ca22  1  0.58960419  0.83648731  0.49742940  1
  Ca2+  Ca23  1  0.58146603  0.83146326  0.83140221  1
  Ca2+  Ca24  1  0.32914880  0.41308564  0.17754114  1
  Ca2+  Ca25  1  0.32335580  0.40775177  0.50083745  1
  Ca2+  Ca26  1  0.32495161  0.41264525  0.83261573  1
  Ca2+  Ca27  1  0.33915378  0.92751492  0.16947649  1
  Ca2+  Ca28  1  0.32579448  0.93118793  0.51058600  1
  Ca2+  Ca29  1  0.33107166  0.92627593  0.83805830  1
  Ca2+  Ca30  1  0.83004387  0.41990158  0.16913132  1
  Ca2+  Ca31  1  0.82366109  0.41081046  0.50722578  1
  Ca2+  Ca32  1  0.83282800  0.41467691  0.83975644  1
  Ca2+  Ca33  1  0.82920461  0.91756927  0.17737406  1
  Ca2+  Ca34  1  0.83012984  0.91830735  0.50248802  1
  Ca2+  Ca35  1  0.83107660  0.91174334  0.83488181  1
  Ca2+  Ca36  1  0.41893472  0.16695123  0.16389122  1
  Ca2+  Ca37  1  0.41912574  0.16403166  0.49628329  1
  Ca2+  Ca38  1  0.42470725  0.15515302  0.83137514  1
  Ca2+  Ca39  1  0.42644545  0.67496885  0.15554739  1
  Ca2+  Ca40  1  0.41756791  0.66974251  0.49539367  1
  Ca2+  Ca41  1  0.42011580  0.67198571  0.83268797  1
  Ca2+  Ca42  1  0.92082647  0.16765427  0.16454581  1
  Ca2+  Ca43  1  0.92879542  0.16509704  0.49651536  1
  Ca2+  Ca44  1  0.92073040  0.17955992  0.82282314  1
  Ca2+  Ca45  1  0.91012809  0.67661959  0.16084910  1
  Ca2+  Ca46  1  0.91473662  0.67850059  0.49866943  1
  Ca2+  Ca47  1  0.90874708  0.67574540  0.83171061  1
  Al0+  Al48  1  0.00074406  -0.00003974  -0.00440255  1
  Al0+  Al49  1  0.00079633  0.00116891  0.32499526  1
  Al0+  Al50  1  -0.00008791  0.00237733  0.66294857  1
  Al0+  Al51  1  -0.00230964  0.50012611  0.00358811  1
  Al0+  Al52  1  0.00033097  0.50069187  0.33730599  1
  Al0+  Al53  1  -0.00152057  0.50384125  0.66624829  1
  Al0+  Al54  1  0.49873434  -0.00025320  -0.00121371  1
  Al0+  Al55  1  0.50069572  -0.00015618  0.34014914  1
  Al0+  Al56  1  0.50109456  -0.00154146  0.66889707  1
  Al0+  Al57  1  0.49823947  0.49843035  -0.00416064  1
  Al0+  Al58  1  0.49996634  0.50077599  0.33185475  1
  Al0+  Al59  1  0.50205832  0.50018326  0.67163039  1
  Al0+  Al60  1  0.25028741  0.24836553  0.00457726  1
  Al0+  Al61  1  0.25094004  0.25055677  0.33205888  1
  Al0+  Al62  1  0.25117842  0.25297132  0.67558551  1
  Al0+  Al63  1  0.24786798  0.74881553  -0.00170538  1
  Al0+  Al64  1  0.24998155  0.74985633  0.33070750  1
  Al0+  Al65  1  0.24986167  0.75056698  0.66873828  1
  Al0+  Al66  1  0.74946065  0.24853534  -0.00539398  1
  Al0+  Al67  1  0.75162818  0.24948458  0.34029421  1
  Al0+  Al68  1  0.74791611  0.24839649  0.66235482  1
  Al0+  Al69  1  0.74982423  0.74742099  -0.00336140  1
  Al0+  Al70  1  0.75009406  0.74886669  0.33328855  1
  Al0+  Al71  1  0.74881439  0.74964554  0.66506715  1
  Al0+  Al72  1  0.81899923  0.57001852  0.01442551  1
  Al0+  Al73  1  0.93000964  0.81910130  0.31879444  1
  Al0+  Al74  1  0.56896038  0.17629608  0.65057435  1
  Al0+  Al75  1  0.17619098  0.92894025  0.68150649  1
  Al0+  Al76  1  0.68095362  0.92809666  0.68300458  1
  Al0+  Al77  1  0.92871355  0.82086055  0.65174583  1
  Al0+  Al78  1  0.67817820  0.42953663  0.34531002  1
  Al0+  Al79  1  0.07147325  0.18077184  0.31797871  1
  Al0+  Al80  1  0.42775721  0.82158658  0.98447212  1
  Al0+  Al81  1  0.57190484  0.67694432  0.98342705  1
  Al0+  Al82  1  0.92938402  0.82132456  0.98539965  1
  Al0+  Al83  1  0.93043251  0.32039548  0.98887132  1
  Al0+  Al84  1  0.32138936  0.07211736  0.68361950  1
  Al0+  Al85  1  0.68007006  0.92788776  0.34713428  1
  Al0+  Al86  1  0.82499389  0.07168939  0.34829724  1
  Al0+  Al87  1  0.17840075  0.43129481  0.68148798  1
  Al0+  Al88  1  0.92760177  0.32453081  0.65011049  1
  Al0+  Al89  1  0.32029726  0.07056640  0.34729036  1
  Al0+  Al90  1  0.56982142  0.18017299  0.98872090  1
  Al0+  Al91  1  0.43104858  0.31994092  0.32120861  1
  Al0+  Al92  1  0.17964870  0.42996903  0.34618497  1
  Al0+  Al93  1  0.07276620  0.18248087  0.65231794  1
  Al0+  Al94  1  0.32054269  0.06861478  0.01726201  1
  Al0+  Al95  1  0.67961404  0.42667454  0.68210491  1
  Si0+  Si96  1  0.42827188  0.82248427  0.31997365  1
  Si0+  Si97  1  0.42484998  0.32205956  0.98295590  1
  Si0+  Si98  1  0.42823799  0.82003456  0.65033767  1
  Si0+  Si99  1  0.07467755  0.67889478  0.64871801  1
  Si0+  Si100  1  0.42988688  0.32467078  0.65158064  1
  Si0+  Si101  1  0.57358604  0.17641069  0.31797362  1
  Si0+  Si102  1  0.32191746  0.57176293  0.01522202  1
  Si0+  Si103  1  0.17916419  0.43010675  0.01634597  1
  Si0+  Si104  1  0.56976884  0.67859369  0.64964470  1
  Si0+  Si105  1  0.67695571  0.42480259  0.01598814  1
  Si0+  Si106  1  0.82182993  0.07149180  0.68439120  1
  Si0+  Si107  1  0.07108941  0.67669468  0.98397247  1
  Si0+  Si108  1  0.17828332  0.92640453  0.34676171  1
  Si0+  Si109  1  0.68100899  0.92934324  0.01315363  1
  Si0+  Si110  1  0.92601739  0.32402796  0.31695197  1
  Si0+  Si111  1  0.82245775  0.07237694  0.01258714  1
  Si0+  Si112  1  0.32364596  0.57387577  0.68435502  1
  Si0+  Si113  1  0.82180272  0.57223269  0.35125410  1
  Si0+  Si114  1  0.07411192  0.17860361  0.98283026  1
  Si0+  Si115  1  0.17555375  0.92615864  0.01805672  1
  Si0+  Si116  1  0.07314606  0.67538231  0.31586584  1
  Si0+  Si117  1  0.56962608  0.67903004  0.31906976  1
  Si0+  Si118  1  0.32247370  0.57392942  0.34811106  1
  Si0+  Si119  1  0.81992037  0.57215817  0.68269489  1
  O2-  O120  1  0.24521129  -0.00656007  0.06313466  1
  O2-  O121  1  0.24653504  -0.00569246  0.39187612  1
  O2-  O122  1  0.24770464  0.00059854  0.73235676  1
  O2-  O123  1  0.25331906  0.49872419  0.05808200  1
  O2-  O124  1  0.25321620  0.50658066  0.39243736  1
  O2-  O125  1  0.25294223  0.50686038  0.72835159  1
  O2-  O126  1  0.75408142  -0.00163957  0.05506421  1
  O2-  O127  1  0.75174790  -0.00001653  0.39699013  1
  O2-  O128  1  0.75486528  0.00222646  0.73123545  1
  O2-  O129  1  0.74250008  0.49640142  0.06067879  1
  O2-  O130  1  0.75692420  0.49952055  0.39380106  1
  O2-  O131  1  0.75894750  0.49694114  0.72747756  1
  O2-  O132  1  -0.00593173  0.25445161  0.27281439  1
  O2-  O133  1  0.00225140  0.25522147  0.60048057  1
  O2-  O134  1  0.00386207  0.24593330  0.94040107  1
  O2-  O135  1  0.00509898  0.74441122  0.27160573  1
  O2-  O136  1  0.00890900  0.75091191  0.60569732  1
  O2-  O137  1  0.00631228  0.74841837  0.93948026  1
  O2-  O138  1  0.50662874  0.24671616  0.27335818  1
  O2-  O139  1  0.49499164  0.25325648  0.60678945  1
  O2-  O140  1  0.49570910  0.25540526  0.94067278  1
  O2-  O141  1  0.50064939  0.75256384  0.27781010  1
  O2-  O142  1  0.49809280  0.74840073  0.60633459  1
  O2-  O143  1  0.49922486  0.74884935  0.93403202  1
  O2-  O144  1  0.07479783  0.18037132  0.08866396  1
  O2-  O145  1  0.07420274  0.18285942  0.43049051  1
  O2-  O146  1  0.07037518  0.18444585  0.76634953  1
  O2-  O147  1  0.07102093  0.67574615  0.08961918  1
  O2-  O148  1  0.07411102  0.67405849  0.42102286  1
  O2-  O149  1  0.07385240  0.67671513  0.75443445  1
  O2-  O150  1  0.57129768  0.18133359  0.10205600  1
  O2-  O151  1  0.57095611  0.17594364  0.42323357  1
  O2-  O152  1  0.56775088  0.17690359  0.76411223  1
  O2-  O153  1  0.57083740  0.67888910  0.09784756  1
  O2-  O154  1  0.56732259  0.67708238  0.42429011  1
  O2-  O155  1  0.56875719  0.67881658  0.75443042  1
  O2-  O156  1  0.18128947  0.43204374  0.23251627  1
  O2-  O157  1  0.18148590  0.43170929  0.56850779  1
  O2-  O158  1  0.17863171  0.43206061  0.91125784  1
  O2-  O159  1  0.18113321  0.92480308  0.24100861  1
  O2-  O160  1  0.18022653  0.92747695  0.56762828  1
  O2-  O161  1  0.17428570  0.92714719  0.91284698  1
  O2-  O162  1  0.67769674  0.43281558  0.23193261  1
  O2-  O163  1  0.67600876  0.43168642  0.56883430  1
  O2-  O164  1  0.68000851  0.42412085  0.91056240  1
  O2-  O165  1  0.67916993  0.92708167  0.23273105  1
  O2-  O166  1  0.68262901  0.92715670  0.57017678  1
  O2-  O167  1  0.68124499  0.93003138  0.90807316  1
  O2-  O168  1  0.42392147  0.32293249  0.08867300  1
  O2-  O169  1  0.43097760  0.32033371  0.43404616  1
  O2-  O170  1  0.43255436  0.32791624  0.75730917  1
  O2-  O171  1  0.43180430  0.82085874  0.09894834  1
  O2-  O172  1  0.42582163  0.81905746  0.42496976  1
  O2-  O173  1  0.42922046  0.81761964  0.75524808  1
  O2-  O174  1  0.93152070  0.31969119  0.10215169  1
  O2-  O175  1  0.92720762  0.32590514  0.42195449  1
  O2-  O176  1  0.92957933  0.32330042  0.76439695  1
  O2-  O177  1  0.92842543  0.82010444  0.09856592  1
  O2-  O178  1  0.92997651  0.81733390  0.43171060  1
  O2-  O179  1  0.92723177  0.81635676  0.76490919  1
  O2-  O180  1  0.32165739  0.06877141  0.23388706  1
  O2-  O181  1  0.32135715  0.07084982  0.56981396  1
  O2-  O182  1  0.31941996  0.06892408  0.90482745  1
  O2-  O183  1  0.32229359  0.57421109  0.24236126  1
  O2-  O184  1  0.32520021  0.57478932  0.57872649  1
  O2-  O185  1  0.32058514  0.57169147  0.91021254  1
  O2-  O186  1  0.82223066  0.07065772  0.23341448  1
  O2-  O187  1  0.82094056  0.06911408  0.57898646  1
  O2-  O188  1  0.82132958  0.07326840  0.90777374  1
  O2-  O189  1  0.81956301  0.57429486  0.24547178  1
  O2-  O190  1  0.81530534  0.57495338  0.57704728  1
  O2-  O191  1  0.81944128  0.56867795  0.90157105  1
  O2-  O192  1  0.04408938  0.08491657  0.26020754  1
  O2-  O193  1  0.04551466  0.08416228  0.59873898  1
  O2-  O194  1  0.05155554  0.08430730  0.93792202  1
  O2-  O195  1  0.04688405  0.58186255  0.26904884  1
  O2-  O196  1  0.04419954  0.58763336  0.60036780  1
  O2-  O197  1  0.04121159  0.58441816  0.93770218  1
  O2-  O198  1  0.54582330  0.08267418  0.27264521  1
  O2-  O199  1  0.53827135  0.07932206  0.59724837  1
  O2-  O200  1  0.53831825  0.08438670  0.93424163  1
  O2-  O201  1  0.53973226  0.58971765  0.26825737  1
  O2-  O202  1  0.54084273  0.58638035  0.60293430  1
  O2-  O203  1  0.54360203  0.57816471  0.93086286  1
  O2-  O204  1  0.16598335  0.21636964  0.26222825  1
  O2-  O205  1  0.17306778  0.21241896  0.60353298  1
  O2-  O206  1  0.16731481  0.20676930  0.93806272  1
  O2-  O207  1  0.16762493  0.69910860  0.26879880  1
  O2-  O208  1  0.17027343  0.69827153  0.60374312  1
  O2-  O209  1  0.16595171  0.69573338  0.93777823  1
  O2-  O210  1  0.66861037  0.20131743  0.27416596  1
  O2-  O211  1  0.66528161  0.20560919  0.59658808  1
  O2-  O212  1  0.66511304  0.20837935  0.93074369  1
  O2-  O213  1  0.66201146  0.70463549  0.27203199  1
  O2-  O214  1  0.66027842  0.70768805  0.60123801  1
  O2-  O215  1  0.66866706  0.70575082  0.92928230  1
  O2-  O216  1  0.08912864  0.46098034  0.06511087  1
  O2-  O217  1  0.08338163  0.45906650  0.40155690  1
  O2-  O218  1  0.08175027  0.46500842  0.73501852  1
  O2-  O219  1  0.08172038  0.95404736  0.06387778  1
  O2-  O220  1  0.08412018  0.95290010  0.38895867  1
  O2-  O221  1  0.07713030  0.95678057  0.73320745  1
  O2-  O222  1  0.58036660  0.44679319  0.05798651  1
  O2-  O223  1  0.58343269  0.46584544  0.40013697  1
  O2-  O224  1  0.58532996  0.46220484  0.73794842  1
  O2-  O225  1  0.58935897  0.95789820  0.06004213  1
  O2-  O226  1  0.58215897  0.95347444  0.40214239  1
  O2-  O227  1  0.58389968  0.95717264  0.73609045  1
  O2-  O228  1  0.20549108  0.33774345  0.06311798  1
  O2-  O229  1  0.21507366  0.33574824  0.39996031  1
  O2-  O230  1  0.20974239  0.33808170  0.74097550  1
  O2-  O231  1  0.19746495  0.83048414  0.06236212  1
  O2-  O232  1  0.20134794  0.83179767  0.39263548  1
  O2-  O233  1  0.20308155  0.82926387  0.73383686  1
  O2-  O234  1  0.70628940  0.33243474  0.06268513  1
  O2-  O235  1  0.70320809  0.33253225  0.40019587  1
  O2-  O236  1  0.70614547  0.32810382  0.73353692  1
  O2-  O237  1  0.70700034  0.83644968  0.05905719  1
  O2-  O238  1  0.70738399  0.82881699  0.39976788  1
  O2-  O239  1  0.71116273  0.83053597  0.73577301  1
  O2-  O240  1  0.45888915  0.41785938  0.26596633  1
  O2-  O241  1  0.45735859  0.41788552  0.60499890  1
  O2-  O242  1  0.44447821  0.41663941  0.93653169  1
  O2-  O243  1  0.45707690  0.91437161  0.27361370  1
  O2-  O244  1  0.45818922  0.91083719  0.60364916  1
  O2-  O245  1  0.45798555  0.91826620  0.93102685  1
  O2-  O246  1  0.95295482  0.41848006  0.27189330  1
  O2-  O247  1  0.95008076  0.42591095  0.60091720  1
  O2-  O248  1  0.96158498  0.41716524  0.93572343  1
  O2-  O249  1  0.95953924  0.91460268  0.26199822  1
  O2-  O250  1  0.95584031  0.91837729  0.59835994  1
  O2-  O251  1  0.95695794  0.91847942  0.93069473  1
  O2-  O252  1  0.33595088  0.28888893  0.26473772  1
  O2-  O253  1  0.33398433  0.30186885  0.61044404  1
  O2-  O254  1  0.33148434  0.29405143  0.93764683  1
  O2-  O255  1  0.33729271  0.79475856  0.27003680  1
  O2-  O256  1  0.33615916  0.79265050  0.60268411  1
  O2-  O257  1  0.32857587  0.79292866  0.93333469  1
  O2-  O258  1  0.83161729  0.29910780  0.27153463  1
  O2-  O259  1  0.82974822  0.29389884  0.59882145  1
  O2-  O260  1  0.83452376  0.29097081  0.93356884  1
  O2-  O261  1  0.83314334  0.78609296  0.26514709  1
  O2-  O262  1  0.83380869  0.78402513  0.59761384  1
  O2-  O263  1  0.83426569  0.78732505  0.93150178  1
  O2-  O264  1  0.41765640  0.03674906  0.07092759  1
  O2-  O265  1  0.41609011  0.04094048  0.40245957  1
  O2-  O266  1  0.41802779  0.03702622  0.73571491  1
  O2-  O267  1  0.41506269  0.54639851  0.06191163  1
  O2-  O268  1  0.41553206  0.54864386  0.39472705  1
  O2-  O269  1  0.41574572  0.54609177  0.73244505  1
  O2-  O270  1  0.91627231  0.04804435  0.05823052  1
  O2-  O271  1  0.92395323  0.04143542  0.39812258  1
  O2-  O272  1  0.91616357  0.04840660  0.72937333  1
  O2-  O273  1  0.91491465  0.53976569  0.07117701  1
  O2-  O274  1  0.91708186  0.55324137  0.39598441  1
  O2-  O275  1  0.91635128  0.55758947  0.72661352  1
  O2-  O276  1  0.29037702  0.16625936  0.07131156  1
  O2-  O277  1  0.28875293  0.16673811  0.39962000  1
  O2-  O278  1  0.29764850  0.17068469  0.73824227  1
  O2-  O279  1  0.29313400  0.66303978  0.06389552  1
  O2-  O280  1  0.29817426  0.66793021  0.39490638  1
  O2-  O281  1  0.29989062  0.66749379  0.73108719  1
  O2-  O282  1  0.79115446  0.16258815  0.06140560  1
  O2-  O283  1  0.80107135  0.16992154  0.40235853  1
  O2-  O284  1  0.79358826  0.16488444  0.72910727  1
  O2-  O285  1  0.78691310  0.66664377  0.06914911  1
  O2-  O286  1  0.79058152  0.66314667  0.39893261  1
  O2-  O287  1  0.78516816  0.66202895  0.73064288  1
