# generated using pymatgen
data_Ca2Al2SiO7
_symmetry_space_group_name_H-M   'P 1'
_cell_length_a   15.45390954
_cell_length_b   15.45349386
_cell_length_c   15.28082443
_cell_angle_alpha   89.99663370
_cell_angle_beta   89.99377448
_cell_angle_gamma   89.99427980
_symmetry_Int_Tables_number   1
_chemical_formula_structural   Ca2Al2SiO7
_chemical_formula_sum   'Ca48 Al48 Si24 O168'
_cell_volume   3649.31901495
_cell_formula_units_Z   24
loop_
 _symmetry_equiv_pos_site_id
 _symmetry_equiv_pos_as_xyz
  1  'x, y, z'
loop_
 _atom_type_symbol
 _atom_type_oxidation_number
  Ca2+  2.0
  Al0+  0.0
  Si0+  0.0
  O2-  -2.0
loop_
 _atom_site_type_symbol
 _atom_site_label
 _atom_site_symmetry_multiplicity
 _atom_site_fract_x
 _atom_site_fract_y
 _atom_site_fract_z
 _atom_site_occupancy
  Ca2+  Ca0  1  0.16610346  0.08054752  0.17068370  1
  Ca2+  Ca1  1  0.16943706  0.08009712  0.50067301  1
  Ca2+  Ca2  1  0.17721774  0.08482139  0.84291766  1
  Ca2+  Ca3  1  0.17674087  0.59052502  0.16961820  1
  Ca2+  Ca4  1  0.17180588  0.58605971  0.50189062  1
  Ca2+  Ca5  1  0.16734284  0.58703945  0.83973646  1
  Ca2+  Ca6  1  0.67979499  0.08352505  0.16990903  1
  Ca2+  Ca7  1  0.67133101  0.08932812  0.50344873  1
  Ca2+  Ca8  1  0.67146399  0.08357017  0.84042953  1
  Ca2+  Ca9  1  0.66509034  0.57583096  0.17207277  1
  Ca2+  Ca10  1  0.67125449  0.57126134  0.50060932  1
  Ca2+  Ca11  1  0.65992033  0.57337774  0.84211322  1
  Ca2+  Ca12  1  0.07770667  0.32307126  0.16387839  1
  Ca2+  Ca13  1  0.07629735  0.32518418  0.48749111  1
  Ca2+  Ca14  1  0.08452414  0.32691018  0.83365083  1
  Ca2+  Ca15  1  0.08157219  0.83016937  0.15870802  1
  Ca2+  Ca16  1  0.08281365  0.83226853  0.49830389  1
  Ca2+  Ca17  1  0.07524229  0.82448586  0.83282691  1
  Ca2+  Ca18  1  0.57699931  0.34246607  0.16369996  1
  Ca2+  Ca19  1  0.58443102  0.33323880  0.49659614  1
  Ca2+  Ca20  1  0.58100821  0.33293878  0.83252499  1
  Ca2+  Ca21  1  0.57180098  0.82542041  0.15864098  1
  Ca2+  Ca22  1  0.57394640  0.83180861  0.49165642  1
  Ca2+  Ca23  1  0.58079100  0.82908724  0.83452037  1
  Ca2+  Ca24  1  0.34116697  0.42633482  0.17018219  1
  Ca2+  Ca25  1  0.33741488  0.41952505  0.49705717  1
  Ca2+  Ca26  1  0.33270698  0.42144225  0.84482222  1
  Ca2+  Ca27  1  0.33042611  0.91647937  0.17209095  1
  Ca2+  Ca28  1  0.32729370  0.91820661  0.50184553  1
  Ca2+  Ca29  1  0.33736149  0.92836341  0.84153276  1
  Ca2+  Ca30  1  0.82229700  0.41944658  0.17755342  1
  Ca2+  Ca31  1  0.82772485  0.41552886  0.50056754  1
  Ca2+  Ca32  1  0.81889261  0.41481754  0.84056346  1
  Ca2+  Ca33  1  0.84198741  0.92507615  0.16862772  1
  Ca2+  Ca34  1  0.83698683  0.92292336  0.50224802  1
  Ca2+  Ca35  1  0.83935889  0.91781414  0.84068725  1
  Ca2+  Ca36  1  0.41288935  0.18016941  0.15925499  1
  Ca2+  Ca37  1  0.42198196  0.16980821  0.49498558  1
  Ca2+  Ca38  1  0.41705490  0.16990070  0.82786998  1
  Ca2+  Ca39  1  0.41375783  0.67307441  0.15824151  1
  Ca2+  Ca40  1  0.41595350  0.67035441  0.48988481  1
  Ca2+  Ca41  1  0.41725148  0.66754096  0.84054777  1
  Ca2+  Ca42  1  0.92377681  0.16092161  0.16460652  1
  Ca2+  Ca43  1  0.91992449  0.17271742  0.48614449  1
  Ca2+  Ca44  1  0.92113878  0.16142557  0.83595441  1
  Ca2+  Ca45  1  0.91994513  0.67098239  0.15590806  1
  Ca2+  Ca46  1  0.91936959  0.66760960  0.49577573  1
  Ca2+  Ca47  1  0.92438274  0.67477145  0.82619024  1
  Al0+  Al48  1  0.00167539  0.00049469  -0.00512544  1
  Al0+  Al49  1  0.00139790  -0.00170932  0.34010219  1
  Al0+  Al50  1  0.00132401  -0.00113025  0.66459964  1
  Al0+  Al51  1  -0.00169539  0.49727528  -0.00436077  1
  Al0+  Al52  1  0.00080919  0.49953137  0.33196214  1
  Al0+  Al53  1  0.00116928  0.50032084  0.66373976  1
  Al0+  Al54  1  0.50130604  0.00181036  0.00367828  1
  Al0+  Al55  1  0.49978473  0.00008214  0.32785554  1
  Al0+  Al56  1  0.50175398  0.00146450  0.66568798  1
  Al0+  Al57  1  0.49716329  0.49957403  -0.00038512  1
  Al0+  Al58  1  0.50093337  0.49983808  0.34063112  1
  Al0+  Al59  1  0.49972607  0.50043710  0.67012922  1
  Al0+  Al60  1  0.24948753  0.25064394  -0.00379658  1
  Al0+  Al61  1  0.25159166  0.25012475  0.32622693  1
  Al0+  Al62  1  0.25067528  0.25211989  0.66871165  1
  Al0+  Al63  1  0.24944067  0.75137737  -0.00593274  1
  Al0+  Al64  1  0.24949925  0.75165654  0.33910701  1
  Al0+  Al65  1  0.24905841  0.75082342  0.66553978  1
  Al0+  Al66  1  0.74937104  0.24941320  0.00985343  1
  Al0+  Al67  1  0.75001032  0.24952637  0.33771695  1
  Al0+  Al68  1  0.74896522  0.24998169  0.66914410  1
  Al0+  Al69  1  0.74791149  0.74907854  -0.00788163  1
  Al0+  Al70  1  0.74999936  0.74969919  0.33637616  1
  Al0+  Al71  1  0.74970942  0.75084899  0.66160183  1
  Al0+  Al72  1  0.67902674  0.42901657  0.35055522  1
  Al0+  Al73  1  0.82449100  0.57321014  0.34781507  1
  Al0+  Al74  1  0.92798055  0.82174123  0.64753558  1
  Al0+  Al75  1  0.57089459  0.17947956  0.65425774  1
  Al0+  Al76  1  0.92722482  0.32263612  0.31783624  1
  Al0+  Al77  1  0.68025003  0.42933973  0.68361590  1
  Al0+  Al78  1  0.31948029  0.57078162  0.34708302  1
  Al0+  Al79  1  0.82008391  0.06840717  0.34824560  1
  Al0+  Al80  1  0.07050083  0.17641190  0.31856127  1
  Al0+  Al81  1  0.42677736  0.82073912  0.32029687  1
  Al0+  Al82  1  0.43155341  0.32140842  0.31996565  1
  Al0+  Al83  1  0.07018160  0.17952669  0.98497348  1
  Al0+  Al84  1  0.42975467  0.32036030  0.98594531  1
  Al0+  Al85  1  0.07126848  0.67598426  0.98606324  1
  Al0+  Al86  1  0.56906128  0.67790365  0.98585973  1
  Al0+  Al87  1  0.82185364  0.06762990  0.01329637  1
  Al0+  Al88  1  0.18031101  0.92977001  0.34701746  1
  Al0+  Al89  1  0.32134520  0.07083176  0.67903718  1
  Al0+  Al90  1  0.92827541  0.82111603  0.98644491  1
  Al0+  Al91  1  0.67840325  0.43047425  0.01526289  1
  Al0+  Al92  1  0.42786852  0.82434839  0.98420342  1
  Al0+  Al93  1  0.32355953  0.07344879  0.01500896  1
  Al0+  Al94  1  0.31656029  0.57058837  0.01269025  1
  Al0+  Al95  1  0.07172108  0.67800626  0.64770339  1
  Si0+  Si96  1  0.43092387  0.82184314  0.65178134  1
  Si0+  Si97  1  0.67726613  0.92470773  0.01694323  1
  Si0+  Si98  1  0.92864556  0.81993055  0.31936718  1
  Si0+  Si99  1  0.42741293  0.32313200  0.64968207  1
  Si0+  Si100  1  0.67596341  0.92798633  0.34969943  1
  Si0+  Si101  1  0.82241268  0.57264129  0.68398051  1
  Si0+  Si102  1  0.17783197  0.42927722  0.68131938  1
  Si0+  Si103  1  0.92895038  0.31869582  0.65375579  1
  Si0+  Si104  1  0.56996376  0.67689439  0.65012726  1
  Si0+  Si105  1  0.18052425  0.93064748  0.01469047  1
  Si0+  Si106  1  0.57344101  0.17668136  0.31503385  1
  Si0+  Si107  1  0.92509115  0.32020795  0.98314146  1
  Si0+  Si108  1  0.32026539  0.57222591  0.68256430  1
  Si0+  Si109  1  0.17880981  0.42629484  0.34831168  1
  Si0+  Si110  1  0.57158133  0.67892494  0.31908803  1
  Si0+  Si111  1  0.82143927  0.07019407  0.68176022  1
  Si0+  Si112  1  0.32326907  0.07441621  0.34874834  1
  Si0+  Si113  1  0.07157815  0.67907818  0.31894767  1
  Si0+  Si114  1  0.17806659  0.92810694  0.68649159  1
  Si0+  Si115  1  0.82257644  0.57276080  0.01351894  1
  Si0+  Si116  1  0.17464720  0.42629400  0.01694385  1
  Si0+  Si117  1  0.57410615  0.17932584  0.98571438  1
  Si0+  Si118  1  0.07357516  0.18001611  0.65191316  1
  Si0+  Si119  1  0.67859239  0.92803720  0.68097242  1
  O2-  O120  1  0.25152160  -0.00414573  0.06050480  1
  O2-  O121  1  0.25517557  0.00533861  0.39328729  1
  O2-  O122  1  0.24628358  -0.00205731  0.72883217  1
  O2-  O123  1  0.23888111  0.49931329  0.06029870  1
  O2-  O124  1  0.24622919  0.49504299  0.39516528  1
  O2-  O125  1  0.24820444  0.50132962  0.72308904  1
  O2-  O126  1  0.74925891  -0.00942421  0.06010116  1
  O2-  O127  1  0.74316465  -0.00335780  0.39663183  1
  O2-  O128  1  0.75303816  -0.00392468  0.72310459  1
  O2-  O129  1  0.75388051  0.50560674  0.05935049  1
  O2-  O130  1  0.75508957  0.49856240  0.39857667  1
  O2-  O131  1  0.75345478  0.50566540  0.73019839  1
  O2-  O132  1  -0.00211330  0.24842973  0.26928740  1
  O2-  O133  1  0.00014513  0.24831390  0.61015250  1
  O2-  O134  1  -0.00466105  0.25399306  0.93698659  1
  O2-  O135  1  -0.00484644  0.74467391  0.27747219  1
  O2-  O136  1  -0.00105544  0.74890502  0.59709805  1
  O2-  O137  1  -0.00463107  0.74438894  0.93704132  1
  O2-  O138  1  0.50493786  0.24591265  0.27226084  1
  O2-  O139  1  0.49578251  0.25364931  0.60704890  1
  O2-  O140  1  0.50211292  0.24322615  0.93965581  1
  O2-  O141  1  0.50254994  0.74696372  0.27520487  1
  O2-  O142  1  0.49867208  0.74805139  0.60826616  1
  O2-  O143  1  0.50081439  0.75315437  0.93393239  1
  O2-  O144  1  0.06842275  0.17833654  0.09746700  1
  O2-  O145  1  0.07008930  0.17872756  0.43327041  1
  O2-  O146  1  0.07375875  0.18191135  0.75684530  1
  O2-  O147  1  0.07194252  0.67929368  0.10006284  1
  O2-  O148  1  0.07277282  0.68139710  0.42387423  1
  O2-  O149  1  0.07099103  0.67803671  0.76096479  1
  O2-  O150  1  0.57561354  0.18144900  0.09106665  1
  O2-  O151  1  0.57114406  0.17486340  0.42119932  1
  O2-  O152  1  0.57149811  0.17927947  0.76716862  1
  O2-  O153  1  0.56795617  0.67866339  0.09945742  1
  O2-  O154  1  0.57009326  0.68135483  0.42546955  1
  O2-  O155  1  0.56908100  0.67639893  0.75477035  1
  O2-  O156  1  0.17893351  0.42737692  0.24321668  1
  O2-  O157  1  0.17872295  0.42623611  0.57651442  1
  O2-  O158  1  0.17708849  0.42516148  0.91049070  1
  O2-  O159  1  0.17999940  0.92764251  0.23406164  1
  O2-  O160  1  0.17914802  0.92820674  0.58064410  1
  O2-  O161  1  0.18015692  0.93360927  0.90887318  1
  O2-  O162  1  0.67678518  0.43365651  0.23719936  1
  O2-  O163  1  0.68164453  0.42942617  0.57106375  1
  O2-  O164  1  0.68005888  0.42942956  0.90160263  1
  O2-  O165  1  0.67736771  0.92740635  0.24447967  1
  O2-  O166  1  0.67616571  0.93005668  0.57600862  1
  O2-  O167  1  0.67574326  0.92765630  0.91083420  1
  O2-  O168  1  0.43176197  0.32210288  0.09888532  1
  O2-  O169  1  0.43096844  0.31921976  0.43368896  1
  O2-  O170  1  0.42608088  0.32329296  0.75507783  1
  O2-  O171  1  0.42785049  0.82147275  0.09774358  1
  O2-  O172  1  0.42893413  0.81945839  0.43444540  1
  O2-  O173  1  0.43333177  0.82293193  0.75634772  1
  O2-  O174  1  0.92602542  0.32013582  0.08803358  1
  O2-  O175  1  0.93032640  0.32003675  0.43267991  1
  O2-  O176  1  0.92949507  0.31675201  0.75888019  1
  O2-  O177  1  0.93166035  0.82211277  0.10049543  1
  O2-  O178  1  0.93016343  0.82053919  0.42420723  1
  O2-  O179  1  0.92891474  0.82185840  0.76087631  1
  O2-  O180  1  0.32230122  0.07400901  0.24354635  1
  O2-  O181  1  0.32000502  0.06966935  0.56577512  1
  O2-  O182  1  0.32121475  0.07299328  0.90123966  1
  O2-  O183  1  0.31810575  0.57263364  0.23443451  1
  O2-  O184  1  0.32130201  0.57139323  0.57740433  1
  O2-  O185  1  0.31628870  0.56752367  0.89892108  1
  O2-  O186  1  0.82156657  0.06474085  0.23532303  1
  O2-  O187  1  0.81996322  0.07133191  0.57686601  1
  O2-  O188  1  0.81957491  0.06825971  0.89939867  1
  O2-  O189  1  0.82193316  0.57705202  0.23429189  1
  O2-  O190  1  0.82168693  0.57029020  0.57851128  1
  O2-  O191  1  0.82265044  0.56945544  0.90768680  1
  O2-  O192  1  0.03970746  0.07753446  0.26825326  1
  O2-  O193  1  0.04921844  0.08647411  0.60703144  1
  O2-  O194  1  0.03854708  0.08523979  0.92717143  1
  O2-  O195  1  0.05264267  0.58515360  0.27290533  1
  O2-  O196  1  0.04653108  0.57791558  0.59543941  1
  O2-  O197  1  0.04790382  0.57604720  0.93244850  1
  O2-  O198  1  0.55032633  0.08316104  0.26777507  1
  O2-  O199  1  0.54199741  0.08328389  0.59764089  1
  O2-  O200  1  0.55418035  0.08363023  0.94180859  1
  O2-  O201  1  0.54579596  0.58480798  0.27657260  1
  O2-  O202  1  0.54007235  0.58550377  0.60267747  1
  O2-  O203  1  0.53374686  0.58293183  0.93004725  1
  O2-  O204  1  0.16872095  0.20345216  0.26566583  1
  O2-  O205  1  0.16418749  0.21099707  0.60389841  1
  O2-  O206  1  0.16503801  0.21245821  0.92866321  1
  O2-  O207  1  0.16127201  0.71420678  0.27265671  1
  O2-  O208  1  0.17098554  0.70843503  0.59604090  1
  O2-  O209  1  0.16632423  0.70897148  0.92942069  1
  O2-  O210  1  0.66796545  0.20124142  0.27190393  1
  O2-  O211  1  0.66746708  0.21138284  0.59992338  1
  O2-  O212  1  0.66678230  0.20881046  0.93897899  1
  O2-  O213  1  0.66508017  0.70473993  0.27313569  1
  O2-  O214  1  0.66155397  0.70433897  0.60252004  1
  O2-  O215  1  0.66711598  0.70135559  0.92874673  1
  O2-  O216  1  0.07826298  0.44536419  0.05983887  1
  O2-  O217  1  0.08526160  0.45081366  0.39528078  1
  O2-  O218  1  0.08557457  0.45502302  0.72961177  1
  O2-  O219  1  0.08795635  0.95978235  0.06059234  1
  O2-  O220  1  0.08609437  0.95998280  0.40626781  1
  O2-  O221  1  0.08371383  0.95391965  0.73087164  1
  O2-  O222  1  0.58210038  0.46335508  0.06714849  1
  O2-  O223  1  0.58367799  0.46118233  0.40824656  1
  O2-  O224  1  0.58216689  0.45977105  0.73568583  1
  O2-  O225  1  0.58580882  0.95313348  0.06570051  1
  O2-  O226  1  0.58131621  0.95339206  0.39533376  1
  O2-  O227  1  0.58878182  0.95893392  0.73040148  1
  O2-  O228  1  0.20435214  0.33428557  0.06248222  1
  O2-  O229  1  0.20642616  0.33275808  0.39489756  1
  O2-  O230  1  0.20650256  0.33855472  0.73143161  1
  O2-  O231  1  0.20282519  0.83562078  0.05883850  1
  O2-  O232  1  0.21342317  0.83638101  0.40654796  1
  O2-  O233  1  0.20468602  0.83413951  0.73103743  1
  O2-  O234  1  0.70814740  0.33502261  0.07103865  1
  O2-  O235  1  0.70352461  0.32955019  0.40334712  1
  O2-  O236  1  0.71312622  0.33313615  0.73792490  1
  O2-  O237  1  0.69875397  0.82908573  0.06026548  1
  O2-  O238  1  0.70076359  0.83471206  0.39717039  1
  O2-  O239  1  0.70244183  0.83428116  0.72703870  1
  O2-  O240  1  0.46322826  0.41940545  0.26912596  1
  O2-  O241  1  0.45466714  0.41709638  0.60479853  1
  O2-  O242  1  0.46201309  0.41497716  0.92971361  1
  O2-  O243  1  0.45471744  0.91762236  0.26595877  1
  O2-  O244  1  0.46210949  0.91169769  0.60271863  1
  O2-  O245  1  0.45805987  0.92370749  0.93322451  1
  O2-  O246  1  0.95607271  0.42058627  0.26432190  1
  O2-  O247  1  0.95586332  0.41075933  0.60695409  1
  O2-  O248  1  0.94765339  0.41356147  0.93440397  1
  O2-  O249  1  0.96193014  0.91039989  0.27371699  1
  O2-  O250  1  0.95867349  0.92091210  0.59556815  1
  O2-  O251  1  0.96247622  0.91612685  0.93004212  1
  O2-  O252  1  0.33519387  0.29439297  0.26410361  1
  O2-  O253  1  0.33326878  0.29854493  0.60354066  1
  O2-  O254  1  0.33293535  0.29272230  0.93063163  1
  O2-  O255  1  0.33064012  0.78781139  0.26799482  1
  O2-  O256  1  0.33754457  0.79609372  0.60656147  1
  O2-  O257  1  0.33131750  0.79568427  0.92840196  1
  O2-  O258  1  0.82724881  0.29575895  0.26899510  1
  O2-  O259  1  0.83789069  0.28934046  0.60635790  1
  O2-  O260  1  0.83202156  0.28984616  0.93809106  1
  O2-  O261  1  0.83458042  0.79841675  0.27357318  1
  O2-  O262  1  0.82787631  0.79754657  0.59513346  1
  O2-  O263  1  0.82874970  0.80021874  0.93241451  1
  O2-  O264  1  0.42140002  0.04866401  0.06908468  1
  O2-  O265  1  0.41795268  0.04837749  0.39320066  1
  O2-  O266  1  0.41817535  0.03926668  0.73240810  1
  O2-  O267  1  0.41174286  0.53681985  0.06636212  1
  O2-  O268  1  0.41486757  0.54089021  0.40425009  1
  O2-  O269  1  0.41162895  0.54402195  0.73028703  1
  O2-  O270  1  0.91928102  0.03675663  0.06555790  1
  O2-  O271  1  0.91479082  0.03581369  0.40497429  1
  O2-  O272  1  0.91532273  0.04492707  0.72718136  1
  O2-  O273  1  0.91686436  0.54759325  0.05883763  1
  O2-  O274  1  0.92396564  0.54668234  0.40072465  1
  O2-  O275  1  0.91705442  0.54619951  0.72775075  1
  O2-  O276  1  0.28862377  0.16975300  0.06640746  1
  O2-  O277  1  0.29725260  0.16801784  0.39510263  1
  O2-  O278  1  0.29201630  0.16877923  0.73223465  1
  O2-  O279  1  0.28885678  0.66959022  0.06402808  1
  O2-  O280  1  0.28648680  0.66516960  0.40443998  1
  O2-  O281  1  0.29353177  0.66493840  0.72872805  1
  O2-  O282  1  0.79024849  0.16228903  0.06996010  1
  O2-  O283  1  0.79155191  0.16511031  0.40334668  1
  O2-  O284  1  0.79152108  0.16053568  0.73048127  1
  O2-  O285  1  0.79917426  0.66822451  0.05650285  1
  O2-  O286  1  0.79379337  0.67052745  0.40369070  1
  O2-  O287  1  0.79702977  0.66808356  0.72617724  1
