# generated using pymatgen
data_Ca2Al2SiO7
_symmetry_space_group_name_H-M   'P 1'
_cell_length_a   15.46049980
_cell_length_b   15.45937301
_cell_length_c   15.28580344
_cell_angle_alpha   90.00177607
_cell_angle_beta   90.01274640
_cell_angle_gamma   90.00376109
_symmetry_Int_Tables_number   1
_chemical_formula_structural   Ca2Al2SiO7
_chemical_formula_sum   'Ca48 Al48 Si24 O168'
_cell_volume   3653.45417445
_cell_formula_units_Z   24
loop_
 _symmetry_equiv_pos_site_id
 _symmetry_equiv_pos_as_xyz
  1  'x, y, z'
loop_
 _atom_type_symbol
 _atom_type_oxidation_number
  Ca2+  2.0
  Al0+  0.0
  Si0+  0.0
  O2-  -2.0
loop_
 _atom_site_type_symbol
 _atom_site_label
 _atom_site_symmetry_multiplicity
 _atom_site_fract_x
 _atom_site_fract_y
 _atom_site_fract_z
 _atom_site_occupancy
  Ca2+  Ca0  1  0.15611146  0.07647257  0.16600652  1
  Ca2+  Ca1  1  0.16764511  0.08461222  0.50684728  1
  Ca2+  Ca2  1  0.15715922  0.08088692  0.84061691  1
  Ca2+  Ca3  1  0.16706962  0.57770041  0.17351851  1
  Ca2+  Ca4  1  0.17424823  0.58509707  0.50821694  1
  Ca2+  Ca5  1  0.16129573  0.57497850  0.83328153  1
  Ca2+  Ca6  1  0.67489382  0.07841202  0.18116458  1
  Ca2+  Ca7  1  0.66479491  0.07910465  0.50306798  1
  Ca2+  Ca8  1  0.66440691  0.07912864  0.83233264  1
  Ca2+  Ca9  1  0.67217813  0.57569505  0.17141449  1
  Ca2+  Ca10  1  0.66487768  0.57392336  0.50742914  1
  Ca2+  Ca11  1  0.67832503  0.57330340  0.83669896  1
  Ca2+  Ca12  1  0.07547849  0.32838619  0.15343815  1
  Ca2+  Ca13  1  0.08524910  0.33339542  0.50033366  1
  Ca2+  Ca14  1  0.08646575  0.33120472  0.82787935  1
  Ca2+  Ca15  1  0.07908984  0.82692076  0.15883089  1
  Ca2+  Ca16  1  0.07748738  0.81930374  0.49837357  1
  Ca2+  Ca17  1  0.07067381  0.82887314  0.82546305  1
  Ca2+  Ca18  1  0.58265201  0.33995956  0.16657849  1
  Ca2+  Ca19  1  0.58451194  0.33168777  0.48930923  1
  Ca2+  Ca20  1  0.58872073  0.33213096  0.82729422  1
  Ca2+  Ca21  1  0.59243658  0.82539398  0.16798366  1
  Ca2+  Ca22  1  0.58814597  0.82888988  0.49405370  1
  Ca2+  Ca23  1  0.58240955  0.83286514  0.82483705  1
  Ca2+  Ca24  1  0.32801674  0.41752805  0.17272000  1
  Ca2+  Ca25  1  0.33385939  0.42657872  0.50480726  1
  Ca2+  Ca26  1  0.32195790  0.42010945  0.83230938  1
  Ca2+  Ca27  1  0.32577574  0.91704065  0.16774396  1
  Ca2+  Ca28  1  0.33305757  0.91904753  0.50365740  1
  Ca2+  Ca29  1  0.32263780  0.92122330  0.83945213  1
  Ca2+  Ca30  1  0.82608552  0.41382741  0.16863563  1
  Ca2+  Ca31  1  0.82134463  0.42196114  0.50695480  1
  Ca2+  Ca32  1  0.83215609  0.42518686  0.84043740  1
  Ca2+  Ca33  1  0.83510769  0.92423318  0.17377238  1
  Ca2+  Ca34  1  0.82427444  0.91834748  0.50331893  1
  Ca2+  Ca35  1  0.83483385  0.91148037  0.83463723  1
  Ca2+  Ca36  1  0.42460049  0.17175396  0.16827647  1
  Ca2+  Ca37  1  0.43039073  0.17650384  0.49351784  1
  Ca2+  Ca38  1  0.42350942  0.17111150  0.82432837  1
  Ca2+  Ca39  1  0.42290711  0.65768056  0.17108252  1
  Ca2+  Ca40  1  0.41916358  0.66138665  0.49063261  1
  Ca2+  Ca41  1  0.41519136  0.66581927  0.82900142  1
  Ca2+  Ca42  1  0.91590952  0.17203120  0.15888242  1
  Ca2+  Ca43  1  0.91866276  0.16458730  0.49881261  1
  Ca2+  Ca44  1  0.92647034  0.17531807  0.83197391  1
  Ca2+  Ca45  1  0.91681801  0.67128266  0.16047746  1
  Ca2+  Ca46  1  0.92256084  0.66171370  0.50028347  1
  Ca2+  Ca47  1  0.91164140  0.67207024  0.82538666  1
  Al0+  Al48  1  -0.00080920  -0.00222165  -0.00214986  1
  Al0+  Al49  1  -0.00032358  -0.00133198  0.33962239  1
  Al0+  Al50  1  -0.00204274  0.00044235  0.65751551  1
  Al0+  Al51  1  0.00053111  0.50117772  0.00582951  1
  Al0+  Al52  1  0.00026739  0.49827951  0.32886372  1
  Al0+  Al53  1  0.00042475  0.50016396  0.66832197  1
  Al0+  Al54  1  0.49876262  -0.00078925  0.00071505  1
  Al0+  Al55  1  0.49756941  0.00006605  0.33172611  1
  Al0+  Al56  1  0.50009336  0.00126541  0.66665944  1
  Al0+  Al57  1  0.50057528  0.49916649  -0.00019992  1
  Al0+  Al58  1  0.49830118  0.50087228  0.33115503  1
  Al0+  Al59  1  0.49827970  0.50092159  0.67633768  1
  Al0+  Al60  1  0.25470865  0.24982219  0.00111190  1
  Al0+  Al61  1  0.24982636  0.24796444  0.32867480  1
  Al0+  Al62  1  0.25281871  0.25119546  0.66412186  1
  Al0+  Al63  1  0.25212493  0.75226495  0.00426869  1
  Al0+  Al64  1  0.24908743  0.74854744  0.33155833  1
  Al0+  Al65  1  0.24929848  0.75345088  0.66773330  1
  Al0+  Al66  1  0.75019812  0.24886663  -0.00202079  1
  Al0+  Al67  1  0.75251083  0.24898933  0.33850238  1
  Al0+  Al68  1  0.75189945  0.24578454  0.66645794  1
  Al0+  Al69  1  0.74924554  0.74793933  -0.00138423  1
  Al0+  Al70  1  0.75141346  0.75129326  0.33186525  1
  Al0+  Al71  1  0.74648188  0.75193030  0.66889814  1
  Al0+  Al72  1  0.92865046  0.81881140  0.98676365  1
  Al0+  Al73  1  0.07243926  0.18078582  0.65207870  1
  Al0+  Al74  1  0.17959419  0.42833834  0.67974196  1
  Al0+  Al75  1  0.67869860  0.93144270  0.68134222  1
  Al0+  Al76  1  0.17798204  0.93115038  0.01310666  1
  Al0+  Al77  1  0.32107059  0.57545230  0.68263289  1
  Al0+  Al78  1  0.67744297  0.92801310  0.34751231  1
  Al0+  Al79  1  0.07196941  0.17985012  0.98698764  1
  Al0+  Al80  1  0.82250918  0.07180646  0.35018450  1
  Al0+  Al81  1  0.67980767  0.42721967  0.01652283  1
  Al0+  Al82  1  0.57223044  0.17910415  0.65324407  1
  Al0+  Al83  1  0.82198490  0.57299634  0.01702307  1
  Al0+  Al84  1  0.67978908  0.43145502  0.34643290  1
  Al0+  Al85  1  0.57349172  0.17890257  0.31752495  1
  Al0+  Al86  1  0.07141755  0.67792090  0.31806207  1
  Al0+  Al87  1  0.17996873  0.42820771  0.01473719  1
  Al0+  Al88  1  0.42939139  0.32215846  0.31726953  1
  Al0+  Al89  1  0.92801119  0.32325159  0.98468071  1
  Al0+  Al90  1  0.31816352  0.56914146  0.34565685  1
  Al0+  Al91  1  0.67853288  0.42527625  0.68113864  1
  Al0+  Al92  1  0.07142080  0.67782789  0.65282788  1
  Al0+  Al93  1  0.92448153  0.82056911  0.64821803  1
  Al0+  Al94  1  0.82051290  0.57140060  0.67973504  1
  Al0+  Al95  1  0.57218053  0.67976055  0.32092050  1
  Si0+  Si96  1  0.93008485  0.82176115  0.31624178  1
  Si0+  Si97  1  0.42586500  0.82274977  0.31549316  1
  Si0+  Si98  1  0.57062291  0.17670599  0.98484774  1
  Si0+  Si99  1  0.07534402  0.67834563  0.98458150  1
  Si0+  Si100  1  0.07135984  0.17667208  0.31843967  1
  Si0+  Si101  1  0.42913130  0.82269504  0.98408523  1
  Si0+  Si102  1  0.82418784  0.57280195  0.34931263  1
  Si0+  Si103  1  0.81945316  0.06841754  0.01225869  1
  Si0+  Si104  1  0.92806052  0.32274830  0.64903435  1
  Si0+  Si105  1  0.17950035  0.92847283  0.35010159  1
  Si0+  Si106  1  0.32224663  0.57294944  0.01842543  1
  Si0+  Si107  1  0.92991730  0.32009949  0.31938445  1
  Si0+  Si108  1  0.56694682  0.67961122  0.65414698  1
  Si0+  Si109  1  0.43044076  0.32335763  0.65054466  1
  Si0+  Si110  1  0.56943077  0.67888899  0.98332136  1
  Si0+  Si111  1  0.43035233  0.32193163  0.98238679  1
  Si0+  Si112  1  0.17727337  0.93165576  0.68016398  1
  Si0+  Si113  1  0.32496530  0.07197628  0.01831713  1
  Si0+  Si114  1  0.82511398  0.07070898  0.68684507  1
  Si0+  Si115  1  0.67591947  0.92845988  0.01442592  1
  Si0+  Si116  1  0.32062336  0.07052442  0.68011172  1
  Si0+  Si117  1  0.31993281  0.07197285  0.34902820  1
  Si0+  Si118  1  0.17621202  0.42503876  0.34886621  1
  Si0+  Si119  1  0.42793038  0.82294138  0.65278421  1
  O2-  O120  1  0.25034155  0.00840344  0.06110888  1
  O2-  O121  1  0.24994455  0.00024598  0.39233694  1
  O2-  O122  1  0.24501124  0.00547344  0.72354826  1
  O2-  O123  1  0.25135051  0.50626725  0.06175736  1
  O2-  O124  1  0.24418361  0.49441171  0.39249013  1
  O2-  O125  1  0.24663919  0.50506793  0.73055323  1
  O2-  O126  1  0.74734331  -0.00122291  0.05545758  1
  O2-  O127  1  0.74622748  0.00269995  0.39776211  1
  O2-  O128  1  0.75506491  0.00281956  0.73073652  1
  O2-  O129  1  0.75345331  0.49731055  0.06669182  1
  O2-  O130  1  0.75153563  0.50854881  0.39342897  1
  O2-  O131  1  0.75329763  0.49478970  0.72998327  1
  O2-  O132  1  0.00146487  0.24854825  0.27771696  1
  O2-  O133  1  -0.00085283  0.25595261  0.60422522  1
  O2-  O134  1  0.00663310  0.25704326  0.93555284  1
  O2-  O135  1  -0.00403315  0.75130613  0.27084347  1
  O2-  O136  1  -0.00447977  0.74559813  0.60144653  1
  O2-  O137  1  0.00255289  0.74290101  0.94091609  1
  O2-  O138  1  0.50449557  0.25310996  0.26592410  1
  O2-  O139  1  0.50570778  0.26137762  0.60734740  1
  O2-  O140  1  0.50254779  0.25062528  0.94229283  1
  O2-  O141  1  0.49928036  0.75763086  0.27317474  1
  O2-  O142  1  0.49331567  0.74752866  0.61094029  1
  O2-  O143  1  0.49890245  0.75120559  0.94132418  1
  O2-  O144  1  0.06624187  0.17744877  0.10096505  1
  O2-  O145  1  0.07355004  0.17737380  0.42350051  1
  O2-  O146  1  0.07184476  0.17950578  0.76480038  1
  O2-  O147  1  0.07724029  0.68294295  0.09042412  1
  O2-  O148  1  0.07262534  0.67950949  0.43076307  1
  O2-  O149  1  0.07473669  0.68295854  0.76631623  1
  O2-  O150  1  0.56831781  0.17232126  0.08930550  1
  O2-  O151  1  0.56941307  0.17941510  0.43096562  1
  O2-  O152  1  0.56559933  0.17560812  0.76698355  1
  O2-  O153  1  0.56858291  0.68009916  0.08849959  1
  O2-  O154  1  0.56908721  0.67955357  0.43417202  1
  O2-  O155  1  0.56553377  0.68310892  0.75959126  1
  O2-  O156  1  0.17701527  0.42496154  0.24318600  1
  O2-  O157  1  0.18440131  0.42506800  0.56620700  1
  O2-  O158  1  0.18324982  0.42685486  0.90197851  1
  O2-  O159  1  0.17891168  0.93059325  0.24481451  1
  O2-  O160  1  0.18196057  0.93136778  0.57485849  1
  O2-  O161  1  0.18078549  0.93191545  0.89992474  1
  O2-  O162  1  0.68259158  0.43157860  0.23355924  1
  O2-  O163  1  0.67647791  0.42920527  0.56731425  1
  O2-  O164  1  0.67839659  0.42894726  0.90325750  1
  O2-  O165  1  0.68181464  0.92793031  0.23311639  1
  O2-  O166  1  0.67509376  0.93270462  0.56897356  1
  O2-  O167  1  0.67238567  0.93085483  0.90941737  1
  O2-  O168  1  0.42941276  0.32210196  0.08715885  1
  O2-  O169  1  0.42796641  0.32009108  0.43084924  1
  O2-  O170  1  0.42713810  0.31843861  0.75646447  1
  O2-  O171  1  0.42956106  0.82599273  0.08871828  1
  O2-  O172  1  0.42222221  0.82226856  0.42122444  1
  O2-  O173  1  0.42946006  0.82588549  0.75821426  1
  O2-  O174  1  0.92588250  0.31633557  0.09872798  1
  O2-  O175  1  0.93227674  0.32237862  0.42434035  1
  O2-  O176  1  0.92773440  0.32050827  0.75441891  1
  O2-  O177  1  0.93069162  0.82159057  0.09999185  1
  O2-  O178  1  0.93190090  0.82233802  0.42134419  1
  O2-  O179  1  0.92831293  0.82158503  0.76220179  1
  O2-  O180  1  0.31884957  0.07132352  0.24394896  1
  O2-  O181  1  0.32074339  0.06688198  0.57494996  1
  O2-  O182  1  0.33079208  0.06767487  0.91267247  1
  O2-  O183  1  0.31630496  0.56876968  0.23245082  1
  O2-  O184  1  0.32325751  0.57421359  0.56912780  1
  O2-  O185  1  0.32269728  0.57345018  0.91297855  1
  O2-  O186  1  0.82598933  0.06910864  0.23568845  1
  O2-  O187  1  0.82532064  0.07003646  0.58149178  1
  O2-  O188  1  0.81856178  0.06771316  0.90744389  1
  O2-  O189  1  0.82443079  0.57083148  0.24387040  1
  O2-  O190  1  0.81698086  0.57038851  0.56565687  1
  O2-  O191  1  0.81681088  0.57635507  0.90376347  1
  O2-  O192  1  0.04252679  0.08363432  0.27373848  1
  O2-  O193  1  0.04211350  0.08516388  0.59557452  1
  O2-  O194  1  0.03821139  0.08307487  0.93389321  1
  O2-  O195  1  0.04337060  0.58046999  0.26423538  1
  O2-  O196  1  0.04975322  0.57747087  0.60033237  1
  O2-  O197  1  0.05505953  0.58225179  0.94330976  1
  O2-  O198  1  0.54026908  0.08095357  0.26459934  1
  O2-  O199  1  0.53128238  0.08600232  0.59863992  1
  O2-  O200  1  0.53861041  0.08574010  0.93650554  1
  O2-  O201  1  0.53715000  0.58632932  0.26373853  1
  O2-  O202  1  0.54086547  0.58618733  0.60938291  1
  O2-  O203  1  0.53968370  0.58780548  0.93590259  1
  O2-  O204  1  0.16316057  0.19998110  0.26918638  1
  O2-  O205  1  0.17053656  0.20839491  0.59783531  1
  O2-  O206  1  0.17535772  0.19783663  0.93962880  1
  O2-  O207  1  0.16652392  0.71195284  0.26294003  1
  O2-  O208  1  0.16860421  0.71389154  0.59946636  1
  O2-  O209  1  0.16863965  0.70785311  0.94005005  1
  O2-  O210  1  0.67491928  0.20212587  0.26910385  1
  O2-  O211  1  0.67272259  0.19611994  0.60246300  1
  O2-  O212  1  0.66298267  0.20061834  0.93725410  1
  O2-  O213  1  0.66865851  0.70963481  0.26458248  1
  O2-  O214  1  0.65698739  0.71006570  0.60636956  1
  O2-  O215  1  0.66020671  0.70768123  0.93534724  1
  O2-  O216  1  0.08291192  0.45403250  0.06999839  1
  O2-  O217  1  0.08210615  0.44988316  0.39362409  1
  O2-  O218  1  0.08002374  0.45039259  0.73255813  1
  O2-  O219  1  0.08188588  0.96089850  0.06916704  1
  O2-  O220  1  0.08893869  0.95581847  0.39908220  1
  O2-  O221  1  0.08403701  0.95816165  0.72418410  1
  O2-  O222  1  0.58082016  0.45889906  0.06727620  1
  O2-  O223  1  0.58180981  0.46006262  0.39767533  1
  O2-  O224  1  0.58157404  0.45495927  0.73615055  1
  O2-  O225  1  0.58441117  0.95549389  0.06264257  1
  O2-  O226  1  0.57558944  0.95039193  0.39627593  1
  O2-  O227  1  0.58236605  0.96500923  0.73662694  1
  O2-  O228  1  0.21404987  0.33185029  0.06858552  1
  O2-  O229  1  0.20131702  0.33009883  0.39232500  1
  O2-  O230  1  0.21462943  0.33141207  0.73379654  1
  O2-  O231  1  0.21364102  0.83692418  0.06978351  1
  O2-  O232  1  0.21024987  0.83753070  0.39643090  1
  O2-  O233  1  0.20821445  0.84255374  0.73007482  1
  O2-  O234  1  0.70462498  0.32638044  0.06688208  1
  O2-  O235  1  0.71202666  0.33561541  0.40012875  1
  O2-  O236  1  0.70295465  0.32444774  0.73063324  1
  O2-  O237  1  0.70260349  0.83559243  0.05891241  1
  O2-  O238  1  0.70812298  0.83008932  0.40070949  1
  O2-  O239  1  0.70453049  0.83447713  0.73671458  1
  O2-  O240  1  0.45437181  0.42028400  0.26270811  1
  O2-  O241  1  0.44966587  0.42026308  0.60957208  1
  O2-  O242  1  0.45719467  0.41382796  0.93453257  1
  O2-  O243  1  0.44493747  0.91773871  0.26954116  1
  O2-  O244  1  0.45979103  0.91251875  0.60335191  1
  O2-  O245  1  0.45735003  0.91396257  0.93467333  1
  O2-  O246  1  0.95630382  0.41053950  0.26853754  1
  O2-  O247  1  0.95110625  0.41665169  0.60298345  1
  O2-  O248  1  0.95064873  0.42513761  0.93762050  1
  O2-  O249  1  0.96046371  0.91514300  0.27123509  1
  O2-  O250  1  0.95585511  0.91735062  0.59420922  1
  O2-  O251  1  0.96084122  0.91403897  0.93115261  1
  O2-  O252  1  0.33207819  0.28803008  0.26291478  1
  O2-  O253  1  0.34065226  0.29120856  0.60110384  1
  O2-  O254  1  0.34011235  0.29159735  0.93333394  1
  O2-  O255  1  0.33474818  0.79221036  0.26673037  1
  O2-  O256  1  0.33459088  0.80249088  0.60544192  1
  O2-  O257  1  0.33670864  0.79580237  0.93665906  1
  O2-  O258  1  0.83900604  0.29053957  0.27194391  1
  O2-  O259  1  0.83591824  0.29267585  0.60212580  1
  O2-  O260  1  0.83200072  0.28819086  0.93011374  1
  O2-  O261  1  0.83573720  0.80070504  0.27000338  1
  O2-  O262  1  0.82414992  0.79525821  0.59820194  1
  O2-  O263  1  0.83064958  0.79136704  0.93287013  1
  O2-  O264  1  0.41459681  0.03745636  0.06808165  1
  O2-  O265  1  0.41139590  0.04456515  0.39703630  1
  O2-  O266  1  0.40908684  0.03700807  0.73038090  1
  O2-  O267  1  0.41524053  0.54307442  0.06309889  1
  O2-  O268  1  0.41497382  0.54018295  0.39942172  1
  O2-  O269  1  0.41649121  0.54505405  0.74065595  1
  O2-  O270  1  0.90994938  0.03859015  0.06088035  1
  O2-  O271  1  0.91938793  0.04021512  0.40562471  1
  O2-  O272  1  0.91890349  0.04288749  0.73124306  1
  O2-  O273  1  0.92237706  0.55356912  0.06891477  1
  O2-  O274  1  0.91655174  0.54119389  0.39485542  1
  O2-  O275  1  0.92055137  0.54968049  0.73161161  1
  O2-  O276  1  0.30765341  0.16721434  0.06272370  1
  O2-  O277  1  0.28989007  0.16283368  0.39697546  1
  O2-  O278  1  0.29919749  0.16403284  0.72619954  1
  O2-  O279  1  0.30278507  0.66828924  0.06366556  1
  O2-  O280  1  0.28960175  0.66705190  0.39877024  1
  O2-  O281  1  0.29756242  0.67612557  0.73429296  1
  O2-  O282  1  0.79235010  0.15999064  0.06023184  1
  O2-  O283  1  0.79971983  0.17009584  0.40489211  1
  O2-  O284  1  0.80069160  0.16425127  0.73295643  1
  O2-  O285  1  0.78699981  0.67003552  0.07113184  1
  O2-  O286  1  0.80456261  0.66865696  0.39158593  1
  O2-  O287  1  0.78671957  0.66792522  0.73298823  1
