# generated using pymatgen
data_Ca2Al2SiO7
_symmetry_space_group_name_H-M   'P 1'
_cell_length_a   15.46111103
_cell_length_b   15.46024244
_cell_length_c   15.28481917
_cell_angle_alpha   90.01173460
_cell_angle_beta   90.01424390
_cell_angle_gamma   90.02544623
_symmetry_Int_Tables_number   1
_chemical_formula_structural   Ca2Al2SiO7
_chemical_formula_sum   'Ca48 Al48 Si24 O168'
_cell_volume   3653.56836970
_cell_formula_units_Z   24
loop_
 _symmetry_equiv_pos_site_id
 _symmetry_equiv_pos_as_xyz
  1  'x, y, z'
loop_
 _atom_type_symbol
 _atom_type_oxidation_number
  Ca2+  2.0
  Al0+  0.0
  Si0+  0.0
  O2-  -2.0
loop_
 _atom_site_type_symbol
 _atom_site_label
 _atom_site_symmetry_multiplicity
 _atom_site_fract_x
 _atom_site_fract_y
 _atom_site_fract_z
 _atom_site_occupancy
  Ca2+  Ca0  1  0.16995925  0.06996073  0.17454049  1
  Ca2+  Ca1  1  0.17842903  0.07172797  0.50587541  1
  Ca2+  Ca2  1  0.16702306  0.07252598  0.83722376  1
  Ca2+  Ca3  1  0.16302186  0.57798728  0.17254703  1
  Ca2+  Ca4  1  0.16506678  0.58155830  0.50127503  1
  Ca2+  Ca5  1  0.16038983  0.57842983  0.83631190  1
  Ca2+  Ca6  1  0.67530728  0.07662842  0.17653675  1
  Ca2+  Ca7  1  0.66675724  0.08026183  0.49980361  1
  Ca2+  Ca8  1  0.66475852  0.08612918  0.83308841  1
  Ca2+  Ca9  1  0.66230236  0.57489136  0.16964047  1
  Ca2+  Ca10  1  0.67082022  0.57155002  0.50862991  1
  Ca2+  Ca11  1  0.67005700  0.57720439  0.84112621  1
  Ca2+  Ca12  1  0.08093207  0.33502169  0.15833118  1
  Ca2+  Ca13  1  0.08704952  0.33713099  0.49482181  1
  Ca2+  Ca14  1  0.07903840  0.34445244  0.82972188  1
  Ca2+  Ca15  1  0.08734879  0.82516633  0.15962686  1
  Ca2+  Ca16  1  0.09377902  0.82417313  0.49379636  1
  Ca2+  Ca17  1  0.08843449  0.82551296  0.83018903  1
  Ca2+  Ca18  1  0.57692091  0.33815304  0.15798079  1
  Ca2+  Ca19  1  0.58971032  0.32974660  0.49707602  1
  Ca2+  Ca20  1  0.57959572  0.33373863  0.82890235  1
  Ca2+  Ca21  1  0.57668474  0.83238197  0.16334048  1
  Ca2+  Ca22  1  0.57550110  0.83441719  0.48892382  1
  Ca2+  Ca23  1  0.58523370  0.82396153  0.83105226  1
  Ca2+  Ca24  1  0.32519096  0.42217126  0.17139017  1
  Ca2+  Ca25  1  0.32208567  0.42319145  0.50065375  1
  Ca2+  Ca26  1  0.32276802  0.41316660  0.84016001  1
  Ca2+  Ca27  1  0.32508974  0.91672199  0.17595043  1
  Ca2+  Ca28  1  0.32809070  0.91924999  0.50115627  1
  Ca2+  Ca29  1  0.32379447  0.92020153  0.83422340  1
  Ca2+  Ca30  1  0.82237259  0.41149779  0.16938460  1
  Ca2+  Ca31  1  0.82455310  0.42312850  0.50592559  1
  Ca2+  Ca32  1  0.82551877  0.42053019  0.83715937  1
  Ca2+  Ca33  1  0.83141699  0.91814950  0.17232816  1
  Ca2+  Ca34  1  0.83062166  0.91983709  0.49838714  1
  Ca2+  Ca35  1  0.83750282  0.91628893  0.83982279  1
  Ca2+  Ca36  1  0.41397902  0.17257222  0.16324879  1
  Ca2+  Ca37  1  0.41630232  0.16123220  0.49719142  1
  Ca2+  Ca38  1  0.41787407  0.17213458  0.82563723  1
  Ca2+  Ca39  1  0.41773825  0.66736575  0.16655117  1
  Ca2+  Ca40  1  0.41227984  0.67268919  0.48987927  1
  Ca2+  Ca41  1  0.42279150  0.66373657  0.83385794  1
  Ca2+  Ca42  1  0.91586148  0.17083241  0.16196916  1
  Ca2+  Ca43  1  0.91691334  0.16842997  0.49372222  1
  Ca2+  Ca44  1  0.91764628  0.17578810  0.83284236  1
  Ca2+  Ca45  1  0.92940862  0.67223655  0.15865066  1
  Ca2+  Ca46  1  0.92727561  0.66062811  0.49750624  1
  Ca2+  Ca47  1  0.92664948  0.66708643  0.82925956  1
  Al0+  Al48  1  0.00045355  0.00079982  0.00199719  1
  Al0+  Al49  1  0.00000984  0.00050634  0.34050269  1
  Al0+  Al50  1  -0.00115628  0.00044540  0.66918873  1
  Al0+  Al51  1  -0.00205808  0.50055219  -0.00347564  1
  Al0+  Al52  1  -0.00276570  0.49844606  0.32974667  1
  Al0+  Al53  1  -0.00171059  0.50249442  0.66768279  1
  Al0+  Al54  1  0.50101288  0.00037507  -0.00073850  1
  Al0+  Al55  1  0.50129097  -0.00001934  0.33180552  1
  Al0+  Al56  1  0.50092235  0.00157711  0.66714478  1
  Al0+  Al57  1  0.49939930  0.49889956  -0.00551736  1
  Al0+  Al58  1  0.49851153  0.49839895  0.34203256  1
  Al0+  Al59  1  0.49850250  0.49845759  0.66703938  1
  Al0+  Al60  1  0.25061586  0.24968395  -0.00070549  1
  Al0+  Al61  1  0.24994726  0.24941753  0.33744437  1
  Al0+  Al62  1  0.24989394  0.25074003  0.67232985  1
  Al0+  Al63  1  0.25193499  0.75049397  -0.00170312  1
  Al0+  Al64  1  0.25175055  0.74840028  0.32850804  1
  Al0+  Al65  1  0.25064849  0.74980297  0.66687264  1
  Al0+  Al66  1  0.75069894  0.25002960  -0.00078168  1
  Al0+  Al67  1  0.75004858  0.24934856  0.33897735  1
  Al0+  Al68  1  0.74867463  0.24943323  0.66518290  1
  Al0+  Al69  1  0.75022755  0.75016373  -0.00589143  1
  Al0+  Al70  1  0.75137950  0.74879642  0.33643433  1
  Al0+  Al71  1  0.75172108  0.75082087  0.66814170  1
  Al0+  Al72  1  0.17700340  0.43003006  0.01350740  1
  Al0+  Al73  1  0.17839149  0.92753136  0.68291376  1
  Al0+  Al74  1  0.42806917  0.31997768  0.98680827  1
  Al0+  Al75  1  0.67910988  0.42958278  0.01385839  1
  Al0+  Al76  1  0.17986717  0.92900903  0.01508037  1
  Al0+  Al77  1  0.82023460  0.57243389  0.68342276  1
  Al0+  Al78  1  0.92973779  0.82296184  0.98590760  1
  Al0+  Al79  1  0.17966110  0.43110005  0.68055438  1
  Al0+  Al80  1  0.07005023  0.68064162  0.65044703  1
  Al0+  Al81  1  0.32039966  0.57084250  0.34682466  1
  Al0+  Al82  1  0.32213194  0.07217106  0.34666520  1
  Al0+  Al83  1  0.43078384  0.82133447  0.31891262  1
  Al0+  Al84  1  0.07318905  0.67924523  0.98339550  1
  Al0+  Al85  1  0.82147030  0.07136636  0.34887065  1
  Al0+  Al86  1  0.32275762  0.07069199  0.68359782  1
  Al0+  Al87  1  0.67833545  0.42738343  0.68402023  1
  Al0+  Al88  1  0.67777449  0.42965303  0.34683958  1
  Al0+  Al89  1  0.56982674  0.67919168  0.98755814  1
  Al0+  Al90  1  0.17570206  0.42926133  0.34619565  1
  Al0+  Al91  1  0.07009312  0.67883921  0.31854900  1
  Al0+  Al92  1  0.67905012  0.92676570  0.34677515  1
  Al0+  Al93  1  0.56989228  0.18026223  0.65067161  1
  Al0+  Al94  1  0.17919221  0.92665536  0.34738882  1
  Al0+  Al95  1  0.92808671  0.32061618  0.98616828  1
  Si0+  Si96  1  0.82069332  0.57366997  0.01806234  1
  Si0+  Si97  1  0.42862270  0.32120303  0.31937865  1
  Si0+  Si98  1  0.67849615  0.92721735  0.01344783  1
  Si0+  Si99  1  0.32283765  0.57369779  0.68442920  1
  Si0+  Si100  1  0.32408656  0.07174405  0.01696551  1
  Si0+  Si101  1  0.92998796  0.32004911  0.65066051  1
  Si0+  Si102  1  0.42495244  0.32246170  0.64681359  1
  Si0+  Si103  1  0.82018572  0.07105278  0.01362973  1
  Si0+  Si104  1  0.57251405  0.17753170  0.98474228  1
  Si0+  Si105  1  0.43197435  0.81942147  0.65238897  1
  Si0+  Si106  1  0.92668871  0.82511752  0.64724368  1
  Si0+  Si107  1  0.82245655  0.57159815  0.34795990  1
  Si0+  Si108  1  0.67922795  0.92992281  0.68255932  1
  Si0+  Si109  1  0.07127755  0.17813445  0.65186184  1
  Si0+  Si110  1  0.32321047  0.57131725  0.01530180  1
  Si0+  Si111  1  0.57354876  0.67522288  0.31992197  1
  Si0+  Si112  1  0.07190757  0.17852029  0.98407677  1
  Si0+  Si113  1  0.92770294  0.31893547  0.31844150  1
  Si0+  Si114  1  0.82119318  0.07151460  0.68367366  1
  Si0+  Si115  1  0.57292783  0.67777828  0.65115993  1
  Si0+  Si116  1  0.92728405  0.82401348  0.31815895  1
  Si0+  Si117  1  0.57241578  0.18022258  0.31693339  1
  Si0+  Si118  1  0.42881523  0.82478095  0.98115023  1
  Si0+  Si119  1  0.07188565  0.17861657  0.31998261  1
  O2-  O120  1  0.25659011  0.00237939  0.06084042  1
  O2-  O121  1  0.25154840  -0.00107935  0.39608595  1
  O2-  O122  1  0.24796149  0.00192471  0.73326942  1
  O2-  O123  1  0.24976106  0.50717131  0.05887921  1
  O2-  O124  1  0.24473841  0.50309037  0.39697172  1
  O2-  O125  1  0.25549781  0.50398196  0.72816023  1
  O2-  O126  1  0.75041276  -0.00208207  0.05438302  1
  O2-  O127  1  0.75099493  -0.00224893  0.39857800  1
  O2-  O128  1  0.75213449  -0.00137432  0.72592464  1
  O2-  O129  1  0.75296351  0.50393818  0.06292722  1
  O2-  O130  1  0.74919756  0.50763500  0.39183299  1
  O2-  O131  1  0.74574504  0.50317912  0.73399809  1
  O2-  O132  1  0.00106912  0.24985568  0.27683312  1
  O2-  O133  1  0.00247152  0.25079608  0.60782305  1
  O2-  O134  1  0.00798458  0.25143806  0.93869893  1
  O2-  O135  1  -0.00264903  0.75720449  0.27401001  1
  O2-  O136  1  -0.00304014  0.75807754  0.60390596  1
  O2-  O137  1  0.00255600  0.75349608  0.93424215  1
  O2-  O138  1  0.50068825  0.25085666  0.27589329  1
  O2-  O139  1  0.49596341  0.25542656  0.60281292  1
  O2-  O140  1  0.50221861  0.24404524  0.94097631  1
  O2-  O141  1  0.50818241  0.74684239  0.27508153  1
  O2-  O142  1  0.50098902  0.74692927  0.60840106  1
  O2-  O143  1  0.49713549  0.75501259  0.93812267  1
  O2-  O144  1  0.06870681  0.17735404  0.08988777  1
  O2-  O145  1  0.07058455  0.18035011  0.42522042  1
  O2-  O146  1  0.06717362  0.17692652  0.75696453  1
  O2-  O147  1  0.07136440  0.67921711  0.09717243  1
  O2-  O148  1  0.06749563  0.67729177  0.43174412  1
  O2-  O149  1  0.06926159  0.68058832  0.76312868  1
  O2-  O150  1  0.57359447  0.17634167  0.09031166  1
  O2-  O151  1  0.57399959  0.18121214  0.42190960  1
  O2-  O152  1  0.56990886  0.18024143  0.76405759  1
  O2-  O153  1  0.56871147  0.68062139  0.10078528  1
  O2-  O154  1  0.57201421  0.67601129  0.42570639  1
  O2-  O155  1  0.57207185  0.68022802  0.75640985  1
  O2-  O156  1  0.17687418  0.42798312  0.23262557  1
  O2-  O157  1  0.17985029  0.43130433  0.56763933  1
  O2-  O158  1  0.17914095  0.43036487  0.90039605  1
  O2-  O159  1  0.17936433  0.92930420  0.23353286  1
  O2-  O160  1  0.18133095  0.92735899  0.56969120  1
  O2-  O161  1  0.18039355  0.93146838  0.90215995  1
  O2-  O162  1  0.67775881  0.42838847  0.23347099  1
  O2-  O163  1  0.68215176  0.42754490  0.57010802  1
  O2-  O164  1  0.68038205  0.42939448  0.90136238  1
  O2-  O165  1  0.67996481  0.92901129  0.23263048  1
  O2-  O166  1  0.67895677  0.93054720  0.57778699  1
  O2-  O167  1  0.67689157  0.92908527  0.90809923  1
  O2-  O168  1  0.42938670  0.31968045  0.10049736  1
  O2-  O169  1  0.42901699  0.32046171  0.42419002  1
  O2-  O170  1  0.42513428  0.32125255  0.75251997  1
  O2-  O171  1  0.43094768  0.82792003  0.08646083  1
  O2-  O172  1  0.43219366  0.82073107  0.43255643  1
  O2-  O173  1  0.43490341  0.81839847  0.75771394  1
  O2-  O174  1  0.92454187  0.31504677  0.09940162  1
  O2-  O175  1  0.92682425  0.31833842  0.42373909  1
  O2-  O176  1  0.92952430  0.31722048  0.75580302  1
  O2-  O177  1  0.92813105  0.82237727  0.09965124  1
  O2-  O178  1  0.92486957  0.82247415  0.42357145  1
  O2-  O179  1  0.92514096  0.82605770  0.75260010  1
  O2-  O180  1  0.31885097  0.07425440  0.23285569  1
  O2-  O181  1  0.32300331  0.06703863  0.57025353  1
  O2-  O182  1  0.32545286  0.07022078  0.91159366  1
  O2-  O183  1  0.32467525  0.56670095  0.23336134  1
  O2-  O184  1  0.32294102  0.57494456  0.57903352  1
  O2-  O185  1  0.32534428  0.56887917  0.90953990  1
  O2-  O186  1  0.81924615  0.07357413  0.23489008  1
  O2-  O187  1  0.82140975  0.07187785  0.57900245  1
  O2-  O188  1  0.81845154  0.07256089  0.90832147  1
  O2-  O189  1  0.82306996  0.56986780  0.24249063  1
  O2-  O190  1  0.81903485  0.56912103  0.56919176  1
  O2-  O191  1  0.81784402  0.57295584  0.91264542  1
  O2-  O192  1  0.04259507  0.08651920  0.27320052  1
  O2-  O193  1  0.04071669  0.08699651  0.60408609  1
  O2-  O194  1  0.03948328  0.08776936  0.93615548  1
  O2-  O195  1  0.03530076  0.58282250  0.26421918  1
  O2-  O196  1  0.03520382  0.58438998  0.59687022  1
  O2-  O197  1  0.04134023  0.58185265  0.93066203  1
  O2-  O198  1  0.54689149  0.08830624  0.26868425  1
  O2-  O199  1  0.54050376  0.08245489  0.59724990  1
  O2-  O200  1  0.54987660  0.08306336  0.93758305  1
  O2-  O201  1  0.54358823  0.58197743  0.27487978  1
  O2-  O202  1  0.54745529  0.58433393  0.60585719  1
  O2-  O203  1  0.53777307  0.58505894  0.92975664  1
  O2-  O204  1  0.16340867  0.20568421  0.27164738  1
  O2-  O205  1  0.16428064  0.20494486  0.60707962  1
  O2-  O206  1  0.16714716  0.19729606  0.93953395  1
  O2-  O207  1  0.16730930  0.70524859  0.26436563  1
  O2-  O208  1  0.16900093  0.70913478  0.59880928  1
  O2-  O209  1  0.17306006  0.70477068  0.93153485  1
  O2-  O210  1  0.66467619  0.20916761  0.27045469  1
  O2-  O211  1  0.66746731  0.20941320  0.59622611  1
  O2-  O212  1  0.66500535  0.20439448  0.93725431  1
  O2-  O213  1  0.66906481  0.69571991  0.27525636  1
  O2-  O214  1  0.66487785  0.70675840  0.60498313  1
  O2-  O215  1  0.66460813  0.71083747  0.93028915  1
  O2-  O216  1  0.07797599  0.45631312  0.06514118  1
  O2-  O217  1  0.07562529  0.45343836  0.39733311  1
  O2-  O218  1  0.08271976  0.46237448  0.73255536  1
  O2-  O219  1  0.08365614  0.96225402  0.06874621  1
  O2-  O220  1  0.08152133  0.95319500  0.40145589  1
  O2-  O221  1  0.07877923  0.95565419  0.73401396  1
  O2-  O222  1  0.58153631  0.46125182  0.06537402  1
  O2-  O223  1  0.58259046  0.45556075  0.40458341  1
  O2-  O224  1  0.57678290  0.45092603  0.73185984  1
  O2-  O225  1  0.58700664  0.95593161  0.06150846  1
  O2-  O226  1  0.58234546  0.95841161  0.40016911  1
  O2-  O227  1  0.58943061  0.96032878  0.73164397  1
  O2-  O228  1  0.20768908  0.33171988  0.06504728  1
  O2-  O229  1  0.20625966  0.33229659  0.40010857  1
  O2-  O230  1  0.20616617  0.33398046  0.73557423  1
  O2-  O231  1  0.21094497  0.83149993  0.06659024  1
  O2-  O232  1  0.21049368  0.82898585  0.39768451  1
  O2-  O233  1  0.21193659  0.83075846  0.73585738  1
  O2-  O234  1  0.71061972  0.33216808  0.06680280  1
  O2-  O235  1  0.71283449  0.33538960  0.40162085  1
  O2-  O236  1  0.71037580  0.32932593  0.73497012  1
  O2-  O237  1  0.70516753  0.83545150  0.06027214  1
  O2-  O238  1  0.70363188  0.82798154  0.40139132  1
  O2-  O239  1  0.70493125  0.83745409  0.72975174  1
  O2-  O240  1  0.45766770  0.41330260  0.27312196  1
  O2-  O241  1  0.44783553  0.41776022  0.60229768  1
  O2-  O242  1  0.45928735  0.41426010  0.92962375  1
  O2-  O243  1  0.46209077  0.91740682  0.26277307  1
  O2-  O244  1  0.46301162  0.91051895  0.60609766  1
  O2-  O245  1  0.45709647  0.91744245  0.93368384  1
  O2-  O246  1  0.95096024  0.41053858  0.26917357  1
  O2-  O247  1  0.95588817  0.41243900  0.60433151  1
  O2-  O248  1  0.95276692  0.41781371  0.93168607  1
  O2-  O249  1  0.94917772  0.92001262  0.27474278  1
  O2-  O250  1  0.94874906  0.92081541  0.60313079  1
  O2-  O251  1  0.95390475  0.92348924  0.93432068  1
  O2-  O252  1  0.33687879  0.29236639  0.27166579  1
  O2-  O253  1  0.33139376  0.29452946  0.60176543  1
  O2-  O254  1  0.33222994  0.28910508  0.93070358  1
  O2-  O255  1  0.33675513  0.78862895  0.26160077  1
  O2-  O256  1  0.33983530  0.79306871  0.60554468  1
  O2-  O257  1  0.33626865  0.79859934  0.93436621  1
  O2-  O258  1  0.83667553  0.28664949  0.27095909  1
  O2-  O259  1  0.83919303  0.28868777  0.60305008  1
  O2-  O260  1  0.83441733  0.28318469  0.92955856  1
  O2-  O261  1  0.83311862  0.79795106  0.27169207  1
  O2-  O262  1  0.83231092  0.79887793  0.60164738  1
  O2-  O263  1  0.83134715  0.79654169  0.93110222  1
  O2-  O264  1  0.41915417  0.04824309  0.06231361  1
  O2-  O265  1  0.42162900  0.04634171  0.39686315  1
  O2-  O266  1  0.42067974  0.04004644  0.73683181  1
  O2-  O267  1  0.41478644  0.54051108  0.06202634  1
  O2-  O268  1  0.41579610  0.54095245  0.40536321  1
  O2-  O269  1  0.41732021  0.54937258  0.72967548  1
  O2-  O270  1  0.91185051  0.04655178  0.06237350  1
  O2-  O271  1  0.91907286  0.04691477  0.40471708  1
  O2-  O272  1  0.91290408  0.04678049  0.73263052  1
  O2-  O273  1  0.91466025  0.54826440  0.06210616  1
  O2-  O274  1  0.91224871  0.53814434  0.39645249  1
  O2-  O275  1  0.91659443  0.54024583  0.73663254  1
  O2-  O276  1  0.29832161  0.16546788  0.06205205  1
  O2-  O277  1  0.29342113  0.16865426  0.40257297  1
  O2-  O278  1  0.29625600  0.16961856  0.73550104  1
  O2-  O279  1  0.30494002  0.66768634  0.05829075  1
  O2-  O280  1  0.29551013  0.66983459  0.39845335  1
  O2-  O281  1  0.29842238  0.66675292  0.73147808  1
  O2-  O282  1  0.78954804  0.16089334  0.06293464  1
  O2-  O283  1  0.79026292  0.16725483  0.40500474  1
  O2-  O284  1  0.79005449  0.16216638  0.73108012  1
  O2-  O285  1  0.79330595  0.66750954  0.06276178  1
  O2-  O286  1  0.80454615  0.66621384  0.39484064  1
  O2-  O287  1  0.79569432  0.67249562  0.73505752  1
