# generated using pymatgen
data_Ca2Al2SiO7
_symmetry_space_group_name_H-M   'P 1'
_cell_length_a   15.46065601
_cell_length_b   15.46058182
_cell_length_c   15.28617102
_cell_angle_alpha   89.99245413
_cell_angle_beta   90.00984280
_cell_angle_gamma   90.00697749
_symmetry_Int_Tables_number   1
_chemical_formula_structural   Ca2Al2SiO7
_chemical_formula_sum   'Ca48 Al48 Si24 O168'
_cell_volume   3653.86461653
_cell_formula_units_Z   24
loop_
 _symmetry_equiv_pos_site_id
 _symmetry_equiv_pos_as_xyz
  1  'x, y, z'
loop_
 _atom_type_symbol
 _atom_type_oxidation_number
  Ca2+  2.0
  Al0+  0.0
  Si0+  0.0
  O2-  -2.0
loop_
 _atom_site_type_symbol
 _atom_site_label
 _atom_site_symmetry_multiplicity
 _atom_site_fract_x
 _atom_site_fract_y
 _atom_site_fract_z
 _atom_site_occupancy
  Ca2+  Ca0  1  0.17908196  0.07898987  0.17867172  1
  Ca2+  Ca1  1  0.17057509  0.07935102  0.49668564  1
  Ca2+  Ca2  1  0.17716474  0.07641064  0.84268941  1
  Ca2+  Ca3  1  0.17044517  0.58161637  0.17743586  1
  Ca2+  Ca4  1  0.17270226  0.59509466  0.49737049  1
  Ca2+  Ca5  1  0.16392501  0.58674080  0.83772365  1
  Ca2+  Ca6  1  0.65648125  0.07192298  0.16816108  1
  Ca2+  Ca7  1  0.66522478  0.07596264  0.50487595  1
  Ca2+  Ca8  1  0.66265830  0.08333152  0.83854830  1
  Ca2+  Ca9  1  0.67078085  0.57685387  0.18043788  1
  Ca2+  Ca10  1  0.66233429  0.58495595  0.50030006  1
  Ca2+  Ca11  1  0.66953601  0.58119742  0.84534082  1
  Ca2+  Ca12  1  0.08932237  0.33052531  0.16811200  1
  Ca2+  Ca13  1  0.08442962  0.32775689  0.48805337  1
  Ca2+  Ca14  1  0.07957292  0.33034375  0.83036301  1
  Ca2+  Ca15  1  0.08945808  0.82247517  0.16605488  1
  Ca2+  Ca16  1  0.08179366  0.82731703  0.48979612  1
  Ca2+  Ca17  1  0.08203332  0.82084150  0.82932629  1
  Ca2+  Ca18  1  0.58126666  0.33053794  0.15868577  1
  Ca2+  Ca19  1  0.58975592  0.32598470  0.49521810  1
  Ca2+  Ca20  1  0.58310023  0.32806326  0.83341684  1
  Ca2+  Ca21  1  0.57614355  0.83688115  0.16426233  1
  Ca2+  Ca22  1  0.57550828  0.82793405  0.49075546  1
  Ca2+  Ca23  1  0.57489074  0.83646675  0.83021280  1
  Ca2+  Ca24  1  0.33293403  0.42365689  0.17704360  1
  Ca2+  Ca25  1  0.32896460  0.42436094  0.49457593  1
  Ca2+  Ca26  1  0.33343394  0.41793245  0.83948185  1
  Ca2+  Ca27  1  0.33793941  0.92514267  0.17443016  1
  Ca2+  Ca28  1  0.33364747  0.91022802  0.49601229  1
  Ca2+  Ca29  1  0.34150925  0.91851443  0.83991391  1
  Ca2+  Ca30  1  0.82162415  0.42519440  0.16946956  1
  Ca2+  Ca31  1  0.82957398  0.42222287  0.49473788  1
  Ca2+  Ca32  1  0.82342806  0.42337075  0.84354319  1
  Ca2+  Ca33  1  0.81861498  0.91239181  0.17125250  1
  Ca2+  Ca34  1  0.82692098  0.91960763  0.50137297  1
  Ca2+  Ca35  1  0.82501266  0.92401240  0.83855528  1
  Ca2+  Ca36  1  0.41508115  0.17162731  0.15698878  1
  Ca2+  Ca37  1  0.41862694  0.16604679  0.49553590  1
  Ca2+  Ca38  1  0.42746325  0.16697358  0.83733907  1
  Ca2+  Ca39  1  0.41460479  0.67778323  0.16637088  1
  Ca2+  Ca40  1  0.42477721  0.67467476  0.49176937  1
  Ca2+  Ca41  1  0.42456304  0.67986383  0.82524031  1
  Ca2+  Ca42  1  0.92540434  0.16436287  0.16663041  1
  Ca2+  Ca43  1  0.92001693  0.16558680  0.49180023  1
  Ca2+  Ca44  1  0.91119583  0.16845844  0.82586634  1
  Ca2+  Ca45  1  0.92480538  0.65271204  0.16570458  1
  Ca2+  Ca46  1  0.92667683  0.66003001  0.49210975  1
  Ca2+  Ca47  1  0.92447244  0.65931177  0.83326684  1
  Al0+  Al48  1  0.00064783  -0.00340809  -0.00110769  1
  Al0+  Al49  1  0.00148597  0.00035616  0.32953707  1
  Al0+  Al50  1  0.00062341  -0.00017329  0.67298702  1
  Al0+  Al51  1  0.00041697  0.49735621  -0.00187977  1
  Al0+  Al52  1  -0.00297036  0.49678185  0.33453195  1
  Al0+  Al53  1  -0.00085645  0.49777914  0.66369197  1
  Al0+  Al54  1  0.49983484  0.00168542  -0.00029076  1
  Al0+  Al55  1  0.50129450  0.00067528  0.33977334  1
  Al0+  Al56  1  0.49831078  0.00250885  0.65969856  1
  Al0+  Al57  1  0.49772832  0.49984400  -0.00040062  1
  Al0+  Al58  1  0.49969848  0.49794181  0.34022154  1
  Al0+  Al59  1  0.49678102  0.49947065  0.66611443  1
  Al0+  Al60  1  0.25036522  0.24943327  -0.00303487  1
  Al0+  Al61  1  0.25097061  0.24946457  0.33743844  1
  Al0+  Al62  1  0.24922481  0.24950045  0.66971737  1
  Al0+  Al63  1  0.24927403  0.74895111  -0.00996766  1
  Al0+  Al64  1  0.25025661  0.75177320  0.33200213  1
  Al0+  Al65  1  0.24925904  0.74971920  0.66239786  1
  Al0+  Al66  1  0.75292117  0.25027349  0.00112238  1
  Al0+  Al67  1  0.75140272  0.25154109  0.33305897  1
  Al0+  Al68  1  0.75001807  0.25142322  0.66583750  1
  Al0+  Al69  1  0.75414601  0.75200807  0.00713338  1
  Al0+  Al70  1  0.75126009  0.74973851  0.34054619  1
  Al0+  Al71  1  0.75130965  0.75033074  0.66729364  1
  Al0+  Al72  1  0.17847492  0.42875170  0.34676685  1
  Al0+  Al73  1  0.57258711  0.67702658  0.31827176  1
  Al0+  Al74  1  0.06750721  0.67847717  0.65110537  1
  Al0+  Al75  1  0.82034012  0.07133776  0.67896127  1
  Al0+  Al76  1  0.07221482  0.17895426  0.31958211  1
  Al0+  Al77  1  0.17834840  0.92890039  0.34729942  1
  Al0+  Al78  1  0.57083625  0.18292821  0.65161887  1
  Al0+  Al79  1  0.42681380  0.32432421  0.98560434  1
  Al0+  Al80  1  0.32246392  0.07169631  0.35022808  1
  Al0+  Al81  1  0.42962271  0.82242869  0.64978216  1
  Al0+  Al82  1  0.82229253  0.57105597  0.01475272  1
  Al0+  Al83  1  0.57217408  0.18029996  0.98726545  1
  Al0+  Al84  1  0.67711611  0.42768711  0.35030429  1
  Al0+  Al85  1  0.67923003  0.93155105  0.01230927  1
  Al0+  Al86  1  0.43092384  0.82077679  0.98665401  1
  Al0+  Al87  1  0.06815485  0.67852167  0.98628663  1
  Al0+  Al88  1  0.06936455  0.67884417  0.31904000  1
  Al0+  Al89  1  0.57348302  0.67689314  0.65393705  1
  Al0+  Al90  1  0.67890767  0.92906994  0.34878669  1
  Al0+  Al91  1  0.43067124  0.82183587  0.31593409  1
  Al0+  Al92  1  0.32070886  0.57351232  0.34790474  1
  Al0+  Al93  1  0.31952731  0.06934278  0.01245617  1
  Al0+  Al94  1  0.67627553  0.42918543  0.01439608  1
  Al0+  Al95  1  0.82028123  0.57146548  0.35057085  1
  Si0+  Si96  1  0.07135736  0.17797335  0.65326893  1
  Si0+  Si97  1  0.32073485  0.07251835  0.68461523  1
  Si0+  Si98  1  0.82266328  0.57050065  0.68243024  1
  Si0+  Si99  1  0.31882301  0.57157167  0.68374103  1
  Si0+  Si100  1  0.31952835  0.57230688  0.01178833  1
  Si0+  Si101  1  0.42458204  0.32235607  0.64810156  1
  Si0+  Si102  1  0.67658763  0.92908478  0.68336866  1
  Si0+  Si103  1  0.17791240  0.42819197  0.68318406  1
  Si0+  Si104  1  0.93191094  0.31810756  0.98374066  1
  Si0+  Si105  1  0.92882940  0.82476054  0.65070061  1
  Si0+  Si106  1  0.57464274  0.67828739  0.98786298  1
  Si0+  Si107  1  0.82256334  0.07180476  0.34703834  1
  Si0+  Si108  1  0.92940652  0.31933950  0.65063072  1
  Si0+  Si109  1  0.42917533  0.31927830  0.32060326  1
  Si0+  Si110  1  0.67834157  0.42979997  0.68216184  1
  Si0+  Si111  1  0.57316159  0.17971584  0.31907472  1
  Si0+  Si112  1  0.92565622  0.82441612  0.98116677  1
  Si0+  Si113  1  0.17766125  0.92515923  0.01526378  1
  Si0+  Si114  1  0.92695084  0.32080856  0.31290747  1
  Si0+  Si115  1  0.82572395  0.07340210  0.01762328  1
  Si0+  Si116  1  0.17953585  0.92788510  0.68343208  1
  Si0+  Si117  1  0.92747278  0.82383962  0.31623442  1
  Si0+  Si118  1  0.07221503  0.17615442  0.98373347  1
  Si0+  Si119  1  0.17917903  0.42851844  0.01280758  1
  O2-  O120  1  0.24436917  -0.00459462  0.05852097  1
  O2-  O121  1  0.25135822  -0.00159956  0.40010989  1
  O2-  O122  1  0.25300436  -0.00293847  0.72530202  1
  O2-  O123  1  0.25271525  0.49677501  0.05325961  1
  O2-  O124  1  0.24391233  0.50543670  0.39854464  1
  O2-  O125  1  0.24760842  0.49983731  0.72634656  1
  O2-  O126  1  0.75500969  0.00634646  0.05955653  1
  O2-  O127  1  0.75442802  0.00454036  0.39318077  1
  O2-  O128  1  0.74555779  -0.00191311  0.72750525  1
  O2-  O129  1  0.74151043  0.50811612  0.06305259  1
  O2-  O130  1  0.74398713  0.50414088  0.40127535  1
  O2-  O131  1  0.74386502  0.50696934  0.72359778  1
  O2-  O132  1  -0.00154937  0.25354693  0.27049135  1
  O2-  O133  1  -0.00068342  0.24674067  0.60997632  1
  O2-  O134  1  -0.00182125  0.24302451  0.93950983  1
  O2-  O135  1  -0.00551519  0.75323419  0.27192222  1
  O2-  O136  1  -0.00719723  0.75286614  0.60520383  1
  O2-  O137  1  -0.00717395  0.75266300  0.93900191  1
  O2-  O138  1  0.50157537  0.25015197  0.27813406  1
  O2-  O139  1  0.49598029  0.25693713  0.60381044  1
  O2-  O140  1  0.50304016  0.25562058  0.93700843  1
  O2-  O141  1  0.50228698  0.74921244  0.26586356  1
  O2-  O142  1  0.50496118  0.75195041  0.60396922  1
  O2-  O143  1  0.50761015  0.74725664  0.94100865  1
  O2-  O144  1  0.07304388  0.17862349  0.08836500  1
  O2-  O145  1  0.06848087  0.18001297  0.43337265  1
  O2-  O146  1  0.07141223  0.18089981  0.75881407  1
  O2-  O147  1  0.06983589  0.67728883  0.09865607  1
  O2-  O148  1  0.06731229  0.68120228  0.43227544  1
  O2-  O149  1  0.06597475  0.67743101  0.76469316  1
  O2-  O150  1  0.56877990  0.17968757  0.10080905  1
  O2-  O151  1  0.57457222  0.18205528  0.42450122  1
  O2-  O152  1  0.57100443  0.18422971  0.76455847  1
  O2-  O153  1  0.57130765  0.67821245  0.09269067  1
  O2-  O154  1  0.56961237  0.68008576  0.43196955  1
  O2-  O155  1  0.57151333  0.67579142  0.76832457  1
  O2-  O156  1  0.18338561  0.42763587  0.23262331  1
  O2-  O157  1  0.17779419  0.42435243  0.57910388  1
  O2-  O158  1  0.17687225  0.42911184  0.90701451  1
  O2-  O159  1  0.17775612  0.93127414  0.23361111  1
  O2-  O160  1  0.17571942  0.93040510  0.57897682  1
  O2-  O161  1  0.17720503  0.92710715  0.90893397  1
  O2-  O162  1  0.67949649  0.42372011  0.23710218  1
  O2-  O163  1  0.68224472  0.42647361  0.57768558  1
  O2-  O164  1  0.68063792  0.42884676  0.89972607  1
  O2-  O165  1  0.67821720  0.93218633  0.23555220  1
  O2-  O166  1  0.67894754  0.93048799  0.57809987  1
  O2-  O167  1  0.68032302  0.93357847  0.89873783  1
  O2-  O168  1  0.42134651  0.32224668  0.09882105  1
  O2-  O169  1  0.42789509  0.31683539  0.42595596  1
  O2-  O170  1  0.42329505  0.32170193  0.75365978  1
  O2-  O171  1  0.42789021  0.82103900  0.09875167  1
  O2-  O172  1  0.43219181  0.82103586  0.42934154  1
  O2-  O173  1  0.43033386  0.82190294  0.76419917  1
  O2-  O174  1  0.93517094  0.31845039  0.08814836  1
  O2-  O175  1  0.92511208  0.31768274  0.41897069  1
  O2-  O176  1  0.93104517  0.31995857  0.75622714  1
  O2-  O177  1  0.92682946  0.83157123  0.08576310  1
  O2-  O178  1  0.93065286  0.82704331  0.42216348  1
  O2-  O179  1  0.93156733  0.82580134  0.75637668  1
  O2-  O180  1  0.32119282  0.07395020  0.23649471  1
  O2-  O181  1  0.31701026  0.07852043  0.58030740  1
  O2-  O182  1  0.31812520  0.06829239  0.89861018  1
  O2-  O183  1  0.32020700  0.57097826  0.23360444  1
  O2-  O184  1  0.31759102  0.57071155  0.57925784  1
  O2-  O185  1  0.31632597  0.57233232  0.90625080  1
  O2-  O186  1  0.82225804  0.07163083  0.24145842  1
  O2-  O187  1  0.82229997  0.06979207  0.56622401  1
  O2-  O188  1  0.82764560  0.07271121  0.91168351  1
  O2-  O189  1  0.82239758  0.56608628  0.23725476  1
  O2-  O190  1  0.82793443  0.56573739  0.57833524  1
  O2-  O191  1  0.82369437  0.56596661  0.90007024  1
  O2-  O192  1  0.04075201  0.08420267  0.26221416  1
  O2-  O193  1  0.04512097  0.08501245  0.60855233  1
  O2-  O194  1  0.04881490  0.08234036  0.93759206  1
  O2-  O195  1  0.03914838  0.58007733  0.26821227  1
  O2-  O196  1  0.03827240  0.58076967  0.59896234  1
  O2-  O197  1  0.03759473  0.58143534  0.93064165  1
  O2-  O198  1  0.54551282  0.08723795  0.27488147  1
  O2-  O199  1  0.54094195  0.08694243  0.59711224  1
  O2-  O200  1  0.53816737  0.08500576  0.93097620  1
  O2-  O201  1  0.54551135  0.57552277  0.27107563  1
  O2-  O202  1  0.54221001  0.57877974  0.60190700  1
  O2-  O203  1  0.54854850  0.58493268  0.94095285  1
  O2-  O204  1  0.16858303  0.21206453  0.26654931  1
  O2-  O205  1  0.16257128  0.20817336  0.60688463  1
  O2-  O206  1  0.16116431  0.20816500  0.93295110  1
  O2-  O207  1  0.16612401  0.70884851  0.26536599  1
  O2-  O208  1  0.16431891  0.70930701  0.59987114  1
  O2-  O209  1  0.16246967  0.71019231  0.92697391  1
  O2-  O210  1  0.66484619  0.20693626  0.27150969  1
  O2-  O211  1  0.66745839  0.21431607  0.59757788  1
  O2-  O212  1  0.67329193  0.20358476  0.93560086  1
  O2-  O213  1  0.67434847  0.70234538  0.27148989  1
  O2-  O214  1  0.67510177  0.69812554  0.60445110  1
  O2-  O215  1  0.67053772  0.70155540  0.94475288  1
  O2-  O216  1  0.08887250  0.45780760  0.06078504  1
  O2-  O217  1  0.07695142  0.44557524  0.39632639  1
  O2-  O218  1  0.08505073  0.45543737  0.73035806  1
  O2-  O219  1  0.08301055  0.94770893  0.05985536  1
  O2-  O220  1  0.08025571  0.96041986  0.40064743  1
  O2-  O221  1  0.08962680  0.95787530  0.73439021  1
  O2-  O222  1  0.57432895  0.44753736  0.06349800  1
  O2-  O223  1  0.57838635  0.44745131  0.40540249  1
  O2-  O224  1  0.58291934  0.44950300  0.72637288  1
  O2-  O225  1  0.58439398  0.96478193  0.06724462  1
  O2-  O226  1  0.58596172  0.96330034  0.40638908  1
  O2-  O227  1  0.58235124  0.95777457  0.72656440  1
  O2-  O228  1  0.20267579  0.33500322  0.05788615  1
  O2-  O229  1  0.21235990  0.33372684  0.40341846  1
  O2-  O230  1  0.20582428  0.33657790  0.73307291  1
  O2-  O231  1  0.20465746  0.83082005  0.05750208  1
  O2-  O232  1  0.20432393  0.83079640  0.40103033  1
  O2-  O233  1  0.20572441  0.83485037  0.72975141  1
  O2-  O234  1  0.71248675  0.33268479  0.06643500  1
  O2-  O235  1  0.71452378  0.33118644  0.40409513  1
  O2-  O236  1  0.71378275  0.34093921  0.73090885  1
  O2-  O237  1  0.70917708  0.83603282  0.06849803  1
  O2-  O238  1  0.71015320  0.83466609  0.40541520  1
  O2-  O239  1  0.70196750  0.83503680  0.72964357  1
  O2-  O240  1  0.45446098  0.41195704  0.27470205  1
  O2-  O241  1  0.44549146  0.41739378  0.60418676  1
  O2-  O242  1  0.45056783  0.42343781  0.92985640  1
  O2-  O243  1  0.46215714  0.92205577  0.26741368  1
  O2-  O244  1  0.45169172  0.92184766  0.59751780  1
  O2-  O245  1  0.46269625  0.91674135  0.93189573  1
  O2-  O246  1  0.95156348  0.41372719  0.26657764  1
  O2-  O247  1  0.95983889  0.40911846  0.60184030  1
  O2-  O248  1  0.96515780  0.40679479  0.93272275  1
  O2-  O249  1  0.95256310  0.91641408  0.26776530  1
  O2-  O250  1  0.95873901  0.91746628  0.60490409  1
  O2-  O251  1  0.95468971  0.91641692  0.93103866  1
  O2-  O252  1  0.33829000  0.29038778  0.27251357  1
  O2-  O253  1  0.33148072  0.29212353  0.60336247  1
  O2-  O254  1  0.32990190  0.29218870  0.92885020  1
  O2-  O255  1  0.33115688  0.79587748  0.26434555  1
  O2-  O256  1  0.33155734  0.79134555  0.59904525  1
  O2-  O257  1  0.33576978  0.78935557  0.92894893  1
  O2-  O258  1  0.83534746  0.29119429  0.26468029  1
  O2-  O259  1  0.83834747  0.29247752  0.60263991  1
  O2-  O260  1  0.83964837  0.29381770  0.93496693  1
  O2-  O261  1  0.83275388  0.79910756  0.27350557  1
  O2-  O262  1  0.83309994  0.80465191  0.60759331  1
  O2-  O263  1  0.83164264  0.80097730  0.93437701  1
  O2-  O264  1  0.41554232  0.04065799  0.06615104  1
  O2-  O265  1  0.42021277  0.04611534  0.40464285  1
  O2-  O266  1  0.41453710  0.04669156  0.72870521  1
  O2-  O267  1  0.41199004  0.54978911  0.05908307  1
  O2-  O268  1  0.41497234  0.53868055  0.40467899  1
  O2-  O269  1  0.41050874  0.54310434  0.73192028  1
  O2-  O270  1  0.91966643  0.04582180  0.06259743  1
  O2-  O271  1  0.91626504  0.04660928  0.39287253  1
  O2-  O272  1  0.91698707  0.04277105  0.73649694  1
  O2-  O273  1  0.91746068  0.53034201  0.06620877  1
  O2-  O274  1  0.91588677  0.53430981  0.40490416  1
  O2-  O275  1  0.91167537  0.53339059  0.73133463  1
  O2-  O276  1  0.28746284  0.16669687  0.06410372  1
  O2-  O277  1  0.29019026  0.16768336  0.40570776  1
  O2-  O278  1  0.28814982  0.16238403  0.73433474  1
  O2-  O279  1  0.28631372  0.66270792  0.05779699  1
  O2-  O280  1  0.29317408  0.67129924  0.40134172  1
  O2-  O281  1  0.28916779  0.66329761  0.73090198  1
  O2-  O282  1  0.80562101  0.16805088  0.06265734  1
  O2-  O283  1  0.79879595  0.16579170  0.39271875  1
  O2-  O284  1  0.79100276  0.16909592  0.73306001  1
  O2-  O285  1  0.81129531  0.67337715  0.06382381  1
  O2-  O286  1  0.80213695  0.67092753  0.40491726  1
  O2-  O287  1  0.80507702  0.66591605  0.72773068  1
