# generated using pymatgen
data_Ca2Al2SiO7
_symmetry_space_group_name_H-M   'P 1'
_cell_length_a   15.46441886
_cell_length_b   15.46790336
_cell_length_c   15.28962302
_cell_angle_alpha   90.00340359
_cell_angle_beta   89.99220992
_cell_angle_gamma   90.01257731
_symmetry_Int_Tables_number   1
_chemical_formula_structural   Ca2Al2SiO7
_chemical_formula_sum   'Ca48 Al48 Si24 O168'
_cell_volume   3657.31036309
_cell_formula_units_Z   24
loop_
 _symmetry_equiv_pos_site_id
 _symmetry_equiv_pos_as_xyz
  1  'x, y, z'
loop_
 _atom_type_symbol
 _atom_type_oxidation_number
  Ca2+  2.0
  Al0+  0.0
  Si0+  0.0
  O2-  -2.0
loop_
 _atom_site_type_symbol
 _atom_site_label
 _atom_site_symmetry_multiplicity
 _atom_site_fract_x
 _atom_site_fract_y
 _atom_site_fract_z
 _atom_site_occupancy
  Ca2+  Ca0  1  0.16256766  0.06878207  0.17123446  1
  Ca2+  Ca1  1  0.17389622  0.07056119  0.50868287  1
  Ca2+  Ca2  1  0.16989652  0.07024741  0.83145136  1
  Ca2+  Ca3  1  0.17601620  0.58710136  0.17122198  1
  Ca2+  Ca4  1  0.17255746  0.57649375  0.50218094  1
  Ca2+  Ca5  1  0.17028629  0.58170489  0.83781953  1
  Ca2+  Ca6  1  0.67028805  0.07570964  0.16422238  1
  Ca2+  Ca7  1  0.66527130  0.08231981  0.50696891  1
  Ca2+  Ca8  1  0.66894745  0.07869658  0.83959864  1
  Ca2+  Ca9  1  0.67813516  0.59340673  0.17219824  1
  Ca2+  Ca10  1  0.67296883  0.59089034  0.50699477  1
  Ca2+  Ca11  1  0.67846158  0.58997948  0.83198876  1
  Ca2+  Ca12  1  0.08580365  0.33527184  0.16418588  1
  Ca2+  Ca13  1  0.08307637  0.34187707  0.49846602  1
  Ca2+  Ca14  1  0.07767038  0.33333355  0.82113308  1
  Ca2+  Ca15  1  0.08237201  0.83084423  0.16123610  1
  Ca2+  Ca16  1  0.07521625  0.84083861  0.49617415  1
  Ca2+  Ca17  1  0.08220504  0.83056184  0.82914136  1
  Ca2+  Ca18  1  0.58190682  0.33417294  0.16324817  1
  Ca2+  Ca19  1  0.58384963  0.33226564  0.50470419  1
  Ca2+  Ca20  1  0.58040191  0.32713235  0.81863040  1
  Ca2+  Ca21  1  0.57834384  0.82905728  0.16776797  1
  Ca2+  Ca22  1  0.57118554  0.82253207  0.49706644  1
  Ca2+  Ca23  1  0.58022794  0.82958568  0.82223542  1
  Ca2+  Ca24  1  0.32855184  0.43108329  0.17495848  1
  Ca2+  Ca25  1  0.32610684  0.41712669  0.50636611  1
  Ca2+  Ca26  1  0.33299379  0.41955594  0.83357014  1
  Ca2+  Ca27  1  0.32034667  0.90865387  0.17352321  1
  Ca2+  Ca28  1  0.32862013  0.91218046  0.50826044  1
  Ca2+  Ca29  1  0.32885962  0.91417709  0.83351200  1
  Ca2+  Ca30  1  0.83506375  0.43303981  0.17143544  1
  Ca2+  Ca31  1  0.82961394  0.43101895  0.51093050  1
  Ca2+  Ca32  1  0.83145734  0.42540137  0.83030715  1
  Ca2+  Ca33  1  0.83097200  0.91571501  0.16904926  1
  Ca2+  Ca34  1  0.83636971  0.91298014  0.50640219  1
  Ca2+  Ca35  1  0.82758720  0.91907639  0.83928460  1
  Ca2+  Ca36  1  0.41537113  0.17055991  0.16365882  1
  Ca2+  Ca37  1  0.41303573  0.16879794  0.50573867  1
  Ca2+  Ca38  1  0.42267896  0.16929308  0.81862957  1
  Ca2+  Ca39  1  0.41209174  0.66675968  0.16480109  1
  Ca2+  Ca40  1  0.42501794  0.66739722  0.49289940  1
  Ca2+  Ca41  1  0.42316468  0.67042681  0.82402269  1
  Ca2+  Ca42  1  0.91596783  0.16848848  0.16080915  1
  Ca2+  Ca43  1  0.91700078  0.17816386  0.49918007  1
  Ca2+  Ca44  1  0.91424994  0.17202150  0.82610516  1
  Ca2+  Ca45  1  0.92122400  0.66730720  0.16275764  1
  Ca2+  Ca46  1  0.91183297  0.67521202  0.49556434  1
  Ca2+  Ca47  1  0.92059297  0.66602731  0.82666510  1
  Al0+  Al48  1  -0.00023964  0.00183915  0.00548572  1
  Al0+  Al49  1  -0.00084887  0.00249150  0.33288177  1
  Al0+  Al50  1  0.00103022  0.00020942  0.66764441  1
  Al0+  Al51  1  -0.00097461  0.49971421  -0.00113290  1
  Al0+  Al52  1  -0.00262379  0.50157073  0.33903069  1
  Al0+  Al53  1  0.00095231  0.50041271  0.66940237  1
  Al0+  Al54  1  0.49934704  0.00110303  0.00453660  1
  Al0+  Al55  1  0.50070473  0.00030969  0.32752822  1
  Al0+  Al56  1  0.50057263  -0.00021379  0.66242969  1
  Al0+  Al57  1  0.49936359  0.50076129  0.00171179  1
  Al0+  Al58  1  0.50270956  0.49718615  0.33070834  1
  Al0+  Al59  1  0.50149571  0.49711842  0.66185961  1
  Al0+  Al60  1  0.24857200  0.24896244  -0.00267000  1
  Al0+  Al61  1  0.24947832  0.24769533  0.33301308  1
  Al0+  Al62  1  0.25093407  0.24714553  0.67141925  1
  Al0+  Al63  1  0.24876343  0.74885673  0.00183745  1
  Al0+  Al64  1  0.24846541  0.74904097  0.34080763  1
  Al0+  Al65  1  0.24773665  0.74809382  0.66782163  1
  Al0+  Al66  1  0.74891821  0.24978286  0.00326853  1
  Al0+  Al67  1  0.75133559  0.24995063  0.32936083  1
  Al0+  Al68  1  0.75174837  0.25197321  0.66067778  1
  Al0+  Al69  1  0.74863707  0.75078456  0.00794658  1
  Al0+  Al70  1  0.74893173  0.75355165  0.32941924  1
  Al0+  Al71  1  0.75230832  0.75185943  0.66487247  1
  Al0+  Al72  1  0.82034871  0.57435426  0.68210953  1
  Al0+  Al73  1  0.42661783  0.82042127  0.65391151  1
  Al0+  Al74  1  0.17994153  0.42875850  0.68139039  1
  Al0+  Al75  1  0.32094598  0.56955962  0.01185062  1
  Al0+  Al76  1  0.42664709  0.32096898  0.65133311  1
  Al0+  Al77  1  0.57285085  0.17804500  0.65186163  1
  Al0+  Al78  1  0.67626408  0.92790636  0.01622504  1
  Al0+  Al79  1  0.17929137  0.42749443  0.34722641  1
  Al0+  Al80  1  0.18059504  0.92944596  0.01425939  1
  Al0+  Al81  1  0.07074030  0.67918338  0.98662900  1
  Al0+  Al82  1  0.93095754  0.32238472  0.65247549  1
  Al0+  Al83  1  0.57035086  0.67689556  0.31609011  1
  Al0+  Al84  1  0.67857503  0.42783572  0.68062315  1
  Al0+  Al85  1  0.32330326  0.06806758  0.68189139  1
  Al0+  Al86  1  0.32375862  0.57098886  0.35024344  1
  Al0+  Al87  1  0.82050147  0.07232737  0.01477569  1
  Al0+  Al88  1  0.17823097  0.92921510  0.34798233  1
  Al0+  Al89  1  0.92992686  0.82355116  0.31765317  1
  Al0+  Al90  1  0.17711602  0.92584929  0.68322530  1
  Al0+  Al91  1  0.93177627  0.82135031  0.65611450  1
  Al0+  Al92  1  0.82180858  0.57050619  0.01452058  1
  Al0+  Al93  1  0.81767270  0.57354547  0.34801733  1
  Al0+  Al94  1  0.42622829  0.81991646  0.31694562  1
  Al0+  Al95  1  0.57223891  0.67823484  0.65374375  1
  Si0+  Si96  1  0.92941792  0.32220356  0.31652990  1
  Si0+  Si97  1  0.07039416  0.18028313  0.31754523  1
  Si0+  Si98  1  0.57391878  0.17875626  0.31412003  1
  Si0+  Si99  1  0.07184217  0.17774509  0.64990427  1
  Si0+  Si100  1  0.92718118  0.82277141  0.98478913  1
  Si0+  Si101  1  0.56946211  0.17987677  0.98591150  1
  Si0+  Si102  1  0.32362255  0.57112617  0.68263472  1
  Si0+  Si103  1  0.42785346  0.31853678  0.31661172  1
  Si0+  Si104  1  0.42850627  0.82075444  0.98636917  1
  Si0+  Si105  1  0.32175636  0.07355873  0.01757625  1
  Si0+  Si106  1  0.67875001  0.93190718  0.35025792  1
  Si0+  Si107  1  0.07104861  0.17743910  0.98333473  1
  Si0+  Si108  1  0.67941230  0.42436104  0.34928462  1
  Si0+  Si109  1  0.57215651  0.67922684  0.98505640  1
  Si0+  Si110  1  0.82055855  0.07259536  0.35011509  1
  Si0+  Si111  1  0.92875143  0.32045535  0.98509369  1
  Si0+  Si112  1  0.06958611  0.67685279  0.31821064  1
  Si0+  Si113  1  0.42851729  0.32186164  0.98565273  1
  Si0+  Si114  1  0.17738088  0.42623259  0.01463864  1
  Si0+  Si115  1  0.67779846  0.42849331  0.01625057  1
  Si0+  Si116  1  0.68064315  0.93033767  0.67827922  1
  Si0+  Si117  1  0.32382196  0.07151047  0.34886773  1
  Si0+  Si118  1  0.82171524  0.07261870  0.67860840  1
  Si0+  Si119  1  0.07252418  0.67606519  0.64919713  1
  O2-  O120  1  0.25463759  0.00444179  0.06261799  1
  O2-  O121  1  0.25976677  -0.00179267  0.39138979  1
  O2-  O122  1  0.25394143  -0.00627460  0.73192164  1
  O2-  O123  1  0.24587296  0.49459411  0.05822039  1
  O2-  O124  1  0.25259118  0.49693382  0.39802124  1
  O2-  O125  1  0.25563805  0.50197423  0.72819865  1
  O2-  O126  1  0.75239441  -0.00291105  0.06546156  1
  O2-  O127  1  0.75076224  0.00181651  0.39326532  1
  O2-  O128  1  0.74992250  0.00300845  0.72077818  1
  O2-  O129  1  0.74525194  0.49745982  0.06144729  1
  O2-  O130  1  0.74076140  0.49975609  0.39180511  1
  O2-  O131  1  0.74673025  0.50295103  0.73136912  1
  O2-  O132  1  0.00326256  0.25454307  0.27345203  1
  O2-  O133  1  0.00793272  0.25030281  0.60436733  1
  O2-  O134  1  0.00034950  0.24964639  0.94268676  1
  O2-  O135  1  0.00452654  0.74851890  0.27222883  1
  O2-  O136  1  0.00619604  0.74801568  0.60704290  1
  O2-  O137  1  -0.00558806  0.75317649  0.94042275  1
  O2-  O138  1  0.50125451  0.24933535  0.27344865  1
  O2-  O139  1  0.50030849  0.24967072  0.60185080  1
  O2-  O140  1  0.49805337  0.24958702  0.94377410  1
  O2-  O141  1  0.49360861  0.74402325  0.26497938  1
  O2-  O142  1  0.49434844  0.74422852  0.60474573  1
  O2-  O143  1  0.50255967  0.75255094  0.94426047  1
  O2-  O144  1  0.07261444  0.17918259  0.08877177  1
  O2-  O145  1  0.06762737  0.17941306  0.42202900  1
  O2-  O146  1  0.06684661  0.17695214  0.75589830  1
  O2-  O147  1  0.07122275  0.68006557  0.09988133  1
  O2-  O148  1  0.06596831  0.67464524  0.42339789  1
  O2-  O149  1  0.07168648  0.67539809  0.75529012  1
  O2-  O150  1  0.56858751  0.18195407  0.09146961  1
  O2-  O151  1  0.57829139  0.17851151  0.41823468  1
  O2-  O152  1  0.57371949  0.17780233  0.76605723  1
  O2-  O153  1  0.57109562  0.67782659  0.08981652  1
  O2-  O154  1  0.57210950  0.68123497  0.42920855  1
  O2-  O155  1  0.57370502  0.68311803  0.76824260  1
  O2-  O156  1  0.18140096  0.42610814  0.23299711  1
  O2-  O157  1  0.17992318  0.43121695  0.56853183  1
  O2-  O158  1  0.17847724  0.42434072  0.90942212  1
  O2-  O159  1  0.17663273  0.93260071  0.23439176  1
  O2-  O160  1  0.17349403  0.93160999  0.56999714  1
  O2-  O161  1  0.18107694  0.93055594  0.90189056  1
  O2-  O162  1  0.68428508  0.41886282  0.24323780  1
  O2-  O163  1  0.68381719  0.42529712  0.56723440  1
  O2-  O164  1  0.67829787  0.42597180  0.91146078  1
  O2-  O165  1  0.67935914  0.93509672  0.24506362  1
  O2-  O166  1  0.68299919  0.93118917  0.57318749  1
  O2-  O167  1  0.67489797  0.93037661  0.90216352  1
  O2-  O168  1  0.42941686  0.32012914  0.09121147  1
  O2-  O169  1  0.42559070  0.31577779  0.42070843  1
  O2-  O170  1  0.42761154  0.31839884  0.76571158  1
  O2-  O171  1  0.42768068  0.81892929  0.09129380  1
  O2-  O172  1  0.43052555  0.82335883  0.42973503  1
  O2-  O173  1  0.43097898  0.82032473  0.76856752  1
  O2-  O174  1  0.93065286  0.32002965  0.09064492  1
  O2-  O175  1  0.92710610  0.31908459  0.42102848  1
  O2-  O176  1  0.93060913  0.31855054  0.76618625  1
  O2-  O177  1  0.92957458  0.82206714  0.09052890  1
  O2-  O178  1  0.93090816  0.82510629  0.43066000  1
  O2-  O179  1  0.93009578  0.82271286  0.76931029  1
  O2-  O180  1  0.32048576  0.07550573  0.24282983  1
  O2-  O181  1  0.32032298  0.06854410  0.56808678  1
  O2-  O182  1  0.32279451  0.07441804  0.91276404  1
  O2-  O183  1  0.32031048  0.56931997  0.23598914  1
  O2-  O184  1  0.32134753  0.57070924  0.57744429  1
  O2-  O185  1  0.32346462  0.56730339  0.89911905  1
  O2-  O186  1  0.81880460  0.07462835  0.24504507  1
  O2-  O187  1  0.82241443  0.07151547  0.57325766  1
  O2-  O188  1  0.81761608  0.07533215  0.90106204  1
  O2-  O189  1  0.82051490  0.56974026  0.23435921  1
  O2-  O190  1  0.81931882  0.57542676  0.56870617  1
  O2-  O191  1  0.82207625  0.56988208  0.90207956  1
  O2-  O192  1  0.03669888  0.09155047  0.26729238  1
  O2-  O193  1  0.04077229  0.08677540  0.60215207  1
  O2-  O194  1  0.04163535  0.08616530  0.93634746  1
  O2-  O195  1  0.04040516  0.58434918  0.27049229  1
  O2-  O196  1  0.04486460  0.58381388  0.60283767  1
  O2-  O197  1  0.04146017  0.58155574  0.93298363  1
  O2-  O198  1  0.54610437  0.08794651  0.26465205  1
  O2-  O199  1  0.54516873  0.08093564  0.59631819  1
  O2-  O200  1  0.54323758  0.08704090  0.94008191  1
  O2-  O201  1  0.55356930  0.57440115  0.26498445  1
  O2-  O202  1  0.55260233  0.57817083  0.60193612  1
  O2-  O203  1  0.54310387  0.58726342  0.93867764  1
  O2-  O204  1  0.16304350  0.20348520  0.26848496  1
  O2-  O205  1  0.16713195  0.19813026  0.60720723  1
  O2-  O206  1  0.16316605  0.20358850  0.93520641  1
  O2-  O207  1  0.16508413  0.69999219  0.27558530  1
  O2-  O208  1  0.16692317  0.69741649  0.60381394  1
  O2-  O209  1  0.16699529  0.71039968  0.93185191  1
  O2-  O210  1  0.66466736  0.20893067  0.26433167  1
  O2-  O211  1  0.66999773  0.20659129  0.59600922  1
  O2-  O212  1  0.66202208  0.20719397  0.94005752  1
  O2-  O213  1  0.66571161  0.71504475  0.26201270  1
  O2-  O214  1  0.66766953  0.71419377  0.60025378  1
  O2-  O215  1  0.66509024  0.70677634  0.93977453  1
  O2-  O216  1  0.08339331  0.45014250  0.05985935  1
  O2-  O217  1  0.08053032  0.45506068  0.39886662  1
  O2-  O218  1  0.08404686  0.45961471  0.73664835  1
  O2-  O219  1  0.08463235  0.96166450  0.06883888  1
  O2-  O220  1  0.08360038  0.96892436  0.40012948  1
  O2-  O221  1  0.08130359  0.96257199  0.73794366  1
  O2-  O222  1  0.58396754  0.45273888  0.06287535  1
  O2-  O223  1  0.58229021  0.43925721  0.39003103  1
  O2-  O224  1  0.57723148  0.44741416  0.73111731  1
  O2-  O225  1  0.58061627  0.96237696  0.07235415  1
  O2-  O226  1  0.58707668  0.96295791  0.39540490  1
  O2-  O227  1  0.58887818  0.95630152  0.72571061  1
  O2-  O228  1  0.20209639  0.33182710  0.06062652  1
  O2-  O229  1  0.20514451  0.32736441  0.39808848  1
  O2-  O230  1  0.20606662  0.33085037  0.73507266  1
  O2-  O231  1  0.21164593  0.83365197  0.06879647  1
  O2-  O232  1  0.19943407  0.83145819  0.40184952  1
  O2-  O233  1  0.19925778  0.82554782  0.73491881  1
  O2-  O234  1  0.70303732  0.33529695  0.06421884  1
  O2-  O235  1  0.71180656  0.33287911  0.39565253  1
  O2-  O236  1  0.71243003  0.33007005  0.73352622  1
  O2-  O237  1  0.70110110  0.83059880  0.07209134  1
  O2-  O238  1  0.70644009  0.84021821  0.39569523  1
  O2-  O239  1  0.71149286  0.84116104  0.72826809  1
  O2-  O240  1  0.45503265  0.40977662  0.26732373  1
  O2-  O241  1  0.45228137  0.41830168  0.59598572  1
  O2-  O242  1  0.45704500  0.41324967  0.93870157  1
  O2-  O243  1  0.45785153  0.91836451  0.26277711  1
  O2-  O244  1  0.45822196  0.91635501  0.59934462  1
  O2-  O245  1  0.45336996  0.91529245  0.94280016  1
  O2-  O246  1  0.95539807  0.41508188  0.27032040  1
  O2-  O247  1  0.96094828  0.41913958  0.59928071  1
  O2-  O248  1  0.95536783  0.41164318  0.93696096  1
  O2-  O249  1  0.95908451  0.92150411  0.26432616  1
  O2-  O250  1  0.96009069  0.91859482  0.60062448  1
  O2-  O251  1  0.95233342  0.91805627  0.94186693  1
  O2-  O252  1  0.33757869  0.28709926  0.26678062  1
  O2-  O253  1  0.32894637  0.28800914  0.59883424  1
  O2-  O254  1  0.33546225  0.29625542  0.93963775  1
  O2-  O255  1  0.32481834  0.79395640  0.26807258  1
  O2-  O256  1  0.32573763  0.79808449  0.60455637  1
  O2-  O257  1  0.33804824  0.79039365  0.93888949  1
  O2-  O258  1  0.83993607  0.28952159  0.26650162  1
  O2-  O259  1  0.83791305  0.28826651  0.59475279  1
  O2-  O260  1  0.83631084  0.29099478  0.94010613  1
  O2-  O261  1  0.83294422  0.79501675  0.26409799  1
  O2-  O262  1  0.83615565  0.79225937  0.59946973  1
  O2-  O263  1  0.83105296  0.79955634  0.94298518  1
  O2-  O264  1  0.41561129  0.05167570  0.06469884  1
  O2-  O265  1  0.42045297  0.05277376  0.39040695  1
  O2-  O266  1  0.42329463  0.04286380  0.73413058  1
  O2-  O267  1  0.41644264  0.53834321  0.06852776  1
  O2-  O268  1  0.42403567  0.54197405  0.39781630  1
  O2-  O269  1  0.41803291  0.54641212  0.72694583  1
  O2-  O270  1  0.91944625  0.04969554  0.06911680  1
  O2-  O271  1  0.91269395  0.04717284  0.39667855  1
  O2-  O272  1  0.91225479  0.04473049  0.72786210  1
  O2-  O273  1  0.91721666  0.53584037  0.06931549  1
  O2-  O274  1  0.91257568  0.54066331  0.40257424  1
  O2-  O275  1  0.91784423  0.54260111  0.73436774  1
  O2-  O276  1  0.29424023  0.16751699  0.06352254  1
  O2-  O277  1  0.29283140  0.16267805  0.39607175  1
  O2-  O278  1  0.29345687  0.16485976  0.73743534  1
  O2-  O279  1  0.28856758  0.66453463  0.06730949  1
  O2-  O280  1  0.29509747  0.66775982  0.40449431  1
  O2-  O281  1  0.29686352  0.66391682  0.72994922  1
  O2-  O282  1  0.78825742  0.16884267  0.07142860  1
  O2-  O283  1  0.79150505  0.16499324  0.39585589  1
  O2-  O284  1  0.79500822  0.16443895  0.72537005  1
  O2-  O285  1  0.79300784  0.66672028  0.06952845  1
  O2-  O286  1  0.78864807  0.67198083  0.39829476  1
  O2-  O287  1  0.79164902  0.67248862  0.73662864  1
