# generated using pymatgen
data_Ca2Al2SiO7
_symmetry_space_group_name_H-M   'P 1'
_cell_length_a   15.45757418
_cell_length_b   15.45845292
_cell_length_c   15.28354891
_cell_angle_alpha   90.01265231
_cell_angle_beta   89.99964675
_cell_angle_gamma   90.01844574
_symmetry_Int_Tables_number   1
_chemical_formula_structural   Ca2Al2SiO7
_chemical_formula_sum   'Ca48 Al48 Si24 O168'
_cell_volume   3652.00652645
_cell_formula_units_Z   24
loop_
 _symmetry_equiv_pos_site_id
 _symmetry_equiv_pos_as_xyz
  1  'x, y, z'
loop_
 _atom_type_symbol
 _atom_type_oxidation_number
  Ca2+  2.0
  Al0+  0.0
  Si0+  0.0
  O2-  -2.0
loop_
 _atom_site_type_symbol
 _atom_site_label
 _atom_site_symmetry_multiplicity
 _atom_site_fract_x
 _atom_site_fract_y
 _atom_site_fract_z
 _atom_site_occupancy
  Ca2+  Ca0  1  0.17509969  0.08731459  0.17648426  1
  Ca2+  Ca1  1  0.17406465  0.07991423  0.50026667  1
  Ca2+  Ca2  1  0.17845275  0.08121618  0.83374078  1
  Ca2+  Ca3  1  0.16510964  0.56836333  0.16945650  1
  Ca2+  Ca4  1  0.16469173  0.57650482  0.50071654  1
  Ca2+  Ca5  1  0.17020400  0.57733621  0.83884689  1
  Ca2+  Ca6  1  0.67368120  0.07366276  0.17414723  1
  Ca2+  Ca7  1  0.66552065  0.07621195  0.50434350  1
  Ca2+  Ca8  1  0.65399934  0.07357950  0.83293762  1
  Ca2+  Ca9  1  0.66964415  0.57077368  0.16755844  1
  Ca2+  Ca10  1  0.66918254  0.57802301  0.50508204  1
  Ca2+  Ca11  1  0.67659224  0.58236387  0.83891898  1
  Ca2+  Ca12  1  0.08452932  0.32910084  0.16100190  1
  Ca2+  Ca13  1  0.07760416  0.32793301  0.49210605  1
  Ca2+  Ca14  1  0.07347687  0.33848296  0.83209301  1
  Ca2+  Ca15  1  0.07623112  0.84132551  0.16826160  1
  Ca2+  Ca16  1  0.08037139  0.84093842  0.48971660  1
  Ca2+  Ca17  1  0.08285121  0.83232412  0.82597203  1
  Ca2+  Ca18  1  0.57501575  0.33793276  0.16079257  1
  Ca2+  Ca19  1  0.58022095  0.32527066  0.49180355  1
  Ca2+  Ca20  1  0.57982332  0.32967430  0.82812514  1
  Ca2+  Ca21  1  0.58880361  0.83693034  0.16354748  1
  Ca2+  Ca22  1  0.58843441  0.83302293  0.50084053  1
  Ca2+  Ca23  1  0.58303144  0.83195117  0.82147915  1
  Ca2+  Ca24  1  0.32624285  0.40641666  0.17284010  1
  Ca2+  Ca25  1  0.32884490  0.40861480  0.49605159  1
  Ca2+  Ca26  1  0.32791836  0.41297110  0.84275315  1
  Ca2+  Ca27  1  0.32823220  0.93281918  0.17552654  1
  Ca2+  Ca28  1  0.32742920  0.92544307  0.51012523  1
  Ca2+  Ca29  1  0.34167388  0.92822343  0.83278376  1
  Ca2+  Ca30  1  0.82441654  0.41246791  0.16766607  1
  Ca2+  Ca31  1  0.82980998  0.41870456  0.50679299  1
  Ca2+  Ca32  1  0.83296805  0.42350062  0.84153853  1
  Ca2+  Ca33  1  0.82588321  0.91881166  0.17707991  1
  Ca2+  Ca34  1  0.82936669  0.92105782  0.49905580  1
  Ca2+  Ca35  1  0.81822006  0.91669568  0.83781744  1
  Ca2+  Ca36  1  0.40952214  0.17385609  0.16396112  1
  Ca2+  Ca37  1  0.41829491  0.16319216  0.49658546  1
  Ca2+  Ca38  1  0.41713753  0.16685359  0.83079105  1
  Ca2+  Ca39  1  0.41920185  0.67036468  0.16294380  1
  Ca2+  Ca40  1  0.42086072  0.67476939  0.49915697  1
  Ca2+  Ca41  1  0.42768570  0.67510333  0.82070445  1
  Ca2+  Ca42  1  0.92385004  0.16511888  0.16442576  1
  Ca2+  Ca43  1  0.92206880  0.16529547  0.49161793  1
  Ca2+  Ca44  1  0.91167800  0.18323415  0.82804833  1
  Ca2+  Ca45  1  0.91260060  0.67007742  0.16522325  1
  Ca2+  Ca46  1  0.91325984  0.67293528  0.49679919  1
  Ca2+  Ca47  1  0.91416740  0.66095014  0.82823852  1
  Al0+  Al48  1  0.00058263  -0.00120177  -0.00664452  1
  Al0+  Al49  1  -0.00071090  0.00081758  0.32867702  1
  Al0+  Al50  1  0.00027672  0.00178770  0.67291910  1
  Al0+  Al51  1  0.00175437  0.50131863  0.00452053  1
  Al0+  Al52  1  0.00010209  0.50118433  0.33636005  1
  Al0+  Al53  1  -0.00168207  0.50067465  0.66457784  1
  Al0+  Al54  1  0.49859486  0.00077859  0.01041893  1
  Al0+  Al55  1  0.50094723  -0.00085936  0.33804479  1
  Al0+  Al56  1  0.49886333  0.00149181  0.66568428  1
  Al0+  Al57  1  0.50050877  0.50199582  -0.00403455  1
  Al0+  Al58  1  0.50053834  0.50040032  0.33336066  1
  Al0+  Al59  1  0.49883503  0.50020190  0.66190564  1
  Al0+  Al60  1  0.25076682  0.24927371  0.00039855  1
  Al0+  Al61  1  0.24878950  0.25064844  0.33572837  1
  Al0+  Al62  1  0.24721790  0.24908991  0.67150271  1
  Al0+  Al63  1  0.24933300  0.75114718  -0.00165813  1
  Al0+  Al64  1  0.25076842  0.74754669  0.33156545  1
  Al0+  Al65  1  0.24901095  0.74768293  0.66569325  1
  Al0+  Al66  1  0.75012154  0.24803297  -0.00184069  1
  Al0+  Al67  1  0.74941074  0.24983525  0.33961231  1
  Al0+  Al68  1  0.74793122  0.25116892  0.65736762  1
  Al0+  Al69  1  0.75055909  0.74988906  0.00683910  1
  Al0+  Al70  1  0.75045113  0.74867920  0.33059180  1
  Al0+  Al71  1  0.75199029  0.74869287  0.67000974  1
  Al0+  Al72  1  0.06909929  0.18109852  0.31996209  1
  Al0+  Al73  1  0.93028418  0.81952040  0.31968224  1
  Al0+  Al74  1  0.57467080  0.67866653  0.65080985  1
  Al0+  Al75  1  0.17872524  0.42951797  0.34788173  1
  Al0+  Al76  1  0.18155758  0.43041620  0.01278470  1
  Al0+  Al77  1  0.17913174  0.92793834  0.34506509  1
  Al0+  Al78  1  0.56869919  0.17992835  0.65266925  1
  Al0+  Al79  1  0.67982699  0.93053376  0.01392080  1
  Al0+  Al80  1  0.67943044  0.92669622  0.35050718  1
  Al0+  Al81  1  0.31885074  0.06976334  0.01583745  1
  Al0+  Al82  1  0.17690646  0.92619576  0.68260958  1
  Al0+  Al83  1  0.67738313  0.42885980  0.34792180  1
  Al0+  Al84  1  0.81925847  0.56850625  0.67962755  1
  Al0+  Al85  1  0.43165850  0.31896322  0.32014672  1
  Al0+  Al86  1  0.82214800  0.07156491  0.34739263  1
  Al0+  Al87  1  0.32073474  0.07261377  0.35003413  1
  Al0+  Al88  1  0.67746585  0.42635081  0.01233428  1
  Al0+  Al89  1  0.68199466  0.93114961  0.67964221  1
  Al0+  Al90  1  0.42894577  0.82125047  0.65127947  1
  Al0+  Al91  1  0.42940970  0.32136923  0.98608857  1
  Al0+  Al92  1  0.32107334  0.07122111  0.68384197  1
  Al0+  Al93  1  0.92930856  0.32056893  0.98812524  1
  Al0+  Al94  1  0.82249509  0.57056261  0.01723647  1
  Al0+  Al95  1  0.92964664  0.32254535  0.65158556  1
  Si0+  Si96  1  0.67543110  0.42626511  0.68213113  1
  Si0+  Si97  1  0.57066225  0.67945144  0.31575698  1
  Si0+  Si98  1  0.07344724  0.17695778  0.98036077  1
  Si0+  Si99  1  0.07407875  0.67537035  0.31471857  1
  Si0+  Si100  1  0.82528192  0.07223313  0.01412843  1
  Si0+  Si101  1  0.07087125  0.67824237  0.65160378  1
  Si0+  Si102  1  0.17595877  0.92574388  0.01650924  1
  Si0+  Si103  1  0.57406467  0.17546707  0.31527308  1
  Si0+  Si104  1  0.92779844  0.82031881  0.98282867  1
  Si0+  Si105  1  0.07125015  0.17835237  0.65041605  1
  Si0+  Si106  1  0.32212530  0.57111676  0.68121913  1
  Si0+  Si107  1  0.42936426  0.82213475  0.98704886  1
  Si0+  Si108  1  0.82101075  0.57084548  0.35050638  1
  Si0+  Si109  1  0.57193512  0.68087531  0.98514204  1
  Si0+  Si110  1  0.07107576  0.67959705  0.98444039  1
  Si0+  Si111  1  0.92610411  0.32466496  0.31684585  1
  Si0+  Si112  1  0.93043753  0.82202531  0.65432048  1
  Si0+  Si113  1  0.32312016  0.57490213  0.01468788  1
  Si0+  Si114  1  0.32356561  0.57244058  0.35056397  1
  Si0+  Si115  1  0.17904650  0.43066704  0.68160605  1
  Si0+  Si116  1  0.57148003  0.17618684  0.98584144  1
  Si0+  Si117  1  0.42393305  0.32301597  0.65025166  1
  Si0+  Si118  1  0.82283028  0.07560285  0.68418979  1
  Si0+  Si119  1  0.42804508  0.82171097  0.31705626  1
  O2-  O120  1  0.24142280  -0.00316293  0.06008140  1
  O2-  O121  1  0.25311320  -0.00477303  0.39760240  1
  O2-  O122  1  0.25138742  -0.00452099  0.73278793  1
  O2-  O123  1  0.25932602  0.50242807  0.05953799  1
  O2-  O124  1  0.25305371  0.50510203  0.39425974  1
  O2-  O125  1  0.25448583  0.49706641  0.72393279  1
  O2-  O126  1  0.75728908  0.00301533  0.05812889  1
  O2-  O127  1  0.74833689  0.00218004  0.39874185  1
  O2-  O128  1  0.75397103  0.00734881  0.72921555  1
  O2-  O129  1  0.75218869  0.49528643  0.06390696  1
  O2-  O130  1  0.75642070  0.49890967  0.39469843  1
  O2-  O131  1  0.74350966  0.49526228  0.72655384  1
  O2-  O132  1  -0.00594610  0.25569306  0.27253706  1
  O2-  O133  1  0.00057620  0.24448035  0.60571501  1
  O2-  O134  1  0.00186560  0.24431492  0.93834029  1
  O2-  O135  1  0.00758697  0.74685172  0.27171847  1
  O2-  O136  1  0.00638379  0.75598513  0.61185038  1
  O2-  O137  1  0.00005087  0.75019736  0.94082203  1
  O2-  O138  1  0.50575870  0.24460387  0.27104151  1
  O2-  O139  1  0.49395567  0.25569976  0.60747045  1
  O2-  O140  1  0.50724645  0.24933425  0.94100903  1
  O2-  O141  1  0.50136335  0.75286114  0.27375578  1
  O2-  O142  1  0.50282343  0.75097427  0.60053048  1
  O2-  O143  1  0.50024538  0.75162023  0.94381756  1
  O2-  O144  1  0.07355675  0.17650222  0.08597647  1
  O2-  O145  1  0.06862874  0.18274059  0.43320356  1
  O2-  O146  1  0.07214629  0.18153268  0.75621537  1
  O2-  O147  1  0.07321725  0.68090966  0.08908177  1
  O2-  O148  1  0.07287085  0.67285606  0.42045127  1
  O2-  O149  1  0.06925798  0.67419667  0.75697046  1
  O2-  O150  1  0.57031499  0.17452401  0.09113051  1
  O2-  O151  1  0.57293136  0.17689505  0.42091675  1
  O2-  O152  1  0.56845193  0.18128408  0.76637173  1
  O2-  O153  1  0.56998758  0.68046356  0.09046107  1
  O2-  O154  1  0.57008919  0.67855514  0.42058814  1
  O2-  O155  1  0.57299303  0.67975395  0.76508256  1
  O2-  O156  1  0.17954330  0.43055621  0.23477865  1
  O2-  O157  1  0.17895484  0.43228748  0.57656144  1
  O2-  O158  1  0.18096617  0.43432995  0.89906816  1
  O2-  O159  1  0.18129110  0.92985548  0.23107454  1
  O2-  O160  1  0.17527415  0.92755759  0.56949384  1
  O2-  O161  1  0.17708412  0.92291230  0.91115152  1
  O2-  O162  1  0.67597229  0.43152630  0.23477077  1
  O2-  O163  1  0.67669449  0.42823364  0.57648169  1
  O2-  O164  1  0.67664165  0.42944565  0.89872210  1
  O2-  O165  1  0.68192580  0.92684218  0.23646361  1
  O2-  O166  1  0.68605061  0.93014185  0.56740416  1
  O2-  O167  1  0.67822340  0.92948487  0.90062934  1
  O2-  O168  1  0.42764384  0.32008700  0.09890450  1
  O2-  O169  1  0.43282465  0.31909790  0.43335820  1
  O2-  O170  1  0.42378757  0.32449230  0.75611728  1
  O2-  O171  1  0.42895367  0.81908999  0.09227105  1
  O2-  O172  1  0.42535521  0.81827792  0.42155148  1
  O2-  O173  1  0.43127997  0.81863934  0.76590350  1
  O2-  O174  1  0.93117628  0.31853365  0.10095176  1
  O2-  O175  1  0.92977772  0.32604018  0.42258175  1
  O2-  O176  1  0.93253287  0.32513854  0.76512176  1
  O2-  O177  1  0.92884573  0.82107017  0.08772164  1
  O2-  O178  1  0.92980902  0.81686528  0.43318652  1
  O2-  O179  1  0.92979608  0.81840018  0.75975164  1
  O2-  O180  1  0.31827751  0.07305547  0.23616890  1
  O2-  O181  1  0.31819402  0.07351453  0.57097324  1
  O2-  O182  1  0.32137794  0.06771936  0.90298109  1
  O2-  O183  1  0.32434121  0.57383930  0.24475185  1
  O2-  O184  1  0.31990623  0.57264001  0.57632318  1
  O2-  O185  1  0.31961321  0.57726500  0.90894880  1
  O2-  O186  1  0.82164308  0.06928399  0.23317243  1
  O2-  O187  1  0.82550072  0.07223162  0.57901616  1
  O2-  O188  1  0.82591002  0.07056586  0.90845909  1
  O2-  O189  1  0.81952341  0.57129141  0.24504688  1
  O2-  O190  1  0.82085865  0.56806091  0.56671704  1
  O2-  O191  1  0.82099431  0.57171234  0.90341255  1
  O2-  O192  1  0.03938502  0.08593619  0.26220297  1
  O2-  O193  1  0.04728538  0.08325057  0.60681981  1
  O2-  O194  1  0.05131213  0.08225656  0.93376700  1
  O2-  O195  1  0.04346237  0.58321243  0.26734050  1
  O2-  O196  1  0.03634166  0.59015055  0.60091795  1
  O2-  O197  1  0.04416964  0.58787745  0.93623838  1
  O2-  O198  1  0.54996555  0.08036795  0.27106156  1
  O2-  O199  1  0.53839641  0.08434204  0.59750375  1
  O2-  O200  1  0.53768046  0.08399802  0.94009933  1
  O2-  O201  1  0.53850850  0.58943034  0.26702268  1
  O2-  O202  1  0.54441321  0.58054677  0.59751383  1
  O2-  O203  1  0.54579773  0.59007531  0.93504961  1
  O2-  O204  1  0.16461325  0.21513538  0.26571930  1
  O2-  O205  1  0.16393134  0.20746023  0.60461819  1
  O2-  O206  1  0.16524662  0.20700381  0.93378940  1
  O2-  O207  1  0.16917000  0.69477479  0.26857546  1
  O2-  O208  1  0.16443903  0.69682633  0.60419415  1
  O2-  O209  1  0.16307143  0.70695960  0.93478965  1
  O2-  O210  1  0.66897824  0.20084803  0.27159267  1
  O2-  O211  1  0.66416861  0.20808118  0.59480156  1
  O2-  O212  1  0.66660990  0.19340921  0.93925989  1
  O2-  O213  1  0.66247408  0.70524539  0.26740686  1
  O2-  O214  1  0.67330876  0.70734211  0.59872486  1
  O2-  O215  1  0.66443869  0.71013825  0.93998043  1
  O2-  O216  1  0.08793899  0.46450008  0.06911977  1
  O2-  O217  1  0.08285208  0.46168438  0.40324483  1
  O2-  O218  1  0.08932943  0.46554550  0.72845149  1
  O2-  O219  1  0.07981991  0.94867978  0.05839198  1
  O2-  O220  1  0.08077220  0.95735304  0.39524821  1
  O2-  O221  1  0.07961425  0.95617503  0.73899229  1
  O2-  O222  1  0.57987145  0.46053593  0.06494080  1
  O2-  O223  1  0.58318813  0.46500597  0.40269342  1
  O2-  O224  1  0.57989028  0.44978861  0.72553177  1
  O2-  O225  1  0.58517239  0.96052405  0.07120189  1
  O2-  O226  1  0.57981130  0.94978242  0.40169053  1
  O2-  O227  1  0.58410196  0.96032292  0.73191136  1
  O2-  O228  1  0.20956545  0.33321894  0.06533565  1
  O2-  O229  1  0.21115933  0.33565081  0.40439044  1
  O2-  O230  1  0.20114635  0.33821340  0.72989584  1
  O2-  O231  1  0.20233169  0.83250085  0.06283514  1
  O2-  O232  1  0.20036253  0.82574792  0.39370501  1
  O2-  O233  1  0.20001631  0.82448932  0.73241520  1
  O2-  O234  1  0.70205242  0.32649589  0.06424868  1
  O2-  O235  1  0.70280196  0.33184871  0.40237210  1
  O2-  O236  1  0.70112733  0.33206459  0.72592422  1
  O2-  O237  1  0.71020958  0.83486463  0.06905622  1
  O2-  O238  1  0.71099219  0.82805733  0.40036119  1
  O2-  O239  1  0.71468531  0.83533322  0.73479550  1
  O2-  O240  1  0.45994195  0.41743340  0.26716120  1
  O2-  O241  1  0.44527226  0.41731874  0.60372016  1
  O2-  O242  1  0.45419445  0.42018585  0.93176048  1
  O2-  O243  1  0.45489797  0.91450884  0.27081616  1
  O2-  O244  1  0.45379716  0.92003127  0.60016117  1
  O2-  O245  1  0.45882568  0.91456817  0.94259456  1
  O2-  O246  1  0.95178769  0.41910454  0.27260277  1
  O2-  O247  1  0.96499432  0.41703175  0.59610391  1
  O2-  O248  1  0.96370049  0.41789575  0.93606906  1
  O2-  O249  1  0.95913916  0.91489675  0.26206021  1
  O2-  O250  1  0.95311953  0.91646057  0.60994325  1
  O2-  O251  1  0.95303000  0.91210270  0.93313402  1
  O2-  O252  1  0.33366158  0.28912668  0.26842948  1
  O2-  O253  1  0.32940855  0.29629957  0.60653479  1
  O2-  O254  1  0.33345268  0.28815498  0.93130062  1
  O2-  O255  1  0.33785615  0.79068471  0.26692036  1
  O2-  O256  1  0.33102155  0.78796581  0.59924875  1
  O2-  O257  1  0.33719796  0.79581155  0.93903917  1
  O2-  O258  1  0.83080583  0.30021167  0.27411783  1
  O2-  O259  1  0.83221494  0.29735233  0.59770623  1
  O2-  O260  1  0.83239507  0.29195959  0.93161785  1
  O2-  O261  1  0.83522279  0.78479697  0.26328630  1
  O2-  O262  1  0.84151527  0.78824342  0.60612123  1
  O2-  O263  1  0.83561287  0.79012718  0.93720474  1
  O2-  O264  1  0.41258762  0.03759622  0.07383755  1
  O2-  O265  1  0.42066358  0.04748100  0.39972657  1
  O2-  O266  1  0.41947872  0.04342539  0.73728819  1
  O2-  O267  1  0.41868630  0.55540634  0.05800487  1
  O2-  O268  1  0.41556568  0.54521735  0.39787159  1
  O2-  O269  1  0.41547751  0.54705650  0.72801001  1
  O2-  O270  1  0.91989469  0.04613528  0.05821718  1
  O2-  O271  1  0.91911987  0.03960590  0.40027652  1
  O2-  O272  1  0.91587616  0.05244511  0.73244689  1
  O2-  O273  1  0.92193315  0.54840487  0.06942373  1
  O2-  O274  1  0.91635133  0.55184258  0.39582046  1
  O2-  O275  1  0.91630656  0.53720744  0.73391318  1
  O2-  O276  1  0.28811397  0.16640494  0.06838778  1
  O2-  O277  1  0.28799557  0.16840674  0.40376893  1
  O2-  O278  1  0.28878765  0.16870541  0.73872844  1
  O2-  O279  1  0.29361366  0.66707613  0.06247644  1
  O2-  O280  1  0.29803719  0.66567972  0.39724533  1
  O2-  O281  1  0.29145331  0.66060538  0.73138192  1
  O2-  O282  1  0.80123412  0.16539707  0.06049275  1
  O2-  O283  1  0.79985229  0.17053281  0.40139781  1
  O2-  O284  1  0.79489657  0.17045655  0.72632444  1
  O2-  O285  1  0.79066881  0.66709944  0.07166822  1
  O2-  O286  1  0.79061723  0.66280560  0.39630320  1
  O2-  O287  1  0.79178186  0.66472874  0.73629361  1
