# generated using pymatgen
data_Ca2Al2SiO7
_symmetry_space_group_name_H-M   'P 1'
_cell_length_a   15.46127221
_cell_length_b   15.46132730
_cell_length_c   15.28536876
_cell_angle_alpha   89.99848804
_cell_angle_beta   89.99642755
_cell_angle_gamma   90.02680476
_symmetry_Int_Tables_number   1
_chemical_formula_structural   Ca2Al2SiO7
_chemical_formula_sum   'Ca48 Al48 Si24 O168'
_cell_volume   3653.99435507
_cell_formula_units_Z   24
loop_
 _symmetry_equiv_pos_site_id
 _symmetry_equiv_pos_as_xyz
  1  'x, y, z'
loop_
 _atom_type_symbol
 _atom_type_oxidation_number
  Ca2+  2.0
  Al0+  0.0
  Si0+  0.0
  O2-  -2.0
loop_
 _atom_site_type_symbol
 _atom_site_label
 _atom_site_symmetry_multiplicity
 _atom_site_fract_x
 _atom_site_fract_y
 _atom_site_fract_z
 _atom_site_occupancy
  Ca2+  Ca0  1  0.18004859  0.08215710  0.17168950  1
  Ca2+  Ca1  1  0.16908987  0.07748361  0.50597869  1
  Ca2+  Ca2  1  0.16869786  0.07807981  0.83540503  1
  Ca2+  Ca3  1  0.16611851  0.57523248  0.17635975  1
  Ca2+  Ca4  1  0.15969464  0.57843856  0.50413526  1
  Ca2+  Ca5  1  0.15534980  0.57335589  0.83357998  1
  Ca2+  Ca6  1  0.67603446  0.07334031  0.17334143  1
  Ca2+  Ca7  1  0.66995764  0.07677991  0.49796648  1
  Ca2+  Ca8  1  0.67367053  0.07380571  0.83883392  1
  Ca2+  Ca9  1  0.67884517  0.58999768  0.17030855  1
  Ca2+  Ca10  1  0.68068962  0.58344524  0.50697783  1
  Ca2+  Ca11  1  0.67831939  0.58476512  0.83461725  1
  Ca2+  Ca12  1  0.08794695  0.33606430  0.16458312  1
  Ca2+  Ca13  1  0.09047453  0.33092823  0.49940315  1
  Ca2+  Ca14  1  0.08802901  0.32841878  0.82637118  1
  Ca2+  Ca15  1  0.07041334  0.82789586  0.16387086  1
  Ca2+  Ca16  1  0.08008270  0.82192736  0.49226054  1
  Ca2+  Ca17  1  0.07572010  0.83006434  0.82259805  1
  Ca2+  Ca18  1  0.58561066  0.32310132  0.16393738  1
  Ca2+  Ca19  1  0.58764771  0.32790885  0.49112667  1
  Ca2+  Ca20  1  0.58364322  0.33268777  0.82479736  1
  Ca2+  Ca21  1  0.58238258  0.83973299  0.16149736  1
  Ca2+  Ca22  1  0.57993979  0.84388054  0.49883859  1
  Ca2+  Ca23  1  0.57493561  0.84595137  0.83118838  1
  Ca2+  Ca24  1  0.32188565  0.42275404  0.17497570  1
  Ca2+  Ca25  1  0.32425511  0.42472214  0.50048596  1
  Ca2+  Ca26  1  0.32079192  0.41711343  0.83795802  1
  Ca2+  Ca27  1  0.33992256  0.92424674  0.16854753  1
  Ca2+  Ca28  1  0.32949570  0.91985467  0.50575450  1
  Ca2+  Ca29  1  0.32955417  0.91476847  0.83589173  1
  Ca2+  Ca30  1  0.83669158  0.43059129  0.17153238  1
  Ca2+  Ca31  1  0.83211013  0.42882560  0.50600519  1
  Ca2+  Ca32  1  0.83411801  0.42853563  0.83271319  1
  Ca2+  Ca33  1  0.82775433  0.91586382  0.17379151  1
  Ca2+  Ca34  1  0.82435841  0.91135569  0.50124804  1
  Ca2+  Ca35  1  0.82420422  0.91626641  0.84353529  1
  Ca2+  Ca36  1  0.42135865  0.15687040  0.16441285  1
  Ca2+  Ca37  1  0.42301232  0.16667076  0.49017948  1
  Ca2+  Ca38  1  0.41523405  0.16483312  0.83086423  1
  Ca2+  Ca39  1  0.41801592  0.67075359  0.16071298  1
  Ca2+  Ca40  1  0.41483887  0.67223309  0.49466921  1
  Ca2+  Ca41  1  0.41814027  0.68061977  0.82579587  1
  Ca2+  Ca42  1  0.91315203  0.16459647  0.16205917  1
  Ca2+  Ca43  1  0.92046649  0.16612445  0.49415791  1
  Ca2+  Ca44  1  0.92127451  0.16697696  0.82766140  1
  Ca2+  Ca45  1  0.91161428  0.67445910  0.16518292  1
  Ca2+  Ca46  1  0.92276663  0.66538221  0.49255205  1
  Ca2+  Ca47  1  0.91592196  0.66775638  0.83104575  1
  Al0+  Al48  1  0.00112179  -0.00033023  -0.00265723  1
  Al0+  Al49  1  0.00023867  0.00089552  0.33037756  1
  Al0+  Al50  1  0.00156582  0.00077983  0.66444174  1
  Al0+  Al51  1  -0.00167195  0.49755518  0.00736042  1
  Al0+  Al52  1  -0.00013215  0.49730790  0.33755696  1
  Al0+  Al53  1  -0.00002493  0.49942264  0.67137989  1
  Al0+  Al54  1  0.50040883  0.00004572  0.00026189  1
  Al0+  Al55  1  0.50125073  0.00189381  0.33583987  1
  Al0+  Al56  1  0.50094076  0.00299763  0.66523077  1
  Al0+  Al57  1  0.49944826  0.49815238  -0.00301465  1
  Al0+  Al58  1  0.49698174  0.49999665  0.33347151  1
  Al0+  Al59  1  0.49955959  0.50148634  0.66838194  1
  Al0+  Al60  1  0.25073689  0.24931260  0.00733344  1
  Al0+  Al61  1  0.25113952  0.25082900  0.33974958  1
  Al0+  Al62  1  0.25173263  0.25154874  0.66453499  1
  Al0+  Al63  1  0.24984762  0.74742660  -0.00557033  1
  Al0+  Al64  1  0.25024390  0.74985974  0.32839295  1
  Al0+  Al65  1  0.24951828  0.75244079  0.66184566  1
  Al0+  Al66  1  0.75051938  0.24984034  -0.00144851  1
  Al0+  Al67  1  0.75054162  0.24723050  0.32901840  1
  Al0+  Al68  1  0.75026048  0.25096498  0.66826366  1
  Al0+  Al69  1  0.74983921  0.74851247  0.00221994  1
  Al0+  Al70  1  0.74748259  0.74990669  0.33932688  1
  Al0+  Al71  1  0.74731371  0.75153245  0.67628401  1
  Al0+  Al72  1  0.68003395  0.92962450  0.01553328  1
  Al0+  Al73  1  0.07129670  0.67603135  0.31717930  1
  Al0+  Al74  1  0.18183327  0.42989775  0.68181929  1
  Al0+  Al75  1  0.82173400  0.57164849  0.68327909  1
  Al0+  Al76  1  0.57098536  0.17911052  0.31726920  1
  Al0+  Al77  1  0.43049810  0.82234000  0.65093897  1
  Al0+  Al78  1  0.32212394  0.57443646  0.34775394  1
  Al0+  Al79  1  0.67981675  0.92915005  0.35010132  1
  Al0+  Al80  1  0.82415110  0.07235546  0.01351921  1
  Al0+  Al81  1  0.67718839  0.42728470  0.67991860  1
  Al0+  Al82  1  0.92898485  0.82102642  0.98533301  1
  Al0+  Al83  1  0.67851763  0.93204422  0.68251470  1
  Al0+  Al84  1  0.31876500  0.06804167  0.01225202  1
  Al0+  Al85  1  0.81930171  0.57080336  0.34759946  1
  Al0+  Al86  1  0.17849666  0.92814059  0.67853630  1
  Al0+  Al87  1  0.18036432  0.42984284  0.01427058  1
  Al0+  Al88  1  0.07224643  0.17863450  0.65279420  1
  Al0+  Al89  1  0.92673396  0.82039786  0.31963953  1
  Al0+  Al90  1  0.42962400  0.82124082  0.98588466  1
  Al0+  Al91  1  0.82401264  0.07266130  0.34907234  1
  Al0+  Al92  1  0.17827204  0.43018889  0.35146012  1
  Al0+  Al93  1  0.81875260  0.56890727  0.01591665  1
  Al0+  Al94  1  0.06836519  0.67894426  0.65416592  1
  Al0+  Al95  1  0.32116658  0.06938497  0.34807019  1
  Si0+  Si96  1  0.42965328  0.82215319  0.31842318  1
  Si0+  Si97  1  0.07369436  0.18041463  0.98669222  1
  Si0+  Si98  1  0.17673996  0.92358192  0.01554948  1
  Si0+  Si99  1  0.57234090  0.67557998  0.98248833  1
  Si0+  Si100  1  0.67484921  0.42648680  0.01678488  1
  Si0+  Si101  1  0.42783428  0.32003813  0.98461681  1
  Si0+  Si102  1  0.67760206  0.42695575  0.34528751  1
  Si0+  Si103  1  0.42743636  0.32186631  0.31506212  1
  Si0+  Si104  1  0.32398078  0.57256977  0.01432030  1
  Si0+  Si105  1  0.92927233  0.31902363  0.31784456  1
  Si0+  Si106  1  0.82380352  0.07284308  0.68238917  1
  Si0+  Si107  1  0.32253330  0.57508469  0.68411912  1
  Si0+  Si108  1  0.57085860  0.17999082  0.98255756  1
  Si0+  Si109  1  0.32134766  0.07187794  0.68224908  1
  Si0+  Si110  1  0.07007762  0.67543582  0.98388795  1
  Si0+  Si111  1  0.57214545  0.67775247  0.64988276  1
  Si0+  Si112  1  0.17737061  0.92797527  0.34743804  1
  Si0+  Si113  1  0.92846690  0.32062538  0.65013746  1
  Si0+  Si114  1  0.57119926  0.18183412  0.65138125  1
  Si0+  Si115  1  0.56968590  0.67723045  0.31988952  1
  Si0+  Si116  1  0.42849911  0.32358014  0.65104695  1
  Si0+  Si117  1  0.92477520  0.82291145  0.65166186  1
  Si0+  Si118  1  0.07383139  0.17909300  0.31719370  1
  Si0+  Si119  1  0.92909297  0.32136162  0.98488454  1
  O2-  O120  1  0.24742069  -0.00948053  0.05983278  1
  O2-  O121  1  0.24618164  -0.00437401  0.39362004  1
  O2-  O122  1  0.25231954  0.00378026  0.72606342  1
  O2-  O123  1  0.25334790  0.50665887  0.05876596  1
  O2-  O124  1  0.24654733  0.50717574  0.39891012  1
  O2-  O125  1  0.25386425  0.50670912  0.72954814  1
  O2-  O126  1  0.75632777  -0.00256305  0.06422349  1
  O2-  O127  1  0.75577574  -0.00216996  0.39916718  1
  O2-  O128  1  0.75863378  0.00164761  0.72731033  1
  O2-  O129  1  0.74095107  0.49623628  0.06176897  1
  O2-  O130  1  0.74305865  0.49637199  0.39175993  1
  O2-  O131  1  0.74708602  0.50005439  0.73099025  1
  O2-  O132  1  0.00110340  0.24846025  0.27507649  1
  O2-  O133  1  -0.00386630  0.25145840  0.60510028  1
  O2-  O134  1  -0.00177786  0.24728743  0.94454535  1
  O2-  O135  1  -0.00209213  0.74741386  0.26844287  1
  O2-  O136  1  -0.00729674  0.75318559  0.60833626  1
  O2-  O137  1  0.00618650  0.74814521  0.93901087  1
  O2-  O138  1  0.49628545  0.25406475  0.26941491  1
  O2-  O139  1  0.50461830  0.25756944  0.60988417  1
  O2-  O140  1  0.50097209  0.25245468  0.93985556  1
  O2-  O141  1  0.49775772  0.74758659  0.27763382  1
  O2-  O142  1  0.50439674  0.74659839  0.60412886  1
  O2-  O143  1  0.50341524  0.74488540  0.93944937  1
  O2-  O144  1  0.07662589  0.18332979  0.09175083  1
  O2-  O145  1  0.07468175  0.18019241  0.42226945  1
  O2-  O146  1  0.07277293  0.18097116  0.76654318  1
  O2-  O147  1  0.06929570  0.67529180  0.08914744  1
  O2-  O148  1  0.06967760  0.67762488  0.43098702  1
  O2-  O149  1  0.06697976  0.67930114  0.76773254  1
  O2-  O150  1  0.56980356  0.18130436  0.08739842  1
  O2-  O151  1  0.56982315  0.18201500  0.43083624  1
  O2-  O152  1  0.56888525  0.18116914  0.75686050  1
  O2-  O153  1  0.56991975  0.67243856  0.08828920  1
  O2-  O154  1  0.56892389  0.67519725  0.42473713  1
  O2-  O155  1  0.56920013  0.67606401  0.75543224  1
  O2-  O156  1  0.18131548  0.42791532  0.23752443  1
  O2-  O157  1  0.18397009  0.42859989  0.56966492  1
  O2-  O158  1  0.18120835  0.42793593  0.90100401  1
  O2-  O159  1  0.17881455  0.93070021  0.24157317  1
  O2-  O160  1  0.18051798  0.92959785  0.56551028  1
  O2-  O161  1  0.17708508  0.92632510  0.90975504  1
  O2-  O162  1  0.67958577  0.42794640  0.23950086  1
  O2-  O163  1  0.67989060  0.42572324  0.56619913  1
  O2-  O164  1  0.67503756  0.42604704  0.91141379  1
  O2-  O165  1  0.67758232  0.92992373  0.23685510  1
  O2-  O166  1  0.67679061  0.93500250  0.56993901  1
  O2-  O167  1  0.67846829  0.93474092  0.90173994  1
  O2-  O168  1  0.42858654  0.31990939  0.08929297  1
  O2-  O169  1  0.42982628  0.32118915  0.42080251  1
  O2-  O170  1  0.42615845  0.31990643  0.75658346  1
  O2-  O171  1  0.43104600  0.82054374  0.09927131  1
  O2-  O172  1  0.43056557  0.82336277  0.42350325  1
  O2-  O173  1  0.43188861  0.82315038  0.76422191  1
  O2-  O174  1  0.92908937  0.32274370  0.09002297  1
  O2-  O175  1  0.92758478  0.31803349  0.42284593  1
  O2-  O176  1  0.92869292  0.31886761  0.75612085  1
  O2-  O177  1  0.92867122  0.81975803  0.09812716  1
  O2-  O178  1  0.92790257  0.81893615  0.43345585  1
  O2-  O179  1  0.92691290  0.82338570  0.75754565  1
  O2-  O180  1  0.32111095  0.06739260  0.23461294  1
  O2-  O181  1  0.32194532  0.07149059  0.57678082  1
  O2-  O182  1  0.31629409  0.07161853  0.89916417  1
  O2-  O183  1  0.32480302  0.57067725  0.23379015  1
  O2-  O184  1  0.32380576  0.57243617  0.57878831  1
  O2-  O185  1  0.32626551  0.57014014  0.90887865  1
  O2-  O186  1  0.82106659  0.07449931  0.23582713  1
  O2-  O187  1  0.82159400  0.07554371  0.57720528  1
  O2-  O188  1  0.82114903  0.07520663  0.89960471  1
  O2-  O189  1  0.81745822  0.56987044  0.23440733  1
  O2-  O190  1  0.82135918  0.56974574  0.56969618  1
  O2-  O191  1  0.82017941  0.56625588  0.90320819  1
  O2-  O192  1  0.05023255  0.08716764  0.26822567  1
  O2-  O193  1  0.04442233  0.08206883  0.59691166  1
  O2-  O194  1  0.05194046  0.08734556  0.93881298  1
  O2-  O195  1  0.04426268  0.57540379  0.26808312  1
  O2-  O196  1  0.03874467  0.58085508  0.60216601  1
  O2-  O197  1  0.03809444  0.58225185  0.93952363  1
  O2-  O198  1  0.53642368  0.08356363  0.26350969  1
  O2-  O199  1  0.53826210  0.09303379  0.60217065  1
  O2-  O200  1  0.53957789  0.08968998  0.93488573  1
  O2-  O201  1  0.54352786  0.58560805  0.26996633  1
  O2-  O202  1  0.54814646  0.58343801  0.60350598  1
  O2-  O203  1  0.54774262  0.58141891  0.93518542  1
  O2-  O204  1  0.16567780  0.21027910  0.27080003  1
  O2-  O205  1  0.16842778  0.21160493  0.59872280  1
  O2-  O206  1  0.16368803  0.21397508  0.93858626  1
  O2-  O207  1  0.16991246  0.70406561  0.26288265  1
  O2-  O208  1  0.16489763  0.70879328  0.59980684  1
  O2-  O209  1  0.16594461  0.69267972  0.93836977  1
  O2-  O210  1  0.66660863  0.21010101  0.26074147  1
  O2-  O211  1  0.66445120  0.20606637  0.60489638  1
  O2-  O212  1  0.66278888  0.20755078  0.93446835  1
  O2-  O213  1  0.66067960  0.70698976  0.27241631  1
  O2-  O214  1  0.66701307  0.70398125  0.60723284  1
  O2-  O215  1  0.66590435  0.70066976  0.93743264  1
  O2-  O216  1  0.08387926  0.45671760  0.06919613  1
  O2-  O217  1  0.07896717  0.45146008  0.40451414  1
  O2-  O218  1  0.08438962  0.45662051  0.73596455  1
  O2-  O219  1  0.08445752  0.95194220  0.06156054  1
  O2-  O220  1  0.08463511  0.95426145  0.39348698  1
  O2-  O221  1  0.08211197  0.95915456  0.73347258  1
  O2-  O222  1  0.57938450  0.44750918  0.06152006  1
  O2-  O223  1  0.58233536  0.44794727  0.38930748  1
  O2-  O224  1  0.57719548  0.45137207  0.73269710  1
  O2-  O225  1  0.58284955  0.96229104  0.06755301  1
  O2-  O226  1  0.58378597  0.96447847  0.40347273  1
  O2-  O227  1  0.58373462  0.97051249  0.73580331  1
  O2-  O228  1  0.21433158  0.33569512  0.07047987  1
  O2-  O229  1  0.21183942  0.33368743  0.40501520  1
  O2-  O230  1  0.21651615  0.33369499  0.73544997  1
  O2-  O231  1  0.19997607  0.82844259  0.05886492  1
  O2-  O232  1  0.20300050  0.83389123  0.39124056  1
  O2-  O233  1  0.21054148  0.83283026  0.73386191  1
  O2-  O234  1  0.70266976  0.33312152  0.06160257  1
  O2-  O235  1  0.70492619  0.33370957  0.39000755  1
  O2-  O236  1  0.70608071  0.32969159  0.73562531  1
  O2-  O237  1  0.70133478  0.82891346  0.06535483  1
  O2-  O238  1  0.70223951  0.83050169  0.40506483  1
  O2-  O239  1  0.70045149  0.83433287  0.73767583  1
  O2-  O240  1  0.45100501  0.41601682  0.26832221  1
  O2-  O241  1  0.45018827  0.41766694  0.60535162  1
  O2-  O242  1  0.45150434  0.41252152  0.93537547  1
  O2-  O243  1  0.46203024  0.91264532  0.27136313  1
  O2-  O244  1  0.46267099  0.91952714  0.59802753  1
  O2-  O245  1  0.46111173  0.91789479  0.93119419  1
  O2-  O246  1  0.95813861  0.41048411  0.27023411  1
  O2-  O247  1  0.95587233  0.41400961  0.60572843  1
  O2-  O248  1  0.96076538  0.41172540  0.93701089  1
  O2-  O249  1  0.95536333  0.91929640  0.26617895  1
  O2-  O250  1  0.94957598  0.91665492  0.60610265  1
  O2-  O251  1  0.95724628  0.91859256  0.93040879  1
  O2-  O252  1  0.33360033  0.29422093  0.27077057  1
  O2-  O253  1  0.34017114  0.29082746  0.60061882  1
  O2-  O254  1  0.33693442  0.28734276  0.93768985  1
  O2-  O255  1  0.33758462  0.79968742  0.26903933  1
  O2-  O256  1  0.33411648  0.79340090  0.59612053  1
  O2-  O257  1  0.33230464  0.79220843  0.93046246  1
  O2-  O258  1  0.83857093  0.29217855  0.26736970  1
  O2-  O259  1  0.83427797  0.29649526  0.60398222  1
  O2-  O260  1  0.83668308  0.29654118  0.93623051  1
  O2-  O261  1  0.82706600  0.79055089  0.26903890  1
  O2-  O262  1  0.82918901  0.79819586  0.60980800  1
  O2-  O263  1  0.83201902  0.78777838  0.93288186  1
  O2-  O264  1  0.41585262  0.03934162  0.06569883  1
  O2-  O265  1  0.41663388  0.03903110  0.40275889  1
  O2-  O266  1  0.41454455  0.04623517  0.72861704  1
  O2-  O267  1  0.41716549  0.54487374  0.06078257  1
  O2-  O268  1  0.41897343  0.54203454  0.40307635  1
  O2-  O269  1  0.41614184  0.55006069  0.73062694  1
  O2-  O270  1  0.92568591  0.05172442  0.06266933  1
  O2-  O271  1  0.92542521  0.05152496  0.39838203  1
  O2-  O272  1  0.91908134  0.05208082  0.72639164  1
  O2-  O273  1  0.91260844  0.53389473  0.07163383  1
  O2-  O274  1  0.91406105  0.53648360  0.40109660  1
  O2-  O275  1  0.91722518  0.53839001  0.73890302  1
  O2-  O276  1  0.28744619  0.16251410  0.06990732  1
  O2-  O277  1  0.29325855  0.16613174  0.40185719  1
  O2-  O278  1  0.29633868  0.16577799  0.72777708  1
  O2-  O279  1  0.30152115  0.66744872  0.05885390  1
  O2-  O280  1  0.30091473  0.67569191  0.39700546  1
  O2-  O281  1  0.29713093  0.66914929  0.72784713  1
  O2-  O282  1  0.79312792  0.17088013  0.06536733  1
  O2-  O283  1  0.79093421  0.17029453  0.40159290  1
  O2-  O284  1  0.79558736  0.16548954  0.72952116  1
  O2-  O285  1  0.78780815  0.66478951  0.07012619  1
  O2-  O286  1  0.78734145  0.66482802  0.40380881  1
  O2-  O287  1  0.79266763  0.66867641  0.73844089  1
