# generated using pymatgen
data_Ca2Al2SiO7
_symmetry_space_group_name_H-M   'P 1'
_cell_length_a   15.47001136
_cell_length_b   15.47253861
_cell_length_c   15.29228351
_cell_angle_alpha   90.00877251
_cell_angle_beta   89.99734433
_cell_angle_gamma   89.98403847
_symmetry_Int_Tables_number   1
_chemical_formula_structural   Ca2Al2SiO7
_chemical_formula_sum   'Ca48 Al48 Si24 O168'
_cell_volume   3660.36611419
_cell_formula_units_Z   24
loop_
 _symmetry_equiv_pos_site_id
 _symmetry_equiv_pos_as_xyz
  1  'x, y, z'
loop_
 _atom_type_symbol
 _atom_type_oxidation_number
  Ca2+  2.0
  Al0+  0.0
  Si0+  0.0
  O2-  -2.0
loop_
 _atom_site_type_symbol
 _atom_site_label
 _atom_site_symmetry_multiplicity
 _atom_site_fract_x
 _atom_site_fract_y
 _atom_site_fract_z
 _atom_site_occupancy
  Ca2+  Ca0  1  0.16853622  0.08608167  0.16584777  1
  Ca2+  Ca1  1  0.17077229  0.08740883  0.50870959  1
  Ca2+  Ca2  1  0.17708871  0.09299920  0.83667206  1
  Ca2+  Ca3  1  0.16663810  0.58333249  0.17439500  1
  Ca2+  Ca4  1  0.16892306  0.57982544  0.51442513  1
  Ca2+  Ca5  1  0.16728165  0.58334807  0.83098457  1
  Ca2+  Ca6  1  0.66195440  0.07140601  0.16626423  1
  Ca2+  Ca7  1  0.67274446  0.07308621  0.51004435  1
  Ca2+  Ca8  1  0.67573203  0.07275632  0.84083340  1
  Ca2+  Ca9  1  0.66513879  0.58863457  0.16669416  1
  Ca2+  Ca10  1  0.66550495  0.57576712  0.50819860  1
  Ca2+  Ca11  1  0.65455009  0.57663927  0.83530272  1
  Ca2+  Ca12  1  0.08162922  0.32045113  0.16248568  1
  Ca2+  Ca13  1  0.09265776  0.32197561  0.50075260  1
  Ca2+  Ca14  1  0.08496551  0.32426423  0.82699462  1
  Ca2+  Ca15  1  0.07744651  0.82948917  0.16085983  1
  Ca2+  Ca16  1  0.08044419  0.82319468  0.50057751  1
  Ca2+  Ca17  1  0.06991638  0.83527076  0.82476116  1
  Ca2+  Ca18  1  0.57725866  0.32538174  0.15942372  1
  Ca2+  Ca19  1  0.57141202  0.33811224  0.49881124  1
  Ca2+  Ca20  1  0.58143064  0.32460369  0.82507322  1
  Ca2+  Ca21  1  0.57914261  0.83736295  0.15828901  1
  Ca2+  Ca22  1  0.57438121  0.84543718  0.49951415  1
  Ca2+  Ca23  1  0.57756193  0.84092147  0.83025735  1
  Ca2+  Ca24  1  0.33430672  0.41794089  0.17163168  1
  Ca2+  Ca25  1  0.33226550  0.42323373  0.51476948  1
  Ca2+  Ca26  1  0.33218829  0.41914089  0.82883269  1
  Ca2+  Ca27  1  0.34423212  0.92262237  0.16727584  1
  Ca2+  Ca28  1  0.33445872  0.92103825  0.50927424  1
  Ca2+  Ca29  1  0.33777768  0.92470987  0.83765379  1
  Ca2+  Ca30  1  0.83147192  0.41854836  0.16843002  1
  Ca2+  Ca31  1  0.82575261  0.41743216  0.50865264  1
  Ca2+  Ca32  1  0.82832059  0.41782339  0.83275684  1
  Ca2+  Ca33  1  0.82450379  0.91512553  0.16602441  1
  Ca2+  Ca34  1  0.82315632  0.91696285  0.50992447  1
  Ca2+  Ca35  1  0.83196513  0.92022352  0.83932442  1
  Ca2+  Ca36  1  0.42029704  0.17017035  0.15914443  1
  Ca2+  Ca37  1  0.40862964  0.17978364  0.50029471  1
  Ca2+  Ca38  1  0.42099988  0.16275257  0.82775557  1
  Ca2+  Ca39  1  0.42355785  0.68242427  0.15986968  1
  Ca2+  Ca40  1  0.40942521  0.68029326  0.50035697  1
  Ca2+  Ca41  1  0.41801721  0.67888764  0.82877733  1
  Ca2+  Ca42  1  0.92672205  0.15608907  0.16009725  1
  Ca2+  Ca43  1  0.92746271  0.15782347  0.50129698  1
  Ca2+  Ca44  1  0.92634796  0.15250587  0.82798815  1
  Ca2+  Ca45  1  0.92152638  0.67268340  0.16046120  1
  Ca2+  Ca46  1  0.92659151  0.66702771  0.50065575  1
  Ca2+  Ca47  1  0.91835160  0.68098552  0.82596221  1
  Al0+  Al48  1  0.00259389  -0.00149215  -0.00360102  1
  Al0+  Al49  1  0.00118679  -0.00194632  0.32970776  1
  Al0+  Al50  1  0.00036250  -0.00162774  0.65742550  1
  Al0+  Al51  1  -0.00027403  0.49681008  0.00241786  1
  Al0+  Al52  1  0.00009936  0.49796412  0.33056873  1
  Al0+  Al53  1  -0.00119348  0.49734125  0.66840073  1
  Al0+  Al54  1  0.49970857  0.00357479  0.00100618  1
  Al0+  Al55  1  0.49973201  0.00308437  0.33626038  1
  Al0+  Al56  1  0.50105796  0.00104855  0.66827567  1
  Al0+  Al57  1  0.49703397  0.50125248  0.00098035  1
  Al0+  Al58  1  0.49836779  0.50175509  0.32955218  1
  Al0+  Al59  1  0.49879121  0.50007313  0.67206325  1
  Al0+  Al60  1  0.24809610  0.25116346  0.00284380  1
  Al0+  Al61  1  0.24943062  0.25131841  0.32403303  1
  Al0+  Al62  1  0.25079371  0.25151723  0.66781087  1
  Al0+  Al63  1  0.25117662  0.74830700  -0.00126078  1
  Al0+  Al64  1  0.25091373  0.75158154  0.32447202  1
  Al0+  Al65  1  0.25097625  0.75032327  0.66471444  1
  Al0+  Al66  1  0.75104225  0.25138449  0.00179589  1
  Al0+  Al67  1  0.75070745  0.25020106  0.33435980  1
  Al0+  Al68  1  0.75195672  0.24847123  0.67340050  1
  Al0+  Al69  1  0.75090138  0.74676111  -0.00314414  1
  Al0+  Al70  1  0.75001620  0.74918444  0.34087572  1
  Al0+  Al71  1  0.74792991  0.74864001  0.66485091  1
  Al0+  Al72  1  0.07046892  0.67748512  0.65407481  1
  Al0+  Al73  1  0.92587627  0.82174871  0.64885892  1
  Al0+  Al74  1  0.06979949  0.17816643  0.31795019  1
  Al0+  Al75  1  0.07044527  0.67793709  0.31945413  1
  Al0+  Al76  1  0.43087820  0.82313622  0.65289437  1
  Al0+  Al77  1  0.32005762  0.07141417  0.01509224  1
  Al0+  Al78  1  0.82409651  0.06881600  0.68101731  1
  Al0+  Al79  1  0.32086299  0.57423514  0.68303364  1
  Al0+  Al80  1  0.06937968  0.17991469  0.98464935  1
  Al0+  Al81  1  0.67794645  0.42895859  0.68024195  1
  Al0+  Al82  1  0.57203764  0.18065631  0.98624788  1
  Al0+  Al83  1  0.07112748  0.18039090  0.65340046  1
  Al0+  Al84  1  0.67818276  0.92729891  0.68315045  1
  Al0+  Al85  1  0.82466689  0.07134509  0.01629078  1
  Al0+  Al86  1  0.67827812  0.92990827  0.34879327  1
  Al0+  Al87  1  0.43131700  0.32032826  0.65531620  1
  Al0+  Al88  1  0.93081143  0.81918729  0.98749790  1
  Al0+  Al89  1  0.31925907  0.07173304  0.67824023  1
  Al0+  Al90  1  0.68018830  0.92810386  0.01521872  1
  Al0+  Al91  1  0.17765301  0.42842137  0.68214703  1
  Al0+  Al92  1  0.43084890  0.82371364  0.31992299  1
  Al0+  Al93  1  0.42955671  0.32278496  0.31905139  1
  Al0+  Al94  1  0.57169115  0.67800436  0.98500670  1
  Al0+  Al95  1  0.42997626  0.82318721  0.98387791  1
  Si0+  Si96  1  0.67766859  0.42910874  0.34647938  1
  Si0+  Si97  1  0.82225288  0.56951844  0.34866884  1
  Si0+  Si98  1  0.92774781  0.32405678  0.98239675  1
  Si0+  Si99  1  0.17851394  0.92755144  0.34737522  1
  Si0+  Si100  1  0.57425587  0.17846012  0.64980988  1
  Si0+  Si101  1  0.42707185  0.32233086  0.98269852  1
  Si0+  Si102  1  0.17933169  0.92562237  0.01620581  1
  Si0+  Si103  1  0.82472242  0.07190244  0.34977435  1
  Si0+  Si104  1  0.07257346  0.67421142  0.98426270  1
  Si0+  Si105  1  0.92550366  0.32158625  0.31615550  1
  Si0+  Si106  1  0.57305722  0.67815369  0.31920004  1
  Si0+  Si107  1  0.17972007  0.42902874  0.34748133  1
  Si0+  Si108  1  0.82221148  0.56890082  0.01547724  1
  Si0+  Si109  1  0.31840266  0.07254594  0.34791608  1
  Si0+  Si110  1  0.92579241  0.32194170  0.64999656  1
  Si0+  Si111  1  0.17846137  0.43025107  0.01882327  1
  Si0+  Si112  1  0.32056469  0.57180318  0.01912864  1
  Si0+  Si113  1  0.67676505  0.42934443  0.01658845  1
  Si0+  Si114  1  0.57028868  0.67611725  0.64928451  1
  Si0+  Si115  1  0.57327915  0.18031607  0.31813871  1
  Si0+  Si116  1  0.82184067  0.57132347  0.68362769  1
  Si0+  Si117  1  0.17847061  0.92736892  0.68047923  1
  Si0+  Si118  1  0.31959514  0.57209603  0.34712469  1
  Si0+  Si119  1  0.92626157  0.81929506  0.31633038  1
  O2-  O120  1  0.24941492  -0.00752370  0.06215052  1
  O2-  O121  1  0.24793115  0.00063075  0.38952853  1
  O2-  O122  1  0.24567462  -0.00343097  0.72549685  1
  O2-  O123  1  0.24780143  0.50244596  0.06213607  1
  O2-  O124  1  0.24810910  0.50195639  0.39007350  1
  O2-  O125  1  0.24630111  0.50370791  0.73208909  1
  O2-  O126  1  0.75099843  0.00127152  0.06705150  1
  O2-  O127  1  0.75511003  0.00410766  0.39292585  1
  O2-  O128  1  0.75424492  -0.00446813  0.73120832  1
  O2-  O129  1  0.74799655  0.50075870  0.05860122  1
  O2-  O130  1  0.74927920  0.49933181  0.38916720  1
  O2-  O131  1  0.75104145  0.50480493  0.72797091  1
  O2-  O132  1  -0.00928148  0.24948033  0.27274264  1
  O2-  O133  1  -0.00499589  0.25383374  0.60589356  1
  O2-  O134  1  -0.01020682  0.24972542  0.93921853  1
  O2-  O135  1  -0.00439417  0.75133074  0.27155290  1
  O2-  O136  1  -0.00148637  0.74812569  0.60178714  1
  O2-  O137  1  0.00739375  0.74566516  0.94162718  1
  O2-  O138  1  0.50559756  0.24988966  0.27321286  1
  O2-  O139  1  0.50609278  0.24767540  0.60483220  1
  O2-  O140  1  0.49647145  0.25471389  0.93956233  1
  O2-  O141  1  0.50951100  0.75162278  0.27607200  1
  O2-  O142  1  0.50566093  0.74833026  0.60482930  1
  O2-  O143  1  0.50493936  0.75387254  0.93467617  1
  O2-  O144  1  0.06979451  0.18328530  0.09822380  1
  O2-  O145  1  0.07291436  0.18107500  0.43069079  1
  O2-  O146  1  0.07176121  0.18262713  0.76602914  1
  O2-  O147  1  0.06960157  0.67311689  0.09055483  1
  O2-  O148  1  0.06984328  0.67658559  0.43176282  1
  O2-  O149  1  0.06771961  0.67917420  0.76767304  1
  O2-  O150  1  0.56953359  0.18369736  0.10021796  1
  O2-  O151  1  0.57402315  0.18270192  0.42343420  1
  O2-  O152  1  0.57276792  0.18044258  0.75529323  1
  O2-  O153  1  0.56814783  0.67581777  0.09931861  1
  O2-  O154  1  0.57078582  0.67135988  0.42408487  1
  O2-  O155  1  0.56749955  0.67373880  0.75441675  1
  O2-  O156  1  0.18102018  0.43042100  0.24203479  1
  O2-  O157  1  0.18124726  0.42746456  0.56774459  1
  O2-  O158  1  0.17730038  0.43046628  0.91445080  1
  O2-  O159  1  0.17736813  0.92770517  0.24235322  1
  O2-  O160  1  0.18113986  0.92778376  0.57412283  1
  O2-  O161  1  0.17912842  0.92564880  0.91103053  1
  O2-  O162  1  0.67880913  0.42993761  0.24132918  1
  O2-  O163  1  0.67871834  0.43119691  0.56610624  1
  O2-  O164  1  0.67678181  0.42994638  0.91194649  1
  O2-  O165  1  0.67832429  0.92899979  0.23589779  1
  O2-  O166  1  0.67750434  0.93216289  0.56888181  1
  O2-  O167  1  0.68167224  0.92858762  0.90266438  1
  O2-  O168  1  0.42939592  0.32269985  0.08915759  1
  O2-  O169  1  0.42879204  0.32408598  0.43184144  1
  O2-  O170  1  0.43256849  0.31885132  0.76800996  1
  O2-  O171  1  0.43070022  0.82065478  0.09812094  1
  O2-  O172  1  0.42804557  0.82265877  0.43275117  1
  O2-  O173  1  0.43054683  0.82390038  0.76518003  1
  O2-  O174  1  0.93204394  0.33067802  0.08818317  1
  O2-  O175  1  0.92347908  0.32544848  0.42110725  1
  O2-  O176  1  0.92539034  0.32444490  0.75525089  1
  O2-  O177  1  0.93160183  0.81532007  0.10132361  1
  O2-  O178  1  0.92684810  0.81702714  0.42130684  1
  O2-  O179  1  0.92828313  0.82099098  0.76253585  1
  O2-  O180  1  0.31836207  0.07241272  0.24281517  1
  O2-  O181  1  0.31702329  0.07306849  0.56425912  1
  O2-  O182  1  0.31793858  0.07459713  0.90245598  1
  O2-  O183  1  0.31845014  0.56946924  0.24182955  1
  O2-  O184  1  0.32084988  0.57268951  0.56838358  1
  O2-  O185  1  0.32066637  0.57135672  0.91481434  1
  O2-  O186  1  0.82542057  0.07142071  0.24448102  1
  O2-  O187  1  0.82168001  0.07011216  0.56664986  1
  O2-  O188  1  0.82524721  0.06859025  0.90348815  1
  O2-  O189  1  0.82249544  0.56922232  0.24334312  1
  O2-  O190  1  0.82176269  0.56757482  0.57736249  1
  O2-  O191  1  0.82744271  0.56496141  0.91134342  1
  O2-  O192  1  0.04382355  0.07999852  0.26402834  1
  O2-  O193  1  0.04389903  0.08456671  0.59577087  1
  O2-  O194  1  0.04681725  0.08160190  0.93224013  1
  O2-  O195  1  0.04006831  0.58084666  0.26479880  1
  O2-  O196  1  0.04176651  0.57814578  0.60161770  1
  O2-  O197  1  0.04386620  0.58101370  0.94035513  1
  O2-  O198  1  0.54351904  0.08816742  0.27233508  1
  O2-  O199  1  0.54702956  0.08604259  0.60353207  1
  O2-  O200  1  0.54125824  0.08527312  0.93256669  1
  O2-  O201  1  0.54385500  0.58728795  0.26870494  1
  O2-  O202  1  0.54171925  0.58329080  0.60279358  1
  O2-  O203  1  0.53723506  0.58052221  0.93325550  1
  O2-  O204  1  0.16319751  0.21397992  0.26089496  1
  O2-  O205  1  0.16636351  0.21502787  0.59845018  1
  O2-  O206  1  0.16486717  0.21783375  0.93368777  1
  O2-  O207  1  0.16543959  0.70912806  0.26258760  1
  O2-  O208  1  0.16847366  0.70551792  0.60012747  1
  O2-  O209  1  0.16803078  0.69426062  0.94185101  1
  O2-  O210  1  0.66711153  0.20456501  0.27144007  1
  O2-  O211  1  0.66857268  0.20432954  0.60573457  1
  O2-  O212  1  0.66879530  0.21294265  0.93408636  1
  O2-  O213  1  0.66945965  0.69834911  0.27625591  1
  O2-  O214  1  0.66593836  0.69404444  0.60422498  1
  O2-  O215  1  0.67338382  0.69220257  0.93511922  1
  O2-  O216  1  0.08623975  0.45638633  0.06781772  1
  O2-  O217  1  0.08578325  0.45212200  0.39243574  1
  O2-  O218  1  0.07781640  0.45123596  0.73482808  1
  O2-  O219  1  0.08715831  0.95417475  0.06385515  1
  O2-  O220  1  0.08554415  0.95224526  0.39423897  1
  O2-  O221  1  0.08372675  0.95211891  0.72261395  1
  O2-  O222  1  0.58477354  0.45743886  0.06451600  1
  O2-  O223  1  0.58581889  0.45910736  0.39295317  1
  O2-  O224  1  0.58337787  0.45920288  0.73710792  1
  O2-  O225  1  0.58195721  0.95996884  0.06779256  1
  O2-  O226  1  0.58262281  0.96460371  0.40316534  1
  O2-  O227  1  0.58190196  0.96076750  0.73572854  1
  O2-  O228  1  0.20857648  0.33993610  0.06811831  1
  O2-  O229  1  0.20999945  0.33680329  0.39189790  1
  O2-  O230  1  0.21220185  0.33345276  0.73712729  1
  O2-  O231  1  0.20089843  0.83020375  0.06217109  1
  O2-  O232  1  0.20921824  0.83583050  0.39320084  1
  O2-  O233  1  0.20235848  0.83448993  0.72707717  1
  O2-  O234  1  0.70588228  0.33927005  0.06672780  1
  O2-  O235  1  0.70389884  0.33730285  0.39458672  1
  O2-  O236  1  0.70969180  0.33397798  0.73586376  1
  O2-  O237  1  0.70870242  0.82749208  0.06606957  1
  O2-  O238  1  0.70565474  0.83210944  0.40286714  1
  O2-  O239  1  0.69752972  0.82483535  0.73006670  1
  O2-  O240  1  0.45943278  0.41904532  0.26295604  1
  O2-  O241  1  0.46196416  0.41749255  0.60145877  1
  O2-  O242  1  0.45116570  0.41676165  0.93960952  1
  O2-  O243  1  0.45950258  0.92188652  0.26811088  1
  O2-  O244  1  0.46155698  0.91973608  0.59755337  1
  O2-  O245  1  0.45314193  0.92355413  0.93510068  1
  O2-  O246  1  0.95513517  0.41311647  0.26714324  1
  O2-  O247  1  0.94938319  0.41552247  0.60278936  1
  O2-  O248  1  0.96017949  0.41467806  0.93393777  1
  O2-  O249  1  0.95199591  0.91277594  0.27078178  1
  O2-  O250  1  0.95643527  0.91697524  0.59135555  1
  O2-  O251  1  0.96262732  0.91386501  0.93221829  1
  O2-  O252  1  0.33510467  0.29141975  0.26171093  1
  O2-  O253  1  0.33561623  0.28908697  0.59978580  1
  O2-  O254  1  0.33254670  0.29754767  0.94075659  1
  O2-  O255  1  0.33682894  0.79109902  0.26228560  1
  O2-  O256  1  0.33435959  0.79216477  0.59800106  1
  O2-  O257  1  0.33143374  0.79114147  0.93339497  1
  O2-  O258  1  0.83063035  0.30095455  0.26940051  1
  O2-  O259  1  0.83207225  0.29605439  0.60354271  1
  O2-  O260  1  0.83088928  0.30838058  0.94116827  1
  O2-  O261  1  0.83270468  0.79051411  0.27181510  1
  O2-  O262  1  0.82755002  0.79155492  0.59644176  1
  O2-  O263  1  0.83651259  0.78524845  0.93291577  1
  O2-  O264  1  0.41700218  0.04496456  0.07094645  1
  O2-  O265  1  0.41064643  0.04837069  0.39541237  1
  O2-  O266  1  0.41621326  0.04306361  0.73093323  1
  O2-  O267  1  0.41096893  0.54087733  0.06853723  1
  O2-  O268  1  0.41190640  0.54404239  0.39299065  1
  O2-  O269  1  0.41643121  0.54148394  0.73772742  1
  O2-  O270  1  0.92320680  0.03878063  0.06787094  1
  O2-  O271  1  0.91901480  0.04533117  0.39450941  1
  O2-  O272  1  0.92428213  0.04050232  0.72958105  1
  O2-  O273  1  0.91195068  0.53681114  0.06687592  1
  O2-  O274  1  0.91317205  0.53817062  0.39583827  1
  O2-  O275  1  0.91330578  0.54301947  0.73150020  1
  O2-  O276  1  0.28553832  0.16739959  0.07041073  1
  O2-  O277  1  0.28767601  0.16536001  0.39215951  1
  O2-  O278  1  0.28830389  0.16660679  0.73382430  1
  O2-  O279  1  0.29421189  0.66400193  0.06744898  1
  O2-  O280  1  0.29267071  0.66554274  0.39098436  1
  O2-  O281  1  0.29335349  0.67251854  0.73611804  1
  O2-  O282  1  0.80204551  0.17346348  0.06624659  1
  O2-  O283  1  0.80151607  0.16729247  0.39415638  1
  O2-  O284  1  0.79964583  0.16751462  0.73460179  1
  O2-  O285  1  0.79665417  0.66011806  0.06486409  1
  O2-  O286  1  0.79689708  0.66015239  0.39875713  1
  O2-  O287  1  0.79854007  0.66560209  0.72747624  1
