# generated using pymatgen
data_Ca2Al2SiO7
_symmetry_space_group_name_H-M   'P 1'
_cell_length_a   15.46524886
_cell_length_b   15.46873292
_cell_length_c   15.28990399
_cell_angle_alpha   90.00881465
_cell_angle_beta   89.98893793
_cell_angle_gamma   90.01336439
_symmetry_Int_Tables_number   1
_chemical_formula_structural   Ca2Al2SiO7
_chemical_formula_sum   'Ca48 Al48 Si24 O168'
_cell_volume   3657.76994705
_cell_formula_units_Z   24
loop_
 _symmetry_equiv_pos_site_id
 _symmetry_equiv_pos_as_xyz
  1  'x, y, z'
loop_
 _atom_type_symbol
 _atom_type_oxidation_number
  Ca2+  2.0
  Al0+  0.0
  Si0+  0.0
  O2-  -2.0
loop_
 _atom_site_type_symbol
 _atom_site_label
 _atom_site_symmetry_multiplicity
 _atom_site_fract_x
 _atom_site_fract_y
 _atom_site_fract_z
 _atom_site_occupancy
  Ca2+  Ca0  1  0.16080519  0.07795056  0.16528851  1
  Ca2+  Ca1  1  0.16873452  0.07525799  0.50675189  1
  Ca2+  Ca2  1  0.16437923  0.06981703  0.84006531  1
  Ca2+  Ca3  1  0.17567047  0.59702317  0.17050521  1
  Ca2+  Ca4  1  0.17533560  0.58591274  0.50451444  1
  Ca2+  Ca5  1  0.17855988  0.59112630  0.83832266  1
  Ca2+  Ca6  1  0.67473989  0.07256334  0.17166572  1
  Ca2+  Ca7  1  0.67077166  0.07588521  0.49581466  1
  Ca2+  Ca8  1  0.67364428  0.07345411  0.84410615  1
  Ca2+  Ca9  1  0.66807489  0.57711514  0.17350673  1
  Ca2+  Ca10  1  0.66712714  0.57532155  0.50908336  1
  Ca2+  Ca11  1  0.66787386  0.58767842  0.82774231  1
  Ca2+  Ca12  1  0.07570409  0.32616948  0.16117239  1
  Ca2+  Ca13  1  0.07920603  0.33609370  0.49306636  1
  Ca2+  Ca14  1  0.09117516  0.32514456  0.82943454  1
  Ca2+  Ca15  1  0.08159230  0.82578521  0.16453545  1
  Ca2+  Ca16  1  0.07469640  0.82969334  0.49598605  1
  Ca2+  Ca17  1  0.08328179  0.83229492  0.82959935  1
  Ca2+  Ca18  1  0.57959100  0.33881687  0.16809940  1
  Ca2+  Ca19  1  0.58349230  0.33910645  0.49172757  1
  Ca2+  Ca20  1  0.58643277  0.33199564  0.82721123  1
  Ca2+  Ca21  1  0.57361755  0.84729165  0.16398369  1
  Ca2+  Ca22  1  0.57416847  0.82656180  0.49429710  1
  Ca2+  Ca23  1  0.57289325  0.83148080  0.82448078  1
  Ca2+  Ca24  1  0.33433326  0.43083635  0.17523083  1
  Ca2+  Ca25  1  0.33164235  0.42901163  0.50601639  1
  Ca2+  Ca26  1  0.32961322  0.43105795  0.83418148  1
  Ca2+  Ca27  1  0.32876138  0.90564868  0.16822035  1
  Ca2+  Ca28  1  0.32910003  0.90866043  0.50516212  1
  Ca2+  Ca29  1  0.32433638  0.90311887  0.83770295  1
  Ca2+  Ca30  1  0.82926255  0.41492072  0.17597387  1
  Ca2+  Ca31  1  0.82720841  0.42218679  0.50445899  1
  Ca2+  Ca32  1  0.83022673  0.42417072  0.83021828  1
  Ca2+  Ca33  1  0.83003014  0.92536852  0.17642963  1
  Ca2+  Ca34  1  0.83786075  0.91521512  0.50239138  1
  Ca2+  Ca35  1  0.82788058  0.91667446  0.84245711  1
  Ca2+  Ca36  1  0.41520022  0.17623530  0.16474929  1
  Ca2+  Ca37  1  0.41937148  0.17756957  0.49146484  1
  Ca2+  Ca38  1  0.41890331  0.16857288  0.82849331  1
  Ca2+  Ca39  1  0.41440413  0.67351221  0.16316400  1
  Ca2+  Ca40  1  0.41329649  0.67013278  0.49700613  1
  Ca2+  Ca41  1  0.41766713  0.67169611  0.82838023  1
  Ca2+  Ca42  1  0.91033282  0.16840470  0.16356367  1
  Ca2+  Ca43  1  0.91520959  0.17328375  0.49136245  1
  Ca2+  Ca44  1  0.92021215  0.16101741  0.83452976  1
  Ca2+  Ca45  1  0.93061551  0.66703185  0.16295283  1
  Ca2+  Ca46  1  0.91917829  0.67387957  0.49361800  1
  Ca2+  Ca47  1  0.92110252  0.67199111  0.82393512  1
  Al0+  Al48  1  0.00017842  0.00171730  0.00484023  1
  Al0+  Al49  1  0.00117123  -0.00056012  0.33554752  1
  Al0+  Al50  1  0.00195951  0.00046850  0.66632031  1
  Al0+  Al51  1  -0.00013872  0.49917822  -0.00628041  1
  Al0+  Al52  1  0.00148848  0.49739281  0.32293621  1
  Al0+  Al53  1  -0.00061309  0.49657685  0.67355793  1
  Al0+  Al54  1  0.49763468  0.00371823  -0.00261679  1
  Al0+  Al55  1  0.50049919  0.00129038  0.33384597  1
  Al0+  Al56  1  0.50123349  0.00206068  0.66068549  1
  Al0+  Al57  1  0.49846840  0.50215074  0.00239265  1
  Al0+  Al58  1  0.49874243  0.50126288  0.33658685  1
  Al0+  Al59  1  0.49955433  0.49805098  0.67277355  1
  Al0+  Al60  1  0.24778601  0.25146234  -0.00537757  1
  Al0+  Al61  1  0.25117926  0.25028228  0.32812946  1
  Al0+  Al62  1  0.25220220  0.24800291  0.66825053  1
  Al0+  Al63  1  0.25037177  0.75048629  0.00126716  1
  Al0+  Al64  1  0.25167446  0.75038736  0.33252033  1
  Al0+  Al65  1  0.24852024  0.75066301  0.67096993  1
  Al0+  Al66  1  0.74841670  0.25073319  0.00115172  1
  Al0+  Al67  1  0.75041493  0.24798065  0.33584931  1
  Al0+  Al68  1  0.75198359  0.24875741  0.66979664  1
  Al0+  Al69  1  0.74745518  0.74711136  0.00680119  1
  Al0+  Al70  1  0.74895353  0.75010313  0.33254619  1
  Al0+  Al71  1  0.74884226  0.75033202  0.66261727  1
  Al0+  Al72  1  0.06953603  0.17893390  0.98471803  1
  Al0+  Al73  1  0.18094843  0.92973841  0.01578227  1
  Al0+  Al74  1  0.92932743  0.82169262  0.65541616  1
  Al0+  Al75  1  0.17775603  0.42538564  0.68094102  1
  Al0+  Al76  1  0.68015864  0.43080182  0.34539242  1
  Al0+  Al77  1  0.18001855  0.93083582  0.67964885  1
  Al0+  Al78  1  0.92856452  0.31903739  0.32069812  1
  Al0+  Al79  1  0.43162835  0.82165660  0.98655218  1
  Al0+  Al80  1  0.67667665  0.92639519  0.35152014  1
  Al0+  Al81  1  0.07080763  0.68014037  0.98383608  1
  Al0+  Al82  1  0.07100632  0.67931135  0.32005761  1
  Al0+  Al83  1  0.31863551  0.57167680  0.34781959  1
  Al0+  Al84  1  0.57034256  0.67692668  0.65118808  1
  Al0+  Al85  1  0.67927078  0.42753327  0.68217643  1
  Al0+  Al86  1  0.31880080  0.56974682  0.01647738  1
  Al0+  Al87  1  0.43108890  0.82130124  0.31887909  1
  Al0+  Al88  1  0.67543147  0.92665240  0.01335361  1
  Al0+  Al89  1  0.42945950  0.32334011  0.31996341  1
  Al0+  Al90  1  0.82256626  0.06869217  0.35118009  1
  Al0+  Al91  1  0.82133576  0.57419852  0.68026550  1
  Al0+  Al92  1  0.31927811  0.57168620  0.68331795  1
  Al0+  Al93  1  0.82044722  0.07037259  0.01516029  1
  Al0+  Al94  1  0.42725381  0.82081837  0.65075460  1
  Al0+  Al95  1  0.92670130  0.82284549  0.31743094  1
  Si0+  Si96  1  0.92474576  0.32159220  0.97953682  1
  Si0+  Si97  1  0.67786014  0.92990057  0.68025863  1
  Si0+  Si98  1  0.07397976  0.17700622  0.31765556  1
  Si0+  Si99  1  0.18170783  0.93003409  0.34878587  1
  Si0+  Si100  1  0.17766235  0.42537699  0.34646964  1
  Si0+  Si101  1  0.57486271  0.17940720  0.65016050  1
  Si0+  Si102  1  0.82371356  0.57062551  0.01600396  1
  Si0+  Si103  1  0.32132941  0.07477076  0.34731488  1
  Si0+  Si104  1  0.17652327  0.42624293  0.01772169  1
  Si0+  Si105  1  0.67966477  0.43005767  0.01498544  1
  Si0+  Si106  1  0.82159554  0.06991541  0.68199158  1
  Si0+  Si107  1  0.57163051  0.17914186  0.31514975  1
  Si0+  Si108  1  0.07161091  0.17931670  0.65138567  1
  Si0+  Si109  1  0.57180451  0.67678347  0.31689171  1
  Si0+  Si110  1  0.07123038  0.67560023  0.65251092  1
  Si0+  Si111  1  0.32461690  0.07184307  0.68233427  1
  Si0+  Si112  1  0.92848836  0.31973574  0.65207702  1
  Si0+  Si113  1  0.56993728  0.18207898  0.98433932  1
  Si0+  Si114  1  0.42905681  0.32395341  0.98338450  1
  Si0+  Si115  1  0.43016149  0.31859747  0.65247450  1
  Si0+  Si116  1  0.92641049  0.82080947  0.98638558  1
  Si0+  Si117  1  0.57295721  0.67469748  0.98369110  1
  Si0+  Si118  1  0.82592629  0.57114817  0.34660412  1
  Si0+  Si119  1  0.32156809  0.07655701  0.01663823  1
  O2-  O120  1  0.25601977  0.00557880  0.06152657  1
  O2-  O121  1  0.25196798  0.00278351  0.38994214  1
  O2-  O122  1  0.26050058  -0.00037684  0.72648937  1
  O2-  O123  1  0.24177958  0.49678698  0.06323243  1
  O2-  O124  1  0.24324664  0.49597087  0.39149270  1
  O2-  O125  1  0.24331614  0.50230698  0.73233296  1
  O2-  O126  1  0.75235334  -0.00617964  0.06297960  1
  O2-  O127  1  0.75487214  -0.00741526  0.40169205  1
  O2-  O128  1  0.75167566  -0.00218022  0.72342701  1
  O2-  O129  1  0.75190021  0.49937631  0.05711930  1
  O2-  O130  1  0.75452315  0.50557872  0.39136142  1
  O2-  O131  1  0.74786932  0.50308853  0.73135636  1
  O2-  O132  1  0.00274289  0.24352125  0.27455354  1
  O2-  O133  1  0.00460556  0.25386385  0.60976729  1
  O2-  O134  1  -0.00495860  0.25364482  0.93651124  1
  O2-  O135  1  -0.00389582  0.74795517  0.26877029  1
  O2-  O136  1  -0.00001227  0.74224441  0.60953744  1
  O2-  O137  1  -0.00656840  0.75277904  0.93849612  1
  O2-  O138  1  0.50385301  0.24923672  0.27109069  1
  O2-  O139  1  0.50465309  0.25166873  0.60904540  1
  O2-  O140  1  0.49870743  0.25196153  0.94025826  1
  O2-  O141  1  0.50960216  0.75089402  0.27181111  1
  O2-  O142  1  0.49657456  0.74665008  0.60044238  1
  O2-  O143  1  0.51077359  0.75051690  0.94226353  1
  O2-  O144  1  0.07104293  0.18234638  0.09761629  1
  O2-  O145  1  0.07673030  0.17934306  0.42361784  1
  O2-  O146  1  0.06924833  0.17757439  0.75628721  1
  O2-  O147  1  0.07026257  0.68112136  0.09667542  1
  O2-  O148  1  0.07135254  0.68007218  0.43399688  1
  O2-  O149  1  0.07104494  0.67937156  0.75822629  1
  O2-  O150  1  0.56963192  0.18463530  0.08900249  1
  O2-  O151  1  0.56942787  0.17945487  0.42116445  1
  O2-  O152  1  0.57395015  0.17847708  0.75560778  1
  O2-  O153  1  0.57043463  0.66554774  0.08867140  1
  O2-  O154  1  0.56779154  0.67380007  0.42209050  1
  O2-  O155  1  0.57112838  0.68222982  0.76520897  1
  O2-  O156  1  0.18029656  0.42170298  0.24113440  1
  O2-  O157  1  0.18098175  0.42204988  0.56720126  1
  O2-  O158  1  0.18094061  0.42408295  0.91230052  1
  O2-  O159  1  0.18222654  0.93095932  0.24371680  1
  O2-  O160  1  0.17813034  0.93488602  0.56635244  1
  O2-  O161  1  0.18141135  0.93112564  0.90258548  1
  O2-  O162  1  0.68049354  0.43201754  0.23152061  1
  O2-  O163  1  0.68290630  0.42414686  0.56892850  1
  O2-  O164  1  0.68018234  0.42842483  0.91023927  1
  O2-  O165  1  0.67328409  0.93432201  0.23833079  1
  O2-  O166  1  0.67652910  0.93360604  0.57575235  1
  O2-  O167  1  0.67650647  0.93031761  0.89888169  1
  O2-  O168  1  0.43124965  0.32351614  0.08850404  1
  O2-  O169  1  0.42921564  0.32017364  0.43312075  1
  O2-  O170  1  0.43008409  0.31396453  0.75784922  1
  O2-  O171  1  0.43155240  0.82002810  0.09975610  1
  O2-  O172  1  0.42769228  0.81956025  0.43151583  1
  O2-  O173  1  0.43000702  0.82277310  0.76435563  1
  O2-  O174  1  0.92321635  0.32114555  0.08521560  1
  O2-  O175  1  0.93078429  0.31966826  0.43409929  1
  O2-  O176  1  0.92432126  0.31520139  0.75687266  1
  O2-  O177  1  0.92825019  0.81769042  0.09156980  1
  O2-  O178  1  0.93230481  0.82253864  0.43134923  1
  O2-  O179  1  0.93060343  0.82466189  0.76881520  1
  O2-  O180  1  0.31972538  0.07849437  0.24250001  1
  O2-  O181  1  0.32138522  0.07703185  0.57670454  1
  O2-  O182  1  0.32140763  0.07907792  0.91108419  1
  O2-  O183  1  0.31886611  0.57125951  0.23464989  1
  O2-  O184  1  0.31854821  0.56988354  0.56963003  1
  O2-  O185  1  0.32090763  0.56751921  0.90372549  1
  O2-  O186  1  0.81968894  0.07136028  0.23792459  1
  O2-  O187  1  0.82125386  0.07245790  0.57736527  1
  O2-  O188  1  0.81777927  0.07096875  0.90070746  1
  O2-  O189  1  0.82507586  0.56670665  0.24052230  1
  O2-  O190  1  0.82374491  0.57004637  0.56672297  1
  O2-  O191  1  0.82348652  0.57156748  0.91121309  1
  O2-  O192  1  0.05082334  0.08267942  0.27349028  1
  O2-  O193  1  0.04013992  0.08997746  0.60185275  1
  O2-  O194  1  0.03836826  0.08181109  0.93088889  1
  O2-  O195  1  0.04879590  0.58064846  0.26351577  1
  O2-  O196  1  0.05000261  0.57937263  0.61030949  1
  O2-  O197  1  0.04425031  0.58170245  0.93090742  1
  O2-  O198  1  0.54264217  0.08731076  0.26846280  1
  O2-  O199  1  0.54616709  0.08963669  0.59965262  1
  O2-  O200  1  0.54225185  0.09162862  0.93398067  1
  O2-  O201  1  0.54023472  0.58564162  0.26887410  1
  O2-  O202  1  0.54601135  0.57485846  0.60376949  1
  O2-  O203  1  0.54026522  0.58432069  0.93417236  1
  O2-  O204  1  0.16573827  0.20329658  0.26819404  1
  O2-  O205  1  0.16571425  0.20225661  0.60580811  1
  O2-  O206  1  0.16597061  0.20930177  0.92822815  1
  O2-  O207  1  0.16678769  0.71511790  0.26642575  1
  O2-  O208  1  0.16363853  0.70467082  0.60688246  1
  O2-  O209  1  0.16639886  0.71493382  0.93143387  1
  O2-  O210  1  0.66482704  0.20490546  0.26981951  1
  O2-  O211  1  0.66700892  0.20671409  0.60370515  1
  O2-  O212  1  0.66097228  0.21171858  0.93545345  1
  O2-  O213  1  0.66828106  0.69286880  0.27289018  1
  O2-  O214  1  0.66818850  0.70461354  0.59734258  1
  O2-  O215  1  0.66974996  0.69324868  0.94093373  1
  O2-  O216  1  0.07946836  0.44687751  0.05826604  1
  O2-  O217  1  0.08217872  0.44830134  0.38953766  1
  O2-  O218  1  0.07676533  0.44048998  0.73320582  1
  O2-  O219  1  0.08507293  0.96151277  0.06994928  1
  O2-  O220  1  0.09032241  0.95696724  0.39712283  1
  O2-  O221  1  0.08611452  0.96837673  0.73529987  1
  O2-  O222  1  0.58799472  0.45886103  0.06195792  1
  O2-  O223  1  0.58400917  0.46053939  0.40007539  1
  O2-  O224  1  0.58032932  0.44920278  0.73651915  1
  O2-  O225  1  0.57927118  0.96510868  0.06482232  1
  O2-  O226  1  0.58025079  0.96346792  0.40513077  1
  O2-  O227  1  0.58705903  0.96276316  0.72741017  1
  O2-  O228  1  0.20408434  0.33282083  0.06311906  1
  O2-  O229  1  0.20437503  0.33210818  0.39324885  1
  O2-  O230  1  0.21304562  0.32877506  0.73536699  1
  O2-  O231  1  0.21385016  0.83486523  0.07059558  1
  O2-  O232  1  0.21279316  0.84002469  0.39638391  1
  O2-  O233  1  0.20430757  0.83388488  0.73494545  1
  O2-  O234  1  0.70535478  0.33813818  0.06296527  1
  O2-  O235  1  0.70798223  0.33336900  0.39802323  1
  O2-  O236  1  0.71259837  0.33031643  0.73700694  1
  O2-  O237  1  0.69254996  0.82567185  0.06524962  1
  O2-  O238  1  0.69603797  0.82424999  0.40010159  1
  O2-  O239  1  0.70220034  0.83734549  0.72613356  1
  O2-  O240  1  0.46219582  0.41865760  0.26500868  1
  O2-  O241  1  0.45410078  0.41181759  0.60786175  1
  O2-  O242  1  0.46055716  0.41438519  0.93612104  1
  O2-  O243  1  0.45617947  0.92081059  0.26683855  1
  O2-  O244  1  0.45515320  0.92062098  0.59882325  1
  O2-  O245  1  0.45400801  0.92121074  0.93318134  1
  O2-  O246  1  0.95784802  0.41272119  0.26020557  1
  O2-  O247  1  0.95098597  0.41340546  0.60634740  1
  O2-  O248  1  0.94881127  0.41521530  0.93335881  1
  O2-  O249  1  0.95978739  0.92076240  0.26617944  1
  O2-  O250  1  0.96517814  0.91666449  0.60010428  1
  O2-  O251  1  0.95107476  0.91593850  0.94361221  1
  O2-  O252  1  0.33465314  0.29065803  0.26296755  1
  O2-  O253  1  0.34029973  0.28620443  0.60372452  1
  O2-  O254  1  0.33732328  0.29690203  0.93624872  1
  O2-  O255  1  0.33588627  0.78697737  0.26477625  1
  O2-  O256  1  0.32657639  0.79458223  0.60118803  1
  O2-  O257  1  0.33616547  0.78594238  0.93427228  1
  O2-  O258  1  0.83215520  0.28765276  0.26600347  1
  O2-  O259  1  0.83897300  0.28575271  0.60342483  1
  O2-  O260  1  0.83133425  0.29381701  0.93378223  1
  O2-  O261  1  0.82551523  0.80196135  0.26740193  1
  O2-  O262  1  0.83224329  0.79670655  0.60055559  1
  O2-  O263  1  0.83073845  0.79568340  0.94328029  1
  O2-  O264  1  0.41665259  0.05619486  0.06105475  1
  O2-  O265  1  0.41373970  0.05051840  0.39434979  1
  O2-  O266  1  0.42096467  0.05270835  0.72569060  1
  O2-  O267  1  0.41498795  0.53618108  0.07037603  1
  O2-  O268  1  0.41372117  0.53855309  0.40202051  1
  O2-  O269  1  0.41575788  0.53901008  0.73738353  1
  O2-  O270  1  0.91961965  0.04968231  0.06817006  1
  O2-  O271  1  0.92338399  0.04660178  0.40341529  1
  O2-  O272  1  0.91387429  0.04318392  0.72848671  1
  O2-  O273  1  0.91555386  0.54060218  0.06212653  1
  O2-  O274  1  0.91882064  0.54129202  0.39109593  1
  O2-  O275  1  0.91750367  0.54281475  0.73677936  1
  O2-  O276  1  0.29289807  0.16985397  0.06251028  1
  O2-  O277  1  0.29183517  0.16573811  0.39686824  1
  O2-  O278  1  0.29612508  0.16299352  0.73169957  1
  O2-  O279  1  0.28796790  0.66625481  0.06926880  1
  O2-  O280  1  0.28662461  0.66744496  0.40239620  1
  O2-  O281  1  0.29238778  0.66983933  0.73721559  1
  O2-  O282  1  0.78706064  0.16851401  0.06658822  1
  O2-  O283  1  0.78917787  0.16582385  0.40470346  1
  O2-  O284  1  0.79252665  0.16019054  0.73136393  1
  O2-  O285  1  0.79714909  0.66098485  0.06650507  1
  O2-  O286  1  0.80529310  0.66665957  0.38948756  1
  O2-  O287  1  0.79281715  0.67261034  0.73434640  1
