# generated using pymatgen
data_Ca2Al2SiO7
_symmetry_space_group_name_H-M   'P 1'
_cell_length_a   15.46132491
_cell_length_b   15.46128631
_cell_length_c   15.28609753
_cell_angle_alpha   90.01222861
_cell_angle_beta   90.01065409
_cell_angle_gamma   90.00208253
_symmetry_Int_Tables_number   1
_chemical_formula_structural   Ca2Al2SiO7
_chemical_formula_sum   'Ca48 Al48 Si24 O168'
_cell_volume   3654.17159637
_cell_formula_units_Z   24
loop_
 _symmetry_equiv_pos_site_id
 _symmetry_equiv_pos_as_xyz
  1  'x, y, z'
loop_
 _atom_type_symbol
 _atom_type_oxidation_number
  Ca2+  2.0
  Al0+  0.0
  Si0+  0.0
  O2-  -2.0
loop_
 _atom_site_type_symbol
 _atom_site_label
 _atom_site_symmetry_multiplicity
 _atom_site_fract_x
 _atom_site_fract_y
 _atom_site_fract_z
 _atom_site_occupancy
  Ca2+  Ca0  1  0.16359517  0.07580245  0.16643717  1
  Ca2+  Ca1  1  0.16558669  0.07845941  0.51010107  1
  Ca2+  Ca2  1  0.14996464  0.07017764  0.83373949  1
  Ca2+  Ca3  1  0.16343617  0.57617685  0.17293783  1
  Ca2+  Ca4  1  0.16220840  0.57791566  0.50349004  1
  Ca2+  Ca5  1  0.15818733  0.57758356  0.83731417  1
  Ca2+  Ca6  1  0.66964471  0.07444443  0.17346134  1
  Ca2+  Ca7  1  0.66509920  0.07392083  0.50772885  1
  Ca2+  Ca8  1  0.66289822  0.07958847  0.83173445  1
  Ca2+  Ca9  1  0.67471704  0.58308310  0.17703605  1
  Ca2+  Ca10  1  0.67941099  0.57540955  0.50438054  1
  Ca2+  Ca11  1  0.67382396  0.58462071  0.83287770  1
  Ca2+  Ca12  1  0.08057950  0.34025800  0.15937004  1
  Ca2+  Ca13  1  0.09447015  0.33060718  0.49842072  1
  Ca2+  Ca14  1  0.08143458  0.33612658  0.82773791  1
  Ca2+  Ca15  1  0.07558165  0.82040039  0.15845962  1
  Ca2+  Ca16  1  0.07434119  0.82294761  0.49371888  1
  Ca2+  Ca17  1  0.07962579  0.82719677  0.82232231  1
  Ca2+  Ca18  1  0.56940872  0.34808172  0.16410389  1
  Ca2+  Ca19  1  0.58533019  0.33592393  0.49482646  1
  Ca2+  Ca20  1  0.57613393  0.33255586  0.82356272  1
  Ca2+  Ca21  1  0.58418805  0.82632921  0.16225079  1
  Ca2+  Ca22  1  0.58601043  0.83692655  0.49538536  1
  Ca2+  Ca23  1  0.58554286  0.82871346  0.82903825  1
  Ca2+  Ca24  1  0.32651234  0.41888025  0.17436569  1
  Ca2+  Ca25  1  0.32741892  0.42058719  0.49785044  1
  Ca2+  Ca26  1  0.32121215  0.41257432  0.83840333  1
  Ca2+  Ca27  1  0.32564837  0.91479172  0.16733509  1
  Ca2+  Ca28  1  0.32518037  0.91880539  0.50912418  1
  Ca2+  Ca29  1  0.31885626  0.91877409  0.83740923  1
  Ca2+  Ca30  1  0.83014885  0.42474908  0.17704813  1
  Ca2+  Ca31  1  0.83110414  0.43045239  0.50685072  1
  Ca2+  Ca32  1  0.83560995  0.42304995  0.83604585  1
  Ca2+  Ca33  1  0.83319983  0.91014661  0.17185102  1
  Ca2+  Ca34  1  0.82751220  0.90712409  0.50457789  1
  Ca2+  Ca35  1  0.83625105  0.91096642  0.83368349  1
  Ca2+  Ca36  1  0.41846497  0.18044742  0.16306598  1
  Ca2+  Ca37  1  0.42379779  0.17435294  0.49548002  1
  Ca2+  Ca38  1  0.41989220  0.17185830  0.82827874  1
  Ca2+  Ca39  1  0.42547952  0.65551938  0.16373079  1
  Ca2+  Ca40  1  0.41621087  0.66407881  0.49495116  1
  Ca2+  Ca41  1  0.42481022  0.66303099  0.83263177  1
  Ca2+  Ca42  1  0.91640692  0.17714193  0.16169952  1
  Ca2+  Ca43  1  0.92337340  0.16673408  0.50127101  1
  Ca2+  Ca44  1  0.92033343  0.17587923  0.82926287  1
  Ca2+  Ca45  1  0.92264950  0.67015653  0.16343076  1
  Ca2+  Ca46  1  0.91973659  0.66820768  0.49732292  1
  Ca2+  Ca47  1  0.92681391  0.67408753  0.82740175  1
  Al0+  Al48  1  -0.00307681  0.00087669  0.00568246  1
  Al0+  Al49  1  -0.00076698  0.00006815  0.32868413  1
  Al0+  Al50  1  -0.00243703  0.00187978  0.66219614  1
  Al0+  Al51  1  -0.00190575  0.50128371  -0.00243924  1
  Al0+  Al52  1  0.00063165  0.49786104  0.33851967  1
  Al0+  Al53  1  -0.00014656  0.50182089  0.67143312  1
  Al0+  Al54  1  0.49969602  -0.00016135  0.00263112  1
  Al0+  Al55  1  0.49994112  0.00076643  0.33412084  1
  Al0+  Al56  1  0.50005861  0.00186714  0.66808874  1
  Al0+  Al57  1  0.49916726  0.49848338  -0.01247622  1
  Al0+  Al58  1  0.49802059  0.49983431  0.33684836  1
  Al0+  Al59  1  0.49960164  0.50134584  0.66794633  1
  Al0+  Al60  1  0.25052327  0.24809994  -0.00011230  1
  Al0+  Al61  1  0.25334316  0.24811493  0.33097658  1
  Al0+  Al62  1  0.25172055  0.25201674  0.66577292  1
  Al0+  Al63  1  0.25248326  0.74896216  0.00295439  1
  Al0+  Al64  1  0.24999051  0.75022908  0.33195524  1
  Al0+  Al65  1  0.25111852  0.75049969  0.66776821  1
  Al0+  Al66  1  0.74962617  0.24865095  -0.00232635  1
  Al0+  Al67  1  0.75133085  0.24521745  0.33527675  1
  Al0+  Al68  1  0.74812564  0.24865643  0.66468042  1
  Al0+  Al69  1  0.75013327  0.74889944  -0.00648573  1
  Al0+  Al70  1  0.74920034  0.75089569  0.33750183  1
  Al0+  Al71  1  0.74892619  0.74954298  0.67173970  1
  Al0+  Al72  1  0.82234422  0.57148865  0.34795470  1
  Al0+  Al73  1  0.07095112  0.18134933  0.65419929  1
  Al0+  Al74  1  0.18130360  0.42960205  0.68128649  1
  Al0+  Al75  1  0.07362321  0.67796647  0.64997381  1
  Al0+  Al76  1  0.42802190  0.31955876  0.98407272  1
  Al0+  Al77  1  0.67984744  0.93068573  0.34576527  1
  Al0+  Al78  1  0.67831395  0.93027442  0.68237557  1
  Al0+  Al79  1  0.43190578  0.32082869  0.31941097  1
  Al0+  Al80  1  0.32093649  0.57300207  0.34714115  1
  Al0+  Al81  1  0.67757168  0.42711204  0.34546296  1
  Al0+  Al82  1  0.07242480  0.67585497  0.31735178  1
  Al0+  Al83  1  0.17829079  0.42962448  0.01299329  1
  Al0+  Al84  1  0.57079501  0.17916884  0.65192271  1
  Al0+  Al85  1  0.92981968  0.82234794  0.98405615  1
  Al0+  Al86  1  0.17899037  0.42702287  0.34779059  1
  Al0+  Al87  1  0.17714666  0.92781931  0.01486424  1
  Al0+  Al88  1  0.17760092  0.93034942  0.67785193  1
  Al0+  Al89  1  0.92746052  0.81984947  0.31705723  1
  Al0+  Al90  1  0.07370999  0.67903715  0.98473531  1
  Al0+  Al91  1  0.92793227  0.32200609  0.98795427  1
  Al0+  Al92  1  0.57052434  0.67918432  0.98625723  1
  Al0+  Al93  1  0.92797662  0.82118109  0.65038601  1
  Al0+  Al94  1  0.82142479  0.57143665  0.68573793  1
  Al0+  Al95  1  0.67840470  0.42737295  0.68288499  1
  Si0+  Si96  1  0.43027247  0.82165308  0.65263694  1
  Si0+  Si97  1  0.42765815  0.82489656  0.31867737  1
  Si0+  Si98  1  0.67799092  0.42733572  0.01269838  1
  Si0+  Si99  1  0.57297715  0.17589542  0.31544346  1
  Si0+  Si100  1  0.92758695  0.32302601  0.64979431  1
  Si0+  Si101  1  0.82219600  0.07261749  0.68468258  1
  Si0+  Si102  1  0.32398398  0.07074640  0.01884890  1
  Si0+  Si103  1  0.67934291  0.92807491  0.01491803  1
  Si0+  Si104  1  0.81965354  0.07295155  0.01660161  1
  Si0+  Si105  1  0.42865034  0.82479596  0.98332590  1
  Si0+  Si106  1  0.81829857  0.57066198  0.01567248  1
  Si0+  Si107  1  0.07117963  0.17838213  0.98571873  1
  Si0+  Si108  1  0.57163227  0.17586660  0.98379535  1
  Si0+  Si109  1  0.17821660  0.92992527  0.34770812  1
  Si0+  Si110  1  0.32525599  0.56992242  0.01513745  1
  Si0+  Si111  1  0.32064720  0.06978371  0.34847674  1
  Si0+  Si112  1  0.32129876  0.07231591  0.68303945  1
  Si0+  Si113  1  0.92889858  0.31925154  0.32084853  1
  Si0+  Si114  1  0.56833211  0.68103743  0.32171059  1
  Si0+  Si115  1  0.57039982  0.67931314  0.64948087  1
  Si0+  Si116  1  0.82472567  0.07204279  0.35167241  1
  Si0+  Si117  1  0.07319514  0.17856148  0.31707980  1
  Si0+  Si118  1  0.42865622  0.32371907  0.64711029  1
  Si0+  Si119  1  0.32272518  0.57436095  0.68543034  1
  O2-  O120  1  0.25371030  0.00235845  0.06164676  1
  O2-  O121  1  0.24964611  -0.00019338  0.39147465  1
  O2-  O122  1  0.24856201  0.00817860  0.72707183  1
  O2-  O123  1  0.25261223  0.50540060  0.05883644  1
  O2-  O124  1  0.24568222  0.50455990  0.39686976  1
  O2-  O125  1  0.25303583  0.50679585  0.72887501  1
  O2-  O126  1  0.75032456  -0.00108950  0.05715428  1
  O2-  O127  1  0.75602943  0.00271360  0.39375464  1
  O2-  O128  1  0.75431837  0.00318634  0.72959564  1
  O2-  O129  1  0.74797334  0.49795383  0.05732709  1
  O2-  O130  1  0.75241620  0.49544027  0.39516692  1
  O2-  O131  1  0.75139856  0.49623554  0.73552103  1
  O2-  O132  1  0.00367328  0.25202157  0.27698729  1
  O2-  O133  1  -0.00031946  0.25784443  0.60471806  1
  O2-  O134  1  0.00723065  0.25142588  0.94228399  1
  O2-  O135  1  -0.00065653  0.74758518  0.26805070  1
  O2-  O136  1  0.00067102  0.74977703  0.60130574  1
  O2-  O137  1  0.00834596  0.75747804  0.93536337  1
  O2-  O138  1  0.51174296  0.25102142  0.27121972  1
  O2-  O139  1  0.50122738  0.25803645  0.60436896  1
  O2-  O140  1  0.50387600  0.24485300  0.93957729  1
  O2-  O141  1  0.49622237  0.75077585  0.27765422  1
  O2-  O142  1  0.49999561  0.75112436  0.60755758  1
  O2-  O143  1  0.49569143  0.75455956  0.93964425  1
  O2-  O144  1  0.06879972  0.17756855  0.09186220  1
  O2-  O145  1  0.07331552  0.17629830  0.42207901  1
  O2-  O146  1  0.06740205  0.18038036  0.76725629  1
  O2-  O147  1  0.06973227  0.67670391  0.09825600  1
  O2-  O148  1  0.07410272  0.67973241  0.43038800  1
  O2-  O149  1  0.07511887  0.68091800  0.76355222  1
  O2-  O150  1  0.57091529  0.17306787  0.08937685  1
  O2-  O151  1  0.56817426  0.17128760  0.42050773  1
  O2-  O152  1  0.56499192  0.17670439  0.76527599  1
  O2-  O153  1  0.57106011  0.68001021  0.10010751  1
  O2-  O154  1  0.56686424  0.68361684  0.42659078  1
  O2-  O155  1  0.56796792  0.68012116  0.75484221  1
  O2-  O156  1  0.18081992  0.42463141  0.23395057  1
  O2-  O157  1  0.18600759  0.42594266  0.56865278  1
  O2-  O158  1  0.18012899  0.42854107  0.90005689  1
  O2-  O159  1  0.18060850  0.93303133  0.24242205  1
  O2-  O160  1  0.18234019  0.93252591  0.56454858  1
  O2-  O161  1  0.17817740  0.93209847  0.90178229  1
  O2-  O162  1  0.67774576  0.43214471  0.23091209  1
  O2-  O163  1  0.67950066  0.43032604  0.56932683  1
  O2-  O164  1  0.68021188  0.42703028  0.90808465  1
  O2-  O165  1  0.67753082  0.93188423  0.23206679  1
  O2-  O166  1  0.67584843  0.93252563  0.56939967  1
  O2-  O167  1  0.67692152  0.93058449  0.91022293  1
  O2-  O168  1  0.43013741  0.32035746  0.09739269  1
  O2-  O169  1  0.43025492  0.31633491  0.43201992  1
  O2-  O170  1  0.42755834  0.32069448  0.75291892  1
  O2-  O171  1  0.43181257  0.82808719  0.08917915  1
  O2-  O172  1  0.42930277  0.82900820  0.42371442  1
  O2-  O173  1  0.43165091  0.82134511  0.75774645  1
  O2-  O174  1  0.92525027  0.31955743  0.10151722  1
  O2-  O175  1  0.92680105  0.31552608  0.42541906  1
  O2-  O176  1  0.92775266  0.31942223  0.75574159  1
  O2-  O177  1  0.92643669  0.81855966  0.09752594  1
  O2-  O178  1  0.92843890  0.82225808  0.42996186  1
  O2-  O179  1  0.93123797  0.82188794  0.76394982  1
  O2-  O180  1  0.32065963  0.06889732  0.24326449  1
  O2-  O181  1  0.32242897  0.06920377  0.57701030  1
  O2-  O182  1  0.32964967  0.06909547  0.91378938  1
  O2-  O183  1  0.32655456  0.56864723  0.23369273  1
  O2-  O184  1  0.32525835  0.57426854  0.58004220  1
  O2-  O185  1  0.32867187  0.56776836  0.90976583  1
  O2-  O186  1  0.82316977  0.07531352  0.24574991  1
  O2-  O187  1  0.82177100  0.07347924  0.57914141  1
  O2-  O188  1  0.81911781  0.07664583  0.91211007  1
  O2-  O189  1  0.81930649  0.57116667  0.23342007  1
  O2-  O190  1  0.81891166  0.57125683  0.57211030  1
  O2-  O191  1  0.81679529  0.57042800  0.91113019  1
  O2-  O192  1  0.04239058  0.08861737  0.26711876  1
  O2-  O193  1  0.03821018  0.08703461  0.59644480  1
  O2-  O194  1  0.03774909  0.08702498  0.94041026  1
  O2-  O195  1  0.04514359  0.57514159  0.26805862  1
  O2-  O196  1  0.04467611  0.57819043  0.60060324  1
  O2-  O197  1  0.03805700  0.58352537  0.93129645  1
  O2-  O198  1  0.53879297  0.08560581  0.26628594  1
  O2-  O199  1  0.53467907  0.08393702  0.59729659  1
  O2-  O200  1  0.54446216  0.08226858  0.93775611  1
  O2-  O201  1  0.54111562  0.58929365  0.27384519  1
  O2-  O202  1  0.54126916  0.58777830  0.60242360  1
  O2-  O203  1  0.53953358  0.58553238  0.92707328  1
  O2-  O204  1  0.16584279  0.20191716  0.26939679  1
  O2-  O205  1  0.16932810  0.20807040  0.60024068  1
  O2-  O206  1  0.16690806  0.19443528  0.94160080  1
  O2-  O207  1  0.17145290  0.70560951  0.26457818  1
  O2-  O208  1  0.17347031  0.70619523  0.59927765  1
  O2-  O209  1  0.17660134  0.69826817  0.93735955  1
  O2-  O210  1  0.67029687  0.19085358  0.27307442  1
  O2-  O211  1  0.66891859  0.20205391  0.59729202  1
  O2-  O212  1  0.66522158  0.19943341  0.93780226  1
  O2-  O213  1  0.65906172  0.71059002  0.27341415  1
  O2-  O214  1  0.66203683  0.70781228  0.60419107  1
  O2-  O215  1  0.66418347  0.71201950  0.92912846  1
  O2-  O216  1  0.08013937  0.45918088  0.06554590  1
  O2-  O217  1  0.07947868  0.44597151  0.40126063  1
  O2-  O218  1  0.08306598  0.45504217  0.73381340  1
  O2-  O219  1  0.08230677  0.96221661  0.07098908  1
  O2-  O220  1  0.08654505  0.96038404  0.39262829  1
  O2-  O221  1  0.08085035  0.96262723  0.73043882  1
  O2-  O222  1  0.58450902  0.45728143  0.05533520  1
  O2-  O223  1  0.58138054  0.45730228  0.39989289  1
  O2-  O224  1  0.57954135  0.45831914  0.73427101  1
  O2-  O225  1  0.58744508  0.95561584  0.06346483  1
  O2-  O226  1  0.58312541  0.96288015  0.39987202  1
  O2-  O227  1  0.58232892  0.96388699  0.73717845  1
  O2-  O228  1  0.20709158  0.33069047  0.06454773  1
  O2-  O229  1  0.21382832  0.32884512  0.39883477  1
  O2-  O230  1  0.21405533  0.33301452  0.73579035  1
  O2-  O231  1  0.21052441  0.83215580  0.06999616  1
  O2-  O232  1  0.20592925  0.83827922  0.39371229  1
  O2-  O233  1  0.21354951  0.83616335  0.73288104  1
  O2-  O234  1  0.70267335  0.33437905  0.05952900  1
  O2-  O235  1  0.69985850  0.32524226  0.39349405  1
  O2-  O236  1  0.70005088  0.32577058  0.73221071  1
  O2-  O237  1  0.70729339  0.83545143  0.06050541  1
  O2-  O238  1  0.70558513  0.83443448  0.40152108  1
  O2-  O239  1  0.70482056  0.83326269  0.73643026  1
  O2-  O240  1  0.45990957  0.41849417  0.26514374  1
  O2-  O241  1  0.45160779  0.41900125  0.60379052  1
  O2-  O242  1  0.45820822  0.41321783  0.92541226  1
  O2-  O243  1  0.45892798  0.91468046  0.26844947  1
  O2-  O244  1  0.45769849  0.91355197  0.60509528  1
  O2-  O245  1  0.45634071  0.91742281  0.93634148  1
  O2-  O246  1  0.95254052  0.41200503  0.27393916  1
  O2-  O247  1  0.95017474  0.41805486  0.60764364  1
  O2-  O248  1  0.95512043  0.41784727  0.93263166  1
  O2-  O249  1  0.95522582  0.91960749  0.26424455  1
  O2-  O250  1  0.95200580  0.92087931  0.59825169  1
  O2-  O251  1  0.94904745  0.92551269  0.93749778  1
  O2-  O252  1  0.33786311  0.28326528  0.26342424  1
  O2-  O253  1  0.33736959  0.29323727  0.59994638  1
  O2-  O254  1  0.33233725  0.28546356  0.93003151  1
  O2-  O255  1  0.33544167  0.80133776  0.27067992  1
  O2-  O256  1  0.33885389  0.79495443  0.60398432  1
  O2-  O257  1  0.33427832  0.80139026  0.93894969  1
  O2-  O258  1  0.83844713  0.28759039  0.27103671  1
  O2-  O259  1  0.83547367  0.29348241  0.60346146  1
  O2-  O260  1  0.83353512  0.28643486  0.93215104  1
  O2-  O261  1  0.82702681  0.79290238  0.26622980  1
  O2-  O262  1  0.82752555  0.79175120  0.60203783  1
  O2-  O263  1  0.83297020  0.79072534  0.93058164  1
  O2-  O264  1  0.41637229  0.04370017  0.06838717  1
  O2-  O265  1  0.41189991  0.04138299  0.39642969  1
  O2-  O266  1  0.41196942  0.04130081  0.73151292  1
  O2-  O267  1  0.41833163  0.53814940  0.06032864  1
  O2-  O268  1  0.41666793  0.54120204  0.40399447  1
  O2-  O269  1  0.41616413  0.54748537  0.73148489  1
  O2-  O270  1  0.91056464  0.04879543  0.06773181  1
  O2-  O271  1  0.91938372  0.04774107  0.39599693  1
  O2-  O272  1  0.91566671  0.04821378  0.73127400  1
  O2-  O273  1  0.90979198  0.54255536  0.06264833  1
  O2-  O274  1  0.91912804  0.54309128  0.40243030  1
  O2-  O275  1  0.91960694  0.54495423  0.73947299  1
  O2-  O276  1  0.29698131  0.16376272  0.06544584  1
  O2-  O277  1  0.29342493  0.16082241  0.39668545  1
  O2-  O278  1  0.30107298  0.16745603  0.72684162  1
  O2-  O279  1  0.31011817  0.66637354  0.05978464  1
  O2-  O280  1  0.30162168  0.67480983  0.39807822  1
  O2-  O281  1  0.30177858  0.66883349  0.73179917  1
  O2-  O282  1  0.78811657  0.16308287  0.06705382  1
  O2-  O283  1  0.79998616  0.16428544  0.40057790  1
  O2-  O284  1  0.79484988  0.16559781  0.73116651  1
  O2-  O285  1  0.78668297  0.66212590  0.06193878  1
  O2-  O286  1  0.78865535  0.66710853  0.40171807  1
  O2-  O287  1  0.78698611  0.66720615  0.73984958  1
