# generated using pymatgen
data_Ca2Al2SiO7
_symmetry_space_group_name_H-M   'P 1'
_cell_length_a   15.45964988
_cell_length_b   15.45863907
_cell_length_c   15.28431384
_cell_angle_alpha   90.00828182
_cell_angle_beta   90.00182455
_cell_angle_gamma   90.01336692
_symmetry_Int_Tables_number   1
_chemical_formula_structural   Ca2Al2SiO7
_chemical_formula_sum   'Ca48 Al48 Si24 O168'
_cell_volume   3652.72386113
_cell_formula_units_Z   24
loop_
 _symmetry_equiv_pos_site_id
 _symmetry_equiv_pos_as_xyz
  1  'x, y, z'
loop_
 _atom_type_symbol
 _atom_type_oxidation_number
  Ca2+  2.0
  Al0+  0.0
  Si0+  0.0
  O2-  -2.0
loop_
 _atom_site_type_symbol
 _atom_site_label
 _atom_site_symmetry_multiplicity
 _atom_site_fract_x
 _atom_site_fract_y
 _atom_site_fract_z
 _atom_site_occupancy
  Ca2+  Ca0  1  0.17547126  0.07987956  0.16947461  1
  Ca2+  Ca1  1  0.16870545  0.06998755  0.50589039  1
  Ca2+  Ca2  1  0.17314189  0.08095131  0.83624158  1
  Ca2+  Ca3  1  0.17174960  0.57879866  0.16300313  1
  Ca2+  Ca4  1  0.17554796  0.58579933  0.51062697  1
  Ca2+  Ca5  1  0.17691148  0.58079141  0.83548220  1
  Ca2+  Ca6  1  0.65756716  0.07333051  0.16560504  1
  Ca2+  Ca7  1  0.66376478  0.07475130  0.50966849  1
  Ca2+  Ca8  1  0.65899900  0.07800236  0.83588631  1
  Ca2+  Ca9  1  0.67026781  0.57711533  0.16874075  1
  Ca2+  Ca10  1  0.67696780  0.58205322  0.51177832  1
  Ca2+  Ca11  1  0.65882274  0.56881539  0.83221157  1
  Ca2+  Ca12  1  0.08298515  0.33553743  0.15963890  1
  Ca2+  Ca13  1  0.07439595  0.33515404  0.50065160  1
  Ca2+  Ca14  1  0.07846791  0.33801725  0.82790599  1
  Ca2+  Ca15  1  0.07574577  0.83602815  0.16062117  1
  Ca2+  Ca16  1  0.08766447  0.83027383  0.49877978  1
  Ca2+  Ca17  1  0.07780911  0.83074019  0.82461349  1
  Ca2+  Ca18  1  0.57426204  0.32867259  0.15482758  1
  Ca2+  Ca19  1  0.57745670  0.33443488  0.50206609  1
  Ca2+  Ca20  1  0.58107910  0.32814391  0.82304281  1
  Ca2+  Ca21  1  0.58408457  0.83594509  0.16324463  1
  Ca2+  Ca22  1  0.58719963  0.83100269  0.49712238  1
  Ca2+  Ca23  1  0.58600685  0.82873057  0.82680574  1
  Ca2+  Ca24  1  0.33617908  0.41541471  0.16463174  1
  Ca2+  Ca25  1  0.33929610  0.41926515  0.50791246  1
  Ca2+  Ca26  1  0.33900983  0.42421420  0.84057985  1
  Ca2+  Ca27  1  0.33518164  0.92461616  0.17378783  1
  Ca2+  Ca28  1  0.32449913  0.90508314  0.50340134  1
  Ca2+  Ca29  1  0.32846704  0.92219537  0.83715264  1
  Ca2+  Ca30  1  0.82478027  0.42090374  0.17045500  1
  Ca2+  Ca31  1  0.82921289  0.42467415  0.51178244  1
  Ca2+  Ca32  1  0.82336013  0.41555274  0.83145369  1
  Ca2+  Ca33  1  0.82207653  0.91133410  0.16859896  1
  Ca2+  Ca34  1  0.82125577  0.92378657  0.50908175  1
  Ca2+  Ca35  1  0.82291328  0.91764068  0.83482460  1
  Ca2+  Ca36  1  0.41914502  0.17459600  0.15556200  1
  Ca2+  Ca37  1  0.42074225  0.17705503  0.49869275  1
  Ca2+  Ca38  1  0.42412742  0.17571588  0.83020546  1
  Ca2+  Ca39  1  0.41276081  0.67493493  0.16399537  1
  Ca2+  Ca40  1  0.42538613  0.66794438  0.50098941  1
  Ca2+  Ca41  1  0.41932857  0.66201733  0.82466742  1
  Ca2+  Ca42  1  0.92233384  0.16478970  0.16177723  1
  Ca2+  Ca43  1  0.90762792  0.17015306  0.50572064  1
  Ca2+  Ca44  1  0.91492771  0.17102870  0.82311903  1
  Ca2+  Ca45  1  0.91463289  0.67138745  0.16020182  1
  Ca2+  Ca46  1  0.92113609  0.65793597  0.49860246  1
  Ca2+  Ca47  1  0.92159195  0.66855418  0.82497686  1
  Al0+  Al48  1  -0.00201333  0.00018004  -0.00611774  1
  Al0+  Al49  1  0.00089903  -0.00034257  0.33603349  1
  Al0+  Al50  1  -0.00053855  -0.00104003  0.67275996  1
  Al0+  Al51  1  0.00190909  0.50133230  0.00300631  1
  Al0+  Al52  1  0.00178965  0.49971025  0.33337893  1
  Al0+  Al53  1  0.00146305  0.50065288  0.66110478  1
  Al0+  Al54  1  0.49890591  -0.00029320  0.00434385  1
  Al0+  Al55  1  0.49917335  0.00069957  0.33580953  1
  Al0+  Al56  1  0.49630879  0.00109078  0.66599083  1
  Al0+  Al57  1  0.50042356  0.50266281  0.00910838  1
  Al0+  Al58  1  0.50026814  0.49987166  0.32778397  1
  Al0+  Al59  1  0.50093091  0.50312284  0.66404898  1
  Al0+  Al60  1  0.24928020  0.24973583  0.00300531  1
  Al0+  Al61  1  0.24899381  0.24980428  0.33082300  1
  Al0+  Al62  1  0.24800124  0.24888349  0.66088271  1
  Al0+  Al63  1  0.24808906  0.74890558  0.00342953  1
  Al0+  Al64  1  0.25061445  0.74809529  0.33035481  1
  Al0+  Al65  1  0.24786486  0.74862001  0.67254249  1
  Al0+  Al66  1  0.75105469  0.24840968  0.00327646  1
  Al0+  Al67  1  0.75019142  0.24994440  0.33033120  1
  Al0+  Al68  1  0.75029368  0.24983641  0.66250588  1
  Al0+  Al69  1  0.74994009  0.75187333  -0.00148249  1
  Al0+  Al70  1  0.75211919  0.74927630  0.34035289  1
  Al0+  Al71  1  0.75189015  0.75172222  0.66905710  1
  Al0+  Al72  1  0.07049894  0.68068217  0.65257006  1
  Al0+  Al73  1  0.57298994  0.68117216  0.65458540  1
  Al0+  Al74  1  0.32122981  0.56870967  0.67788254  1
  Al0+  Al75  1  0.67901125  0.43039888  0.67916014  1
  Al0+  Al76  1  0.42931726  0.81972525  0.32053049  1
  Al0+  Al77  1  0.18009639  0.92805084  0.68175633  1
  Al0+  Al78  1  0.42875420  0.32294181  0.98428240  1
  Al0+  Al79  1  0.42891741  0.32128828  0.31652777  1
  Al0+  Al80  1  0.67938127  0.42655337  0.01420295  1
  Al0+  Al81  1  0.92949973  0.32046836  0.65361944  1
  Al0+  Al82  1  0.67510816  0.92928457  0.68278538  1
  Al0+  Al83  1  0.81940611  0.07170293  0.68201694  1
  Al0+  Al84  1  0.17869467  0.42907682  0.01425474  1
  Al0+  Al85  1  0.57138202  0.17716221  0.65022689  1
  Al0+  Al86  1  0.82147144  0.56902141  0.34672037  1
  Al0+  Al87  1  0.31986464  0.06925655  0.01317027  1
  Al0+  Al88  1  0.67829899  0.93065855  0.34773286  1
  Al0+  Al89  1  0.57150075  0.17774175  0.98487176  1
  Al0+  Al90  1  0.17986686  0.92824766  0.34580625  1
  Al0+  Al91  1  0.92779805  0.82097935  0.98487440  1
  Al0+  Al92  1  0.32339938  0.57295867  0.01781412  1
  Al0+  Al93  1  0.42840310  0.32316618  0.65259752  1
  Al0+  Al94  1  0.82517457  0.57185658  0.68276880  1
  Al0+  Al95  1  0.68014221  0.92899902  0.01444704  1
  Si0+  Si96  1  0.67727228  0.42724518  0.34968428  1
  Si0+  Si97  1  0.57285284  0.17757315  0.31537142  1
  Si0+  Si98  1  0.42675462  0.82130269  0.98655894  1
  Si0+  Si99  1  0.07204624  0.17498414  0.64858252  1
  Si0+  Si100  1  0.07205784  0.67769800  0.31579731  1
  Si0+  Si101  1  0.07093322  0.17894909  0.98474972  1
  Si0+  Si102  1  0.57510576  0.67984261  0.31589676  1
  Si0+  Si103  1  0.42634513  0.82167636  0.65349452  1
  Si0+  Si104  1  0.93003814  0.82070589  0.32001230  1
  Si0+  Si105  1  0.57053631  0.68068718  0.98698596  1
  Si0+  Si106  1  0.06956901  0.17805077  0.31791817  1
  Si0+  Si107  1  0.82397075  0.07313706  0.34907853  1
  Si0+  Si108  1  0.07178461  0.67785594  0.98238178  1
  Si0+  Si109  1  0.17565911  0.92843126  0.01610716  1
  Si0+  Si110  1  0.17923209  0.42765122  0.34979478  1
  Si0+  Si111  1  0.17811365  0.42612472  0.67948936  1
  Si0+  Si112  1  0.32032174  0.07535046  0.68301470  1
  Si0+  Si113  1  0.92997912  0.32216821  0.31655482  1
  Si0+  Si114  1  0.82180298  0.57141858  0.01481570  1
  Si0+  Si115  1  0.92950426  0.32225020  0.98684680  1
  Si0+  Si116  1  0.32105177  0.07335687  0.35170709  1
  Si0+  Si117  1  0.82441818  0.07223936  0.01778607  1
  Si0+  Si118  1  0.92885297  0.82352404  0.64740381  1
  Si0+  Si119  1  0.32075887  0.56990183  0.34889809  1
  O2-  O120  1  0.24645269  -0.00656534  0.06184847  1
  O2-  O121  1  0.25661367  -0.00026872  0.39467417  1
  O2-  O122  1  0.25306482  0.00461951  0.72657724  1
  O2-  O123  1  0.25328375  0.49750583  0.06622833  1
  O2-  O124  1  0.25347865  0.49517740  0.39100263  1
  O2-  O125  1  0.25176573  0.48876055  0.72341619  1
  O2-  O126  1  0.75431652  0.00463109  0.06156375  1
  O2-  O127  1  0.75105957  0.00845938  0.39128213  1
  O2-  O128  1  0.74477626  0.00358418  0.73304791  1
  O2-  O129  1  0.75534873  0.50123556  0.06019826  1
  O2-  O130  1  0.74673761  0.49509553  0.39315760  1
  O2-  O131  1  0.75063831  0.50225095  0.73137723  1
  O2-  O132  1  -0.00120151  0.24902893  0.27404638  1
  O2-  O133  1  0.00288824  0.24396000  0.60539881  1
  O2-  O134  1  0.00032176  0.25109752  0.94456141  1
  O2-  O135  1  0.00017156  0.74911397  0.27572538  1
  O2-  O136  1  -0.00496970  0.75269207  0.60193701  1
  O2-  O137  1  0.00427560  0.74785196  0.93935726  1
  O2-  O138  1  0.50523129  0.24748277  0.27157025  1
  O2-  O139  1  0.49986841  0.25087813  0.60160133  1
  O2-  O140  1  0.50471844  0.25482790  0.93528517  1
  O2-  O141  1  0.50702468  0.74919779  0.27112249  1
  O2-  O142  1  0.50131654  0.76000075  0.60899630  1
  O2-  O143  1  0.49476927  0.74744620  0.94548009  1
  O2-  O144  1  0.06832110  0.17635637  0.09052126  1
  O2-  O145  1  0.06948205  0.17835572  0.42242997  1
  O2-  O146  1  0.07435750  0.17638591  0.75426540  1
  O2-  O147  1  0.07027594  0.67769723  0.08871399  1
  O2-  O148  1  0.07373008  0.67674538  0.42057088  1
  O2-  O149  1  0.07128075  0.68288967  0.76543836  1
  O2-  O150  1  0.56808911  0.17725875  0.09909064  1
  O2-  O151  1  0.57332264  0.17809952  0.42054226  1
  O2-  O152  1  0.56889105  0.17670444  0.76359505  1
  O2-  O153  1  0.57360462  0.68371023  0.09250436  1
  O2-  O154  1  0.57428110  0.67947252  0.42123490  1
  O2-  O155  1  0.56841583  0.67867239  0.76792050  1
  O2-  O156  1  0.17579563  0.42933562  0.24485465  1
  O2-  O157  1  0.17742356  0.42867634  0.57326076  1
  O2-  O158  1  0.17304363  0.43215023  0.90127795  1
  O2-  O159  1  0.17736041  0.93256260  0.23275725  1
  O2-  O160  1  0.18239560  0.92734510  0.56808588  1
  O2-  O161  1  0.17668780  0.92996579  0.91075997  1
  O2-  O162  1  0.68027613  0.42787548  0.24366366  1
  O2-  O163  1  0.67990551  0.43293634  0.56519823  1
  O2-  O164  1  0.67979631  0.42657010  0.90176776  1
  O2-  O165  1  0.68087634  0.92931985  0.23428716  1
  O2-  O166  1  0.67789584  0.92913076  0.56881071  1
  O2-  O167  1  0.67993636  0.92647658  0.90244039  1
  O2-  O168  1  0.42952663  0.31830681  0.09840737  1
  O2-  O169  1  0.42798876  0.32130890  0.42931621  1
  O2-  O170  1  0.42700118  0.32261351  0.76562149  1
  O2-  O171  1  0.42792934  0.82151958  0.09207155  1
  O2-  O172  1  0.42592076  0.81385243  0.43319906  1
  O2-  O173  1  0.42443454  0.81935257  0.75938277  1
  O2-  O174  1  0.93151545  0.32091664  0.09274073  1
  O2-  O175  1  0.93153477  0.32308741  0.42109339  1
  O2-  O176  1  0.93328762  0.32098839  0.76705171  1
  O2-  O177  1  0.92901643  0.81895424  0.09933444  1
  O2-  O178  1  0.93214801  0.82133803  0.42440161  1
  O2-  O179  1  0.93209740  0.82362921  0.75302920  1
  O2-  O180  1  0.31784319  0.07370673  0.24584537  1
  O2-  O181  1  0.31754315  0.07715625  0.57727086  1
  O2-  O182  1  0.31668050  0.06701262  0.90033579  1
  O2-  O183  1  0.31751381  0.57171934  0.24403740  1
  O2-  O184  1  0.31944064  0.57062811  0.56408495  1
  O2-  O185  1  0.32122529  0.57588226  0.90457974  1
  O2-  O186  1  0.82892468  0.07154426  0.24343807  1
  O2-  O187  1  0.82050025  0.06777860  0.56774981  1
  O2-  O188  1  0.82814805  0.07244449  0.91316614  1
  O2-  O189  1  0.82100446  0.56808859  0.23298463  1
  O2-  O190  1  0.82476132  0.56767471  0.56871450  1
  O2-  O191  1  0.82334836  0.57013597  0.91011398  1
  O2-  O192  1  0.04072535  0.08667758  0.26903243  1
  O2-  O193  1  0.04470496  0.08123024  0.60352506  1
  O2-  O194  1  0.04317843  0.08840839  0.93516705  1
  O2-  O195  1  0.04315660  0.58592906  0.26798625  1
  O2-  O196  1  0.04383490  0.58437184  0.59524423  1
  O2-  O197  1  0.04501266  0.58453593  0.93700098  1
  O2-  O198  1  0.54536064  0.08379949  0.27054232  1
  O2-  O199  1  0.53904666  0.07947769  0.59611614  1
  O2-  O200  1  0.53766486  0.07973638  0.93435022  1
  O2-  O201  1  0.54882930  0.58641699  0.26937147  1
  O2-  O202  1  0.53884082  0.58814721  0.59581859  1
  O2-  O203  1  0.54530627  0.58728892  0.94261586  1
  O2-  O204  1  0.16070608  0.20619404  0.26899923  1
  O2-  O205  1  0.16389638  0.19986105  0.59840992  1
  O2-  O206  1  0.16220567  0.20616047  0.93745327  1
  O2-  O207  1  0.16240925  0.70631233  0.26644106  1
  O2-  O208  1  0.16675407  0.71481374  0.59823882  1
  O2-  O209  1  0.16622229  0.70256686  0.93800632  1
  O2-  O210  1  0.66803150  0.19949011  0.26905122  1
  O2-  O211  1  0.66975659  0.20300014  0.59639068  1
  O2-  O212  1  0.67419662  0.19852626  0.93808523  1
  O2-  O213  1  0.66946210  0.70572755  0.27084964  1
  O2-  O214  1  0.67071525  0.70883679  0.60043562  1
  O2-  O215  1  0.66009977  0.71174078  0.93849074  1
  O2-  O216  1  0.08203600  0.46158125  0.07239522  1
  O2-  O217  1  0.08847420  0.45856130  0.39730452  1
  O2-  O218  1  0.08713662  0.45757546  0.72590645  1
  O2-  O219  1  0.08238689  0.95834437  0.06084343  1
  O2-  O220  1  0.08453692  0.96089100  0.40136693  1
  O2-  O221  1  0.08412708  0.95778758  0.73608400  1
  O2-  O222  1  0.58607059  0.46074630  0.07211131  1
  O2-  O223  1  0.58279777  0.45344809  0.39255072  1
  O2-  O224  1  0.58208093  0.46171945  0.73253803  1
  O2-  O225  1  0.58356947  0.95842038  0.06970395  1
  O2-  O226  1  0.58065900  0.95727231  0.40145599  1
  O2-  O227  1  0.57407019  0.95278806  0.73267942  1
  O2-  O228  1  0.20108427  0.32969307  0.06845141  1
  O2-  O229  1  0.20174670  0.33375259  0.39506222  1
  O2-  O230  1  0.19430769  0.32949354  0.72227202  1
  O2-  O231  1  0.19557693  0.83333954  0.06092179  1
  O2-  O232  1  0.20932941  0.82994827  0.39757241  1
  O2-  O233  1  0.21199400  0.83414420  0.73894535  1
  O2-  O234  1  0.71165967  0.33136572  0.07115117  1
  O2-  O235  1  0.70242531  0.33242380  0.39280580  1
  O2-  O236  1  0.70811164  0.33187158  0.72951231  1
  O2-  O237  1  0.71402606  0.83338310  0.07027521  1
  O2-  O238  1  0.71164220  0.83512788  0.40153129  1
  O2-  O239  1  0.70683591  0.83201533  0.73548784  1
  O2-  O240  1  0.45708798  0.41889700  0.26220073  1
  O2-  O241  1  0.45855058  0.42039099  0.59769274  1
  O2-  O242  1  0.45265695  0.42611769  0.94077494  1
  O2-  O243  1  0.45488286  0.91937001  0.26928055  1
  O2-  O244  1  0.44103674  0.91745118  0.60812010  1
  O2-  O245  1  0.45631828  0.91192277  0.93930738  1
  O2-  O246  1  0.96204434  0.41238201  0.26772916  1
  O2-  O247  1  0.96439878  0.41412155  0.59538784  1
  O2-  O248  1  0.95817898  0.41428954  0.94126871  1
  O2-  O249  1  0.95883210  0.91237658  0.27177939  1
  O2-  O250  1  0.95842384  0.91649677  0.60204102  1
  O2-  O251  1  0.95714862  0.91724719  0.92996129  1
  O2-  O252  1  0.33056676  0.29059195  0.26475971  1
  O2-  O253  1  0.32919933  0.29519807  0.59820469  1
  O2-  O254  1  0.32904520  0.29301432  0.93523025  1
  O2-  O255  1  0.33422055  0.78628250  0.26338890  1
  O2-  O256  1  0.33551674  0.78736749  0.60683678  1
  O2-  O257  1  0.33265901  0.79738071  0.94168446  1
  O2-  O258  1  0.83712330  0.29701867  0.26898001  1
  O2-  O259  1  0.83484450  0.29153356  0.59483580  1
  O2-  O260  1  0.83782896  0.29449413  0.94076224  1
  O2-  O261  1  0.83817320  0.79122167  0.27288601  1
  O2-  O262  1  0.83402288  0.80168322  0.60317528  1
  O2-  O263  1  0.83237393  0.78910573  0.93036914  1
  O2-  O264  1  0.41398225  0.03744833  0.07119102  1
  O2-  O265  1  0.41583379  0.05312480  0.39577158  1
  O2-  O266  1  0.41333008  0.05066016  0.72898625  1
  O2-  O267  1  0.42110726  0.55123780  0.07484632  1
  O2-  O268  1  0.41541152  0.54583127  0.39221220  1
  O2-  O269  1  0.41801266  0.54317721  0.73211062  1
  O2-  O270  1  0.91788583  0.04385061  0.06452871  1
  O2-  O271  1  0.91553450  0.04480542  0.39737423  1
  O2-  O272  1  0.91760370  0.04343853  0.73571718  1
  O2-  O273  1  0.91556032  0.54839835  0.06271104  1
  O2-  O274  1  0.91908008  0.53773786  0.39873226  1
  O2-  O275  1  0.92359012  0.54055476  0.73343236  1
  O2-  O276  1  0.28609559  0.16380027  0.06937383  1
  O2-  O277  1  0.28823545  0.16488536  0.39766674  1
  O2-  O278  1  0.29039626  0.16739370  0.72993597  1
  O2-  O279  1  0.28882954  0.67001052  0.07304922  1
  O2-  O280  1  0.28805054  0.65991433  0.39601848  1
  O2-  O281  1  0.28547596  0.66166768  0.73490877  1
  O2-  O282  1  0.80309376  0.16586503  0.06621414  1
  O2-  O283  1  0.80228911  0.16929141  0.39194980  1
  O2-  O284  1  0.79909911  0.17292060  0.73098099  1
  O2-  O285  1  0.79241564  0.66405620  0.06135819  1
  O2-  O286  1  0.79513809  0.66537944  0.40231130  1
  O2-  O287  1  0.80321391  0.67252262  0.73142397  1
