# generated using pymatgen
data_Ca2Al2SiO7
_symmetry_space_group_name_H-M   'P 1'
_cell_length_a   15.46371148
_cell_length_b   15.46361008
_cell_length_c   15.28751145
_cell_angle_alpha   90.00839258
_cell_angle_beta   89.99568322
_cell_angle_gamma   90.01348474
_symmetry_Int_Tables_number   1
_chemical_formula_structural   Ca2Al2SiO7
_chemical_formula_sum   'Ca48 Al48 Si24 O168'
_cell_volume   3655.62303907
_cell_formula_units_Z   24
loop_
 _symmetry_equiv_pos_site_id
 _symmetry_equiv_pos_as_xyz
  1  'x, y, z'
loop_
 _atom_type_symbol
 _atom_type_oxidation_number
  Ca2+  2.0
  Al0+  0.0
  Si0+  0.0
  O2-  -2.0
loop_
 _atom_site_type_symbol
 _atom_site_label
 _atom_site_symmetry_multiplicity
 _atom_site_fract_x
 _atom_site_fract_y
 _atom_site_fract_z
 _atom_site_occupancy
  Ca2+  Ca0  1  0.17326582  0.08164748  0.16704641  1
  Ca2+  Ca1  1  0.16392327  0.07419680  0.50496733  1
  Ca2+  Ca2  1  0.17040537  0.07394713  0.83581896  1
  Ca2+  Ca3  1  0.16856538  0.57795282  0.17754501  1
  Ca2+  Ca4  1  0.15810868  0.57836669  0.50338839  1
  Ca2+  Ca5  1  0.15545428  0.57219286  0.83450459  1
  Ca2+  Ca6  1  0.67755681  0.07421711  0.17520728  1
  Ca2+  Ca7  1  0.67418270  0.07062110  0.49991651  1
  Ca2+  Ca8  1  0.67264101  0.07553072  0.83749283  1
  Ca2+  Ca9  1  0.67544627  0.58323053  0.17630683  1
  Ca2+  Ca10  1  0.67775656  0.59444069  0.50112922  1
  Ca2+  Ca11  1  0.67725043  0.59314939  0.83119610  1
  Ca2+  Ca12  1  0.08060805  0.34111868  0.16885556  1
  Ca2+  Ca13  1  0.08182743  0.33537521  0.49353412  1
  Ca2+  Ca14  1  0.08933967  0.33334028  0.82915995  1
  Ca2+  Ca15  1  0.07270480  0.82519064  0.16430866  1
  Ca2+  Ca16  1  0.07448607  0.82569115  0.49341890  1
  Ca2+  Ca17  1  0.07192990  0.82863271  0.82204936  1
  Ca2+  Ca18  1  0.58783256  0.33454144  0.16559618  1
  Ca2+  Ca19  1  0.57920906  0.33963206  0.49260683  1
  Ca2+  Ca20  1  0.57474795  0.32939887  0.82306020  1
  Ca2+  Ca21  1  0.58425184  0.82959090  0.16731395  1
  Ca2+  Ca22  1  0.59057818  0.82584062  0.49665315  1
  Ca2+  Ca23  1  0.57953391  0.83205974  0.82696052  1
  Ca2+  Ca24  1  0.32167085  0.42409060  0.17491450  1
  Ca2+  Ca25  1  0.32545108  0.42382567  0.50254860  1
  Ca2+  Ca26  1  0.32481658  0.41547700  0.83470166  1
  Ca2+  Ca27  1  0.34106629  0.92017689  0.16798155  1
  Ca2+  Ca28  1  0.32394236  0.91519779  0.50597857  1
  Ca2+  Ca29  1  0.32776935  0.91467200  0.83966579  1
  Ca2+  Ca30  1  0.83163463  0.42883733  0.17758328  1
  Ca2+  Ca31  1  0.83682163  0.43035770  0.49859029  1
  Ca2+  Ca32  1  0.83622762  0.43447644  0.83778991  1
  Ca2+  Ca33  1  0.83900737  0.92263974  0.17438746  1
  Ca2+  Ca34  1  0.82786593  0.90567851  0.50222017  1
  Ca2+  Ca35  1  0.83039169  0.91097431  0.83688222  1
  Ca2+  Ca36  1  0.41850225  0.16639258  0.15955030  1
  Ca2+  Ca37  1  0.41554586  0.17552992  0.49817975  1
  Ca2+  Ca38  1  0.41195413  0.17077662  0.82818672  1
  Ca2+  Ca39  1  0.42283357  0.66556052  0.16649518  1
  Ca2+  Ca40  1  0.42873332  0.65924175  0.49270820  1
  Ca2+  Ca41  1  0.42502393  0.66976924  0.82812219  1
  Ca2+  Ca42  1  0.90671920  0.17223913  0.16588557  1
  Ca2+  Ca43  1  0.91264942  0.17467322  0.48960310  1
  Ca2+  Ca44  1  0.91441849  0.16893594  0.83222754  1
  Ca2+  Ca45  1  0.91002818  0.67321079  0.16577140  1
  Ca2+  Ca46  1  0.92112666  0.67054371  0.49490976  1
  Ca2+  Ca47  1  0.91583199  0.67311949  0.82594140  1
  Al0+  Al48  1  0.00026346  0.00081197  -0.00063257  1
  Al0+  Al49  1  0.00355750  0.00255812  0.33202110  1
  Al0+  Al50  1  0.00074523  0.00175956  0.66801591  1
  Al0+  Al51  1  -0.00240705  0.49886348  0.00856393  1
  Al0+  Al52  1  -0.00011244  0.49752345  0.33256725  1
  Al0+  Al53  1  -0.00052812  0.49941230  0.67332381  1
  Al0+  Al54  1  0.49950714  -0.00048455  -0.00162859  1
  Al0+  Al55  1  0.50189556  0.00258617  0.33840549  1
  Al0+  Al56  1  0.50209420  0.00208046  0.66923235  1
  Al0+  Al57  1  0.49855794  0.49798128  -0.00331765  1
  Al0+  Al58  1  0.49726761  0.50014516  0.33117948  1
  Al0+  Al59  1  0.49919530  0.49904214  0.65972815  1
  Al0+  Al60  1  0.24892561  0.24820183  0.00756474  1
  Al0+  Al61  1  0.25075476  0.25098996  0.33479723  1
  Al0+  Al62  1  0.25020240  0.25158282  0.66407900  1
  Al0+  Al63  1  0.24990113  0.74690560  -0.00463066  1
  Al0+  Al64  1  0.25180444  0.75177397  0.33207613  1
  Al0+  Al65  1  0.25011129  0.74854792  0.66993963  1
  Al0+  Al66  1  0.74953915  0.24832010  -0.00169189  1
  Al0+  Al67  1  0.74902745  0.24867939  0.33505646  1
  Al0+  Al68  1  0.74881178  0.24977076  0.66611487  1
  Al0+  Al69  1  0.74957025  0.74944599  0.00023951  1
  Al0+  Al70  1  0.74853363  0.75083220  0.33004415  1
  Al0+  Al71  1  0.74857116  0.75197682  0.67013939  1
  Al0+  Al72  1  0.81799556  0.57156599  0.01512194  1
  Al0+  Al73  1  0.42862532  0.31947419  0.65120611  1
  Al0+  Al74  1  0.92887560  0.82152675  0.31781718  1
  Al0+  Al75  1  0.56994507  0.67882736  0.31868300  1
  Al0+  Al76  1  0.17892592  0.43021016  0.35046290  1
  Al0+  Al77  1  0.32045506  0.06788793  0.01259445  1
  Al0+  Al78  1  0.81939249  0.57015781  0.68071454  1
  Al0+  Al79  1  0.82185622  0.07104913  0.01360825  1
  Al0+  Al80  1  0.07131678  0.67634956  0.65347353  1
  Al0+  Al81  1  0.92841769  0.31882381  0.31981691  1
  Al0+  Al82  1  0.82450643  0.07057440  0.34835028  1
  Al0+  Al83  1  0.82050829  0.57224283  0.34889084  1
  Al0+  Al84  1  0.56938381  0.68150099  0.65303834  1
  Al0+  Al85  1  0.68049507  0.93001254  0.68273594  1
  Al0+  Al86  1  0.18042637  0.43035991  0.68131232  1
  Al0+  Al87  1  0.32061013  0.57447178  0.34829450  1
  Al0+  Al88  1  0.42895601  0.82110417  0.98639507  1
  Al0+  Al89  1  0.92904903  0.82248886  0.65187334  1
  Al0+  Al90  1  0.67961058  0.92913923  0.34829392  1
  Al0+  Al91  1  0.18004881  0.42920315  0.01533375  1
  Al0+  Al92  1  0.17832563  0.92658742  0.68007834  1
  Al0+  Al93  1  0.67753456  0.42832724  0.34673894  1
  Al0+  Al94  1  0.93001774  0.82179415  0.98522648  1
  Al0+  Al95  1  0.07256065  0.67760099  0.31801828  1
  Si0+  Si96  1  0.42693413  0.82475456  0.65090663  1
  Si0+  Si97  1  0.07556268  0.17806536  0.31465300  1
  Si0+  Si98  1  0.57112200  0.17890145  0.98404004  1
  Si0+  Si99  1  0.57122752  0.67630279  0.98247425  1
  Si0+  Si100  1  0.07129252  0.18022177  0.65289541  1
  Si0+  Si101  1  0.32261943  0.07205537  0.34920533  1
  Si0+  Si102  1  0.67788626  0.92865833  0.01656153  1
  Si0+  Si103  1  0.82294004  0.07545773  0.68420281  1
  Si0+  Si104  1  0.67607994  0.42623543  0.68282762  1
  Si0+  Si105  1  0.67599215  0.42645416  0.01282312  1
  Si0+  Si106  1  0.07081870  0.67493474  0.98391243  1
  Si0+  Si107  1  0.92847884  0.32073609  0.98453771  1
  Si0+  Si108  1  0.57332768  0.17715894  0.64731450  1
  Si0+  Si109  1  0.42799219  0.32028993  0.31491624  1
  Si0+  Si110  1  0.32034904  0.07143385  0.68132805  1
  Si0+  Si111  1  0.42704175  0.31859356  0.98565016  1
  Si0+  Si112  1  0.56933070  0.17897065  0.31709241  1
  Si0+  Si113  1  0.07279651  0.18014421  0.98460442  1
  Si0+  Si114  1  0.17761571  0.92524799  0.01640196  1
  Si0+  Si115  1  0.42830244  0.82591083  0.31879013  1
  Si0+  Si116  1  0.92829325  0.32075724  0.65437285  1
  Si0+  Si117  1  0.32485567  0.57216053  0.01581259  1
  Si0+  Si118  1  0.32585049  0.57160009  0.68476621  1
  Si0+  Si119  1  0.18038855  0.92988490  0.34650030  1
  O2-  O120  1  0.25083447  -0.01046574  0.06130459  1
  O2-  O121  1  0.25189558  0.00090757  0.38959944  1
  O2-  O122  1  0.25721029  -0.00173047  0.72614741  1
  O2-  O123  1  0.25257982  0.50698961  0.05876540  1
  O2-  O124  1  0.24523635  0.50726389  0.40013090  1
  O2-  O125  1  0.25257819  0.50722609  0.72910872  1
  O2-  O126  1  0.75109398  -0.00710069  0.05954480  1
  O2-  O127  1  0.75890617  -0.00652248  0.39850139  1
  O2-  O128  1  0.75713003  0.00390742  0.72808816  1
  O2-  O129  1  0.74125455  0.49693381  0.05731791  1
  O2-  O130  1  0.74685982  0.50106724  0.39875506  1
  O2-  O131  1  0.74408916  0.49459898  0.72792063  1
  O2-  O132  1  0.00372385  0.24406674  0.27185449  1
  O2-  O133  1  -0.00315582  0.24751447  0.61216948  1
  O2-  O134  1  0.00082797  0.25060083  0.94198526  1
  O2-  O135  1  -0.00239686  0.74628086  0.26714973  1
  O2-  O136  1  0.00343742  0.75209364  0.60386975  1
  O2-  O137  1  0.00565853  0.74707562  0.93990882  1
  O2-  O138  1  0.50117680  0.25166263  0.27213021  1
  O2-  O139  1  0.50612130  0.24763656  0.60383152  1
  O2-  O140  1  0.50022965  0.25045877  0.94183548  1
  O2-  O141  1  0.49500412  0.75534029  0.27470092  1
  O2-  O142  1  0.49303755  0.75487366  0.60598532  1
  O2-  O143  1  0.50216917  0.74543775  0.93938395  1
  O2-  O144  1  0.07566241  0.18024955  0.08909967  1
  O2-  O145  1  0.07921827  0.17809250  0.42045465  1
  O2-  O146  1  0.07383841  0.18144311  0.75840832  1
  O2-  O147  1  0.07170805  0.67577945  0.08913871  1
  O2-  O148  1  0.07346741  0.68180926  0.43137283  1
  O2-  O149  1  0.06688894  0.67533209  0.76761337  1
  O2-  O150  1  0.57071687  0.17988883  0.08898304  1
  O2-  O151  1  0.56474960  0.17771763  0.42191863  1
  O2-  O152  1  0.57291102  0.17805951  0.75353607  1
  O2-  O153  1  0.56995235  0.67414868  0.08767549  1
  O2-  O154  1  0.56919749  0.68003670  0.43157618  1
  O2-  O155  1  0.56790756  0.68322590  0.76682787  1
  O2-  O156  1  0.18400323  0.42685523  0.23675543  1
  O2-  O157  1  0.18078236  0.42689501  0.56937159  1
  O2-  O158  1  0.18241625  0.42702245  0.90183434  1
  O2-  O159  1  0.18200550  0.93199538  0.24134371  1
  O2-  O160  1  0.17940986  0.93147419  0.56682428  1
  O2-  O161  1  0.17809441  0.92976342  0.91078032  1
  O2-  O162  1  0.67983373  0.42873627  0.23231004  1
  O2-  O163  1  0.67805116  0.42322518  0.57809719  1
  O2-  O164  1  0.67592651  0.42392363  0.90714793  1
  O2-  O165  1  0.67256570  0.93447098  0.23478332  1
  O2-  O166  1  0.67905866  0.93138012  0.57037221  1
  O2-  O167  1  0.67670098  0.93149855  0.91068686  1
  O2-  O168  1  0.42845543  0.31713852  0.09045526  1
  O2-  O169  1  0.42623509  0.31625396  0.41988191  1
  O2-  O170  1  0.42809002  0.31551371  0.76532974  1
  O2-  O171  1  0.43244554  0.82296222  0.09928629  1
  O2-  O172  1  0.42794226  0.82985147  0.42407796  1
  O2-  O173  1  0.42942726  0.82515292  0.75686084  1
  O2-  O174  1  0.92676481  0.31918092  0.08905005  1
  O2-  O175  1  0.93001156  0.31717529  0.43341391  1
  O2-  O176  1  0.92895609  0.31909613  0.76011450  1
  O2-  O177  1  0.93149578  0.82327670  0.09779293  1
  O2-  O178  1  0.93215284  0.82284154  0.43104002  1
  O2-  O179  1  0.92949908  0.82121111  0.76607239  1
  O2-  O180  1  0.32388738  0.07198728  0.24388713  1
  O2-  O181  1  0.31784040  0.07244035  0.57551633  1
  O2-  O182  1  0.31712573  0.07090608  0.89969999  1
  O2-  O183  1  0.32148352  0.57020734  0.23400115  1
  O2-  O184  1  0.32922294  0.56850142  0.57990205  1
  O2-  O185  1  0.33015454  0.56893978  0.91041064  1
  O2-  O186  1  0.81946903  0.07108143  0.23449856  1
  O2-  O187  1  0.82121252  0.08095609  0.57948326  1
  O2-  O188  1  0.81750677  0.07562948  0.90056526  1
  O2-  O189  1  0.81791953  0.57083357  0.23504415  1
  O2-  O190  1  0.82091297  0.56904482  0.56855539  1
  O2-  O191  1  0.81831875  0.57064857  0.90159672  1
  O2-  O192  1  0.05541455  0.08398321  0.26757767  1
  O2-  O193  1  0.04739622  0.08788670  0.60515392  1
  O2-  O194  1  0.04604011  0.08848398  0.93608830  1
  O2-  O195  1  0.05000870  0.57687981  0.26826976  1
  O2-  O196  1  0.03942889  0.57789642  0.60278207  1
  O2-  O197  1  0.03972655  0.58148756  0.93991207  1
  O2-  O198  1  0.53703878  0.08883058  0.26840045  1
  O2-  O199  1  0.54476742  0.08466302  0.60107866  1
  O2-  O200  1  0.54181690  0.08824464  0.93560141  1
  O2-  O201  1  0.53661073  0.58326171  0.26267319  1
  O2-  O202  1  0.54276301  0.58399770  0.59966093  1
  O2-  O203  1  0.54558106  0.58250163  0.93513708  1
  O2-  O204  1  0.16844790  0.20710938  0.26745180  1
  O2-  O205  1  0.16093848  0.21035582  0.60305627  1
  O2-  O206  1  0.16405931  0.21044574  0.93650603  1
  O2-  O207  1  0.17076156  0.71013243  0.26452555  1
  O2-  O208  1  0.17348152  0.69747891  0.60557904  1
  O2-  O209  1  0.16653544  0.69275668  0.93817908  1
  O2-  O210  1  0.66140076  0.20424408  0.26948264  1
  O2-  O211  1  0.66749733  0.20089563  0.60222378  1
  O2-  O212  1  0.66191502  0.20681142  0.93398193  1
  O2-  O213  1  0.66468078  0.70997202  0.26186344  1
  O2-  O214  1  0.66491581  0.71563679  0.60095331  1
  O2-  O215  1  0.66412594  0.70404243  0.93662104  1
  O2-  O216  1  0.08275291  0.45574312  0.06873375  1
  O2-  O217  1  0.07849549  0.45044981  0.40078377  1
  O2-  O218  1  0.08394942  0.45703943  0.73857897  1
  O2-  O219  1  0.08717503  0.95838424  0.06324181  1
  O2-  O220  1  0.09079786  0.96039400  0.39590664  1
  O2-  O221  1  0.08443067  0.96393973  0.73616786  1
  O2-  O222  1  0.58043019  0.44738000  0.05760634  1
  O2-  O223  1  0.57647035  0.45136158  0.39494807  1
  O2-  O224  1  0.58122031  0.45106451  0.72709287  1
  O2-  O225  1  0.58622006  0.95980621  0.06229120  1
  O2-  O226  1  0.58449881  0.96564258  0.40442927  1
  O2-  O227  1  0.58395604  0.96351494  0.73763515  1
  O2-  O228  1  0.21287885  0.33430429  0.07052956  1
  O2-  O229  1  0.21265871  0.33202144  0.40199062  1
  O2-  O230  1  0.21501017  0.33358847  0.73483136  1
  O2-  O231  1  0.19856548  0.82917407  0.05821320  1
  O2-  O232  1  0.20857494  0.83960689  0.39525142  1
  O2-  O233  1  0.20539342  0.83019996  0.73657580  1
  O2-  O234  1  0.70274265  0.33318109  0.05870546  1
  O2-  O235  1  0.70218940  0.32912787  0.39893867  1
  O2-  O236  1  0.70028953  0.33183438  0.72975352  1
  O2-  O237  1  0.69773602  0.83316551  0.05952233  1
  O2-  O238  1  0.70200538  0.82922107  0.39856386  1
  O2-  O239  1  0.70924396  0.83495430  0.74009523  1
  O2-  O240  1  0.45233378  0.41202584  0.26658471  1
  O2-  O241  1  0.45640659  0.41531174  0.59601084  1
  O2-  O242  1  0.45107854  0.41096599  0.93685674  1
  O2-  O243  1  0.45735919  0.91948449  0.27256373  1
  O2-  O244  1  0.45217109  0.91953606  0.60688317  1
  O2-  O245  1  0.45896620  0.91783610  0.93077003  1
  O2-  O246  1  0.95926499  0.41406829  0.26354605  1
  O2-  O247  1  0.95913041  0.41131318  0.60855213  1
  O2-  O248  1  0.95707022  0.41314109  0.93872659  1
  O2-  O249  1  0.96255631  0.92032410  0.26639949  1
  O2-  O250  1  0.95429960  0.92332649  0.60238464  1
  O2-  O251  1  0.95923530  0.91959734  0.93160645  1
  O2-  O252  1  0.33780721  0.28712471  0.26705627  1
  O2-  O253  1  0.33455550  0.28374310  0.59529706  1
  O2-  O254  1  0.33628976  0.28539402  0.93928235  1
  O2-  O255  1  0.33486927  0.80473323  0.27063611  1
  O2-  O256  1  0.33161977  0.80258676  0.60776763  1
  O2-  O257  1  0.33136376  0.79330569  0.93129712  1
  O2-  O258  1  0.83188243  0.28648715  0.26506523  1
  O2-  O259  1  0.83576256  0.29548873  0.60746157  1
  O2-  O260  1  0.83747851  0.29130254  0.93533939  1
  O2-  O261  1  0.82928526  0.79853650  0.26494080  1
  O2-  O262  1  0.83052621  0.79212100  0.60278452  1
  O2-  O263  1  0.83165533  0.79106831  0.93385688  1
  O2-  O264  1  0.41844578  0.04152191  0.06684670  1
  O2-  O265  1  0.41322776  0.04636020  0.39904764  1
  O2-  O266  1  0.41615789  0.05386385  0.72591867  1
  O2-  O267  1  0.41697886  0.54204340  0.06338982  1
  O2-  O268  1  0.41633885  0.53836988  0.40076206  1
  O2-  O269  1  0.41734569  0.53922788  0.73240985  1
  O2-  O270  1  0.92073746  0.04701611  0.06560040  1
  O2-  O271  1  0.92734222  0.05489904  0.39664458  1
  O2-  O272  1  0.91829391  0.05527366  0.72885715  1
  O2-  O273  1  0.91228201  0.53833321  0.07053724  1
  O2-  O274  1  0.91819253  0.54020466  0.39970192  1
  O2-  O275  1  0.91325885  0.53608300  0.73864009  1
  O2-  O276  1  0.28706528  0.16158241  0.07065287  1
  O2-  O277  1  0.29327319  0.16299775  0.39677400  1
  O2-  O278  1  0.28836962  0.16282175  0.72809870  1
  O2-  O279  1  0.30340846  0.66757409  0.05946065  1
  O2-  O280  1  0.30354526  0.67625274  0.39812052  1
  O2-  O281  1  0.30709316  0.66721408  0.72945965  1
  O2-  O282  1  0.78701419  0.16713589  0.06686361  1
  O2-  O283  1  0.78809819  0.16564032  0.40209608  1
  O2-  O284  1  0.79308819  0.16771168  0.73311582  1
  O2-  O285  1  0.78737567  0.66793708  0.06887809  1
  O2-  O286  1  0.79198242  0.67101330  0.39926766  1
  O2-  O287  1  0.78561495  0.66521005  0.73588456  1
