# generated using pymatgen
data_Ca2Al2SiO7
_symmetry_space_group_name_H-M   'P 1'
_cell_length_a   15.46165085
_cell_length_b   15.46072673
_cell_length_c   15.28555182
_cell_angle_alpha   89.98826087
_cell_angle_beta   90.01257831
_cell_angle_gamma   90.02417245
_symmetry_Int_Tables_number   1
_chemical_formula_structural   Ca2Al2SiO7
_chemical_formula_sum   'Ca48 Al48 Si24 O168'
_cell_volume   3653.98558293
_cell_formula_units_Z   24
loop_
 _symmetry_equiv_pos_site_id
 _symmetry_equiv_pos_as_xyz
  1  'x, y, z'
loop_
 _atom_type_symbol
 _atom_type_oxidation_number
  Ca2+  2.0
  Al0+  0.0
  Si0+  0.0
  O2-  -2.0
loop_
 _atom_site_type_symbol
 _atom_site_label
 _atom_site_symmetry_multiplicity
 _atom_site_fract_x
 _atom_site_fract_y
 _atom_site_fract_z
 _atom_site_occupancy
  Ca2+  Ca0  1  0.17689463  0.07608977  0.17348820  1
  Ca2+  Ca1  1  0.17723679  0.08105111  0.50489302  1
  Ca2+  Ca2  1  0.18102670  0.08564388  0.84111200  1
  Ca2+  Ca3  1  0.16403255  0.58756180  0.16553064  1
  Ca2+  Ca4  1  0.16095995  0.58126584  0.50620765  1
  Ca2+  Ca5  1  0.16426569  0.57870357  0.84037354  1
  Ca2+  Ca6  1  0.66760025  0.08134947  0.16034504  1
  Ca2+  Ca7  1  0.66544568  0.07762832  0.50960970  1
  Ca2+  Ca8  1  0.66330813  0.07401003  0.84162456  1
  Ca2+  Ca9  1  0.67683385  0.58181791  0.17076775  1
  Ca2+  Ca10  1  0.67155950  0.57366248  0.50737389  1
  Ca2+  Ca11  1  0.66404621  0.57653883  0.84469314  1
  Ca2+  Ca12  1  0.07610893  0.33762652  0.16159979  1
  Ca2+  Ca13  1  0.07737004  0.33562487  0.49386876  1
  Ca2+  Ca14  1  0.08480040  0.33956239  0.83002487  1
  Ca2+  Ca15  1  0.08009148  0.82555080  0.15766722  1
  Ca2+  Ca16  1  0.08846881  0.82291060  0.49221917  1
  Ca2+  Ca17  1  0.07754333  0.82295918  0.83068058  1
  Ca2+  Ca18  1  0.58736398  0.33095566  0.15787369  1
  Ca2+  Ca19  1  0.59123980  0.32918431  0.49745730  1
  Ca2+  Ca20  1  0.59102996  0.32380646  0.82905181  1
  Ca2+  Ca21  1  0.58356139  0.82801976  0.15579477  1
  Ca2+  Ca22  1  0.58697176  0.82921566  0.50299524  1
  Ca2+  Ca23  1  0.59356523  0.82288577  0.83132845  1
  Ca2+  Ca24  1  0.32915685  0.42365479  0.16144281  1
  Ca2+  Ca25  1  0.32413567  0.41762780  0.50704352  1
  Ca2+  Ca26  1  0.32100928  0.42228203  0.84049096  1
  Ca2+  Ca27  1  0.33195915  0.92726329  0.17259296  1
  Ca2+  Ca28  1  0.33070231  0.92489569  0.50081963  1
  Ca2+  Ca29  1  0.33940419  0.92766600  0.83717567  1
  Ca2+  Ca30  1  0.82584994  0.42592483  0.16980051  1
  Ca2+  Ca31  1  0.82866407  0.41875818  0.49873830  1
  Ca2+  Ca32  1  0.82158318  0.42439217  0.84040107  1
  Ca2+  Ca33  1  0.83269783  0.91412069  0.16165780  1
  Ca2+  Ca34  1  0.82808613  0.91879410  0.50552799  1
  Ca2+  Ca35  1  0.82507983  0.91887376  0.84351403  1
  Ca2+  Ca36  1  0.41851596  0.16602374  0.15833012  1
  Ca2+  Ca37  1  0.41876569  0.16130837  0.50058410  1
  Ca2+  Ca38  1  0.42526380  0.16189663  0.82944651  1
  Ca2+  Ca39  1  0.42123428  0.66770588  0.15548309  1
  Ca2+  Ca40  1  0.42585220  0.66321835  0.49876212  1
  Ca2+  Ca41  1  0.42745264  0.65981753  0.83274269  1
  Ca2+  Ca42  1  0.91111335  0.17332166  0.15990838  1
  Ca2+  Ca43  1  0.91593932  0.17717567  0.49168680  1
  Ca2+  Ca44  1  0.91361752  0.16724457  0.83228777  1
  Ca2+  Ca45  1  0.92228908  0.66485346  0.15715414  1
  Ca2+  Ca46  1  0.92713618  0.66108083  0.49389836  1
  Ca2+  Ca47  1  0.92048952  0.66484139  0.83515159  1
  Al0+  Al48  1  -0.00033512  0.00183937  -0.00179306  1
  Al0+  Al49  1  0.00027434  -0.00171088  0.33828326  1
  Al0+  Al50  1  0.00168435  0.00048898  0.66464347  1
  Al0+  Al51  1  -0.00241864  0.49827863  0.00121331  1
  Al0+  Al52  1  -0.00098253  0.49984431  0.32728963  1
  Al0+  Al53  1  -0.00119539  0.50015057  0.66591821  1
  Al0+  Al54  1  0.50061579  0.00102336  0.00505471  1
  Al0+  Al55  1  0.50056992  -0.00018745  0.33681520  1
  Al0+  Al56  1  0.50124699  -0.00017108  0.66872517  1
  Al0+  Al57  1  0.49459928  0.49796105  0.00229094  1
  Al0+  Al58  1  0.50005883  0.49679305  0.33578110  1
  Al0+  Al59  1  0.49893623  0.49823969  0.66441763  1
  Al0+  Al60  1  0.24919974  0.25129041  0.00841866  1
  Al0+  Al61  1  0.25285319  0.25077382  0.33607169  1
  Al0+  Al62  1  0.25052972  0.25042979  0.67351040  1
  Al0+  Al63  1  0.24988528  0.75069325  -0.00370445  1
  Al0+  Al64  1  0.25256614  0.75057245  0.33281672  1
  Al0+  Al65  1  0.25063446  0.75128826  0.66181754  1
  Al0+  Al66  1  0.74926070  0.24860905  0.00033573  1
  Al0+  Al67  1  0.74971215  0.24888807  0.33087910  1
  Al0+  Al68  1  0.75066111  0.25102793  0.66403642  1
  Al0+  Al69  1  0.74976734  0.75040524  -0.00027193  1
  Al0+  Al70  1  0.75272192  0.74897412  0.33895400  1
  Al0+  Al71  1  0.75138456  0.75048759  0.66376908  1
  Al0+  Al72  1  0.31972436  0.06932378  0.68264709  1
  Al0+  Al73  1  0.07163427  0.68051095  0.31807948  1
  Al0+  Al74  1  0.31936450  0.57382680  0.01361748  1
  Al0+  Al75  1  0.92827892  0.82332792  0.98398849  1
  Al0+  Al76  1  0.67612303  0.42755910  0.01324490  1
  Al0+  Al77  1  0.56950814  0.67775389  0.98955890  1
  Al0+  Al78  1  0.17665438  0.43000107  0.01697960  1
  Al0+  Al79  1  0.32218151  0.07234837  0.35088652  1
  Al0+  Al80  1  0.81909357  0.57193713  0.01364892  1
  Al0+  Al81  1  0.92913954  0.31886338  0.31718329  1
  Al0+  Al82  1  0.32149337  0.07023588  0.01455558  1
  Al0+  Al83  1  0.67924820  0.92819673  0.01568110  1
  Al0+  Al84  1  0.17777557  0.43130720  0.67839096  1
  Al0+  Al85  1  0.07116054  0.67748376  0.98310624  1
  Al0+  Al86  1  0.57058241  0.17956490  0.65235421  1
  Al0+  Al87  1  0.82272592  0.07143213  0.01421244  1
  Al0+  Al88  1  0.17870258  0.92723038  0.34823025  1
  Al0+  Al89  1  0.57179686  0.67664044  0.65233391  1
  Al0+  Al90  1  0.06973238  0.67981078  0.65188178  1
  Al0+  Al91  1  0.67824140  0.42872616  0.68111730  1
  Al0+  Al92  1  0.68118276  0.92891522  0.68026755  1
  Al0+  Al93  1  0.67842470  0.42765702  0.34950786  1
  Al0+  Al94  1  0.56963417  0.18072043  0.98635082  1
  Al0+  Al95  1  0.82265005  0.57119444  0.35041155  1
  Si0+  Si96  1  0.43226181  0.82092886  0.31885001  1
  Si0+  Si97  1  0.82148747  0.57128264  0.68287379  1
  Si0+  Si98  1  0.07260489  0.18025300  0.98591126  1
  Si0+  Si99  1  0.67921756  0.92827030  0.34944143  1
  Si0+  Si100  1  0.42720244  0.32196177  0.31719914  1
  Si0+  Si101  1  0.07412055  0.17916249  0.65248332  1
  Si0+  Si102  1  0.93008395  0.31969240  0.65129447  1
  Si0+  Si103  1  0.32243747  0.57413492  0.68115868  1
  Si0+  Si104  1  0.56969094  0.17794162  0.31791251  1
  Si0+  Si105  1  0.57180115  0.67816608  0.32030247  1
  Si0+  Si106  1  0.42422219  0.32132678  0.98228906  1
  Si0+  Si107  1  0.92623804  0.82409299  0.31709471  1
  Si0+  Si108  1  0.17713449  0.92875769  0.01383689  1
  Si0+  Si109  1  0.07365037  0.17727348  0.31822674  1
  Si0+  Si110  1  0.92859657  0.82421350  0.64762839  1
  Si0+  Si111  1  0.32271626  0.57170370  0.34899745  1
  Si0+  Si112  1  0.82067651  0.07147910  0.34838125  1
  Si0+  Si113  1  0.17943367  0.43089382  0.34740781  1
  Si0+  Si114  1  0.17694157  0.92615973  0.68468783  1
  Si0+  Si115  1  0.42909011  0.82294735  0.64873314  1
  Si0+  Si116  1  0.82390943  0.07312547  0.68074872  1
  Si0+  Si117  1  0.42610274  0.32043237  0.64973067  1
  Si0+  Si118  1  0.92837435  0.31966210  0.98300018  1
  Si0+  Si119  1  0.42803561  0.82372278  0.98435474  1
  O2-  O120  1  0.24773148  -0.00554694  0.05972762  1
  O2-  O121  1  0.24682131  0.00286819  0.39913502  1
  O2-  O122  1  0.24459444  -0.00490861  0.72951875  1
  O2-  O123  1  0.24446732  0.50632519  0.06617901  1
  O2-  O124  1  0.24872114  0.50321420  0.39079917  1
  O2-  O125  1  0.25054636  0.50810344  0.72335620  1
  O2-  O126  1  0.75319552  -0.00174865  0.06594838  1
  O2-  O127  1  0.75148949  -0.00113823  0.39054914  1
  O2-  O128  1  0.75728382  0.00315685  0.72428154  1
  O2-  O129  1  0.74356599  0.50331404  0.06316361  1
  O2-  O130  1  0.74851935  0.50103468  0.40019076  1
  O2-  O131  1  0.74659832  0.50929655  0.72643756  1
  O2-  O132  1  0.00436925  0.24336321  0.27134768  1
  O2-  O133  1  0.00115119  0.24766428  0.60938865  1
  O2-  O134  1  0.00132996  0.24993483  0.94120803  1
  O2-  O135  1  -0.00309385  0.75685602  0.27466338  1
  O2-  O136  1  -0.00180760  0.75668332  0.60312302  1
  O2-  O137  1  -0.00122671  0.74974002  0.93398557  1
  O2-  O138  1  0.49907361  0.25027481  0.27749495  1
  O2-  O139  1  0.49742381  0.25514009  0.60366806  1
  O2-  O140  1  0.49569957  0.25564455  0.93822959  1
  O2-  O141  1  0.50261754  0.74984320  0.27651943  1
  O2-  O142  1  0.49610110  0.75133929  0.60523550  1
  O2-  O143  1  0.49471040  0.75250764  0.94136799  1
  O2-  O144  1  0.07246583  0.18107734  0.09103686  1
  O2-  O145  1  0.07204376  0.18097376  0.42436746  1
  O2-  O146  1  0.07377192  0.17939910  0.75750592  1
  O2-  O147  1  0.07096267  0.68078703  0.09676415  1
  O2-  O148  1  0.07100627  0.67969729  0.43173258  1
  O2-  O149  1  0.06768076  0.67847349  0.76409591  1
  O2-  O150  1  0.56765563  0.18092180  0.10007623  1
  O2-  O151  1  0.56985433  0.17673925  0.42331090  1
  O2-  O152  1  0.57020377  0.17902428  0.76480462  1
  O2-  O153  1  0.56797889  0.68018186  0.10332041  1
  O2-  O154  1  0.56898259  0.67987793  0.42564840  1
  O2-  O155  1  0.57044743  0.67608511  0.76506898  1
  O2-  O156  1  0.18157910  0.42953635  0.24301514  1
  O2-  O157  1  0.17811200  0.43071888  0.56454979  1
  O2-  O158  1  0.17903498  0.42826924  0.90315460  1
  O2-  O159  1  0.18226248  0.92849783  0.23464118  1
  O2-  O160  1  0.17755671  0.92786412  0.57906979  1
  O2-  O161  1  0.17801266  0.93254769  0.90815940  1
  O2-  O162  1  0.67741306  0.42880623  0.23661068  1
  O2-  O163  1  0.68307756  0.42685564  0.56810222  1
  O2-  O164  1  0.68028789  0.42690696  0.89930392  1
  O2-  O165  1  0.67676812  0.92765685  0.24502046  1
  O2-  O166  1  0.68245307  0.93136634  0.56608118  1
  O2-  O167  1  0.67834335  0.92999929  0.90223759  1
  O2-  O168  1  0.42281307  0.31892819  0.08833897  1
  O2-  O169  1  0.42380887  0.32371079  0.42218504  1
  O2-  O170  1  0.42360208  0.31853850  0.75476268  1
  O2-  O171  1  0.42919617  0.82378954  0.09053741  1
  O2-  O172  1  0.43382484  0.82118715  0.42399901  1
  O2-  O173  1  0.42800113  0.82405116  0.75395507  1
  O2-  O174  1  0.92880855  0.31795175  0.08807179  1
  O2-  O175  1  0.93119791  0.31717256  0.43118905  1
  O2-  O176  1  0.92980626  0.31882996  0.75624662  1
  O2-  O177  1  0.93264571  0.82488354  0.09786131  1
  O2-  O178  1  0.92472040  0.82485979  0.42279693  1
  O2-  O179  1  0.92929179  0.82624934  0.75257779  1
  O2-  O180  1  0.32368423  0.07028072  0.23756692  1
  O2-  O181  1  0.31775281  0.06903803  0.56962092  1
  O2-  O182  1  0.32091618  0.06988270  0.90134406  1
  O2-  O183  1  0.32520227  0.57108984  0.24448949  1
  O2-  O184  1  0.32287366  0.57167885  0.57481135  1
  O2-  O185  1  0.32118584  0.57027735  0.90002426  1
  O2-  O186  1  0.82013975  0.07300468  0.24396120  1
  O2-  O187  1  0.82335929  0.07320423  0.57445313  1
  O2-  O188  1  0.82138535  0.07247256  0.90041413  1
  O2-  O189  1  0.82036561  0.57260004  0.23748637  1
  O2-  O190  1  0.82412052  0.56708838  0.57724683  1
  O2-  O191  1  0.81960380  0.56829039  0.89964853  1
  O2-  O192  1  0.05032611  0.08154130  0.27605733  1
  O2-  O193  1  0.05023368  0.08624605  0.60425111  1
  O2-  O194  1  0.04739151  0.08903815  0.93631808  1
  O2-  O195  1  0.04194149  0.58403678  0.26453520  1
  O2-  O196  1  0.03626610  0.58320561  0.59755230  1
  O2-  O197  1  0.04128677  0.57790466  0.93274083  1
  O2-  O198  1  0.54081523  0.08578831  0.27154325  1
  O2-  O199  1  0.53827311  0.08296355  0.59812276  1
  O2-  O200  1  0.53724707  0.08320825  0.93472319  1
  O2-  O201  1  0.54273833  0.58586648  0.27563731  1
  O2-  O202  1  0.53918465  0.58088673  0.59590655  1
  O2-  O203  1  0.53625682  0.58124407  0.93575300  1
  O2-  O204  1  0.16802360  0.20378531  0.27421255  1
  O2-  O205  1  0.16463315  0.21027075  0.60460211  1
  O2-  O206  1  0.16426474  0.21056099  0.93911955  1
  O2-  O207  1  0.17036029  0.70946196  0.26678316  1
  O2-  O208  1  0.16823816  0.70670533  0.59775429  1
  O2-  O209  1  0.17018353  0.70507018  0.92988862  1
  O2-  O210  1  0.66172940  0.20378951  0.27079746  1
  O2-  O211  1  0.66810055  0.20895956  0.59728551  1
  O2-  O212  1  0.66691196  0.20889694  0.93195525  1
  O2-  O213  1  0.66503005  0.70614033  0.27672325  1
  O2-  O214  1  0.66809846  0.70877544  0.59730020  1
  O2-  O215  1  0.66525343  0.70764867  0.93436118  1
  O2-  O216  1  0.07714101  0.45293580  0.06827206  1
  O2-  O217  1  0.08682575  0.45690943  0.39321147  1
  O2-  O218  1  0.08097476  0.45965326  0.73250172  1
  O2-  O219  1  0.08544184  0.95748082  0.06101418  1
  O2-  O220  1  0.07905966  0.94980975  0.40257414  1
  O2-  O221  1  0.08241084  0.95143470  0.72867551  1
  O2-  O222  1  0.57489335  0.44665392  0.06259318  1
  O2-  O223  1  0.57875700  0.45261843  0.40270214  1
  O2-  O224  1  0.57808565  0.45177521  0.73038698  1
  O2-  O225  1  0.58309405  0.95981104  0.07142458  1
  O2-  O226  1  0.58887564  0.95831725  0.39844218  1
  O2-  O227  1  0.58517407  0.95935871  0.73325757  1
  O2-  O228  1  0.20831251  0.33414596  0.07341315  1
  O2-  O229  1  0.20845954  0.33946934  0.39581531  1
  O2-  O230  1  0.20846746  0.33602453  0.73422044  1
  O2-  O231  1  0.19972681  0.83409016  0.05771138  1
  O2-  O232  1  0.21418661  0.83112432  0.40283826  1
  O2-  O233  1  0.20318501  0.83209700  0.72871890  1
  O2-  O234  1  0.70977718  0.33138689  0.06636810  1
  O2-  O235  1  0.70981324  0.32845443  0.40040145  1
  O2-  O236  1  0.71484218  0.33307769  0.73328198  1
  O2-  O237  1  0.70586700  0.83031445  0.06950648  1
  O2-  O238  1  0.70632459  0.83710338  0.39867316  1
  O2-  O239  1  0.71053396  0.83116349  0.73217343  1
  O2-  O240  1  0.45492986  0.41363035  0.26902120  1
  O2-  O241  1  0.44658383  0.41508390  0.60314703  1
  O2-  O242  1  0.44377355  0.41620790  0.93718801  1
  O2-  O243  1  0.46106415  0.91298071  0.27175116  1
  O2-  O244  1  0.45967704  0.91438896  0.60069188  1
  O2-  O245  1  0.45689812  0.91646936  0.93887601  1
  O2-  O246  1  0.96080984  0.41401077  0.26249091  1
  O2-  O247  1  0.95977662  0.41028433  0.60278592  1
  O2-  O248  1  0.95541526  0.41085531  0.93461860  1
  O2-  O249  1  0.94873588  0.91953310  0.27271729  1
  O2-  O250  1  0.95240783  0.91909115  0.60087941  1
  O2-  O251  1  0.95684551  0.92214460  0.93012342  1
  O2-  O252  1  0.33597091  0.29370041  0.26830372  1
  O2-  O253  1  0.33319326  0.29050699  0.60257438  1
  O2-  O254  1  0.33081313  0.29212039  0.93738589  1
  O2-  O255  1  0.34094152  0.79398021  0.27088028  1
  O2-  O256  1  0.33516200  0.80043901  0.60064349  1
  O2-  O257  1  0.33397289  0.80353522  0.93709645  1
  O2-  O258  1  0.83328794  0.28550474  0.26349883  1
  O2-  O259  1  0.84009660  0.29064120  0.60064665  1
  O2-  O260  1  0.83823386  0.28852793  0.93452343  1
  O2-  O261  1  0.83217247  0.79753453  0.27198368  1
  O2-  O262  1  0.83543425  0.79870800  0.60048042  1
  O2-  O263  1  0.82929556  0.79654279  0.93193175  1
  O2-  O264  1  0.41610554  0.03958300  0.07111176  1
  O2-  O265  1  0.41921488  0.03848126  0.40439231  1
  O2-  O266  1  0.41615226  0.03718609  0.73476506  1
  O2-  O267  1  0.41433281  0.54055381  0.07130180  1
  O2-  O268  1  0.41240621  0.53979483  0.39861543  1
  O2-  O269  1  0.41454282  0.54505548  0.72734852  1
  O2-  O270  1  0.92251586  0.04834445  0.06725585  1
  O2-  O271  1  0.91315717  0.04783849  0.39743406  1
  O2-  O272  1  0.91948012  0.05145928  0.72499482  1
  O2-  O273  1  0.91536011  0.53890947  0.06696319  1
  O2-  O274  1  0.92079018  0.53729887  0.40144597  1
  O2-  O275  1  0.91178614  0.53798324  0.73022546  1
  O2-  O276  1  0.28925310  0.16505650  0.06986379  1
  O2-  O277  1  0.29674830  0.17186814  0.40366895  1
  O2-  O278  1  0.28864765  0.16503776  0.73720340  1
  O2-  O279  1  0.29735336  0.67445634  0.06566825  1
  O2-  O280  1  0.29961609  0.66449695  0.39602818  1
  O2-  O281  1  0.30150267  0.66966705  0.72387435  1
  O2-  O282  1  0.79009864  0.16750919  0.06882124  1
  O2-  O283  1  0.79012181  0.16166665  0.39737922  1
  O2-  O284  1  0.79850588  0.16662107  0.72555593  1
  O2-  O285  1  0.79575907  0.67073638  0.06652706  1
  O2-  O286  1  0.79737255  0.66991369  0.40544042  1
  O2-  O287  1  0.80388664  0.66806094  0.72371246  1
