# generated using pymatgen
data_Ca2Al2SiO7
_symmetry_space_group_name_H-M   'P 1'
_cell_length_a   15.46252631
_cell_length_b   15.46457082
_cell_length_c   15.28796538
_cell_angle_alpha   89.99328923
_cell_angle_beta   90.00729766
_cell_angle_gamma   89.98664188
_symmetry_Int_Tables_number   1
_chemical_formula_structural   Ca2Al2SiO7
_chemical_formula_sum   'Ca48 Al48 Si24 O168'
_cell_volume   3655.67850745
_cell_formula_units_Z   24
loop_
 _symmetry_equiv_pos_site_id
 _symmetry_equiv_pos_as_xyz
  1  'x, y, z'
loop_
 _atom_type_symbol
 _atom_type_oxidation_number
  Ca2+  2.0
  Al0+  0.0
  Si0+  0.0
  O2-  -2.0
loop_
 _atom_site_type_symbol
 _atom_site_label
 _atom_site_symmetry_multiplicity
 _atom_site_fract_x
 _atom_site_fract_y
 _atom_site_fract_z
 _atom_site_occupancy
  Ca2+  Ca0  1  0.17059873  0.09592374  0.16654720  1
  Ca2+  Ca1  1  0.16480932  0.08033139  0.50920627  1
  Ca2+  Ca2  1  0.16732605  0.08391880  0.83705522  1
  Ca2+  Ca3  1  0.16817585  0.58075288  0.17438831  1
  Ca2+  Ca4  1  0.16650661  0.58863914  0.50732600  1
  Ca2+  Ca5  1  0.16810001  0.58469453  0.83440637  1
  Ca2+  Ca6  1  0.67662587  0.08781501  0.16746010  1
  Ca2+  Ca7  1  0.67210872  0.07919935  0.51557994  1
  Ca2+  Ca8  1  0.67323423  0.08466395  0.83359280  1
  Ca2+  Ca9  1  0.66615110  0.57562529  0.17515091  1
  Ca2+  Ca10  1  0.67272128  0.57833737  0.50447807  1
  Ca2+  Ca11  1  0.66794682  0.57542741  0.83613998  1
  Ca2+  Ca12  1  0.07304363  0.32512784  0.15908781  1
  Ca2+  Ca13  1  0.08050384  0.32081119  0.49685467  1
  Ca2+  Ca14  1  0.07408517  0.32174533  0.83076079  1
  Ca2+  Ca15  1  0.08303903  0.82571222  0.16662384  1
  Ca2+  Ca16  1  0.07895391  0.82549518  0.50341953  1
  Ca2+  Ca17  1  0.07821326  0.83103975  0.81972677  1
  Ca2+  Ca18  1  0.57522790  0.34565387  0.16231678  1
  Ca2+  Ca19  1  0.57884736  0.34275223  0.50127798  1
  Ca2+  Ca20  1  0.57742217  0.33451660  0.82642862  1
  Ca2+  Ca21  1  0.59119652  0.81767324  0.16288227  1
  Ca2+  Ca22  1  0.58280856  0.83349002  0.49773937  1
  Ca2+  Ca23  1  0.58219193  0.83120004  0.82458279  1
  Ca2+  Ca24  1  0.33507374  0.41109472  0.17027927  1
  Ca2+  Ca25  1  0.33549450  0.41311527  0.50342701  1
  Ca2+  Ca26  1  0.33519773  0.41011423  0.83644830  1
  Ca2+  Ca27  1  0.33266082  0.92629700  0.16813120  1
  Ca2+  Ca28  1  0.32596843  0.91444694  0.51204137  1
  Ca2+  Ca29  1  0.32902761  0.92062682  0.83563553  1
  Ca2+  Ca30  1  0.82147267  0.41650668  0.17384370  1
  Ca2+  Ca31  1  0.82495452  0.42755903  0.50880958  1
  Ca2+  Ca32  1  0.82182826  0.41351008  0.83843926  1
  Ca2+  Ca33  1  0.83630453  0.92303520  0.16524295  1
  Ca2+  Ca34  1  0.82883808  0.91938508  0.51238073  1
  Ca2+  Ca35  1  0.83508564  0.92535837  0.82886880  1
  Ca2+  Ca36  1  0.41796461  0.17752577  0.15918388  1
  Ca2+  Ca37  1  0.42670620  0.17600337  0.50028800  1
  Ca2+  Ca38  1  0.42020038  0.17402455  0.82578326  1
  Ca2+  Ca39  1  0.43217788  0.66330753  0.16252194  1
  Ca2+  Ca40  1  0.42428423  0.67435867  0.49849575  1
  Ca2+  Ca41  1  0.42529304  0.67205983  0.82844568  1
  Ca2+  Ca42  1  0.92509872  0.16904819  0.15540706  1
  Ca2+  Ca43  1  0.92677912  0.15581493  0.49970575  1
  Ca2+  Ca44  1  0.92070856  0.16003503  0.82860873  1
  Ca2+  Ca45  1  0.91665292  0.66125868  0.16701166  1
  Ca2+  Ca46  1  0.91636852  0.66529703  0.49835134  1
  Ca2+  Ca47  1  0.91996804  0.67253992  0.82024173  1
  Al0+  Al48  1  0.00042095  -0.00372008  0.00264423  1
  Al0+  Al49  1  0.00281048  -0.00206147  0.32738173  1
  Al0+  Al50  1  0.00104084  -0.00376118  0.66562401  1
  Al0+  Al51  1  0.00054527  0.49851701  -0.00366903  1
  Al0+  Al52  1  0.00086462  0.49883527  0.33300484  1
  Al0+  Al53  1  0.00286165  0.49815828  0.66795079  1
  Al0+  Al54  1  0.49780438  -0.00177106  0.00838836  1
  Al0+  Al55  1  0.49890534  0.00372749  0.33213141  1
  Al0+  Al56  1  0.49858995  0.00186249  0.66249163  1
  Al0+  Al57  1  0.50008005  0.50186264  -0.00581309  1
  Al0+  Al58  1  0.49786428  0.50241362  0.33104419  1
  Al0+  Al59  1  0.49824615  0.50244023  0.66659422  1
  Al0+  Al60  1  0.24896898  0.24967001  -0.00264925  1
  Al0+  Al61  1  0.25124360  0.25027795  0.32835052  1
  Al0+  Al62  1  0.24927533  0.25122831  0.65931278  1
  Al0+  Al63  1  0.25132496  0.74967446  0.00394976  1
  Al0+  Al64  1  0.24828275  0.75177805  0.32876731  1
  Al0+  Al65  1  0.25145385  0.75008417  0.66588064  1
  Al0+  Al66  1  0.74781047  0.25045954  0.00874271  1
  Al0+  Al67  1  0.74944101  0.24954561  0.34091281  1
  Al0+  Al68  1  0.75042743  0.25115239  0.67068174  1
  Al0+  Al69  1  0.75185397  0.74785352  -0.00502232  1
  Al0+  Al70  1  0.75071583  0.75207282  0.33156184  1
  Al0+  Al71  1  0.75058688  0.75014760  0.67022508  1
  Al0+  Al72  1  0.42957430  0.32290970  0.65054892  1
  Al0+  Al73  1  0.82245955  0.07110656  0.68015525  1
  Al0+  Al74  1  0.82253197  0.57195017  0.34822241  1
  Al0+  Al75  1  0.82062223  0.06955570  0.01467458  1
  Al0+  Al76  1  0.82382085  0.57106363  0.68345370  1
  Al0+  Al77  1  0.67772631  0.43065441  0.01484316  1
  Al0+  Al78  1  0.43239363  0.32016769  0.31862788  1
  Al0+  Al79  1  0.92766832  0.81947994  0.65125665  1
  Al0+  Al80  1  0.43026138  0.31987924  0.98589420  1
  Al0+  Al81  1  0.06920047  0.17749422  0.98336395  1
  Al0+  Al82  1  0.07187418  0.67669444  0.65337431  1
  Al0+  Al83  1  0.67547300  0.42920920  0.35064177  1
  Al0+  Al84  1  0.06953402  0.17824024  0.31839196  1
  Al0+  Al85  1  0.57172174  0.68002881  0.98414696  1
  Al0+  Al86  1  0.57385417  0.17970155  0.65381974  1
  Al0+  Al87  1  0.06853512  0.17825937  0.65325388  1
  Al0+  Al88  1  0.31988113  0.07192207  0.01378139  1
  Al0+  Al89  1  0.92496769  0.32110980  0.98567785  1
  Al0+  Al90  1  0.67716979  0.43068282  0.68399128  1
  Al0+  Al91  1  0.42959603  0.82266538  0.65532056  1
  Al0+  Al92  1  0.67502589  0.92885677  0.68060836  1
  Al0+  Al93  1  0.57019959  0.68303534  0.32129247  1
  Al0+  Al94  1  0.07083119  0.67740133  0.31884075  1
  Al0+  Al95  1  0.18090117  0.92835110  0.67928695  1
  Si0+  Si96  1  0.32026853  0.07417230  0.68123060  1
  Si0+  Si97  1  0.67772847  0.92511662  0.01715414  1
  Si0+  Si98  1  0.31992156  0.07320450  0.35002292  1
  Si0+  Si99  1  0.17824975  0.92568804  0.01958105  1
  Si0+  Si100  1  0.31948161  0.57154042  0.68197241  1
  Si0+  Si101  1  0.92704584  0.32278532  0.64991691  1
  Si0+  Si102  1  0.42607283  0.82538772  0.31500375  1
  Si0+  Si103  1  0.07330560  0.67812561  0.98585659  1
  Si0+  Si104  1  0.92678791  0.32142882  0.31893667  1
  Si0+  Si105  1  0.18044511  0.92833470  0.34941877  1
  Si0+  Si106  1  0.93032214  0.81934893  0.98414342  1
  Si0+  Si107  1  0.82357305  0.06945332  0.34727672  1
  Si0+  Si108  1  0.18046192  0.42834294  0.34778716  1
  Si0+  Si109  1  0.32010548  0.57147051  0.01577446  1
  Si0+  Si110  1  0.42721187  0.82243123  0.98485225  1
  Si0+  Si111  1  0.57424509  0.17616304  0.31553071  1
  Si0+  Si112  1  0.82375673  0.57191461  0.01634498  1
  Si0+  Si113  1  0.18013257  0.42605874  0.68189565  1
  Si0+  Si114  1  0.57181946  0.17431399  0.98647763  1
  Si0+  Si115  1  0.92842329  0.82126578  0.31393914  1
  Si0+  Si116  1  0.57197947  0.67964549  0.64996219  1
  Si0+  Si117  1  0.67898190  0.93071233  0.34589593  1
  Si0+  Si118  1  0.17884589  0.42945688  0.01496250  1
  Si0+  Si119  1  0.31927634  0.57317127  0.34803181  1
  O2-  O120  1  0.24388560  -0.00186621  0.06269210  1
  O2-  O121  1  0.25187632  -0.00093766  0.39152703  1
  O2-  O122  1  0.25322141  0.00460485  0.72645085  1
  O2-  O123  1  0.24940789  0.50057211  0.05888410  1
  O2-  O124  1  0.24743011  0.50321195  0.39064057  1
  O2-  O125  1  0.25014858  0.49864492  0.72390457  1
  O2-  O126  1  0.74358887  -0.00356923  0.06230575  1
  O2-  O127  1  0.74737429  0.00375631  0.38820910  1
  O2-  O128  1  0.74618989  0.00242707  0.72936515  1
  O2-  O129  1  0.75586870  0.50293809  0.06075441  1
  O2-  O130  1  0.75069835  0.49968388  0.39745780  1
  O2-  O131  1  0.75217286  0.49947455  0.73436393  1
  O2-  O132  1  -0.00860084  0.24947468  0.27318427  1
  O2-  O133  1  -0.00888055  0.24949414  0.60513198  1
  O2-  O134  1  -0.00780653  0.24466304  0.93496995  1
  O2-  O135  1  -0.00666424  0.74807545  0.27033162  1
  O2-  O136  1  -0.00441973  0.74290968  0.60225125  1
  O2-  O137  1  0.00183751  0.74767841  0.94431422  1
  O2-  O138  1  0.51041349  0.24935192  0.27143149  1
  O2-  O139  1  0.50573751  0.25487510  0.60199988  1
  O2-  O140  1  0.50404018  0.24357877  0.94212649  1
  O2-  O141  1  0.49680850  0.75869982  0.27157163  1
  O2-  O142  1  0.50847210  0.75389931  0.60675161  1
  O2-  O143  1  0.49980743  0.75886469  0.94042036  1
  O2-  O144  1  0.06974689  0.18229977  0.09735625  1
  O2-  O145  1  0.06986322  0.17728946  0.43141945  1
  O2-  O146  1  0.07120673  0.18036060  0.76585216  1
  O2-  O147  1  0.07391735  0.67862897  0.09124059  1
  O2-  O148  1  0.07591260  0.68177103  0.43060082  1
  O2-  O149  1  0.07492976  0.68074584  0.76740924  1
  O2-  O150  1  0.56952179  0.17425805  0.09252968  1
  O2-  O151  1  0.57049874  0.16909048  0.42015699  1
  O2-  O152  1  0.56924424  0.17761901  0.76758831  1
  O2-  O153  1  0.57006005  0.68038826  0.09782743  1
  O2-  O154  1  0.56727220  0.68645096  0.43393099  1
  O2-  O155  1  0.56728918  0.67815940  0.75561485  1
  O2-  O156  1  0.18270232  0.42910194  0.24233505  1
  O2-  O157  1  0.18152180  0.42482044  0.57652864  1
  O2-  O158  1  0.17945304  0.43179426  0.90999050  1
  O2-  O159  1  0.18184953  0.92611547  0.24417631  1
  O2-  O160  1  0.18247456  0.92851177  0.56570711  1
  O2-  O161  1  0.18047958  0.92050560  0.91457679  1
  O2-  O162  1  0.67498575  0.43211998  0.23671075  1
  O2-  O163  1  0.67583575  0.43576518  0.57046466  1
  O2-  O164  1  0.67544941  0.43307796  0.90245489  1
  O2-  O165  1  0.68094760  0.93026452  0.24056163  1
  O2-  O166  1  0.67640610  0.93010163  0.56610490  1
  O2-  O167  1  0.67704450  0.92493378  0.91231686  1
  O2-  O168  1  0.43020905  0.32056132  0.09925720  1
  O2-  O169  1  0.42908556  0.31804726  0.43097623  1
  O2-  O170  1  0.42690551  0.32011351  0.76398866  1
  O2-  O171  1  0.42497305  0.81922759  0.09068513  1
  O2-  O172  1  0.42446535  0.82444992  0.42045235  1
  O2-  O173  1  0.42737518  0.81783540  0.76842219  1
  O2-  O174  1  0.92947426  0.32196812  0.09987392  1
  O2-  O175  1  0.93084862  0.32160527  0.42426124  1
  O2-  O176  1  0.93115803  0.32402676  0.75530401  1
  O2-  O177  1  0.93030988  0.81897996  0.08977644  1
  O2-  O178  1  0.92935513  0.82531824  0.41855499  1
  O2-  O179  1  0.93249330  0.82080602  0.76517481  1
  O2-  O180  1  0.31854849  0.07276215  0.24470000  1
  O2-  O181  1  0.31740152  0.07357063  0.57521259  1
  O2-  O182  1  0.32002216  0.06980404  0.90106442  1
  O2-  O183  1  0.31863105  0.57253605  0.24256938  1
  O2-  O184  1  0.31899501  0.57322477  0.57661288  1
  O2-  O185  1  0.31705567  0.57504807  0.91089369  1
  O2-  O186  1  0.82376422  0.06728706  0.24193729  1
  O2-  O187  1  0.82384533  0.06645318  0.56580349  1
  O2-  O188  1  0.82236046  0.06624100  0.90262934  1
  O2-  O189  1  0.82161501  0.57017517  0.23410362  1
  O2-  O190  1  0.82283683  0.56953842  0.56969085  1
  O2-  O191  1  0.82401585  0.57331645  0.91140387  1
  O2-  O192  1  0.04359249  0.08099742  0.26294030  1
  O2-  O193  1  0.04085814  0.08120459  0.59886014  1
  O2-  O194  1  0.04705763  0.07508312  0.93699549  1
  O2-  O195  1  0.04590043  0.57897187  0.26463381  1
  O2-  O196  1  0.05303008  0.57544822  0.60233772  1
  O2-  O197  1  0.04998090  0.58560871  0.93880511  1
  O2-  O198  1  0.54447202  0.08487540  0.26540945  1
  O2-  O199  1  0.54168412  0.08382114  0.59683180  1
  O2-  O200  1  0.54622713  0.07930297  0.94377934  1
  O2-  O201  1  0.53514510  0.58853276  0.26572658  1
  O2-  O202  1  0.53729871  0.59000925  0.60228063  1
  O2-  O203  1  0.53365193  0.58804282  0.92783140  1
  O2-  O204  1  0.16468760  0.21379824  0.26495230  1
  O2-  O205  1  0.16282424  0.21275083  0.59658681  1
  O2-  O206  1  0.16593397  0.21035445  0.93123622  1
  O2-  O207  1  0.16577177  0.71236565  0.26156613  1
  O2-  O208  1  0.16839379  0.71045477  0.59968463  1
  O2-  O209  1  0.16612291  0.70647757  0.94091780  1
  O2-  O210  1  0.67124562  0.19663286  0.27430603  1
  O2-  O211  1  0.67434231  0.20160372  0.60217246  1
  O2-  O212  1  0.66667277  0.19823309  0.94457650  1
  O2-  O213  1  0.66629193  0.71356031  0.26522465  1
  O2-  O214  1  0.66702594  0.69986262  0.60673173  1
  O2-  O215  1  0.66898597  0.70681212  0.93065113  1
  O2-  O216  1  0.08721143  0.45793905  0.06329017  1
  O2-  O217  1  0.08751546  0.45076898  0.39429668  1
  O2-  O218  1  0.08919166  0.45159563  0.73143719  1
  O2-  O219  1  0.08390406  0.94623258  0.06591693  1
  O2-  O220  1  0.08767056  0.95671383  0.39383681  1
  O2-  O221  1  0.08486776  0.95698658  0.73362710  1
  O2-  O222  1  0.58127283  0.46800053  0.06684246  1
  O2-  O223  1  0.57723596  0.46273141  0.40092403  1
  O2-  O224  1  0.57823994  0.46240238  0.73508580  1
  O2-  O225  1  0.58306432  0.94388964  0.06481186  1
  O2-  O226  1  0.58460824  0.95474023  0.39050021  1
  O2-  O227  1  0.57522106  0.95487460  0.73238981  1
  O2-  O228  1  0.20736934  0.33825020  0.06264396  1
  O2-  O229  1  0.21350071  0.33796128  0.39509334  1
  O2-  O230  1  0.21132952  0.33573372  0.73023806  1
  O2-  O231  1  0.20891064  0.83386490  0.06918327  1
  O2-  O232  1  0.20860307  0.83642492  0.39644204  1
  O2-  O233  1  0.21468941  0.83327057  0.73485565  1
  O2-  O234  1  0.70129036  0.33351331  0.07205761  1
  O2-  O235  1  0.69876027  0.32867123  0.40233942  1
  O2-  O236  1  0.70148474  0.33081861  0.73533716  1
  O2-  O237  1  0.71083693  0.83267937  0.06299145  1
  O2-  O238  1  0.70778133  0.84002700  0.39383871  1
  O2-  O239  1  0.70257693  0.83101005  0.73401104  1
  O2-  O240  1  0.45589149  0.41914141  0.26517967  1
  O2-  O241  1  0.45338905  0.42346562  0.59898861  1
  O2-  O242  1  0.45805706  0.41677615  0.93202071  1
  O2-  O243  1  0.44984923  0.92035481  0.27041440  1
  O2-  O244  1  0.45122445  0.91966780  0.59838803  1
  O2-  O245  1  0.44731048  0.91836800  0.94245641  1
  O2-  O246  1  0.95603089  0.41294401  0.27080438  1
  O2-  O247  1  0.96028599  0.41332446  0.60233879  1
  O2-  O248  1  0.95908953  0.41739326  0.93110447  1
  O2-  O249  1  0.96169491  0.91118249  0.26357687  1
  O2-  O250  1  0.96212131  0.91446207  0.59559510  1
  O2-  O251  1  0.95939758  0.91030266  0.93740743  1
  O2-  O252  1  0.33689523  0.28626975  0.26339734  1
  O2-  O253  1  0.33287127  0.29214297  0.59532456  1
  O2-  O254  1  0.33294256  0.29105588  0.93330915  1
  O2-  O255  1  0.33372124  0.79825374  0.26758873  1
  O2-  O256  1  0.33679321  0.78474495  0.59818809  1
  O2-  O257  1  0.33477739  0.79171285  0.93898425  1
  O2-  O258  1  0.83077926  0.29901415  0.27636957  1
  O2-  O259  1  0.83154453  0.30428064  0.60650640  1
  O2-  O260  1  0.82342619  0.29789490  0.93884176  1
  O2-  O261  1  0.83434924  0.80021201  0.26657000  1
  O2-  O262  1  0.82755129  0.79603396  0.59962545  1
  O2-  O263  1  0.83925452  0.79296662  0.93599382  1
  O2-  O264  1  0.41447018  0.04054808  0.07372507  1
  O2-  O265  1  0.41375050  0.04880260  0.39517972  1
  O2-  O266  1  0.41395118  0.04980189  0.72604657  1
  O2-  O267  1  0.41193158  0.54234908  0.06151417  1
  O2-  O268  1  0.41004964  0.54520051  0.39602513  1
  O2-  O269  1  0.41090946  0.54566198  0.73059783  1
  O2-  O270  1  0.91624247  0.03404374  0.07021599  1
  O2-  O271  1  0.91493747  0.03576279  0.39194657  1
  O2-  O272  1  0.91853226  0.03579052  0.73351721  1
  O2-  O273  1  0.91924698  0.54801807  0.06081938  1
  O2-  O274  1  0.92255709  0.54517078  0.39919534  1
  O2-  O275  1  0.92464506  0.54570006  0.73374536  1
  O2-  O276  1  0.28734943  0.16840236  0.06888866  1
  O2-  O277  1  0.28857434  0.16387503  0.39647654  1
  O2-  O278  1  0.29172522  0.16739226  0.72612185  1
  O2-  O279  1  0.29297379  0.66235337  0.06660479  1
  O2-  O280  1  0.29194373  0.66626047  0.39346636  1
  O2-  O281  1  0.28933753  0.66114296  0.73221602  1
  O2-  O282  1  0.79180422  0.16500431  0.07282900  1
  O2-  O283  1  0.80363984  0.16268231  0.39453074  1
  O2-  O284  1  0.80139767  0.17078253  0.73283761  1
  O2-  O285  1  0.79834030  0.66634277  0.06191613  1
  O2-  O286  1  0.79482444  0.67236460  0.39759017  1
  O2-  O287  1  0.79668692  0.66983082  0.73559822  1
