# generated using pymatgen
data_Ca2Al2SiO7
_symmetry_space_group_name_H-M   'P 1'
_cell_length_a   15.45350887
_cell_length_b   15.45421747
_cell_length_c   15.28015330
_cell_angle_alpha   89.98484124
_cell_angle_beta   90.01000869
_cell_angle_gamma   90.00732902
_symmetry_Int_Tables_number   1
_chemical_formula_structural   Ca2Al2SiO7
_chemical_formula_sum   'Ca48 Al48 Si24 O168'
_cell_volume   3649.23482858
_cell_formula_units_Z   24
loop_
 _symmetry_equiv_pos_site_id
 _symmetry_equiv_pos_as_xyz
  1  'x, y, z'
loop_
 _atom_type_symbol
 _atom_type_oxidation_number
  Ca2+  2.0
  Al0+  0.0
  Si0+  0.0
  O2-  -2.0
loop_
 _atom_site_type_symbol
 _atom_site_label
 _atom_site_symmetry_multiplicity
 _atom_site_fract_x
 _atom_site_fract_y
 _atom_site_fract_z
 _atom_site_occupancy
  Ca2+  Ca0  1  0.16459799  0.07129104  0.17226024  1
  Ca2+  Ca1  1  0.17933833  0.08716080  0.50476494  1
  Ca2+  Ca2  1  0.16848448  0.08486015  0.84132582  1
  Ca2+  Ca3  1  0.15570929  0.57408936  0.17216642  1
  Ca2+  Ca4  1  0.16983809  0.57821370  0.50148825  1
  Ca2+  Ca5  1  0.17022220  0.57897821  0.84264552  1
  Ca2+  Ca6  1  0.66873866  0.08459300  0.17205708  1
  Ca2+  Ca7  1  0.66329792  0.08133362  0.50535793  1
  Ca2+  Ca8  1  0.67672340  0.09108419  0.83873264  1
  Ca2+  Ca9  1  0.67830396  0.58647239  0.17324410  1
  Ca2+  Ca10  1  0.66520789  0.57817503  0.50221391  1
  Ca2+  Ca11  1  0.66750894  0.58519618  0.84173785  1
  Ca2+  Ca12  1  0.08739848  0.33034033  0.16000701  1
  Ca2+  Ca13  1  0.08660388  0.32961529  0.49587763  1
  Ca2+  Ca14  1  0.08504015  0.32456327  0.83413649  1
  Ca2+  Ca15  1  0.08415600  0.82453503  0.15753469  1
  Ca2+  Ca16  1  0.08484482  0.82717077  0.49089984  1
  Ca2+  Ca17  1  0.07983961  0.83756856  0.83782382  1
  Ca2+  Ca18  1  0.58150596  0.32803759  0.16621714  1
  Ca2+  Ca19  1  0.57731184  0.32265420  0.48806457  1
  Ca2+  Ca20  1  0.58579430  0.32155683  0.82860241  1
  Ca2+  Ca21  1  0.58491221  0.83247162  0.16227166  1
  Ca2+  Ca22  1  0.58425743  0.83162873  0.49555564  1
  Ca2+  Ca23  1  0.58736168  0.81909077  0.83055805  1
  Ca2+  Ca24  1  0.32285492  0.41178222  0.17146089  1
  Ca2+  Ca25  1  0.33251846  0.41594302  0.50007590  1
  Ca2+  Ca26  1  0.32924431  0.42158763  0.83606941  1
  Ca2+  Ca27  1  0.32221797  0.92154733  0.17388991  1
  Ca2+  Ca28  1  0.32991546  0.92791245  0.50058134  1
  Ca2+  Ca29  1  0.32772723  0.92367050  0.83760462  1
  Ca2+  Ca30  1  0.82921240  0.42977092  0.17336103  1
  Ca2+  Ca31  1  0.82827900  0.41989879  0.49568619  1
  Ca2+  Ca32  1  0.83188475  0.42458237  0.84151021  1
  Ca2+  Ca33  1  0.83161570  0.91929359  0.16661725  1
  Ca2+  Ca34  1  0.82567597  0.92197700  0.50159021  1
  Ca2+  Ca35  1  0.83747427  0.92635546  0.83966561  1
  Ca2+  Ca36  1  0.42356275  0.16537028  0.16774898  1
  Ca2+  Ca37  1  0.42205257  0.16389201  0.48982156  1
  Ca2+  Ca38  1  0.42739474  0.16302245  0.82697115  1
  Ca2+  Ca39  1  0.42508411  0.66899804  0.15966483  1
  Ca2+  Ca40  1  0.41858287  0.66287832  0.49948034  1
  Ca2+  Ca41  1  0.42482497  0.66320081  0.82640261  1
  Ca2+  Ca42  1  0.92107013  0.16758723  0.15705034  1
  Ca2+  Ca43  1  0.92057227  0.16307740  0.50223615  1
  Ca2+  Ca44  1  0.92800896  0.15462216  0.82997109  1
  Ca2+  Ca45  1  0.92163448  0.66886438  0.15880859  1
  Ca2+  Ca46  1  0.92309550  0.66639720  0.48932939  1
  Ca2+  Ca47  1  0.91783101  0.67101472  0.83715182  1
  Al0+  Al48  1  0.00012973  0.00021254  0.00247077  1
  Al0+  Al49  1  -0.00142331  -0.00206892  0.33733108  1
  Al0+  Al50  1  -0.00173513  -0.00084585  0.66176696  1
  Al0+  Al51  1  -0.00052439  0.50036749  0.00280641  1
  Al0+  Al52  1  0.00099426  0.49932349  0.33979221  1
  Al0+  Al53  1  -0.00194003  0.49964729  0.66731084  1
  Al0+  Al54  1  0.50060662  0.00078528  -0.00628301  1
  Al0+  Al55  1  0.50094630  -0.00175582  0.33574943  1
  Al0+  Al56  1  0.49859341  -0.00388541  0.66918751  1
  Al0+  Al57  1  0.49869741  0.49892783  -0.00366842  1
  Al0+  Al58  1  0.50005411  0.49840325  0.33016968  1
  Al0+  Al59  1  0.49970761  0.49904512  0.66689914  1
  Al0+  Al60  1  0.25203041  0.25190100  -0.00093637  1
  Al0+  Al61  1  0.25093437  0.25074938  0.33710527  1
  Al0+  Al62  1  0.24944048  0.24923546  0.66884970  1
  Al0+  Al63  1  0.25109538  0.75069955  -0.00087695  1
  Al0+  Al64  1  0.25033616  0.74898157  0.33157407  1
  Al0+  Al65  1  0.24974346  0.74867034  0.67138083  1
  Al0+  Al66  1  0.75002166  0.25148220  0.00097113  1
  Al0+  Al67  1  0.75233579  0.25199039  0.33272713  1
  Al0+  Al68  1  0.75076753  0.25050954  0.66604648  1
  Al0+  Al69  1  0.75027442  0.75164006  -0.00513700  1
  Al0+  Al70  1  0.75272771  0.75321592  0.34225906  1
  Al0+  Al71  1  0.75036718  0.74902744  0.66095940  1
  Al0+  Al72  1  0.17981531  0.42910780  0.34778908  1
  Al0+  Al73  1  0.57009464  0.68001003  0.98879670  1
  Al0+  Al74  1  0.07210162  0.67648662  0.98392997  1
  Al0+  Al75  1  0.17681630  0.92568725  0.34882470  1
  Al0+  Al76  1  0.32053837  0.57010702  0.68052121  1
  Al0+  Al77  1  0.67725157  0.42882458  0.34793485  1
  Al0+  Al78  1  0.07065160  0.17927556  0.65206586  1
  Al0+  Al79  1  0.81837657  0.57262133  0.01217335  1
  Al0+  Al80  1  0.17967256  0.93027488  0.01334743  1
  Al0+  Al81  1  0.32151932  0.07135615  0.68253651  1
  Al0+  Al82  1  0.92949193  0.82155740  0.98506853  1
  Al0+  Al83  1  0.31920369  0.06982092  0.34646794  1
  Al0+  Al84  1  0.57045414  0.67831310  0.65034150  1
  Al0+  Al85  1  0.07055901  0.17957977  0.98973657  1
  Al0+  Al86  1  0.42745086  0.32194900  0.31675711  1
  Al0+  Al87  1  0.18061269  0.43036143  0.01311125  1
  Al0+  Al88  1  0.07087244  0.67919271  0.32041617  1
  Al0+  Al89  1  0.57253634  0.17686841  0.31796431  1
  Al0+  Al90  1  0.82060473  0.07170188  0.01383170  1
  Al0+  Al91  1  0.57167899  0.17958608  0.98502897  1
  Al0+  Al92  1  0.67950329  0.93111835  0.34622709  1
  Al0+  Al93  1  0.57136086  0.17779299  0.65297021  1
  Al0+  Al94  1  0.82087886  0.57177163  0.34989442  1
  Al0+  Al95  1  0.81893820  0.07008599  0.68014184  1
  Si0+  Si96  1  0.42962286  0.82066408  0.31862001  1
  Si0+  Si97  1  0.67733137  0.92895003  0.01372341  1
  Si0+  Si98  1  0.92968473  0.82044659  0.64874044  1
  Si0+  Si99  1  0.32396637  0.57297648  0.34754224  1
  Si0+  Si100  1  0.67770462  0.92532585  0.68513662  1
  Si0+  Si101  1  0.42682816  0.82321280  0.98207141  1
  Si0+  Si102  1  0.42551129  0.82000148  0.64874344  1
  Si0+  Si103  1  0.92795020  0.32511896  0.64859392  1
  Si0+  Si104  1  0.67955703  0.43013429  0.68174320  1
  Si0+  Si105  1  0.17706276  0.92802165  0.68350318  1
  Si0+  Si106  1  0.42862413  0.32085456  0.65077598  1
  Si0+  Si107  1  0.17546517  0.42818092  0.68509708  1
  Si0+  Si108  1  0.32481911  0.07269751  0.01636376  1
  Si0+  Si109  1  0.92762800  0.32285300  0.98472454  1
  Si0+  Si110  1  0.93034054  0.32133092  0.31808635  1
  Si0+  Si111  1  0.82312659  0.07514469  0.35035521  1
  Si0+  Si112  1  0.67576762  0.42772397  0.01628290  1
  Si0+  Si113  1  0.32391031  0.57273657  0.01721890  1
  Si0+  Si114  1  0.82123155  0.57229812  0.68268386  1
  Si0+  Si115  1  0.07117737  0.67778123  0.65239349  1
  Si0+  Si116  1  0.92673452  0.82276362  0.31649304  1
  Si0+  Si117  1  0.57270917  0.67963308  0.32016604  1
  Si0+  Si118  1  0.42726886  0.32187454  0.97998429  1
  Si0+  Si119  1  0.07064953  0.17852850  0.31995374  1
  O2-  O120  1  0.25453752  0.00521546  0.05938193  1
  O2-  O121  1  0.24459348  0.00124944  0.39855872  1
  O2-  O122  1  0.24385399  -0.00128807  0.72783484  1
  O2-  O123  1  0.25145620  0.50849058  0.06128335  1
  O2-  O124  1  0.25580880  0.50364319  0.39194367  1
  O2-  O125  1  0.24429294  0.49744586  0.72771403  1
  O2-  O126  1  0.74276206  -0.00013585  0.05919982  1
  O2-  O127  1  0.74992024  0.01008141  0.39261656  1
  O2-  O128  1  0.74158208  -0.00139558  0.72861398  1
  O2-  O129  1  0.74175648  0.49986661  0.05858984  1
  O2-  O130  1  0.74538483  0.50347906  0.40023216  1
  O2-  O131  1  0.74938688  0.50226882  0.72473123  1
  O2-  O132  1  -0.00123402  0.24771770  0.27636201  1
  O2-  O133  1  -0.00231570  0.25632617  0.60577496  1
  O2-  O134  1  -0.00538424  0.25236922  0.94076799  1
  O2-  O135  1  -0.00201646  0.75593015  0.27435627  1
  O2-  O136  1  0.00115468  0.74873065  0.60846370  1
  O2-  O137  1  0.00195371  0.75013746  0.93336286  1
  O2-  O138  1  0.50105524  0.25012078  0.26851724  1
  O2-  O139  1  0.49247260  0.24780657  0.60662175  1
  O2-  O140  1  0.49671934  0.25335404  0.93685726  1
  O2-  O141  1  0.50098898  0.74915744  0.27684165  1
  O2-  O142  1  0.49564830  0.75272571  0.60352485  1
  O2-  O143  1  0.49411258  0.75204396  0.93930368  1
  O2-  O144  1  0.06905783  0.18061402  0.10311760  1
  O2-  O145  1  0.06889948  0.18054722  0.42532494  1
  O2-  O146  1  0.06948154  0.17959628  0.76535033  1
  O2-  O147  1  0.06904180  0.67598482  0.09745075  1
  O2-  O148  1  0.06973023  0.67969461  0.43454930  1
  O2-  O149  1  0.06931100  0.67667509  0.75704298  1
  O2-  O150  1  0.57109686  0.17899516  0.09766443  1
  O2-  O151  1  0.57028029  0.17687916  0.43187949  1
  O2-  O152  1  0.57307916  0.18265083  0.76625019  1
  O2-  O153  1  0.57025801  0.68285072  0.10232717  1
  O2-  O154  1  0.56991213  0.68038313  0.42535633  1
  O2-  O155  1  0.57087881  0.67896126  0.76363794  1
  O2-  O156  1  0.17841674  0.42936108  0.23479861  1
  O2-  O157  1  0.17424119  0.42967244  0.57949964  1
  O2-  O158  1  0.18353050  0.42958594  0.89975827  1
  O2-  O159  1  0.17841704  0.92626960  0.23520720  1
  O2-  O160  1  0.17922584  0.92615849  0.57802512  1
  O2-  O161  1  0.18097536  0.93332252  0.89982325  1
  O2-  O162  1  0.68060877  0.43104869  0.23433968  1
  O2-  O163  1  0.68041835  0.43110865  0.57701601  1
  O2-  O164  1  0.67770750  0.42722610  0.90995933  1
  O2-  O165  1  0.68107971  0.92753515  0.23309664  1
  O2-  O166  1  0.68007662  0.92415113  0.57937053  1
  O2-  O167  1  0.67837773  0.92816739  0.90812862  1
  O2-  O168  1  0.42607775  0.32289242  0.08510481  1
  O2-  O169  1  0.42788752  0.32124792  0.43070264  1
  O2-  O170  1  0.43203869  0.32271705  0.75656842  1
  O2-  O171  1  0.42817158  0.82352058  0.08796767  1
  O2-  O172  1  0.42964239  0.81986515  0.42372982  1
  O2-  O173  1  0.42563836  0.81802256  0.75434993  1
  O2-  O174  1  0.92791221  0.32261484  0.09040139  1
  O2-  O175  1  0.93053249  0.32115875  0.42351039  1
  O2-  O176  1  0.92817294  0.33019790  0.75393096  1
  O2-  O177  1  0.92829922  0.82023569  0.09842311  1
  O2-  O178  1  0.92623060  0.82168486  0.42265621  1
  O2-  O179  1  0.92880447  0.82124857  0.75356141  1
  O2-  O180  1  0.31884057  0.06696907  0.23272688  1
  O2-  O181  1  0.32161300  0.07003318  0.56973770  1
  O2-  O182  1  0.32496240  0.07072374  0.91036948  1
  O2-  O183  1  0.32480279  0.57494161  0.24221289  1
  O2-  O184  1  0.31887644  0.56976331  0.56734029  1
  O2-  O185  1  0.32572425  0.56937004  0.91135821  1
  O2-  O186  1  0.82580601  0.07377911  0.24481654  1
  O2-  O187  1  0.81932566  0.06694917  0.56705177  1
  O2-  O188  1  0.82086636  0.06983039  0.90053805  1
  O2-  O189  1  0.82015347  0.57202455  0.23621154  1
  O2-  O190  1  0.82289192  0.57151056  0.57798795  1
  O2-  O191  1  0.81690620  0.56982724  0.89827031  1
  O2-  O192  1  0.04346824  0.08483174  0.27538941  1
  O2-  O193  1  0.03725875  0.08401918  0.59661785  1
  O2-  O194  1  0.03946887  0.08424065  0.93440897  1
  O2-  O195  1  0.03752339  0.58172545  0.27015657  1
  O2-  O196  1  0.04247623  0.58567609  0.60525080  1
  O2-  O197  1  0.04098685  0.57869123  0.93077119  1
  O2-  O198  1  0.54312608  0.07791246  0.26623759  1
  O2-  O199  1  0.54506489  0.07723786  0.60496368  1
  O2-  O200  1  0.54344327  0.08294865  0.92885890  1
  O2-  O201  1  0.54779295  0.58790257  0.27198052  1
  O2-  O202  1  0.53823023  0.58140443  0.59790236  1
  O2-  O203  1  0.54232101  0.58253411  0.93374896  1
  O2-  O204  1  0.16220392  0.20706849  0.27427452  1
  O2-  O205  1  0.16802114  0.21003310  0.59911283  1
  O2-  O206  1  0.16709692  0.21117607  0.93521154  1
  O2-  O207  1  0.16853087  0.70540154  0.26619558  1
  O2-  O208  1  0.16397000  0.70472345  0.60649264  1
  O2-  O209  1  0.17233040  0.70296714  0.93320920  1
  O2-  O210  1  0.67266790  0.20493088  0.26766717  1
  O2-  O211  1  0.66757886  0.21083964  0.59976292  1
  O2-  O212  1  0.66826838  0.21331412  0.93143831  1
  O2-  O213  1  0.66537545  0.71104102  0.27716843  1
  O2-  O214  1  0.66722137  0.70816514  0.59588697  1
  O2-  O215  1  0.66410415  0.71215295  0.93053365  1
  O2-  O216  1  0.08272264  0.45619353  0.06692439  1
  O2-  O217  1  0.08567229  0.46033002  0.40591083  1
  O2-  O218  1  0.08163651  0.45432539  0.73078506  1
  O2-  O219  1  0.08468289  0.96157525  0.06904671  1
  O2-  O220  1  0.07672176  0.94845326  0.40089260  1
  O2-  O221  1  0.08209480  0.95302489  0.72597512  1
  O2-  O222  1  0.58041541  0.44982479  0.05940606  1
  O2-  O223  1  0.57790540  0.45464471  0.40018323  1
  O2-  O224  1  0.58804221  0.45700652  0.72992347  1
  O2-  O225  1  0.58195265  0.95122648  0.05794655  1
  O2-  O226  1  0.58287740  0.95570935  0.40317501  1
  O2-  O227  1  0.58172106  0.94192586  0.72891222  1
  O2-  O228  1  0.21400082  0.33435618  0.06767911  1
  O2-  O229  1  0.20990418  0.33384846  0.40440972  1
  O2-  O230  1  0.20171969  0.33479604  0.73068044  1
  O2-  O231  1  0.20976595  0.83249822  0.06598253  1
  O2-  O232  1  0.20993381  0.82852097  0.40165295  1
  O2-  O233  1  0.20338623  0.83506851  0.73103914  1
  O2-  O234  1  0.70467912  0.33639735  0.06400196  1
  O2-  O235  1  0.71058498  0.33191639  0.40172340  1
  O2-  O236  1  0.70965485  0.33928386  0.72991006  1
  O2-  O237  1  0.70544290  0.83644965  0.06021759  1
  O2-  O238  1  0.71333002  0.83821465  0.40657846  1
  O2-  O239  1  0.71002861  0.83241386  0.72944556  1
  O2-  O240  1  0.45396376  0.42061728  0.26197239  1
  O2-  O241  1  0.45819132  0.41265633  0.60347946  1
  O2-  O242  1  0.45227479  0.41552503  0.93271702  1
  O2-  O243  1  0.45944227  0.91062210  0.26959697  1
  O2-  O244  1  0.45132870  0.91356024  0.60293405  1
  O2-  O245  1  0.45330021  0.91532243  0.93327734  1
  O2-  O246  1  0.96136655  0.41249538  0.27211730  1
  O2-  O247  1  0.95391041  0.41817157  0.59994027  1
  O2-  O248  1  0.95578275  0.41486805  0.93683755  1
  O2-  O249  1  0.94809316  0.91820755  0.27204006  1
  O2-  O250  1  0.95711120  0.91076515  0.59849853  1
  O2-  O251  1  0.96110655  0.91901078  0.93149175  1
  O2-  O252  1  0.32877611  0.29143176  0.26471409  1
  O2-  O253  1  0.33222627  0.30136275  0.60848269  1
  O2-  O254  1  0.33484121  0.29610365  0.93151084  1
  O2-  O255  1  0.33874952  0.79264050  0.26929026  1
  O2-  O256  1  0.33202586  0.79242381  0.60311200  1
  O2-  O257  1  0.33360489  0.79959229  0.93474714  1
  O2-  O258  1  0.83853098  0.29726023  0.26888921  1
  O2-  O259  1  0.83531803  0.29716289  0.60207202  1
  O2-  O260  1  0.83345839  0.30083981  0.93827354  1
  O2-  O261  1  0.83337338  0.79513982  0.27114657  1
  O2-  O262  1  0.83852689  0.79156531  0.60029788  1
  O2-  O263  1  0.83259291  0.79323446  0.92827417  1
  O2-  O264  1  0.41819593  0.04408153  0.06123722  1
  O2-  O265  1  0.41594004  0.03694432  0.40001889  1
  O2-  O266  1  0.41706426  0.03702506  0.73766125  1
  O2-  O267  1  0.41680818  0.54373377  0.06360620  1
  O2-  O268  1  0.41727854  0.54746522  0.39427130  1
  O2-  O269  1  0.41683063  0.53741462  0.73510558  1
  O2-  O270  1  0.91528872  0.03923141  0.06958979  1
  O2-  O271  1  0.91416361  0.04456083  0.39959187  1
  O2-  O272  1  0.91559734  0.03444460  0.73194164  1
  O2-  O273  1  0.91387641  0.54051761  0.06646086  1
  O2-  O274  1  0.91597121  0.53673041  0.40550600  1
  O2-  O275  1  0.91259296  0.54320158  0.73084099  1
  O2-  O276  1  0.30205230  0.16756012  0.05923748  1
  O2-  O277  1  0.29279774  0.16747534  0.40143038  1
  O2-  O278  1  0.29329187  0.16885503  0.73641982  1
  O2-  O279  1  0.30589244  0.66904399  0.05978071  1
  O2-  O280  1  0.29793349  0.66545941  0.39555711  1
  O2-  O281  1  0.29242673  0.66652626  0.73653673  1
  O2-  O282  1  0.79282662  0.16957598  0.06693230  1
  O2-  O283  1  0.80400291  0.17012035  0.39542989  1
  O2-  O284  1  0.79384541  0.16898074  0.73289401  1
  O2-  O285  1  0.78765356  0.66955404  0.06482778  1
  O2-  O286  1  0.79695004  0.67017074  0.40439772  1
  O2-  O287  1  0.79347724  0.66500674  0.72778880  1
