# generated using pymatgen
data_Ca2Al2SiO7
_symmetry_space_group_name_H-M   'P 1'
_cell_length_a   15.45406966
_cell_length_b   15.45462277
_cell_length_c   15.28145988
_cell_angle_alpha   90.00368828
_cell_angle_beta   90.00199444
_cell_angle_gamma   89.99699083
_symmetry_Int_Tables_number   1
_chemical_formula_structural   Ca2Al2SiO7
_chemical_formula_sum   'Ca48 Al48 Si24 O168'
_cell_volume   3649.77522178
_cell_formula_units_Z   24
loop_
 _symmetry_equiv_pos_site_id
 _symmetry_equiv_pos_as_xyz
  1  'x, y, z'
loop_
 _atom_type_symbol
 _atom_type_oxidation_number
  Ca2+  2.0
  Al0+  0.0
  Si0+  0.0
  O2-  -2.0
loop_
 _atom_site_type_symbol
 _atom_site_label
 _atom_site_symmetry_multiplicity
 _atom_site_fract_x
 _atom_site_fract_y
 _atom_site_fract_z
 _atom_site_occupancy
  Ca2+  Ca0  1  0.16721762  0.07725878  0.17321576  1
  Ca2+  Ca1  1  0.16517291  0.08711344  0.50444447  1
  Ca2+  Ca2  1  0.15560848  0.07281750  0.83422032  1
  Ca2+  Ca3  1  0.17032507  0.57859563  0.17353137  1
  Ca2+  Ca4  1  0.17508622  0.58112363  0.50585981  1
  Ca2+  Ca5  1  0.16631765  0.57162744  0.83408953  1
  Ca2+  Ca6  1  0.66327788  0.07455015  0.16789357  1
  Ca2+  Ca7  1  0.66662896  0.08340881  0.50637388  1
  Ca2+  Ca8  1  0.66677446  0.07978725  0.83884142  1
  Ca2+  Ca9  1  0.67614848  0.59279264  0.17131677  1
  Ca2+  Ca10  1  0.67442573  0.57670141  0.50565012  1
  Ca2+  Ca11  1  0.67746268  0.58137891  0.83531511  1
  Ca2+  Ca12  1  0.07465141  0.33676072  0.16202786  1
  Ca2+  Ca13  1  0.07821278  0.33401991  0.49496554  1
  Ca2+  Ca14  1  0.07756382  0.33625586  0.82654211  1
  Ca2+  Ca15  1  0.08935972  0.82466569  0.16420706  1
  Ca2+  Ca16  1  0.08003324  0.82928887  0.49900135  1
  Ca2+  Ca17  1  0.08012660  0.83575584  0.82401839  1
  Ca2+  Ca18  1  0.57292931  0.33747153  0.16573634  1
  Ca2+  Ca19  1  0.58113536  0.33397069  0.49833799  1
  Ca2+  Ca20  1  0.58578746  0.32931074  0.82351985  1
  Ca2+  Ca21  1  0.57850311  0.82428005  0.15720757  1
  Ca2+  Ca22  1  0.57900533  0.82212993  0.49274829  1
  Ca2+  Ca23  1  0.58133082  0.83013239  0.83500447  1
  Ca2+  Ca24  1  0.32760358  0.41750849  0.17565166  1
  Ca2+  Ca25  1  0.33214043  0.42532548  0.50621352  1
  Ca2+  Ca26  1  0.32145692  0.41801064  0.83384223  1
  Ca2+  Ca27  1  0.33316801  0.91949475  0.16921265  1
  Ca2+  Ca28  1  0.32460192  0.92384040  0.50504486  1
  Ca2+  Ca29  1  0.32218440  0.91480352  0.83941003  1
  Ca2+  Ca30  1  0.83737962  0.42387617  0.17069015  1
  Ca2+  Ca31  1  0.83700019  0.42310474  0.50669981  1
  Ca2+  Ca32  1  0.83943171  0.42403424  0.83680401  1
  Ca2+  Ca33  1  0.82466943  0.91350730  0.16795463  1
  Ca2+  Ca34  1  0.83547684  0.91637058  0.50627439  1
  Ca2+  Ca35  1  0.83026380  0.91756346  0.83907540  1
  Ca2+  Ca36  1  0.40857941  0.17072344  0.16936937  1
  Ca2+  Ca37  1  0.41852262  0.17251701  0.49396471  1
  Ca2+  Ca38  1  0.42511062  0.16585304  0.82786143  1
  Ca2+  Ca39  1  0.42895816  0.66415405  0.15968734  1
  Ca2+  Ca40  1  0.41987829  0.65835256  0.49088250  1
  Ca2+  Ca41  1  0.41716698  0.66784498  0.83218324  1
  Ca2+  Ca42  1  0.92024238  0.17978362  0.16438801  1
  Ca2+  Ca43  1  0.92915884  0.17992778  0.49601270  1
  Ca2+  Ca44  1  0.92057058  0.18125003  0.82243529  1
  Ca2+  Ca45  1  0.92163924  0.65652814  0.16552236  1
  Ca2+  Ca46  1  0.91787652  0.66506341  0.49621140  1
  Ca2+  Ca47  1  0.91151854  0.67013806  0.82833234  1
  Al0+  Al48  1  0.00094604  -0.00004158  0.00835133  1
  Al0+  Al49  1  -0.00329407  -0.00020546  0.32887991  1
  Al0+  Al50  1  -0.00149648  0.00035756  0.66222309  1
  Al0+  Al51  1  0.00085696  0.49996998  0.00325168  1
  Al0+  Al52  1  -0.00065276  0.50216581  0.33075909  1
  Al0+  Al53  1  0.00170192  0.50343882  0.66981238  1
  Al0+  Al54  1  0.49948134  -0.00071843  0.00118040  1
  Al0+  Al55  1  0.49809859  -0.00081390  0.33902252  1
  Al0+  Al56  1  0.49926193  -0.00095483  0.66166647  1
  Al0+  Al57  1  0.50193508  0.49909519  -0.00821201  1
  Al0+  Al58  1  0.50110802  0.49867354  0.32687463  1
  Al0+  Al59  1  0.50235573  0.50091893  0.67567288  1
  Al0+  Al60  1  0.24860556  0.24911635  0.00231051  1
  Al0+  Al61  1  0.25029565  0.24703201  0.33072884  1
  Al0+  Al62  1  0.25311009  0.24986436  0.66879674  1
  Al0+  Al63  1  0.25105335  0.74951839  0.00000126  1
  Al0+  Al64  1  0.24870977  0.75101008  0.33366888  1
  Al0+  Al65  1  0.25074656  0.75318846  0.67357696  1
  Al0+  Al66  1  0.75050241  0.25256602  -0.00235148  1
  Al0+  Al67  1  0.74945583  0.24751370  0.32861050  1
  Al0+  Al68  1  0.75007996  0.24891899  0.66042539  1
  Al0+  Al69  1  0.75051386  0.75006129  0.00461722  1
  Al0+  Al70  1  0.74865902  0.74943268  0.33550295  1
  Al0+  Al71  1  0.74816967  0.75033473  0.66479681  1
  Al0+  Al72  1  0.32345682  0.57333566  0.68306792  1
  Al0+  Al73  1  0.57015160  0.67853534  0.32042735  1
  Al0+  Al74  1  0.17789121  0.93271352  0.67903877  1
  Al0+  Al75  1  0.93058134  0.32185025  0.98423456  1
  Al0+  Al76  1  0.57110562  0.17762857  0.65300392  1
  Al0+  Al77  1  0.92870813  0.32263256  0.31671082  1
  Al0+  Al78  1  0.92726317  0.82009957  0.65488209  1
  Al0+  Al79  1  0.93044486  0.32549988  0.65113720  1
  Al0+  Al80  1  0.81906579  0.56980959  0.01536599  1
  Al0+  Al81  1  0.82153736  0.57238738  0.68149277  1
  Al0+  Al82  1  0.07144690  0.68088855  0.32071022  1
  Al0+  Al83  1  0.17803702  0.92706804  0.01555462  1
  Al0+  Al84  1  0.07269845  0.17880587  0.65314774  1
  Al0+  Al85  1  0.57439489  0.67844580  0.98129660  1
  Al0+  Al86  1  0.43033659  0.31992434  0.32130514  1
  Al0+  Al87  1  0.82101031  0.56999639  0.34847977  1
  Al0+  Al88  1  0.42862940  0.82147527  0.98391171  1
  Al0+  Al89  1  0.31940237  0.07086847  0.34878846  1
  Al0+  Al90  1  0.18023023  0.42918501  0.01586573  1
  Al0+  Al91  1  0.67928385  0.93042893  0.01315502  1
  Al0+  Al92  1  0.32244982  0.57056557  0.34320593  1
  Al0+  Al93  1  0.68082108  0.42634019  0.68107446  1
  Al0+  Al94  1  0.07212335  0.17758754  0.31589154  1
  Al0+  Al95  1  0.17930913  0.42748562  0.67976292  1
  Si0+  Si96  1  0.32433310  0.07163005  0.68384446  1
  Si0+  Si97  1  0.57161481  0.17457639  0.31535197  1
  Si0+  Si98  1  0.57023620  0.17954543  0.98690934  1
  Si0+  Si99  1  0.42630126  0.32050646  0.98353024  1
  Si0+  Si100  1  0.67900181  0.92929640  0.35067549  1
  Si0+  Si101  1  0.07198424  0.17662511  0.98343320  1
  Si0+  Si102  1  0.67627608  0.42547145  0.01760584  1
  Si0+  Si103  1  0.07130933  0.67921472  0.98477513  1
  Si0+  Si104  1  0.56942237  0.67954409  0.65099556  1
  Si0+  Si105  1  0.81987888  0.06943078  0.67955988  1
  Si0+  Si106  1  0.42976103  0.32349046  0.65201262  1
  Si0+  Si107  1  0.07425749  0.68010674  0.65216087  1
  Si0+  Si108  1  0.42779133  0.82291089  0.31833537  1
  Si0+  Si109  1  0.82024996  0.07140859  0.34912982  1
  Si0+  Si110  1  0.82169624  0.07469500  0.01711293  1
  Si0+  Si111  1  0.17511429  0.92782268  0.35107118  1
  Si0+  Si112  1  0.42712871  0.82103764  0.64984732  1
  Si0+  Si113  1  0.67697913  0.92896177  0.68049349  1
  Si0+  Si114  1  0.92606085  0.82194497  0.31499080  1
  Si0+  Si115  1  0.32365716  0.57042824  0.01672467  1
  Si0+  Si116  1  0.32252428  0.07122501  0.01655030  1
  Si0+  Si117  1  0.67780505  0.42547702  0.34758856  1
  Si0+  Si118  1  0.17836031  0.42848208  0.34840927  1
  Si0+  Si119  1  0.93030132  0.82204348  0.98793114  1
  O2-  O120  1  0.25363454  0.00197599  0.05958156  1
  O2-  O121  1  0.24123236  -0.00065541  0.39472572  1
  O2-  O122  1  0.25066446  0.00857359  0.72797183  1
  O2-  O123  1  0.25784706  0.50052370  0.06292064  1
  O2-  O124  1  0.24800747  0.49676234  0.39174637  1
  O2-  O125  1  0.25079613  0.50057279  0.73035866  1
  O2-  O126  1  0.75310618  0.00551324  0.06156563  1
  O2-  O127  1  0.74955759  0.00034414  0.39304830  1
  O2-  O128  1  0.74741728  0.00013052  0.72321198  1
  O2-  O129  1  0.74232782  0.49643553  0.06168235  1
  O2-  O130  1  0.74930267  0.49099464  0.39196169  1
  O2-  O131  1  0.75549645  0.49503090  0.73196675  1
  O2-  O132  1  0.00299170  0.25252661  0.26640554  1
  O2-  O133  1  0.00730929  0.25696957  0.60334818  1
  O2-  O134  1  0.00365697  0.24497459  0.93882092  1
  O2-  O135  1  -0.00397065  0.75447841  0.27154895  1
  O2-  O136  1  0.00138114  0.74503401  0.60852417  1
  O2-  O137  1  0.00269255  0.75367905  0.94416941  1
  O2-  O138  1  0.50401086  0.24432764  0.27172291  1
  O2-  O139  1  0.49823081  0.25439761  0.60772929  1
  O2-  O140  1  0.50048689  0.25118830  0.94364536  1
  O2-  O141  1  0.49275740  0.75093662  0.27442771  1
  O2-  O142  1  0.49416595  0.74611334  0.60790928  1
  O2-  O143  1  0.49924789  0.74850331  0.93244900  1
  O2-  O144  1  0.07103059  0.17694165  0.08888361  1
  O2-  O145  1  0.06994370  0.17831729  0.42929388  1
  O2-  O146  1  0.06543101  0.17416653  0.76668383  1
  O2-  O147  1  0.07072157  0.67938804  0.09015118  1
  O2-  O148  1  0.07278068  0.68310343  0.43369300  1
  O2-  O149  1  0.07512626  0.68302461  0.75808806  1
  O2-  O150  1  0.56932492  0.17906176  0.09200481  1
  O2-  O151  1  0.57151151  0.17357669  0.42073175  1
  O2-  O152  1  0.56855141  0.17335175  0.76666501  1
  O2-  O153  1  0.57352350  0.68117888  0.09525952  1
  O2-  O154  1  0.56968196  0.68021258  0.43396839  1
  O2-  O155  1  0.57209984  0.68423331  0.75559953  1
  O2-  O156  1  0.17977365  0.43067499  0.24240481  1
  O2-  O157  1  0.18163967  0.42873520  0.56595173  1
  O2-  O158  1  0.18076256  0.42972138  0.90304823  1
  O2-  O159  1  0.17808236  0.92674230  0.24530815  1
  O2-  O160  1  0.18028983  0.93088171  0.56616058  1
  O2-  O161  1  0.17471401  0.92984208  0.90241736  1
  O2-  O162  1  0.67646314  0.42624511  0.24183139  1
  O2-  O163  1  0.67649447  0.43034663  0.56732081  1
  O2-  O164  1  0.67816809  0.42145296  0.91245864  1
  O2-  O165  1  0.67885207  0.93026383  0.24542674  1
  O2-  O166  1  0.67723702  0.92929114  0.57514254  1
  O2-  O167  1  0.68124966  0.93338689  0.89971172  1
  O2-  O168  1  0.42604817  0.31994950  0.08877272  1
  O2-  O169  1  0.43332932  0.32036929  0.43421662  1
  O2-  O170  1  0.43041884  0.31984878  0.75802704  1
  O2-  O171  1  0.43101540  0.82228750  0.09779757  1
  O2-  O172  1  0.43090274  0.82436612  0.42426938  1
  O2-  O173  1  0.42969819  0.82455803  0.75459555  1
  O2-  O174  1  0.93045686  0.32070158  0.09708651  1
  O2-  O175  1  0.92869075  0.32186052  0.42994983  1
  O2-  O176  1  0.92947768  0.32198540  0.76498862  1
  O2-  O177  1  0.93011950  0.82147555  0.09300775  1
  O2-  O178  1  0.92573499  0.82294379  0.42068870  1
  O2-  O179  1  0.92687659  0.82183830  0.76847089  1
  O2-  O180  1  0.32277872  0.06592790  0.23563139  1
  O2-  O181  1  0.32716347  0.06799512  0.57842726  1
  O2-  O182  1  0.32505007  0.07180568  0.91104617  1
  O2-  O183  1  0.32224850  0.56822879  0.23021165  1
  O2-  O184  1  0.32386287  0.57210160  0.56881934  1
  O2-  O185  1  0.32042864  0.56926717  0.91125456  1
  O2-  O186  1  0.81743310  0.06980931  0.24382823  1
  O2-  O187  1  0.81817502  0.06635482  0.57435040  1
  O2-  O188  1  0.82087605  0.07350376  0.91126490  1
  O2-  O189  1  0.81871492  0.57148469  0.23531754  1
  O2-  O190  1  0.81734326  0.57498704  0.56797673  1
  O2-  O191  1  0.81983198  0.57092928  0.90260564  1
  O2-  O192  1  0.03961350  0.07971291  0.26265784  1
  O2-  O193  1  0.03779179  0.08383575  0.59688211  1
  O2-  O194  1  0.04485054  0.08154590  0.94066077  1
  O2-  O195  1  0.04141616  0.58545648  0.26436958  1
  O2-  O196  1  0.05336099  0.58593947  0.60645552  1
  O2-  O197  1  0.03952434  0.58896459  0.93765454  1
  O2-  O198  1  0.54267345  0.08090225  0.27058845  1
  O2-  O199  1  0.53905673  0.08205338  0.59619189  1
  O2-  O200  1  0.54175076  0.08828185  0.93877218  1
  O2-  O201  1  0.54347975  0.58307864  0.26318820  1
  O2-  O202  1  0.54510155  0.58542134  0.60703199  1
  O2-  O203  1  0.55021218  0.57882543  0.92854458  1
  O2-  O204  1  0.17241570  0.19831919  0.26424611  1
  O2-  O205  1  0.17573001  0.19763336  0.60577363  1
  O2-  O206  1  0.16674439  0.19965243  0.93868339  1
  O2-  O207  1  0.16718848  0.71258343  0.26369969  1
  O2-  O208  1  0.16665238  0.71126015  0.60625642  1
  O2-  O209  1  0.16387015  0.70380750  0.93841485  1
  O2-  O210  1  0.66529902  0.19611504  0.26805335  1
  O2-  O211  1  0.66704434  0.20381410  0.59588887  1
  O2-  O212  1  0.66250664  0.20494944  0.93893873  1
  O2-  O213  1  0.66515839  0.71519517  0.26712825  1
  O2-  O214  1  0.65848471  0.71269027  0.60116673  1
  O2-  O215  1  0.67190036  0.71370044  0.93058181  1
  O2-  O216  1  0.08597671  0.46450384  0.07067938  1
  O2-  O217  1  0.08538702  0.45645692  0.39310716  1
  O2-  O218  1  0.08268881  0.45805717  0.73520068  1
  O2-  O219  1  0.08273073  0.95664754  0.07349869  1
  O2-  O220  1  0.07867931  0.94999190  0.39254828  1
  O2-  O221  1  0.08006340  0.96178332  0.73278173  1
  O2-  O222  1  0.58006209  0.44861702  0.05987157  1
  O2-  O223  1  0.58547628  0.45493586  0.39360773  1
  O2-  O224  1  0.58467110  0.45595193  0.73806958  1
  O2-  O225  1  0.58375299  0.96256468  0.06903298  1
  O2-  O226  1  0.58748144  0.95621495  0.39912756  1
  O2-  O227  1  0.58506932  0.95737201  0.72711944  1
  O2-  O228  1  0.20839190  0.33119766  0.06886040  1
  O2-  O229  1  0.20279535  0.33369291  0.39079553  1
  O2-  O230  1  0.20869487  0.32978375  0.73553905  1
  O2-  O231  1  0.20947655  0.83026343  0.06901219  1
  O2-  O232  1  0.20350365  0.83579475  0.39862663  1
  O2-  O233  1  0.20968421  0.83833641  0.73634389  1
  O2-  O234  1  0.70190415  0.33223041  0.06518996  1
  O2-  O235  1  0.69784668  0.32899574  0.39076245  1
  O2-  O236  1  0.70249818  0.32438143  0.73042866  1
  O2-  O237  1  0.71226874  0.83634162  0.07011855  1
  O2-  O238  1  0.70778185  0.83838494  0.39915821  1
  O2-  O239  1  0.70529174  0.83800979  0.72811167  1
  O2-  O240  1  0.46216628  0.41324744  0.26115745  1
  O2-  O241  1  0.45683076  0.41788688  0.60851459  1
  O2-  O242  1  0.45140817  0.41192326  0.93481521  1
  O2-  O243  1  0.45891037  0.91490618  0.27191526  1
  O2-  O244  1  0.45927761  0.91027622  0.59955598  1
  O2-  O245  1  0.45879276  0.92014387  0.93129787  1
  O2-  O246  1  0.95605235  0.42115468  0.26404597  1
  O2-  O247  1  0.95531505  0.42600365  0.60101072  1
  O2-  O248  1  0.96508015  0.41809737  0.93248257  1
  O2-  O249  1  0.94724907  0.91583365  0.26780264  1
  O2-  O250  1  0.95848133  0.91488686  0.59766453  1
  O2-  O251  1  0.95528244  0.91597272  0.94263285  1
  O2-  O252  1  0.33496647  0.28845285  0.26521661  1
  O2-  O253  1  0.33671456  0.29874383  0.60524366  1
  O2-  O254  1  0.33564440  0.28897119  0.93604213  1
  O2-  O255  1  0.33242563  0.80370991  0.27468564  1
  O2-  O256  1  0.33350843  0.79790807  0.60415884  1
  O2-  O257  1  0.32949848  0.79369765  0.93109626  1
  O2-  O258  1  0.83057915  0.29038211  0.26349217  1
  O2-  O259  1  0.83373281  0.29220729  0.59791221  1
  O2-  O260  1  0.83250603  0.29285035  0.93145337  1
  O2-  O261  1  0.83210240  0.79528410  0.27042957  1
  O2-  O262  1  0.83035090  0.79258837  0.59855657  1
  O2-  O263  1  0.83864848  0.79378433  0.94105273  1
  O2-  O264  1  0.41542419  0.04616501  0.06458196  1
  O2-  O265  1  0.41539706  0.03869377  0.40495400  1
  O2-  O266  1  0.41599711  0.03849059  0.73064757  1
  O2-  O267  1  0.42004866  0.54614906  0.05750238  1
  O2-  O268  1  0.41931057  0.53814354  0.39629297  1
  O2-  O269  1  0.42048771  0.54610294  0.73867399  1
  O2-  O270  1  0.91389972  0.04861015  0.06530518  1
  O2-  O271  1  0.91191617  0.04230905  0.39583168  1
  O2-  O272  1  0.90971423  0.03909286  0.72838982  1
  O2-  O273  1  0.91533919  0.53724912  0.06884964  1
  O2-  O274  1  0.91942664  0.54370266  0.40097632  1
  O2-  O275  1  0.92228260  0.55418093  0.73323727  1
  O2-  O276  1  0.29583214  0.16413098  0.06363443  1
  O2-  O277  1  0.29344071  0.16877482  0.40273019  1
  O2-  O278  1  0.30853789  0.16729487  0.72858538  1
  O2-  O279  1  0.29786896  0.66412864  0.06165799  1
  O2-  O280  1  0.29432070  0.66843659  0.39682466  1
  O2-  O281  1  0.29594335  0.67156278  0.73650041  1
  O2-  O282  1  0.79320899  0.16750377  0.06313170  1
  O2-  O283  1  0.79167250  0.16296061  0.39640732  1
  O2-  O284  1  0.79265395  0.16132724  0.72632039  1
  O2-  O285  1  0.79105928  0.66669102  0.07060560  1
  O2-  O286  1  0.78817762  0.66674879  0.40167789  1
  O2-  O287  1  0.78571998  0.66968787  0.73426128  1
