# generated using pymatgen
data_Ca2Al2SiO7
_symmetry_space_group_name_H-M   'P 1'
_cell_length_a   15.46072663
_cell_length_b   15.46169833
_cell_length_c   15.28624506
_cell_angle_alpha   89.98549551
_cell_angle_beta   89.99685988
_cell_angle_gamma   90.00033432
_symmetry_Int_Tables_number   1
_chemical_formula_structural   Ca2Al2SiO7
_chemical_formula_sum   'Ca48 Al48 Si24 O168'
_cell_volume   3654.16286599
_cell_formula_units_Z   24
loop_
 _symmetry_equiv_pos_site_id
 _symmetry_equiv_pos_as_xyz
  1  'x, y, z'
loop_
 _atom_type_symbol
 _atom_type_oxidation_number
  Ca2+  2.0
  Al0+  0.0
  Si0+  0.0
  O2-  -2.0
loop_
 _atom_site_type_symbol
 _atom_site_label
 _atom_site_symmetry_multiplicity
 _atom_site_fract_x
 _atom_site_fract_y
 _atom_site_fract_z
 _atom_site_occupancy
  Ca2+  Ca0  1  0.17444299  0.08245522  0.17912067  1
  Ca2+  Ca1  1  0.16994157  0.08173644  0.50100538  1
  Ca2+  Ca2  1  0.18035755  0.08596295  0.83800125  1
  Ca2+  Ca3  1  0.15350941  0.57765953  0.17148486  1
  Ca2+  Ca4  1  0.16325067  0.57206619  0.50477790  1
  Ca2+  Ca5  1  0.16528191  0.57266796  0.83738797  1
  Ca2+  Ca6  1  0.66789970  0.08183361  0.17408708  1
  Ca2+  Ca7  1  0.66944764  0.08811229  0.50516493  1
  Ca2+  Ca8  1  0.67111140  0.08951912  0.83215607  1
  Ca2+  Ca9  1  0.67970654  0.58527148  0.17444198  1
  Ca2+  Ca10  1  0.67610072  0.59055437  0.50421808  1
  Ca2+  Ca11  1  0.67656255  0.58831874  0.83549403  1
  Ca2+  Ca12  1  0.07702501  0.34065656  0.16727814  1
  Ca2+  Ca13  1  0.08253104  0.33267643  0.49138717  1
  Ca2+  Ca14  1  0.08268785  0.34104720  0.83495563  1
  Ca2+  Ca15  1  0.07760315  0.82707577  0.16307255  1
  Ca2+  Ca16  1  0.07731291  0.82764016  0.48638024  1
  Ca2+  Ca17  1  0.08004482  0.82783226  0.83292005  1
  Ca2+  Ca18  1  0.58205327  0.32678450  0.16606514  1
  Ca2+  Ca19  1  0.57497642  0.32487378  0.49621556  1
  Ca2+  Ca20  1  0.57248924  0.32798337  0.81961057  1
  Ca2+  Ca21  1  0.58341534  0.82788996  0.16870122  1
  Ca2+  Ca22  1  0.58158571  0.82254952  0.49663848  1
  Ca2+  Ca23  1  0.58165899  0.82598256  0.82649286  1
  Ca2+  Ca24  1  0.31763168  0.41705092  0.17266286  1
  Ca2+  Ca25  1  0.32163869  0.41627747  0.50817071  1
  Ca2+  Ca26  1  0.32367750  0.41308998  0.83381969  1
  Ca2+  Ca27  1  0.32430949  0.92542803  0.17564286  1
  Ca2+  Ca28  1  0.32886177  0.92504086  0.49955157  1
  Ca2+  Ca29  1  0.33838587  0.92854807  0.83720057  1
  Ca2+  Ca30  1  0.84459924  0.42568003  0.17098657  1
  Ca2+  Ca31  1  0.83793408  0.42783719  0.50221194  1
  Ca2+  Ca32  1  0.83609914  0.42791921  0.83946165  1
  Ca2+  Ca33  1  0.83613581  0.90993555  0.17245612  1
  Ca2+  Ca34  1  0.83476545  0.92186177  0.50463284  1
  Ca2+  Ca35  1  0.83417863  0.92080606  0.83519799  1
  Ca2+  Ca36  1  0.41587838  0.15912458  0.16711731  1
  Ca2+  Ca37  1  0.41892319  0.16349486  0.49824652  1
  Ca2+  Ca38  1  0.41738769  0.16884986  0.82201159  1
  Ca2+  Ca39  1  0.42449816  0.66213831  0.16469508  1
  Ca2+  Ca40  1  0.42722323  0.65444850  0.49756256  1
  Ca2+  Ca41  1  0.42183532  0.66363193  0.81996871  1
  Ca2+  Ca42  1  0.92611035  0.17832083  0.16471689  1
  Ca2+  Ca43  1  0.92233968  0.17347308  0.48926017  1
  Ca2+  Ca44  1  0.91543067  0.17428496  0.82664312  1
  Ca2+  Ca45  1  0.92426785  0.66923520  0.16470738  1
  Ca2+  Ca46  1  0.91843384  0.66880529  0.48938810  1
  Ca2+  Ca47  1  0.91811221  0.66353094  0.83533575  1
  Al0+  Al48  1  0.00144480  -0.00000964  -0.00416898  1
  Al0+  Al49  1  0.00017394  0.00151571  0.32949674  1
  Al0+  Al50  1  -0.00180964  0.00016342  0.67199989  1
  Al0+  Al51  1  -0.00039581  0.50039615  -0.00094226  1
  Al0+  Al52  1  -0.00097078  0.50207559  0.33726733  1
  Al0+  Al53  1  -0.00114409  0.50077610  0.67443448  1
  Al0+  Al54  1  0.50260986  -0.00080116  0.00324309  1
  Al0+  Al55  1  0.50134120  -0.00086098  0.33346237  1
  Al0+  Al56  1  0.50004168  -0.00298281  0.66617022  1
  Al0+  Al57  1  0.50082192  0.49724198  -0.00143580  1
  Al0+  Al58  1  0.50161380  0.49742861  0.32636012  1
  Al0+  Al59  1  0.49994992  0.49836238  0.65896495  1
  Al0+  Al60  1  0.25113071  0.25141197  0.00936374  1
  Al0+  Al61  1  0.25180400  0.25122212  0.33861315  1
  Al0+  Al62  1  0.24773580  0.24819928  0.67154000  1
  Al0+  Al63  1  0.25237930  0.75080576  -0.00518067  1
  Al0+  Al64  1  0.25212540  0.75060304  0.33403743  1
  Al0+  Al65  1  0.24814030  0.74911538  0.66787031  1
  Al0+  Al66  1  0.75054488  0.25004112  -0.00321071  1
  Al0+  Al67  1  0.74737032  0.25121459  0.32523698  1
  Al0+  Al68  1  0.75031860  0.25130426  0.66672071  1
  Al0+  Al69  1  0.74996543  0.75144507  0.00026642  1
  Al0+  Al70  1  0.74858457  0.74998844  0.33114155  1
  Al0+  Al71  1  0.74975366  0.75155338  0.66798746  1
  Al0+  Al72  1  0.57044230  0.67772118  0.31828983  1
  Al0+  Al73  1  0.17860879  0.42806446  0.68382657  1
  Al0+  Al74  1  0.18035412  0.43269019  0.01692840  1
  Al0+  Al75  1  0.57172880  0.17732945  0.65139768  1
  Al0+  Al76  1  0.81894700  0.57255198  0.68167833  1
  Al0+  Al77  1  0.32298224  0.57078406  0.67933465  1
  Al0+  Al78  1  0.32206883  0.07079441  0.35088275  1
  Al0+  Al79  1  0.17606635  0.92737094  0.34770571  1
  Al0+  Al80  1  0.92889849  0.32253688  0.32012141  1
  Al0+  Al81  1  0.81850067  0.57015279  0.34746124  1
  Al0+  Al82  1  0.07335306  0.67924911  0.32141345  1
  Al0+  Al83  1  0.92841909  0.82279899  0.32068858  1
  Al0+  Al84  1  0.81857680  0.57077369  0.01584655  1
  Al0+  Al85  1  0.07186709  0.67878945  0.98271068  1
  Al0+  Al86  1  0.57107521  0.67867877  0.65313402  1
  Al0+  Al87  1  0.07398662  0.17946728  0.32011378  1
  Al0+  Al88  1  0.92979852  0.32002472  0.98406994  1
  Al0+  Al89  1  0.42516921  0.31978232  0.65055185  1
  Al0+  Al90  1  0.92699428  0.82256187  0.98168849  1
  Al0+  Al91  1  0.32161702  0.06999800  0.01506726  1
  Al0+  Al92  1  0.32009853  0.06718611  0.68074615  1
  Al0+  Al93  1  0.56940571  0.17775743  0.31830764  1
  Al0+  Al94  1  0.17880110  0.43244936  0.34779563  1
  Al0+  Al95  1  0.82073532  0.07297385  0.67881991  1
  Si0+  Si96  1  0.06898159  0.17739544  0.65389302  1
  Si0+  Si97  1  0.92963469  0.82174576  0.65173018  1
  Si0+  Si98  1  0.68129219  0.93096822  0.01602309  1
  Si0+  Si99  1  0.56988129  0.67830201  0.98475953  1
  Si0+  Si100  1  0.82285837  0.07343748  0.01523502  1
  Si0+  Si101  1  0.32572197  0.57405851  0.01543148  1
  Si0+  Si102  1  0.42765896  0.32140958  0.31390411  1
  Si0+  Si103  1  0.17832532  0.92635437  0.01602823  1
  Si0+  Si104  1  0.67642292  0.42588331  0.01656340  1
  Si0+  Si105  1  0.67901614  0.92857009  0.68331902  1
  Si0+  Si106  1  0.67594981  0.42599820  0.34995540  1
  Si0+  Si107  1  0.42884002  0.31961353  0.98560225  1
  Si0+  Si108  1  0.92959389  0.32266255  0.65251509  1
  Si0+  Si109  1  0.82014907  0.07339498  0.34490908  1
  Si0+  Si110  1  0.32633015  0.57240135  0.34757187  1
  Si0+  Si111  1  0.43143817  0.82192100  0.98533218  1
  Si0+  Si112  1  0.06935990  0.67822414  0.65173525  1
  Si0+  Si113  1  0.07452602  0.17890368  0.98331732  1
  Si0+  Si114  1  0.42949435  0.82262015  0.31600834  1
  Si0+  Si115  1  0.67994195  0.92914789  0.34894606  1
  Si0+  Si116  1  0.57053739  0.17725079  0.98416425  1
  Si0+  Si117  1  0.42554862  0.82154501  0.64931321  1
  Si0+  Si118  1  0.67804694  0.42763653  0.68134497  1
  Si0+  Si119  1  0.17517761  0.92651383  0.68509939  1
  O2-  O120  1  0.24416653  -0.00216846  0.05987065  1
  O2-  O121  1  0.24609786  0.00132848  0.39845850  1
  O2-  O122  1  0.24708343  -0.00816239  0.72973157  1
  O2-  O123  1  0.25320420  0.51108079  0.06121113  1
  O2-  O124  1  0.25337370  0.50876527  0.39169486  1
  O2-  O125  1  0.25278822  0.49931511  0.73249379  1
  O2-  O126  1  0.75537109  -0.00096180  0.05797384  1
  O2-  O127  1  0.75194148  0.00004782  0.38867210  1
  O2-  O128  1  0.74335711  0.00151193  0.72737638  1
  O2-  O129  1  0.74460687  0.49428515  0.06131372  1
  O2-  O130  1  0.74398405  0.49494356  0.39434495  1
  O2-  O131  1  0.74286624  0.49873751  0.72778950  1
  O2-  O132  1  0.00280578  0.25220941  0.26994685  1
  O2-  O133  1  -0.00083163  0.24985243  0.61191030  1
  O2-  O134  1  0.00300540  0.24359784  0.93678502  1
  O2-  O135  1  0.00418814  0.75443626  0.27201092  1
  O2-  O136  1  0.00051750  0.75137378  0.60965806  1
  O2-  O137  1  -0.00006901  0.75144519  0.93193629  1
  O2-  O138  1  0.49367757  0.24974897  0.26932061  1
  O2-  O139  1  0.49718900  0.24655536  0.60185818  1
  O2-  O140  1  0.50028534  0.24888858  0.94298916  1
  O2-  O141  1  0.49272161  0.74886140  0.27081229  1
  O2-  O142  1  0.49005809  0.74766665  0.60701961  1
  O2-  O143  1  0.49495287  0.74460479  0.94201828  1
  O2-  O144  1  0.07345294  0.17949075  0.08855814  1
  O2-  O145  1  0.06957035  0.17908925  0.43438006  1
  O2-  O146  1  0.06709656  0.17569348  0.75919080  1
  O2-  O147  1  0.07104313  0.68092580  0.09596653  1
  O2-  O148  1  0.06870053  0.67836140  0.43556549  1
  O2-  O149  1  0.06815241  0.67917847  0.75668561  1
  O2-  O150  1  0.57069632  0.17633291  0.08922711  1
  O2-  O151  1  0.57155068  0.17881644  0.43074218  1
  O2-  O152  1  0.57135199  0.17974948  0.76581041  1
  O2-  O153  1  0.56942640  0.68007143  0.08980709  1
  O2-  O154  1  0.57101459  0.68120974  0.43120994  1
  O2-  O155  1  0.57255808  0.68373566  0.76692470  1
  O2-  O156  1  0.17932149  0.43391815  0.23460299  1
  O2-  O157  1  0.17478616  0.42995442  0.57048746  1
  O2-  O158  1  0.18370970  0.43000313  0.90412277  1
  O2-  O159  1  0.17918803  0.92754394  0.23389472  1
  O2-  O160  1  0.17223986  0.92879924  0.57995720  1
  O2-  O161  1  0.18095595  0.92671223  0.91010737  1
  O2-  O162  1  0.67467196  0.42718050  0.24408857  1
  O2-  O163  1  0.68223994  0.42554569  0.57609555  1
  O2-  O164  1  0.67368426  0.42684669  0.91103295  1
  O2-  O165  1  0.67871518  0.92948788  0.24326894  1
  O2-  O166  1  0.68203020  0.92508400  0.57794056  1
  O2-  O167  1  0.67756543  0.93230001  0.91110233  1
  O2-  O168  1  0.43125190  0.32076537  0.09049409  1
  O2-  O169  1  0.43024055  0.32364402  0.41897359  1
  O2-  O170  1  0.42722523  0.31747806  0.76522664  1
  O2-  O171  1  0.43505072  0.82311578  0.09010941  1
  O2-  O172  1  0.43344145  0.82567450  0.42127592  1
  O2-  O173  1  0.42991802  0.82412228  0.75549652  1
  O2-  O174  1  0.92948010  0.31874103  0.09667299  1
  O2-  O175  1  0.92783710  0.32027961  0.43428864  1
  O2-  O176  1  0.92943814  0.32170710  0.75783945  1
  O2-  O177  1  0.92570684  0.82261656  0.09459263  1
  O2-  O178  1  0.92565481  0.82127190  0.43493183  1
  O2-  O179  1  0.92992019  0.82262931  0.75659144  1
  O2-  O180  1  0.32319712  0.06606762  0.23695278  1
  O2-  O181  1  0.31919019  0.06584052  0.56855526  1
  O2-  O182  1  0.32346480  0.06844348  0.90161887  1
  O2-  O183  1  0.33003882  0.56866280  0.24173759  1
  O2-  O184  1  0.32000771  0.57039033  0.56589636  1
  O2-  O185  1  0.33048533  0.57020595  0.91029301  1
  O2-  O186  1  0.81651098  0.07318481  0.23952289  1
  O2-  O187  1  0.82260605  0.06979067  0.56572794  1
  O2-  O188  1  0.81826114  0.07463531  0.91006584  1
  O2-  O189  1  0.81781431  0.57026447  0.23442831  1
  O2-  O190  1  0.81980088  0.57281704  0.56882217  1
  O2-  O191  1  0.81481272  0.57036724  0.90235244  1
  O2-  O192  1  0.04483391  0.08288870  0.26437426  1
  O2-  O193  1  0.03938005  0.08575130  0.60688358  1
  O2-  O194  1  0.05441757  0.08391809  0.93750916  1
  O2-  O195  1  0.03762950  0.58383770  0.26815715  1
  O2-  O196  1  0.03763895  0.58658854  0.60676938  1
  O2-  O197  1  0.04004137  0.58167929  0.92949085  1
  O2-  O198  1  0.54150669  0.08014163  0.26378978  1
  O2-  O199  1  0.54783795  0.07644396  0.60191124  1
  O2-  O200  1  0.54288751  0.08510330  0.93732847  1
  O2-  O201  1  0.54408523  0.58102199  0.26194585  1
  O2-  O202  1  0.54845234  0.58151239  0.59728116  1
  O2-  O203  1  0.54759635  0.58435171  0.93873077  1
  O2-  O204  1  0.17398045  0.20511164  0.27008428  1
  O2-  O205  1  0.16105386  0.20352489  0.60795025  1
  O2-  O206  1  0.16811211  0.20954913  0.93939498  1
  O2-  O207  1  0.17436832  0.69971096  0.26971144  1
  O2-  O208  1  0.16256450  0.70234539  0.60574576  1
  O2-  O209  1  0.17215263  0.70488525  0.92999538  1
  O2-  O210  1  0.66375566  0.20943381  0.25964033  1
  O2-  O211  1  0.67053710  0.20754306  0.59977785  1
  O2-  O212  1  0.66293577  0.20356557  0.93739604  1
  O2-  O213  1  0.66358154  0.71515793  0.26240052  1
  O2-  O214  1  0.66559379  0.71763134  0.59953823  1
  O2-  O215  1  0.65932542  0.71269638  0.93754593  1
  O2-  O216  1  0.08256175  0.46177212  0.06797113  1
  O2-  O217  1  0.08328905  0.46241025  0.40399433  1
  O2-  O218  1  0.08222767  0.46087687  0.73887816  1
  O2-  O219  1  0.08256739  0.94852953  0.05855936  1
  O2-  O220  1  0.07661029  0.95485440  0.40002264  1
  O2-  O221  1  0.08366915  0.95542413  0.73396022  1
  O2-  O222  1  0.58262036  0.45074046  0.06350821  1
  O2-  O223  1  0.58184337  0.45146219  0.39460383  1
  O2-  O224  1  0.58254952  0.44954128  0.72459788  1
  O2-  O225  1  0.59179519  0.96196495  0.06660666  1
  O2-  O226  1  0.58938362  0.95758206  0.39730665  1
  O2-  O227  1  0.58415413  0.94819577  0.72939451  1
  O2-  O228  1  0.21395772  0.33781544  0.07240175  1
  O2-  O229  1  0.20982190  0.33616177  0.40191226  1
  O2-  O230  1  0.20384612  0.32938892  0.73805490  1
  O2-  O231  1  0.20794846  0.83357749  0.06134077  1
  O2-  O232  1  0.20676789  0.82956009  0.40229892  1
  O2-  O233  1  0.19750289  0.83175795  0.72988867  1
  O2-  O234  1  0.70141748  0.33121046  0.06116846  1
  O2-  O235  1  0.70094528  0.33156251  0.39416331  1
  O2-  O236  1  0.70537208  0.33582193  0.73077342  1
  O2-  O237  1  0.70523167  0.83837664  0.06383782  1
  O2-  O238  1  0.70691739  0.83772977  0.39688170  1
  O2-  O239  1  0.71038949  0.83849480  0.73377851  1
  O2-  O240  1  0.45675223  0.41224012  0.26354020  1
  O2-  O241  1  0.45336209  0.41683148  0.59547638  1
  O2-  O242  1  0.45622448  0.41126117  0.93662768  1
  O2-  O243  1  0.46376744  0.91213784  0.26672089  1
  O2-  O244  1  0.45763286  0.91174383  0.60083005  1
  O2-  O245  1  0.46843998  0.91076408  0.93651487  1
  O2-  O246  1  0.95952358  0.42027231  0.26829135  1
  O2-  O247  1  0.95907326  0.41476769  0.60701060  1
  O2-  O248  1  0.96135832  0.41596419  0.93028775  1
  O2-  O249  1  0.95012955  0.92192719  0.26670942  1
  O2-  O250  1  0.95670613  0.91473575  0.60588313  1
  O2-  O251  1  0.95364646  0.92256129  0.92876514  1
  O2-  O252  1  0.33359176  0.29716882  0.26924810  1
  O2-  O253  1  0.32586526  0.29050281  0.60088686  1
  O2-  O254  1  0.33679758  0.29050717  0.94023439  1
  O2-  O255  1  0.33450711  0.80322070  0.27096590  1
  O2-  O256  1  0.32943785  0.80290588  0.60611191  1
  O2-  O257  1  0.33830096  0.80405303  0.93695494  1
  O2-  O258  1  0.83147849  0.29514299  0.26480944  1
  O2-  O259  1  0.83750296  0.29671349  0.60584816  1
  O2-  O260  1  0.83220308  0.29020378  0.92969702  1
  O2-  O261  1  0.83095094  0.79238391  0.26707572  1
  O2-  O262  1  0.83718028  0.79498632  0.60583521  1
  O2-  O263  1  0.82729335  0.79441556  0.92963375  1
  O2-  O264  1  0.41816760  0.03598715  0.06774667  1
  O2-  O265  1  0.41995750  0.03656549  0.40198600  1
  O2-  O266  1  0.41773218  0.03642026  0.73457264  1
  O2-  O267  1  0.41835013  0.54381003  0.06274141  1
  O2-  O268  1  0.41901199  0.54094825  0.39298573  1
  O2-  O269  1  0.42424274  0.54630765  0.72909614  1
  O2-  O270  1  0.91743828  0.05059596  0.05849447  1
  O2-  O271  1  0.91267740  0.04946853  0.39167877  1
  O2-  O272  1  0.91449074  0.03979668  0.73744796  1
  O2-  O273  1  0.91561670  0.53952391  0.06656446  1
  O2-  O274  1  0.91351621  0.53976773  0.40401710  1
  O2-  O275  1  0.91311505  0.53922271  0.73802981  1
  O2-  O276  1  0.29477607  0.16638700  0.07012885  1
  O2-  O277  1  0.30001186  0.17059661  0.40214316  1
  O2-  O278  1  0.28789132  0.16251133  0.73647411  1
  O2-  O279  1  0.30815872  0.67123241  0.05716181  1
  O2-  O280  1  0.31112826  0.66890884  0.39051848  1
  O2-  O281  1  0.29773126  0.67098899  0.73196617  1
  O2-  O282  1  0.79081777  0.16373802  0.06300281  1
  O2-  O283  1  0.78835577  0.16435724  0.39159167  1
  O2-  O284  1  0.79182509  0.16960273  0.73486944  1
  O2-  O285  1  0.78478219  0.66746272  0.06758586  1
  O2-  O286  1  0.78444120  0.66683877  0.40027808  1
  O2-  O287  1  0.78755417  0.66901493  0.73604297  1
