# generated using pymatgen
data_Ca2Al2SiO7
_symmetry_space_group_name_H-M   'P 1'
_cell_length_a   15.46688624
_cell_length_b   15.46571406
_cell_length_c   15.28886441
_cell_angle_alpha   90.00742491
_cell_angle_beta   90.00254737
_cell_angle_gamma   90.02439738
_symmetry_Int_Tables_number   1
_chemical_formula_structural   Ca2Al2SiO7
_chemical_formula_sum   'Ca48 Al48 Si24 O168'
_cell_volume   3657.19446220
_cell_formula_units_Z   24
loop_
 _symmetry_equiv_pos_site_id
 _symmetry_equiv_pos_as_xyz
  1  'x, y, z'
loop_
 _atom_type_symbol
 _atom_type_oxidation_number
  Ca2+  2.0
  Al0+  0.0
  Si0+  0.0
  O2-  -2.0
loop_
 _atom_site_type_symbol
 _atom_site_label
 _atom_site_symmetry_multiplicity
 _atom_site_fract_x
 _atom_site_fract_y
 _atom_site_fract_z
 _atom_site_occupancy
  Ca2+  Ca0  1  0.18011746  0.08155844  0.17413641  1
  Ca2+  Ca1  1  0.17850729  0.07637853  0.50105544  1
  Ca2+  Ca2  1  0.17952652  0.08682643  0.83596619  1
  Ca2+  Ca3  1  0.17432411  0.57041035  0.17500951  1
  Ca2+  Ca4  1  0.16875551  0.57810648  0.50368959  1
  Ca2+  Ca5  1  0.16050969  0.57409619  0.83471592  1
  Ca2+  Ca6  1  0.66801419  0.08385369  0.16837034  1
  Ca2+  Ca7  1  0.66621219  0.06872736  0.50708479  1
  Ca2+  Ca8  1  0.67322352  0.08375485  0.83414111  1
  Ca2+  Ca9  1  0.67075310  0.57625281  0.18112647  1
  Ca2+  Ca10  1  0.66006869  0.57739108  0.50333076  1
  Ca2+  Ca11  1  0.65854064  0.57712533  0.83108287  1
  Ca2+  Ca12  1  0.08058433  0.33802875  0.16028158  1
  Ca2+  Ca13  1  0.08178321  0.33872024  0.49917784  1
  Ca2+  Ca14  1  0.07356615  0.33907733  0.82685637  1
  Ca2+  Ca15  1  0.08814968  0.83420840  0.16712110  1
  Ca2+  Ca16  1  0.08505013  0.83051475  0.49435253  1
  Ca2+  Ca17  1  0.08382512  0.82467578  0.82348714  1
  Ca2+  Ca18  1  0.57649864  0.32875820  0.15797768  1
  Ca2+  Ca19  1  0.58945142  0.33205817  0.49457498  1
  Ca2+  Ca20  1  0.58018930  0.32730462  0.83048927  1
  Ca2+  Ca21  1  0.58295823  0.83170344  0.17147049  1
  Ca2+  Ca22  1  0.57934132  0.83114662  0.49278706  1
  Ca2+  Ca23  1  0.57983305  0.82872932  0.82114527  1
  Ca2+  Ca24  1  0.32562363  0.41466879  0.17417150  1
  Ca2+  Ca25  1  0.32448885  0.42375817  0.50341234  1
  Ca2+  Ca26  1  0.31991892  0.41164865  0.83988055  1
  Ca2+  Ca27  1  0.33485065  0.92699810  0.17592080  1
  Ca2+  Ca28  1  0.34578141  0.92358334  0.50206119  1
  Ca2+  Ca29  1  0.34220038  0.92669782  0.83303251  1
  Ca2+  Ca30  1  0.82823136  0.41995445  0.17312138  1
  Ca2+  Ca31  1  0.82366696  0.42053722  0.50321650  1
  Ca2+  Ca32  1  0.83032458  0.40900741  0.83229913  1
  Ca2+  Ca33  1  0.82747387  0.92533303  0.17363690  1
  Ca2+  Ca34  1  0.82028242  0.91920518  0.50742467  1
  Ca2+  Ca35  1  0.82899487  0.92645027  0.83660831  1
  Ca2+  Ca36  1  0.41915718  0.16768480  0.15829152  1
  Ca2+  Ca37  1  0.41180989  0.16542695  0.49632763  1
  Ca2+  Ca38  1  0.41520214  0.16680163  0.83373895  1
  Ca2+  Ca39  1  0.41648856  0.66703899  0.17046412  1
  Ca2+  Ca40  1  0.42564081  0.67553979  0.49123382  1
  Ca2+  Ca41  1  0.42092912  0.67731812  0.81975666  1
  Ca2+  Ca42  1  0.91850387  0.17395570  0.15571959  1
  Ca2+  Ca43  1  0.91006972  0.17242690  0.49942359  1
  Ca2+  Ca44  1  0.90966743  0.17402377  0.82711459  1
  Ca2+  Ca45  1  0.91443822  0.66549336  0.16623383  1
  Ca2+  Ca46  1  0.92258309  0.65859189  0.49667313  1
  Ca2+  Ca47  1  0.92496089  0.66695873  0.82523728  1
  Al0+  Al48  1  -0.00178964  -0.00036479  0.00299839  1
  Al0+  Al49  1  0.00305699  0.00256077  0.33441923  1
  Al0+  Al50  1  0.00262644  0.00164586  0.66945012  1
  Al0+  Al51  1  -0.00061160  0.50042023  0.00024830  1
  Al0+  Al52  1  -0.00168915  0.49954511  0.33674354  1
  Al0+  Al53  1  -0.00128008  0.49886538  0.66121074  1
  Al0+  Al54  1  0.50130901  -0.00201018  0.00028990  1
  Al0+  Al55  1  0.50269355  0.00075848  0.33469315  1
  Al0+  Al56  1  0.50166317  0.00188779  0.67289992  1
  Al0+  Al57  1  0.49834221  0.50025003  -0.00349315  1
  Al0+  Al58  1  0.49887044  0.49847933  0.33548637  1
  Al0+  Al59  1  0.49800383  0.49969708  0.66926322  1
  Al0+  Al60  1  0.24834924  0.24868175  0.00533363  1
  Al0+  Al61  1  0.24851477  0.24807646  0.33978932  1
  Al0+  Al62  1  0.24784496  0.25020540  0.67378778  1
  Al0+  Al63  1  0.25025032  0.74803805  -0.00195304  1
  Al0+  Al64  1  0.24916407  0.74974721  0.33166555  1
  Al0+  Al65  1  0.25079211  0.75104503  0.65693467  1
  Al0+  Al66  1  0.74948147  0.24960530  -0.00272767  1
  Al0+  Al67  1  0.75129791  0.25221077  0.33245520  1
  Al0+  Al68  1  0.74901705  0.25234549  0.66748269  1
  Al0+  Al69  1  0.75031643  0.74983371  -0.00163893  1
  Al0+  Al70  1  0.75294319  0.75108607  0.33524501  1
  Al0+  Al71  1  0.75122635  0.74822206  0.66834222  1
  Al0+  Al72  1  0.17846539  0.42815147  0.34959163  1
  Al0+  Al73  1  0.57054240  0.17744414  0.98379908  1
  Al0+  Al74  1  0.17817019  0.43169913  0.68208475  1
  Al0+  Al75  1  0.67970306  0.92671685  0.68329693  1
  Al0+  Al76  1  0.82011986  0.07224113  0.01497378  1
  Al0+  Al77  1  0.57262728  0.67751750  0.31735358  1
  Al0+  Al78  1  0.17771402  0.92823286  0.34721788  1
  Al0+  Al79  1  0.93052822  0.32136850  0.98633514  1
  Al0+  Al80  1  0.32295781  0.06899882  0.34859124  1
  Al0+  Al81  1  0.06981282  0.67953372  0.65115784  1
  Al0+  Al82  1  0.57249093  0.67630913  0.65125484  1
  Al0+  Al83  1  0.67690780  0.43019500  0.68261970  1
  Al0+  Al84  1  0.67790751  0.42834196  0.34595330  1
  Al0+  Al85  1  0.17822343  0.43017741  0.01367736  1
  Al0+  Al86  1  0.92828009  0.31845319  0.64990818  1
  Al0+  Al87  1  0.82091773  0.57225423  0.34783167  1
  Al0+  Al88  1  0.32115661  0.06867093  0.01453124  1
  Al0+  Al89  1  0.32083627  0.07063269  0.68241835  1
  Al0+  Al90  1  0.43176478  0.82425496  0.65061413  1
  Al0+  Al91  1  0.42589061  0.32155815  0.98506704  1
  Al0+  Al92  1  0.32241033  0.57210077  0.34857793  1
  Al0+  Al93  1  0.68137308  0.93063977  0.34557774  1
  Al0+  Al94  1  0.42909997  0.82250599  0.31549338  1
  Al0+  Al95  1  0.82212999  0.07194375  0.68043930  1
  Si0+  Si96  1  0.06965143  0.68067750  0.98643571  1
  Si0+  Si97  1  0.42673538  0.31918364  0.32132962  1
  Si0+  Si98  1  0.67958196  0.92537940  0.01835602  1
  Si0+  Si99  1  0.07463445  0.17770479  0.64894450  1
  Si0+  Si100  1  0.82300403  0.57028393  0.68435431  1
  Si0+  Si101  1  0.07126088  0.17561103  0.98381567  1
  Si0+  Si102  1  0.57317807  0.67841048  0.98521960  1
  Si0+  Si103  1  0.93088207  0.82392557  0.31791905  1
  Si0+  Si104  1  0.32049027  0.57338299  0.68347497  1
  Si0+  Si105  1  0.67729993  0.42980841  0.01369339  1
  Si0+  Si106  1  0.92744159  0.82194395  0.98541672  1
  Si0+  Si107  1  0.32247525  0.57354722  0.01557756  1
  Si0+  Si108  1  0.07153206  0.17936005  0.31743716  1
  Si0+  Si109  1  0.57273499  0.18003490  0.31966749  1
  Si0+  Si110  1  0.06997495  0.67701954  0.31570373  1
  Si0+  Si111  1  0.42883384  0.81885025  0.98534355  1
  Si0+  Si112  1  0.92973023  0.32084107  0.31649089  1
  Si0+  Si113  1  0.81992165  0.57165817  0.01306379  1
  Si0+  Si114  1  0.82375062  0.07396051  0.34815901  1
  Si0+  Si115  1  0.17761177  0.92473264  0.01448654  1
  Si0+  Si116  1  0.92879755  0.82474035  0.65053747  1
  Si0+  Si117  1  0.17834738  0.92590327  0.68319830  1
  Si0+  Si118  1  0.42520226  0.31998499  0.65222738  1
  Si0+  Si119  1  0.56991028  0.18228368  0.65115300  1
  O2-  O120  1  0.24496344  -0.00581415  0.05859508  1
  O2-  O121  1  0.25626712  -0.00832171  0.39799991  1
  O2-  O122  1  0.24732368  -0.00638356  0.72810804  1
  O2-  O123  1  0.25847905  0.49976249  0.05846995  1
  O2-  O124  1  0.24893992  0.50166894  0.39854793  1
  O2-  O125  1  0.25167957  0.50652850  0.73053546  1
  O2-  O126  1  0.74573231  -0.00267069  0.06152813  1
  O2-  O127  1  0.75631420  0.00499226  0.39182458  1
  O2-  O128  1  0.75400071  -0.00280392  0.73193895  1
  O2-  O129  1  0.74740618  0.50228422  0.05495392  1
  O2-  O130  1  0.74369659  0.50566450  0.39628156  1
  O2-  O131  1  0.74993179  0.50693195  0.72970788  1
  O2-  O132  1  0.00112374  0.25062031  0.27412395  1
  O2-  O133  1  0.00180112  0.24185237  0.60395526  1
  O2-  O134  1  0.00335361  0.24479226  0.93923700  1
  O2-  O135  1  0.00121064  0.75164382  0.27431341  1
  O2-  O136  1  -0.00341703  0.75614220  0.60476136  1
  O2-  O137  1  0.00193591  0.75454025  0.94349442  1
  O2-  O138  1  0.50036215  0.25051097  0.27920733  1
  O2-  O139  1  0.49770940  0.25158547  0.60802572  1
  O2-  O140  1  0.49734201  0.24913185  0.93419725  1
  O2-  O141  1  0.49962085  0.74809679  0.26517443  1
  O2-  O142  1  0.50465708  0.75234943  0.60241820  1
  O2-  O143  1  0.50012474  0.74770413  0.94409474  1
  O2-  O144  1  0.06909434  0.17565101  0.08970039  1
  O2-  O145  1  0.07007011  0.17831931  0.42217067  1
  O2-  O146  1  0.07673527  0.18015007  0.75467393  1
  O2-  O147  1  0.06846779  0.68075353  0.09131232  1
  O2-  O148  1  0.06687920  0.67500874  0.42046717  1
  O2-  O149  1  0.06758546  0.68002224  0.76545908  1
  O2-  O150  1  0.57084702  0.18015409  0.09817346  1
  O2-  O151  1  0.57539170  0.18073150  0.42478263  1
  O2-  O152  1  0.57022957  0.18361319  0.75611590  1
  O2-  O153  1  0.57667603  0.67835800  0.08980744  1
  O2-  O154  1  0.57252019  0.67920252  0.43010392  1
  O2-  O155  1  0.56739065  0.67681864  0.76609808  1
  O2-  O156  1  0.17860766  0.42861647  0.23546924  1
  O2-  O157  1  0.18037803  0.43184735  0.56952389  1
  O2-  O158  1  0.17470401  0.43490941  0.90079464  1
  O2-  O159  1  0.17487350  0.93493010  0.23322533  1
  O2-  O160  1  0.17513294  0.92766086  0.57820398  1
  O2-  O161  1  0.17834547  0.92134494  0.90909738  1
  O2-  O162  1  0.68213259  0.42450534  0.23167636  1
  O2-  O163  1  0.67866478  0.42782013  0.57000134  1
  O2-  O164  1  0.67715359  0.43144703  0.90871377  1
  O2-  O165  1  0.68342294  0.93320488  0.23205968  1
  O2-  O166  1  0.67971823  0.92962093  0.56968545  1
  O2-  O167  1  0.68274165  0.92058935  0.91331718  1
  O2-  O168  1  0.42895260  0.32271134  0.09920138  1
  O2-  O169  1  0.42554790  0.31662118  0.42655372  1
  O2-  O170  1  0.42533075  0.31744685  0.75728612  1
  O2-  O171  1  0.42695528  0.81806322  0.08993149  1
  O2-  O172  1  0.43409527  0.82516469  0.42825138  1
  O2-  O173  1  0.43109543  0.82191200  0.76547465  1
  O2-  O174  1  0.93174667  0.32265554  0.09983970  1
  O2-  O175  1  0.92728709  0.31850795  0.42116932  1
  O2-  O176  1  0.92987832  0.31865494  0.76337615  1
  O2-  O177  1  0.92524630  0.81975532  0.09046269  1
  O2-  O178  1  0.93292754  0.82625551  0.42257688  1
  O2-  O179  1  0.93205675  0.82292664  0.75683208  1
  O2-  O180  1  0.32089019  0.07191599  0.23490255  1
  O2-  O181  1  0.31972018  0.07215033  0.56985476  1
  O2-  O182  1  0.31990850  0.06692450  0.90147615  1
  O2-  O183  1  0.32005721  0.56782185  0.23406133  1
  O2-  O184  1  0.31958915  0.57004519  0.57837041  1
  O2-  O185  1  0.31889688  0.57900534  0.91034238  1
  O2-  O186  1  0.82300367  0.07413394  0.24222614  1
  O2-  O187  1  0.81805206  0.07103196  0.56650346  1
  O2-  O188  1  0.82105561  0.06931057  0.90249236  1
  O2-  O189  1  0.82296052  0.56783489  0.23309252  1
  O2-  O190  1  0.82545180  0.56707362  0.57927518  1
  O2-  O191  1  0.82094836  0.57387881  0.90838943  1
  O2-  O192  1  0.04403736  0.08830549  0.26761188  1
  O2-  O193  1  0.05465092  0.08171943  0.60520151  1
  O2-  O194  1  0.04679026  0.08113903  0.93849962  1
  O2-  O195  1  0.03698737  0.58640084  0.26773629  1
  O2-  O196  1  0.03591610  0.58492575  0.59623941  1
  O2-  O197  1  0.03671422  0.59115147  0.93779148  1
  O2-  O198  1  0.54640784  0.08889320  0.27103378  1
  O2-  O199  1  0.54280407  0.08939585  0.60642124  1
  O2-  O200  1  0.54506028  0.07740063  0.93272306  1
  O2-  O201  1  0.54485568  0.57702706  0.26568857  1
  O2-  O202  1  0.54055670  0.57796364  0.60036717  1
  O2-  O203  1  0.54766349  0.58617370  0.93773922  1
  O2-  O204  1  0.16361243  0.20784568  0.27033831  1
  O2-  O205  1  0.16618112  0.20953610  0.60241394  1
  O2-  O206  1  0.16547048  0.20053528  0.93993824  1
  O2-  O207  1  0.16188108  0.70102608  0.26666928  1
  O2-  O208  1  0.16585169  0.70714901  0.59562052  1
  O2-  O209  1  0.16186924  0.70492462  0.93745935  1
  O2-  O210  1  0.66408444  0.20886245  0.27040418  1
  O2-  O211  1  0.66022304  0.21207936  0.60282307  1
  O2-  O212  1  0.66769951  0.20859694  0.93031146  1
  O2-  O213  1  0.67276726  0.70739617  0.26587714  1
  O2-  O214  1  0.67515713  0.69566528  0.60445196  1
  O2-  O215  1  0.66409755  0.70745454  0.93599430  1
  O2-  O216  1  0.08357038  0.46717503  0.06861365  1
  O2-  O217  1  0.07998393  0.45641684  0.40033847  1
  O2-  O218  1  0.08069788  0.46416825  0.73338086  1
  O2-  O219  1  0.08275438  0.94683673  0.05968933  1
  O2-  O220  1  0.08253109  0.96323490  0.40318743  1
  O2-  O221  1  0.08517211  0.95032641  0.73158556  1
  O2-  O222  1  0.58470813  0.45648212  0.06035389  1
  O2-  O223  1  0.57808898  0.44695215  0.39795582  1
  O2-  O224  1  0.57968276  0.45837014  0.73802890  1
  O2-  O225  1  0.58519168  0.94875594  0.06266447  1
  O2-  O226  1  0.58718469  0.96351702  0.40085027  1
  O2-  O227  1  0.58413791  0.95949544  0.73856691  1
  O2-  O228  1  0.20197808  0.33210731  0.06735191  1
  O2-  O229  1  0.20585872  0.33068524  0.40308073  1
  O2-  O230  1  0.20862481  0.33589398  0.73719955  1
  O2-  O231  1  0.20398783  0.83119533  0.06125831  1
  O2-  O232  1  0.19214244  0.82538214  0.39305391  1
  O2-  O233  1  0.20338677  0.83107216  0.72723750  1
  O2-  O234  1  0.70617495  0.33836388  0.05990373  1
  O2-  O235  1  0.71307073  0.33240960  0.40060326  1
  O2-  O236  1  0.71149770  0.33533715  0.73709462  1
  O2-  O237  1  0.71007145  0.83314638  0.06553482  1
  O2-  O238  1  0.71273242  0.83542097  0.39956953  1
  O2-  O239  1  0.70592839  0.82725012  0.73601991  1
  O2-  O240  1  0.45076777  0.41128365  0.27329464  1
  O2-  O241  1  0.44998634  0.41346993  0.60796839  1
  O2-  O242  1  0.45223086  0.42078851  0.93154076  1
  O2-  O243  1  0.46296072  0.92084111  0.26299950  1
  O2-  O244  1  0.46118925  0.92391735  0.60153131  1
  O2-  O245  1  0.45733848  0.91023621  0.93820817  1
  O2-  O246  1  0.95721801  0.41321955  0.26981856  1
  O2-  O247  1  0.96051907  0.41381426  0.59569298  1
  O2-  O248  1  0.96171149  0.41813459  0.93209426  1
  O2-  O249  1  0.96015816  0.91561211  0.26907513  1
  O2-  O250  1  0.95371738  0.91889791  0.60553778  1
  O2-  O251  1  0.95177334  0.91486140  0.93885079  1
  O2-  O252  1  0.33546339  0.28833439  0.27378902  1
  O2-  O253  1  0.33405282  0.28939833  0.60551100  1
  O2-  O254  1  0.32631414  0.29230051  0.93475270  1
  O2-  O255  1  0.32829566  0.79751601  0.26384888  1
  O2-  O256  1  0.33304141  0.79923875  0.59766744  1
  O2-  O257  1  0.33715484  0.79113901  0.93649382  1
  O2-  O258  1  0.83847147  0.29225590  0.26717711  1
  O2-  O259  1  0.83119819  0.28832192  0.59601725  1
  O2-  O260  1  0.83345321  0.29227288  0.93327809  1
  O2-  O261  1  0.83987379  0.79691210  0.26847226  1
  O2-  O262  1  0.83447852  0.79985998  0.60674250  1
  O2-  O263  1  0.83803561  0.79016349  0.93546450  1
  O2-  O264  1  0.41822360  0.03735975  0.06723800  1
  O2-  O265  1  0.42271206  0.04707235  0.40043688  1
  O2-  O266  1  0.41698503  0.04221450  0.73807524  1
  O2-  O267  1  0.41822245  0.55313658  0.05935494  1
  O2-  O268  1  0.41917702  0.54293547  0.40227588  1
  O2-  O269  1  0.41309439  0.54769240  0.73113697  1
  O2-  O270  1  0.91683301  0.04138005  0.07011518  1
  O2-  O271  1  0.91749480  0.05050580  0.39314433  1
  O2-  O272  1  0.92287839  0.04989674  0.73249707  1
  O2-  O273  1  0.91077144  0.54294366  0.06164454  1
  O2-  O274  1  0.91585097  0.53775716  0.40260958  1
  O2-  O275  1  0.91446158  0.53882325  0.73169473  1
  O2-  O276  1  0.29130989  0.16486558  0.06953827  1
  O2-  O277  1  0.28826284  0.16409691  0.40354986  1
  O2-  O278  1  0.28646889  0.16511266  0.73853055  1
  O2-  O279  1  0.29112814  0.66458764  0.06437942  1
  O2-  O280  1  0.29585452  0.67135880  0.39825564  1
  O2-  O281  1  0.29537372  0.66885508  0.72602079  1
  O2-  O282  1  0.78950829  0.16923966  0.06874502  1
  O2-  O283  1  0.79731595  0.16726056  0.39288758  1
  O2-  O284  1  0.78808086  0.16847090  0.73311110  1
  O2-  O285  1  0.79417957  0.66407414  0.06107787  1
  O2-  O286  1  0.80542671  0.67335368  0.39821689  1
  O2-  O287  1  0.80603055  0.66625048  0.72935974  1
