# generated using pymatgen
data_Ca2Al2SiO7
_symmetry_space_group_name_H-M   'P 1'
_cell_length_a   15.46677941
_cell_length_b   15.46428513
_cell_length_c   15.28837978
_cell_angle_alpha   90.00230993
_cell_angle_beta   89.99018229
_cell_angle_gamma   90.00126433
_symmetry_Int_Tables_number   1
_chemical_formula_structural   Ca2Al2SiO7
_chemical_formula_sum   'Ca48 Al48 Si24 O168'
_cell_volume   3656.71569590
_cell_formula_units_Z   24
loop_
 _symmetry_equiv_pos_site_id
 _symmetry_equiv_pos_as_xyz
  1  'x, y, z'
loop_
 _atom_type_symbol
 _atom_type_oxidation_number
  Ca2+  2.0
  Al0+  0.0
  Si0+  0.0
  O2-  -2.0
loop_
 _atom_site_type_symbol
 _atom_site_label
 _atom_site_symmetry_multiplicity
 _atom_site_fract_x
 _atom_site_fract_y
 _atom_site_fract_z
 _atom_site_occupancy
  Ca2+  Ca0  1  0.17732714  0.07993898  0.16963873  1
  Ca2+  Ca1  1  0.16546524  0.07912214  0.50212452  1
  Ca2+  Ca2  1  0.17277949  0.08446439  0.83842344  1
  Ca2+  Ca3  1  0.17900618  0.57705015  0.17433412  1
  Ca2+  Ca4  1  0.17675093  0.58209389  0.50040238  1
  Ca2+  Ca5  1  0.18011532  0.58556858  0.83903093  1
  Ca2+  Ca6  1  0.66732226  0.07789029  0.17042436  1
  Ca2+  Ca7  1  0.66563216  0.08178225  0.49814093  1
  Ca2+  Ca8  1  0.66650234  0.07991854  0.84504640  1
  Ca2+  Ca9  1  0.65449465  0.57670433  0.16383687  1
  Ca2+  Ca10  1  0.66451202  0.57490819  0.50792495  1
  Ca2+  Ca11  1  0.65889651  0.57222070  0.84094542  1
  Ca2+  Ca12  1  0.07603721  0.33997578  0.16051801  1
  Ca2+  Ca13  1  0.08826588  0.32888892  0.49545284  1
  Ca2+  Ca14  1  0.07715301  0.32663404  0.83027104  1
  Ca2+  Ca15  1  0.07911325  0.84286733  0.16974708  1
  Ca2+  Ca16  1  0.07240828  0.83918590  0.49208736  1
  Ca2+  Ca17  1  0.07523263  0.83418702  0.82694596  1
  Ca2+  Ca18  1  0.58297861  0.32193286  0.15638599  1
  Ca2+  Ca19  1  0.59146324  0.32272236  0.49814194  1
  Ca2+  Ca20  1  0.58608189  0.32638938  0.83408799  1
  Ca2+  Ca21  1  0.57718548  0.83279414  0.15884719  1
  Ca2+  Ca22  1  0.57071527  0.83573909  0.49113483  1
  Ca2+  Ca23  1  0.57210293  0.83630035  0.83369498  1
  Ca2+  Ca24  1  0.34203292  0.42794830  0.16999514  1
  Ca2+  Ca25  1  0.33579015  0.43002447  0.50474099  1
  Ca2+  Ca26  1  0.34056445  0.42610919  0.84250557  1
  Ca2+  Ca27  1  0.33715097  0.91851887  0.17118200  1
  Ca2+  Ca28  1  0.32961347  0.90808997  0.50143965  1
  Ca2+  Ca29  1  0.33734835  0.91955563  0.84097687  1
  Ca2+  Ca30  1  0.82868152  0.41278071  0.16449496  1
  Ca2+  Ca31  1  0.82690879  0.41884552  0.50531237  1
  Ca2+  Ca32  1  0.82228367  0.41140950  0.84003704  1
  Ca2+  Ca33  1  0.82069518  0.92538993  0.17383040  1
  Ca2+  Ca34  1  0.83123399  0.91703134  0.50001829  1
  Ca2+  Ca35  1  0.82588979  0.92201324  0.84344011  1
  Ca2+  Ca36  1  0.42698933  0.16845608  0.15606904  1
  Ca2+  Ca37  1  0.43205031  0.16681738  0.49335941  1
  Ca2+  Ca38  1  0.42949959  0.16354349  0.83264728  1
  Ca2+  Ca39  1  0.41436872  0.67493545  0.15987743  1
  Ca2+  Ca40  1  0.40855322  0.67287261  0.49715122  1
  Ca2+  Ca41  1  0.41635916  0.67166134  0.83394349  1
  Ca2+  Ca42  1  0.91363061  0.16492320  0.16088213  1
  Ca2+  Ca43  1  0.92113510  0.16315400  0.49552455  1
  Ca2+  Ca44  1  0.91644969  0.16832844  0.83264426  1
  Ca2+  Ca45  1  0.91812962  0.67297009  0.16373112  1
  Ca2+  Ca46  1  0.91391159  0.68101472  0.49309904  1
  Ca2+  Ca47  1  0.91747433  0.67452085  0.82755390  1
  Al0+  Al48  1  -0.00018571  0.00011876  0.00205402  1
  Al0+  Al49  1  0.00073883  0.00201815  0.33413312  1
  Al0+  Al50  1  -0.00014272  0.00076602  0.66052502  1
  Al0+  Al51  1  -0.00087628  0.49997221  -0.00733717  1
  Al0+  Al52  1  0.00059138  0.50008978  0.33835824  1
  Al0+  Al53  1  0.00064273  0.50025786  0.66692968  1
  Al0+  Al54  1  0.49849872  -0.00058825  0.00064483  1
  Al0+  Al55  1  0.50213683  -0.00016116  0.32902771  1
  Al0+  Al56  1  0.49962554  -0.00015415  0.65762232  1
  Al0+  Al57  1  0.50024282  0.50022001  0.00382741  1
  Al0+  Al58  1  0.50060112  0.49980453  0.34143094  1
  Al0+  Al59  1  0.49988095  0.49983058  0.67574393  1
  Al0+  Al60  1  0.24837302  0.24992859  0.00130243  1
  Al0+  Al61  1  0.25063479  0.25015077  0.33528742  1
  Al0+  Al62  1  0.25046449  0.24980472  0.66207979  1
  Al0+  Al63  1  0.24773491  0.74868620  0.00089387  1
  Al0+  Al64  1  0.24860973  0.75008691  0.33687815  1
  Al0+  Al65  1  0.24796316  0.74955178  0.66903367  1
  Al0+  Al66  1  0.75207569  0.25129704  -0.00059288  1
  Al0+  Al67  1  0.75287212  0.24929412  0.33306891  1
  Al0+  Al68  1  0.75113800  0.24926917  0.66591435  1
  Al0+  Al69  1  0.75054997  0.74847512  -0.00099591  1
  Al0+  Al70  1  0.74897019  0.75066687  0.33135681  1
  Al0+  Al71  1  0.74832031  0.75072629  0.66356125  1
  Al0+  Al72  1  0.17683996  0.42765057  0.34881779  1
  Al0+  Al73  1  0.67764022  0.92750749  0.35032309  1
  Al0+  Al74  1  0.82167155  0.07142935  0.01339862  1
  Al0+  Al75  1  0.42708433  0.32185924  0.98676499  1
  Al0+  Al76  1  0.92960380  0.32134946  0.98570081  1
  Al0+  Al77  1  0.32061308  0.07164662  0.01160990  1
  Al0+  Al78  1  0.68004320  0.43035057  0.01485576  1
  Al0+  Al79  1  0.57271124  0.18090906  0.31752905  1
  Al0+  Al80  1  0.92788241  0.82036178  0.65289374  1
  Al0+  Al81  1  0.32079335  0.57032314  0.01520747  1
  Al0+  Al82  1  0.68161436  0.42812138  0.68187640  1
  Al0+  Al83  1  0.42848201  0.81978719  0.65202986  1
  Al0+  Al84  1  0.32186647  0.57045801  0.35014275  1
  Al0+  Al85  1  0.18091146  0.93152031  0.34713527  1
  Al0+  Al86  1  0.57234497  0.67839700  0.98537481  1
  Al0+  Al87  1  0.57107925  0.17882389  0.98543021  1
  Al0+  Al88  1  0.82047056  0.07158493  0.35049437  1
  Al0+  Al89  1  0.42672838  0.82055935  0.98543956  1
  Al0+  Al90  1  0.67757174  0.92688464  0.01355820  1
  Al0+  Al91  1  0.42777063  0.81848773  0.31941209  1
  Al0+  Al92  1  0.07206496  0.18057040  0.65203657  1
  Al0+  Al93  1  0.92784832  0.82308274  0.31637537  1
  Al0+  Al94  1  0.57216684  0.17952922  0.65159910  1
  Al0+  Al95  1  0.31851696  0.57130604  0.68477442  1
  Si0+  Si96  1  0.67677901  0.92934283  0.68071146  1
  Si0+  Si97  1  0.68120362  0.42925801  0.34811965  1
  Si0+  Si98  1  0.17688798  0.92705324  0.01535253  1
  Si0+  Si99  1  0.82264525  0.57196381  0.34739779  1
  Si0+  Si100  1  0.82220442  0.57451691  0.68262998  1
  Si0+  Si101  1  0.42902599  0.32367875  0.65033745  1
  Si0+  Si102  1  0.57276223  0.67498215  0.31864403  1
  Si0+  Si103  1  0.57025947  0.67630616  0.65070597  1
  Si0+  Si104  1  0.07171052  0.67777465  0.64933261  1
  Si0+  Si105  1  0.82508447  0.57225485  0.01594267  1
  Si0+  Si106  1  0.17756770  0.42490503  0.68555000  1
  Si0+  Si107  1  0.17760926  0.93092077  0.68124223  1
  Si0+  Si108  1  0.07301767  0.17919237  0.31661588  1
  Si0+  Si109  1  0.92991571  0.82183184  0.98575251  1
  Si0+  Si110  1  0.17575043  0.42857372  0.01387771  1
  Si0+  Si111  1  0.06960310  0.67825971  0.31667248  1
  Si0+  Si112  1  0.07183593  0.17590361  0.98440275  1
  Si0+  Si113  1  0.42849453  0.32283581  0.31904815  1
  Si0+  Si114  1  0.32432134  0.07271500  0.35086274  1
  Si0+  Si115  1  0.06968378  0.67798486  0.98452996  1
  Si0+  Si116  1  0.32210284  0.07064580  0.67919842  1
  Si0+  Si117  1  0.92846788  0.32194583  0.64868375  1
  Si0+  Si118  1  0.93128499  0.32236293  0.31903886  1
  Si0+  Si119  1  0.82202022  0.06866472  0.68123958  1
  O2-  O120  1  0.24851018  -0.00649335  0.05732531  1
  O2-  O121  1  0.25712285  0.00312774  0.39665827  1
  O2-  O122  1  0.25065059  -0.00018127  0.72251659  1
  O2-  O123  1  0.24897772  0.49115188  0.05914733  1
  O2-  O124  1  0.25155974  0.49593980  0.39946498  1
  O2-  O125  1  0.24504208  0.49389816  0.73034391  1
  O2-  O126  1  0.74748248  0.00176008  0.06237382  1
  O2-  O127  1  0.75002330  -0.00114789  0.40180920  1
  O2-  O128  1  0.74909596  -0.00052046  0.72266289  1
  O2-  O129  1  0.75350449  0.50728702  0.06115520  1
  O2-  O130  1  0.74890057  0.50382548  0.38987287  1
  O2-  O131  1  0.75604225  0.50440908  0.72732553  1
  O2-  O132  1  0.00508427  0.25420972  0.27684717  1
  O2-  O133  1  0.00020615  0.25743789  0.60349073  1
  O2-  O134  1  0.00287706  0.24448016  0.94056494  1
  O2-  O135  1  0.00252497  0.74747692  0.27020327  1
  O2-  O136  1  -0.00045374  0.74275681  0.60547851  1
  O2-  O137  1  0.00009242  0.75065672  0.94257682  1
  O2-  O138  1  0.49499814  0.25347835  0.27378750  1
  O2-  O139  1  0.49818139  0.25585659  0.60531082  1
  O2-  O140  1  0.49745378  0.24925848  0.93480577  1
  O2-  O141  1  0.50405220  0.74397480  0.27597004  1
  O2-  O142  1  0.50223181  0.74421586  0.60503547  1
  O2-  O143  1  0.50097785  0.75089372  0.93482381  1
  O2-  O144  1  0.07193426  0.17522904  0.08984374  1
  O2-  O145  1  0.07145600  0.17889130  0.42195731  1
  O2-  O146  1  0.07043067  0.17952067  0.76509555  1
  O2-  O147  1  0.06779364  0.67489094  0.08930989  1
  O2-  O148  1  0.06589923  0.67835968  0.42238009  1
  O2-  O149  1  0.07127520  0.68064951  0.75533129  1
  O2-  O150  1  0.57088209  0.18058150  0.09881290  1
  O2-  O151  1  0.57313491  0.18444873  0.43132326  1
  O2-  O152  1  0.57195389  0.17658395  0.76399521  1
  O2-  O153  1  0.56977997  0.67883302  0.09917252  1
  O2-  O154  1  0.57361024  0.67263017  0.42451714  1
  O2-  O155  1  0.57103708  0.67750119  0.75573697  1
  O2-  O156  1  0.17141281  0.43196903  0.23555879  1
  O2-  O157  1  0.17825023  0.42556585  0.58012436  1
  O2-  O158  1  0.17319202  0.43215280  0.90830146  1
  O2-  O159  1  0.18030435  0.93498172  0.23406748  1
  O2-  O160  1  0.17665787  0.93164197  0.57630621  1
  O2-  O161  1  0.17244298  0.92846276  0.90933742  1
  O2-  O162  1  0.68160450  0.42917633  0.24343474  1
  O2-  O163  1  0.68462025  0.42954084  0.56782996  1
  O2-  O164  1  0.68307062  0.42995350  0.90185542  1
  O2-  O165  1  0.67836699  0.92708391  0.23728485  1
  O2-  O166  1  0.67699653  0.92956431  0.57590199  1
  O2-  O167  1  0.68110886  0.92728796  0.89881683  1
  O2-  O168  1  0.42980029  0.32060289  0.10066579  1
  O2-  O169  1  0.43091899  0.32262451  0.42501173  1
  O2-  O170  1  0.42800520  0.32158420  0.75548807  1
  O2-  O171  1  0.42394818  0.81831493  0.09871091  1
  O2-  O172  1  0.42737106  0.81605784  0.43299869  1
  O2-  O173  1  0.42914374  0.82300333  0.76449892  1
  O2-  O174  1  0.93323605  0.32586499  0.09893308  1
  O2-  O175  1  0.93023566  0.32247184  0.42426952  1
  O2-  O176  1  0.92818787  0.31951633  0.75400769  1
  O2-  O177  1  0.93244906  0.82150255  0.09052802  1
  O2-  O178  1  0.92964548  0.82029325  0.42980588  1
  O2-  O179  1  0.93063691  0.82039374  0.76649749  1
  O2-  O180  1  0.32063988  0.07402053  0.24535064  1
  O2-  O181  1  0.32108216  0.06948467  0.57418963  1
  O2-  O182  1  0.31771923  0.07088471  0.89773029  1
  O2-  O183  1  0.32154640  0.56943634  0.23677896  1
  O2-  O184  1  0.31635310  0.57140563  0.57184346  1
  O2-  O185  1  0.31681967  0.57196023  0.90205139  1
  O2-  O186  1  0.81954635  0.07289865  0.23744739  1
  O2-  O187  1  0.82336431  0.06789632  0.57639989  1
  O2-  O188  1  0.82543608  0.06689030  0.89904358  1
  O2-  O189  1  0.82717166  0.56916062  0.24271897  1
  O2-  O190  1  0.82060128  0.57424605  0.57663069  1
  O2-  O191  1  0.82843969  0.57104660  0.91037424  1
  O2-  O192  1  0.04217034  0.08950773  0.26822218  1
  O2-  O193  1  0.03875414  0.08570090  0.59615992  1
  O2-  O194  1  0.04605676  0.08262760  0.93662048  1
  O2-  O195  1  0.04139713  0.58476009  0.27154189  1
  O2-  O196  1  0.05165133  0.58193093  0.60519874  1
  O2-  O197  1  0.04068417  0.58922274  0.93198267  1
  O2-  O198  1  0.54440446  0.08370936  0.26531116  1
  O2-  O199  1  0.53882555  0.08545236  0.59427085  1
  O2-  O200  1  0.54233010  0.08046857  0.93277404  1
  O2-  O201  1  0.54649332  0.58032080  0.27439734  1
  O2-  O202  1  0.54509410  0.58141395  0.60655571  1
  O2-  O203  1  0.54174300  0.58031887  0.93397787  1
  O2-  O204  1  0.16677376  0.20246691  0.27062254  1
  O2-  O205  1  0.16880835  0.20757507  0.59539625  1
  O2-  O206  1  0.16438911  0.20202721  0.93676371  1
  O2-  O207  1  0.16334508  0.70369572  0.27222432  1
  O2-  O208  1  0.16317666  0.70770125  0.60281492  1
  O2-  O209  1  0.16035378  0.70685552  0.93587688  1
  O2-  O210  1  0.66885540  0.21546824  0.26567773  1
  O2-  O211  1  0.66890150  0.21124014  0.59760446  1
  O2-  O212  1  0.66943260  0.20855974  0.93362249  1
  O2-  O213  1  0.66669927  0.69667863  0.27199139  1
  O2-  O214  1  0.66454416  0.69967441  0.60431036  1
  O2-  O215  1  0.67340135  0.69934425  0.93279669  1
  O2-  O216  1  0.08403428  0.46167827  0.05994664  1
  O2-  O217  1  0.08011088  0.45802771  0.40593348  1
  O2-  O218  1  0.08186339  0.44887400  0.72923839  1
  O2-  O219  1  0.08545908  0.95629706  0.06387321  1
  O2-  O220  1  0.08561219  0.96553589  0.40191382  1
  O2-  O221  1  0.08651208  0.96183445  0.72888340  1
  O2-  O222  1  0.58477805  0.45989510  0.07145864  1
  O2-  O223  1  0.58997064  0.45322516  0.39866039  1
  O2-  O224  1  0.58528595  0.45659986  0.73627797  1
  O2-  O225  1  0.57862742  0.95189439  0.06512318  1
  O2-  O226  1  0.57927935  0.95878738  0.40251500  1
  O2-  O227  1  0.58485169  0.95969120  0.72607459  1
  O2-  O228  1  0.19119001  0.33254849  0.05805400  1
  O2-  O229  1  0.20096632  0.32725641  0.40011545  1
  O2-  O230  1  0.20217843  0.33016212  0.72973408  1
  O2-  O231  1  0.19692029  0.83261025  0.06107272  1
  O2-  O232  1  0.20581729  0.83397539  0.40204462  1
  O2-  O233  1  0.20106142  0.83818198  0.72855775  1
  O2-  O234  1  0.71529243  0.33562441  0.06899812  1
  O2-  O235  1  0.71548495  0.34014934  0.39642963  1
  O2-  O236  1  0.71508683  0.33186751  0.73485591  1
  O2-  O237  1  0.70856459  0.82883393  0.06558850  1
  O2-  O238  1  0.70493556  0.82762884  0.40203856  1
  O2-  O239  1  0.70333029  0.83636037  0.72637556  1
  O2-  O240  1  0.45654864  0.41703895  0.27580660  1
  O2-  O241  1  0.45572213  0.41814280  0.60645355  1
  O2-  O242  1  0.45802653  0.41954195  0.93523695  1
  O2-  O243  1  0.45630367  0.91622126  0.26741020  1
  O2-  O244  1  0.45859640  0.91484165  0.59498697  1
  O2-  O245  1  0.45369637  0.91928780  0.93236337  1
  O2-  O246  1  0.95694971  0.41526045  0.27247837  1
  O2-  O247  1  0.94867720  0.41846320  0.60523700  1
  O2-  O248  1  0.96115030  0.41594099  0.92707809  1
  O2-  O249  1  0.96338990  0.91891764  0.26464482  1
  O2-  O250  1  0.96258596  0.91447636  0.59743098  1
  O2-  O251  1  0.95999191  0.91266767  0.93714434  1
  O2-  O252  1  0.33327040  0.30141851  0.27477518  1
  O2-  O253  1  0.33555472  0.29929010  0.60329824  1
  O2-  O254  1  0.32608662  0.29916409  0.93591572  1
  O2-  O255  1  0.32992815  0.78905850  0.26734698  1
  O2-  O256  1  0.32979835  0.78937304  0.60153077  1
  O2-  O257  1  0.32715845  0.79203536  0.93303284  1
  O2-  O258  1  0.84084944  0.29259938  0.27078451  1
  O2-  O259  1  0.83693200  0.29279073  0.60088273  1
  O2-  O260  1  0.83474327  0.29083412  0.92950987  1
  O2-  O261  1  0.83179900  0.79034898  0.26340847  1
  O2-  O262  1  0.83093576  0.79178882  0.59778432  1
  O2-  O263  1  0.83897359  0.79424070  0.93726559  1
  O2-  O264  1  0.41614005  0.04321949  0.06720198  1
  O2-  O265  1  0.41864837  0.04836648  0.39441824  1
  O2-  O266  1  0.41389102  0.04077773  0.72515594  1
  O2-  O267  1  0.41653870  0.54192349  0.07049317  1
  O2-  O268  1  0.41973268  0.54328962  0.40680794  1
  O2-  O269  1  0.41567370  0.54304199  0.73797596  1
  O2-  O270  1  0.91947368  0.04158847  0.06750686  1
  O2-  O271  1  0.91982853  0.04397707  0.40179956  1
  O2-  O272  1  0.91365864  0.03908127  0.72803169  1
  O2-  O273  1  0.91735628  0.54197811  0.06257643  1
  O2-  O274  1  0.91143714  0.54178517  0.39943567  1
  O2-  O275  1  0.91799884  0.55270208  0.72660224  1
  O2-  O276  1  0.28738501  0.16653152  0.06856652  1
  O2-  O277  1  0.29798499  0.16591525  0.39767160  1
  O2-  O278  1  0.29434363  0.16313210  0.72501455  1
  O2-  O279  1  0.28384419  0.66522382  0.06868960  1
  O2-  O280  1  0.28755010  0.66662337  0.40370696  1
  O2-  O281  1  0.28363467  0.66719196  0.73858982  1
  O2-  O282  1  0.80023302  0.17158284  0.06399514  1
  O2-  O283  1  0.79322449  0.17080875  0.40408933  1
  O2-  O284  1  0.79720662  0.16205344  0.72627934  1
  O2-  O285  1  0.80466021  0.66705463  0.06117548  1
  O2-  O286  1  0.79691212  0.66434625  0.39405732  1
  O2-  O287  1  0.79651858  0.66830825  0.72859123  1
