# generated using pymatgen
data_Ca2Al2SiO7
_symmetry_space_group_name_H-M   'P 1'
_cell_length_a   15.45702250
_cell_length_b   15.45559362
_cell_length_c   15.28247221
_cell_angle_alpha   89.99377849
_cell_angle_beta   89.99670253
_cell_angle_gamma   89.99059259
_symmetry_Int_Tables_number   1
_chemical_formula_structural   Ca2Al2SiO7
_chemical_formula_sum   'Ca48 Al48 Si24 O168'
_cell_volume   3650.94368914
_cell_formula_units_Z   24
loop_
 _symmetry_equiv_pos_site_id
 _symmetry_equiv_pos_as_xyz
  1  'x, y, z'
loop_
 _atom_type_symbol
 _atom_type_oxidation_number
  Ca2+  2.0
  Al0+  0.0
  Si0+  0.0
  O2-  -2.0
loop_
 _atom_site_type_symbol
 _atom_site_label
 _atom_site_symmetry_multiplicity
 _atom_site_fract_x
 _atom_site_fract_y
 _atom_site_fract_z
 _atom_site_occupancy
  Ca2+  Ca0  1  0.17935331  0.08402488  0.17630548  1
  Ca2+  Ca1  1  0.17135087  0.08093471  0.50660068  1
  Ca2+  Ca2  1  0.17430793  0.08147159  0.83058129  1
  Ca2+  Ca3  1  0.16660444  0.57646659  0.17666066  1
  Ca2+  Ca4  1  0.16548867  0.58160916  0.50587794  1
  Ca2+  Ca5  1  0.17419470  0.59169697  0.83141167  1
  Ca2+  Ca6  1  0.67060713  0.08495297  0.17363961  1
  Ca2+  Ca7  1  0.68026370  0.08135587  0.50331034  1
  Ca2+  Ca8  1  0.67008457  0.08648282  0.83710879  1
  Ca2+  Ca9  1  0.65505833  0.57654007  0.17167100  1
  Ca2+  Ca10  1  0.66655056  0.58185448  0.50327299  1
  Ca2+  Ca11  1  0.66979353  0.58040138  0.83880604  1
  Ca2+  Ca12  1  0.08732863  0.32851347  0.17034263  1
  Ca2+  Ca13  1  0.08897728  0.32146319  0.49334813  1
  Ca2+  Ca14  1  0.08272103  0.32494125  0.82512921  1
  Ca2+  Ca15  1  0.07881449  0.83219296  0.17089271  1
  Ca2+  Ca16  1  0.07974704  0.82773772  0.49745690  1
  Ca2+  Ca17  1  0.07922227  0.83191371  0.81969726  1
  Ca2+  Ca18  1  0.58241467  0.33165741  0.16342605  1
  Ca2+  Ca19  1  0.57111763  0.33659332  0.49407083  1
  Ca2+  Ca20  1  0.58126950  0.32958070  0.83120915  1
  Ca2+  Ca21  1  0.57510190  0.82591218  0.16271650  1
  Ca2+  Ca22  1  0.57652381  0.82592969  0.48987230  1
  Ca2+  Ca23  1  0.57666201  0.83179012  0.83436033  1
  Ca2+  Ca24  1  0.33001802  0.41636666  0.17752681  1
  Ca2+  Ca25  1  0.33225300  0.41857744  0.50382408  1
  Ca2+  Ca26  1  0.33782405  0.41960797  0.82878215  1
  Ca2+  Ca27  1  0.34512785  0.92555901  0.17137516  1
  Ca2+  Ca28  1  0.33079594  0.92619025  0.50786991  1
  Ca2+  Ca29  1  0.32981328  0.92302855  0.83875888  1
  Ca2+  Ca30  1  0.81749452  0.41619507  0.17454401  1
  Ca2+  Ca31  1  0.82560845  0.42309421  0.50382987  1
  Ca2+  Ca32  1  0.83025120  0.42501282  0.83837031  1
  Ca2+  Ca33  1  0.83230430  0.92052674  0.17631393  1
  Ca2+  Ca34  1  0.84356205  0.92019720  0.50340856  1
  Ca2+  Ca35  1  0.83777310  0.92061330  0.83023356  1
  Ca2+  Ca36  1  0.41594217  0.16992574  0.16252694  1
  Ca2+  Ca37  1  0.40534433  0.17595601  0.49510892  1
  Ca2+  Ca38  1  0.41684504  0.16740895  0.82842156  1
  Ca2+  Ca39  1  0.42478614  0.67625232  0.16427882  1
  Ca2+  Ca40  1  0.41759802  0.67126224  0.49123009  1
  Ca2+  Ca41  1  0.41966809  0.66677346  0.82956468  1
  Ca2+  Ca42  1  0.92239331  0.16204857  0.16931896  1
  Ca2+  Ca43  1  0.92791615  0.15552766  0.49595434  1
  Ca2+  Ca44  1  0.92145987  0.16742594  0.82213887  1
  Ca2+  Ca45  1  0.92039291  0.66736977  0.16917927  1
  Ca2+  Ca46  1  0.92297362  0.67363241  0.49534594  1
  Ca2+  Ca47  1  0.92253239  0.67167197  0.81861892  1
  Al0+  Al48  1  0.00247315  -0.00033902  0.00014656  1
  Al0+  Al49  1  0.00253079  -0.00002247  0.32662845  1
  Al0+  Al50  1  -0.00004491  0.00043564  0.66897655  1
  Al0+  Al51  1  -0.00018676  0.50031391  0.00015579  1
  Al0+  Al52  1  -0.00154927  0.49748711  0.33391300  1
  Al0+  Al53  1  -0.00188151  0.49850926  0.66827419  1
  Al0+  Al54  1  0.50172637  0.00136739  -0.00409638  1
  Al0+  Al55  1  0.50291749  0.00241807  0.33800229  1
  Al0+  Al56  1  0.50246664  0.00055308  0.66917295  1
  Al0+  Al57  1  0.49928812  0.50019046  0.00022020  1
  Al0+  Al58  1  0.49764629  0.49835620  0.33041793  1
  Al0+  Al59  1  0.49814020  0.49817743  0.66749237  1
  Al0+  Al60  1  0.24948549  0.24928128  0.00213752  1
  Al0+  Al61  1  0.24964028  0.25062907  0.33174965  1
  Al0+  Al62  1  0.25031712  0.25074325  0.66432987  1
  Al0+  Al63  1  0.24809099  0.75098626  -0.00014947  1
  Al0+  Al64  1  0.24940461  0.75142939  0.32343735  1
  Al0+  Al65  1  0.25022145  0.74916729  0.67102068  1
  Al0+  Al66  1  0.75066132  0.25266828  -0.00007523  1
  Al0+  Al67  1  0.75040279  0.25091578  0.34506955  1
  Al0+  Al68  1  0.74840835  0.24873384  0.67009581  1
  Al0+  Al69  1  0.75165375  0.75127854  -0.00306662  1
  Al0+  Al70  1  0.75000332  0.74880637  0.32482853  1
  Al0+  Al71  1  0.74934302  0.74962279  0.66782566  1
  Al0+  Al72  1  0.32071102  0.57074695  0.67908946  1
  Al0+  Al73  1  0.57275167  0.18072095  0.98747976  1
  Al0+  Al74  1  0.42884223  0.31859247  0.31889441  1
  Al0+  Al75  1  0.07080057  0.17968300  0.31849152  1
  Al0+  Al76  1  0.82255374  0.06899925  0.34636085  1
  Al0+  Al77  1  0.42835709  0.82563721  0.32055435  1
  Al0+  Al78  1  0.32306206  0.07040438  0.34721136  1
  Al0+  Al79  1  0.57086314  0.67738971  0.98235445  1
  Al0+  Al80  1  0.17792709  0.42937271  0.34726805  1
  Al0+  Al81  1  0.82052765  0.57108676  0.67934994  1
  Al0+  Al82  1  0.43156878  0.31903659  0.65283182  1
  Al0+  Al83  1  0.67957668  0.43063718  0.01397010  1
  Al0+  Al84  1  0.67596485  0.43012931  0.34909632  1
  Al0+  Al85  1  0.17982030  0.92892162  0.68051668  1
  Al0+  Al86  1  0.92974684  0.82132148  0.31676180  1
  Al0+  Al87  1  0.92797552  0.82067376  0.65180505  1
  Al0+  Al88  1  0.57034825  0.67756129  0.31942497  1
  Al0+  Al89  1  0.42825271  0.82174106  0.98261230  1
  Al0+  Al90  1  0.07342612  0.67695936  0.65224287  1
  Al0+  Al91  1  0.82060972  0.06950574  0.68126104  1
  Al0+  Al92  1  0.32224653  0.07355489  0.68234395  1
  Al0+  Al93  1  0.07144559  0.67524987  0.31760844  1
  Al0+  Al94  1  0.32120381  0.06978748  0.01487806  1
  Al0+  Al95  1  0.06919412  0.18087023  0.65354125  1
  Si0+  Si96  1  0.06911262  0.67703808  0.98381730  1
  Si0+  Si97  1  0.67915681  0.92578238  0.34884879  1
  Si0+  Si98  1  0.92948475  0.32095509  0.98575165  1
  Si0+  Si99  1  0.67677539  0.92633790  0.68530767  1
  Si0+  Si100  1  0.57430708  0.17572268  0.64801909  1
  Si0+  Si101  1  0.92445469  0.32257340  0.65008661  1
  Si0+  Si102  1  0.42897868  0.82206281  0.65327652  1
  Si0+  Si103  1  0.82271495  0.07166435  0.01472708  1
  Si0+  Si104  1  0.32016118  0.57197441  0.01614965  1
  Si0+  Si105  1  0.67656800  0.42916925  0.68465328  1
  Si0+  Si106  1  0.07144644  0.17958906  0.98448134  1
  Si0+  Si107  1  0.42535604  0.32139023  0.98303536  1
  Si0+  Si108  1  0.68058393  0.92932879  0.01491337  1
  Si0+  Si109  1  0.31965545  0.57300686  0.34694738  1
  Si0+  Si110  1  0.17874702  0.92747117  0.34834383  1
  Si0+  Si111  1  0.93023241  0.82259339  0.98319509  1
  Si0+  Si112  1  0.92524948  0.32130004  0.31770716  1
  Si0+  Si113  1  0.82142664  0.57292518  0.34929976  1
  Si0+  Si114  1  0.57548782  0.18030379  0.32011792  1
  Si0+  Si115  1  0.17738305  0.42724731  0.68309787  1
  Si0+  Si116  1  0.56960148  0.67856474  0.65289827  1
  Si0+  Si117  1  0.17688898  0.92723159  0.01983272  1
  Si0+  Si118  1  0.17806778  0.42910457  0.01442597  1
  Si0+  Si119  1  0.82308541  0.57352918  0.01782347  1
  O2-  O120  1  0.24894780  -0.00712116  0.06262646  1
  O2-  O121  1  0.25196879  -0.00860526  0.39188522  1
  O2-  O122  1  0.25347543  -0.00138367  0.73243661  1
  O2-  O123  1  0.24932552  0.49970561  0.05665654  1
  O2-  O124  1  0.24732182  0.50916399  0.39256733  1
  O2-  O125  1  0.24233524  0.49967299  0.72751390  1
  O2-  O126  1  0.75180245  0.00087190  0.05707365  1
  O2-  O127  1  0.75115231  -0.00903594  0.39297140  1
  O2-  O128  1  0.74508137  -0.00363633  0.72921523  1
  O2-  O129  1  0.75050382  0.50912620  0.06169677  1
  O2-  O130  1  0.74923734  0.50754122  0.39323921  1
  O2-  O131  1  0.74807724  0.49510216  0.72836641  1
  O2-  O132  1  -0.00562594  0.25358276  0.27180542  1
  O2-  O133  1  -0.00695977  0.25430393  0.60629194  1
  O2-  O134  1  -0.00060868  0.24956184  0.94236101  1
  O2-  O135  1  -0.00049598  0.74703167  0.26623124  1
  O2-  O136  1  0.00018776  0.74807049  0.60361497  1
  O2-  O137  1  -0.00063642  0.74935942  0.94230434  1
  O2-  O138  1  0.50427549  0.24440972  0.27316847  1
  O2-  O139  1  0.50298523  0.24163091  0.60495406  1
  O2-  O140  1  0.49556100  0.25327316  0.94076458  1
  O2-  O141  1  0.50036972  0.75275432  0.27147471  1
  O2-  O142  1  0.49941352  0.75036682  0.61117613  1
  O2-  O143  1  0.49753474  0.74734691  0.93110492  1
  O2-  O144  1  0.07100771  0.18075516  0.08941771  1
  O2-  O145  1  0.07006980  0.17932811  0.43125032  1
  O2-  O146  1  0.06791988  0.18366482  0.76770746  1
  O2-  O147  1  0.06705566  0.67351404  0.08854200  1
  O2-  O148  1  0.07078655  0.67479488  0.43055229  1
  O2-  O149  1  0.07125061  0.67881799  0.76681261  1
  O2-  O150  1  0.57578204  0.18258281  0.10047139  1
  O2-  O151  1  0.57676251  0.18269181  0.42537132  1
  O2-  O152  1  0.57669110  0.17848203  0.75393521  1
  O2-  O153  1  0.56860795  0.67847738  0.09541510  1
  O2-  O154  1  0.56904918  0.67861854  0.43380508  1
  O2-  O155  1  0.56890992  0.67826009  0.75795848  1
  O2-  O156  1  0.18102402  0.42917478  0.23314138  1
  O2-  O157  1  0.17967225  0.42566516  0.57787408  1
  O2-  O158  1  0.17606000  0.42854906  0.90948094  1
  O2-  O159  1  0.17685803  0.93142707  0.24237489  1
  O2-  O160  1  0.18152710  0.92869647  0.56698459  1
  O2-  O161  1  0.17266436  0.92895634  0.91455473  1
  O2-  O162  1  0.67838470  0.42827001  0.23570417  1
  O2-  O163  1  0.67527338  0.43169104  0.57917473  1
  O2-  O164  1  0.68466876  0.42943136  0.90087144  1
  O2-  O165  1  0.67840215  0.92915586  0.24288466  1
  O2-  O166  1  0.67385392  0.92578077  0.58002365  1
  O2-  O167  1  0.68290655  0.92904399  0.90982034  1
  O2-  O168  1  0.42281546  0.32058114  0.08846857  1
  O2-  O169  1  0.42880408  0.31976399  0.43187254  1
  O2-  O170  1  0.43467277  0.32077300  0.76640512  1
  O2-  O171  1  0.43234406  0.82166948  0.09588432  1
  O2-  O172  1  0.42931698  0.82344207  0.43483802  1
  O2-  O173  1  0.43117971  0.82144263  0.75831686  1
  O2-  O174  1  0.92960909  0.32083684  0.09055583  1
  O2-  O175  1  0.92521555  0.32160898  0.42294871  1
  O2-  O176  1  0.92558758  0.32148267  0.75667396  1
  O2-  O177  1  0.93089313  0.82456844  0.08796268  1
  O2-  O178  1  0.93148048  0.82163947  0.42967953  1
  O2-  O179  1  0.92873693  0.81913677  0.76631235  1
  O2-  O180  1  0.32224677  0.07126089  0.23355619  1
  O2-  O181  1  0.31979186  0.07269481  0.56896400  1
  O2-  O182  1  0.31680283  0.07221253  0.90217170  1
  O2-  O183  1  0.31945551  0.56903335  0.24090714  1
  O2-  O184  1  0.32407968  0.56955045  0.56647705  1
  O2-  O185  1  0.31935637  0.57165789  0.91080840  1
  O2-  O186  1  0.81916579  0.06987307  0.23227502  1
  O2-  O187  1  0.82040905  0.06824634  0.56853525  1
  O2-  O188  1  0.82369393  0.07052775  0.90972752  1
  O2-  O189  1  0.82304858  0.56954141  0.24340641  1
  O2-  O190  1  0.81673235  0.57065648  0.56652060  1
  O2-  O191  1  0.82618931  0.57002241  0.91223499  1
  O2-  O192  1  0.04046888  0.08539826  0.26006023  1
  O2-  O193  1  0.03826011  0.08443447  0.60131360  1
  O2-  O194  1  0.04409078  0.08709466  0.93840429  1
  O2-  O195  1  0.04103467  0.57661260  0.26399620  1
  O2-  O196  1  0.04622475  0.57665447  0.60326580  1
  O2-  O197  1  0.04143839  0.58535072  0.93531094  1
  O2-  O198  1  0.55535490  0.08463517  0.27641926  1
  O2-  O199  1  0.55449984  0.07992042  0.60436510  1
  O2-  O200  1  0.54688257  0.08422922  0.93153564  1
  O2-  O201  1  0.53734240  0.58162268  0.26482644  1
  O2-  O202  1  0.54095924  0.58693372  0.60652321  1
  O2-  O203  1  0.54291088  0.57807091  0.93013205  1
  O2-  O204  1  0.16454050  0.21543086  0.26221070  1
  O2-  O205  1  0.16478612  0.21285383  0.59960163  1
  O2-  O206  1  0.16204008  0.21052107  0.93682927  1
  O2-  O207  1  0.16846171  0.70256810  0.26057995  1
  O2-  O208  1  0.17285256  0.70376920  0.60128517  1
  O2-  O209  1  0.16215766  0.70348539  0.93884394  1
  O2-  O210  1  0.66845518  0.20942564  0.27416309  1
  O2-  O211  1  0.66761054  0.20378098  0.60225703  1
  O2-  O212  1  0.66865853  0.21404307  0.93148537  1
  O2-  O213  1  0.66874539  0.70003746  0.26390268  1
  O2-  O214  1  0.66115747  0.70603122  0.60586721  1
  O2-  O215  1  0.67088893  0.70669168  0.93193659  1
  O2-  O216  1  0.08622310  0.45746623  0.06248194  1
  O2-  O217  1  0.07885039  0.45184071  0.39993796  1
  O2-  O218  1  0.08188789  0.44593016  0.72877666  1
  O2-  O219  1  0.08442395  0.95741603  0.06715585  1
  O2-  O220  1  0.08682388  0.95828230  0.39368410  1
  O2-  O221  1  0.08292807  0.95988883  0.73597625  1
  O2-  O222  1  0.58045989  0.45588797  0.06616399  1
  O2-  O223  1  0.57881674  0.46055400  0.40199171  1
  O2-  O224  1  0.58508679  0.45815625  0.73247391  1
  O2-  O225  1  0.58916523  0.95771378  0.06154298  1
  O2-  O226  1  0.58850711  0.95424554  0.39934555  1
  O2-  O227  1  0.58454320  0.95287760  0.73440460  1
  O2-  O228  1  0.20491224  0.33728194  0.06233404  1
  O2-  O229  1  0.21333261  0.33471721  0.40076559  1
  O2-  O230  1  0.20880598  0.33658716  0.73225932  1
  O2-  O231  1  0.19693911  0.83142542  0.06405003  1
  O2-  O232  1  0.19814711  0.83067507  0.38998052  1
  O2-  O233  1  0.20571971  0.83080310  0.73601181  1
  O2-  O234  1  0.71558514  0.33567609  0.06910460  1
  O2-  O235  1  0.70928068  0.33668766  0.40727665  1
  O2-  O236  1  0.69948375  0.33412739  0.72916831  1
  O2-  O237  1  0.70965835  0.83751912  0.06228783  1
  O2-  O238  1  0.70076447  0.82982533  0.39158683  1
  O2-  O239  1  0.70307500  0.83366514  0.73302718  1
  O2-  O240  1  0.45807088  0.41465798  0.26362913  1
  O2-  O241  1  0.46415221  0.41515635  0.59820829  1
  O2-  O242  1  0.45046171  0.41558116  0.93833002  1
  O2-  O243  1  0.46139415  0.92354967  0.26838994  1
  O2-  O244  1  0.45774785  0.91413724  0.60686241  1
  O2-  O245  1  0.46072960  0.91863942  0.92917680  1
  O2-  O246  1  0.94923998  0.41411891  0.26939122  1
  O2-  O247  1  0.94771939  0.41652765  0.60489348  1
  O2-  O248  1  0.95860658  0.41280612  0.93766269  1
  O2-  O249  1  0.96138694  0.91729399  0.25973491  1
  O2-  O250  1  0.95677979  0.91944300  0.60195490  1
  O2-  O251  1  0.96022369  0.91441560  0.93587112  1
  O2-  O252  1  0.33369036  0.28755426  0.26283053  1
  O2-  O253  1  0.33379276  0.29282456  0.59967610  1
  O2-  O254  1  0.33200571  0.29473374  0.93623662  1
  O2-  O255  1  0.33114905  0.80133494  0.26378581  1
  O2-  O256  1  0.33733558  0.79412554  0.60772635  1
  O2-  O257  1  0.32717397  0.79575802  0.93345657  1
  O2-  O258  1  0.83185706  0.29221195  0.27245442  1
  O2-  O259  1  0.82968008  0.29815247  0.60645034  1
  O2-  O260  1  0.83889471  0.29397151  0.93627357  1
  O2-  O261  1  0.83125950  0.79602131  0.26150473  1
  O2-  O262  1  0.82840353  0.79378827  0.60046433  1
  O2-  O263  1  0.83767456  0.79866906  0.93596421  1
  O2-  O264  1  0.42072788  0.04288694  0.06525338  1
  O2-  O265  1  0.42122263  0.04752826  0.40224704  1
  O2-  O266  1  0.42314887  0.04889209  0.73244027  1
  O2-  O267  1  0.41193521  0.54469037  0.06287816  1
  O2-  O268  1  0.41130697  0.54293665  0.39353489  1
  O2-  O269  1  0.41482803  0.53456691  0.73647038  1
  O2-  O270  1  0.91503924  0.04289790  0.06139717  1
  O2-  O271  1  0.92080052  0.03851561  0.39645405  1
  O2-  O272  1  0.91563958  0.03929133  0.73850239  1
  O2-  O273  1  0.91543817  0.54283949  0.06461929  1
  O2-  O274  1  0.91303545  0.54333353  0.39649637  1
  O2-  O275  1  0.91668579  0.54063395  0.73632595  1
  O2-  O276  1  0.28732043  0.16641013  0.06862146  1
  O2-  O277  1  0.28562690  0.16554345  0.39863131  1
  O2-  O278  1  0.29038526  0.17120788  0.73529457  1
  O2-  O279  1  0.29093292  0.66359091  0.06300267  1
  O2-  O280  1  0.29949061  0.66969047  0.38873487  1
  O2-  O281  1  0.29346598  0.66610427  0.73775739  1
  O2-  O282  1  0.79618919  0.16413729  0.06056637  1
  O2-  O283  1  0.79206194  0.16344717  0.40395906  1
  O2-  O284  1  0.79091926  0.16702655  0.73653752  1
  O2-  O285  1  0.80333893  0.66989789  0.06021068  1
  O2-  O286  1  0.79882272  0.66847505  0.39207238  1
  O2-  O287  1  0.78882260  0.66659090  0.73552222  1
