# generated using pymatgen
data_Ca2Al2SiO7
_symmetry_space_group_name_H-M   'P 1'
_cell_length_a   15.45455545
_cell_length_b   15.45462276
_cell_length_c   15.28167644
_cell_angle_alpha   89.99798581
_cell_angle_beta   90.00307805
_cell_angle_gamma   90.00234956
_symmetry_Int_Tables_number   1
_chemical_formula_structural   Ca2Al2SiO7
_chemical_formula_sum   'Ca48 Al48 Si24 O168'
_cell_volume   3649.94167394
_cell_formula_units_Z   24
loop_
 _symmetry_equiv_pos_site_id
 _symmetry_equiv_pos_as_xyz
  1  'x, y, z'
loop_
 _atom_type_symbol
 _atom_type_oxidation_number
  Ca2+  2.0
  Al0+  0.0
  Si0+  0.0
  O2-  -2.0
loop_
 _atom_site_type_symbol
 _atom_site_label
 _atom_site_symmetry_multiplicity
 _atom_site_fract_x
 _atom_site_fract_y
 _atom_site_fract_z
 _atom_site_occupancy
  Ca2+  Ca0  1  0.17072372  0.08174454  0.16624113  1
  Ca2+  Ca1  1  0.16080709  0.07686376  0.50370693  1
  Ca2+  Ca2  1  0.16811087  0.08991194  0.84118078  1
  Ca2+  Ca3  1  0.17031533  0.59353985  0.16962527  1
  Ca2+  Ca4  1  0.17189414  0.57777797  0.50964589  1
  Ca2+  Ca5  1  0.17728365  0.57838856  0.83943095  1
  Ca2+  Ca6  1  0.67358949  0.07525382  0.17591901  1
  Ca2+  Ca7  1  0.67168650  0.07847004  0.50330631  1
  Ca2+  Ca8  1  0.67699342  0.07293992  0.84355179  1
  Ca2+  Ca9  1  0.66146460  0.57901035  0.16220374  1
  Ca2+  Ca10  1  0.66653097  0.58494617  0.50623200  1
  Ca2+  Ca11  1  0.65847847  0.58128181  0.84240423  1
  Ca2+  Ca12  1  0.07391233  0.32685766  0.16051146  1
  Ca2+  Ca13  1  0.08019481  0.32828174  0.49754071  1
  Ca2+  Ca14  1  0.08884628  0.32138648  0.82769589  1
  Ca2+  Ca15  1  0.08263061  0.82832295  0.15977659  1
  Ca2+  Ca16  1  0.08550509  0.82740809  0.48986271  1
  Ca2+  Ca17  1  0.07649765  0.83343166  0.83598973  1
  Ca2+  Ca18  1  0.58228253  0.32555899  0.15966912  1
  Ca2+  Ca19  1  0.57762177  0.32685041  0.49574287  1
  Ca2+  Ca20  1  0.57155666  0.33960898  0.83139919  1
  Ca2+  Ca21  1  0.58429700  0.83444341  0.16168498  1
  Ca2+  Ca22  1  0.58112593  0.83633972  0.49664714  1
  Ca2+  Ca23  1  0.59280968  0.82570218  0.83058695  1
  Ca2+  Ca24  1  0.33605073  0.42165778  0.16326095  1
  Ca2+  Ca25  1  0.32765295  0.42149834  0.51259445  1
  Ca2+  Ca26  1  0.33700159  0.42253825  0.83854128  1
  Ca2+  Ca27  1  0.33120063  0.91876885  0.17256164  1
  Ca2+  Ca28  1  0.33038864  0.91283330  0.49665742  1
  Ca2+  Ca29  1  0.33095048  0.92690844  0.84052547  1
  Ca2+  Ca30  1  0.82888551  0.41133273  0.17001584  1
  Ca2+  Ca31  1  0.83506071  0.41531029  0.50011723  1
  Ca2+  Ca32  1  0.82321850  0.41958315  0.84035396  1
  Ca2+  Ca33  1  0.82821095  0.92200192  0.16960739  1
  Ca2+  Ca34  1  0.82317262  0.92708791  0.50759821  1
  Ca2+  Ca35  1  0.82763016  0.92151650  0.84023193  1
  Ca2+  Ca36  1  0.42281427  0.16745130  0.15923878  1
  Ca2+  Ca37  1  0.42298804  0.17133738  0.49561788  1
  Ca2+  Ca38  1  0.40927080  0.17998932  0.83000816  1
  Ca2+  Ca39  1  0.41853375  0.67558371  0.15967725  1
  Ca2+  Ca40  1  0.42020598  0.66994597  0.49853815  1
  Ca2+  Ca41  1  0.42509871  0.65842483  0.83060256  1
  Ca2+  Ca42  1  0.91602443  0.16264895  0.16254119  1
  Ca2+  Ca43  1  0.91305750  0.16758433  0.49746294  1
  Ca2+  Ca44  1  0.92464909  0.15506353  0.83148502  1
  Ca2+  Ca45  1  0.92957453  0.67452204  0.15676616  1
  Ca2+  Ca46  1  0.92546854  0.66885675  0.49113804  1
  Ca2+  Ca47  1  0.91542847  0.67461951  0.83521648  1
  Al0+  Al48  1  -0.00007899  -0.00091475  -0.00381883  1
  Al0+  Al49  1  0.00082050  0.00004335  0.34158797  1
  Al0+  Al50  1  -0.00066471  -0.00082944  0.66398652  1
  Al0+  Al51  1  0.00060176  0.49862579  -0.00541116  1
  Al0+  Al52  1  0.00074234  0.49849242  0.32482938  1
  Al0+  Al53  1  0.00011484  0.49847318  0.67242095  1
  Al0+  Al54  1  0.50007223  0.00071766  0.00572412  1
  Al0+  Al55  1  0.49959956  0.00028836  0.32966190  1
  Al0+  Al56  1  0.49889548  -0.00147513  0.67070172  1
  Al0+  Al57  1  0.49833622  0.50032686  0.00428228  1
  Al0+  Al58  1  0.49974215  0.50061950  0.33556797  1
  Al0+  Al59  1  0.49995975  0.50151057  0.65797053  1
  Al0+  Al60  1  0.24961011  0.25162792  -0.00034768  1
  Al0+  Al61  1  0.24947976  0.25222135  0.33356451  1
  Al0+  Al62  1  0.24746977  0.24919748  0.65687977  1
  Al0+  Al63  1  0.25145283  0.74944177  -0.00242776  1
  Al0+  Al64  1  0.25327295  0.75076121  0.33102354  1
  Al0+  Al65  1  0.25142720  0.74997493  0.67224320  1
  Al0+  Al66  1  0.74949484  0.24961250  0.00571129  1
  Al0+  Al67  1  0.74888016  0.25071696  0.33049010  1
  Al0+  Al68  1  0.75128662  0.25038559  0.67178183  1
  Al0+  Al69  1  0.75070725  0.74876976  -0.00261016  1
  Al0+  Al70  1  0.75060052  0.74825603  0.33696411  1
  Al0+  Al71  1  0.75037436  0.74995385  0.66281079  1
  Al0+  Al72  1  0.67699454  0.92689636  0.35024521  1
  Al0+  Al73  1  0.32215221  0.57029105  0.68225945  1
  Al0+  Al74  1  0.67823868  0.43036259  0.01344932  1
  Al0+  Al75  1  0.07496770  0.67659523  0.98135920  1
  Al0+  Al76  1  0.56932424  0.18033559  0.32024363  1
  Al0+  Al77  1  0.32027882  0.07426606  0.01257575  1
  Al0+  Al78  1  0.42928371  0.32097316  0.65132937  1
  Al0+  Al79  1  0.67718461  0.92787784  0.68345190  1
  Al0+  Al80  1  0.92999796  0.31923336  0.31966681  1
  Al0+  Al81  1  0.43140368  0.31924408  0.98793629  1
  Al0+  Al82  1  0.31988692  0.57072660  0.01587280  1
  Al0+  Al83  1  0.82125384  0.07194685  0.68421193  1
  Al0+  Al84  1  0.06930217  0.17835324  0.65060935  1
  Al0+  Al85  1  0.92957352  0.82035391  0.98524938  1
  Al0+  Al86  1  0.18126987  0.92932411  0.34539229  1
  Al0+  Al87  1  0.82072240  0.07295068  0.35054614  1
  Al0+  Al88  1  0.57074321  0.68079914  0.65187714  1
  Al0+  Al89  1  0.56790258  0.68126774  0.98865188  1
  Al0+  Al90  1  0.06864165  0.18114034  0.98819090  1
  Al0+  Al91  1  0.17793953  0.42652135  0.68205133  1
  Al0+  Al92  1  0.07166526  0.67974613  0.32141782  1
  Al0+  Al93  1  0.82324796  0.06975656  0.01694634  1
  Al0+  Al94  1  0.43157299  0.81952257  0.31975415  1
  Al0+  Al95  1  0.67941177  0.92588142  0.01679695  1
  Si0+  Si96  1  0.42758683  0.82554636  0.98212580  1
  Si0+  Si97  1  0.57261919  0.17743903  0.65345328  1
  Si0+  Si98  1  0.82316737  0.56896859  0.34651771  1
  Si0+  Si99  1  0.17725963  0.42957115  0.34738555  1
  Si0+  Si100  1  0.57434704  0.67588240  0.31602823  1
  Si0+  Si101  1  0.17716071  0.42785811  0.01819224  1
  Si0+  Si102  1  0.92595976  0.32407459  0.65110773  1
  Si0+  Si103  1  0.42551261  0.82485713  0.65044881  1
  Si0+  Si104  1  0.07320021  0.17574761  0.31648293  1
  Si0+  Si105  1  0.07164698  0.67873276  0.65332321  1
  Si0+  Si106  1  0.17941485  0.92859413  0.01467902  1
  Si0+  Si107  1  0.57337967  0.17629162  0.98282477  1
  Si0+  Si108  1  0.82394937  0.57124595  0.01676470  1
  Si0+  Si109  1  0.67914824  0.43075433  0.67893583  1
  Si0+  Si110  1  0.92422810  0.32220752  0.98137588  1
  Si0+  Si111  1  0.92780716  0.82252320  0.31933828  1
  Si0+  Si112  1  0.67861554  0.42996702  0.34942422  1
  Si0+  Si113  1  0.93008336  0.81962671  0.64858846  1
  Si0+  Si114  1  0.32047283  0.57096078  0.34909266  1
  Si0+  Si115  1  0.82247393  0.57184601  0.68037065  1
  Si0+  Si116  1  0.42638594  0.32406566  0.31592823  1
  Si0+  Si117  1  0.32191938  0.07460005  0.35029388  1
  Si0+  Si118  1  0.17829536  0.92776243  0.68171091  1
  Si0+  Si119  1  0.31962736  0.07103697  0.67869248  1
  O2-  O120  1  0.24943993  -0.00423922  0.05887470  1
  O2-  O121  1  0.25130814  0.00773103  0.39480633  1
  O2-  O122  1  0.24862749  0.00023426  0.72172106  1
  O2-  O123  1  0.23948526  0.50207895  0.06359708  1
  O2-  O124  1  0.25058538  0.49819331  0.39018172  1
  O2-  O125  1  0.25131922  0.49695326  0.73185338  1
  O2-  O126  1  0.74858114  0.00061228  0.06632301  1
  O2-  O127  1  0.74999594  -0.00134301  0.39919262  1
  O2-  O128  1  0.74723775  0.00166749  0.73253308  1
  O2-  O129  1  0.75745441  0.50043000  0.06122748  1
  O2-  O130  1  0.74894126  0.50211085  0.39134350  1
  O2-  O131  1  0.74984644  0.50192691  0.72113036  1
  O2-  O132  1  0.00160398  0.24161120  0.27324883  1
  O2-  O133  1  -0.00627129  0.25417153  0.60741439  1
  O2-  O134  1  -0.00760858  0.25293046  0.93830501  1
  O2-  O135  1  -0.00180040  0.75559338  0.27517155  1
  O2-  O136  1  0.00215833  0.74881247  0.60699173  1
  O2-  O137  1  0.00104714  0.74760567  0.93332379  1
  O2-  O138  1  0.49267477  0.25339182  0.27289718  1
  O2-  O139  1  0.50420179  0.24550427  0.60657613  1
  O2-  O140  1  0.50398302  0.24403273  0.93790501  1
  O2-  O141  1  0.51007424  0.74870629  0.27338097  1
  O2-  O142  1  0.49620634  0.75685590  0.60789165  1
  O2-  O143  1  0.49803994  0.75862987  0.93853949  1
  O2-  O144  1  0.06969063  0.18298109  0.10141611  1
  O2-  O145  1  0.07563616  0.17912337  0.42202933  1
  O2-  O146  1  0.07078621  0.17854099  0.76358225  1
  O2-  O147  1  0.07390047  0.68043346  0.09546256  1
  O2-  O148  1  0.07003503  0.67814828  0.43538692  1
  O2-  O149  1  0.06955630  0.68101175  0.75762099  1
  O2-  O150  1  0.57158683  0.17901773  0.08859910  1
  O2-  O151  1  0.56744380  0.18430449  0.43413989  1
  O2-  O152  1  0.57071211  0.17988265  0.75863783  1
  O2-  O153  1  0.56523920  0.67998372  0.10181206  1
  O2-  O154  1  0.57146584  0.67174890  0.42166189  1
  O2-  O155  1  0.57046916  0.67773434  0.76464121  1
  O2-  O156  1  0.17730957  0.42877017  0.24270897  1
  O2-  O157  1  0.17678599  0.43080201  0.56748561  1
  O2-  O158  1  0.18113280  0.42534631  0.91292695  1
  O2-  O159  1  0.18323206  0.92869186  0.23266788  1
  O2-  O160  1  0.17947295  0.92546341  0.57637151  1
  O2-  O161  1  0.18016609  0.93022731  0.90848938  1
  O2-  O162  1  0.67733627  0.43133310  0.24469056  1
  O2-  O163  1  0.68134167  0.43080518  0.57333304  1
  O2-  O164  1  0.67754546  0.43371067  0.89967821  1
  O2-  O165  1  0.67924652  0.92617759  0.23722953  1
  O2-  O166  1  0.67823421  0.92874824  0.56982957  1
  O2-  O167  1  0.68125480  0.92601610  0.90316498  1
  O2-  O168  1  0.43291078  0.31848162  0.10119103  1
  O2-  O169  1  0.42755299  0.32508384  0.42171883  1
  O2-  O170  1  0.43048542  0.32162854  0.76438643  1
  O2-  O171  1  0.42532772  0.82300790  0.08784234  1
  O2-  O172  1  0.42811272  0.81484799  0.43307486  1
  O2-  O173  1  0.42185800  0.82751377  0.75535473  1
  O2-  O174  1  0.92645899  0.32380056  0.08719301  1
  O2-  O175  1  0.93294190  0.32326304  0.43292696  1
  O2-  O176  1  0.92382935  0.32769170  0.75595702  1
  O2-  O177  1  0.93207542  0.81932577  0.09924559  1
  O2-  O178  1  0.92945092  0.81738132  0.42540293  1
  O2-  O179  1  0.93023226  0.81879010  0.75333968  1
  O2-  O180  1  0.32004390  0.07568137  0.24488047  1
  O2-  O181  1  0.32037706  0.06920519  0.57343744  1
  O2-  O182  1  0.31664936  0.07491968  0.89874400  1
  O2-  O183  1  0.32102762  0.57040842  0.24422759  1
  O2-  O184  1  0.31899361  0.57106715  0.56778929  1
  O2-  O185  1  0.32293545  0.56640591  0.90323031  1
  O2-  O186  1  0.82078270  0.07170956  0.23746942  1
  O2-  O187  1  0.81964032  0.07196966  0.57063841  1
  O2-  O188  1  0.82298887  0.06790281  0.90340338  1
  O2-  O189  1  0.82394489  0.56745442  0.24208263  1
  O2-  O190  1  0.82476359  0.57027620  0.57471519  1
  O2-  O191  1  0.82203983  0.57045237  0.91061678  1
  O2-  O192  1  0.05151585  0.07995305  0.27407648  1
  O2-  O193  1  0.03960547  0.08112537  0.59622514  1
  O2-  O194  1  0.04321500  0.08392939  0.93294780  1
  O2-  O195  1  0.04076763  0.58521985  0.26456176  1
  O2-  O196  1  0.04302797  0.58570318  0.60790567  1
  O2-  O197  1  0.04832961  0.57711434  0.92982108  1
  O2-  O198  1  0.54025779  0.08460611  0.26498436  1
  O2-  O199  1  0.54530914  0.08371442  0.60795542  1
  O2-  O200  1  0.54869169  0.08180441  0.93908376  1
  O2-  O201  1  0.54389554  0.58306815  0.27036370  1
  O2-  O202  1  0.54000333  0.58621139  0.59279248  1
  O2-  O203  1  0.53307055  0.58534828  0.93543864  1
  O2-  O204  1  0.16640276  0.20508142  0.27071860  1
  O2-  O205  1  0.16379642  0.20757797  0.59126520  1
  O2-  O206  1  0.16417022  0.21498925  0.93330280  1
  O2-  O207  1  0.16765981  0.71095188  0.26804010  1
  O2-  O208  1  0.16460565  0.70661312  0.60754329  1
  O2-  O209  1  0.17283611  0.70634947  0.92851862  1
  O2-  O210  1  0.66340760  0.21480246  0.26472463  1
  O2-  O211  1  0.66623498  0.20542835  0.60800501  1
  O2-  O212  1  0.66728694  0.20346335  0.93884005  1
  O2-  O213  1  0.67080351  0.69459668  0.27334141  1
  O2-  O214  1  0.66844802  0.70738407  0.59628415  1
  O2-  O215  1  0.66654692  0.70352747  0.93471425  1
  O2-  O216  1  0.08003392  0.44683611  0.06007879  1
  O2-  O217  1  0.08599196  0.45990165  0.39439690  1
  O2-  O218  1  0.08014685  0.45364274  0.73681071  1
  O2-  O219  1  0.08667535  0.95532952  0.06030298  1
  O2-  O220  1  0.08494627  0.95420273  0.40373487  1
  O2-  O221  1  0.08616275  0.95516628  0.72730800  1
  O2-  O222  1  0.58537542  0.46562736  0.07117643  1
  O2-  O223  1  0.58655600  0.45718024  0.39826523  1
  O2-  O224  1  0.58719845  0.46034973  0.72362678  1
  O2-  O225  1  0.57940860  0.95110719  0.06778483  1
  O2-  O226  1  0.57749314  0.95708411  0.40059492  1
  O2-  O227  1  0.57691814  0.95039212  0.73545420  1
  O2-  O228  1  0.20930576  0.33774016  0.06729527  1
  O2-  O229  1  0.20290048  0.33709162  0.39582965  1
  O2-  O230  1  0.20543052  0.32574298  0.72925474  1
  O2-  O231  1  0.20410563  0.83447557  0.05952104  1
  O2-  O232  1  0.21699932  0.83404665  0.40124111  1
  O2-  O233  1  0.20585814  0.83758359  0.73191454  1
  O2-  O234  1  0.70554580  0.33365118  0.06888948  1
  O2-  O235  1  0.70807112  0.33949165  0.39754806  1
  O2-  O236  1  0.70493447  0.33990848  0.72865438  1
  O2-  O237  1  0.70916329  0.82706494  0.06823138  1
  O2-  O238  1  0.70295555  0.82636100  0.40231372  1
  O2-  O239  1  0.71049120  0.82878273  0.73223231  1
  O2-  O240  1  0.45517876  0.41760771  0.27141424  1
  O2-  O241  1  0.46177912  0.41526254  0.59372650  1
  O2-  O242  1  0.46535419  0.41500439  0.93474626  1
  O2-  O243  1  0.45371208  0.91780351  0.26595048  1
  O2-  O244  1  0.45005829  0.91841041  0.60248751  1
  O2-  O245  1  0.44992827  0.92095357  0.93820113  1
  O2-  O246  1  0.96279058  0.41302027  0.26095081  1
  O2-  O247  1  0.95305217  0.41783268  0.60399305  1
  O2-  O248  1  0.94806759  0.41600325  0.93482657  1
  O2-  O249  1  0.95243862  0.91745888  0.27724359  1
  O2-  O250  1  0.95885417  0.91058142  0.60066747  1
  O2-  O251  1  0.96116731  0.91595941  0.92851192  1
  O2-  O252  1  0.33113876  0.30260710  0.27140387  1
  O2-  O253  1  0.33418085  0.28982970  0.59465449  1
  O2-  O254  1  0.33473916  0.28972813  0.93368192  1
  O2-  O255  1  0.33787517  0.78433981  0.26279475  1
  O2-  O256  1  0.33215933  0.79597018  0.60370525  1
  O2-  O257  1  0.33463440  0.79954481  0.93539153  1
  O2-  O258  1  0.83206198  0.29444272  0.26623349  1
  O2-  O259  1  0.83190878  0.29901788  0.60390839  1
  O2-  O260  1  0.82912756  0.29904996  0.93746449  1
  O2-  O261  1  0.83480546  0.79414586  0.27415275  1
  O2-  O262  1  0.83964987  0.78979419  0.59980425  1
  O2-  O263  1  0.83338005  0.78824880  0.92954418  1
  O2-  O264  1  0.41695076  0.04725044  0.06748803  1
  O2-  O265  1  0.41438384  0.04620078  0.39621462  1
  O2-  O266  1  0.41051762  0.04546812  0.72870701  1
  O2-  O267  1  0.41270664  0.53448088  0.07323768  1
  O2-  O268  1  0.41290042  0.54402703  0.39696568  1
  O2-  O269  1  0.42207501  0.54023388  0.73057885  1
  O2-  O270  1  0.92187827  0.03923664  0.06838366  1
  O2-  O271  1  0.92034641  0.04869438  0.40368641  1
  O2-  O272  1  0.91992781  0.03814246  0.73331029  1
  O2-  O273  1  0.91929742  0.54759338  0.06052094  1
  O2-  O274  1  0.91400360  0.53668009  0.39451202  1
  O2-  O275  1  0.91215251  0.54414029  0.73138437  1
  O2-  O276  1  0.28590899  0.16825588  0.06923347  1
  O2-  O277  1  0.29905035  0.16977805  0.39599409  1
  O2-  O278  1  0.28985115  0.16312133  0.72326869  1
  O2-  O279  1  0.29322481  0.66982124  0.06793456  1
  O2-  O280  1  0.29142674  0.66173563  0.39683436  1
  O2-  O281  1  0.29534760  0.66868231  0.73569404  1
  O2-  O282  1  0.79904193  0.17014087  0.06760992  1
  O2-  O283  1  0.78898513  0.17194136  0.40179253  1
  O2-  O284  1  0.79874081  0.17213746  0.73663573  1
  O2-  O285  1  0.79619451  0.66331674  0.06326799  1
  O2-  O286  1  0.79981206  0.66093592  0.39662842  1
  O2-  O287  1  0.79542607  0.66386080  0.72620695  1
