# generated using pymatgen
data_Ca2Al2SiO7
_symmetry_space_group_name_H-M   'P 1'
_cell_length_a   15.45115807
_cell_length_b   15.45076431
_cell_length_c   15.27860320
_cell_angle_alpha   90.00024967
_cell_angle_beta   90.00733007
_cell_angle_gamma   89.99958868
_symmetry_Int_Tables_number   1
_chemical_formula_structural   Ca2Al2SiO7
_chemical_formula_sum   'Ca48 Al48 Si24 O168'
_cell_volume   3647.49454933
_cell_formula_units_Z   24
loop_
 _symmetry_equiv_pos_site_id
 _symmetry_equiv_pos_as_xyz
  1  'x, y, z'
loop_
 _atom_type_symbol
 _atom_type_oxidation_number
  Ca2+  2.0
  Al0+  0.0
  Si0+  0.0
  O2-  -2.0
loop_
 _atom_site_type_symbol
 _atom_site_label
 _atom_site_symmetry_multiplicity
 _atom_site_fract_x
 _atom_site_fract_y
 _atom_site_fract_z
 _atom_site_occupancy
  Ca2+  Ca0  1  0.15887912  0.07167325  0.17139329  1
  Ca2+  Ca1  1  0.16414054  0.08529918  0.50705430  1
  Ca2+  Ca2  1  0.16986017  0.08419795  0.83408851  1
  Ca2+  Ca3  1  0.17814788  0.59102111  0.17453420  1
  Ca2+  Ca4  1  0.16983872  0.57926666  0.50190466  1
  Ca2+  Ca5  1  0.17268955  0.57705376  0.83791332  1
  Ca2+  Ca6  1  0.66509205  0.08204949  0.17499536  1
  Ca2+  Ca7  1  0.66201888  0.07352100  0.50233295  1
  Ca2+  Ca8  1  0.66306578  0.07696629  0.83701947  1
  Ca2+  Ca9  1  0.67057408  0.58054800  0.16387806  1
  Ca2+  Ca10  1  0.67469312  0.57774676  0.51440494  1
  Ca2+  Ca11  1  0.66984177  0.57719252  0.83762296  1
  Ca2+  Ca12  1  0.07202538  0.33133462  0.16455629  1
  Ca2+  Ca13  1  0.08466594  0.32449033  0.49454898  1
  Ca2+  Ca14  1  0.08054268  0.33394810  0.82489981  1
  Ca2+  Ca15  1  0.08459691  0.83208726  0.16064633  1
  Ca2+  Ca16  1  0.07779831  0.82997575  0.49355589  1
  Ca2+  Ca17  1  0.07301181  0.83560038  0.83124618  1
  Ca2+  Ca18  1  0.59002302  0.32197443  0.15885790  1
  Ca2+  Ca19  1  0.57853609  0.33330910  0.49736781  1
  Ca2+  Ca20  1  0.58157267  0.33529332  0.82901219  1
  Ca2+  Ca21  1  0.58205555  0.82815255  0.15971193  1
  Ca2+  Ca22  1  0.58848511  0.83102590  0.49989333  1
  Ca2+  Ca23  1  0.59102338  0.81807860  0.82629879  1
  Ca2+  Ca24  1  0.33750596  0.43118957  0.16914705  1
  Ca2+  Ca25  1  0.32942217  0.41665937  0.50730389  1
  Ca2+  Ca26  1  0.32941627  0.41494920  0.83394439  1
  Ca2+  Ca27  1  0.31843448  0.91312230  0.17262695  1
  Ca2+  Ca28  1  0.32502456  0.92596688  0.50396718  1
  Ca2+  Ca29  1  0.32735496  0.92321925  0.83717387  1
  Ca2+  Ca30  1  0.83490719  0.41368595  0.16517437  1
  Ca2+  Ca31  1  0.83100275  0.42079964  0.50869814  1
  Ca2+  Ca32  1  0.82667659  0.42713003  0.84299131  1
  Ca2+  Ca33  1  0.82795559  0.91540607  0.17030030  1
  Ca2+  Ca34  1  0.82402870  0.91243397  0.50651075  1
  Ca2+  Ca35  1  0.83366782  0.91212112  0.83404789  1
  Ca2+  Ca36  1  0.43100488  0.16325097  0.16301713  1
  Ca2+  Ca37  1  0.41633119  0.17115716  0.49959794  1
  Ca2+  Ca38  1  0.41933242  0.17056823  0.82561266  1
  Ca2+  Ca39  1  0.41855603  0.66386260  0.15901684  1
  Ca2+  Ca40  1  0.42397684  0.66198514  0.49742575  1
  Ca2+  Ca41  1  0.42910897  0.65683840  0.83209132  1
  Ca2+  Ca42  1  0.91621574  0.17814851  0.16451275  1
  Ca2+  Ca43  1  0.92772887  0.17377059  0.49254352  1
  Ca2+  Ca44  1  0.92351340  0.17470592  0.82956241  1
  Ca2+  Ca45  1  0.92233232  0.67153258  0.15928748  1
  Ca2+  Ca46  1  0.91944923  0.66743033  0.49981527  1
  Ca2+  Ca47  1  0.90222567  0.67570173  0.82996249  1
  Al0+  Al48  1  -0.00075819  -0.00006549  0.00052593  1
  Al0+  Al49  1  -0.00285334  0.00052737  0.33522706  1
  Al0+  Al50  1  -0.00203581  -0.00080325  0.65731453  1
  Al0+  Al51  1  0.00015967  0.50083127  -0.00066717  1
  Al0+  Al52  1  0.00143938  0.50256019  0.32486633  1
  Al0+  Al53  1  0.00091592  0.50268694  0.67578197  1
  Al0+  Al54  1  0.49930634  -0.00025394  -0.00421590  1
  Al0+  Al55  1  0.49820162  -0.00136394  0.33343615  1
  Al0+  Al56  1  0.49872508  -0.00158217  0.67633298  1
  Al0+  Al57  1  0.50002755  0.49770587  0.00507689  1
  Al0+  Al58  1  0.50147154  0.50096113  0.33744215  1
  Al0+  Al59  1  0.50068605  0.49909996  0.65883103  1
  Al0+  Al60  1  0.25171664  0.24867553  0.00510858  1
  Al0+  Al61  1  0.25050052  0.25124694  0.32361350  1
  Al0+  Al62  1  0.25150935  0.25020750  0.66735489  1
  Al0+  Al63  1  0.24958982  0.75109734  0.00477758  1
  Al0+  Al64  1  0.25128610  0.75158157  0.34212985  1
  Al0+  Al65  1  0.25025738  0.75112155  0.66793468  1
  Al0+  Al66  1  0.75140019  0.24842855  -0.00782935  1
  Al0+  Al67  1  0.74904138  0.25004563  0.32883507  1
  Al0+  Al68  1  0.75021257  0.24792679  0.66878331  1
  Al0+  Al69  1  0.74973064  0.74912070  -0.00192952  1
  Al0+  Al70  1  0.74956964  0.74849561  0.33679873  1
  Al0+  Al71  1  0.74936169  0.75083510  0.66308612  1
  Al0+  Al72  1  0.92973922  0.81916952  0.65107375  1
  Al0+  Al73  1  0.07069853  0.18167201  0.65476091  1
  Al0+  Al74  1  0.57151603  0.17735032  0.98369577  1
  Al0+  Al75  1  0.93028893  0.82046033  0.98754360  1
  Al0+  Al76  1  0.17893260  0.93224926  0.01233310  1
  Al0+  Al77  1  0.92862834  0.32256567  0.31930642  1
  Al0+  Al78  1  0.31941566  0.56861124  0.01201788  1
  Al0+  Al79  1  0.32246148  0.57112043  0.35003085  1
  Al0+  Al80  1  0.56878992  0.68040619  0.65145952  1
  Al0+  Al81  1  0.67829494  0.92859395  0.34577609  1
  Al0+  Al82  1  0.07264760  0.68237904  0.32052804  1
  Al0+  Al83  1  0.82097366  0.57334116  0.01790475  1
  Al0+  Al84  1  0.07296252  0.17651773  0.31598437  1
  Al0+  Al85  1  0.56761211  0.17887721  0.32205817  1
  Al0+  Al86  1  0.68007258  0.93071179  0.68208815  1
  Al0+  Al87  1  0.56866550  0.67898254  0.98790316  1
  Al0+  Al88  1  0.67708023  0.42633008  0.68057491  1
  Al0+  Al89  1  0.82119304  0.57096165  0.68154673  1
  Al0+  Al90  1  0.93081422  0.32247927  0.98256120  1
  Al0+  Al91  1  0.18051332  0.42907165  0.67825752  1
  Al0+  Al92  1  0.43056838  0.31946109  0.65333797  1
  Al0+  Al93  1  0.68001542  0.42699225  0.01629066  1
  Al0+  Al94  1  0.31879910  0.07107492  0.67989501  1
  Al0+  Al95  1  0.17648947  0.93102188  0.34923752  1
  Si0+  Si96  1  0.81969211  0.07443701  0.35064254  1
  Si0+  Si97  1  0.82062622  0.07025921  0.01399515  1
  Si0+  Si98  1  0.42829944  0.32540608  0.31437350  1
  Si0+  Si99  1  0.17489084  0.92753034  0.68288324  1
  Si0+  Si100  1  0.07230175  0.17812176  0.98386412  1
  Si0+  Si101  1  0.92775475  0.32476923  0.65240627  1
  Si0+  Si102  1  0.57277497  0.17442301  0.65067973  1
  Si0+  Si103  1  0.07533989  0.67897900  0.98290916  1
  Si0+  Si104  1  0.17634515  0.42538767  0.01880610  1
  Si0+  Si105  1  0.32152561  0.07285239  0.34776556  1
  Si0+  Si106  1  0.67867903  0.92885635  0.01393152  1
  Si0+  Si107  1  0.82471825  0.07148159  0.68326402  1
  Si0+  Si108  1  0.32433460  0.07272884  0.01939324  1
  Si0+  Si109  1  0.68058662  0.42756616  0.34856107  1
  Si0+  Si110  1  0.42520334  0.82185726  0.98292284  1
  Si0+  Si111  1  0.57218197  0.67833458  0.31811430  1
  Si0+  Si112  1  0.42603413  0.82442375  0.65009602  1
  Si0+  Si113  1  0.92572743  0.82065861  0.31699203  1
  Si0+  Si114  1  0.07572814  0.67669508  0.65087660  1
  Si0+  Si115  1  0.82241496  0.57042785  0.34778927  1
  Si0+  Si116  1  0.42806061  0.32104190  0.98442224  1
  Si0+  Si117  1  0.17787703  0.42862529  0.34758062  1
  Si0+  Si118  1  0.43022704  0.81987691  0.31980582  1
  Si0+  Si119  1  0.32303018  0.57316942  0.68223013  1
  O2-  O120  1  0.25391561  0.00534100  0.06224841  1
  O2-  O121  1  0.24518810  0.01306031  0.39289705  1
  O2-  O122  1  0.24422104  -0.00420365  0.72641725  1
  O2-  O123  1  0.24313090  0.49683184  0.06180999  1
  O2-  O124  1  0.24884714  0.49407012  0.39376103  1
  O2-  O125  1  0.25267075  0.50627990  0.72575807  1
  O2-  O126  1  0.74739896  0.00120364  0.05704582  1
  O2-  O127  1  0.75311783  0.00272962  0.39343757  1
  O2-  O128  1  0.75271285  0.00702868  0.72931173  1
  O2-  O129  1  0.75242302  0.49801306  0.06845841  1
  O2-  O130  1  0.75285364  0.49774249  0.38950556  1
  O2-  O131  1  0.75172179  0.49564378  0.72987548  1
  O2-  O132  1  0.00049999  0.24960552  0.26906527  1
  O2-  O133  1  -0.00374063  0.25654768  0.60735363  1
  O2-  O134  1  0.01119436  0.25240192  0.93793376  1
  O2-  O135  1  -0.00065210  0.75795925  0.27235611  1
  O2-  O136  1  0.00663670  0.74540554  0.60702538  1
  O2-  O137  1  0.00189626  0.74304442  0.93953372  1
  O2-  O138  1  0.49529562  0.25426401  0.27180256  1
  O2-  O139  1  0.50831181  0.24717232  0.60670512  1
  O2-  O140  1  0.49564130  0.25171886  0.93959267  1
  O2-  O141  1  0.50067428  0.74880903  0.27618598  1
  O2-  O142  1  0.49216729  0.75375727  0.60462706  1
  O2-  O143  1  0.49414563  0.75332416  0.93949291  1
  O2-  O144  1  0.06791915  0.17635434  0.08922528  1
  O2-  O145  1  0.07299159  0.17950322  0.42986126  1
  O2-  O146  1  0.06993110  0.18193696  0.76813407  1
  O2-  O147  1  0.07819559  0.68364420  0.08875807  1
  O2-  O148  1  0.06989685  0.68037864  0.43370692  1
  O2-  O149  1  0.08104117  0.67861532  0.75614417  1
  O2-  O150  1  0.56999798  0.17502642  0.09738969  1
  O2-  O151  1  0.56594945  0.17905564  0.43501446  1
  O2-  O152  1  0.56937352  0.17340978  0.75618234  1
  O2-  O153  1  0.56787580  0.68257199  0.10173781  1
  O2-  O154  1  0.57235813  0.67900122  0.42305421  1
  O2-  O155  1  0.56737532  0.68000086  0.76467554  1
  O2-  O156  1  0.17904053  0.43155134  0.24203841  1
  O2-  O157  1  0.18155019  0.42886972  0.56486600  1
  O2-  O158  1  0.17924975  0.42373980  0.91297191  1
  O2-  O159  1  0.18010851  0.92817205  0.23588882  1
  O2-  O160  1  0.17645951  0.92752340  0.57724481  1
  O2-  O161  1  0.17924450  0.93430916  0.89919051  1
  O2-  O162  1  0.67853094  0.42774579  0.24373446  1
  O2-  O163  1  0.67885853  0.42812677  0.56596580  1
  O2-  O164  1  0.67849920  0.42912951  0.90310348  1
  O2-  O165  1  0.67916149  0.92792330  0.23211207  1
  O2-  O166  1  0.68032771  0.93165083  0.56859151  1
  O2-  O167  1  0.68034622  0.92882748  0.90905923  1
  O2-  O168  1  0.42866942  0.31993865  0.09021970  1
  O2-  O169  1  0.42859671  0.32570946  0.42001661  1
  O2-  O170  1  0.42845502  0.31787580  0.76646512  1
  O2-  O171  1  0.42629112  0.82232854  0.08914265  1
  O2-  O172  1  0.43184003  0.82109179  0.42477467  1
  O2-  O173  1  0.42501781  0.82381786  0.75561283  1
  O2-  O174  1  0.93035409  0.31778033  0.09563276  1
  O2-  O175  1  0.92851288  0.32212516  0.43323783  1
  O2-  O176  1  0.93017262  0.32208792  0.75785709  1
  O2-  O177  1  0.93121338  0.82188481  0.10087929  1
  O2-  O178  1  0.92379715  0.81607747  0.42240786  1
  O2-  O179  1  0.93160186  0.82036437  0.76438248  1
  O2-  O180  1  0.32613445  0.06568037  0.24244456  1
  O2-  O181  1  0.31786886  0.07031471  0.56643845  1
  O2-  O182  1  0.32379117  0.07330409  0.91380082  1
  O2-  O183  1  0.32348101  0.57154941  0.23669424  1
  O2-  O184  1  0.32140678  0.57252747  0.57652242  1
  O2-  O185  1  0.31919117  0.56662103  0.89888253  1
  O2-  O186  1  0.81752086  0.07476894  0.24458013  1
  O2-  O187  1  0.82412011  0.07054828  0.57764990  1
  O2-  O188  1  0.82248924  0.06773814  0.90897330  1
  O2-  O189  1  0.81952742  0.57402712  0.24310816  1
  O2-  O190  1  0.82174100  0.56868795  0.56679280  1
  O2-  O191  1  0.81599399  0.57516113  0.90486027  1
  O2-  O192  1  0.04144736  0.07761143  0.26523605  1
  O2-  O193  1  0.04048104  0.08601630  0.59848391  1
  O2-  O194  1  0.04022732  0.08726440  0.93642285  1
  O2-  O195  1  0.04398639  0.58759274  0.26250844  1
  O2-  O196  1  0.04844298  0.58276960  0.60605370  1
  O2-  O197  1  0.05666207  0.58269140  0.94070711  1
  O2-  O198  1  0.53587185  0.08255953  0.26628548  1
  O2-  O199  1  0.54113173  0.08142143  0.60659556  1
  O2-  O200  1  0.54029458  0.08068302  0.92912311  1
  O2-  O201  1  0.54433349  0.58600861  0.27199944  1
  O2-  O202  1  0.53987919  0.58488544  0.59388892  1
  O2-  O203  1  0.53630455  0.58177939  0.93640127  1
  O2-  O204  1  0.17139932  0.20123763  0.26068702  1
  O2-  O205  1  0.16632804  0.21309816  0.60015968  1
  O2-  O206  1  0.17013792  0.19684421  0.94347756  1
  O2-  O207  1  0.17082042  0.71433557  0.26975846  1
  O2-  O208  1  0.16924662  0.70218445  0.60320768  1
  O2-  O209  1  0.16699393  0.70946892  0.93545185  1
  O2-  O210  1  0.66393108  0.20778551  0.26647480  1
  O2-  O211  1  0.66906792  0.19304845  0.60690131  1
  O2-  O212  1  0.66766342  0.20437272  0.92854679  1
  O2-  O213  1  0.66385305  0.70713758  0.27107167  1
  O2-  O214  1  0.66347280  0.71452732  0.59592468  1
  O2-  O215  1  0.66377109  0.71193389  0.93333062  1
  O2-  O216  1  0.08185401  0.44886355  0.06264414  1
  O2-  O217  1  0.08460028  0.45723044  0.39258011  1
  O2-  O218  1  0.08567654  0.45786892  0.73658411  1
  O2-  O219  1  0.08306557  0.96350057  0.06837216  1
  O2-  O220  1  0.07706044  0.95411984  0.40139888  1
  O2-  O221  1  0.08083354  0.95516896  0.72589600  1
  O2-  O222  1  0.58203407  0.45436668  0.07104855  1
  O2-  O223  1  0.58947604  0.45705035  0.39672999  1
  O2-  O224  1  0.57833377  0.45800383  0.73038293  1
  O2-  O225  1  0.58487752  0.95430229  0.05917716  1
  O2-  O226  1  0.58172530  0.95950048  0.39997595  1
  O2-  O227  1  0.58361559  0.95614858  0.73877708  1
  O2-  O228  1  0.20282065  0.33222521  0.06611122  1
  O2-  O229  1  0.20220411  0.33266876  0.39015570  1
  O2-  O230  1  0.21514337  0.33553972  0.73517912  1
  O2-  O231  1  0.20980055  0.83633281  0.06852418  1
  O2-  O232  1  0.21437074  0.83859448  0.40628018  1
  O2-  O233  1  0.20033255  0.83408880  0.72973442  1
  O2-  O234  1  0.71063696  0.32656947  0.06503745  1
  O2-  O235  1  0.70635415  0.33515983  0.39551522  1
  O2-  O236  1  0.69816429  0.32521881  0.73105973  1
  O2-  O237  1  0.70801973  0.83826592  0.06234486  1
  O2-  O238  1  0.70939496  0.83222271  0.40117491  1
  O2-  O239  1  0.71442454  0.83465809  0.73368306  1
  O2-  O240  1  0.45856612  0.41868999  0.26973707  1
  O2-  O241  1  0.45744916  0.41504005  0.59474795  1
  O2-  O242  1  0.45368136  0.41433324  0.93871288  1
  O2-  O243  1  0.45737395  0.91038010  0.26953111  1
  O2-  O244  1  0.45536037  0.91745773  0.60486847  1
  O2-  O245  1  0.44957017  0.91551863  0.93688066  1
  O2-  O246  1  0.95696164  0.41937092  0.26274506  1
  O2-  O247  1  0.95282286  0.41993887  0.60995112  1
  O2-  O248  1  0.95678776  0.42137048  0.93056808  1
  O2-  O249  1  0.94316751  0.91761080  0.27565316  1
  O2-  O250  1  0.95722087  0.91479723  0.59321781  1
  O2-  O251  1  0.96265369  0.91641340  0.93256026  1
  O2-  O252  1  0.33454309  0.30554443  0.26664583  1
  O2-  O253  1  0.33634004  0.28456778  0.59711964  1
  O2-  O254  1  0.33309321  0.29593987  0.93981798  1
  O2-  O255  1  0.33830334  0.79072320  0.27372665  1
  O2-  O256  1  0.33101493  0.80228278  0.60427690  1
  O2-  O257  1  0.33156855  0.79657116  0.93740028  1
  O2-  O258  1  0.83128378  0.29220664  0.26421124  1
  O2-  O259  1  0.83346687  0.29905289  0.60703005  1
  O2-  O260  1  0.83731265  0.28600833  0.92722919  1
  O2-  O261  1  0.83366976  0.78953765  0.26988114  1
  O2-  O262  1  0.83460651  0.78691653  0.59540248  1
  O2-  O263  1  0.83313791  0.79194825  0.93322193  1
  O2-  O264  1  0.41794641  0.04374488  0.06424874  1
  O2-  O265  1  0.41078753  0.03876934  0.39767920  1
  O2-  O266  1  0.41319193  0.04015474  0.73811332  1
  O2-  O267  1  0.41394401  0.53668133  0.07009099  1
  O2-  O268  1  0.41959385  0.54091204  0.40412025  1
  O2-  O269  1  0.41622355  0.54363279  0.72531363  1
  O2-  O270  1  0.91054322  0.04049785  0.06394949  1
  O2-  O271  1  0.91391924  0.05176055  0.39629945  1
  O2-  O272  1  0.91694837  0.04059727  0.72929600  1
  O2-  O273  1  0.92265636  0.54914130  0.06657791  1
  O2-  O274  1  0.91579452  0.54445325  0.39272158  1
  O2-  O275  1  0.92024759  0.55174784  0.73687736  1
  O2-  O276  1  0.30302786  0.16667170  0.06674629  1
  O2-  O277  1  0.30494484  0.17131694  0.38709621  1
  O2-  O278  1  0.28695266  0.16544264  0.73651671  1
  O2-  O279  1  0.29197058  0.66624784  0.06721145  1
  O2-  O280  1  0.29204262  0.66627355  0.40601584  1
  O2-  O281  1  0.30112700  0.66780234  0.72821721  1
  O2-  O282  1  0.79258311  0.16193590  0.06050264  1
  O2-  O283  1  0.79110819  0.16685907  0.39754739  1
  O2-  O284  1  0.80467630  0.16645671  0.72902701  1
  O2-  O285  1  0.78855447  0.67103294  0.07157290  1
  O2-  O286  1  0.79205731  0.66056606  0.39752583  1
  O2-  O287  1  0.78695218  0.66848500  0.73114712  1
