# generated using pymatgen
data_Ca2Al2SiO7
_symmetry_space_group_name_H-M   'P 1'
_cell_length_a   15.45571437
_cell_length_b   15.45591562
_cell_length_c   15.28199301
_cell_angle_alpha   89.99308718
_cell_angle_beta   90.01560785
_cell_angle_gamma   90.00622384
_symmetry_Int_Tables_number   1
_chemical_formula_structural   Ca2Al2SiO7
_chemical_formula_sum   'Ca48 Al48 Si24 O168'
_cell_volume   3650.59618763
_cell_formula_units_Z   24
loop_
 _symmetry_equiv_pos_site_id
 _symmetry_equiv_pos_as_xyz
  1  'x, y, z'
loop_
 _atom_type_symbol
 _atom_type_oxidation_number
  Ca2+  2.0
  Al0+  0.0
  Si0+  0.0
  O2-  -2.0
loop_
 _atom_site_type_symbol
 _atom_site_label
 _atom_site_symmetry_multiplicity
 _atom_site_fract_x
 _atom_site_fract_y
 _atom_site_fract_z
 _atom_site_occupancy
  Ca2+  Ca0  1  0.16415016  0.07151805  0.17447500  1
  Ca2+  Ca1  1  0.16587226  0.08032648  0.50431357  1
  Ca2+  Ca2  1  0.16765266  0.07901659  0.83457652  1
  Ca2+  Ca3  1  0.15772447  0.57343281  0.17186244  1
  Ca2+  Ca4  1  0.17035502  0.58126719  0.50628616  1
  Ca2+  Ca5  1  0.16888603  0.58861539  0.83994072  1
  Ca2+  Ca6  1  0.66603326  0.07871558  0.17121388  1
  Ca2+  Ca7  1  0.67117146  0.07590635  0.51060343  1
  Ca2+  Ca8  1  0.67233134  0.06828467  0.83614808  1
  Ca2+  Ca9  1  0.67207828  0.58463770  0.17329834  1
  Ca2+  Ca10  1  0.66691474  0.58967101  0.50057368  1
  Ca2+  Ca11  1  0.67254772  0.58569697  0.84392046  1
  Ca2+  Ca12  1  0.09089394  0.33091328  0.16309980  1
  Ca2+  Ca13  1  0.08826999  0.32145705  0.49384826  1
  Ca2+  Ca14  1  0.08418811  0.32991879  0.82799494  1
  Ca2+  Ca15  1  0.07853405  0.83276550  0.16111184  1
  Ca2+  Ca16  1  0.07292573  0.83518816  0.49364942  1
  Ca2+  Ca17  1  0.07964952  0.82563867  0.82724958  1
  Ca2+  Ca18  1  0.59499097  0.33166689  0.16519975  1
  Ca2+  Ca19  1  0.58385604  0.32667832  0.48953355  1
  Ca2+  Ca20  1  0.58333444  0.33592585  0.83039786  1
  Ca2+  Ca21  1  0.58120230  0.82390212  0.16232451  1
  Ca2+  Ca22  1  0.57995556  0.82567738  0.49244488  1
  Ca2+  Ca23  1  0.59262788  0.82478252  0.82940517  1
  Ca2+  Ca24  1  0.32322161  0.41889666  0.17040296  1
  Ca2+  Ca25  1  0.32999071  0.42254495  0.50303221  1
  Ca2+  Ca26  1  0.32626156  0.42528729  0.83548724  1
  Ca2+  Ca27  1  0.32173034  0.90787723  0.17214388  1
  Ca2+  Ca28  1  0.33039479  0.91759980  0.50251567  1
  Ca2+  Ca29  1  0.32833663  0.92258415  0.83716294  1
  Ca2+  Ca30  1  0.82654353  0.43259238  0.17234604  1
  Ca2+  Ca31  1  0.82833196  0.42271141  0.49749377  1
  Ca2+  Ca32  1  0.82741717  0.42496184  0.84410419  1
  Ca2+  Ca33  1  0.82785795  0.90996751  0.16982967  1
  Ca2+  Ca34  1  0.83171636  0.91614924  0.50805540  1
  Ca2+  Ca35  1  0.82857973  0.91139784  0.82897119  1
  Ca2+  Ca36  1  0.42317448  0.16795435  0.16734610  1
  Ca2+  Ca37  1  0.42091966  0.16440357  0.49358893  1
  Ca2+  Ca38  1  0.41344134  0.16872535  0.82788900  1
  Ca2+  Ca39  1  0.42617586  0.66734157  0.16568249  1
  Ca2+  Ca40  1  0.42506738  0.66741770  0.49528596  1
  Ca2+  Ca41  1  0.42805627  0.66298205  0.82659286  1
  Ca2+  Ca42  1  0.92274958  0.16922015  0.16682044  1
  Ca2+  Ca43  1  0.92618084  0.16026771  0.49581364  1
  Ca2+  Ca44  1  0.92058330  0.16766109  0.82412566  1
  Ca2+  Ca45  1  0.91567351  0.66600618  0.16359263  1
  Ca2+  Ca46  1  0.91496878  0.67906125  0.49634207  1
  Ca2+  Ca47  1  0.92689664  0.66642447  0.82778556  1
  Al0+  Al48  1  0.00127967  0.00102879  0.00136901  1
  Al0+  Al49  1  0.00020743  -0.00051861  0.32727178  1
  Al0+  Al50  1  -0.00063810  0.00115144  0.66471929  1
  Al0+  Al51  1  -0.00013657  0.49944291  0.00263294  1
  Al0+  Al52  1  -0.00210875  0.49912561  0.34596966  1
  Al0+  Al53  1  -0.00172132  0.49750953  0.66206996  1
  Al0+  Al54  1  0.50129613  0.00159572  0.00292263  1
  Al0+  Al55  1  0.49826779  0.00054406  0.32389541  1
  Al0+  Al56  1  0.49894862  -0.00046063  0.67682546  1
  Al0+  Al57  1  0.49862409  0.49797266  -0.00130373  1
  Al0+  Al58  1  0.49899642  0.49827302  0.33202736  1
  Al0+  Al59  1  0.49712332  0.49941441  0.66555064  1
  Al0+  Al60  1  0.25273027  0.25067241  0.00186414  1
  Al0+  Al61  1  0.25113241  0.24866453  0.33156274  1
  Al0+  Al62  1  0.24980287  0.25014342  0.66627608  1
  Al0+  Al63  1  0.25122998  0.75224459  -0.00000607  1
  Al0+  Al64  1  0.24818281  0.74931908  0.33586119  1
  Al0+  Al65  1  0.25240804  0.74845494  0.66883591  1
  Al0+  Al66  1  0.75154285  0.24926479  0.00017681  1
  Al0+  Al67  1  0.75191303  0.25102385  0.33187145  1
  Al0+  Al68  1  0.74982931  0.24963474  0.67063225  1
  Al0+  Al69  1  0.75026692  0.75285614  0.00339954  1
  Al0+  Al70  1  0.75075199  0.75102107  0.33005647  1
  Al0+  Al71  1  0.75066288  0.74742471  0.66314587  1
  Al0+  Al72  1  0.32049112  0.07200681  0.67946675  1
  Al0+  Al73  1  0.56996622  0.67982124  0.98572793  1
  Al0+  Al74  1  0.68007550  0.92999478  0.01636660  1
  Al0+  Al75  1  0.17888419  0.42698661  0.34908083  1
  Al0+  Al76  1  0.67684322  0.42812735  0.01382733  1
  Al0+  Al77  1  0.07493016  0.67646032  0.65090866  1
  Al0+  Al78  1  0.17990877  0.92972000  0.01316088  1
  Al0+  Al79  1  0.82105403  0.57236118  0.01382767  1
  Al0+  Al80  1  0.17970998  0.43013679  0.01204837  1
  Al0+  Al81  1  0.17741958  0.92829473  0.34801991  1
  Al0+  Al82  1  0.32069226  0.57145341  0.68060279  1
  Al0+  Al83  1  0.07173637  0.18029546  0.31754868  1
  Al0+  Al84  1  0.93009995  0.82107027  0.31731728  1
  Al0+  Al85  1  0.93085635  0.81924660  0.65204923  1
  Al0+  Al86  1  0.82298003  0.07200821  0.68097606  1
  Al0+  Al87  1  0.81927078  0.57456089  0.35280140  1
  Al0+  Al88  1  0.57313501  0.17967128  0.32048348  1
  Al0+  Al89  1  0.67779815  0.42857170  0.34950807  1
  Al0+  Al90  1  0.67900011  0.92607940  0.67979845  1
  Al0+  Al91  1  0.07056472  0.67825878  0.98878129  1
  Al0+  Al92  1  0.56991190  0.67867738  0.65346335  1
  Al0+  Al93  1  0.42582744  0.82179657  0.31838327  1
  Al0+  Al94  1  0.07055056  0.18102949  0.65371578  1
  Al0+  Al95  1  0.57039441  0.67852743  0.31730058  1
  Si0+  Si96  1  0.32157799  0.57174734  0.34984741  1
  Si0+  Si97  1  0.42768633  0.31947502  0.98258281  1
  Si0+  Si98  1  0.82043856  0.56968426  0.68192784  1
  Si0+  Si99  1  0.07272385  0.17908763  0.98470697  1
  Si0+  Si100  1  0.42806561  0.82509982  0.65274549  1
  Si0+  Si101  1  0.57055119  0.17836358  0.65540584  1
  Si0+  Si102  1  0.32214002  0.07044402  0.34858296  1
  Si0+  Si103  1  0.67755809  0.42830935  0.68101476  1
  Si0+  Si104  1  0.57257235  0.17873496  0.98233183  1
  Si0+  Si105  1  0.42806967  0.82412206  0.98125079  1
  Si0+  Si106  1  0.92392502  0.32196274  0.64857949  1
  Si0+  Si107  1  0.82089129  0.07095102  0.34622358  1
  Si0+  Si108  1  0.67748326  0.93117330  0.34635945  1
  Si0+  Si109  1  0.17722033  0.92784770  0.68228184  1
  Si0+  Si110  1  0.82317311  0.07307278  0.01842651  1
  Si0+  Si111  1  0.32241141  0.07334436  0.01910346  1
  Si0+  Si112  1  0.42797732  0.32164162  0.31552923  1
  Si0+  Si113  1  0.32246693  0.57311547  0.01670183  1
  Si0+  Si114  1  0.07097340  0.67586094  0.31919491  1
  Si0+  Si115  1  0.92908875  0.32347733  0.31605158  1
  Si0+  Si116  1  0.17776107  0.42855702  0.68232017  1
  Si0+  Si117  1  0.93013732  0.31997063  0.98580927  1
  Si0+  Si118  1  0.92854793  0.82442108  0.98229199  1
  Si0+  Si119  1  0.42948111  0.31985519  0.65126732  1
  O2-  O120  1  0.25523177  0.00324361  0.06179939  1
  O2-  O121  1  0.25412953  0.00188798  0.39348513  1
  O2-  O122  1  0.24660330  -0.00324526  0.72615527  1
  O2-  O123  1  0.24890403  0.50913135  0.06027486  1
  O2-  O124  1  0.25195592  0.50352910  0.39422216  1
  O2-  O125  1  0.23892317  0.50355500  0.72712035  1
  O2-  O126  1  0.75565692  0.00404470  0.06320291  1
  O2-  O127  1  0.74736675  0.00301606  0.38884468  1
  O2-  O128  1  0.75186547  -0.00149745  0.72944579  1
  O2-  O129  1  0.74375854  0.50477082  0.06257235  1
  O2-  O130  1  0.74401062  0.50415909  0.40192595  1
  O2-  O131  1  0.74875357  0.49862357  0.72345299  1
  O2-  O132  1  0.00136803  0.25897833  0.27018095  1
  O2-  O133  1  -0.00649868  0.25308569  0.60619673  1
  O2-  O134  1  0.00169211  0.24971359  0.94225548  1
  O2-  O135  1  0.00403522  0.74461534  0.27273763  1
  O2-  O136  1  0.00542590  0.75045958  0.60069706  1
  O2-  O137  1  -0.00341847  0.75349692  0.94081690  1
  O2-  O138  1  0.50177574  0.25750467  0.27230575  1
  O2-  O139  1  0.50023550  0.24818826  0.61028789  1
  O2-  O140  1  0.50211326  0.25101477  0.94052810  1
  O2-  O141  1  0.49792268  0.75043213  0.26775418  1
  O2-  O142  1  0.49691348  0.75637865  0.60914686  1
  O2-  O143  1  0.49630875  0.75517794  0.93670635  1
  O2-  O144  1  0.07218284  0.17980735  0.08963195  1
  O2-  O145  1  0.07027835  0.17949640  0.43067229  1
  O2-  O146  1  0.07171885  0.18449193  0.76752701  1
  O2-  O147  1  0.06871787  0.67723369  0.10172837  1
  O2-  O148  1  0.07104483  0.67865796  0.42464028  1
  O2-  O149  1  0.07201952  0.67705536  0.76511532  1
  O2-  O150  1  0.57184569  0.17898864  0.08738123  1
  O2-  O151  1  0.57038840  0.17780316  0.43420446  1
  O2-  O152  1  0.56947024  0.18211666  0.76071058  1
  O2-  O153  1  0.56767170  0.67986921  0.09819632  1
  O2-  O154  1  0.56839384  0.68078102  0.43121720  1
  O2-  O155  1  0.57032213  0.67641269  0.76680773  1
  O2-  O156  1  0.18100810  0.42775271  0.23553622  1
  O2-  O157  1  0.18329685  0.42507058  0.57708118  1
  O2-  O158  1  0.18256099  0.42624374  0.89905397  1
  O2-  O159  1  0.17733157  0.93044689  0.23468680  1
  O2-  O160  1  0.17769497  0.93002062  0.57674409  1
  O2-  O161  1  0.17996045  0.93340454  0.89983470  1
  O2-  O162  1  0.68276506  0.42723495  0.23636790  1
  O2-  O163  1  0.67769366  0.42531510  0.57645150  1
  O2-  O164  1  0.68022258  0.42694820  0.89944748  1
  O2-  O165  1  0.67932570  0.93325692  0.24111625  1
  O2-  O166  1  0.67639819  0.93000921  0.56585975  1
  O2-  O167  1  0.68093508  0.93054293  0.90335658  1
  O2-  O168  1  0.42298454  0.31657602  0.08709163  1
  O2-  O169  1  0.42607399  0.31844118  0.42141934  1
  O2-  O170  1  0.42994862  0.31995074  0.75674704  1
  O2-  O171  1  0.42798078  0.82287001  0.08660723  1
  O2-  O172  1  0.42917795  0.82404121  0.43235108  1
  O2-  O173  1  0.42774422  0.82507745  0.75837962  1
  O2-  O174  1  0.93051149  0.31747342  0.09045054  1
  O2-  O175  1  0.92753632  0.31868459  0.42165680  1
  O2-  O176  1  0.92431314  0.32314608  0.75472026  1
  O2-  O177  1  0.93064569  0.82693178  0.08781948  1
  O2-  O178  1  0.92996495  0.82429544  0.43011597  1
  O2-  O179  1  0.93067696  0.81634351  0.76602888  1
  O2-  O180  1  0.32075585  0.07222922  0.24297616  1
  O2-  O181  1  0.32219943  0.07263416  0.56674605  1
  O2-  O182  1  0.32071933  0.07548365  0.91314370  1
  O2-  O183  1  0.32141344  0.57005979  0.24409341  1
  O2-  O184  1  0.32489852  0.56536685  0.56787722  1
  O2-  O185  1  0.32329389  0.56945280  0.91085904  1
  O2-  O186  1  0.81990686  0.07064974  0.24085270  1
  O2-  O187  1  0.81951698  0.07412389  0.56713575  1
  O2-  O188  1  0.82235318  0.07572157  0.91301872  1
  O2-  O189  1  0.82104139  0.57278402  0.23924991  1
  O2-  O190  1  0.81902789  0.56955535  0.57734924  1
  O2-  O191  1  0.82249442  0.56860375  0.89942927  1
  O2-  O192  1  0.03560315  0.08672300  0.26146014  1
  O2-  O193  1  0.04294574  0.08414829  0.59948727  1
  O2-  O194  1  0.04466951  0.08753554  0.93697054  1
  O2-  O195  1  0.04362156  0.58053629  0.27735721  1
  O2-  O196  1  0.04721163  0.57686212  0.60010527  1
  O2-  O197  1  0.04128004  0.58088990  0.93392275  1
  O2-  O198  1  0.53897900  0.08677378  0.26110969  1
  O2-  O199  1  0.54262742  0.08560627  0.61077662  1
  O2-  O200  1  0.54254286  0.08732722  0.93524533  1
  O2-  O201  1  0.54277403  0.57883000  0.26615770  1
  O2-  O202  1  0.53551842  0.58285398  0.59957707  1
  O2-  O203  1  0.53946912  0.58158895  0.93299127  1
  O2-  O204  1  0.16940898  0.20763593  0.26371194  1
  O2-  O205  1  0.16636638  0.21391891  0.59870282  1
  O2-  O206  1  0.16540544  0.20751664  0.93911482  1
  O2-  O207  1  0.16564789  0.69724066  0.27417587  1
  O2-  O208  1  0.17627324  0.69914021  0.60172545  1
  O2-  O209  1  0.16853126  0.70839417  0.93572652  1
  O2-  O210  1  0.67005412  0.20776943  0.26494192  1
  O2-  O211  1  0.66263860  0.20576285  0.60850323  1
  O2-  O212  1  0.66514256  0.20515895  0.93550421  1
  O2-  O213  1  0.66780521  0.70931423  0.26514375  1
  O2-  O214  1  0.66625340  0.70646145  0.59897871  1
  O2-  O215  1  0.66820438  0.71170187  0.93445971  1
  O2-  O216  1  0.08267347  0.45455400  0.06712719  1
  O2-  O217  1  0.08250538  0.45152684  0.40529796  1
  O2-  O218  1  0.08014304  0.44418016  0.72390676  1
  O2-  O219  1  0.08387812  0.96215486  0.06757739  1
  O2-  O220  1  0.08161289  0.96469353  0.39991178  1
  O2-  O221  1  0.08473673  0.95541711  0.72883219  1
  O2-  O222  1  0.57491114  0.44577343  0.06292704  1
  O2-  O223  1  0.57534379  0.44720083  0.39848900  1
  O2-  O224  1  0.58482683  0.45463002  0.72705828  1
  O2-  O225  1  0.58372388  0.96307700  0.06961918  1
  O2-  O226  1  0.58439294  0.95918885  0.39050248  1
  O2-  O227  1  0.58309142  0.95543952  0.73747267  1
  O2-  O228  1  0.21566289  0.33495980  0.06679072  1
  O2-  O229  1  0.21391230  0.33051660  0.40130394  1
  O2-  O230  1  0.21141820  0.33820985  0.73069186  1
  O2-  O231  1  0.20964029  0.83321146  0.06807284  1
  O2-  O232  1  0.20494353  0.83124880  0.40238494  1
  O2-  O233  1  0.20295732  0.83443484  0.72846488  1
  O2-  O234  1  0.70962477  0.33012133  0.06510012  1
  O2-  O235  1  0.71096445  0.33021386  0.40222114  1
  O2-  O236  1  0.70411192  0.33685707  0.73068521  1
  O2-  O237  1  0.71003926  0.83484492  0.07219051  1
  O2-  O238  1  0.70588768  0.83961663  0.39222096  1
  O2-  O239  1  0.71080886  0.82828974  0.73277033  1
  O2-  O240  1  0.44637725  0.41623780  0.26944651  1
  O2-  O241  1  0.45803482  0.41001006  0.60198008  1
  O2-  O242  1  0.45188517  0.41167284  0.93383996  1
  O2-  O243  1  0.45107873  0.91936475  0.26193685  1
  O2-  O244  1  0.45260976  0.91974358  0.60779769  1
  O2-  O245  1  0.45332651  0.91973295  0.93821733  1
  O2-  O246  1  0.95195578  0.41940251  0.27476331  1
  O2-  O247  1  0.94805029  0.41468004  0.60075700  1
  O2-  O248  1  0.95763200  0.41110730  0.93711800  1
  O2-  O249  1  0.96147587  0.91588821  0.26031044  1
  O2-  O250  1  0.95398329  0.91971274  0.60071919  1
  O2-  O251  1  0.95647418  0.91792735  0.93608823  1
  O2-  O252  1  0.33755168  0.28953364  0.26625074  1
  O2-  O253  1  0.33827273  0.29180396  0.60350831  1
  O2-  O254  1  0.33813433  0.28704944  0.93178762  1
  O2-  O255  1  0.32712998  0.79126298  0.26623774  1
  O2-  O256  1  0.33443969  0.80026211  0.60686943  1
  O2-  O257  1  0.33399485  0.80075558  0.93495966  1
  O2-  O258  1  0.83805928  0.29334390  0.26729217  1
  O2-  O259  1  0.83007089  0.29594292  0.60312822  1
  O2-  O260  1  0.83900144  0.29097822  0.93634175  1
  O2-  O261  1  0.83361689  0.79165674  0.26304609  1
  O2-  O262  1  0.83376266  0.78821506  0.59784862  1
  O2-  O263  1  0.83389471  0.80110443  0.93855064  1
  O2-  O264  1  0.41729489  0.05114526  0.06334308  1
  O2-  O265  1  0.41678257  0.04522667  0.39334225  1
  O2-  O266  1  0.41517530  0.04441026  0.73957292  1
  O2-  O267  1  0.41277715  0.53949704  0.06399377  1
  O2-  O268  1  0.41432136  0.54350736  0.39633753  1
  O2-  O269  1  0.41397212  0.53130094  0.73692862  1
  O2-  O270  1  0.91774862  0.04981074  0.06331776  1
  O2-  O271  1  0.91201435  0.03989026  0.39218079  1
  O2-  O272  1  0.92172741  0.04632972  0.73488699  1
  O2-  O273  1  0.91637028  0.53766793  0.06867483  1
  O2-  O274  1  0.91523722  0.54319307  0.40920177  1
  O2-  O275  1  0.91290602  0.54028775  0.72807466  1
  O2-  O276  1  0.29595285  0.16612986  0.06580785  1
  O2-  O277  1  0.29761150  0.16418124  0.39467119  1
  O2-  O278  1  0.28871328  0.16828987  0.73521379  1
  O2-  O279  1  0.30414381  0.66882574  0.05965535  1
  O2-  O280  1  0.29740375  0.66472802  0.39729395  1
  O2-  O281  1  0.29935645  0.66947526  0.73654866  1
  O2-  O282  1  0.79602341  0.16582317  0.06543138  1
  O2-  O283  1  0.79770991  0.16379464  0.39292883  1
  O2-  O284  1  0.79331557  0.16964359  0.73668365  1
  O2-  O285  1  0.79884270  0.67196124  0.06521563  1
  O2-  O286  1  0.79046788  0.67396675  0.40406644  1
  O2-  O287  1  0.79304276  0.66083359  0.72954850  1
