# generated using pymatgen
data_Ca2Al2SiO7
_symmetry_space_group_name_H-M   'P 1'
_cell_length_a   15.46345994
_cell_length_b   15.46239099
_cell_length_c   15.28741741
_cell_angle_alpha   90.00189618
_cell_angle_beta   90.00063617
_cell_angle_gamma   89.99580922
_symmetry_Int_Tables_number   1
_chemical_formula_structural   Ca2Al2SiO7
_chemical_formula_sum   'Ca48 Al48 Si24 O168'
_cell_volume   3655.25303892
_cell_formula_units_Z   24
loop_
 _symmetry_equiv_pos_site_id
 _symmetry_equiv_pos_as_xyz
  1  'x, y, z'
loop_
 _atom_type_symbol
 _atom_type_oxidation_number
  Ca2+  2.0
  Al0+  0.0
  Si0+  0.0
  O2-  -2.0
loop_
 _atom_site_type_symbol
 _atom_site_label
 _atom_site_symmetry_multiplicity
 _atom_site_fract_x
 _atom_site_fract_y
 _atom_site_fract_z
 _atom_site_occupancy
  Ca2+  Ca0  1  0.17026450  0.08429360  0.16750207  1
  Ca2+  Ca1  1  0.17280810  0.08522987  0.50431472  1
  Ca2+  Ca2  1  0.16954509  0.08512743  0.83717902  1
  Ca2+  Ca3  1  0.17620612  0.58261591  0.17422804  1
  Ca2+  Ca4  1  0.17013712  0.58074643  0.50318223  1
  Ca2+  Ca5  1  0.17303443  0.57282246  0.83802878  1
  Ca2+  Ca6  1  0.66797587  0.07070755  0.17347851  1
  Ca2+  Ca7  1  0.66568690  0.06966335  0.50450460  1
  Ca2+  Ca8  1  0.66730577  0.07227696  0.83837727  1
  Ca2+  Ca9  1  0.67089831  0.58676417  0.17672124  1
  Ca2+  Ca10  1  0.67139760  0.58925059  0.49648288  1
  Ca2+  Ca11  1  0.66861357  0.57981336  0.83744706  1
  Ca2+  Ca12  1  0.08838294  0.31993425  0.16451406  1
  Ca2+  Ca13  1  0.09093368  0.32326331  0.50007957  1
  Ca2+  Ca14  1  0.08617786  0.32212174  0.82413677  1
  Ca2+  Ca15  1  0.07391778  0.83631489  0.16065017  1
  Ca2+  Ca16  1  0.08140369  0.82915675  0.48875161  1
  Ca2+  Ca17  1  0.08283370  0.84192968  0.83137274  1
  Ca2+  Ca18  1  0.57083921  0.33398788  0.16326791  1
  Ca2+  Ca19  1  0.57048144  0.32945937  0.49435905  1
  Ca2+  Ca20  1  0.56998465  0.32938988  0.82799317  1
  Ca2+  Ca21  1  0.58069840  0.83531832  0.17020659  1
  Ca2+  Ca22  1  0.57979388  0.83338712  0.48968154  1
  Ca2+  Ca23  1  0.58445329  0.83693393  0.83071717  1
  Ca2+  Ca24  1  0.34152984  0.42481603  0.17166738  1
  Ca2+  Ca25  1  0.33341347  0.41889591  0.50200216  1
  Ca2+  Ca26  1  0.33166121  0.41359913  0.83710062  1
  Ca2+  Ca27  1  0.33234693  0.92939561  0.17523977  1
  Ca2+  Ca28  1  0.33094982  0.92664334  0.50647392  1
  Ca2+  Ca29  1  0.31833968  0.93018297  0.84003936  1
  Ca2+  Ca30  1  0.83069187  0.42397921  0.17727608  1
  Ca2+  Ca31  1  0.84094625  0.42309952  0.50444873  1
  Ca2+  Ca32  1  0.83569875  0.41342671  0.83476202  1
  Ca2+  Ca33  1  0.82552349  0.90259943  0.17050566  1
  Ca2+  Ca34  1  0.82305106  0.90582397  0.49949521  1
  Ca2+  Ca35  1  0.82424863  0.91193736  0.83999360  1
  Ca2+  Ca36  1  0.40457030  0.17569558  0.16375846  1
  Ca2+  Ca37  1  0.40280186  0.17479679  0.49615242  1
  Ca2+  Ca38  1  0.40466388  0.17198218  0.83049413  1
  Ca2+  Ca39  1  0.41517402  0.66879123  0.16644032  1
  Ca2+  Ca40  1  0.42130558  0.67672448  0.48534695  1
  Ca2+  Ca41  1  0.41440129  0.66709507  0.83246891  1
  Ca2+  Ca42  1  0.93105865  0.15843398  0.16277244  1
  Ca2+  Ca43  1  0.93076380  0.16741718  0.49570010  1
  Ca2+  Ca44  1  0.93064998  0.16863622  0.82568883  1
  Ca2+  Ca45  1  0.91998520  0.67280545  0.17033037  1
  Ca2+  Ca46  1  0.92480228  0.67015801  0.48780405  1
  Ca2+  Ca47  1  0.91912991  0.67365719  0.83241614  1
  Al0+  Al48  1  -0.00193239  -0.00014522  -0.00812061  1
  Al0+  Al49  1  -0.00140928  0.00054053  0.32526625  1
  Al0+  Al50  1  -0.00307994  -0.00038049  0.66214457  1
  Al0+  Al51  1  0.00027705  0.50154557  0.00139122  1
  Al0+  Al52  1  -0.00034161  0.49905472  0.33398662  1
  Al0+  Al53  1  0.00146148  0.50290339  0.67062241  1
  Al0+  Al54  1  0.50016404  -0.00044095  0.00743889  1
  Al0+  Al55  1  0.50041571  0.00171135  0.33950429  1
  Al0+  Al56  1  0.50041848  -0.00002431  0.67617819  1
  Al0+  Al57  1  0.50115563  0.49955010  -0.00243940  1
  Al0+  Al58  1  0.50021429  0.49989914  0.33168427  1
  Al0+  Al59  1  0.50405066  0.50064378  0.66224705  1
  Al0+  Al60  1  0.24805635  0.25093882  -0.00520774  1
  Al0+  Al61  1  0.24927707  0.25043841  0.32782316  1
  Al0+  Al62  1  0.24971307  0.25338197  0.66525270  1
  Al0+  Al63  1  0.24956020  0.74876084  0.00479224  1
  Al0+  Al64  1  0.25121724  0.75002511  0.32976041  1
  Al0+  Al65  1  0.25157369  0.75132669  0.66981077  1
  Al0+  Al66  1  0.74768744  0.24913820  0.00100871  1
  Al0+  Al67  1  0.74921352  0.24871736  0.33512262  1
  Al0+  Al68  1  0.74884298  0.25162273  0.66310630  1
  Al0+  Al69  1  0.75025081  0.74802958  -0.00166163  1
  Al0+  Al70  1  0.74997425  0.74733196  0.33605593  1
  Al0+  Al71  1  0.75096653  0.74835474  0.67193081  1
  Al0+  Al72  1  0.07405592  0.67576717  0.31852718  1
  Al0+  Al73  1  0.82077466  0.56836090  0.34795237  1
  Al0+  Al74  1  0.31876826  0.07266795  0.68169592  1
  Al0+  Al75  1  0.92781422  0.32406681  0.65200181  1
  Al0+  Al76  1  0.07080021  0.17837857  0.64919760  1
  Al0+  Al77  1  0.32214189  0.57250866  0.34758715  1
  Al0+  Al78  1  0.06863334  0.18073618  0.98390844  1
  Al0+  Al79  1  0.92979498  0.81968177  0.31922137  1
  Al0+  Al80  1  0.56994614  0.68011522  0.31868966  1
  Al0+  Al81  1  0.67984941  0.92728566  0.01645390  1
  Al0+  Al82  1  0.42974500  0.32084997  0.65143192  1
  Al0+  Al83  1  0.18021797  0.43214374  0.67964995  1
  Al0+  Al84  1  0.17596021  0.92651962  0.67892232  1
  Al0+  Al85  1  0.92951973  0.81756716  0.98388199  1
  Al0+  Al86  1  0.07029525  0.17991514  0.31768188  1
  Al0+  Al87  1  0.17511455  0.92922528  0.01619380  1
  Al0+  Al88  1  0.42813564  0.82535243  0.31896050  1
  Al0+  Al89  1  0.68133877  0.92844411  0.68204256  1
  Al0+  Al90  1  0.32263761  0.56925659  0.01343996  1
  Al0+  Al91  1  0.43133877  0.32027026  0.98491250  1
  Al0+  Al92  1  0.43045905  0.31895835  0.31906648  1
  Al0+  Al93  1  0.68156296  0.92984194  0.34803696  1
  Al0+  Al94  1  0.31881610  0.07263370  0.01691216  1
  Al0+  Al95  1  0.31876599  0.07192190  0.34780449  1
  Si0+  Si96  1  0.82082569  0.07254129  0.01535368  1
  Si0+  Si97  1  0.82111561  0.07475032  0.68241420  1
  Si0+  Si98  1  0.82453341  0.07399677  0.35073663  1
  Si0+  Si99  1  0.92682965  0.81933464  0.65208554  1
  Si0+  Si100  1  0.57211371  0.17566611  0.65039016  1
  Si0+  Si101  1  0.67904918  0.42837914  0.01386325  1
  Si0+  Si102  1  0.67789531  0.42849179  0.68211472  1
  Si0+  Si103  1  0.07218594  0.68101643  0.65422571  1
  Si0+  Si104  1  0.57339593  0.67967832  0.65205443  1
  Si0+  Si105  1  0.42758930  0.82282571  0.98486841  1
  Si0+  Si106  1  0.57470846  0.17684235  0.31710410  1
  Si0+  Si107  1  0.67716234  0.42575055  0.35149938  1
  Si0+  Si108  1  0.57009064  0.68016986  0.98361945  1
  Si0+  Si109  1  0.82072301  0.56960862  0.01498442  1
  Si0+  Si110  1  0.17732868  0.42845879  0.01723715  1
  Si0+  Si111  1  0.32591863  0.57263031  0.68172637  1
  Si0+  Si112  1  0.82101501  0.56991334  0.68434091  1
  Si0+  Si113  1  0.07472005  0.67601097  0.98110666  1
  Si0+  Si114  1  0.92504565  0.32505535  0.98602927  1
  Si0+  Si115  1  0.92556055  0.32166595  0.31709277  1
  Si0+  Si116  1  0.43060363  0.82087269  0.65522944  1
  Si0+  Si117  1  0.57343581  0.17555147  0.98349175  1
  Si0+  Si118  1  0.17906364  0.42856744  0.34900584  1
  Si0+  Si119  1  0.17552770  0.92851846  0.34675373  1
  O2-  O120  1  0.24927735  -0.00174312  0.06691794  1
  O2-  O121  1  0.24610604  -0.00578993  0.39262738  1
  O2-  O122  1  0.24317443  0.00285253  0.72928773  1
  O2-  O123  1  0.24634723  0.49669583  0.06076228  1
  O2-  O124  1  0.24441896  0.50072104  0.39340131  1
  O2-  O125  1  0.25903470  0.50293191  0.72641322  1
  O2-  O126  1  0.75329512  0.00379301  0.06124595  1
  O2-  O127  1  0.75658579  0.00449255  0.39494060  1
  O2-  O128  1  0.75455979  0.00457330  0.72842772  1
  O2-  O129  1  0.75560185  0.49288137  0.05580210  1
  O2-  O130  1  0.74877027  0.49141807  0.39609207  1
  O2-  O131  1  0.75277857  0.49546240  0.72570630  1
  O2-  O132  1  -0.00816817  0.25211435  0.27170147  1
  O2-  O133  1  -0.00226654  0.25135196  0.60087627  1
  O2-  O134  1  -0.00714554  0.25698746  0.94114476  1
  O2-  O135  1  0.00615144  0.75213265  0.26924184  1
  O2-  O136  1  0.00584218  0.75658935  0.61222324  1
  O2-  O137  1  0.00864094  0.74744583  0.93637256  1
  O2-  O138  1  0.50567001  0.24464747  0.27237327  1
  O2-  O139  1  0.50061040  0.24146535  0.60621158  1
  O2-  O140  1  0.50207673  0.24120614  0.93872275  1
  O2-  O141  1  0.49683148  0.74995170  0.26777024  1
  O2-  O142  1  0.50111924  0.74954795  0.61213045  1
  O2-  O143  1  0.49897571  0.75107846  0.94151717  1
  O2-  O144  1  0.06801697  0.18226364  0.09712804  1
  O2-  O145  1  0.07150266  0.18142112  0.43035666  1
  O2-  O146  1  0.06949733  0.18015038  0.76275917  1
  O2-  O147  1  0.07134147  0.67112895  0.08592458  1
  O2-  O148  1  0.07107379  0.67575404  0.43318280  1
  O2-  O149  1  0.06935935  0.67883870  0.75926658  1
  O2-  O150  1  0.57904528  0.17976058  0.08856740  1
  O2-  O151  1  0.57726703  0.17911247  0.42271398  1
  O2-  O152  1  0.57546671  0.17848188  0.75603380  1
  O2-  O153  1  0.57241226  0.67818786  0.08788353  1
  O2-  O154  1  0.57043732  0.68247495  0.43292610  1
  O2-  O155  1  0.57469497  0.67790088  0.75760608  1
  O2-  O156  1  0.18001892  0.42802522  0.24322880  1
  O2-  O157  1  0.17927882  0.43545116  0.56676227  1
  O2-  O158  1  0.17643760  0.43052138  0.91141437  1
  O2-  O159  1  0.17415786  0.93236380  0.24146834  1
  O2-  O160  1  0.18105740  0.91948184  0.56572002  1
  O2-  O161  1  0.17703153  0.93173072  0.90241742  1
  O2-  O162  1  0.67906819  0.42604368  0.24538807  1
  O2-  O163  1  0.67486868  0.43206461  0.57773310  1
  O2-  O164  1  0.67844878  0.43106305  0.90841454  1
  O2-  O165  1  0.68315700  0.92993759  0.23504899  1
  O2-  O166  1  0.68241034  0.92474620  0.56936496  1
  O2-  O167  1  0.68179945  0.92682882  0.90290090  1
  O2-  O168  1  0.43508920  0.32322304  0.09768084  1
  O2-  O169  1  0.43057380  0.31838827  0.43226615  1
  O2-  O170  1  0.43342846  0.32388961  0.76454018  1
  O2-  O171  1  0.42965530  0.82211513  0.08941877  1
  O2-  O172  1  0.43119535  0.82504228  0.43348852  1
  O2-  O173  1  0.43185614  0.81751952  0.76056182  1
  O2-  O174  1  0.92421322  0.32677096  0.09142348  1
  O2-  O175  1  0.92606016  0.32144695  0.42240478  1
  O2-  O176  1  0.92849927  0.32220858  0.76603839  1
  O2-  O177  1  0.92585273  0.81197779  0.09617382  1
  O2-  O178  1  0.92997623  0.81717996  0.43355665  1
  O2-  O179  1  0.92218948  0.81429677  0.75708924  1
  O2-  O180  1  0.31686880  0.07394963  0.23506781  1
  O2-  O181  1  0.31958701  0.06978344  0.56800128  1
  O2-  O182  1  0.31759103  0.07267088  0.90336342  1
  O2-  O183  1  0.32411247  0.56752598  0.23454116  1
  O2-  O184  1  0.32489470  0.57441633  0.57653302  1
  O2-  O185  1  0.32330257  0.56687685  0.89967460  1
  O2-  O186  1  0.82187930  0.07699157  0.24520806  1
  O2-  O187  1  0.81864867  0.07390275  0.57700020  1
  O2-  O188  1  0.81707935  0.07378088  0.90963839  1
  O2-  O189  1  0.81849699  0.56677265  0.23437474  1
  O2-  O190  1  0.81954516  0.57286105  0.57976518  1
  O2-  O191  1  0.81877228  0.57000987  0.90935313  1
  O2-  O192  1  0.03997662  0.08468384  0.26124312  1
  O2-  O193  1  0.04220658  0.07964548  0.59568266  1
  O2-  O194  1  0.03669531  0.08590680  0.92762416  1
  O2-  O195  1  0.04010425  0.57893998  0.26512401  1
  O2-  O196  1  0.03890174  0.59170870  0.60613828  1
  O2-  O197  1  0.04337658  0.58355556  0.93332487  1
  O2-  O198  1  0.54982830  0.08304316  0.27313843  1
  O2-  O199  1  0.54939674  0.07970224  0.60802651  1
  O2-  O200  1  0.55098181  0.07985040  0.94044241  1
  O2-  O201  1  0.54638157  0.58049338  0.26637707  1
  O2-  O202  1  0.55042228  0.58775733  0.60333457  1
  O2-  O203  1  0.54228798  0.58881476  0.93391677  1
  O2-  O204  1  0.16348251  0.21572893  0.26119796  1
  O2-  O205  1  0.16808307  0.21128824  0.59741067  1
  O2-  O206  1  0.16333197  0.21398531  0.92831296  1
  O2-  O207  1  0.17374467  0.69666717  0.26690544  1
  O2-  O208  1  0.16630983  0.70282030  0.60840558  1
  O2-  O209  1  0.17004457  0.69681938  0.93638080  1
  O2-  O210  1  0.66834446  0.20153061  0.26941525  1
  O2-  O211  1  0.66385016  0.20400067  0.60203736  1
  O2-  O212  1  0.66562526  0.20443301  0.93427075  1
  O2-  O213  1  0.66812128  0.70887823  0.26640086  1
  O2-  O214  1  0.66531000  0.70935396  0.60604949  1
  O2-  O215  1  0.66134105  0.70762281  0.93394503  1
  O2-  O216  1  0.08321130  0.45333343  0.06330789  1
  O2-  O217  1  0.08414041  0.44918210  0.39417465  1
  O2-  O218  1  0.08588852  0.46635715  0.73725546  1
  O2-  O219  1  0.07501361  0.95857109  0.06453011  1
  O2-  O220  1  0.08138584  0.95519969  0.39185763  1
  O2-  O221  1  0.07329320  0.94749443  0.72640222  1
  O2-  O222  1  0.59055856  0.46304003  0.06222556  1
  O2-  O223  1  0.58540097  0.45545408  0.39798740  1
  O2-  O224  1  0.58897134  0.46269257  0.73255113  1
  O2-  O225  1  0.58349092  0.95545557  0.07087460  1
  O2-  O226  1  0.58627126  0.96159586  0.40435168  1
  O2-  O227  1  0.58561153  0.95734994  0.73869956  1
  O2-  O228  1  0.20312736  0.33492029  0.06127184  1
  O2-  O229  1  0.21058187  0.33698503  0.39495562  1
  O2-  O230  1  0.20946315  0.33599946  0.73413655  1
  O2-  O231  1  0.19708350  0.82779898  0.06480882  1
  O2-  O232  1  0.19686498  0.83276315  0.38956989  1
  O2-  O233  1  0.20806464  0.83033480  0.73654902  1
  O2-  O234  1  0.69928406  0.33487420  0.06135507  1
  O2-  O235  1  0.69854264  0.33091238  0.39708620  1
  O2-  O236  1  0.70115433  0.33546514  0.72964185  1
  O2-  O237  1  0.71346841  0.83002880  0.06698022  1
  O2-  O238  1  0.71294028  0.83349682  0.40235673  1
  O2-  O239  1  0.71424519  0.83244519  0.73759045  1
  O2-  O240  1  0.46387047  0.41458428  0.26517932  1
  O2-  O241  1  0.46571250  0.41661079  0.59776889  1
  O2-  O242  1  0.46813306  0.41482798  0.92944513  1
  O2-  O243  1  0.46191588  0.92261879  0.26711451  1
  O2-  O244  1  0.45949346  0.91327638  0.61045184  1
  O2-  O245  1  0.45788307  0.91445731  0.93839718  1
  O2-  O246  1  0.95150817  0.41490112  0.27101331  1
  O2-  O247  1  0.95638482  0.42454536  0.60313320  1
  O2-  O248  1  0.94914351  0.41956474  0.94003898  1
  O2-  O249  1  0.94911975  0.91905776  0.26471079  1
  O2-  O250  1  0.94145346  0.91384439  0.60623514  1
  O2-  O251  1  0.95264386  0.91536758  0.92871143  1
  O2-  O252  1  0.33491201  0.28956344  0.26346283  1
  O2-  O253  1  0.33234208  0.29592617  0.59768997  1
  O2-  O254  1  0.33321082  0.29422513  0.93219822  1
  O2-  O255  1  0.32959236  0.80121473  0.26586389  1
  O2-  O256  1  0.33905051  0.79365442  0.60719735  1
  O2-  O257  1  0.33583919  0.79313852  0.93799714  1
  O2-  O258  1  0.83009778  0.29996228  0.27233498  1
  O2-  O259  1  0.82688624  0.30277331  0.60033265  1
  O2-  O260  1  0.83007008  0.30106716  0.94072952  1
  O2-  O261  1  0.83373133  0.78297800  0.26767616  1
  O2-  O262  1  0.83824884  0.78108766  0.60452234  1
  O2-  O263  1  0.83464360  0.77957928  0.92842910  1
  O2-  O264  1  0.41909231  0.04872191  0.06806307  1
  O2-  O265  1  0.41661188  0.04680035  0.40205005  1
  O2-  O266  1  0.41656703  0.04422615  0.73654726  1
  O2-  O267  1  0.41953393  0.53685455  0.06587020  1
  O2-  O268  1  0.41840788  0.53916516  0.40144203  1
  O2-  O269  1  0.42132149  0.54903374  0.72571030  1
  O2-  O270  1  0.91469752  0.04630525  0.05822776  1
  O2-  O271  1  0.91870539  0.04806913  0.39479893  1
  O2-  O272  1  0.91525607  0.04968067  0.72694296  1
  O2-  O273  1  0.91412641  0.54828852  0.06186277  1
  O2-  O274  1  0.91754884  0.53888168  0.40329161  1
  O2-  O275  1  0.91270547  0.54631727  0.73393076  1
  O2-  O276  1  0.28722003  0.17197993  0.06621965  1
  O2-  O277  1  0.28342511  0.16840502  0.39964950  1
  O2-  O278  1  0.29316109  0.17246357  0.73199559  1
  O2-  O279  1  0.29608358  0.66645552  0.06707855  1
  O2-  O280  1  0.29619862  0.67124337  0.40066195  1
  O2-  O281  1  0.29879517  0.66497399  0.72984461  1
  O2-  O282  1  0.79681786  0.16650517  0.06267541  1
  O2-  O283  1  0.79942573  0.16746006  0.39809979  1
  O2-  O284  1  0.79507454  0.16855993  0.72843094  1
  O2-  O285  1  0.78510616  0.65802145  0.06212268  1
  O2-  O286  1  0.78705198  0.66238147  0.40488538  1
  O2-  O287  1  0.78733412  0.65846604  0.73530159  1
