# generated using pymatgen
data_Ca2Al2SiO7
_symmetry_space_group_name_H-M   'P 1'
_cell_length_a   15.46646124
_cell_length_b   15.46618303
_cell_length_c   15.28989845
_cell_angle_alpha   89.99391828
_cell_angle_beta   90.00071431
_cell_angle_gamma   90.00204605
_symmetry_Int_Tables_number   1
_chemical_formula_structural   Ca2Al2SiO7
_chemical_formula_sum   'Ca48 Al48 Si24 O168'
_cell_volume   3657.45255546
_cell_formula_units_Z   24
loop_
 _symmetry_equiv_pos_site_id
 _symmetry_equiv_pos_as_xyz
  1  'x, y, z'
loop_
 _atom_type_symbol
 _atom_type_oxidation_number
  Ca2+  2.0
  Al0+  0.0
  Si0+  0.0
  O2-  -2.0
loop_
 _atom_site_type_symbol
 _atom_site_label
 _atom_site_symmetry_multiplicity
 _atom_site_fract_x
 _atom_site_fract_y
 _atom_site_fract_z
 _atom_site_occupancy
  Ca2+  Ca0  1  0.16318033  0.08585587  0.16897564  1
  Ca2+  Ca1  1  0.17094816  0.08176064  0.50825558  1
  Ca2+  Ca2  1  0.17045763  0.08049525  0.83305756  1
  Ca2+  Ca3  1  0.18013799  0.57276036  0.17564736  1
  Ca2+  Ca4  1  0.17950379  0.57175794  0.50792766  1
  Ca2+  Ca5  1  0.17600603  0.57516671  0.84365673  1
  Ca2+  Ca6  1  0.65718658  0.08441030  0.16920980  1
  Ca2+  Ca7  1  0.67097213  0.08428447  0.50784410  1
  Ca2+  Ca8  1  0.67377224  0.08738587  0.84131155  1
  Ca2+  Ca9  1  0.66396704  0.58365721  0.16905703  1
  Ca2+  Ca10  1  0.66422661  0.58266147  0.50319934  1
  Ca2+  Ca11  1  0.65825910  0.57676789  0.83657215  1
  Ca2+  Ca12  1  0.09448061  0.32681926  0.16201623  1
  Ca2+  Ca13  1  0.09089947  0.33070524  0.49257751  1
  Ca2+  Ca14  1  0.09389509  0.33129174  0.83183191  1
  Ca2+  Ca15  1  0.07508542  0.82890946  0.15807434  1
  Ca2+  Ca16  1  0.08079388  0.83805008  0.50245666  1
  Ca2+  Ca17  1  0.07497387  0.83818888  0.82707730  1
  Ca2+  Ca18  1  0.57323276  0.33279168  0.15871729  1
  Ca2+  Ca19  1  0.57716807  0.32984035  0.49277807  1
  Ca2+  Ca20  1  0.57839586  0.34168406  0.83190343  1
  Ca2+  Ca21  1  0.57591419  0.82024821  0.15906664  1
  Ca2+  Ca22  1  0.58116838  0.82089798  0.49650734  1
  Ca2+  Ca23  1  0.57554161  0.81901566  0.83185725  1
  Ca2+  Ca24  1  0.33395936  0.41844763  0.16761957  1
  Ca2+  Ca25  1  0.33008156  0.41938562  0.50177372  1
  Ca2+  Ca26  1  0.32870486  0.42430747  0.83859755  1
  Ca2+  Ca27  1  0.33781472  0.91635420  0.16707468  1
  Ca2+  Ca28  1  0.32808078  0.92814619  0.51125917  1
  Ca2+  Ca29  1  0.33790283  0.92161812  0.83723266  1
  Ca2+  Ca30  1  0.82463045  0.42226459  0.17015638  1
  Ca2+  Ca31  1  0.82577769  0.42388716  0.50479196  1
  Ca2+  Ca32  1  0.81809330  0.41397803  0.83843450  1
  Ca2+  Ca33  1  0.83206968  0.91585950  0.16843485  1
  Ca2+  Ca34  1  0.83301779  0.92387976  0.50916177  1
  Ca2+  Ca35  1  0.83872663  0.91856059  0.83467152  1
  Ca2+  Ca36  1  0.42305064  0.18203933  0.16116665  1
  Ca2+  Ca37  1  0.41738029  0.17314566  0.48989190  1
  Ca2+  Ca38  1  0.41813258  0.17351010  0.83242840  1
  Ca2+  Ca39  1  0.42120945  0.66213509  0.15921597  1
  Ca2+  Ca40  1  0.42314975  0.65439647  0.49814190  1
  Ca2+  Ca41  1  0.42267297  0.65387505  0.83113744  1
  Ca2+  Ca42  1  0.92985053  0.17045265  0.16210318  1
  Ca2+  Ca43  1  0.92191215  0.16839647  0.49699745  1
  Ca2+  Ca44  1  0.92175488  0.16598731  0.83031273  1
  Ca2+  Ca45  1  0.91507684  0.66868575  0.16114430  1
  Ca2+  Ca46  1  0.91443900  0.67127466  0.49582968  1
  Ca2+  Ca47  1  0.91547137  0.67916384  0.82694773  1
  Al0+  Al48  1  0.00055281  0.00191176  -0.00551990  1
  Al0+  Al49  1  -0.00203108  0.00120026  0.32972660  1
  Al0+  Al50  1  -0.00059516  0.00169275  0.66852032  1
  Al0+  Al51  1  -0.00104873  0.49856195  0.00340480  1
  Al0+  Al52  1  -0.00206381  0.50132573  0.34106318  1
  Al0+  Al53  1  -0.00182086  0.50027538  0.66889549  1
  Al0+  Al54  1  0.50218445  -0.00101603  -0.00521140  1
  Al0+  Al55  1  0.49986348  -0.00278465  0.33351909  1
  Al0+  Al56  1  0.50226318  -0.00180511  0.67031988  1
  Al0+  Al57  1  0.50027341  0.49794303  0.00112621  1
  Al0+  Al58  1  0.50067211  0.49930200  0.32838621  1
  Al0+  Al59  1  0.49984448  0.49747606  0.66612563  1
  Al0+  Al60  1  0.25219596  0.24700695  -0.00620026  1
  Al0+  Al61  1  0.25075353  0.24758630  0.32777033  1
  Al0+  Al62  1  0.25163158  0.24912147  0.67147209  1
  Al0+  Al63  1  0.24847660  0.75229349  0.00203596  1
  Al0+  Al64  1  0.24754526  0.74984448  0.33855003  1
  Al0+  Al65  1  0.24932541  0.75074474  0.67217735  1
  Al0+  Al66  1  0.75365257  0.24985139  0.00608894  1
  Al0+  Al67  1  0.75323192  0.24832799  0.33069388  1
  Al0+  Al68  1  0.75165896  0.25029918  0.67325334  1
  Al0+  Al69  1  0.74870925  0.75308165  -0.00812669  1
  Al0+  Al70  1  0.74795057  0.75183930  0.33376238  1
  Al0+  Al71  1  0.74992128  0.75155057  0.65675651  1
  Al0+  Al72  1  0.07119027  0.18085003  0.98324491  1
  Al0+  Al73  1  0.56992544  0.68026058  0.31924210  1
  Al0+  Al74  1  0.57404935  0.17602436  0.32116610  1
  Al0+  Al75  1  0.17861775  0.93012782  0.68191999  1
  Al0+  Al76  1  0.81928821  0.57351660  0.34687163  1
  Al0+  Al77  1  0.17843810  0.42604002  0.01649193  1
  Al0+  Al78  1  0.17628002  0.42820809  0.68193429  1
  Al0+  Al79  1  0.67972620  0.42891795  0.01550869  1
  Al0+  Al80  1  0.81908441  0.07047153  0.68111009  1
  Al0+  Al81  1  0.56881562  0.67788050  0.98435255  1
  Al0+  Al82  1  0.32062346  0.57235072  0.01661296  1
  Al0+  Al83  1  0.06962001  0.18017674  0.32125856  1
  Al0+  Al84  1  0.32462579  0.07131912  0.68267247  1
  Al0+  Al85  1  0.42561788  0.82139570  0.98517690  1
  Al0+  Al86  1  0.93155914  0.82160872  0.64954752  1
  Al0+  Al87  1  0.56713319  0.67814216  0.65059656  1
  Al0+  Al88  1  0.68091698  0.43062958  0.67830674  1
  Al0+  Al89  1  0.18012239  0.42593182  0.34797151  1
  Al0+  Al90  1  0.32342452  0.57219708  0.34976903  1
  Al0+  Al91  1  0.57387730  0.17934933  0.98401752  1
  Al0+  Al92  1  0.42982723  0.32055024  0.31804041  1
  Al0+  Al93  1  0.92945891  0.82033381  0.98625660  1
  Al0+  Al94  1  0.43032814  0.32076314  0.98085096  1
  Al0+  Al95  1  0.32170155  0.56993002  0.68188615  1
  Si0+  Si96  1  0.42473912  0.82225204  0.31969119  1
  Si0+  Si97  1  0.92562558  0.32206267  0.65225681  1
  Si0+  Si98  1  0.82354189  0.07009451  0.01846048  1
  Si0+  Si99  1  0.67875863  0.93003033  0.34850227  1
  Si0+  Si100  1  0.42997180  0.31744209  0.65043028  1
  Si0+  Si101  1  0.82149459  0.57546841  0.68269306  1
  Si0+  Si102  1  0.42599607  0.82444319  0.64912569  1
  Si0+  Si103  1  0.82274513  0.06981899  0.34756974  1
  Si0+  Si104  1  0.17444074  0.92895926  0.34679667  1
  Si0+  Si105  1  0.32307374  0.06840549  0.01634532  1
  Si0+  Si106  1  0.32033055  0.06756030  0.34476639  1
  Si0+  Si107  1  0.68001354  0.93004565  0.01539463  1
  Si0+  Si108  1  0.57448525  0.17786534  0.65395768  1
  Si0+  Si109  1  0.92967599  0.82094940  0.31850594  1
  Si0+  Si110  1  0.82050877  0.57569249  0.01369459  1
  Si0+  Si111  1  0.67920614  0.42653387  0.34872123  1
  Si0+  Si112  1  0.92759014  0.32546826  0.31739889  1
  Si0+  Si113  1  0.07305925  0.67609359  0.64952914  1
  Si0+  Si114  1  0.07012342  0.18278012  0.65180607  1
  Si0+  Si115  1  0.67921102  0.92541559  0.68461317  1
  Si0+  Si116  1  0.07106138  0.67664775  0.98552326  1
  Si0+  Si117  1  0.17641616  0.93121806  0.01642375  1
  Si0+  Si118  1  0.07056463  0.67823669  0.32025015  1
  Si0+  Si119  1  0.92813461  0.32335208  0.98334841  1
  O2-  O120  1  0.25119526  -0.00224565  0.05964979  1
  O2-  O121  1  0.24868293  -0.00284289  0.38724457  1
  O2-  O122  1  0.25601781  -0.00438795  0.73251588  1
  O2-  O123  1  0.24840379  0.49987553  0.06598281  1
  O2-  O124  1  0.25176317  0.49824353  0.39739034  1
  O2-  O125  1  0.24300606  0.50496796  0.73071410  1
  O2-  O126  1  0.74928095  0.00224346  0.06029968  1
  O2-  O127  1  0.74565829  0.00572514  0.38980586  1
  O2-  O128  1  0.74430383  -0.00289201  0.72939458  1
  O2-  O129  1  0.75260949  0.50731224  0.05932784  1
  O2-  O130  1  0.74577791  0.49736837  0.39322713  1
  O2-  O131  1  0.75387230  0.50655747  0.72662471  1
  O2-  O132  1  0.00057732  0.26031173  0.27476976  1
  O2-  O133  1  0.00298716  0.25761178  0.60955715  1
  O2-  O134  1  0.00109271  0.26025105  0.93757200  1
  O2-  O135  1  -0.00116456  0.74869221  0.27642202  1
  O2-  O136  1  0.00538491  0.74593952  0.60301765  1
  O2-  O137  1  0.00151817  0.74367789  0.93971540  1
  O2-  O138  1  0.50647907  0.25098569  0.27097890  1
  O2-  O139  1  0.49917508  0.24282024  0.61011471  1
  O2-  O140  1  0.50596198  0.25198294  0.93042951  1
  O2-  O141  1  0.48830212  0.74905053  0.27602146  1
  O2-  O142  1  0.49047809  0.75216557  0.60412421  1
  O2-  O143  1  0.49035745  0.74347013  0.93485387  1
  O2-  O144  1  0.06734656  0.17686518  0.09662498  1
  O2-  O145  1  0.06653885  0.17524720  0.43444411  1
  O2-  O146  1  0.06818731  0.18188559  0.75657873  1
  O2-  O147  1  0.06843463  0.68023363  0.09167713  1
  O2-  O148  1  0.06981365  0.68180311  0.42501050  1
  O2-  O149  1  0.06826842  0.67567247  0.75489177  1
  O2-  O150  1  0.56908773  0.17851625  0.09768043  1
  O2-  O151  1  0.57214449  0.17507487  0.43543612  1
  O2-  O152  1  0.57685230  0.18106669  0.75828186  1
  O2-  O153  1  0.57338110  0.68300211  0.09798662  1
  O2-  O154  1  0.57252762  0.68362769  0.43231711  1
  O2-  O155  1  0.56806628  0.67844966  0.76300123  1
  O2-  O156  1  0.18028186  0.42700405  0.23499013  1
  O2-  O157  1  0.17917843  0.42531008  0.56826939  1
  O2-  O158  1  0.17839181  0.42963283  0.90318015  1
  O2-  O159  1  0.17099060  0.92944399  0.24172871  1
  O2-  O160  1  0.17750159  0.93635560  0.56730237  1
  O2-  O161  1  0.17250603  0.93460868  0.91212844  1
  O2-  O162  1  0.68275239  0.42612202  0.24344611  1
  O2-  O163  1  0.68261122  0.42829839  0.56496747  1
  O2-  O164  1  0.68254685  0.42842953  0.90229091  1
  O2-  O165  1  0.68108256  0.92825357  0.24346314  1
  O2-  O166  1  0.68080733  0.92783869  0.57824804  1
  O2-  O167  1  0.68284319  0.93042485  0.91072268  1
  O2-  O168  1  0.43000794  0.31822074  0.09438088  1
  O2-  O169  1  0.42939620  0.31653305  0.43246199  1
  O2-  O170  1  0.43079160  0.31845944  0.75490178  1
  O2-  O171  1  0.43101823  0.82457945  0.09925969  1
  O2-  O172  1  0.42821139  0.82914883  0.42479663  1
  O2-  O173  1  0.43060802  0.82832775  0.75389430  1
  O2-  O174  1  0.92579193  0.31989960  0.08903943  1
  O2-  O175  1  0.92319358  0.32125985  0.42314334  1
  O2-  O176  1  0.92140776  0.31764029  0.75677113  1
  O2-  O177  1  0.93023159  0.82062762  0.10022142  1
  O2-  O178  1  0.93164980  0.82419005  0.42324965  1
  O2-  O179  1  0.93177390  0.82126771  0.76243080  1
  O2-  O180  1  0.32083273  0.06491087  0.23983800  1
  O2-  O181  1  0.32178093  0.07344738  0.56792245  1
  O2-  O182  1  0.32209684  0.06696249  0.91153484  1
  O2-  O183  1  0.31989331  0.57699942  0.23700690  1
  O2-  O184  1  0.32360761  0.56414628  0.56824730  1
  O2-  O185  1  0.31780066  0.57148294  0.90321041  1
  O2-  O186  1  0.82855417  0.06475487  0.24303312  1
  O2-  O187  1  0.81822577  0.07067380  0.56717278  1
  O2-  O188  1  0.82479667  0.06838644  0.91345233  1
  O2-  O189  1  0.81880485  0.57519609  0.23369532  1
  O2-  O190  1  0.82056536  0.57395841  0.57678502  1
  O2-  O191  1  0.82091882  0.57589961  0.90831643  1
  O2-  O192  1  0.03275965  0.08605478  0.26434255  1
  O2-  O193  1  0.03729436  0.09246571  0.60453152  1
  O2-  O194  1  0.03380948  0.08725888  0.92813510  1
  O2-  O195  1  0.04173478  0.58644468  0.27411325  1
  O2-  O196  1  0.04557370  0.58270660  0.60282852  1
  O2-  O197  1  0.04739616  0.58219812  0.94099674  1
  O2-  O198  1  0.54371444  0.07751586  0.26903702  1
  O2-  O199  1  0.55408462  0.08247615  0.60961566  1
  O2-  O200  1  0.54662108  0.08095717  0.93134719  1
  O2-  O201  1  0.54835422  0.58187265  0.26645957  1
  O2-  O202  1  0.53765591  0.58067936  0.59649398  1
  O2-  O203  1  0.54624002  0.57796430  0.93387810  1
  O2-  O204  1  0.16660760  0.20275099  0.26513384  1
  O2-  O205  1  0.16389118  0.20637558  0.60570475  1
  O2-  O206  1  0.16868346  0.20348569  0.92877486  1
  O2-  O207  1  0.16158465  0.70792269  0.27215210  1
  O2-  O208  1  0.16753652  0.70116087  0.60471908  1
  O2-  O209  1  0.16359429  0.70457923  0.94034702  1
  O2-  O210  1  0.67555551  0.19512749  0.27041395  1
  O2-  O211  1  0.66523045  0.20992533  0.60596834  1
  O2-  O212  1  0.67689382  0.20187739  0.93890905  1
  O2-  O213  1  0.66428571  0.71890913  0.26507611  1
  O2-  O214  1  0.66321723  0.71130166  0.59576042  1
  O2-  O215  1  0.66431208  0.71303286  0.92930967  1
  O2-  O216  1  0.07692645  0.44866018  0.06733384  1
  O2-  O217  1  0.08032813  0.45204890  0.39995054  1
  O2-  O218  1  0.07425461  0.44769110  0.73200360  1
  O2-  O219  1  0.08614336  0.96460444  0.06501759  1
  O2-  O220  1  0.08416022  0.96154651  0.39486327  1
  O2-  O221  1  0.08306031  0.96595300  0.73555348  1
  O2-  O222  1  0.58341783  0.45705585  0.06949288  1
  O2-  O223  1  0.58486272  0.45009125  0.39278633  1
  O2-  O224  1  0.58495618  0.46037266  0.73193702  1
  O2-  O225  1  0.58807807  0.95702327  0.06336385  1
  O2-  O226  1  0.58618083  0.95295030  0.39724835  1
  O2-  O227  1  0.58467444  0.94534740  0.72947701  1
  O2-  O228  1  0.20883597  0.32538509  0.06377284  1
  O2-  O229  1  0.20838487  0.32561672  0.39849693  1
  O2-  O230  1  0.20882279  0.33147947  0.73425351  1
  O2-  O231  1  0.19772760  0.83819861  0.06479711  1
  O2-  O232  1  0.19657198  0.83698247  0.39583650  1
  O2-  O233  1  0.19426079  0.82888768  0.73252512  1
  O2-  O234  1  0.71493522  0.33423939  0.07159810  1
  O2-  O235  1  0.70716995  0.33263124  0.39436081  1
  O2-  O236  1  0.71412726  0.33662705  0.73521475  1
  O2-  O237  1  0.71147269  0.83896070  0.06291315  1
  O2-  O238  1  0.71217112  0.84157491  0.39861862  1
  O2-  O239  1  0.71063241  0.83311518  0.72841533  1
  O2-  O240  1  0.45556758  0.41829297  0.26403074  1
  O2-  O241  1  0.46225815  0.40687929  0.60173085  1
  O2-  O242  1  0.45792721  0.41932879  0.92958493  1
  O2-  O243  1  0.45582875  0.91286360  0.26993442  1
  O2-  O244  1  0.45654786  0.91721585  0.60108773  1
  O2-  O245  1  0.46224370  0.91594876  0.92997841  1
  O2-  O246  1  0.94671039  0.42145333  0.27435536  1
  O2-  O247  1  0.94464633  0.41701156  0.60700209  1
  O2-  O248  1  0.94479795  0.41952464  0.93914054  1
  O2-  O249  1  0.95899714  0.91126946  0.26874861  1
  O2-  O250  1  0.96381739  0.91914398  0.59646976  1
  O2-  O251  1  0.96346317  0.91531687  0.93215326  1
  O2-  O252  1  0.33459927  0.28624632  0.26302629  1
  O2-  O253  1  0.33770821  0.28908928  0.60374954  1
  O2-  O254  1  0.33451260  0.28690638  0.92688887  1
  O2-  O255  1  0.32794608  0.80427849  0.27672997  1
  O2-  O256  1  0.32893913  0.80655397  0.60706195  1
  O2-  O257  1  0.32249807  0.80720752  0.93730317  1
  O2-  O258  1  0.83717760  0.29442772  0.26755682  1
  O2-  O259  1  0.83741159  0.28631316  0.60192818  1
  O2-  O260  1  0.83719607  0.29007593  0.93672195  1
  O2-  O261  1  0.83712769  0.79490637  0.27224955  1
  O2-  O262  1  0.83523333  0.79332676  0.59310614  1
  O2-  O263  1  0.83369027  0.79462637  0.92919547  1
  O2-  O264  1  0.41483839  0.03856935  0.06275029  1
  O2-  O265  1  0.41125012  0.03953963  0.39474980  1
  O2-  O266  1  0.42429727  0.04702816  0.73475438  1
  O2-  O267  1  0.41941333  0.54325595  0.06714980  1
  O2-  O268  1  0.42328452  0.54295009  0.39916318  1
  O2-  O269  1  0.41705174  0.53296626  0.73427800  1
  O2-  O270  1  0.91398505  0.03621857  0.06540400  1
  O2-  O271  1  0.91114068  0.03492017  0.39815124  1
  O2-  O272  1  0.91466723  0.03873147  0.73501479  1
  O2-  O273  1  0.91392371  0.55096605  0.06145759  1
  O2-  O274  1  0.91496002  0.54617694  0.40486557  1
  O2-  O275  1  0.91530979  0.55285815  0.72856834  1
  O2-  O276  1  0.29346374  0.15991760  0.06208626  1
  O2-  O277  1  0.29238299  0.15884712  0.39198205  1
  O2-  O278  1  0.29160389  0.16655697  0.73716219  1
  O2-  O279  1  0.29367864  0.67273716  0.06824113  1
  O2-  O280  1  0.29384408  0.67087233  0.40381882  1
  O2-  O281  1  0.30449117  0.67215288  0.73031258  1
  O2-  O282  1  0.80167598  0.16232310  0.06723473  1
  O2-  O283  1  0.80321005  0.16417024  0.39377799  1
  O2-  O284  1  0.79031750  0.16551861  0.73802812  1
  O2-  O285  1  0.79492808  0.67031206  0.05855271  1
  O2-  O286  1  0.78819553  0.67025531  0.40142082  1
  O2-  O287  1  0.79533635  0.67023735  0.72496884  1
