# generated using pymatgen
data_Ca2Al2SiO7
_symmetry_space_group_name_H-M   'P 1'
_cell_length_a   15.45403563
_cell_length_b   15.45353527
_cell_length_c   15.28082619
_cell_angle_alpha   89.99313677
_cell_angle_beta   89.99149075
_cell_angle_gamma   89.99468929
_symmetry_Int_Tables_number   1
_chemical_formula_structural   Ca2Al2SiO7
_chemical_formula_sum   'Ca48 Al48 Si24 O168'
_cell_volume   3649.35895387
_cell_formula_units_Z   24
loop_
 _symmetry_equiv_pos_site_id
 _symmetry_equiv_pos_as_xyz
  1  'x, y, z'
loop_
 _atom_type_symbol
 _atom_type_oxidation_number
  Ca2+  2.0
  Al0+  0.0
  Si0+  0.0
  O2-  -2.0
loop_
 _atom_site_type_symbol
 _atom_site_label
 _atom_site_symmetry_multiplicity
 _atom_site_fract_x
 _atom_site_fract_y
 _atom_site_fract_z
 _atom_site_occupancy
  Ca2+  Ca0  1  0.17374897  0.08183961  0.17396929  1
  Ca2+  Ca1  1  0.16555488  0.08055153  0.50003657  1
  Ca2+  Ca2  1  0.16879180  0.08842587  0.84057833  1
  Ca2+  Ca3  1  0.16899079  0.58623017  0.17287323  1
  Ca2+  Ca4  1  0.17955356  0.58271282  0.50338756  1
  Ca2+  Ca5  1  0.16697479  0.58711051  0.83595433  1
  Ca2+  Ca6  1  0.67272976  0.08002049  0.17586491  1
  Ca2+  Ca7  1  0.67518507  0.08598534  0.50691668  1
  Ca2+  Ca8  1  0.67128930  0.08272624  0.83045251  1
  Ca2+  Ca9  1  0.67241050  0.58240275  0.17659319  1
  Ca2+  Ca10  1  0.67374617  0.57915043  0.50525481  1
  Ca2+  Ca11  1  0.67418375  0.57866918  0.83025919  1
  Ca2+  Ca12  1  0.07133858  0.33109398  0.16035055  1
  Ca2+  Ca13  1  0.07726391  0.32659013  0.49565275  1
  Ca2+  Ca14  1  0.07966721  0.32223481  0.83173302  1
  Ca2+  Ca15  1  0.07694412  0.83275741  0.16436668  1
  Ca2+  Ca16  1  0.07133925  0.83626298  0.49469296  1
  Ca2+  Ca17  1  0.07141921  0.83157506  0.83055904  1
  Ca2+  Ca18  1  0.57777658  0.32678465  0.17129407  1
  Ca2+  Ca19  1  0.58649689  0.32550491  0.49378979  1
  Ca2+  Ca20  1  0.58470644  0.32811641  0.82453383  1
  Ca2+  Ca21  1  0.57923846  0.82608599  0.16513567  1
  Ca2+  Ca22  1  0.58768341  0.82777001  0.49554000  1
  Ca2+  Ca23  1  0.57701048  0.84035609  0.82860222  1
  Ca2+  Ca24  1  0.33024099  0.42005938  0.17719238  1
  Ca2+  Ca25  1  0.34450034  0.42562263  0.50061997  1
  Ca2+  Ca26  1  0.33356423  0.42428204  0.83515167  1
  Ca2+  Ca27  1  0.32692674  0.92330440  0.17363658  1
  Ca2+  Ca28  1  0.32557932  0.91908969  0.49912443  1
  Ca2+  Ca29  1  0.33248401  0.92413519  0.84456901  1
  Ca2+  Ca30  1  0.83958512  0.42089739  0.17587256  1
  Ca2+  Ca31  1  0.83303768  0.42672733  0.50594748  1
  Ca2+  Ca32  1  0.83132958  0.41337632  0.83485102  1
  Ca2+  Ca33  1  0.84080459  0.92105139  0.17516409  1
  Ca2+  Ca34  1  0.83196098  0.92436626  0.50751112  1
  Ca2+  Ca35  1  0.83353979  0.91439679  0.83027586  1
  Ca2+  Ca36  1  0.41605439  0.16102287  0.16699775  1
  Ca2+  Ca37  1  0.43078700  0.16934528  0.48965241  1
  Ca2+  Ca38  1  0.42149829  0.16583762  0.82546875  1
  Ca2+  Ca39  1  0.42001217  0.66942331  0.16507092  1
  Ca2+  Ca40  1  0.42310199  0.66069700  0.49120028  1
  Ca2+  Ca41  1  0.41285160  0.67480449  0.82878394  1
  Ca2+  Ca42  1  0.91877368  0.17497910  0.16272412  1
  Ca2+  Ca43  1  0.91500908  0.16598579  0.49360971  1
  Ca2+  Ca44  1  0.92695973  0.16318993  0.82635679  1
  Ca2+  Ca45  1  0.91862227  0.67833667  0.16079944  1
  Ca2+  Ca46  1  0.90249188  0.67708281  0.49466505  1
  Ca2+  Ca47  1  0.91701270  0.67394653  0.82909980  1
  Al0+  Al48  1  0.00000548  -0.00053487  -0.00572969  1
  Al0+  Al49  1  -0.00035429  -0.00026099  0.33648125  1
  Al0+  Al50  1  0.00100901  -0.00136125  0.66238259  1
  Al0+  Al51  1  -0.00005835  0.50016006  -0.00735049  1
  Al0+  Al52  1  0.00124432  0.50099439  0.33666568  1
  Al0+  Al53  1  0.00364270  0.50049417  0.67072202  1
  Al0+  Al54  1  0.50098584  -0.00066936  0.00193387  1
  Al0+  Al55  1  0.49955612  -0.00192931  0.33296380  1
  Al0+  Al56  1  0.49927892  0.00117311  0.66306523  1
  Al0+  Al57  1  0.50187792  0.49860628  0.00119162  1
  Al0+  Al58  1  0.50111292  0.49834991  0.32731671  1
  Al0+  Al59  1  0.49927294  0.50238340  0.67824819  1
  Al0+  Al60  1  0.25137180  0.25293973  0.00188001  1
  Al0+  Al61  1  0.25060182  0.24994031  0.33521671  1
  Al0+  Al62  1  0.24904657  0.25145386  0.66075605  1
  Al0+  Al63  1  0.25150839  0.75148945  -0.00603713  1
  Al0+  Al64  1  0.24895707  0.74970218  0.34296864  1
  Al0+  Al65  1  0.24842976  0.75148236  0.67049079  1
  Al0+  Al66  1  0.74752926  0.24997490  -0.00063195  1
  Al0+  Al67  1  0.74952428  0.24932813  0.32727364  1
  Al0+  Al68  1  0.75111624  0.24964370  0.67116549  1
  Al0+  Al69  1  0.74831523  0.74808672  -0.00251733  1
  Al0+  Al70  1  0.74938420  0.74983817  0.32547715  1
  Al0+  Al71  1  0.74726500  0.75005743  0.67219453  1
  Al0+  Al72  1  0.32143345  0.07234805  0.01315424  1
  Al0+  Al73  1  0.57155409  0.17962733  0.65357316  1
  Al0+  Al74  1  0.32194338  0.56885213  0.34464460  1
  Al0+  Al75  1  0.42837903  0.32029905  0.31845732  1
  Al0+  Al76  1  0.32304235  0.07293033  0.35091453  1
  Al0+  Al77  1  0.07233806  0.18023497  0.98736942  1
  Al0+  Al78  1  0.82334775  0.07049424  0.68261127  1
  Al0+  Al79  1  0.82317049  0.57248316  0.68290004  1
  Al0+  Al80  1  0.43212761  0.82034649  0.98767790  1
  Al0+  Al81  1  0.68012661  0.42824929  0.68126933  1
  Al0+  Al82  1  0.07155253  0.17848668  0.64988442  1
  Al0+  Al83  1  0.57169852  0.17577327  0.31665218  1
  Al0+  Al84  1  0.82207891  0.57208672  0.34404208  1
  Al0+  Al85  1  0.57080956  0.67863158  0.32081153  1
  Al0+  Al86  1  0.92929472  0.82110183  0.32063079  1
  Al0+  Al87  1  0.92983673  0.32252328  0.32221759  1
  Al0+  Al88  1  0.92634137  0.32099955  0.98349193  1
  Al0+  Al89  1  0.07219989  0.67906964  0.98544932  1
  Al0+  Al90  1  0.32027882  0.57153632  0.68280113  1
  Al0+  Al91  1  0.17803175  0.92920426  0.34935644  1
  Al0+  Al92  1  0.81909471  0.07168391  0.34458691  1
  Al0+  Al93  1  0.92648145  0.82219711  0.98333652  1
  Al0+  Al94  1  0.67683396  0.92935903  0.68110156  1
  Al0+  Al95  1  0.92795269  0.81661936  0.65064295  1
  Si0+  Si96  1  0.67928331  0.42852965  0.34724910  1
  Si0+  Si97  1  0.07390182  0.67699061  0.64746477  1
  Si0+  Si98  1  0.07413954  0.67852660  0.32033824  1
  Si0+  Si99  1  0.56922502  0.17858062  0.98433192  1
  Si0+  Si100  1  0.56727102  0.67941262  0.65375679  1
  Si0+  Si101  1  0.17645185  0.42716746  0.35048332  1
  Si0+  Si102  1  0.07150343  0.17746677  0.31702550  1
  Si0+  Si103  1  0.57144474  0.67496578  0.98038515  1
  Si0+  Si104  1  0.32147978  0.57244256  0.01540513  1
  Si0+  Si105  1  0.42653937  0.82260840  0.65046633  1
  Si0+  Si106  1  0.42937639  0.32268680  0.98412455  1
  Si0+  Si107  1  0.92845768  0.32276277  0.65002438  1
  Si0+  Si108  1  0.17889039  0.42599807  0.68536001  1
  Si0+  Si109  1  0.67783053  0.92628237  0.34706780  1
  Si0+  Si110  1  0.82069086  0.56953383  0.01581997  1
  Si0+  Si111  1  0.42472926  0.82045187  0.31868486  1
  Si0+  Si112  1  0.82127331  0.07015721  0.01450957  1
  Si0+  Si113  1  0.17928828  0.43074880  0.01499796  1
  Si0+  Si114  1  0.17770536  0.92762747  0.01501846  1
  Si0+  Si115  1  0.31968500  0.07127055  0.67993019  1
  Si0+  Si116  1  0.17897708  0.93004915  0.68445160  1
  Si0+  Si117  1  0.67814100  0.42701380  0.01901605  1
  Si0+  Si118  1  0.67873016  0.92806992  0.01626691  1
  Si0+  Si119  1  0.42883668  0.32418566  0.65213812  1
  O2-  O120  1  0.24358064  -0.00016718  0.05817430  1
  O2-  O121  1  0.24953055  0.00207403  0.40018066  1
  O2-  O122  1  0.24928658  0.00216012  0.72613655  1
  O2-  O123  1  0.24832393  0.50407527  0.05756750  1
  O2-  O124  1  0.24975014  0.49247518  0.39297471  1
  O2-  O125  1  0.24553667  0.49716361  0.72980425  1
  O2-  O126  1  0.75440410  -0.00522305  0.05721181  1
  O2-  O127  1  0.74272287  -0.00170407  0.39053080  1
  O2-  O128  1  0.74975899  -0.00040090  0.73292957  1
  O2-  O129  1  0.75135250  0.49685599  0.05939082  1
  O2-  O130  1  0.74968801  0.49533898  0.39095328  1
  O2-  O131  1  0.75595873  0.49566846  0.73312521  1
  O2-  O132  1  0.00434765  0.24812957  0.27397741  1
  O2-  O133  1  -0.00556003  0.25184669  0.60518440  1
  O2-  O134  1  -0.00364871  0.24658557  0.93473291  1
  O2-  O135  1  0.00391767  0.74517629  0.27589439  1
  O2-  O136  1  -0.00059538  0.73842947  0.60290180  1
  O2-  O137  1  -0.00095319  0.74959778  0.93519674  1
  O2-  O138  1  0.49438417  0.24319480  0.26684671  1
  O2-  O139  1  0.49892961  0.25728482  0.60867606  1
  O2-  O140  1  0.49777279  0.24944837  0.94206652  1
  O2-  O141  1  0.49423470  0.75222427  0.27492294  1
  O2-  O142  1  0.49702015  0.75048831  0.60959609  1
  O2-  O143  1  0.50377244  0.74482316  0.93678118  1
  O2-  O144  1  0.07213315  0.18317529  0.10082866  1
  O2-  O145  1  0.06953237  0.17847266  0.42277447  1
  O2-  O146  1  0.07517211  0.18075151  0.76306516  1
  O2-  O147  1  0.07216336  0.67884010  0.09939916  1
  O2-  O148  1  0.07659509  0.67883705  0.42562802  1
  O2-  O149  1  0.07680185  0.68188121  0.75301103  1
  O2-  O150  1  0.56974375  0.17935493  0.08901835  1
  O2-  O151  1  0.57438902  0.17985411  0.43004366  1
  O2-  O152  1  0.56617809  0.17887709  0.76748362  1
  O2-  O153  1  0.57070475  0.67421076  0.08613753  1
  O2-  O154  1  0.57067944  0.67866307  0.43427759  1
  O2-  O155  1  0.56399383  0.67982253  0.75897002  1
  O2-  O156  1  0.17449166  0.43031148  0.24450424  1
  O2-  O157  1  0.17924488  0.42577929  0.57995180  1
  O2-  O158  1  0.18366579  0.42884802  0.91006483  1
  O2-  O159  1  0.17897755  0.92836351  0.23526438  1
  O2-  O160  1  0.18098977  0.92836425  0.57960658  1
  O2-  O161  1  0.18095353  0.92741282  0.90915927  1
  O2-  O162  1  0.67935919  0.43076403  0.24111021  1
  O2-  O163  1  0.67767746  0.43127526  0.56768073  1
  O2-  O164  1  0.67502483  0.42737650  0.91420892  1
  O2-  O165  1  0.67947142  0.92572059  0.24086443  1
  O2-  O166  1  0.67655435  0.92823860  0.56763503  1
  O2-  O167  1  0.67471175  0.93121720  0.91156301  1
  O2-  O168  1  0.43032922  0.32621697  0.08854411  1
  O2-  O169  1  0.43519032  0.32478203  0.43191802  1
  O2-  O170  1  0.42712717  0.32133398  0.75846893  1
  O2-  O171  1  0.43340543  0.81758089  0.10061327  1
  O2-  O172  1  0.42531638  0.81895567  0.42454843  1
  O2-  O173  1  0.42704756  0.82326481  0.75590075  1
  O2-  O174  1  0.92821908  0.32208449  0.09741992  1
  O2-  O175  1  0.93118852  0.32349701  0.43509628  1
  O2-  O176  1  0.93148431  0.32169329  0.75563707  1
  O2-  O177  1  0.92718372  0.82192996  0.09714112  1
  O2-  O178  1  0.92711421  0.82006804  0.43346650  1
  O2-  O179  1  0.93122713  0.81644890  0.76367888  1
  O2-  O180  1  0.32027121  0.06959366  0.23679664  1
  O2-  O181  1  0.31938576  0.06843269  0.57550743  1
  O2-  O182  1  0.32314967  0.07107936  0.89930786  1
  O2-  O183  1  0.31876023  0.57003569  0.23111252  1
  O2-  O184  1  0.32290362  0.56994180  0.56972898  1
  O2-  O185  1  0.32242901  0.57000067  0.91028105  1
  O2-  O186  1  0.81993888  0.07025359  0.23063529  1
  O2-  O187  1  0.82158900  0.07034823  0.56896114  1
  O2-  O188  1  0.81865326  0.07175293  0.90980041  1
  O2-  O189  1  0.82103611  0.57151962  0.23043712  1
  O2-  O190  1  0.81788580  0.57323026  0.56908502  1
  O2-  O191  1  0.81730179  0.56950655  0.91101915  1
  O2-  O192  1  0.04441335  0.08475589  0.27110908  1
  O2-  O193  1  0.04385188  0.08140200  0.59660308  1
  O2-  O194  1  0.04968026  0.08084593  0.93406094  1
  O2-  O195  1  0.05162466  0.58416909  0.27479056  1
  O2-  O196  1  0.05914880  0.57902518  0.60688408  1
  O2-  O197  1  0.04634198  0.58137324  0.92980154  1
  O2-  O198  1  0.54712143  0.07534439  0.26474005  1
  O2-  O199  1  0.53803693  0.08492808  0.59781049  1
  O2-  O200  1  0.54182690  0.08680626  0.93757444  1
  O2-  O201  1  0.54117063  0.58385482  0.26295410  1
  O2-  O202  1  0.53726239  0.58728912  0.60836082  1
  O2-  O203  1  0.54452236  0.58136267  0.93505535  1
  O2-  O204  1  0.16662689  0.20052718  0.27355020  1
  O2-  O205  1  0.16686024  0.21208277  0.59388222  1
  O2-  O206  1  0.16988776  0.21391004  0.93376955  1
  O2-  O207  1  0.16716996  0.70638714  0.27340931  1
  O2-  O208  1  0.16625522  0.70955791  0.60194621  1
  O2-  O209  1  0.17020411  0.70642760  0.93047294  1
  O2-  O210  1  0.66673698  0.20927085  0.25936630  1
  O2-  O211  1  0.66989494  0.20797803  0.60250204  1
  O2-  O212  1  0.66024986  0.20794988  0.93664266  1
  O2-  O213  1  0.66330536  0.71210112  0.26001251  1
  O2-  O214  1  0.65953439  0.70592992  0.60767077  1
  O2-  O215  1  0.66503283  0.69958583  0.93514410  1
  O2-  O216  1  0.08584191  0.45701770  0.06017825  1
  O2-  O217  1  0.08639971  0.45682028  0.40129944  1
  O2-  O218  1  0.08582826  0.44937322  0.73352212  1
  O2-  O219  1  0.08218972  0.94916530  0.05884232  1
  O2-  O220  1  0.08119202  0.95913312  0.40442427  1
  O2-  O221  1  0.08732004  0.95781434  0.73066860  1
  O2-  O222  1  0.58689955  0.45777672  0.06702245  1
  O2-  O223  1  0.58664721  0.45643131  0.39277463  1
  O2-  O224  1  0.58433699  0.46044594  0.73947188  1
  O2-  O225  1  0.58962773  0.96032503  0.06643522  1
  O2-  O226  1  0.58216556  0.94403572  0.39153551  1
  O2-  O227  1  0.57779114  0.96040732  0.73399585  1
  O2-  O228  1  0.21006069  0.34140725  0.06540681  1
  O2-  O229  1  0.19739328  0.33248897  0.39546466  1
  O2-  O230  1  0.20873060  0.33338750  0.73200584  1
  O2-  O231  1  0.20810740  0.83507771  0.06091275  1
  O2-  O232  1  0.20689335  0.83275752  0.40689000  1
  O2-  O233  1  0.20774796  0.83913817  0.73316789  1
  O2-  O234  1  0.70218131  0.33384244  0.06573008  1
  O2-  O235  1  0.70287312  0.33404188  0.39083503  1
  O2-  O236  1  0.70474564  0.33013134  0.73712141  1
  O2-  O237  1  0.70017180  0.83281755  0.06053125  1
  O2-  O238  1  0.70652121  0.83358145  0.39256981  1
  O2-  O239  1  0.70120482  0.83141868  0.73706927  1
  O2-  O240  1  0.46092689  0.41556672  0.26043850  1
  O2-  O241  1  0.45414695  0.42003225  0.61136065  1
  O2-  O242  1  0.46046776  0.41354670  0.93549012  1
  O2-  O243  1  0.44927607  0.91366308  0.27190501  1
  O2-  O244  1  0.45428447  0.91324680  0.60172759  1
  O2-  O245  1  0.46505093  0.91632665  0.93250142  1
  O2-  O246  1  0.96245988  0.41914569  0.26754100  1
  O2-  O247  1  0.95711997  0.41709247  0.60611391  1
  O2-  O248  1  0.95629140  0.41769927  0.92929843  1
  O2-  O249  1  0.96250300  0.91715631  0.26656170  1
  O2-  O250  1  0.96262293  0.91250552  0.59816052  1
  O2-  O251  1  0.95386784  0.91978874  0.92886932  1
  O2-  O252  1  0.32688630  0.29930568  0.26742893  1
  O2-  O253  1  0.33604036  0.30041203  0.60459025  1
  O2-  O254  1  0.33696656  0.29854598  0.93674353  1
  O2-  O255  1  0.33149479  0.79258738  0.27351826  1
  O2-  O256  1  0.33388422  0.79447593  0.60553562  1
  O2-  O257  1  0.33634539  0.79282258  0.93039851  1
  O2-  O258  1  0.83441464  0.29373131  0.26535740  1
  O2-  O259  1  0.83318209  0.30111196  0.60704845  1
  O2-  O260  1  0.82587952  0.29563296  0.93363132  1
  O2-  O261  1  0.83468268  0.79099707  0.26253832  1
  O2-  O262  1  0.82820353  0.78881445  0.60108348  1
  O2-  O263  1  0.82755793  0.79254203  0.93202063  1
  O2-  O264  1  0.41689048  0.03771247  0.06734926  1
  O2-  O265  1  0.42184791  0.04257401  0.40225600  1
  O2-  O266  1  0.41122788  0.04252967  0.72739838  1
  O2-  O267  1  0.41355736  0.54193001  0.06117043  1
  O2-  O268  1  0.41928578  0.53728469  0.39748408  1
  O2-  O269  1  0.41402590  0.54181113  0.74296945  1
  O2-  O270  1  0.91515654  0.04623788  0.05983205  1
  O2-  O271  1  0.91479523  0.04175881  0.39914999  1
  O2-  O272  1  0.92194694  0.03903472  0.73376644  1
  O2-  O273  1  0.91461056  0.54382338  0.05972732  1
  O2-  O274  1  0.91855076  0.54564664  0.40004908  1
  O2-  O275  1  0.92473892  0.55141416  0.73276657  1
  O2-  O276  1  0.29510195  0.17061218  0.06633805  1
  O2-  O277  1  0.29859286  0.17276222  0.40261937  1
  O2-  O278  1  0.29397747  0.16527804  0.72462832  1
  O2-  O279  1  0.29648898  0.66594717  0.06029805  1
  O2-  O280  1  0.29257980  0.66336707  0.40283070  1
  O2-  O281  1  0.28885497  0.66865200  0.73659998  1
  O2-  O282  1  0.78875012  0.16127505  0.06146929  1
  O2-  O283  1  0.78925388  0.16893637  0.39764274  1
  O2-  O284  1  0.79695601  0.16869344  0.73663340  1
  O2-  O285  1  0.79051785  0.66160739  0.06247307  1
  O2-  O286  1  0.78545079  0.66766235  0.39575998  1
  O2-  O287  1  0.78659641  0.66656270  0.73906575  1
