# generated using pymatgen
data_Ca2Al2SiO7
_symmetry_space_group_name_H-M   'P 1'
_cell_length_a   15.47370393
_cell_length_b   15.48001137
_cell_length_c   15.29750851
_cell_angle_alpha   89.99584522
_cell_angle_beta   90.01874460
_cell_angle_gamma   89.95980362
_symmetry_Int_Tables_number   1
_chemical_formula_structural   Ca2Al2SiO7
_chemical_formula_sum   'Ca48 Al48 Si24 O168'
_cell_volume   3664.25872245
_cell_formula_units_Z   24
loop_
 _symmetry_equiv_pos_site_id
 _symmetry_equiv_pos_as_xyz
  1  'x, y, z'
loop_
 _atom_type_symbol
 _atom_type_oxidation_number
  Ca2+  2.0
  Al0+  0.0
  Si0+  0.0
  O2-  -2.0
loop_
 _atom_site_type_symbol
 _atom_site_label
 _atom_site_symmetry_multiplicity
 _atom_site_fract_x
 _atom_site_fract_y
 _atom_site_fract_z
 _atom_site_occupancy
  Ca2+  Ca0  1  0.16965328  0.08853617  0.17478767  1
  Ca2+  Ca1  1  0.17186456  0.09596847  0.50144976  1
  Ca2+  Ca2  1  0.16506903  0.08920313  0.83965373  1
  Ca2+  Ca3  1  0.15970111  0.57378515  0.16991128  1
  Ca2+  Ca4  1  0.16301522  0.56877866  0.50104359  1
  Ca2+  Ca5  1  0.16548087  0.56998728  0.84187993  1
  Ca2+  Ca6  1  0.66128387  0.08699920  0.17040531  1
  Ca2+  Ca7  1  0.67207739  0.09424322  0.50628599  1
  Ca2+  Ca8  1  0.66942061  0.09187943  0.83674867  1
  Ca2+  Ca9  1  0.67031155  0.57934333  0.16798134  1
  Ca2+  Ca10  1  0.66648406  0.57729137  0.50623114  1
  Ca2+  Ca11  1  0.67126037  0.56772472  0.84289706  1
  Ca2+  Ca12  1  0.07901949  0.33318310  0.15924643  1
  Ca2+  Ca13  1  0.08254909  0.32840614  0.49132913  1
  Ca2+  Ca14  1  0.08410511  0.32981224  0.83194536  1
  Ca2+  Ca15  1  0.08151633  0.81898077  0.15784919  1
  Ca2+  Ca16  1  0.08246541  0.82434270  0.49363665  1
  Ca2+  Ca17  1  0.07780262  0.82634501  0.83610081  1
  Ca2+  Ca18  1  0.57324262  0.32436404  0.15741740  1
  Ca2+  Ca19  1  0.57590688  0.32988330  0.49361664  1
  Ca2+  Ca20  1  0.58067647  0.33515460  0.82526754  1
  Ca2+  Ca21  1  0.57932797  0.82694817  0.16223320  1
  Ca2+  Ca22  1  0.58435622  0.82520925  0.49366950  1
  Ca2+  Ca23  1  0.57934725  0.83217855  0.83614169  1
  Ca2+  Ca24  1  0.32231643  0.40198194  0.16902188  1
  Ca2+  Ca25  1  0.32465724  0.40398477  0.50151352  1
  Ca2+  Ca26  1  0.32505390  0.40290571  0.83669267  1
  Ca2+  Ca27  1  0.33560280  0.92411826  0.17250865  1
  Ca2+  Ca28  1  0.33322851  0.92757643  0.50052523  1
  Ca2+  Ca29  1  0.33344684  0.91994551  0.84244245  1
  Ca2+  Ca30  1  0.83333956  0.41068315  0.16420996  1
  Ca2+  Ca31  1  0.82693020  0.41086088  0.50281465  1
  Ca2+  Ca32  1  0.82271651  0.41323100  0.84432094  1
  Ca2+  Ca33  1  0.83658363  0.91712519  0.16795966  1
  Ca2+  Ca34  1  0.83135683  0.92756028  0.50771488  1
  Ca2+  Ca35  1  0.83762088  0.92413361  0.83825411  1
  Ca2+  Ca36  1  0.41838227  0.17413108  0.16480167  1
  Ca2+  Ca37  1  0.42376900  0.17721127  0.49448672  1
  Ca2+  Ca38  1  0.42999030  0.18028855  0.83228324  1
  Ca2+  Ca39  1  0.41986101  0.67148961  0.16289013  1
  Ca2+  Ca40  1  0.42315269  0.66677102  0.49366226  1
  Ca2+  Ca41  1  0.40843306  0.67495267  0.83341395  1
  Ca2+  Ca42  1  0.92826909  0.17914578  0.16318011  1
  Ca2+  Ca43  1  0.92427012  0.17183978  0.49576208  1
  Ca2+  Ca44  1  0.92465982  0.17026745  0.83085471  1
  Ca2+  Ca45  1  0.92555706  0.66576847  0.15665052  1
  Ca2+  Ca46  1  0.92207643  0.66756336  0.49154911  1
  Ca2+  Ca47  1  0.91554514  0.66119630  0.84021981  1
  Al0+  Al48  1  0.00087429  -0.00339354  -0.00338976  1
  Al0+  Al49  1  -0.00179505  -0.00034620  0.33387681  1
  Al0+  Al50  1  -0.00013595  -0.00071428  0.66595362  1
  Al0+  Al51  1  -0.00054814  0.49905938  -0.00125730  1
  Al0+  Al52  1  -0.00183407  0.50179998  0.33225566  1
  Al0+  Al53  1  0.00103987  0.50099521  0.67010162  1
  Al0+  Al54  1  0.49992877  0.00005384  -0.00688180  1
  Al0+  Al55  1  0.49976479  -0.00136083  0.33900660  1
  Al0+  Al56  1  0.49997955  -0.00061748  0.66418083  1
  Al0+  Al57  1  0.49816098  0.50037336  0.00146726  1
  Al0+  Al58  1  0.49904049  0.50088032  0.32474697  1
  Al0+  Al59  1  0.49798970  0.50378774  0.66731590  1
  Al0+  Al60  1  0.25412810  0.24781335  -0.00195265  1
  Al0+  Al61  1  0.25129120  0.24772839  0.33833360  1
  Al0+  Al62  1  0.25139789  0.24856512  0.66621506  1
  Al0+  Al63  1  0.24924531  0.74986369  -0.00705610  1
  Al0+  Al64  1  0.24978708  0.74973067  0.33207128  1
  Al0+  Al65  1  0.24849908  0.75134792  0.66410551  1
  Al0+  Al66  1  0.75324545  0.24645137  0.00218203  1
  Al0+  Al67  1  0.75048706  0.24967678  0.32820833  1
  Al0+  Al68  1  0.75235941  0.25031278  0.67327735  1
  Al0+  Al69  1  0.74930323  0.75163051  -0.00012782  1
  Al0+  Al70  1  0.74894903  0.74986724  0.33178406  1
  Al0+  Al71  1  0.74999914  0.75313343  0.66720485  1
  Al0+  Al72  1  0.18249012  0.42833486  0.01360079  1
  Al0+  Al73  1  0.92973660  0.32108158  0.98316228  1
  Al0+  Al74  1  0.57155567  0.17879505  0.98589666  1
  Al0+  Al75  1  0.07003016  0.17864193  0.65224182  1
  Al0+  Al76  1  0.42785258  0.32117807  0.31757507  1
  Al0+  Al77  1  0.92875689  0.32283535  0.31910040  1
  Al0+  Al78  1  0.42979776  0.82004518  0.98778739  1
  Al0+  Al79  1  0.07167042  0.17833231  0.32040174  1
  Al0+  Al80  1  0.57180170  0.17766277  0.31941774  1
  Al0+  Al81  1  0.92683124  0.82051374  0.98436520  1
  Al0+  Al82  1  0.07054466  0.67664169  0.98267836  1
  Al0+  Al83  1  0.82109292  0.07036275  0.68138331  1
  Al0+  Al84  1  0.42987995  0.32393946  0.65040067  1
  Al0+  Al85  1  0.17887565  0.43036640  0.34618339  1
  Al0+  Al86  1  0.57410528  0.18023216  0.65162216  1
  Al0+  Al87  1  0.57207578  0.67815180  0.31951365  1
  Al0+  Al88  1  0.43014002  0.32315203  0.98449081  1
  Al0+  Al89  1  0.07099538  0.67955782  0.32072778  1
  Al0+  Al90  1  0.18089073  0.42801649  0.68083333  1
  Al0+  Al91  1  0.67669682  0.42473542  0.01804889  1
  Al0+  Al92  1  0.67910284  0.43145747  0.67741284  1
  Al0+  Al93  1  0.32108449  0.07034287  0.34899531  1
  Al0+  Al94  1  0.07292988  0.17889474  0.98638944  1
  Al0+  Al95  1  0.81909102  0.57075405  0.01633250  1
  Si0+  Si96  1  0.57236055  0.67799564  0.98260180  1
  Si0+  Si97  1  0.17956935  0.92719440  0.68256903  1
  Si0+  Si98  1  0.67804433  0.42946560  0.34639048  1
  Si0+  Si99  1  0.82024344  0.07094938  0.34827212  1
  Si0+  Si100  1  0.17844637  0.92693173  0.01494481  1
  Si0+  Si101  1  0.67929277  0.92727176  0.34889493  1
  Si0+  Si102  1  0.07034189  0.67869219  0.65015939  1
  Si0+  Si103  1  0.92892828  0.82108824  0.65028284  1
  Si0+  Si104  1  0.17666347  0.92658571  0.34995441  1
  Si0+  Si105  1  0.57077989  0.68201246  0.65348383  1
  Si0+  Si106  1  0.92911664  0.32418658  0.65133415  1
  Si0+  Si107  1  0.82481266  0.06868471  0.01790935  1
  Si0+  Si108  1  0.32077211  0.57601216  0.68261597  1
  Si0+  Si109  1  0.82231887  0.57595924  0.68187824  1
  Si0+  Si110  1  0.32104135  0.57685649  0.01710024  1
  Si0+  Si111  1  0.42873450  0.82162509  0.31895297  1
  Si0+  Si112  1  0.92722888  0.82191046  0.31861440  1
  Si0+  Si113  1  0.32339436  0.57482712  0.34922224  1
  Si0+  Si114  1  0.67705870  0.92658220  0.68499784  1
  Si0+  Si115  1  0.67751602  0.93151327  0.01544518  1
  Si0+  Si116  1  0.32151705  0.06898067  0.68424065  1
  Si0+  Si117  1  0.42660677  0.82203179  0.64947723  1
  Si0+  Si118  1  0.81914016  0.57285177  0.34878453  1
  Si0+  Si119  1  0.32072312  0.06703456  0.01433947  1
  O2-  O120  1  0.24666055  -0.00052231  0.05787748  1
  O2-  O121  1  0.24196871  -0.00209205  0.39520403  1
  O2-  O122  1  0.24864215  -0.00093268  0.72614981  1
  O2-  O123  1  0.25680378  0.50425413  0.06065422  1
  O2-  O124  1  0.25595604  0.50457234  0.39265449  1
  O2-  O125  1  0.25692684  0.50302871  0.72568507  1
  O2-  O126  1  0.74927199  0.00072694  0.05892625  1
  O2-  O127  1  0.74732720  0.00099768  0.39071747  1
  O2-  O128  1  0.74171226  -0.00081560  0.72767890  1
  O2-  O129  1  0.74853204  0.49812999  0.06777986  1
  O2-  O130  1  0.74884920  0.50091769  0.39035073  1
  O2-  O131  1  0.75533369  0.50520261  0.72332515  1
  O2-  O132  1  0.00590735  0.25530969  0.27090143  1
  O2-  O133  1  -0.00117164  0.25704778  0.60654527  1
  O2-  O134  1  0.00317281  0.25071354  0.93342147  1
  O2-  O135  1  -0.00171280  0.75641879  0.27539072  1
  O2-  O136  1  -0.00378198  0.74691000  0.60782928  1
  O2-  O137  1  -0.00449943  0.74633854  0.93319585  1
  O2-  O138  1  0.50068881  0.24930495  0.26944747  1
  O2-  O139  1  0.50459586  0.25398442  0.60143532  1
  O2-  O140  1  0.51200388  0.26123907  0.93614401  1
  O2-  O141  1  0.49546206  0.75166998  0.27490200  1
  O2-  O142  1  0.49925490  0.75204081  0.60934478  1
  O2-  O143  1  0.49954656  0.74240922  0.93800165  1
  O2-  O144  1  0.07225937  0.17771321  0.09973804  1
  O2-  O145  1  0.06722978  0.17831060  0.43423585  1
  O2-  O146  1  0.06849979  0.17623268  0.76473201  1
  O2-  O147  1  0.07233554  0.68066804  0.09624071  1
  O2-  O148  1  0.06773680  0.68063402  0.43467819  1
  O2-  O149  1  0.07203632  0.68032075  0.75439200  1
  O2-  O150  1  0.56362878  0.17223668  0.09888378  1
  O2-  O151  1  0.57407602  0.18080212  0.43285858  1
  O2-  O152  1  0.57202895  0.17924252  0.76467560  1
  O2-  O153  1  0.57312624  0.68314961  0.08817799  1
  O2-  O154  1  0.57288169  0.68104682  0.43343827  1
  O2-  O155  1  0.57082076  0.68505731  0.75795352  1
  O2-  O156  1  0.17821866  0.43178561  0.23357518  1
  O2-  O157  1  0.17842707  0.43116248  0.56759070  1
  O2-  O158  1  0.18477731  0.42811759  0.90026438  1
  O2-  O159  1  0.17855575  0.92408836  0.24470419  1
  O2-  O160  1  0.18242606  0.92256532  0.57753999  1
  O2-  O161  1  0.18032986  0.92656194  0.90950291  1
  O2-  O162  1  0.67961488  0.43089542  0.24218769  1
  O2-  O163  1  0.67999356  0.43426500  0.56357706  1
  O2-  O164  1  0.67756047  0.42838015  0.90386917  1
  O2-  O165  1  0.67999353  0.92425230  0.24402867  1
  O2-  O166  1  0.68034960  0.91957232  0.57944905  1
  O2-  O167  1  0.67609220  0.93200138  0.91036290  1
  O2-  O168  1  0.42508658  0.31557480  0.09736846  1
  O2-  O169  1  0.43025998  0.32151204  0.43122806  1
  O2-  O170  1  0.43086369  0.32172056  0.76349266  1
  O2-  O171  1  0.43289101  0.82154730  0.10074489  1
  O2-  O172  1  0.43028687  0.82065100  0.42499289  1
  O2-  O173  1  0.42451033  0.82169431  0.75433864  1
  O2-  O174  1  0.93144586  0.31868919  0.09662312  1
  O2-  O175  1  0.92516352  0.31995820  0.43331705  1
  O2-  O176  1  0.92964761  0.32404381  0.75630713  1
  O2-  O177  1  0.93069135  0.82209297  0.09814536  1
  O2-  O178  1  0.92617045  0.82029547  0.42482808  1
  O2-  O179  1  0.92936333  0.82174004  0.75454267  1
  O2-  O180  1  0.32376930  0.06490614  0.23588887  1
  O2-  O181  1  0.32119530  0.06577344  0.57917850  1
  O2-  O182  1  0.32015548  0.06300702  0.90907168  1
  O2-  O183  1  0.32200383  0.58199241  0.24453103  1
  O2-  O184  1  0.31868931  0.58352872  0.57737145  1
  O2-  O185  1  0.31673107  0.58271763  0.91153233  1
  O2-  O186  1  0.82203296  0.06694192  0.24365168  1
  O2-  O187  1  0.82174226  0.06623956  0.56774084  1
  O2-  O188  1  0.82644422  0.06535001  0.91282563  1
  O2-  O189  1  0.81785969  0.57882652  0.24486597  1
  O2-  O190  1  0.82069669  0.58008791  0.57587736  1
  O2-  O191  1  0.81400933  0.57181662  0.90220337  1
  O2-  O192  1  0.04106463  0.07970250  0.26884145  1
  O2-  O193  1  0.03907938  0.08139668  0.59872489  1
  O2-  O194  1  0.04503061  0.07953875  0.93510789  1
  O2-  O195  1  0.03707056  0.58582239  0.26627724  1
  O2-  O196  1  0.04398509  0.58640012  0.60309059  1
  O2-  O197  1  0.04273604  0.57950443  0.92893961  1
  O2-  O198  1  0.54597770  0.07606777  0.27240188  1
  O2-  O199  1  0.54632421  0.07952700  0.60113678  1
  O2-  O200  1  0.53441197  0.08515116  0.92842319  1
  O2-  O201  1  0.54406901  0.58411877  0.26193691  1
  O2-  O202  1  0.54346561  0.59153752  0.60403446  1
  O2-  O203  1  0.55122501  0.58311278  0.93920914  1
  O2-  O204  1  0.17327482  0.19738683  0.27367558  1
  O2-  O205  1  0.16817716  0.20667804  0.60111859  1
  O2-  O206  1  0.17175029  0.20413425  0.93378437  1
  O2-  O207  1  0.16767681  0.70875534  0.26720485  1
  O2-  O208  1  0.16020772  0.71185155  0.60181170  1
  O2-  O209  1  0.16604974  0.71065487  0.92746097  1
  O2-  O210  1  0.66974448  0.20296083  0.26571375  1
  O2-  O211  1  0.67509255  0.20579915  0.60283325  1
  O2-  O212  1  0.67549654  0.19170084  0.94173455  1
  O2-  O213  1  0.66622786  0.71365865  0.26462682  1
  O2-  O214  1  0.66222377  0.71151218  0.60498425  1
  O2-  O215  1  0.66236085  0.71089512  0.93479847  1
  O2-  O216  1  0.08466658  0.45863293  0.06445786  1
  O2-  O217  1  0.08235547  0.46439049  0.40064584  1
  O2-  O218  1  0.08437904  0.46074765  0.73433434  1
  O2-  O219  1  0.08555480  0.95004357  0.06174895  1
  O2-  O220  1  0.08107001  0.94706335  0.39522162  1
  O2-  O221  1  0.08646448  0.95208305  0.72745522  1
  O2-  O222  1  0.57671069  0.45341413  0.06833298  1
  O2-  O223  1  0.58568597  0.45906187  0.39204233  1
  O2-  O224  1  0.58335443  0.46578845  0.73153898  1
  O2-  O225  1  0.58569316  0.96049087  0.06257880  1
  O2-  O226  1  0.58692740  0.94853461  0.39816216  1
  O2-  O227  1  0.58058142  0.94637187  0.72746954  1
  O2-  O228  1  0.21541803  0.33114850  0.06603720  1
  O2-  O229  1  0.20830722  0.33372619  0.40109878  1
  O2-  O230  1  0.21159870  0.33109668  0.73408830  1
  O2-  O231  1  0.20996295  0.83587049  0.06142070  1
  O2-  O232  1  0.20623937  0.83432920  0.39857808  1
  O2-  O233  1  0.20959312  0.83628717  0.73109746  1
  O2-  O234  1  0.70668578  0.32582272  0.06934711  1
  O2-  O235  1  0.70789057  0.33765732  0.39325581  1
  O2-  O236  1  0.70855115  0.33612101  0.73318309  1
  O2-  O237  1  0.70337635  0.83919675  0.06293880  1
  O2-  O238  1  0.71078016  0.83687606  0.39891461  1
  O2-  O239  1  0.70707498  0.83536694  0.73420602  1
  O2-  O240  1  0.45023820  0.42009171  0.26461695  1
  O2-  O241  1  0.45117036  0.42580016  0.60048392  1
  O2-  O242  1  0.44318472  0.42650761  0.93630478  1
  O2-  O243  1  0.45737545  0.91366788  0.27329413  1
  O2-  O244  1  0.45454346  0.91288076  0.60103611  1
  O2-  O245  1  0.46496253  0.91240380  0.92865742  1
  O2-  O246  1  0.94998593  0.42287005  0.26855342  1
  O2-  O247  1  0.95112835  0.41960435  0.60625670  1
  O2-  O248  1  0.95280529  0.42012832  0.93126371  1
  O2-  O249  1  0.94871091  0.91619906  0.27369987  1
  O2-  O250  1  0.96052087  0.91026256  0.60042821  1
  O2-  O251  1  0.96110400  0.91542207  0.92821805  1
  O2-  O252  1  0.33039671  0.28766899  0.26772771  1
  O2-  O253  1  0.33317162  0.28856936  0.59882600  1
  O2-  O254  1  0.33768249  0.28155297  0.92886451  1
  O2-  O255  1  0.33475842  0.79930594  0.27318266  1
  O2-  O256  1  0.33568193  0.79329901  0.60079999  1
  O2-  O257  1  0.33402073  0.79309675  0.92995594  1
  O2-  O258  1  0.83357190  0.28935974  0.26423043  1
  O2-  O259  1  0.83602973  0.29580034  0.60630848  1
  O2-  O260  1  0.83178737  0.28911277  0.93219093  1
  O2-  O261  1  0.83468198  0.79532480  0.27229088  1
  O2-  O262  1  0.83549833  0.79705106  0.60304946  1
  O2-  O263  1  0.82694359  0.79810872  0.93174241  1
  O2-  O264  1  0.41089441  0.03231132  0.06037311  1
  O2-  O265  1  0.41517475  0.03374847  0.40659266  1
  O2-  O266  1  0.41275703  0.03694749  0.73039039  1
  O2-  O267  1  0.41761851  0.55937515  0.05965875  1
  O2-  O268  1  0.41895115  0.55104199  0.39328602  1
  O2-  O269  1  0.41634294  0.55897882  0.72759990  1
  O2-  O270  1  0.91427628  0.03332682  0.06561960  1
  O2-  O271  1  0.91065959  0.04067583  0.39853404  1
  O2-  O272  1  0.91567759  0.03189815  0.73477974  1
  O2-  O273  1  0.91942712  0.54597315  0.06603318  1
  O2-  O274  1  0.91060801  0.54655569  0.39782984  1
  O2-  O275  1  0.91681573  0.55382268  0.72654009  1
  O2-  O276  1  0.29583130  0.15877783  0.06160960  1
  O2-  O277  1  0.29304217  0.16524352  0.40741356  1
  O2-  O278  1  0.29456555  0.16057291  0.73072562  1
  O2-  O279  1  0.29264406  0.66991949  0.06392112  1
  O2-  O280  1  0.29770394  0.66818450  0.39811481  1
  O2-  O281  1  0.28994604  0.66837476  0.73021410  1
  O2-  O282  1  0.80209340  0.16053283  0.06619391  1
  O2-  O283  1  0.79269353  0.16286886  0.39549502  1
  O2-  O284  1  0.79651919  0.16679380  0.73752244  1
  O2-  O285  1  0.79037865  0.67091501  0.06758423  1
  O2-  O286  1  0.78981205  0.66422935  0.39861484  1
  O2-  O287  1  0.79521403  0.66904125  0.72834661  1
