# generated using pymatgen
data_Ca2Al2SiO7
_symmetry_space_group_name_H-M   'P 1'
_cell_length_a   15.45643094
_cell_length_b   15.45682012
_cell_length_c   15.28261463
_cell_angle_alpha   90.00074947
_cell_angle_beta   89.99471104
_cell_angle_gamma   89.99156983
_symmetry_Int_Tables_number   1
_chemical_formula_structural   Ca2Al2SiO7
_chemical_formula_sum   'Ca48 Al48 Si24 O168'
_cell_volume   3651.12772663
_cell_formula_units_Z   24
loop_
 _symmetry_equiv_pos_site_id
 _symmetry_equiv_pos_as_xyz
  1  'x, y, z'
loop_
 _atom_type_symbol
 _atom_type_oxidation_number
  Ca2+  2.0
  Al0+  0.0
  Si0+  0.0
  O2-  -2.0
loop_
 _atom_site_type_symbol
 _atom_site_label
 _atom_site_symmetry_multiplicity
 _atom_site_fract_x
 _atom_site_fract_y
 _atom_site_fract_z
 _atom_site_occupancy
  Ca2+  Ca0  1  0.17125890  0.08536287  0.17111926  1
  Ca2+  Ca1  1  0.16557032  0.08140367  0.50937238  1
  Ca2+  Ca2  1  0.17421514  0.08812630  0.83365723  1
  Ca2+  Ca3  1  0.17220373  0.58405711  0.17205953  1
  Ca2+  Ca4  1  0.16993670  0.59016045  0.49849498  1
  Ca2+  Ca5  1  0.17244663  0.57380161  0.84404352  1
  Ca2+  Ca6  1  0.66125122  0.07971815  0.16983636  1
  Ca2+  Ca7  1  0.66629650  0.07742429  0.50491898  1
  Ca2+  Ca8  1  0.66332778  0.07221541  0.83923986  1
  Ca2+  Ca9  1  0.67173626  0.58672417  0.17082156  1
  Ca2+  Ca10  1  0.67184094  0.57910708  0.50911155  1
  Ca2+  Ca11  1  0.67759314  0.57553972  0.83253291  1
  Ca2+  Ca12  1  0.08444137  0.33484903  0.16749859  1
  Ca2+  Ca13  1  0.07438978  0.32409334  0.49690977  1
  Ca2+  Ca14  1  0.08312720  0.33094284  0.82482808  1
  Ca2+  Ca15  1  0.07287522  0.82850417  0.16471296  1
  Ca2+  Ca16  1  0.07419851  0.83324282  0.49392440  1
  Ca2+  Ca17  1  0.07205983  0.83466459  0.82569192  1
  Ca2+  Ca18  1  0.58464744  0.31916818  0.16198454  1
  Ca2+  Ca19  1  0.57984729  0.33313526  0.49698630  1
  Ca2+  Ca20  1  0.57714089  0.33021296  0.82586616  1
  Ca2+  Ca21  1  0.57976882  0.82997049  0.16541220  1
  Ca2+  Ca22  1  0.57897114  0.82903223  0.49331489  1
  Ca2+  Ca23  1  0.58783559  0.83551834  0.83054182  1
  Ca2+  Ca24  1  0.32837658  0.42668902  0.16928425  1
  Ca2+  Ca25  1  0.33725414  0.42168650  0.50409470  1
  Ca2+  Ca26  1  0.32891144  0.41729515  0.84067239  1
  Ca2+  Ca27  1  0.33745976  0.92073856  0.17153161  1
  Ca2+  Ca28  1  0.32638076  0.92147604  0.50894819  1
  Ca2+  Ca29  1  0.32586382  0.92898173  0.83500289  1
  Ca2+  Ca30  1  0.83711106  0.42111631  0.17193986  1
  Ca2+  Ca31  1  0.83207139  0.41876239  0.50903404  1
  Ca2+  Ca32  1  0.83958451  0.42607071  0.83507350  1
  Ca2+  Ca33  1  0.83088992  0.90990789  0.16788050  1
  Ca2+  Ca34  1  0.83009775  0.91174790  0.50861629  1
  Ca2+  Ca35  1  0.82521956  0.90929853  0.83735311  1
  Ca2+  Ca36  1  0.42701101  0.15976980  0.16000220  1
  Ca2+  Ca37  1  0.41902857  0.17009435  0.49930657  1
  Ca2+  Ca38  1  0.41564723  0.16661116  0.82893468  1
  Ca2+  Ca39  1  0.41517218  0.66625657  0.16712974  1
  Ca2+  Ca40  1  0.42314083  0.67333555  0.48626077  1
  Ca2+  Ca41  1  0.41716503  0.66494072  0.82990264  1
  Ca2+  Ca42  1  0.92187223  0.17239013  0.16648547  1
  Ca2+  Ca43  1  0.92533548  0.17306869  0.49420302  1
  Ca2+  Ca44  1  0.92562407  0.17490369  0.82147173  1
  Ca2+  Ca45  1  0.91602346  0.67391530  0.16145937  1
  Ca2+  Ca46  1  0.91759919  0.67583692  0.49532726  1
  Ca2+  Ca47  1  0.90698093  0.67206924  0.83014017  1
  Al0+  Al48  1  -0.00129783  0.00065464  -0.00562553  1
  Al0+  Al49  1  -0.00072247  0.00222707  0.32563746  1
  Al0+  Al50  1  -0.00100231  -0.00181644  0.66314264  1
  Al0+  Al51  1  0.00022374  0.50050705  0.00858754  1
  Al0+  Al52  1  0.00099306  0.50028610  0.33051625  1
  Al0+  Al53  1  0.00237822  0.50208660  0.66647465  1
  Al0+  Al54  1  0.50058163  -0.00238106  0.00268501  1
  Al0+  Al55  1  0.49993447  -0.00001473  0.32993010  1
  Al0+  Al56  1  0.49912503  -0.00065380  0.67394245  1
  Al0+  Al57  1  0.50069190  0.49902325  0.00275557  1
  Al0+  Al58  1  0.50052800  0.50005919  0.33291244  1
  Al0+  Al59  1  0.50232720  0.49915471  0.66681308  1
  Al0+  Al60  1  0.25119235  0.24961624  0.01009030  1
  Al0+  Al61  1  0.25014929  0.25173082  0.33261327  1
  Al0+  Al62  1  0.25312194  0.25170404  0.66048080  1
  Al0+  Al63  1  0.24922478  0.75085308  0.00074514  1
  Al0+  Al64  1  0.24934827  0.75232936  0.33083926  1
  Al0+  Al65  1  0.24991557  0.75210056  0.67245447  1
  Al0+  Al66  1  0.75076319  0.24769021  -0.00762569  1
  Al0+  Al67  1  0.74991267  0.24917887  0.32715172  1
  Al0+  Al68  1  0.74776841  0.24904105  0.66759495  1
  Al0+  Al69  1  0.74788728  0.74938300  0.00448557  1
  Al0+  Al70  1  0.74778556  0.74974207  0.32923159  1
  Al0+  Al71  1  0.74990472  0.74850312  0.66959053  1
  Al0+  Al72  1  0.92787316  0.81833487  0.65371589  1
  Al0+  Al73  1  0.17542948  0.92786488  0.68163747  1
  Al0+  Al74  1  0.31986443  0.07294910  0.68037225  1
  Al0+  Al75  1  0.42869508  0.82162058  0.31946780  1
  Al0+  Al76  1  0.43076788  0.32212037  0.65332071  1
  Al0+  Al77  1  0.92841464  0.32115388  0.31768765  1
  Al0+  Al78  1  0.92831888  0.81891067  0.98361838  1
  Al0+  Al79  1  0.07291389  0.17914156  0.31637631  1
  Al0+  Al80  1  0.32321711  0.57349255  0.01536907  1
  Al0+  Al81  1  0.92713449  0.32408594  0.65333702  1
  Al0+  Al82  1  0.32045438  0.57160144  0.34908901  1
  Al0+  Al83  1  0.57072453  0.67698621  0.31837336  1
  Al0+  Al84  1  0.56901560  0.17982024  0.32099953  1
  Al0+  Al85  1  0.07174048  0.67956415  0.31840685  1
  Al0+  Al86  1  0.68018864  0.92931804  0.67881060  1
  Al0+  Al87  1  0.31953787  0.06832605  0.01582473  1
  Al0+  Al88  1  0.07193866  0.17919679  0.65257905  1
  Al0+  Al89  1  0.82297017  0.56941576  0.67982694  1
  Al0+  Al90  1  0.81828245  0.56931485  0.01632484  1
  Al0+  Al91  1  0.92695475  0.82172608  0.31775147  1
  Al0+  Al92  1  0.67751127  0.42587420  0.68112144  1
  Al0+  Al93  1  0.68075174  0.93014039  0.01691923  1
  Al0+  Al94  1  0.17883683  0.42829526  0.01644545  1
  Al0+  Al95  1  0.57090306  0.17651012  0.98321728  1
  Si0+  Si96  1  0.32302477  0.57233881  0.67991653  1
  Si0+  Si97  1  0.82282481  0.07283294  0.68171737  1
  Si0+  Si98  1  0.07627523  0.67814816  0.65172502  1
  Si0+  Si99  1  0.82373878  0.07366137  0.01612098  1
  Si0+  Si100  1  0.17448823  0.92877370  0.01747930  1
  Si0+  Si101  1  0.18131593  0.43035766  0.67807104  1
  Si0+  Si102  1  0.42807866  0.82136985  0.65473208  1
  Si0+  Si103  1  0.82099041  0.57171704  0.34851948  1
  Si0+  Si104  1  0.57028975  0.67791240  0.98327676  1
  Si0+  Si105  1  0.82089950  0.07172050  0.34710373  1
  Si0+  Si106  1  0.42801194  0.82073795  0.98259327  1
  Si0+  Si107  1  0.56952483  0.67992148  0.65378197  1
  Si0+  Si108  1  0.68055148  0.42676113  0.34688555  1
  Si0+  Si109  1  0.32296851  0.07143079  0.34899115  1
  Si0+  Si110  1  0.42774430  0.32373665  0.31511506  1
  Si0+  Si111  1  0.67840983  0.42462549  0.01684041  1
  Si0+  Si112  1  0.07210444  0.67710883  0.98263901  1
  Si0+  Si113  1  0.07302182  0.18039916  0.98489349  1
  Si0+  Si114  1  0.67904505  0.92947535  0.34867626  1
  Si0+  Si115  1  0.17735581  0.93182726  0.34677662  1
  Si0+  Si116  1  0.57073661  0.17447908  0.65124472  1
  Si0+  Si117  1  0.17755617  0.42791380  0.35489912  1
  Si0+  Si118  1  0.42896549  0.32058518  0.98529843  1
  Si0+  Si119  1  0.93014192  0.32279137  0.98440410  1
  O2-  O120  1  0.24451964  -0.00531651  0.06393395  1
  O2-  O121  1  0.24805151  0.00382236  0.38962741  1
  O2-  O122  1  0.24443705  0.00391563  0.73006198  1
  O2-  O123  1  0.24897892  0.50358356  0.06426662  1
  O2-  O124  1  0.24663527  0.49714780  0.39870562  1
  O2-  O125  1  0.25115265  0.50229384  0.72125881  1
  O2-  O126  1  0.75530230  0.00575433  0.06242569  1
  O2-  O127  1  0.75287486  -0.00224207  0.39041125  1
  O2-  O128  1  0.75412495  0.00431763  0.72640401  1
  O2-  O129  1  0.74639598  0.49200838  0.06378166  1
  O2-  O130  1  0.75047860  0.49916766  0.38935024  1
  O2-  O131  1  0.75629539  0.49144595  0.72956413  1
  O2-  O132  1  0.00310528  0.25290114  0.26602601  1
  O2-  O133  1  -0.00413081  0.24836284  0.60433501  1
  O2-  O134  1  0.00226282  0.25214122  0.94314637  1
  O2-  O135  1  -0.00341450  0.74762026  0.26776541  1
  O2-  O136  1  0.00629923  0.74651749  0.60920125  1
  O2-  O137  1  0.00415322  0.74517170  0.93659090  1
  O2-  O138  1  0.49327728  0.25200895  0.27171763  1
  O2-  O139  1  0.50628029  0.24734410  0.60743497  1
  O2-  O140  1  0.49734661  0.25312870  0.93861692  1
  O2-  O141  1  0.49722606  0.74708243  0.26796602  1
  O2-  O142  1  0.49735269  0.74961252  0.61147837  1
  O2-  O143  1  0.49495212  0.74497156  0.94085597  1
  O2-  O144  1  0.07126079  0.17957713  0.08973925  1
  O2-  O145  1  0.07089180  0.17782885  0.42969420  1
  O2-  O146  1  0.07357230  0.18404655  0.76686384  1
  O2-  O147  1  0.07136992  0.67915212  0.08796636  1
  O2-  O148  1  0.07071581  0.68308023  0.43255119  1
  O2-  O149  1  0.07991286  0.67698805  0.75707205  1
  O2-  O150  1  0.56960151  0.17786693  0.09664510  1
  O2-  O151  1  0.56870178  0.17938472  0.43413411  1
  O2-  O152  1  0.56706284  0.17243640  0.75664189  1
  O2-  O153  1  0.57084897  0.67950832  0.08815037  1
  O2-  O154  1  0.57208022  0.67972291  0.43263505  1
  O2-  O155  1  0.56792212  0.67991433  0.75914625  1
  O2-  O156  1  0.17986376  0.42713117  0.24948308  1
  O2-  O157  1  0.18203003  0.43153562  0.57334396  1
  O2-  O158  1  0.18037308  0.42728556  0.90180738  1
  O2-  O159  1  0.17826832  0.93365225  0.24156838  1
  O2-  O160  1  0.17969566  0.92461432  0.56762465  1
  O2-  O161  1  0.17553300  0.93101140  0.91198742  1
  O2-  O162  1  0.68225983  0.42580615  0.24169637  1
  O2-  O163  1  0.67364405  0.43175881  0.56720934  1
  O2-  O164  1  0.67838090  0.42693753  0.91147984  1
  O2-  O165  1  0.67777962  0.93110039  0.24375841  1
  O2-  O166  1  0.67867604  0.92926691  0.56531861  1
  O2-  O167  1  0.68116604  0.92946778  0.90356541  1
  O2-  O168  1  0.43156236  0.31998089  0.09077242  1
  O2-  O169  1  0.43013210  0.32425398  0.42104540  1
  O2-  O170  1  0.42947046  0.32371768  0.76641315  1
  O2-  O171  1  0.42998222  0.82221211  0.08752767  1
  O2-  O172  1  0.43179559  0.82321467  0.43379259  1
  O2-  O173  1  0.42839487  0.81890619  0.75996541  1
  O2-  O174  1  0.92830492  0.32069559  0.08929425  1
  O2-  O175  1  0.92650200  0.31869901  0.43111109  1
  O2-  O176  1  0.93343473  0.32452905  0.76747605  1
  O2-  O177  1  0.92958450  0.81750672  0.09648474  1
  O2-  O178  1  0.92617451  0.82128892  0.43153811  1
  O2-  O179  1  0.92545808  0.81498995  0.76677115  1
  O2-  O180  1  0.32450013  0.06850501  0.24376905  1
  O2-  O181  1  0.32284987  0.06925933  0.56646051  1
  O2-  O182  1  0.31732075  0.07025535  0.90294275  1
  O2-  O183  1  0.31981922  0.56865965  0.23650999  1
  O2-  O184  1  0.32351947  0.57354120  0.57496208  1
  O2-  O185  1  0.32305400  0.57066712  0.90081288  1
  O2-  O186  1  0.81859095  0.07268338  0.24204537  1
  O2-  O187  1  0.82058872  0.07211599  0.57577291  1
  O2-  O188  1  0.82372577  0.07350933  0.91062859  1
  O2-  O189  1  0.81856773  0.57151076  0.24325566  1
  O2-  O190  1  0.81875807  0.57262012  0.56603513  1
  O2-  O191  1  0.81758907  0.56840205  0.90333716  1
  O2-  O192  1  0.04248785  0.08343144  0.25988003  1
  O2-  O193  1  0.04644301  0.07979955  0.60057903  1
  O2-  O194  1  0.04564171  0.08925946  0.93608461  1
  O2-  O195  1  0.04953265  0.57959790  0.26725512  1
  O2-  O196  1  0.05310343  0.58478566  0.60437975  1
  O2-  O197  1  0.04661339  0.58182483  0.93981852  1
  O2-  O198  1  0.53858679  0.08426766  0.26520471  1
  O2-  O199  1  0.54038559  0.08215146  0.60420851  1
  O2-  O200  1  0.53738396  0.07955466  0.93202623  1
  O2-  O201  1  0.54593767  0.57810511  0.26510581  1
  O2-  O202  1  0.54293059  0.58852699  0.60560090  1
  O2-  O203  1  0.54621090  0.58407108  0.93709461  1
  O2-  O204  1  0.17273423  0.20584525  0.26504944  1
  O2-  O205  1  0.16858629  0.20967546  0.59797309  1
  O2-  O206  1  0.16602688  0.20921517  0.94084718  1
  O2-  O207  1  0.16804335  0.71077616  0.26383707  1
  O2-  O208  1  0.16983079  0.70534990  0.60504265  1
  O2-  O209  1  0.16703024  0.70062272  0.93718963  1
  O2-  O210  1  0.66389513  0.21037333  0.26406990  1
  O2-  O211  1  0.66631196  0.19360519  0.60690787  1
  O2-  O212  1  0.66832641  0.20338988  0.92864377  1
  O2-  O213  1  0.66662594  0.70812953  0.26311494  1
  O2-  O214  1  0.66019898  0.70947642  0.60624638  1
  O2-  O215  1  0.65995463  0.71124556  0.93595321  1
  O2-  O216  1  0.08134664  0.45449943  0.07167041  1
  O2-  O217  1  0.08310130  0.45364946  0.39912177  1
  O2-  O218  1  0.09018643  0.45645060  0.72780855  1
  O2-  O219  1  0.08108923  0.95690438  0.06239258  1
  O2-  O220  1  0.08463248  0.96000172  0.39287178  1
  O2-  O221  1  0.07539524  0.95137722  0.73285293  1
  O2-  O222  1  0.58465966  0.44891671  0.06303358  1
  O2-  O223  1  0.58779456  0.45284020  0.39340878  1
  O2-  O224  1  0.58261028  0.46268183  0.73768191  1
  O2-  O225  1  0.58434589  0.96054010  0.07080724  1
  O2-  O226  1  0.58789301  0.96089134  0.39600268  1
  O2-  O227  1  0.58446275  0.95800432  0.73599267  1
  O2-  O228  1  0.20930354  0.33279020  0.07373615  1
  O2-  O229  1  0.20452660  0.33384045  0.40013332  1
  O2-  O230  1  0.21144112  0.33961504  0.72557314  1
  O2-  O231  1  0.19776413  0.83376252  0.06104928  1
  O2-  O232  1  0.20489117  0.84029916  0.39417084  1
  O2-  O233  1  0.20813432  0.83222278  0.73931944  1
  O2-  O234  1  0.70447813  0.32944777  0.05960433  1
  O2-  O235  1  0.70893896  0.33508276  0.39454915  1
  O2-  O236  1  0.69385739  0.32435147  0.73204520  1
  O2-  O237  1  0.71081209  0.83408376  0.07148747  1
  O2-  O238  1  0.70376195  0.83605756  0.39473085  1
  O2-  O239  1  0.71060293  0.83356385  0.73454073  1
  O2-  O240  1  0.45639947  0.41552015  0.26829366  1
  O2-  O241  1  0.46285986  0.41819350  0.59740950  1
  O2-  O242  1  0.45319598  0.41510206  0.93927897  1
  O2-  O243  1  0.46139907  0.91733375  0.26387042  1
  O2-  O244  1  0.45728539  0.91295131  0.60837335  1
  O2-  O245  1  0.46154370  0.91014172  0.93477095  1
  O2-  O246  1  0.95447380  0.42017377  0.26579379  1
  O2-  O247  1  0.95808790  0.42175944  0.60022551  1
  O2-  O248  1  0.95853447  0.41566383  0.94002006  1
  O2-  O249  1  0.95519777  0.91907002  0.26356291  1
  O2-  O250  1  0.95275330  0.91596084  0.59920775  1
  O2-  O251  1  0.95585712  0.91729903  0.93072362  1
  O2-  O252  1  0.33280965  0.30214958  0.27155738  1
  O2-  O253  1  0.33665809  0.29308310  0.59417886  1
  O2-  O254  1  0.33435472  0.29355590  0.94201228  1
  O2-  O255  1  0.33025132  0.79844415  0.26588173  1
  O2-  O256  1  0.33566565  0.79530262  0.60780093  1
  O2-  O257  1  0.33412162  0.79785908  0.93613493  1
  O2-  O258  1  0.83251332  0.28965844  0.26141078  1
  O2-  O259  1  0.82581591  0.30039192  0.60407662  1
  O2-  O260  1  0.83910803  0.29557981  0.93519562  1
  O2-  O261  1  0.82855911  0.79437410  0.26535106  1
  O2-  O262  1  0.83197038  0.78450338  0.59906082  1
  O2-  O263  1  0.83042341  0.78492000  0.93369200  1
  O2-  O264  1  0.41511979  0.03379753  0.06914262  1
  O2-  O265  1  0.41362608  0.04024498  0.39683107  1
  O2-  O266  1  0.41513277  0.04008123  0.73707464  1
  O2-  O267  1  0.42141379  0.54398984  0.06851568  1
  O2-  O268  1  0.41866035  0.54071559  0.40187375  1
  O2-  O269  1  0.41394942  0.54329771  0.72774571  1
  O2-  O270  1  0.91791573  0.04837556  0.06141353  1
  O2-  O271  1  0.91448895  0.04696565  0.39242103  1
  O2-  O272  1  0.91658927  0.04846476  0.72720743  1
  O2-  O273  1  0.91515808  0.54218632  0.07090156  1
  O2-  O274  1  0.91406923  0.54635109  0.39401256  1
  O2-  O275  1  0.92332067  0.54826406  0.73347075  1
  O2-  O276  1  0.29223591  0.16412579  0.07247525  1
  O2-  O277  1  0.30023874  0.16618027  0.39292064  1
  O2-  O278  1  0.29484517  0.17316860  0.73178163  1
  O2-  O279  1  0.29748562  0.67347234  0.06638694  1
  O2-  O280  1  0.29064646  0.67024685  0.40107066  1
  O2-  O281  1  0.29762009  0.66369403  0.72940750  1
  O2-  O282  1  0.79843280  0.16815304  0.06095222  1
  O2-  O283  1  0.78907888  0.16233760  0.39481932  1
  O2-  O284  1  0.79954645  0.16650212  0.72905735  1
  O2-  O285  1  0.78286969  0.66362076  0.07106047  1
  O2-  O286  1  0.79066269  0.66357516  0.39473129  1
  O2-  O287  1  0.78491382  0.66334985  0.73576036  1
