# generated using pymatgen
data_Ca2Al2SiO7
_symmetry_space_group_name_H-M   'P 1'
_cell_length_a   15.46215803
_cell_length_b   15.46301414
_cell_length_c   15.28637827
_cell_angle_alpha   90.01850593
_cell_angle_beta   90.01589399
_cell_angle_gamma   90.01407037
_symmetry_Int_Tables_number   1
_chemical_formula_structural   Ca2Al2SiO7
_chemical_formula_sum   'Ca48 Al48 Si24 O168'
_cell_volume   3654.84371331
_cell_formula_units_Z   24
loop_
 _symmetry_equiv_pos_site_id
 _symmetry_equiv_pos_as_xyz
  1  'x, y, z'
loop_
 _atom_type_symbol
 _atom_type_oxidation_number
  Ca2+  2.0
  Al0+  0.0
  Si0+  0.0
  O2-  -2.0
loop_
 _atom_site_type_symbol
 _atom_site_label
 _atom_site_symmetry_multiplicity
 _atom_site_fract_x
 _atom_site_fract_y
 _atom_site_fract_z
 _atom_site_occupancy
  Ca2+  Ca0  1  0.16719082  0.08611041  0.16095394  1
  Ca2+  Ca1  1  0.16959735  0.07853157  0.50922646  1
  Ca2+  Ca2  1  0.17067389  0.07723037  0.84283557  1
  Ca2+  Ca3  1  0.16721018  0.57473895  0.16651622  1
  Ca2+  Ca4  1  0.16655156  0.57244833  0.50527677  1
  Ca2+  Ca5  1  0.17297502  0.57279220  0.84125917  1
  Ca2+  Ca6  1  0.67217995  0.08537397  0.17111476  1
  Ca2+  Ca7  1  0.66777946  0.07574880  0.50825414  1
  Ca2+  Ca8  1  0.67542824  0.08997898  0.83656498  1
  Ca2+  Ca9  1  0.66793885  0.56791579  0.16952340  1
  Ca2+  Ca10  1  0.66145501  0.57360541  0.50673269  1
  Ca2+  Ca11  1  0.65939129  0.57159290  0.83520993  1
  Ca2+  Ca12  1  0.07814406  0.33308066  0.15487673  1
  Ca2+  Ca13  1  0.08484110  0.33598216  0.49529661  1
  Ca2+  Ca14  1  0.08689314  0.33090823  0.83070137  1
  Ca2+  Ca15  1  0.07259472  0.83705424  0.15614416  1
  Ca2+  Ca16  1  0.07052839  0.84022834  0.49789661  1
  Ca2+  Ca17  1  0.07487256  0.84574408  0.83002570  1
  Ca2+  Ca18  1  0.59028399  0.32397694  0.15914669  1
  Ca2+  Ca19  1  0.58926932  0.32334177  0.49842813  1
  Ca2+  Ca20  1  0.58191378  0.32538368  0.82594704  1
  Ca2+  Ca21  1  0.58559168  0.83325646  0.16316560  1
  Ca2+  Ca22  1  0.59530104  0.82926480  0.49739280  1
  Ca2+  Ca23  1  0.58523925  0.82557159  0.82358683  1
  Ca2+  Ca24  1  0.32208452  0.41532600  0.16549577  1
  Ca2+  Ca25  1  0.32500393  0.40938557  0.50733254  1
  Ca2+  Ca26  1  0.32745776  0.41481409  0.83893710  1
  Ca2+  Ca27  1  0.32966913  0.92330613  0.16359777  1
  Ca2+  Ca28  1  0.32509736  0.91809674  0.50751776  1
  Ca2+  Ca29  1  0.32175032  0.91984296  0.84271986  1
  Ca2+  Ca30  1  0.82392459  0.40574047  0.16610169  1
  Ca2+  Ca31  1  0.82058355  0.41668175  0.50588124  1
  Ca2+  Ca32  1  0.82084212  0.40841155  0.83884522  1
  Ca2+  Ca33  1  0.83428065  0.92094784  0.16816988  1
  Ca2+  Ca34  1  0.82810689  0.91972986  0.50866032  1
  Ca2+  Ca35  1  0.83529911  0.92650714  0.83485344  1
  Ca2+  Ca36  1  0.42977882  0.16225461  0.15916703  1
  Ca2+  Ca37  1  0.42847972  0.17066811  0.49936476  1
  Ca2+  Ca38  1  0.42701293  0.16677328  0.82826822  1
  Ca2+  Ca39  1  0.41500124  0.66524235  0.16090194  1
  Ca2+  Ca40  1  0.42248032  0.66729383  0.50261341  1
  Ca2+  Ca41  1  0.41862761  0.66431666  0.82879404  1
  Ca2+  Ca42  1  0.92241373  0.17113981  0.15225388  1
  Ca2+  Ca43  1  0.91482655  0.16407618  0.50223682  1
  Ca2+  Ca44  1  0.91676084  0.16573299  0.83685953  1
  Ca2+  Ca45  1  0.91240262  0.68030568  0.16080960  1
  Ca2+  Ca46  1  0.91199925  0.68089936  0.49653600  1
  Ca2+  Ca47  1  0.91429318  0.68137592  0.82769133  1
  Al0+  Al48  1  -0.00161450  0.00200082  0.00015716  1
  Al0+  Al49  1  0.00054991  0.00105874  0.32848785  1
  Al0+  Al50  1  -0.00034474  0.00145262  0.66800901  1
  Al0+  Al51  1  -0.00336566  0.50377206  -0.00131188  1
  Al0+  Al52  1  0.00091820  0.50182321  0.33668338  1
  Al0+  Al53  1  0.00000370  0.50059050  0.66961616  1
  Al0+  Al54  1  0.49954158  -0.00311160  -0.00306195  1
  Al0+  Al55  1  0.50070262  -0.00015621  0.33346516  1
  Al0+  Al56  1  0.49979448  -0.00125537  0.66504423  1
  Al0+  Al57  1  0.50067311  0.49850595  0.00952807  1
  Al0+  Al58  1  0.49827941  0.50018902  0.33648310  1
  Al0+  Al59  1  0.49783732  0.50096356  0.66106134  1
  Al0+  Al60  1  0.25180166  0.24929376  0.00497308  1
  Al0+  Al61  1  0.25212477  0.24984403  0.33715674  1
  Al0+  Al62  1  0.24987952  0.24874306  0.66617306  1
  Al0+  Al63  1  0.24915676  0.74974187  0.00766983  1
  Al0+  Al64  1  0.25022421  0.74966026  0.33383996  1
  Al0+  Al65  1  0.24786119  0.74789711  0.66868336  1
  Al0+  Al66  1  0.75105560  0.24753066  0.00063555  1
  Al0+  Al67  1  0.75205182  0.24962858  0.33491970  1
  Al0+  Al68  1  0.75159413  0.25005918  0.66874845  1
  Al0+  Al69  1  0.74912822  0.74860100  -0.00551884  1
  Al0+  Al70  1  0.74988359  0.75044904  0.32875210  1
  Al0+  Al71  1  0.75014342  0.75017133  0.66013325  1
  Al0+  Al72  1  0.92840381  0.32394920  0.98463846  1
  Al0+  Al73  1  0.07328489  0.18160089  0.98439256  1
  Al0+  Al74  1  0.92919487  0.82121745  0.31700026  1
  Al0+  Al75  1  0.67785437  0.43060323  0.68004749  1
  Al0+  Al76  1  0.67955657  0.92962290  0.34531126  1
  Al0+  Al77  1  0.17992498  0.42969960  0.34808573  1
  Al0+  Al78  1  0.92890905  0.82125381  0.98367757  1
  Al0+  Al79  1  0.82049303  0.07118470  0.68304150  1
  Al0+  Al80  1  0.57114597  0.17687155  0.98638496  1
  Al0+  Al81  1  0.57005741  0.68007530  0.65264229  1
  Al0+  Al82  1  0.93150828  0.82213207  0.65155369  1
  Al0+  Al83  1  0.17580002  0.42815600  0.01434908  1
  Al0+  Al84  1  0.17739606  0.93082991  0.01653122  1
  Al0+  Al85  1  0.32474509  0.07150352  0.01470492  1
  Al0+  Al86  1  0.81864669  0.06922166  0.01516411  1
  Al0+  Al87  1  0.57112314  0.17998047  0.31859343  1
  Al0+  Al88  1  0.32186818  0.57058684  0.01543868  1
  Al0+  Al89  1  0.17838992  0.42739935  0.68107602  1
  Al0+  Al90  1  0.67968119  0.42786258  0.34860685  1
  Al0+  Al91  1  0.67734526  0.92651876  0.68168649  1
  Al0+  Al92  1  0.68149543  0.42840981  0.01304860  1
  Al0+  Al93  1  0.42768628  0.32032810  0.65247016  1
  Al0+  Al94  1  0.17954879  0.92847546  0.67862275  1
  Al0+  Al95  1  0.57420493  0.17804286  0.65077734  1
  Si0+  Si96  1  0.56888750  0.67729436  0.98674547  1
  Si0+  Si97  1  0.82105261  0.57318067  0.34944085  1
  Si0+  Si98  1  0.07386785  0.67903835  0.98258969  1
  Si0+  Si99  1  0.32218815  0.07149100  0.68193909  1
  Si0+  Si100  1  0.67795099  0.92442433  0.01485409  1
  Si0+  Si101  1  0.17864437  0.92973410  0.34786309  1
  Si0+  Si102  1  0.07365339  0.17947875  0.31959275  1
  Si0+  Si103  1  0.82021215  0.57618146  0.01555765  1
  Si0+  Si104  1  0.92927207  0.32373268  0.65075147  1
  Si0+  Si105  1  0.07218326  0.67582984  0.64918564  1
  Si0+  Si106  1  0.82428725  0.07146470  0.34970675  1
  Si0+  Si107  1  0.42726830  0.82079198  0.31767817  1
  Si0+  Si108  1  0.32222678  0.07000259  0.34998026  1
  Si0+  Si109  1  0.43005661  0.32303130  0.98651874  1
  Si0+  Si110  1  0.32105958  0.57159700  0.68232337  1
  Si0+  Si111  1  0.07271187  0.67804429  0.31592436  1
  Si0+  Si112  1  0.42456116  0.82144715  0.65102161  1
  Si0+  Si113  1  0.32188981  0.57461349  0.35379289  1
  Si0+  Si114  1  0.82191189  0.57252715  0.68238179  1
  Si0+  Si115  1  0.56996571  0.67800291  0.31621253  1
  Si0+  Si116  1  0.07021367  0.18072498  0.65144899  1
  Si0+  Si117  1  0.42691668  0.32240509  0.31506690  1
  Si0+  Si118  1  0.93122547  0.32208326  0.32100648  1
  Si0+  Si119  1  0.42729031  0.81935187  0.98558922  1
  O2-  O120  1  0.24927251  0.00339768  0.06646498  1
  O2-  O121  1  0.24906204  0.00036458  0.39156696  1
  O2-  O122  1  0.25889372  -0.00244675  0.72471648  1
  O2-  O123  1  0.24788695  0.50027759  0.06471333  1
  O2-  O124  1  0.25509114  0.50344625  0.39625415  1
  O2-  O125  1  0.25408196  0.50129200  0.72550425  1
  O2-  O126  1  0.74353488  -0.00541078  0.06096178  1
  O2-  O127  1  0.75496774  0.00305348  0.39235254  1
  O2-  O128  1  0.74506482  0.00170426  0.73201353  1
  O2-  O129  1  0.75900439  0.50083483  0.05998813  1
  O2-  O130  1  0.75322029  0.50433114  0.39462540  1
  O2-  O131  1  0.75285620  0.50487719  0.72724098  1
  O2-  O132  1  0.00435300  0.25296363  0.27975651  1
  O2-  O133  1  0.00147580  0.25364174  0.60799284  1
  O2-  O134  1  0.00623036  0.25831644  0.93398977  1
  O2-  O135  1  0.00517347  0.74717405  0.27093534  1
  O2-  O136  1  0.00575235  0.74647368  0.60416235  1
  O2-  O137  1  0.00630402  0.74842947  0.93786930  1
  O2-  O138  1  0.49942676  0.25783823  0.27105637  1
  O2-  O139  1  0.50287068  0.25178124  0.60140394  1
  O2-  O140  1  0.49484571  0.25112709  0.94213434  1
  O2-  O141  1  0.49855827  0.74956358  0.27512377  1
  O2-  O142  1  0.49855623  0.75883832  0.60550026  1
  O2-  O143  1  0.49719446  0.74719304  0.94434191  1
  O2-  O144  1  0.06964676  0.18166112  0.09891147  1
  O2-  O145  1  0.07321618  0.17697850  0.42506575  1
  O2-  O146  1  0.07191583  0.18083427  0.75566345  1
  O2-  O147  1  0.07226950  0.67990982  0.08862037  1
  O2-  O148  1  0.07258766  0.67883710  0.42153791  1
  O2-  O149  1  0.07129936  0.67384815  0.75421856  1
  O2-  O150  1  0.57139969  0.17811028  0.10011525  1
  O2-  O151  1  0.56974363  0.17877482  0.43125221  1
  O2-  O152  1  0.57314024  0.18008258  0.76419964  1
  O2-  O153  1  0.56938423  0.67950828  0.09222708  1
  O2-  O154  1  0.56983802  0.67862375  0.42114969  1
  O2-  O155  1  0.56641018  0.67807385  0.76598150  1
  O2-  O156  1  0.17864463  0.43058059  0.23572948  1
  O2-  O157  1  0.17863246  0.42926473  0.56747288  1
  O2-  O158  1  0.17970896  0.42959219  0.90087919  1
  O2-  O159  1  0.17933337  0.93018627  0.24342737  1
  O2-  O160  1  0.17984286  0.93203383  0.56439822  1
  O2-  O161  1  0.18047671  0.93037096  0.90293156  1
  O2-  O162  1  0.68233825  0.42754492  0.23555374  1
  O2-  O163  1  0.68127602  0.43124878  0.56655998  1
  O2-  O164  1  0.67784342  0.43147728  0.90021478  1
  O2-  O165  1  0.67901391  0.92984130  0.23220250  1
  O2-  O166  1  0.68208956  0.92653010  0.56756178  1
  O2-  O167  1  0.67932681  0.92106109  0.90987982  1
  O2-  O168  1  0.43346239  0.32450829  0.09239740  1
  O2-  O169  1  0.42401553  0.31871638  0.42041940  1
  O2-  O170  1  0.42645669  0.31810859  0.76610233  1
  O2-  O171  1  0.42940229  0.82026437  0.09118799  1
  O2-  O172  1  0.42369445  0.81948218  0.42260239  1
  O2-  O173  1  0.42111092  0.81679106  0.75628349  1
  O2-  O174  1  0.92786636  0.31919233  0.09925359  1
  O2-  O175  1  0.93139250  0.32148877  0.42641885  1
  O2-  O176  1  0.92927653  0.32514725  0.75507825  1
  O2-  O177  1  0.92759148  0.81823544  0.09721212  1
  O2-  O178  1  0.93098135  0.82179440  0.43010125  1
  O2-  O179  1  0.93310904  0.82170808  0.76422102  1
  O2-  O180  1  0.32260433  0.06898096  0.24532408  1
  O2-  O181  1  0.31800913  0.07153285  0.57545291  1
  O2-  O182  1  0.32690104  0.06588019  0.90135701  1
  O2-  O183  1  0.32121743  0.57735350  0.24865331  1
  O2-  O184  1  0.31852787  0.57465311  0.57660332  1
  O2-  O185  1  0.32359890  0.56987008  0.90192783  1
  O2-  O186  1  0.82529262  0.07188715  0.24436041  1
  O2-  O187  1  0.82364479  0.06912578  0.56863977  1
  O2-  O188  1  0.81856084  0.06952097  0.90277849  1
  O2-  O189  1  0.81925084  0.57361598  0.24390454  1
  O2-  O190  1  0.82223395  0.56996976  0.57626243  1
  O2-  O191  1  0.81408726  0.58221854  0.91056766  1
  O2-  O192  1  0.04507832  0.08919468  0.26998698  1
  O2-  O193  1  0.03956139  0.09046005  0.60188886  1
  O2-  O194  1  0.04012882  0.08431160  0.93270764  1
  O2-  O195  1  0.04611506  0.58425737  0.27026533  1
  O2-  O196  1  0.04406510  0.58296572  0.60135315  1
  O2-  O197  1  0.04863315  0.58579716  0.93602984  1
  O2-  O198  1  0.53726643  0.08341379  0.26567769  1
  O2-  O199  1  0.54485133  0.07866805  0.59832922  1
  O2-  O200  1  0.54228989  0.07956396  0.93276080  1
  O2-  O201  1  0.54110262  0.58579081  0.26952841  1
  O2-  O202  1  0.53525080  0.58669400  0.59399305  1
  O2-  O203  1  0.54038758  0.58479346  0.94151977  1
  O2-  O204  1  0.16688994  0.20470211  0.27424280  1
  O2-  O205  1  0.16192109  0.20593265  0.60177961  1
  O2-  O206  1  0.17509731  0.20243305  0.93468314  1
  O2-  O207  1  0.16727982  0.70258464  0.27115936  1
  O2-  O208  1  0.16659938  0.69919012  0.60302006  1
  O2-  O209  1  0.16897075  0.70294927  0.93911764  1
  O2-  O210  1  0.67011902  0.20920554  0.26765357  1
  O2-  O211  1  0.67296193  0.20755492  0.59811641  1
  O2-  O212  1  0.66631067  0.21076863  0.93383115  1
  O2-  O213  1  0.66114890  0.70546189  0.26764433  1
  O2-  O214  1  0.66653734  0.70608798  0.59516240  1
  O2-  O215  1  0.65897370  0.70502024  0.93696644  1
  O2-  O216  1  0.07624710  0.45790809  0.06559575  1
  O2-  O217  1  0.08320812  0.46082016  0.40316182  1
  O2-  O218  1  0.08180556  0.45775914  0.73410629  1
  O2-  O219  1  0.07985592  0.96040695  0.06943782  1
  O2-  O220  1  0.08675449  0.95958607  0.39425548  1
  O2-  O221  1  0.08604800  0.96502280  0.73217848  1
  O2-  O222  1  0.58825002  0.46174436  0.07179597  1
  O2-  O223  1  0.58166215  0.45791197  0.39983346  1
  O2-  O224  1  0.58054398  0.46324531  0.73040564  1
  O2-  O225  1  0.58264350  0.94587258  0.05866301  1
  O2-  O226  1  0.58202381  0.95692309  0.39952561  1
  O2-  O227  1  0.57458453  0.94472675  0.72978737  1
  O2-  O228  1  0.20423029  0.33072335  0.06907649  1
  O2-  O229  1  0.20958391  0.33218738  0.40222593  1
  O2-  O230  1  0.20845176  0.33019757  0.73281887  1
  O2-  O231  1  0.20644570  0.83330549  0.07097178  1
  O2-  O232  1  0.20638785  0.83742992  0.39460862  1
  O2-  O233  1  0.20394130  0.83020943  0.73156561  1
  O2-  O234  1  0.71373460  0.33303209  0.06795591  1
  O2-  O235  1  0.71488964  0.33281308  0.40308487  1
  O2-  O236  1  0.71021669  0.33481691  0.73279696  1
  O2-  O237  1  0.70558168  0.83124751  0.06190633  1
  O2-  O238  1  0.70933765  0.83123753  0.39650876  1
  O2-  O239  1  0.70710855  0.82706811  0.73144617  1
  O2-  O240  1  0.44653797  0.41929892  0.27355884  1
  O2-  O241  1  0.44841859  0.42013498  0.59907197  1
  O2-  O242  1  0.45935812  0.41589510  0.94085619  1
  O2-  O243  1  0.45577876  0.91211231  0.27030875  1
  O2-  O244  1  0.44178926  0.91711607  0.60600704  1
  O2-  O245  1  0.45463400  0.90911523  0.93507873  1
  O2-  O246  1  0.95602656  0.41523412  0.27490187  1
  O2-  O247  1  0.95603686  0.41587429  0.60254839  1
  O2-  O248  1  0.94279224  0.42690525  0.93564628  1
  O2-  O249  1  0.96071810  0.91798143  0.26353032  1
  O2-  O250  1  0.96523554  0.91804733  0.59695749  1
  O2-  O251  1  0.95943416  0.91810880  0.93211283  1
  O2-  O252  1  0.33422685  0.29216859  0.26889070  1
  O2-  O253  1  0.33072933  0.28678040  0.59671931  1
  O2-  O254  1  0.33443919  0.30228373  0.94375188  1
  O2-  O255  1  0.33564151  0.79256166  0.26912923  1
  O2-  O256  1  0.33308626  0.78966851  0.60162922  1
  O2-  O257  1  0.33466139  0.79168163  0.94004009  1
  O2-  O258  1  0.84045463  0.29222061  0.27305997  1
  O2-  O259  1  0.83882421  0.29334933  0.60188618  1
  O2-  O260  1  0.83312192  0.28664566  0.93161946  1
  O2-  O261  1  0.83335574  0.78877865  0.26189876  1
  O2-  O262  1  0.83601171  0.79005732  0.59570797  1
  O2-  O263  1  0.83328218  0.78692952  0.92968397  1
  O2-  O264  1  0.42052692  0.03457327  0.06986286  1
  O2-  O265  1  0.41195802  0.03850461  0.39860147  1
  O2-  O266  1  0.41769010  0.05217978  0.72487215  1
  O2-  O267  1  0.41805798  0.54187405  0.07340687  1
  O2-  O268  1  0.41641600  0.55159081  0.39888179  1
  O2-  O269  1  0.41536958  0.54882741  0.72668076  1
  O2-  O270  1  0.91466440  0.03881574  0.06984479  1
  O2-  O271  1  0.91851003  0.04543716  0.39531639  1
  O2-  O272  1  0.91791905  0.03990645  0.73546027  1
  O2-  O273  1  0.91640959  0.56088014  0.05960688  1
  O2-  O274  1  0.91521654  0.55044829  0.39560129  1
  O2-  O275  1  0.91520666  0.54873399  0.72904138  1
  O2-  O276  1  0.30209430  0.17001714  0.06973373  1
  O2-  O277  1  0.29508671  0.16148253  0.39815516  1
  O2-  O278  1  0.29043188  0.16191145  0.72892366  1
  O2-  O279  1  0.29537790  0.66844231  0.07118904  1
  O2-  O280  1  0.29432250  0.66772704  0.40108809  1
  O2-  O281  1  0.29438413  0.66378202  0.73076604  1
  O2-  O282  1  0.78826241  0.16480193  0.07114108  1
  O2-  O283  1  0.80051361  0.16518619  0.39610868  1
  O2-  O284  1  0.79718696  0.17077720  0.73499383  1
  O2-  O285  1  0.78583570  0.66564032  0.06606743  1
  O2-  O286  1  0.79335237  0.66645407  0.39491192  1
  O2-  O287  1  0.79652661  0.66679482  0.72545451  1
