# generated using pymatgen
data_Ca2Al2SiO7
_symmetry_space_group_name_H-M   'P 1'
_cell_length_a   15.45368712
_cell_length_b   15.45380084
_cell_length_c   15.28054821
_cell_angle_alpha   90.00651719
_cell_angle_beta   90.00339488
_cell_angle_gamma   89.99691116
_symmetry_Int_Tables_number   1
_chemical_formula_structural   Ca2Al2SiO7
_chemical_formula_sum   'Ca48 Al48 Si24 O168'
_cell_volume   3649.27303015
_cell_formula_units_Z   24
loop_
 _symmetry_equiv_pos_site_id
 _symmetry_equiv_pos_as_xyz
  1  'x, y, z'
loop_
 _atom_type_symbol
 _atom_type_oxidation_number
  Ca2+  2.0
  Al0+  0.0
  Si0+  0.0
  O2-  -2.0
loop_
 _atom_site_type_symbol
 _atom_site_label
 _atom_site_symmetry_multiplicity
 _atom_site_fract_x
 _atom_site_fract_y
 _atom_site_fract_z
 _atom_site_occupancy
  Ca2+  Ca0  1  0.16320063  0.08044382  0.16708688  1
  Ca2+  Ca1  1  0.16277945  0.08207618  0.50720411  1
  Ca2+  Ca2  1  0.15417138  0.07514604  0.83708817  1
  Ca2+  Ca3  1  0.16489494  0.57747924  0.17664533  1
  Ca2+  Ca4  1  0.15846696  0.57134076  0.50091132  1
  Ca2+  Ca5  1  0.16549409  0.57363144  0.83352570  1
  Ca2+  Ca6  1  0.67319086  0.08293757  0.17366722  1
  Ca2+  Ca7  1  0.66632441  0.08306515  0.50482543  1
  Ca2+  Ca8  1  0.68071107  0.09258238  0.83426592  1
  Ca2+  Ca9  1  0.67537784  0.57536878  0.17198117  1
  Ca2+  Ca10  1  0.67118408  0.57842449  0.49953817  1
  Ca2+  Ca11  1  0.67340231  0.57526510  0.84495420  1
  Ca2+  Ca12  1  0.08678341  0.32294430  0.16377854  1
  Ca2+  Ca13  1  0.08404482  0.32828221  0.49538483  1
  Ca2+  Ca14  1  0.07788287  0.32095300  0.82223419  1
  Ca2+  Ca15  1  0.07856956  0.82538255  0.15783196  1
  Ca2+  Ca16  1  0.07842706  0.83095814  0.49747028  1
  Ca2+  Ca17  1  0.07434610  0.84037331  0.82973422  1
  Ca2+  Ca18  1  0.58552248  0.33606684  0.16271838  1
  Ca2+  Ca19  1  0.58625037  0.32198443  0.49585260  1
  Ca2+  Ca20  1  0.57613032  0.33483086  0.82623605  1
  Ca2+  Ca21  1  0.57342795  0.84159601  0.16488867  1
  Ca2+  Ca22  1  0.57792197  0.83710901  0.48912559  1
  Ca2+  Ca23  1  0.57850295  0.83368981  0.83237014  1
  Ca2+  Ca24  1  0.32987876  0.41416895  0.17088636  1
  Ca2+  Ca25  1  0.32231626  0.41048709  0.50528655  1
  Ca2+  Ca26  1  0.33128101  0.40619297  0.83498750  1
  Ca2+  Ca27  1  0.33064245  0.91257350  0.17044815  1
  Ca2+  Ca28  1  0.32746351  0.91780771  0.50602899  1
  Ca2+  Ca29  1  0.32024594  0.91828040  0.84022295  1
  Ca2+  Ca30  1  0.82577759  0.42543319  0.17340844  1
  Ca2+  Ca31  1  0.83618664  0.41781002  0.50152398  1
  Ca2+  Ca32  1  0.82936648  0.41793799  0.84200486  1
  Ca2+  Ca33  1  0.83134847  0.91964465  0.16704793  1
  Ca2+  Ca34  1  0.83027566  0.92199024  0.50684834  1
  Ca2+  Ca35  1  0.84346957  0.92745384  0.83794609  1
  Ca2+  Ca36  1  0.42714919  0.17270601  0.16194325  1
  Ca2+  Ca37  1  0.42620155  0.16899189  0.49797211  1
  Ca2+  Ca38  1  0.42485306  0.17754479  0.82711526  1
  Ca2+  Ca39  1  0.41539843  0.67887950  0.16218675  1
  Ca2+  Ca40  1  0.41641717  0.67481582  0.49408841  1
  Ca2+  Ca41  1  0.41537357  0.67160776  0.83430738  1
  Ca2+  Ca42  1  0.92726249  0.16032834  0.16130036  1
  Ca2+  Ca43  1  0.92490393  0.16769397  0.50171654  1
  Ca2+  Ca44  1  0.92115104  0.16517500  0.82535409  1
  Ca2+  Ca45  1  0.91411262  0.66625322  0.16425643  1
  Ca2+  Ca46  1  0.91941975  0.67040890  0.49379437  1
  Ca2+  Ca47  1  0.90811539  0.67938917  0.83149157  1
  Al0+  Al48  1  0.00088898  -0.00333723  0.00410744  1
  Al0+  Al49  1  0.00009194  -0.00011507  0.32973542  1
  Al0+  Al50  1  -0.00221269  -0.00121943  0.66389129  1
  Al0+  Al51  1  0.00121879  0.49872376  0.00438635  1
  Al0+  Al52  1  0.00052098  0.50063646  0.33610099  1
  Al0+  Al53  1  0.00060335  0.50092270  0.67181842  1
  Al0+  Al54  1  0.49852256  0.00176657  -0.00816164  1
  Al0+  Al55  1  0.49958625  0.00286458  0.32841785  1
  Al0+  Al56  1  0.49872600  -0.00099396  0.66626138  1
  Al0+  Al57  1  0.49808639  0.50026380  0.00039653  1
  Al0+  Al58  1  0.50011165  0.50165605  0.33844917  1
  Al0+  Al59  1  0.49883107  0.50267654  0.66244320  1
  Al0+  Al60  1  0.25196823  0.24613115  -0.00774671  1
  Al0+  Al61  1  0.25063860  0.24843362  0.33292192  1
  Al0+  Al62  1  0.25143848  0.24883127  0.66537508  1
  Al0+  Al63  1  0.24894089  0.74860989  -0.00149130  1
  Al0+  Al64  1  0.24815550  0.75009833  0.32634476  1
  Al0+  Al65  1  0.24942525  0.74901804  0.67177353  1
  Al0+  Al66  1  0.75265792  0.24884790  0.01096005  1
  Al0+  Al67  1  0.75169370  0.25027239  0.33252916  1
  Al0+  Al68  1  0.75067826  0.25058432  0.66348408  1
  Al0+  Al69  1  0.74964528  0.75065200  -0.00020894  1
  Al0+  Al70  1  0.74826772  0.75113952  0.34077705  1
  Al0+  Al71  1  0.74862640  0.75060137  0.66262853  1
  Al0+  Al72  1  0.57203664  0.17919306  0.65226226  1
  Al0+  Al73  1  0.67717633  0.42855085  0.01434871  1
  Al0+  Al74  1  0.42930045  0.82111537  0.32014286  1
  Al0+  Al75  1  0.06935985  0.17866639  0.98581367  1
  Al0+  Al76  1  0.67778900  0.93278897  0.34558737  1
  Al0+  Al77  1  0.17971377  0.42744638  0.68185173  1
  Al0+  Al78  1  0.67786691  0.42726112  0.35198854  1
  Al0+  Al79  1  0.42836938  0.32346410  0.64897948  1
  Al0+  Al80  1  0.07194148  0.17870208  0.31780393  1
  Al0+  Al81  1  0.06859536  0.67894095  0.32025760  1
  Al0+  Al82  1  0.82156940  0.57148650  0.35160704  1
  Al0+  Al83  1  0.92865521  0.82089366  0.65178130  1
  Al0+  Al84  1  0.57256990  0.18075423  0.31791845  1
  Al0+  Al85  1  0.82213885  0.06937419  0.01483312  1
  Al0+  Al86  1  0.18166048  0.42779880  0.34560909  1
  Al0+  Al87  1  0.92937967  0.81773326  0.98751676  1
  Al0+  Al88  1  0.42693725  0.82263980  0.98379724  1
  Al0+  Al89  1  0.81822984  0.07001813  0.67847066  1
  Al0+  Al90  1  0.43132730  0.32141555  0.98721316  1
  Al0+  Al91  1  0.17918254  0.92976353  0.67928279  1
  Al0+  Al92  1  0.18030536  0.92882453  0.01590853  1
  Al0+  Al93  1  0.92876474  0.32437797  0.65276947  1
  Al0+  Al94  1  0.06996294  0.17783174  0.65163669  1
  Al0+  Al95  1  0.82242417  0.57338687  0.01492088  1
  Si0+  Si96  1  0.92937073  0.32277545  0.31514542  1
  Si0+  Si97  1  0.32099394  0.57517726  0.34921905  1
  Si0+  Si98  1  0.42768896  0.81928117  0.65271454  1
  Si0+  Si99  1  0.32317462  0.07190312  0.01679506  1
  Si0+  Si100  1  0.92568753  0.82184474  0.31636742  1
  Si0+  Si101  1  0.92835916  0.32255122  0.98656256  1
  Si0+  Si102  1  0.57013025  0.67917486  0.98456274  1
  Si0+  Si103  1  0.82503796  0.07135223  0.35134409  1
  Si0+  Si104  1  0.32037269  0.06996758  0.34738034  1
  Si0+  Si105  1  0.57278504  0.67752495  0.31668799  1
  Si0+  Si106  1  0.32447144  0.07147678  0.68461818  1
  Si0+  Si107  1  0.67488676  0.92881750  0.01429635  1
  Si0+  Si108  1  0.31993936  0.57089161  0.01574902  1
  Si0+  Si109  1  0.07289063  0.67836002  0.65159646  1
  Si0+  Si110  1  0.67543151  0.92596366  0.68418132  1
  Si0+  Si111  1  0.07307372  0.67401249  0.98186784  1
  Si0+  Si112  1  0.42856741  0.32278128  0.31784260  1
  Si0+  Si113  1  0.18111256  0.42565448  0.01396525  1
  Si0+  Si114  1  0.57150525  0.67986496  0.65048402  1
  Si0+  Si115  1  0.82075215  0.57329323  0.68273424  1
  Si0+  Si116  1  0.67887714  0.43077023  0.68048795  1
  Si0+  Si117  1  0.57617228  0.17843395  0.98362221  1
  Si0+  Si118  1  0.17880582  0.92792074  0.34717131  1
  Si0+  Si119  1  0.32354490  0.57231934  0.68479891  1
  O2-  O120  1  0.25787443  0.00075834  0.06291948  1
  O2-  O121  1  0.24790921  0.00014910  0.38999542  1
  O2-  O122  1  0.25133038  0.00655413  0.72737808  1
  O2-  O123  1  0.24937898  0.49916656  0.05712177  1
  O2-  O124  1  0.25587041  0.50333743  0.39311454  1
  O2-  O125  1  0.25818184  0.49974167  0.72815668  1
  O2-  O126  1  0.74239193  -0.00182762  0.05878918  1
  O2-  O127  1  0.75363597  0.00472766  0.39439782  1
  O2-  O128  1  0.74274599  -0.00406460  0.72727376  1
  O2-  O129  1  0.75132022  0.49943836  0.06269110  1
  O2-  O130  1  0.75095422  0.49821080  0.40248434  1
  O2-  O131  1  0.75162673  0.49976036  0.72394480  1
  O2-  O132  1  -0.00347671  0.25232377  0.27077548  1
  O2-  O133  1  0.00336351  0.25507279  0.60199567  1
  O2-  O134  1  -0.00473321  0.25391494  0.94010977  1
  O2-  O135  1  -0.00711771  0.75169348  0.27257199  1
  O2-  O136  1  0.00353156  0.74582048  0.60679953  1
  O2-  O137  1  0.00147331  0.74039225  0.93930723  1
  O2-  O138  1  0.50311350  0.26134229  0.27258013  1
  O2-  O139  1  0.50057637  0.25111323  0.60071948  1
  O2-  O140  1  0.51097205  0.25148983  0.94140838  1
  O2-  O141  1  0.50415810  0.74659646  0.27262400  1
  O2-  O142  1  0.50127756  0.75231089  0.60910794  1
  O2-  O143  1  0.50369640  0.74942920  0.93799890  1
  O2-  O144  1  0.07092314  0.18097195  0.09925789  1
  O2-  O145  1  0.07253927  0.17753183  0.43040799  1
  O2-  O146  1  0.06535120  0.17665286  0.76522570  1
  O2-  O147  1  0.07570683  0.67506525  0.08751212  1
  O2-  O148  1  0.07049556  0.68244068  0.43350281  1
  O2-  O149  1  0.07329332  0.67825319  0.75721079  1
  O2-  O150  1  0.57254436  0.17548661  0.08920729  1
  O2-  O151  1  0.56795727  0.17709119  0.43058576  1
  O2-  O152  1  0.57273133  0.18246165  0.76611132  1
  O2-  O153  1  0.56740980  0.67903341  0.08978237  1
  O2-  O154  1  0.56995380  0.67923719  0.42279196  1
  O2-  O155  1  0.57194208  0.67938275  0.75568583  1
  O2-  O156  1  0.18496596  0.42777716  0.23188611  1
  O2-  O157  1  0.17937441  0.43089832  0.56872954  1
  O2-  O158  1  0.18203222  0.42734378  0.90896796  1
  O2-  O159  1  0.18049465  0.92759765  0.24223162  1
  O2-  O160  1  0.18316504  0.92693338  0.56559793  1
  O2-  O161  1  0.17956419  0.93081118  0.90271703  1
  O2-  O162  1  0.67736475  0.43104760  0.23848050  1
  O2-  O163  1  0.67842981  0.43369069  0.57585952  1
  O2-  O164  1  0.67677445  0.43075862  0.89987629  1
  O2-  O165  1  0.67712988  0.93442237  0.23231701  1
  O2-  O166  1  0.67439205  0.92467211  0.57851641  1
  O2-  O167  1  0.67455139  0.92822195  0.90867279  1
  O2-  O168  1  0.42901995  0.31969719  0.10047244  1
  O2-  O169  1  0.42574709  0.31815392  0.42288977  1
  O2-  O170  1  0.43249593  0.32355900  0.76292875  1
  O2-  O171  1  0.42762613  0.82055699  0.09689355  1
  O2-  O172  1  0.42834684  0.81978780  0.43383436  1
  O2-  O173  1  0.42805812  0.81666743  0.75769558  1
  O2-  O174  1  0.93216509  0.32329763  0.09200391  1
  O2-  O175  1  0.93162330  0.32251157  0.42075722  1
  O2-  O176  1  0.92783354  0.32417202  0.76682277  1
  O2-  O177  1  0.93095438  0.81740064  0.10064546  1
  O2-  O178  1  0.92870054  0.82331053  0.42211404  1
  O2-  O179  1  0.92857126  0.82006657  0.76499408  1
  O2-  O180  1  0.32037145  0.06980243  0.24225704  1
  O2-  O181  1  0.32834357  0.06650587  0.57865309  1
  O2-  O182  1  0.32309176  0.07113022  0.91140796  1
  O2-  O183  1  0.31958927  0.57615158  0.24334023  1
  O2-  O184  1  0.32282427  0.57789251  0.57956842  1
  O2-  O185  1  0.32015792  0.57210126  0.91062268  1
  O2-  O186  1  0.82638251  0.06773046  0.24552159  1
  O2-  O187  1  0.81779156  0.06681287  0.56549783  1
  O2-  O188  1  0.82209743  0.06995277  0.90163568  1
  O2-  O189  1  0.81965935  0.57093627  0.23808916  1
  O2-  O190  1  0.81912213  0.57526342  0.57804981  1
  O2-  O191  1  0.81887765  0.57343010  0.90064077  1
  O2-  O192  1  0.04150140  0.08151953  0.26337529  1
  O2-  O193  1  0.03720065  0.08186250  0.59667080  1
  O2-  O194  1  0.03678671  0.08128049  0.93609690  1
  O2-  O195  1  0.04153685  0.58142585  0.26595764  1
  O2-  O196  1  0.04644160  0.58484395  0.60667844  1
  O2-  O197  1  0.05085214  0.57853437  0.93770399  1
  O2-  O198  1  0.53510506  0.08793077  0.26102122  1
  O2-  O199  1  0.54290814  0.07916423  0.60121586  1
  O2-  O200  1  0.54781462  0.08742214  0.93382914  1
  O2-  O201  1  0.54675575  0.58366606  0.27150679  1
  O2-  O202  1  0.54221024  0.59003973  0.60049401  1
  O2-  O203  1  0.54055453  0.58739344  0.93640584  1
  O2-  O204  1  0.16881071  0.20984601  0.26379727  1
  O2-  O205  1  0.17148064  0.19886720  0.60288505  1
  O2-  O206  1  0.16600350  0.20618466  0.93083076  1
  O2-  O207  1  0.16364767  0.70994487  0.26269212  1
  O2-  O208  1  0.16668885  0.70454253  0.60599978  1
  O2-  O209  1  0.16564795  0.70090551  0.93471257  1
  O2-  O210  1  0.67154590  0.20493489  0.26540602  1
  O2-  O211  1  0.66891695  0.20738066  0.59736792  1
  O2-  O212  1  0.67236694  0.20109846  0.94249558  1
  O2-  O213  1  0.66686529  0.70359253  0.27304222  1
  O2-  O214  1  0.66203940  0.70664584  0.60057054  1
  O2-  O215  1  0.66358436  0.70342208  0.93737510  1
  O2-  O216  1  0.08895151  0.45003829  0.06217249  1
  O2-  O217  1  0.08593149  0.45933989  0.39977835  1
  O2-  O218  1  0.08502455  0.46190384  0.73878492  1
  O2-  O219  1  0.08596326  0.96048188  0.07252071  1
  O2-  O220  1  0.08579745  0.95438325  0.39289639  1
  O2-  O221  1  0.08176331  0.95925669  0.73171213  1
  O2-  O222  1  0.57908987  0.45947225  0.06725415  1
  O2-  O223  1  0.57890694  0.45617505  0.40503978  1
  O2-  O224  1  0.58686990  0.46232704  0.72633578  1
  O2-  O225  1  0.57971978  0.95395749  0.05803485  1
  O2-  O226  1  0.58081753  0.96460020  0.39942762  1
  O2-  O227  1  0.58040744  0.94837569  0.72936581  1
  O2-  O228  1  0.21324921  0.33416759  0.05916443  1
  O2-  O229  1  0.21321846  0.33174401  0.40044318  1
  O2-  O230  1  0.20896155  0.32978006  0.73504432  1
  O2-  O231  1  0.20979469  0.83015147  0.06723167  1
  O2-  O232  1  0.20870117  0.83643784  0.39384814  1
  O2-  O233  1  0.21143902  0.83416265  0.73525068  1
  O2-  O234  1  0.70283522  0.33094563  0.06948926  1
  O2-  O235  1  0.70636638  0.32751979  0.40202451  1
  O2-  O236  1  0.70404340  0.33823969  0.72680514  1
  O2-  O237  1  0.70012571  0.83544206  0.06058870  1
  O2-  O238  1  0.70252761  0.83550337  0.40146348  1
  O2-  O239  1  0.70143502  0.83177349  0.72929226  1
  O2-  O240  1  0.44622058  0.42049989  0.27652235  1
  O2-  O241  1  0.45195704  0.42388682  0.59790073  1
  O2-  O242  1  0.45499629  0.41988872  0.93277502  1
  O2-  O243  1  0.45997973  0.91660655  0.26449439  1
  O2-  O244  1  0.45134399  0.91209758  0.60582358  1
  O2-  O245  1  0.45461185  0.91885654  0.92761951  1
  O2-  O246  1  0.95699514  0.41591398  0.26993518  1
  O2-  O247  1  0.95540555  0.42450962  0.60219598  1
  O2-  O248  1  0.95285981  0.41676879  0.94050888  1
  O2-  O249  1  0.95344467  0.91433277  0.26950389  1
  O2-  O250  1  0.96055008  0.91479441  0.59498699  1
  O2-  O251  1  0.96562679  0.91269292  0.93417621  1
  O2-  O252  1  0.33805551  0.29020554  0.26937443  1
  O2-  O253  1  0.33047201  0.29358543  0.59731515  1
  O2-  O254  1  0.33805735  0.28543917  0.92970693  1
  O2-  O255  1  0.33425502  0.78937338  0.26360311  1
  O2-  O256  1  0.33684456  0.78769248  0.60536761  1
  O2-  O257  1  0.33201705  0.78633254  0.92986586  1
  O2-  O258  1  0.83503985  0.29956010  0.27002082  1
  O2-  O259  1  0.83182749  0.29558027  0.59828536  1
  O2-  O260  1  0.83283513  0.29823480  0.94410544  1
  O2-  O261  1  0.83044160  0.79767050  0.27351933  1
  O2-  O262  1  0.83158363  0.79102550  0.59789343  1
  O2-  O263  1  0.83146506  0.79208245  0.93211313  1
  O2-  O264  1  0.41874451  0.04884300  0.06071752  1
  O2-  O265  1  0.41084237  0.03957990  0.39539589  1
  O2-  O266  1  0.41575057  0.04097215  0.73369792  1
  O2-  O267  1  0.41132164  0.54460598  0.06431585  1
  O2-  O268  1  0.41583873  0.55593078  0.39531761  1
  O2-  O269  1  0.41886969  0.55136547  0.73050175  1
  O2-  O270  1  0.91490333  0.03171715  0.07138316  1
  O2-  O271  1  0.91784852  0.04214174  0.39768804  1
  O2-  O272  1  0.91374585  0.03595296  0.73242169  1
  O2-  O273  1  0.92189831  0.54734188  0.06744507  1
  O2-  O274  1  0.92047859  0.54435421  0.40415764  1
  O2-  O275  1  0.91326941  0.55094560  0.73064450  1
  O2-  O276  1  0.29426304  0.16451438  0.06331197  1
  O2-  O277  1  0.29336425  0.16106508  0.39610807  1
  O2-  O278  1  0.30478517  0.16702283  0.72791270  1
  O2-  O279  1  0.29148459  0.66215951  0.06384166  1
  O2-  O280  1  0.29131233  0.66789684  0.39555467  1
  O2-  O281  1  0.29355745  0.66336734  0.73499570  1
  O2-  O282  1  0.79758009  0.16531620  0.07328124  1
  O2-  O283  1  0.80312740  0.16675100  0.39345589  1
  O2-  O284  1  0.78921799  0.16765117  0.73298910  1
  O2-  O285  1  0.79167601  0.67108740  0.06821988  1
  O2-  O286  1  0.79238206  0.66956370  0.40566746  1
  O2-  O287  1  0.78743480  0.66435745  0.72935031  1
