# generated using pymatgen
data_Ca2Al2SiO7
_symmetry_space_group_name_H-M   'P 1'
_cell_length_a   15.45960808
_cell_length_b   15.45938124
_cell_length_c   15.28508533
_cell_angle_alpha   89.99168923
_cell_angle_beta   89.98514492
_cell_angle_gamma   89.99201296
_symmetry_Int_Tables_number   1
_chemical_formula_structural   Ca2Al2SiO7
_chemical_formula_sum   'Ca48 Al48 Si24 O168'
_cell_volume   3653.07367591
_cell_formula_units_Z   24
loop_
 _symmetry_equiv_pos_site_id
 _symmetry_equiv_pos_as_xyz
  1  'x, y, z'
loop_
 _atom_type_symbol
 _atom_type_oxidation_number
  Ca2+  2.0
  Al0+  0.0
  Si0+  0.0
  O2-  -2.0
loop_
 _atom_site_type_symbol
 _atom_site_label
 _atom_site_symmetry_multiplicity
 _atom_site_fract_x
 _atom_site_fract_y
 _atom_site_fract_z
 _atom_site_occupancy
  Ca2+  Ca0  1  0.15620731  0.07386025  0.16477886  1
  Ca2+  Ca1  1  0.17191869  0.08198181  0.50962810  1
  Ca2+  Ca2  1  0.16685633  0.08447873  0.83790173  1
  Ca2+  Ca3  1  0.16106357  0.58803387  0.17037718  1
  Ca2+  Ca4  1  0.17262692  0.58528759  0.50511710  1
  Ca2+  Ca5  1  0.17244016  0.59095994  0.83853843  1
  Ca2+  Ca6  1  0.67946060  0.07478824  0.16713981  1
  Ca2+  Ca7  1  0.67756817  0.08034030  0.50411431  1
  Ca2+  Ca8  1  0.67930822  0.08000095  0.84203455  1
  Ca2+  Ca9  1  0.67132893  0.58167960  0.17068504  1
  Ca2+  Ca10  1  0.67190542  0.58561600  0.50746215  1
  Ca2+  Ca11  1  0.66851797  0.57529625  0.83205162  1
  Ca2+  Ca12  1  0.07261959  0.32490594  0.15495064  1
  Ca2+  Ca13  1  0.07849415  0.32808251  0.50217826  1
  Ca2+  Ca14  1  0.06824076  0.32229477  0.82875627  1
  Ca2+  Ca15  1  0.07555727  0.82546656  0.15993104  1
  Ca2+  Ca16  1  0.07702516  0.82450127  0.49224532  1
  Ca2+  Ca17  1  0.08045384  0.83598672  0.83944515  1
  Ca2+  Ca18  1  0.58063799  0.33705246  0.16331846  1
  Ca2+  Ca19  1  0.57998775  0.33728071  0.49845255  1
  Ca2+  Ca20  1  0.58923711  0.33739039  0.82954287  1
  Ca2+  Ca21  1  0.57745244  0.83594227  0.16151093  1
  Ca2+  Ca22  1  0.57905068  0.82000461  0.49186944  1
  Ca2+  Ca23  1  0.58223750  0.83443385  0.82986754  1
  Ca2+  Ca24  1  0.32978346  0.41673471  0.17257932  1
  Ca2+  Ca25  1  0.33290767  0.42050854  0.50686471  1
  Ca2+  Ca26  1  0.33293918  0.42696991  0.83509557  1
  Ca2+  Ca27  1  0.32930790  0.90625425  0.16721106  1
  Ca2+  Ca28  1  0.33299727  0.91809608  0.50476558  1
  Ca2+  Ca29  1  0.32903297  0.92065255  0.84222362  1
  Ca2+  Ca30  1  0.83118259  0.41986730  0.17028048  1
  Ca2+  Ca31  1  0.82979201  0.43051240  0.51032110  1
  Ca2+  Ca32  1  0.82797976  0.41299400  0.83699441  1
  Ca2+  Ca33  1  0.84682001  0.92400021  0.16911307  1
  Ca2+  Ca34  1  0.84077909  0.92467988  0.50238953  1
  Ca2+  Ca35  1  0.83304920  0.92562569  0.84349854  1
  Ca2+  Ca36  1  0.41821261  0.17329691  0.16412833  1
  Ca2+  Ca37  1  0.41667888  0.17149067  0.49470879  1
  Ca2+  Ca38  1  0.41800863  0.16601206  0.82702560  1
  Ca2+  Ca39  1  0.42435004  0.67698306  0.16447948  1
  Ca2+  Ca40  1  0.42858827  0.66287052  0.49473021  1
  Ca2+  Ca41  1  0.42204188  0.67247656  0.82748828  1
  Ca2+  Ca42  1  0.91429953  0.16885947  0.15559294  1
  Ca2+  Ca43  1  0.91194388  0.16864631  0.50189064  1
  Ca2+  Ca44  1  0.91641068  0.16913357  0.82668116  1
  Ca2+  Ca45  1  0.92223219  0.67175462  0.16128537  1
  Ca2+  Ca46  1  0.91415374  0.66982180  0.48900265  1
  Ca2+  Ca47  1  0.91515795  0.67078040  0.83033432  1
  Al0+  Al48  1  0.00439065  -0.00173929  0.00135010  1
  Al0+  Al49  1  0.00264164  -0.00041295  0.33908985  1
  Al0+  Al50  1  0.00126776  -0.00066686  0.66591341  1
  Al0+  Al51  1  0.00211006  0.49867452  -0.00851159  1
  Al0+  Al52  1  -0.00046930  0.49638488  0.33581246  1
  Al0+  Al53  1  0.00020200  0.49962346  0.66640915  1
  Al0+  Al54  1  0.50087046  0.00280409  0.00014881  1
  Al0+  Al55  1  0.50042445  0.00162336  0.33082768  1
  Al0+  Al56  1  0.49761845  0.00119883  0.66816541  1
  Al0+  Al57  1  0.50023585  0.50167539  0.00516109  1
  Al0+  Al58  1  0.49812994  0.49894156  0.32440382  1
  Al0+  Al59  1  0.49889085  0.50169775  0.67096998  1
  Al0+  Al60  1  0.25068959  0.25384049  -0.00373697  1
  Al0+  Al61  1  0.24958857  0.24966006  0.32969116  1
  Al0+  Al62  1  0.24909957  0.24918856  0.66805033  1
  Al0+  Al63  1  0.25389374  0.75259327  -0.00290856  1
  Al0+  Al64  1  0.25068390  0.74807084  0.33087468  1
  Al0+  Al65  1  0.24855208  0.75126703  0.67028461  1
  Al0+  Al66  1  0.74661594  0.25099398  0.00679990  1
  Al0+  Al67  1  0.74884989  0.24843692  0.33858535  1
  Al0+  Al68  1  0.74912002  0.24973725  0.66694097  1
  Al0+  Al69  1  0.74858324  0.74788205  -0.00097266  1
  Al0+  Al70  1  0.74987672  0.75126809  0.32794257  1
  Al0+  Al71  1  0.74861957  0.74921473  0.66529212  1
  Al0+  Al72  1  0.07216173  0.67896629  0.98319362  1
  Al0+  Al73  1  0.07062785  0.17767666  0.64958647  1
  Al0+  Al74  1  0.42948854  0.82280119  0.31929412  1
  Al0+  Al75  1  0.67923485  0.43024574  0.01642301  1
  Al0+  Al76  1  0.92721053  0.82044445  0.98419748  1
  Al0+  Al77  1  0.67914640  0.43024409  0.67994169  1
  Al0+  Al78  1  0.18254665  0.92986388  0.01527164  1
  Al0+  Al79  1  0.82249044  0.06858574  0.01466738  1
  Al0+  Al80  1  0.57333559  0.67777200  0.31600732  1
  Al0+  Al81  1  0.31956059  0.57103257  0.67978474  1
  Al0+  Al82  1  0.07180265  0.17775256  0.98562609  1
  Al0+  Al83  1  0.82051118  0.57097200  0.34459082  1
  Al0+  Al84  1  0.56903084  0.67970069  0.65384295  1
  Al0+  Al85  1  0.82239731  0.06976224  0.34986026  1
  Al0+  Al86  1  0.82365174  0.57416866  0.68220620  1
  Al0+  Al87  1  0.82064010  0.06903955  0.68044082  1
  Al0+  Al88  1  0.92564147  0.32147901  0.64872964  1
  Al0+  Al89  1  0.67756758  0.92633847  0.01431089  1
  Al0+  Al90  1  0.92486702  0.31953999  0.98561609  1
  Al0+  Al91  1  0.43268761  0.82245664  0.98420622  1
  Al0+  Al92  1  0.92981880  0.82318405  0.31951586  1
  Al0+  Al93  1  0.42851069  0.31967786  0.32012482  1
  Al0+  Al94  1  0.32110213  0.07180917  0.67970201  1
  Al0+  Al95  1  0.07019176  0.67552694  0.32093128  1
  Si0+  Si96  1  0.67588234  0.42890834  0.35015606  1
  Si0+  Si97  1  0.32045525  0.57165699  0.01775261  1
  Si0+  Si98  1  0.07191769  0.17959080  0.31920832  1
  Si0+  Si99  1  0.56864528  0.18191700  0.98515230  1
  Si0+  Si100  1  0.17752036  0.42685635  0.68478263  1
  Si0+  Si101  1  0.82548228  0.57109591  0.01592937  1
  Si0+  Si102  1  0.67693968  0.92777435  0.68059738  1
  Si0+  Si103  1  0.17880266  0.42566016  0.34864639  1
  Si0+  Si104  1  0.67500328  0.92839187  0.35054297  1
  Si0+  Si105  1  0.57078059  0.17715088  0.65201388  1
  Si0+  Si106  1  0.18173604  0.92761928  0.34953031  1
  Si0+  Si107  1  0.07319595  0.67863935  0.65193683  1
  Si0+  Si108  1  0.17845389  0.92800886  0.68427969  1
  Si0+  Si109  1  0.92892455  0.81952010  0.65204356  1
  Si0+  Si110  1  0.32017273  0.56920685  0.34688980  1
  Si0+  Si111  1  0.42892123  0.32419944  0.98296333  1
  Si0+  Si112  1  0.17987923  0.42999036  0.01460518  1
  Si0+  Si113  1  0.42620968  0.82331299  0.65055210  1
  Si0+  Si114  1  0.57369419  0.17855125  0.31575165  1
  Si0+  Si115  1  0.42944017  0.32085910  0.65426684  1
  Si0+  Si116  1  0.57170900  0.67542943  0.98140595  1
  Si0+  Si117  1  0.92790284  0.31865526  0.32026637  1
  Si0+  Si118  1  0.32274440  0.07624655  0.01814555  1
  Si0+  Si119  1  0.32111070  0.07292233  0.34674639  1
  O2-  O120  1  0.25414176  0.00830026  0.06320826  1
  O2-  O121  1  0.25503016  -0.00218118  0.38984871  1
  O2-  O122  1  0.24764451  -0.00270202  0.72648494  1
  O2-  O123  1  0.24686341  0.50323320  0.06016965  1
  O2-  O124  1  0.24837042  0.49896217  0.38992248  1
  O2-  O125  1  0.24225044  0.49995735  0.72845088  1
  O2-  O126  1  0.75655263  -0.00950131  0.06526960  1
  O2-  O127  1  0.74834768  -0.00734703  0.39482812  1
  O2-  O128  1  0.74564549  -0.00496158  0.72611930  1
  O2-  O129  1  0.75673396  0.50248612  0.06108237  1
  O2-  O130  1  0.74247152  0.49962350  0.39306448  1
  O2-  O131  1  0.75528751  0.49756873  0.73031679  1
  O2-  O132  1  -0.00433586  0.24480525  0.27769697  1
  O2-  O133  1  -0.00223042  0.24846206  0.59858960  1
  O2-  O134  1  -0.00693207  0.24290671  0.93701350  1
  O2-  O135  1  -0.00301150  0.74574999  0.27128247  1
  O2-  O136  1  -0.00324245  0.74415218  0.61063830  1
  O2-  O137  1  -0.00290822  0.74690912  0.93228689  1
  O2-  O138  1  0.50478198  0.24775087  0.27204579  1
  O2-  O139  1  0.49951237  0.24935018  0.61119040  1
  O2-  O140  1  0.49836864  0.25281748  0.94054856  1
  O2-  O141  1  0.50434596  0.75434681  0.26871317  1
  O2-  O142  1  0.49440763  0.75476474  0.60656810  1
  O2-  O143  1  0.51020228  0.75104499  0.93758029  1
  O2-  O144  1  0.07323777  0.18259576  0.10010781  1
  O2-  O145  1  0.07680682  0.18238104  0.42390660  1
  O2-  O146  1  0.07149102  0.17908874  0.76247204  1
  O2-  O147  1  0.07159933  0.67865945  0.09680387  1
  O2-  O148  1  0.07337963  0.67809407  0.43505063  1
  O2-  O149  1  0.07763548  0.68274408  0.75637325  1
  O2-  O150  1  0.56561178  0.18376568  0.09029280  1
  O2-  O151  1  0.57194499  0.17844543  0.42170594  1
  O2-  O152  1  0.56896951  0.17558677  0.75704921  1
  O2-  O153  1  0.56623192  0.67116701  0.08668166  1
  O2-  O154  1  0.56871268  0.67503281  0.43005094  1
  O2-  O155  1  0.56664203  0.68041530  0.76663774  1
  O2-  O156  1  0.18028161  0.42296142  0.24356926  1
  O2-  O157  1  0.18140444  0.42594508  0.57846264  1
  O2-  O158  1  0.18555426  0.42897100  0.90998083  1
  O2-  O159  1  0.18059690  0.92842165  0.24483793  1
  O2-  O160  1  0.18065828  0.92607040  0.57811918  1
  O2-  O161  1  0.18634626  0.92920784  0.90226091  1
  O2-  O162  1  0.67807992  0.42740374  0.24455194  1
  O2-  O163  1  0.67491612  0.43338406  0.56618710  1
  O2-  O164  1  0.67505186  0.43196550  0.90385166  1
  O2-  O165  1  0.67012696  0.93407296  0.24565772  1
  O2-  O166  1  0.67640806  0.92963213  0.57487596  1
  O2-  O167  1  0.67496388  0.93380048  0.90047052  1
  O2-  O168  1  0.42756474  0.32303458  0.08819212  1
  O2-  O169  1  0.42697935  0.31828817  0.43358232  1
  O2-  O170  1  0.42993829  0.32029984  0.75942440  1
  O2-  O171  1  0.43128863  0.81867209  0.09714915  1
  O2-  O172  1  0.42860623  0.82146982  0.43326832  1
  O2-  O173  1  0.42733048  0.82389476  0.75597275  1
  O2-  O174  1  0.92824241  0.32053534  0.10034293  1
  O2-  O175  1  0.93027325  0.31948496  0.42491247  1
  O2-  O176  1  0.92530502  0.31840384  0.76189564  1
  O2-  O177  1  0.93134088  0.81975768  0.09758122  1
  O2-  O178  1  0.93458622  0.82408244  0.43388657  1
  O2-  O179  1  0.92976091  0.82121700  0.75670292  1
  O2-  O180  1  0.31829183  0.07754199  0.24221736  1
  O2-  O181  1  0.32178807  0.07090952  0.56592097  1
  O2-  O182  1  0.32291934  0.07607514  0.91240588  1
  O2-  O183  1  0.31899197  0.56770233  0.24184611  1
  O2-  O184  1  0.31959556  0.56795980  0.56616832  1
  O2-  O185  1  0.32182933  0.56872122  0.91242536  1
  O2-  O186  1  0.82294304  0.07267447  0.23734301  1
  O2-  O187  1  0.81904470  0.06671568  0.56698588  1
  O2-  O188  1  0.81860995  0.07085823  0.90113667  1
  O2-  O189  1  0.82376855  0.56472459  0.23179036  1
  O2-  O190  1  0.82065383  0.57634872  0.56818170  1
  O2-  O191  1  0.82429015  0.57013517  0.91054369  1
  O2-  O192  1  0.04864877  0.08515040  0.27636809  1
  O2-  O193  1  0.04564431  0.07795613  0.59673902  1
  O2-  O194  1  0.05558397  0.07635530  0.93661696  1
  O2-  O195  1  0.04621200  0.57500104  0.26974788  1
  O2-  O196  1  0.05535548  0.58363808  0.60729217  1
  O2-  O197  1  0.05229438  0.57894506  0.92993802  1
  O2-  O198  1  0.54647841  0.08650401  0.26850468  1
  O2-  O199  1  0.54046392  0.08673335  0.60242942  1
  O2-  O200  1  0.54095694  0.09136181  0.93589342  1
  O2-  O201  1  0.53977156  0.58185700  0.26125542  1
  O2-  O202  1  0.53367062  0.58400075  0.60014749  1
  O2-  O203  1  0.53530733  0.58505314  0.93487351  1
  O2-  O204  1  0.16059405  0.21129984  0.26854376  1
  O2-  O205  1  0.16989899  0.20916524  0.59731014  1
  O2-  O206  1  0.16857460  0.21329739  0.93227946  1
  O2-  O207  1  0.16839965  0.70398015  0.26832493  1
  O2-  O208  1  0.16323324  0.71204538  0.60237484  1
  O2-  O209  1  0.17031010  0.71176018  0.93201844  1
  O2-  O210  1  0.66683010  0.20552671  0.26988324  1
  O2-  O211  1  0.66115458  0.20463726  0.60254083  1
  O2-  O212  1  0.66004209  0.21079144  0.93870598  1
  O2-  O213  1  0.67193407  0.70096200  0.26259160  1
  O2-  O214  1  0.66526686  0.70985799  0.59817673  1
  O2-  O215  1  0.66799077  0.69066236  0.93838535  1
  O2-  O216  1  0.08632171  0.45348806  0.06053921  1
  O2-  O217  1  0.08742791  0.45035996  0.39791985  1
  O2-  O218  1  0.08263272  0.44764608  0.72828880  1
  O2-  O219  1  0.08631813  0.95689938  0.07206843  1
  O2-  O220  1  0.09269357  0.95802045  0.40076016  1
  O2-  O221  1  0.08558151  0.95444069  0.72996675  1
  O2-  O222  1  0.58269268  0.46269174  0.07173877  1
  O2-  O223  1  0.57927785  0.45156301  0.39163533  1
  O2-  O224  1  0.58224392  0.46087198  0.73547286  1
  O2-  O225  1  0.58223119  0.96477138  0.06875350  1
  O2-  O226  1  0.58315160  0.95912098  0.39943372  1
  O2-  O227  1  0.58305263  0.95355233  0.72607433  1
  O2-  O228  1  0.21209450  0.33986548  0.06413767  1
  O2-  O229  1  0.21156597  0.33563331  0.39743687  1
  O2-  O230  1  0.20883640  0.33591425  0.73182296  1
  O2-  O231  1  0.21871112  0.83442835  0.06906534  1
  O2-  O232  1  0.20940666  0.83549556  0.39728650  1
  O2-  O233  1  0.20384554  0.83571757  0.73241197  1
  O2-  O234  1  0.70400719  0.33361439  0.07350654  1
  O2-  O235  1  0.70043784  0.33504361  0.39635338  1
  O2-  O236  1  0.70139078  0.32973668  0.73126532  1
  O2-  O237  1  0.69218966  0.82313557  0.06179317  1
  O2-  O238  1  0.69525081  0.83213334  0.39249208  1
  O2-  O239  1  0.70058408  0.83416317  0.72609846  1
  O2-  O240  1  0.45477830  0.41471792  0.26158014  1
  O2-  O241  1  0.45784049  0.41221253  0.60647715  1
  O2-  O242  1  0.45836289  0.41642429  0.93791317  1
  O2-  O243  1  0.45113128  0.92334668  0.26720228  1
  O2-  O244  1  0.45054801  0.91772904  0.60476261  1
  O2-  O245  1  0.45797704  0.92185811  0.93251556  1
  O2-  O246  1  0.95935606  0.40839029  0.27168352  1
  O2-  O247  1  0.95676732  0.42069381  0.59692321  1
  O2-  O248  1  0.95803600  0.41493316  0.93042893  1
  O2-  O249  1  0.96655995  0.92002830  0.26833739  1
  O2-  O250  1  0.96182801  0.90930937  0.60352170  1
  O2-  O251  1  0.96071428  0.91796382  0.93241005  1
  O2-  O252  1  0.33349689  0.28637960  0.26316609  1
  O2-  O253  1  0.33771361  0.29386293  0.60641092  1
  O2-  O254  1  0.33753799  0.29889188  0.93401312  1
  O2-  O255  1  0.33279709  0.78961021  0.26601485  1
  O2-  O256  1  0.33162698  0.79812556  0.60625857  1
  O2-  O257  1  0.33853536  0.78788450  0.92870774  1
  O2-  O258  1  0.83417294  0.29368308  0.27557037  1
  O2-  O259  1  0.82708706  0.29270264  0.59554207  1
  O2-  O260  1  0.82375671  0.29575644  0.93720492  1
  O2-  O261  1  0.82902220  0.80629864  0.26920654  1
  O2-  O262  1  0.83614394  0.79626289  0.60440242  1
  O2-  O263  1  0.82686334  0.79646905  0.93232121  1
  O2-  O264  1  0.41652301  0.05159420  0.06349121  1
  O2-  O265  1  0.41516203  0.05119121  0.39306456  1
  O2-  O266  1  0.41750633  0.04325674  0.73587206  1
  O2-  O267  1  0.40983037  0.53930336  0.06669378  1
  O2-  O268  1  0.41184334  0.53792974  0.39283364  1
  O2-  O269  1  0.41250258  0.53665477  0.73761384  1
  O2-  O270  1  0.92312508  0.04648617  0.06586587  1
  O2-  O271  1  0.91956900  0.04063982  0.40504284  1
  O2-  O272  1  0.91805096  0.03874683  0.73168849  1
  O2-  O273  1  0.92022004  0.54461966  0.05943597  1
  O2-  O274  1  0.91589723  0.53669727  0.40090137  1
  O2-  O275  1  0.92494126  0.55244864  0.73152197  1
  O2-  O276  1  0.29878391  0.17193881  0.06158937  1
  O2-  O277  1  0.28842139  0.16302086  0.39592146  1
  O2-  O278  1  0.29282190  0.16851099  0.73475379  1
  O2-  O279  1  0.29503454  0.66432828  0.06306723  1
  O2-  O280  1  0.29408866  0.66081087  0.39564401  1
  O2-  O281  1  0.29094026  0.66812762  0.73410396  1
  O2-  O282  1  0.78606981  0.16441415  0.06890584  1
  O2-  O283  1  0.78759487  0.16538443  0.40506173  1
  O2-  O284  1  0.78847617  0.16537062  0.73227083  1
  O2-  O285  1  0.79971279  0.66471324  0.06150546  1
  O2-  O286  1  0.79513406  0.67072584  0.39572896  1
  O2-  O287  1  0.79056229  0.67103405  0.73542744  1
