# generated using pymatgen
data_Ca2Al2SiO7
_symmetry_space_group_name_H-M   'P 1'
_cell_length_a   15.45672587
_cell_length_b   15.45599919
_cell_length_c   15.28233297
_cell_angle_alpha   89.99705922
_cell_angle_beta   90.00155865
_cell_angle_gamma   89.98909703
_symmetry_Int_Tables_number   1
_chemical_formula_structural   Ca2Al2SiO7
_chemical_formula_sum   'Ca48 Al48 Si24 O168'
_cell_volume   3650.93616886
_cell_formula_units_Z   24
loop_
 _symmetry_equiv_pos_site_id
 _symmetry_equiv_pos_as_xyz
  1  'x, y, z'
loop_
 _atom_type_symbol
 _atom_type_oxidation_number
  Ca2+  2.0
  Al0+  0.0
  Si0+  0.0
  O2-  -2.0
loop_
 _atom_site_type_symbol
 _atom_site_label
 _atom_site_symmetry_multiplicity
 _atom_site_fract_x
 _atom_site_fract_y
 _atom_site_fract_z
 _atom_site_occupancy
  Ca2+  Ca0  1  0.17426610  0.07961351  0.17074992  1
  Ca2+  Ca1  1  0.16995953  0.07617766  0.50950408  1
  Ca2+  Ca2  1  0.17891892  0.09220033  0.83428008  1
  Ca2+  Ca3  1  0.16746329  0.58502783  0.17285178  1
  Ca2+  Ca4  1  0.16948562  0.58810674  0.51007425  1
  Ca2+  Ca5  1  0.17286779  0.58916987  0.83059925  1
  Ca2+  Ca6  1  0.66443339  0.06981694  0.17353949  1
  Ca2+  Ca7  1  0.66698765  0.08218993  0.50639861  1
  Ca2+  Ca8  1  0.66605709  0.07854859  0.83581500  1
  Ca2+  Ca9  1  0.65971825  0.57966504  0.16846826  1
  Ca2+  Ca10  1  0.66805492  0.58266131  0.51097101  1
  Ca2+  Ca11  1  0.65715266  0.57500506  0.83488303  1
  Ca2+  Ca12  1  0.07466377  0.33279324  0.15852230  1
  Ca2+  Ca13  1  0.08539432  0.32530782  0.50165601  1
  Ca2+  Ca14  1  0.07533387  0.32860286  0.82808754  1
  Ca2+  Ca15  1  0.07521200  0.83750358  0.16719925  1
  Ca2+  Ca16  1  0.07937804  0.82446798  0.49232128  1
  Ca2+  Ca17  1  0.07553757  0.83159415  0.82678554  1
  Ca2+  Ca18  1  0.58076181  0.32565160  0.15879426  1
  Ca2+  Ca19  1  0.58593422  0.32444750  0.50297090  1
  Ca2+  Ca20  1  0.57739694  0.33355458  0.82498258  1
  Ca2+  Ca21  1  0.59855080  0.82258664  0.16290641  1
  Ca2+  Ca22  1  0.58118480  0.82708304  0.49619970  1
  Ca2+  Ca23  1  0.58361362  0.82452891  0.82809740  1
  Ca2+  Ca24  1  0.33588642  0.41621158  0.16594555  1
  Ca2+  Ca25  1  0.33496708  0.42303327  0.51011757  1
  Ca2+  Ca26  1  0.34324319  0.42004311  0.83501870  1
  Ca2+  Ca27  1  0.32862620  0.92221400  0.17187965  1
  Ca2+  Ca28  1  0.32848471  0.91516821  0.50880242  1
  Ca2+  Ca29  1  0.34325159  0.92955350  0.83379052  1
  Ca2+  Ca30  1  0.82847304  0.41484642  0.16682522  1
  Ca2+  Ca31  1  0.82460291  0.42604128  0.51319114  1
  Ca2+  Ca32  1  0.82103421  0.42022430  0.83657443  1
  Ca2+  Ca33  1  0.82779065  0.90737237  0.16931728  1
  Ca2+  Ca34  1  0.82797881  0.91634679  0.50270331  1
  Ca2+  Ca35  1  0.83007088  0.92001577  0.83794036  1
  Ca2+  Ca36  1  0.42027370  0.16820587  0.16122501  1
  Ca2+  Ca37  1  0.42605466  0.16539428  0.50299533  1
  Ca2+  Ca38  1  0.41786304  0.17412590  0.82301008  1
  Ca2+  Ca39  1  0.42847055  0.67029733  0.16270731  1
  Ca2+  Ca40  1  0.42549303  0.66609661  0.50270909  1
  Ca2+  Ca41  1  0.42566553  0.67102818  0.82248919  1
  Ca2+  Ca42  1  0.91858742  0.17178371  0.15996545  1
  Ca2+  Ca43  1  0.91766189  0.16148546  0.50294236  1
  Ca2+  Ca44  1  0.91636004  0.16956042  0.82486474  1
  Ca2+  Ca45  1  0.91831760  0.67966621  0.16432216  1
  Ca2+  Ca46  1  0.92461499  0.66596201  0.49461567  1
  Ca2+  Ca47  1  0.91768928  0.67049448  0.82735014  1
  Al0+  Al48  1  0.00204617  -0.00065640  -0.00408787  1
  Al0+  Al49  1  0.00151308  0.00125537  0.33259608  1
  Al0+  Al50  1  -0.00176238  0.00038347  0.66707202  1
  Al0+  Al51  1  0.00041672  0.49939461  -0.00372832  1
  Al0+  Al52  1  0.00083486  0.49899645  0.33035821  1
  Al0+  Al53  1  -0.00113753  0.50040723  0.66786407  1
  Al0+  Al54  1  0.50074470  -0.00146416  0.01207631  1
  Al0+  Al55  1  0.50098093  0.00103148  0.33409478  1
  Al0+  Al56  1  0.49767887  -0.00000281  0.66351295  1
  Al0+  Al57  1  0.50082343  0.49911526  0.00029671  1
  Al0+  Al58  1  0.49866658  0.49964369  0.33028579  1
  Al0+  Al59  1  0.49778089  0.50078698  0.66630167  1
  Al0+  Al60  1  0.25132006  0.25157818  0.00353101  1
  Al0+  Al61  1  0.24986370  0.25193334  0.33364854  1
  Al0+  Al62  1  0.24777182  0.24949942  0.66118814  1
  Al0+  Al63  1  0.25098006  0.75082915  0.00298750  1
  Al0+  Al64  1  0.25129062  0.74981737  0.33320837  1
  Al0+  Al65  1  0.24743021  0.74936572  0.66623947  1
  Al0+  Al66  1  0.75053399  0.25067053  0.00077279  1
  Al0+  Al67  1  0.74836238  0.24942357  0.32924866  1
  Al0+  Al68  1  0.74946434  0.25014353  0.67084532  1
  Al0+  Al69  1  0.75335420  0.74872414  -0.00663158  1
  Al0+  Al70  1  0.75071552  0.74912547  0.33203930  1
  Al0+  Al71  1  0.75053918  0.75033945  0.66708152  1
  Al0+  Al72  1  0.32003013  0.07084669  0.67875925  1
  Al0+  Al73  1  0.57035898  0.67922184  0.31915362  1
  Al0+  Al74  1  0.32087467  0.07245763  0.01510783  1
  Al0+  Al75  1  0.57293809  0.17815350  0.65385449  1
  Al0+  Al76  1  0.82054253  0.06972889  0.67990268  1
  Al0+  Al77  1  0.42778972  0.32205065  0.65107803  1
  Al0+  Al78  1  0.92976056  0.82189138  0.31906503  1
  Al0+  Al79  1  0.68216467  0.92779637  0.01315784  1
  Al0+  Al80  1  0.06864941  0.67909694  0.65435880  1
  Al0+  Al81  1  0.93068211  0.82100639  0.98370147  1
  Al0+  Al82  1  0.17950784  0.92970522  0.34792987  1
  Al0+  Al83  1  0.57187518  0.67935949  0.65165633  1
  Al0+  Al84  1  0.42815269  0.82222484  0.65293352  1
  Al0+  Al85  1  0.06992589  0.17855847  0.65320180  1
  Al0+  Al86  1  0.57141533  0.17846406  0.31753212  1
  Al0+  Al87  1  0.07353009  0.67751281  0.31735318  1
  Al0+  Al88  1  0.82278708  0.57367312  0.68214438  1
  Al0+  Al89  1  0.67842339  0.42953569  0.01626576  1
  Al0+  Al90  1  0.68046171  0.92743177  0.34841826  1
  Al0+  Al91  1  0.92702574  0.32119624  0.98481813  1
  Al0+  Al92  1  0.31908009  0.57114575  0.68042701  1
  Al0+  Al93  1  0.43006349  0.31863733  0.98674295  1
  Al0+  Al94  1  0.57018972  0.68002939  0.98582393  1
  Al0+  Al95  1  0.67746637  0.43039578  0.68136247  1
  Si0+  Si96  1  0.42762555  0.32164225  0.31539360  1
  Si0+  Si97  1  0.82448258  0.07218981  0.01647631  1
  Si0+  Si98  1  0.82172837  0.07500433  0.34861032  1
  Si0+  Si99  1  0.07219912  0.17939336  0.98450099  1
  Si0+  Si100  1  0.82430768  0.57077638  0.01837490  1
  Si0+  Si101  1  0.17699100  0.92722630  0.01692628  1
  Si0+  Si102  1  0.92744365  0.32152792  0.64970750  1
  Si0+  Si103  1  0.42582259  0.82315314  0.98584540  1
  Si0+  Si104  1  0.07470321  0.67756417  0.98292301  1
  Si0+  Si105  1  0.17681336  0.42873745  0.34861548  1
  Si0+  Si106  1  0.82105148  0.56890074  0.34609718  1
  Si0+  Si107  1  0.92737681  0.82350938  0.64916213  1
  Si0+  Si108  1  0.67817928  0.42800463  0.34735601  1
  Si0+  Si109  1  0.32087211  0.56946079  0.34771034  1
  Si0+  Si110  1  0.32157821  0.07411019  0.35241005  1
  Si0+  Si111  1  0.32159150  0.57173845  0.01617020  1
  Si0+  Si112  1  0.42797390  0.82308789  0.31619536  1
  Si0+  Si113  1  0.92909346  0.32082180  0.31924077  1
  Si0+  Si114  1  0.67611277  0.92789954  0.68240379  1
  Si0+  Si115  1  0.57147357  0.17465982  0.98524597  1
  Si0+  Si116  1  0.17705078  0.42660151  0.68384402  1
  Si0+  Si117  1  0.07247145  0.17985062  0.31752365  1
  Si0+  Si118  1  0.17844401  0.43036783  0.01509853  1
  Si0+  Si119  1  0.17718544  0.92770243  0.68437324  1
  O2-  O120  1  0.24639362  -0.00389885  0.06009390  1
  O2-  O121  1  0.25502681  0.00298495  0.39556818  1
  O2-  O122  1  0.24651159  -0.00397949  0.72840041  1
  O2-  O123  1  0.24787380  0.50267932  0.05844445  1
  O2-  O124  1  0.24604265  0.50150398  0.38918978  1
  O2-  O125  1  0.24654796  0.49418687  0.72847064  1
  O2-  O126  1  0.75644188  0.00361603  0.06123598  1
  O2-  O127  1  0.75487315  0.00426939  0.39204858  1
  O2-  O128  1  0.74492448  -0.00326466  0.72673381  1
  O2-  O129  1  0.75443881  0.50331189  0.06399972  1
  O2-  O130  1  0.74869521  0.49946910  0.38865886  1
  O2-  O131  1  0.74729146  0.50503004  0.73143133  1
  O2-  O132  1  -0.00013986  0.24950181  0.27607944  1
  O2-  O133  1  -0.00492869  0.25229283  0.60405566  1
  O2-  O134  1  -0.00095229  0.24300804  0.94036649  1
  O2-  O135  1  0.00359753  0.75135467  0.26808791  1
  O2-  O136  1  -0.00755779  0.75089154  0.60630853  1
  O2-  O137  1  0.00732820  0.74708494  0.93936542  1
  O2-  O138  1  0.49459116  0.25154658  0.27158453  1
  O2-  O139  1  0.50100385  0.25044884  0.60289496  1
  O2-  O140  1  0.50360691  0.24336869  0.94063400  1
  O2-  O141  1  0.49995467  0.75795027  0.27141144  1
  O2-  O142  1  0.50152624  0.75270050  0.60132415  1
  O2-  O143  1  0.49530789  0.75584509  0.94206024  1
  O2-  O144  1  0.07172339  0.18182321  0.09091387  1
  O2-  O145  1  0.07374597  0.18115390  0.42225669  1
  O2-  O146  1  0.06962935  0.18170152  0.76632998  1
  O2-  O147  1  0.07503396  0.67675037  0.08849921  1
  O2-  O148  1  0.07054234  0.67485083  0.43050925  1
  O2-  O149  1  0.06968625  0.68255350  0.76765508  1
  O2-  O150  1  0.56937086  0.17663706  0.09130759  1
  O2-  O151  1  0.57427452  0.18158194  0.43003251  1
  O2-  O152  1  0.57134106  0.17674929  0.76750887  1
  O2-  O153  1  0.56845243  0.68013057  0.09957390  1
  O2-  O154  1  0.56844536  0.67551442  0.43142384  1
  O2-  O155  1  0.56933014  0.68019680  0.76525822  1
  O2-  O156  1  0.17657956  0.42642964  0.24323299  1
  O2-  O157  1  0.17647995  0.42798971  0.57766736  1
  O2-  O158  1  0.17780219  0.42897871  0.91065276  1
  O2-  O159  1  0.18051392  0.93427070  0.23437657  1
  O2-  O160  1  0.17715492  0.92914664  0.57854397  1
  O2-  O161  1  0.17560849  0.92530567  0.91189586  1
  O2-  O162  1  0.67969521  0.42770074  0.24203788  1
  O2-  O163  1  0.68131360  0.42949739  0.56676498  1
  O2-  O164  1  0.67678959  0.43040201  0.90412330  1
  O2-  O165  1  0.68426486  0.92683910  0.23512041  1
  O2-  O166  1  0.67812883  0.92760946  0.57662646  1
  O2-  O167  1  0.68137169  0.92996329  0.90024556  1
  O2-  O168  1  0.42980041  0.31787975  0.10046304  1
  O2-  O169  1  0.42610287  0.32393495  0.42021015  1
  O2-  O170  1  0.42784325  0.31986932  0.76486177  1
  O2-  O171  1  0.42141025  0.81965952  0.09152235  1
  O2-  O172  1  0.42626652  0.82015815  0.42137007  1
  O2-  O173  1  0.43069020  0.82287879  0.76704286  1
  O2-  O174  1  0.93082788  0.32051053  0.09905078  1
  O2-  O175  1  0.93015937  0.32181538  0.42390508  1
  O2-  O176  1  0.92959401  0.32029704  0.75521757  1
  O2-  O177  1  0.93188333  0.82044568  0.09679871  1
  O2-  O178  1  0.92987848  0.81932629  0.43229188  1
  O2-  O179  1  0.93061588  0.82563481  0.75492248  1
  O2-  O180  1  0.31785938  0.07601251  0.24631310  1
  O2-  O181  1  0.31713164  0.06984972  0.56573062  1
  O2-  O182  1  0.31983981  0.07415221  0.90226467  1
  O2-  O183  1  0.32163967  0.56627933  0.24208838  1
  O2-  O184  1  0.31684493  0.57023978  0.56683609  1
  O2-  O185  1  0.32032618  0.57250659  0.91157001  1
  O2-  O186  1  0.82110028  0.07940093  0.24303782  1
  O2-  O187  1  0.82221874  0.06690376  0.56646276  1
  O2-  O188  1  0.82458338  0.07152290  0.91109075  1
  O2-  O189  1  0.82226059  0.56595198  0.24095144  1
  O2-  O190  1  0.82488615  0.56959004  0.56759012  1
  O2-  O191  1  0.82638873  0.56831509  0.91339272  1
  O2-  O192  1  0.04661659  0.08870843  0.26849426  1
  O2-  O193  1  0.03828269  0.08244507  0.59854772  1
  O2-  O194  1  0.05462416  0.08419475  0.93966200  1
  O2-  O195  1  0.04468657  0.57855725  0.26396663  1
  O2-  O196  1  0.04265929  0.58068127  0.60064891  1
  O2-  O197  1  0.05005960  0.58394200  0.93713337  1
  O2-  O198  1  0.54184112  0.08114441  0.26395703  1
  O2-  O199  1  0.54312967  0.08142982  0.59865669  1
  O2-  O200  1  0.54588857  0.07966955  0.94336177  1
  O2-  O201  1  0.53509590  0.58371419  0.26376885  1
  O2-  O202  1  0.54044772  0.58228329  0.59867660  1
  O2-  O203  1  0.53585703  0.58418625  0.93424045  1
  O2-  O204  1  0.16323494  0.21109932  0.26899428  1
  O2-  O205  1  0.16331186  0.21034355  0.59412557  1
  O2-  O206  1  0.16367268  0.21230215  0.93972004  1
  O2-  O207  1  0.17316208  0.70318361  0.26545768  1
  O2-  O208  1  0.16382665  0.71064804  0.59890222  1
  O2-  O209  1  0.16964228  0.70263927  0.93892361  1
  O2-  O210  1  0.66681513  0.21082177  0.26110023  1
  O2-  O211  1  0.67128271  0.20730996  0.60006243  1
  O2-  O212  1  0.66671339  0.19806836  0.94283315  1
  O2-  O213  1  0.66800817  0.70613230  0.26544455  1
  O2-  O214  1  0.67173180  0.70507804  0.59993613  1
  O2-  O215  1  0.66706686  0.70745864  0.93252468  1
  O2-  O216  1  0.08621775  0.45723633  0.06384293  1
  O2-  O217  1  0.08414195  0.45280452  0.39619736  1
  O2-  O218  1  0.08396412  0.45297822  0.73034117  1
  O2-  O219  1  0.08403174  0.95523530  0.06403899  1
  O2-  O220  1  0.08297285  0.96173164  0.40149729  1
  O2-  O221  1  0.08387214  0.95518821  0.72969430  1
  O2-  O222  1  0.58241604  0.46176760  0.07210837  1
  O2-  O223  1  0.58507841  0.45464833  0.39172833  1
  O2-  O224  1  0.57868447  0.45717429  0.73348730  1
  O2-  O225  1  0.58623222  0.95392473  0.07189713  1
  O2-  O226  1  0.58228790  0.95678048  0.39978970  1
  O2-  O227  1  0.58265474  0.95346015  0.72777014  1
  O2-  O228  1  0.20731332  0.34025319  0.06623496  1
  O2-  O229  1  0.20591596  0.33733351  0.39693652  1
  O2-  O230  1  0.19993494  0.33206084  0.72813660  1
  O2-  O231  1  0.20233827  0.83396674  0.06527051  1
  O2-  O232  1  0.20838036  0.83135440  0.39989379  1
  O2-  O233  1  0.20062304  0.83417978  0.73042095  1
  O2-  O234  1  0.70982089  0.33197580  0.07016776  1
  O2-  O235  1  0.70826887  0.33651099  0.39374307  1
  O2-  O236  1  0.70778866  0.33322904  0.73547718  1
  O2-  O237  1  0.71752935  0.83089595  0.06503136  1
  O2-  O238  1  0.71199199  0.83080044  0.40233385  1
  O2-  O239  1  0.70263395  0.83493175  0.72890513  1
  O2-  O240  1  0.45453403  0.41406893  0.26720812  1
  O2-  O241  1  0.45447924  0.42029192  0.59789507  1
  O2-  O242  1  0.45983910  0.41583998  0.93511222  1
  O2-  O243  1  0.44785761  0.91891336  0.27285868  1
  O2-  O244  1  0.45198336  0.92004841  0.59728186  1
  O2-  O245  1  0.45195442  0.91847415  0.94476052  1
  O2-  O246  1  0.95873968  0.41068888  0.26872856  1
  O2-  O247  1  0.95505857  0.41432239  0.60336718  1
  O2-  O248  1  0.96193932  0.41589748  0.93070483  1
  O2-  O249  1  0.95656544  0.92151365  0.26600463  1
  O2-  O250  1  0.95630835  0.91524290  0.60187525  1
  O2-  O251  1  0.96019352  0.91820032  0.92942475  1
  O2-  O252  1  0.33255859  0.29757059  0.26938538  1
  O2-  O253  1  0.32947168  0.29491289  0.59729467  1
  O2-  O254  1  0.33142669  0.29210876  0.93516591  1
  O2-  O255  1  0.33622480  0.79347108  0.26799926  1
  O2-  O256  1  0.32981076  0.79194850  0.60128199  1
  O2-  O257  1  0.33229252  0.79844555  0.93896478  1
  O2-  O258  1  0.83789833  0.29349185  0.27028171  1
  O2-  O259  1  0.83428282  0.29571886  0.60402456  1
  O2-  O260  1  0.82999409  0.29306546  0.93148232  1
  O2-  O261  1  0.83364462  0.78825987  0.26450294  1
  O2-  O262  1  0.83235088  0.80257317  0.60527212  1
  O2-  O263  1  0.83680171  0.78892480  0.92676388  1
  O2-  O264  1  0.41528568  0.04203901  0.07391759  1
  O2-  O265  1  0.41691590  0.05197478  0.39468217  1
  O2-  O266  1  0.41672477  0.04159123  0.73368095  1
  O2-  O267  1  0.41097848  0.53952095  0.06549664  1
  O2-  O268  1  0.41101420  0.53673406  0.39562426  1
  O2-  O269  1  0.41513544  0.54212115  0.73535391  1
  O2-  O270  1  0.91995189  0.04816587  0.06079997  1
  O2-  O271  1  0.91733478  0.05287557  0.39210161  1
  O2-  O272  1  0.91667085  0.03934219  0.73606072  1
  O2-  O273  1  0.91811950  0.54312851  0.06458989  1
  O2-  O274  1  0.91293429  0.53850193  0.39300387  1
  O2-  O275  1  0.91996062  0.54241431  0.73659052  1
  O2-  O276  1  0.28676290  0.16752668  0.07200752  1
  O2-  O277  1  0.29271633  0.16775114  0.39673199  1
  O2-  O278  1  0.28569761  0.16746741  0.73133015  1
  O2-  O279  1  0.29572830  0.66382035  0.06541621  1
  O2-  O280  1  0.29770627  0.66240559  0.39373549  1
  O2-  O281  1  0.28480421  0.66618386  0.73628210  1
  O2-  O282  1  0.80084842  0.16638696  0.06257748  1
  O2-  O283  1  0.79391440  0.16783094  0.39615190  1
  O2-  O284  1  0.79406905  0.16679136  0.73457066  1
  O2-  O285  1  0.79910308  0.66537261  0.06163228  1
  O2-  O286  1  0.79555519  0.66065476  0.39311470  1
  O2-  O287  1  0.80100842  0.67425975  0.73311619  1
