# generated using pymatgen
data_Ca2Al2SiO7
_symmetry_space_group_name_H-M   'P 1'
_cell_length_a   15.46815413
_cell_length_b   15.47065841
_cell_length_c   15.29265324
_cell_angle_alpha   90.00109157
_cell_angle_beta   89.98791978
_cell_angle_gamma   90.01268881
_symmetry_Int_Tables_number   1
_chemical_formula_structural   Ca2Al2SiO7
_chemical_formula_sum   'Ca48 Al48 Si24 O168'
_cell_volume   3659.57041902
_cell_formula_units_Z   24
loop_
 _symmetry_equiv_pos_site_id
 _symmetry_equiv_pos_as_xyz
  1  'x, y, z'
loop_
 _atom_type_symbol
 _atom_type_oxidation_number
  Ca2+  2.0
  Al0+  0.0
  Si0+  0.0
  O2-  -2.0
loop_
 _atom_site_type_symbol
 _atom_site_label
 _atom_site_symmetry_multiplicity
 _atom_site_fract_x
 _atom_site_fract_y
 _atom_site_fract_z
 _atom_site_occupancy
  Ca2+  Ca0  1  0.17019261  0.07714380  0.17919008  1
  Ca2+  Ca1  1  0.16890389  0.08444745  0.49325096  1
  Ca2+  Ca2  1  0.16752949  0.08180163  0.83705174  1
  Ca2+  Ca3  1  0.17785971  0.58898626  0.17469860  1
  Ca2+  Ca4  1  0.17800181  0.58258792  0.50250568  1
  Ca2+  Ca5  1  0.17864335  0.57666544  0.83368021  1
  Ca2+  Ca6  1  0.67076306  0.07688162  0.17343671  1
  Ca2+  Ca7  1  0.65717957  0.07336925  0.49734350  1
  Ca2+  Ca8  1  0.67292062  0.08015073  0.84032311  1
  Ca2+  Ca9  1  0.67529176  0.57699617  0.17371087  1
  Ca2+  Ca10  1  0.66746814  0.57763765  0.50181863  1
  Ca2+  Ca11  1  0.66839052  0.57717450  0.83410767  1
  Ca2+  Ca12  1  0.07700173  0.33075958  0.17017810  1
  Ca2+  Ca13  1  0.07841314  0.33655335  0.48876123  1
  Ca2+  Ca14  1  0.08356881  0.33607834  0.82677986  1
  Ca2+  Ca15  1  0.08337727  0.82688592  0.16753473  1
  Ca2+  Ca16  1  0.08256094  0.82563701  0.48895568  1
  Ca2+  Ca17  1  0.07559774  0.82879346  0.83328016  1
  Ca2+  Ca18  1  0.57501725  0.34841405  0.16603697  1
  Ca2+  Ca19  1  0.57574044  0.34399351  0.49507482  1
  Ca2+  Ca20  1  0.57703147  0.34711896  0.83157354  1
  Ca2+  Ca21  1  0.58489081  0.82895560  0.17077962  1
  Ca2+  Ca22  1  0.58036503  0.81927516  0.48873943  1
  Ca2+  Ca23  1  0.58173243  0.82195616  0.82499551  1
  Ca2+  Ca24  1  0.33921437  0.42452229  0.17209451  1
  Ca2+  Ca25  1  0.33623048  0.42463276  0.50479096  1
  Ca2+  Ca26  1  0.34020137  0.42373978  0.83448354  1
  Ca2+  Ca27  1  0.33007548  0.92264375  0.18475067  1
  Ca2+  Ca28  1  0.33395592  0.91647000  0.49361837  1
  Ca2+  Ca29  1  0.33152191  0.91936942  0.83817658  1
  Ca2+  Ca30  1  0.82406903  0.42166299  0.17807092  1
  Ca2+  Ca31  1  0.82667008  0.42468097  0.50371748  1
  Ca2+  Ca32  1  0.82115067  0.42882799  0.84195811  1
  Ca2+  Ca33  1  0.83327665  0.91856774  0.16992057  1
  Ca2+  Ca34  1  0.82554185  0.91331318  0.49706904  1
  Ca2+  Ca35  1  0.83406902  0.92050747  0.84347638  1
  Ca2+  Ca36  1  0.41280749  0.17897613  0.16557941  1
  Ca2+  Ca37  1  0.41279999  0.18062210  0.49118952  1
  Ca2+  Ca38  1  0.42006115  0.18128207  0.82838035  1
  Ca2+  Ca39  1  0.42058436  0.66207348  0.16868854  1
  Ca2+  Ca40  1  0.42550469  0.66156967  0.49029953  1
  Ca2+  Ca41  1  0.42115737  0.65777229  0.82716212  1
  Ca2+  Ca42  1  0.91672005  0.16833476  0.16646260  1
  Ca2+  Ca43  1  0.92483721  0.17835756  0.48762318  1
  Ca2+  Ca44  1  0.91518164  0.16731703  0.83089489  1
  Ca2+  Ca45  1  0.91844553  0.66464520  0.16348563  1
  Ca2+  Ca46  1  0.92215041  0.65719690  0.49052513  1
  Ca2+  Ca47  1  0.90516640  0.66871419  0.83138561  1
  Al0+  Al48  1  -0.00026030  -0.00152656  -0.00109232  1
  Al0+  Al49  1  0.00109169  -0.00019899  0.33521942  1
  Al0+  Al50  1  0.00010093  -0.00064914  0.66584517  1
  Al0+  Al51  1  0.00282044  0.49875677  -0.00042126  1
  Al0+  Al52  1  0.00087838  0.50037910  0.32373091  1
  Al0+  Al53  1  0.00081767  0.50172427  0.67433174  1
  Al0+  Al54  1  0.49977181  0.00139028  -0.00182178  1
  Al0+  Al55  1  0.49982329  0.00127879  0.33910798  1
  Al0+  Al56  1  0.49873223  0.00054356  0.66958096  1
  Al0+  Al57  1  0.49890755  0.50167735  0.00211830  1
  Al0+  Al58  1  0.50164029  0.50135121  0.33127827  1
  Al0+  Al59  1  0.50117794  0.50086233  0.66436938  1
  Al0+  Al60  1  0.25017792  0.24963237  -0.00614964  1
  Al0+  Al61  1  0.24950998  0.24934185  0.32708400  1
  Al0+  Al62  1  0.24983575  0.24718317  0.66632935  1
  Al0+  Al63  1  0.24894489  0.74967361  0.00027049  1
  Al0+  Al64  1  0.24940262  0.75121580  0.33472307  1
  Al0+  Al65  1  0.24720138  0.75250611  0.67240341  1
  Al0+  Al66  1  0.74947811  0.24755200  0.00713827  1
  Al0+  Al67  1  0.74864635  0.25065744  0.33445621  1
  Al0+  Al68  1  0.75012317  0.24769878  0.66847809  1
  Al0+  Al69  1  0.74924639  0.74971028  -0.00225914  1
  Al0+  Al70  1  0.75076975  0.75081248  0.33654593  1
  Al0+  Al71  1  0.74785787  0.75245096  0.66474008  1
  Al0+  Al72  1  0.57313132  0.67867416  0.31545050  1
  Al0+  Al73  1  0.43044178  0.32132733  0.31938070  1
  Al0+  Al74  1  0.32150490  0.57129222  0.68020781  1
  Al0+  Al75  1  0.17808274  0.92837431  0.34912450  1
  Al0+  Al76  1  0.42973121  0.82110063  0.31959571  1
  Al0+  Al77  1  0.07059199  0.17819631  0.31750704  1
  Al0+  Al78  1  0.17885779  0.42615281  0.67930667  1
  Al0+  Al79  1  0.32156055  0.07402433  0.34840414  1
  Al0+  Al80  1  0.82196572  0.57313144  0.68185752  1
  Al0+  Al81  1  0.92678648  0.32221008  0.31794079  1
  Al0+  Al82  1  0.67893004  0.42958454  0.01650473  1
  Al0+  Al83  1  0.82249302  0.57310196  0.01599449  1
  Al0+  Al84  1  0.67851560  0.42859600  0.35001605  1
  Al0+  Al85  1  0.67932136  0.42709432  0.68205865  1
  Al0+  Al86  1  0.82375933  0.57105535  0.34733724  1
  Al0+  Al87  1  0.07163685  0.67871471  0.32070150  1
  Al0+  Al88  1  0.43085198  0.31941411  0.65221530  1
  Al0+  Al89  1  0.32078195  0.57077796  0.34608140  1
  Al0+  Al90  1  0.31888106  0.57023460  0.01528638  1
  Al0+  Al91  1  0.67923808  0.92938357  0.34688622  1
  Al0+  Al92  1  0.43127912  0.32105744  0.98472380  1
  Al0+  Al93  1  0.93039413  0.81787256  0.98716938  1
  Al0+  Al94  1  0.56918823  0.68067407  0.65218690  1
  Al0+  Al95  1  0.82204476  0.06957747  0.01408820  1
  Si0+  Si96  1  0.57228284  0.17633888  0.31709237  1
  Si0+  Si97  1  0.92755398  0.82257229  0.31814515  1
  Si0+  Si98  1  0.57371042  0.17467233  0.64985016  1
  Si0+  Si99  1  0.07057779  0.68007712  0.65314061  1
  Si0+  Si100  1  0.07043860  0.17666197  0.65160408  1
  Si0+  Si101  1  0.56845063  0.68179330  0.98420502  1
  Si0+  Si102  1  0.17888991  0.42791442  0.34522730  1
  Si0+  Si103  1  0.92989206  0.32107798  0.65520799  1
  Si0+  Si104  1  0.57333323  0.17487207  0.98295520  1
  Si0+  Si105  1  0.82277790  0.07243538  0.35145033  1
  Si0+  Si106  1  0.32070343  0.07115052  0.01309155  1
  Si0+  Si107  1  0.67818125  0.93009691  0.68266462  1
  Si0+  Si108  1  0.06885424  0.17900528  0.98304462  1
  Si0+  Si109  1  0.32051782  0.07066881  0.68418905  1
  Si0+  Si110  1  0.17812536  0.42400565  0.01788598  1
  Si0+  Si111  1  0.82253576  0.06835367  0.68088976  1
  Si0+  Si112  1  0.17642798  0.93010919  0.68495241  1
  Si0+  Si113  1  0.67647251  0.92769795  0.01524791  1
  Si0+  Si114  1  0.42661678  0.82435486  0.98534677  1
  Si0+  Si115  1  0.42481262  0.82488451  0.65128411  1
  Si0+  Si116  1  0.07526829  0.67605957  0.97996155  1
  Si0+  Si117  1  0.92900065  0.82227302  0.65113549  1
  Si0+  Si118  1  0.17972459  0.93030604  0.01400742  1
  Si0+  Si119  1  0.92695768  0.32058978  0.98392333  1
  O2-  O120  1  0.25504480  -0.00383500  0.05535030  1
  O2-  O121  1  0.25060493  0.00047936  0.39857664  1
  O2-  O122  1  0.25035595  -0.00158203  0.72692168  1
  O2-  O123  1  0.24332279  0.49594627  0.06098849  1
  O2-  O124  1  0.24740594  0.49459011  0.39170376  1
  O2-  O125  1  0.25324335  0.49522007  0.73036718  1
  O2-  O126  1  0.74523846  -0.00350183  0.05845316  1
  O2-  O127  1  0.75274362  0.00518739  0.39583703  1
  O2-  O128  1  0.74946935  0.00047967  0.72496975  1
  O2-  O129  1  0.75622729  0.49627368  0.06514489  1
  O2-  O130  1  0.75215404  0.49977270  0.39818395  1
  O2-  O131  1  0.75137957  0.49963907  0.73113803  1
  O2-  O132  1  -0.00384201  0.24708933  0.26739342  1
  O2-  O133  1  0.00459256  0.25337454  0.61239576  1
  O2-  O134  1  -0.00054128  0.25091907  0.93957921  1
  O2-  O135  1  -0.00540329  0.75209289  0.27528274  1
  O2-  O136  1  -0.00493566  0.74665349  0.61066753  1
  O2-  O137  1  -0.00012823  0.73926472  0.93713292  1
  O2-  O138  1  0.50636599  0.24705898  0.27252478  1
  O2-  O139  1  0.50855921  0.24652083  0.60681577  1
  O2-  O140  1  0.50867846  0.24749607  0.93919599  1
  O2-  O141  1  0.50007954  0.75053628  0.26570274  1
  O2-  O142  1  0.48948848  0.75255274  0.60910755  1
  O2-  O143  1  0.49661832  0.75331416  0.94211456  1
  O2-  O144  1  0.06950336  0.17729061  0.08715818  1
  O2-  O145  1  0.06902820  0.18031170  0.43176107  1
  O2-  O146  1  0.06727190  0.17173725  0.75716144  1
  O2-  O147  1  0.08052900  0.68114654  0.08488585  1
  O2-  O148  1  0.07130095  0.67959285  0.43443562  1
  O2-  O149  1  0.07316011  0.68475754  0.75812507  1
  O2-  O150  1  0.56925111  0.16469753  0.08726938  1
  O2-  O151  1  0.57027185  0.17507511  0.42288251  1
  O2-  O152  1  0.57166863  0.16770562  0.75530919  1
  O2-  O153  1  0.56921142  0.68385213  0.08852577  1
  O2-  O154  1  0.57210262  0.67975287  0.42910843  1
  O2-  O155  1  0.56960560  0.68419789  0.76625560  1
  O2-  O156  1  0.18062029  0.42872979  0.23949712  1
  O2-  O157  1  0.17599617  0.42782905  0.56614855  1
  O2-  O158  1  0.17911433  0.42257511  0.91206922  1
  O2-  O159  1  0.17831908  0.92991789  0.23495499  1
  O2-  O160  1  0.17232881  0.93022366  0.58096662  1
  O2-  O161  1  0.17976020  0.93288905  0.90806317  1
  O2-  O162  1  0.67904141  0.43039021  0.23662837  1
  O2-  O163  1  0.68180852  0.42573543  0.56941546  1
  O2-  O164  1  0.67874470  0.43252863  0.90263823  1
  O2-  O165  1  0.68153828  0.93165601  0.23361057  1
  O2-  O166  1  0.67844673  0.93104966  0.57812313  1
  O2-  O167  1  0.67649377  0.92943717  0.90896782  1
  O2-  O168  1  0.42897723  0.31826122  0.09723251  1
  O2-  O169  1  0.42943697  0.32049065  0.43253502  1
  O2-  O170  1  0.43141165  0.31672444  0.76568930  1
  O2-  O171  1  0.42645604  0.82870728  0.08924490  1
  O2-  O172  1  0.43157604  0.81977611  0.43352046  1
  O2-  O173  1  0.42802294  0.82916940  0.75761247  1
  O2-  O174  1  0.92879041  0.31785987  0.08822973  1
  O2-  O175  1  0.93025021  0.32167097  0.43249271  1
  O2-  O176  1  0.93001986  0.31580008  0.76054760  1
  O2-  O177  1  0.93460099  0.82161313  0.09938967  1
  O2-  O178  1  0.92913091  0.82421095  0.42424887  1
  O2-  O179  1  0.93148260  0.82653249  0.75638572  1
  O2-  O180  1  0.31969933  0.07276717  0.23411989  1
  O2-  O181  1  0.32035505  0.07140089  0.57995782  1
  O2-  O182  1  0.31820303  0.06961197  0.90736458  1
  O2-  O183  1  0.31917673  0.56970976  0.23280689  1
  O2-  O184  1  0.31880121  0.57347962  0.56721628  1
  O2-  O185  1  0.31940267  0.57018714  0.90196623  1
  O2-  O186  1  0.82311408  0.06934421  0.24580557  1
  O2-  O187  1  0.82580202  0.06591662  0.57663883  1
  O2-  O188  1  0.82215333  0.06708149  0.90004249  1
  O2-  O189  1  0.82326698  0.57036485  0.23389137  1
  O2-  O190  1  0.82646621  0.57097872  0.56923754  1
  O2-  O191  1  0.81657051  0.57412665  0.90228810  1
  O2-  O192  1  0.04342125  0.07863183  0.26602194  1
  O2-  O193  1  0.03681164  0.08729000  0.60301955  1
  O2-  O194  1  0.03934531  0.08785128  0.93384360  1
  O2-  O195  1  0.04582055  0.58435931  0.26080918  1
  O2-  O196  1  0.04731244  0.58626183  0.60857723  1
  O2-  O197  1  0.05824559  0.57928592  0.93706128  1
  O2-  O198  1  0.54571427  0.08334154  0.27074688  1
  O2-  O199  1  0.54311450  0.08201098  0.60328384  1
  O2-  O200  1  0.54401315  0.08348927  0.93112728  1
  O2-  O201  1  0.54295100  0.58210156  0.26155432  1
  O2-  O202  1  0.54252764  0.58403041  0.59827682  1
  O2-  O203  1  0.53767419  0.59098578  0.93704089  1
  O2-  O204  1  0.16702065  0.20629693  0.26125771  1
  O2-  O205  1  0.16451272  0.19638914  0.60677734  1
  O2-  O206  1  0.16078674  0.20503015  0.93338642  1
  O2-  O207  1  0.16536028  0.71490287  0.26474833  1
  O2-  O208  1  0.16093441  0.71377513  0.60612902  1
  O2-  O209  1  0.16506209  0.71125295  0.93022307  1
  O2-  O210  1  0.66773799  0.19634905  0.27293746  1
  O2-  O211  1  0.66981680  0.19320245  0.60606759  1
  O2-  O212  1  0.66962431  0.19580328  0.93983622  1
  O2-  O213  1  0.67119045  0.71217682  0.26465689  1
  O2-  O214  1  0.66396946  0.71732175  0.59821883  1
  O2-  O215  1  0.65915863  0.71082736  0.93470966  1
  O2-  O216  1  0.08263575  0.44459429  0.06140648  1
  O2-  O217  1  0.08485406  0.45397396  0.38886926  1
  O2-  O218  1  0.08336967  0.45721180  0.73779912  1
  O2-  O219  1  0.09018855  0.96303245  0.06056656  1
  O2-  O220  1  0.08022865  0.95690269  0.40399742  1
  O2-  O221  1  0.08632562  0.96327908  0.73421354  1
  O2-  O222  1  0.58242259  0.46410271  0.06764596  1
  O2-  O223  1  0.58138389  0.46119675  0.40184413  1
  O2-  O224  1  0.58172547  0.45935519  0.73368385  1
  O2-  O225  1  0.58267639  0.95373219  0.06023015  1
  O2-  O226  1  0.58479870  0.96060530  0.40460607  1
  O2-  O227  1  0.58638477  0.95715698  0.73144292  1
  O2-  O228  1  0.20603571  0.33023774  0.06181767  1
  O2-  O229  1  0.20090412  0.33327608  0.38965472  1
  O2-  O230  1  0.20107097  0.32514393  0.73162085  1
  O2-  O231  1  0.20192360  0.83675374  0.05860241  1
  O2-  O232  1  0.20758897  0.83203447  0.40470427  1
  O2-  O233  1  0.20128650  0.83922967  0.73583836  1
  O2-  O234  1  0.69822585  0.32794030  0.06573768  1
  O2-  O235  1  0.70160407  0.32801529  0.40141087  1
  O2-  O236  1  0.70483922  0.32664348  0.73452774  1
  O2-  O237  1  0.70300439  0.83501957  0.06009014  1
  O2-  O238  1  0.71224541  0.83552679  0.40434884  1
  O2-  O239  1  0.70703937  0.83963478  0.73142939  1
  O2-  O240  1  0.46175363  0.41682342  0.26447440  1
  O2-  O241  1  0.45815324  0.41683822  0.59979929  1
  O2-  O242  1  0.46191582  0.41862412  0.93192409  1
  O2-  O243  1  0.45784102  0.92150337  0.26978271  1
  O2-  O244  1  0.45349677  0.91787868  0.60594667  1
  O2-  O245  1  0.45395851  0.91599857  0.93496025  1
  O2-  O246  1  0.95911158  0.41630881  0.25963115  1
  O2-  O247  1  0.95565592  0.41452443  0.61126259  1
  O2-  O248  1  0.95418231  0.41301387  0.93650235  1
  O2-  O249  1  0.95472611  0.91559124  0.27210095  1
  O2-  O250  1  0.96234747  0.91185994  0.60268622  1
  O2-  O251  1  0.96612824  0.91327603  0.93029571  1
  O2-  O252  1  0.33516074  0.28947684  0.26353818  1
  O2-  O253  1  0.33403680  0.28453668  0.60074833  1
  O2-  O254  1  0.33558379  0.28655204  0.92929538  1
  O2-  O255  1  0.33040064  0.79603240  0.26805462  1
  O2-  O256  1  0.32769193  0.80585468  0.61088941  1
  O2-  O257  1  0.33397104  0.79804252  0.93753447  1
  O2-  O258  1  0.82809128  0.29335514  0.26608463  1
  O2-  O259  1  0.83961658  0.28901222  0.60757373  1
  O2-  O260  1  0.83528879  0.28923595  0.93788222  1
  O2-  O261  1  0.83364436  0.80109110  0.27243006  1
  O2-  O262  1  0.83479736  0.80228049  0.60611888  1
  O2-  O263  1  0.83178745  0.79406376  0.93134834  1
  O2-  O264  1  0.41440479  0.04867821  0.05771774  1
  O2-  O265  1  0.41886033  0.04821975  0.40396766  1
  O2-  O266  1  0.41206593  0.04306780  0.73343233  1
  O2-  O267  1  0.41478768  0.53958795  0.06843797  1
  O2-  O268  1  0.41730793  0.54027332  0.39816053  1
  O2-  O269  1  0.41987065  0.54358618  0.73270854  1
  O2-  O270  1  0.91760157  0.03556894  0.06724502  1
  O2-  O271  1  0.91526613  0.04516115  0.39847398  1
  O2-  O272  1  0.91293331  0.03736188  0.73070469  1
  O2-  O273  1  0.92615854  0.55271123  0.06036582  1
  O2-  O274  1  0.92381834  0.54120671  0.39651518  1
  O2-  O275  1  0.92021422  0.54884427  0.73756952  1
  O2-  O276  1  0.28839717  0.16184294  0.05834870  1
  O2-  O277  1  0.28739746  0.17094023  0.40137828  1
  O2-  O278  1  0.28987741  0.16019762  0.73427713  1
  O2-  O279  1  0.28950815  0.66866994  0.06654692  1
  O2-  O280  1  0.28866483  0.66609262  0.40001301  1
  O2-  O281  1  0.29098631  0.66968504  0.73475126  1
  O2-  O282  1  0.79466381  0.16478986  0.07041038  1
  O2-  O283  1  0.79924359  0.16634559  0.39674362  1
  O2-  O284  1  0.79746022  0.16031138  0.72941501  1
  O2-  O285  1  0.79152397  0.67156370  0.06653879  1
  O2-  O286  1  0.80004443  0.67073497  0.39912755  1
  O2-  O287  1  0.79110023  0.67312900  0.73176611  1
