# generated using pymatgen
data_Ca2Al2SiO7
_symmetry_space_group_name_H-M   'P 1'
_cell_length_a   15.45869869
_cell_length_b   15.45895997
_cell_length_c   15.28439016
_cell_angle_alpha   89.99152611
_cell_angle_beta   90.00454976
_cell_angle_gamma   90.01046792
_symmetry_Int_Tables_number   1
_chemical_formula_structural   Ca2Al2SiO7
_chemical_formula_sum   'Ca48 Al48 Si24 O168'
_cell_volume   3652.59320430
_cell_formula_units_Z   24
loop_
 _symmetry_equiv_pos_site_id
 _symmetry_equiv_pos_as_xyz
  1  'x, y, z'
loop_
 _atom_type_symbol
 _atom_type_oxidation_number
  Ca2+  2.0
  Al0+  0.0
  Si0+  0.0
  O2-  -2.0
loop_
 _atom_site_type_symbol
 _atom_site_label
 _atom_site_symmetry_multiplicity
 _atom_site_fract_x
 _atom_site_fract_y
 _atom_site_fract_z
 _atom_site_occupancy
  Ca2+  Ca0  1  0.16818025  0.07205424  0.17607847  1
  Ca2+  Ca1  1  0.17818963  0.08057723  0.51089558  1
  Ca2+  Ca2  1  0.16626006  0.07708646  0.83301052  1
  Ca2+  Ca3  1  0.17778920  0.57520322  0.16706645  1
  Ca2+  Ca4  1  0.17122220  0.57837977  0.50674095  1
  Ca2+  Ca5  1  0.16390645  0.57437756  0.83722408  1
  Ca2+  Ca6  1  0.67294523  0.09014100  0.17199275  1
  Ca2+  Ca7  1  0.66683169  0.09039272  0.50260285  1
  Ca2+  Ca8  1  0.67037468  0.09081878  0.83850578  1
  Ca2+  Ca9  1  0.67410837  0.58322900  0.16963289  1
  Ca2+  Ca10  1  0.66532172  0.57508313  0.51043265  1
  Ca2+  Ca11  1  0.66848048  0.57725718  0.83523650  1
  Ca2+  Ca12  1  0.07823577  0.33179702  0.15825472  1
  Ca2+  Ca13  1  0.08383734  0.33084928  0.50295589  1
  Ca2+  Ca14  1  0.07549739  0.33787651  0.82446403  1
  Ca2+  Ca15  1  0.08836242  0.83670164  0.16272634  1
  Ca2+  Ca16  1  0.09551082  0.83111339  0.49954312  1
  Ca2+  Ca17  1  0.09022851  0.82903314  0.82535014  1
  Ca2+  Ca18  1  0.57598810  0.32267319  0.16526749  1
  Ca2+  Ca19  1  0.57880844  0.32492875  0.49556142  1
  Ca2+  Ca20  1  0.58545041  0.32413960  0.82665361  1
  Ca2+  Ca21  1  0.58368374  0.83718644  0.16499464  1
  Ca2+  Ca22  1  0.57862549  0.83252165  0.49889412  1
  Ca2+  Ca23  1  0.57437116  0.82405012  0.82055588  1
  Ca2+  Ca24  1  0.33872363  0.42367096  0.17097208  1
  Ca2+  Ca25  1  0.33606180  0.41953924  0.50556532  1
  Ca2+  Ca26  1  0.31868551  0.42048331  0.83940218  1
  Ca2+  Ca27  1  0.32301936  0.92201139  0.17309849  1
  Ca2+  Ca28  1  0.33003144  0.92623813  0.50602295  1
  Ca2+  Ca29  1  0.32742091  0.91743164  0.83035567  1
  Ca2+  Ca30  1  0.83663721  0.41873570  0.16386160  1
  Ca2+  Ca31  1  0.82640509  0.41167346  0.50966134  1
  Ca2+  Ca32  1  0.83340169  0.41470362  0.83595582  1
  Ca2+  Ca33  1  0.82696006  0.93300837  0.17523710  1
  Ca2+  Ca34  1  0.82671832  0.92304743  0.49835955  1
  Ca2+  Ca35  1  0.83178891  0.92589810  0.83956438  1
  Ca2+  Ca36  1  0.42567786  0.15857859  0.16691692  1
  Ca2+  Ca37  1  0.42121782  0.16512260  0.49202848  1
  Ca2+  Ca38  1  0.42712058  0.16118584  0.82529164  1
  Ca2+  Ca39  1  0.41167028  0.66452888  0.16310790  1
  Ca2+  Ca40  1  0.41543553  0.67047816  0.49791132  1
  Ca2+  Ca41  1  0.41471917  0.67182036  0.82501852  1
  Ca2+  Ca42  1  0.91246861  0.16901362  0.15886760  1
  Ca2+  Ca43  1  0.92123677  0.16713289  0.50091653  1
  Ca2+  Ca44  1  0.92210823  0.17583042  0.82757320  1
  Ca2+  Ca45  1  0.91725714  0.67006350  0.15912107  1
  Ca2+  Ca46  1  0.92619358  0.66759682  0.49944587  1
  Ca2+  Ca47  1  0.92119262  0.66745420  0.82647225  1
  Al0+  Al48  1  -0.00227459  0.00021492  0.00721465  1
  Al0+  Al49  1  -0.00336988  -0.00209618  0.34063283  1
  Al0+  Al50  1  -0.00069035  0.00105525  0.66687444  1
  Al0+  Al51  1  -0.00072520  0.50077130  0.00465745  1
  Al0+  Al52  1  0.00190586  0.50167035  0.33060572  1
  Al0+  Al53  1  -0.00091944  0.50284432  0.65997258  1
  Al0+  Al54  1  0.49880560  -0.00278480  -0.00664323  1
  Al0+  Al55  1  0.49984410  -0.00318281  0.33261528  1
  Al0+  Al56  1  0.50097988  -0.00139559  0.66276417  1
  Al0+  Al57  1  0.50049977  0.49875695  0.00222444  1
  Al0+  Al58  1  0.50166348  0.50056295  0.33262887  1
  Al0+  Al59  1  0.50271011  0.49910894  0.67100918  1
  Al0+  Al60  1  0.25071090  0.24762893  0.00359592  1
  Al0+  Al61  1  0.24724395  0.25132195  0.32953572  1
  Al0+  Al62  1  0.25034478  0.25087622  0.67429505  1
  Al0+  Al63  1  0.24968750  0.74958232  0.00637019  1
  Al0+  Al64  1  0.25154359  0.74565385  0.33745830  1
  Al0+  Al65  1  0.25015652  0.75163372  0.66014789  1
  Al0+  Al66  1  0.75017916  0.25100002  -0.00345894  1
  Al0+  Al67  1  0.75079279  0.25194817  0.33255675  1
  Al0+  Al68  1  0.74929256  0.25160303  0.66430687  1
  Al0+  Al69  1  0.74971840  0.74934922  0.00123511  1
  Al0+  Al70  1  0.75262229  0.75112259  0.33601593  1
  Al0+  Al71  1  0.75066934  0.75041039  0.66270611  1
  Al0+  Al72  1  0.42676898  0.32282983  0.31860328  1
  Al0+  Al73  1  0.57195268  0.67657359  0.65173563  1
  Al0+  Al74  1  0.56853054  0.17995262  0.98507930  1
  Al0+  Al75  1  0.57045531  0.17734827  0.31756758  1
  Al0+  Al76  1  0.42870360  0.81995199  0.64905098  1
  Al0+  Al77  1  0.17773905  0.43013757  0.67890009  1
  Al0+  Al78  1  0.32258234  0.56709179  0.34929806  1
  Al0+  Al79  1  0.67942244  0.42816169  0.68104135  1
  Al0+  Al80  1  0.17847694  0.92908521  0.68218729  1
  Al0+  Al81  1  0.07033656  0.68072257  0.65324562  1
  Al0+  Al82  1  0.31998404  0.07311984  0.34661478  1
  Al0+  Al83  1  0.17962596  0.93054691  0.01337314  1
  Al0+  Al84  1  0.82013616  0.57186366  0.01272548  1
  Al0+  Al85  1  0.93202879  0.32145607  0.98623046  1
  Al0+  Al86  1  0.81891738  0.07512970  0.35152489  1
  Al0+  Al87  1  0.81806740  0.07204067  0.01172422  1
  Al0+  Al88  1  0.17837142  0.92764329  0.34994046  1
  Al0+  Al89  1  0.57012146  0.17961559  0.65258626  1
  Al0+  Al90  1  0.67820602  0.92770701  0.34897775  1
  Al0+  Al91  1  0.32121961  0.56956568  0.01355126  1
  Al0+  Al92  1  0.32414378  0.07240702  0.68320957  1
  Al0+  Al93  1  0.07310193  0.17818923  0.65297564  1
  Al0+  Al94  1  0.17698205  0.42600379  0.01554162  1
  Al0+  Al95  1  0.92977315  0.32145516  0.65079159  1
  Si0+  Si96  1  0.32237760  0.57211538  0.68198176  1
  Si0+  Si97  1  0.68173499  0.43197226  0.34700163  1
  Si0+  Si98  1  0.42775139  0.81752098  0.98549138  1
  Si0+  Si99  1  0.81965359  0.07153931  0.68296036  1
  Si0+  Si100  1  0.42861439  0.81806804  0.31582276  1
  Si0+  Si101  1  0.92631454  0.82478894  0.64909222  1
  Si0+  Si102  1  0.06860009  0.17675526  0.31888892  1
  Si0+  Si103  1  0.67847510  0.42741507  0.01842424  1
  Si0+  Si104  1  0.42708354  0.32236957  0.65433191  1
  Si0+  Si105  1  0.07298605  0.17441322  0.98585294  1
  Si0+  Si106  1  0.57342884  0.67743838  0.98607500  1
  Si0+  Si107  1  0.67963253  0.92744148  0.68228803  1
  Si0+  Si108  1  0.92742139  0.82240703  0.98665747  1
  Si0+  Si109  1  0.92961401  0.32263635  0.31689155  1
  Si0+  Si110  1  0.17544442  0.42835700  0.35030946  1
  Si0+  Si111  1  0.07195916  0.67935202  0.31449413  1
  Si0+  Si112  1  0.57354974  0.67904800  0.31694699  1
  Si0+  Si113  1  0.07001278  0.68216352  0.98716829  1
  Si0+  Si114  1  0.42634508  0.32421910  0.98179283  1
  Si0+  Si115  1  0.82180350  0.57331165  0.68163640  1
  Si0+  Si116  1  0.67660471  0.92722352  0.01323308  1
  Si0+  Si117  1  0.92853807  0.82009466  0.31634649  1
  Si0+  Si118  1  0.82375828  0.57217765  0.34894913  1
  Si0+  Si119  1  0.32572906  0.07045324  0.01611542  1
  O2-  O120  1  0.25054061  0.00857815  0.05973466  1
  O2-  O121  1  0.24675000  0.00334632  0.39785799  1
  O2-  O122  1  0.24903673  0.00218889  0.73238814  1
  O2-  O123  1  0.25502005  0.49242608  0.06449146  1
  O2-  O124  1  0.25059908  0.48963225  0.39438367  1
  O2-  O125  1  0.25271783  0.50475266  0.72589934  1
  O2-  O126  1  0.74209567  -0.00177207  0.05770753  1
  O2-  O127  1  0.74273392  0.00616829  0.39991091  1
  O2-  O128  1  0.74915309  -0.00050980  0.72523551  1
  O2-  O129  1  0.74548796  0.49863394  0.06221529  1
  O2-  O130  1  0.75374217  0.50131139  0.39090082  1
  O2-  O131  1  0.75309444  0.50517783  0.72591199  1
  O2-  O132  1  -0.00178829  0.24883780  0.27572237  1
  O2-  O133  1  0.00296063  0.25115114  0.60050639  1
  O2-  O134  1  0.01080898  0.24955131  0.94218658  1
  O2-  O135  1  0.00311557  0.75299024  0.27259906  1
  O2-  O136  1  -0.00137930  0.75882991  0.60622585  1
  O2-  O137  1  -0.00089599  0.75288140  0.94363987  1
  O2-  O138  1  0.49380349  0.24560528  0.26825771  1
  O2-  O139  1  0.49133154  0.25065216  0.60838797  1
  O2-  O140  1  0.49195383  0.25259292  0.93778566  1
  O2-  O141  1  0.50292331  0.74963001  0.27293919  1
  O2-  O142  1  0.49986124  0.74617242  0.59931171  1
  O2-  O143  1  0.49962659  0.74591913  0.94492697  1
  O2-  O144  1  0.06806018  0.17196126  0.09186136  1
  O2-  O145  1  0.06872850  0.17874738  0.42352743  1
  O2-  O146  1  0.06800513  0.17617798  0.76673794  1
  O2-  O147  1  0.06878146  0.68455475  0.09251187  1
  O2-  O148  1  0.06888825  0.67667256  0.41931744  1
  O2-  O149  1  0.06750243  0.67965306  0.76703913  1
  O2-  O150  1  0.56872301  0.17964927  0.09792996  1
  O2-  O151  1  0.57246625  0.18259771  0.43074836  1
  O2-  O152  1  0.57267840  0.18145935  0.76600357  1
  O2-  O153  1  0.57655566  0.68015391  0.09137202  1
  O2-  O154  1  0.57381543  0.67782919  0.42143456  1
  O2-  O155  1  0.57239116  0.67911369  0.76602689  1
  O2-  O156  1  0.16956519  0.43364193  0.24509000  1
  O2-  O157  1  0.17903878  0.43237987  0.56571963  1
  O2-  O158  1  0.17407343  0.43211060  0.90208296  1
  O2-  O159  1  0.17981508  0.92837566  0.23557479  1
  O2-  O160  1  0.18102224  0.92990486  0.56925188  1
  O2-  O161  1  0.18063485  0.92675112  0.90104099  1
  O2-  O162  1  0.68377548  0.43447409  0.24176160  1
  O2-  O163  1  0.68095007  0.42885015  0.56746398  1
  O2-  O164  1  0.67892206  0.42847651  0.91305619  1
  O2-  O165  1  0.68425459  0.92280623  0.23499696  1
  O2-  O166  1  0.68225458  0.92622023  0.57755482  1
  O2-  O167  1  0.67934259  0.92448486  0.90763247  1
  O2-  O168  1  0.43038818  0.32670002  0.08721238  1
  O2-  O169  1  0.43220193  0.32702558  0.43204061  1
  O2-  O170  1  0.43056270  0.32346050  0.75995674  1
  O2-  O171  1  0.42873669  0.81841932  0.09073251  1
  O2-  O172  1  0.42813395  0.81518696  0.42018022  1
  O2-  O173  1  0.42983181  0.81721925  0.76378565  1
  O2-  O174  1  0.93110333  0.31955662  0.10007835  1
  O2-  O175  1  0.93011684  0.32640239  0.42141676  1
  O2-  O176  1  0.92977009  0.32100957  0.76449845  1
  O2-  O177  1  0.92655569  0.82041148  0.09173434  1
  O2-  O178  1  0.92516655  0.81583807  0.42097167  1
  O2-  O179  1  0.92249546  0.82254479  0.75518882  1
  O2-  O180  1  0.31818050  0.06850845  0.23224078  1
  O2-  O181  1  0.32496780  0.07200470  0.56977152  1
  O2-  O182  1  0.32962413  0.06619380  0.91115994  1
  O2-  O183  1  0.32036487  0.56910585  0.23614815  1
  O2-  O184  1  0.32286405  0.56920912  0.57625984  1
  O2-  O185  1  0.31796832  0.57318490  0.90024142  1
  O2-  O186  1  0.81974457  0.07444895  0.23740926  1
  O2-  O187  1  0.81876006  0.07098575  0.57802732  1
  O2-  O188  1  0.81888617  0.06968519  0.89856921  1
  O2-  O189  1  0.82286931  0.57256889  0.24364824  1
  O2-  O190  1  0.82119080  0.57333173  0.57562730  1
  O2-  O191  1  0.81853477  0.57520492  0.90024495  1
  O2-  O192  1  0.03881373  0.08394624  0.27366028  1
  O2-  O193  1  0.04183317  0.08084083  0.59911437  1
  O2-  O194  1  0.03960867  0.08313843  0.93922935  1
  O2-  O195  1  0.03998259  0.58914684  0.26536404  1
  O2-  O196  1  0.03578048  0.58835257  0.59329810  1
  O2-  O197  1  0.04088079  0.59025099  0.94178235  1
  O2-  O198  1  0.54782265  0.07629731  0.26556500  1
  O2-  O199  1  0.54669232  0.08140954  0.60002509  1
  O2-  O200  1  0.54177872  0.08137372  0.93126106  1
  O2-  O201  1  0.54644263  0.58781475  0.26804417  1
  O2-  O202  1  0.54636816  0.57667892  0.60077884  1
  O2-  O203  1  0.54992625  0.58357663  0.94104108  1
  O2-  O204  1  0.15966231  0.20236572  0.26856472  1
  O2-  O205  1  0.17271853  0.20680550  0.60300129  1
  O2-  O206  1  0.17059591  0.18966155  0.94450727  1
  O2-  O207  1  0.16517335  0.70488830  0.26892609  1
  O2-  O208  1  0.16624325  0.70751801  0.59650666  1
  O2-  O209  1  0.16184270  0.71075076  0.94072237  1
  O2-  O210  1  0.66820316  0.21308709  0.26525369  1
  O2-  O211  1  0.66461984  0.21483861  0.59817228  1
  O2-  O212  1  0.66454473  0.21330530  0.93144882  1
  O2-  O213  1  0.66662998  0.70734173  0.27061024  1
  O2-  O214  1  0.67049442  0.70481848  0.59852350  1
  O2-  O215  1  0.66375446  0.70749703  0.93667356  1
  O2-  O216  1  0.08208425  0.46126371  0.07136863  1
  O2-  O217  1  0.08487841  0.46298289  0.39806584  1
  O2-  O218  1  0.08076344  0.46536697  0.73013893  1
  O2-  O219  1  0.08215533  0.95661116  0.06883341  1
  O2-  O220  1  0.07716067  0.94668036  0.39932078  1
  O2-  O221  1  0.07758974  0.95310086  0.73367400  1
  O2-  O222  1  0.58493898  0.45190018  0.06493290  1
  O2-  O223  1  0.59134092  0.46180349  0.39458177  1
  O2-  O224  1  0.58440878  0.45802919  0.73910658  1
  O2-  O225  1  0.58143073  0.94930490  0.05722576  1
  O2-  O226  1  0.57645708  0.94415662  0.39723372  1
  O2-  O227  1  0.58719694  0.95219349  0.72859823  1
  O2-  O228  1  0.19684031  0.32447347  0.06618274  1
  O2-  O229  1  0.19144404  0.33150394  0.39134274  1
  O2-  O230  1  0.20452785  0.33505456  0.73704285  1
  O2-  O231  1  0.21294041  0.83588158  0.07007700  1
  O2-  O232  1  0.20984517  0.82922639  0.39935764  1
  O2-  O233  1  0.20906939  0.82938473  0.73277786  1
  O2-  O234  1  0.70869733  0.33588972  0.06496322  1
  O2-  O235  1  0.70942027  0.34064474  0.39420308  1
  O2-  O236  1  0.71373991  0.33328253  0.73630711  1
  O2-  O237  1  0.70341246  0.83488475  0.06116251  1
  O2-  O238  1  0.71497026  0.83205762  0.40385434  1
  O2-  O239  1  0.70925592  0.83564255  0.72996255  1
  O2-  O240  1  0.46432883  0.41891925  0.26361996  1
  O2-  O241  1  0.45681599  0.41480547  0.60804415  1
  O2-  O242  1  0.45383176  0.41762471  0.93558427  1
  O2-  O243  1  0.45335368  0.90985061  0.26655953  1
  O2-  O244  1  0.46160599  0.91604612  0.59565512  1
  O2-  O245  1  0.45476939  0.90779853  0.93506156  1
  O2-  O246  1  0.95969513  0.41434243  0.26858636  1
  O2-  O247  1  0.95352623  0.42037518  0.59691386  1
  O2-  O248  1  0.95843770  0.42066278  0.93461768  1
  O2-  O249  1  0.95214657  0.91418565  0.27083681  1
  O2-  O250  1  0.94748304  0.91908472  0.60402181  1
  O2-  O251  1  0.95334224  0.91514302  0.94051745  1
  O2-  O252  1  0.32511228  0.30493113  0.26685532  1
  O2-  O253  1  0.33170068  0.30354342  0.61035956  1
  O2-  O254  1  0.32990652  0.30242304  0.93977760  1
  O2-  O255  1  0.33792964  0.78449320  0.26843628  1
  O2-  O256  1  0.33169863  0.79345846  0.59379699  1
  O2-  O257  1  0.33644168  0.78700671  0.93877569  1
  O2-  O258  1  0.83720415  0.29816524  0.26911113  1
  O2-  O259  1  0.83295242  0.28923896  0.59744333  1
  O2-  O260  1  0.83580595  0.29004435  0.93241785  1
  O2-  O261  1  0.83887745  0.78723106  0.26674755  1
  O2-  O262  1  0.83548376  0.79490637  0.59958502  1
  O2-  O263  1  0.83609463  0.79363363  0.93804778  1
  O2-  O264  1  0.41632447  0.03563445  0.06367479  1
  O2-  O265  1  0.41895322  0.04355157  0.39612400  1
  O2-  O266  1  0.42209036  0.03791797  0.73503339  1
  O2-  O267  1  0.42198588  0.54749130  0.06649541  1
  O2-  O268  1  0.42131155  0.54172655  0.40147937  1
  O2-  O269  1  0.41577644  0.54793859  0.72900761  1
  O2-  O270  1  0.91203990  0.03980524  0.06995649  1
  O2-  O271  1  0.91428972  0.03996100  0.40570327  1
  O2-  O272  1  0.91114301  0.04406521  0.73069257  1
  O2-  O273  1  0.91501921  0.54223701  0.07045508  1
  O2-  O274  1  0.91647000  0.54472590  0.39422685  1
  O2-  O275  1  0.91515137  0.54755375  0.72708167  1
  O2-  O276  1  0.31026067  0.16687349  0.05949263  1
  O2-  O277  1  0.29477042  0.17368184  0.39628448  1
  O2-  O278  1  0.29971571  0.17066161  0.73833274  1
  O2-  O279  1  0.28780207  0.66483557  0.07072842  1
  O2-  O280  1  0.28824751  0.66152605  0.40392718  1
  O2-  O281  1  0.29684770  0.66680389  0.72430105  1
  O2-  O282  1  0.78756789  0.16841937  0.06590325  1
  O2-  O283  1  0.79586638  0.17542463  0.40266028  1
  O2-  O284  1  0.78948287  0.16283927  0.72911154  1
  O2-  O285  1  0.78913575  0.66801426  0.06969764  1
  O2-  O286  1  0.79711613  0.66341670  0.39650748  1
  O2-  O287  1  0.79771621  0.66770019  0.72743536  1
