# generated using pymatgen
data_Ca2Al2SiO7
_symmetry_space_group_name_H-M   'P 1'
_cell_length_a   15.45406084
_cell_length_b   15.45393520
_cell_length_c   15.28125014
_cell_angle_alpha   89.99512809
_cell_angle_beta   90.00079283
_cell_angle_gamma   90.00387251
_symmetry_Int_Tables_number   1
_chemical_formula_structural   Ca2Al2SiO7
_chemical_formula_sum   'Ca48 Al48 Si24 O168'
_cell_volume   3649.56066364
_cell_formula_units_Z   24
loop_
 _symmetry_equiv_pos_site_id
 _symmetry_equiv_pos_as_xyz
  1  'x, y, z'
loop_
 _atom_type_symbol
 _atom_type_oxidation_number
  Ca2+  2.0
  Al0+  0.0
  Si0+  0.0
  O2-  -2.0
loop_
 _atom_site_type_symbol
 _atom_site_label
 _atom_site_symmetry_multiplicity
 _atom_site_fract_x
 _atom_site_fract_y
 _atom_site_fract_z
 _atom_site_occupancy
  Ca2+  Ca0  1  0.16546483  0.06923135  0.17254442  1
  Ca2+  Ca1  1  0.16873243  0.08230319  0.50458014  1
  Ca2+  Ca2  1  0.17255649  0.08511840  0.83774011  1
  Ca2+  Ca3  1  0.17342295  0.58282167  0.17407596  1
  Ca2+  Ca4  1  0.17027388  0.58827914  0.49808320  1
  Ca2+  Ca5  1  0.16627404  0.57359238  0.84061799  1
  Ca2+  Ca6  1  0.67115899  0.08152912  0.16692647  1
  Ca2+  Ca7  1  0.67749719  0.08885764  0.50516478  1
  Ca2+  Ca8  1  0.67388910  0.08776706  0.84070229  1
  Ca2+  Ca9  1  0.66557371  0.58192381  0.17883267  1
  Ca2+  Ca10  1  0.67373402  0.57436754  0.50205615  1
  Ca2+  Ca11  1  0.66925886  0.57924942  0.83360118  1
  Ca2+  Ca12  1  0.07475851  0.33887002  0.16399811  1
  Ca2+  Ca13  1  0.07012535  0.32785427  0.49667266  1
  Ca2+  Ca14  1  0.07782726  0.32705674  0.82308261  1
  Ca2+  Ca15  1  0.08294357  0.83411375  0.16893682  1
  Ca2+  Ca16  1  0.07681418  0.82911105  0.48740894  1
  Ca2+  Ca17  1  0.08424111  0.83500454  0.83261007  1
  Ca2+  Ca18  1  0.58022588  0.33326370  0.16574565  1
  Ca2+  Ca19  1  0.58747719  0.33298585  0.49525426  1
  Ca2+  Ca20  1  0.58781021  0.32182220  0.82744832  1
  Ca2+  Ca21  1  0.58310717  0.82212180  0.15585498  1
  Ca2+  Ca22  1  0.58245443  0.82499914  0.49227625  1
  Ca2+  Ca23  1  0.58496871  0.83513124  0.83592266  1
  Ca2+  Ca24  1  0.32971378  0.41828170  0.17565065  1
  Ca2+  Ca25  1  0.33805534  0.41926264  0.49773672  1
  Ca2+  Ca26  1  0.32425553  0.41505450  0.83892800  1
  Ca2+  Ca27  1  0.32465151  0.90543225  0.16840318  1
  Ca2+  Ca28  1  0.32494167  0.92066571  0.50398876  1
  Ca2+  Ca29  1  0.33063038  0.92115271  0.84018550  1
  Ca2+  Ca30  1  0.82507771  0.42297101  0.17982633  1
  Ca2+  Ca31  1  0.82989177  0.42030964  0.50403619  1
  Ca2+  Ca32  1  0.83124008  0.41511911  0.82975564  1
  Ca2+  Ca33  1  0.83390651  0.92773969  0.17243586  1
  Ca2+  Ca34  1  0.83920545  0.92640010  0.50055914  1
  Ca2+  Ca35  1  0.82769704  0.93180317  0.84165512  1
  Ca2+  Ca36  1  0.42272628  0.17262116  0.16187460  1
  Ca2+  Ca37  1  0.42181959  0.17051873  0.49733568  1
  Ca2+  Ca38  1  0.42892272  0.15873181  0.82704269  1
  Ca2+  Ca39  1  0.42771795  0.66494806  0.16265810  1
  Ca2+  Ca40  1  0.42316153  0.66263015  0.48901358  1
  Ca2+  Ca41  1  0.42143774  0.67340108  0.83606924  1
  Ca2+  Ca42  1  0.90712174  0.17026075  0.16671218  1
  Ca2+  Ca43  1  0.90959463  0.17444657  0.49693360  1
  Ca2+  Ca44  1  0.91845187  0.16833019  0.82274278  1
  Ca2+  Ca45  1  0.91507762  0.67129474  0.16921062  1
  Ca2+  Ca46  1  0.91600985  0.66992350  0.48752805  1
  Ca2+  Ca47  1  0.91454816  0.66802056  0.82724288  1
  Al0+  Al48  1  0.00156726  0.00173261  0.00637874  1
  Al0+  Al49  1  0.00046134  -0.00053048  0.33859837  1
  Al0+  Al50  1  0.00059550  -0.00226705  0.66749399  1
  Al0+  Al51  1  -0.00066406  0.50024646  0.00291358  1
  Al0+  Al52  1  0.00110726  0.49906706  0.32816487  1
  Al0+  Al53  1  0.00123191  0.50094237  0.66633857  1
  Al0+  Al54  1  0.50111745  0.00030242  -0.00275648  1
  Al0+  Al55  1  0.49928212  0.00006397  0.33281372  1
  Al0+  Al56  1  0.49776073  -0.00072396  0.66296722  1
  Al0+  Al57  1  0.49983742  0.50051157  -0.00746424  1
  Al0+  Al58  1  0.49808747  0.49820334  0.33267963  1
  Al0+  Al59  1  0.50004473  0.50060153  0.67364691  1
  Al0+  Al60  1  0.24720257  0.25053571  0.00584532  1
  Al0+  Al61  1  0.25065337  0.24911256  0.32913339  1
  Al0+  Al62  1  0.25097014  0.24910303  0.66676558  1
  Al0+  Al63  1  0.25066273  0.74884235  -0.00211699  1
  Al0+  Al64  1  0.24917670  0.74925192  0.34001687  1
  Al0+  Al65  1  0.25067598  0.75009774  0.66787141  1
  Al0+  Al66  1  0.74987849  0.25401273  0.00014059  1
  Al0+  Al67  1  0.75017924  0.24849858  0.33484125  1
  Al0+  Al68  1  0.74931050  0.25062082  0.66673490  1
  Al0+  Al69  1  0.75168546  0.75084335  -0.00390880  1
  Al0+  Al70  1  0.75017719  0.75122596  0.32776143  1
  Al0+  Al71  1  0.74946592  0.74881948  0.66869022  1
  Al0+  Al72  1  0.81903776  0.06949977  0.34879999  1
  Al0+  Al73  1  0.82309564  0.57193802  0.68192394  1
  Al0+  Al74  1  0.82085638  0.07395574  0.01593419  1
  Al0+  Al75  1  0.67841834  0.42879644  0.68407020  1
  Al0+  Al76  1  0.31948158  0.56881245  0.34587812  1
  Al0+  Al77  1  0.42796781  0.82052396  0.98462466  1
  Al0+  Al78  1  0.92879564  0.82329537  0.31692745  1
  Al0+  Al79  1  0.57054431  0.17853527  0.65207043  1
  Al0+  Al80  1  0.56989016  0.67965726  0.32210904  1
  Al0+  Al81  1  0.67812098  0.92835575  0.01494997  1
  Al0+  Al82  1  0.92912339  0.32112142  0.65124730  1
  Al0+  Al83  1  0.67776668  0.42893897  0.34715930  1
  Al0+  Al84  1  0.82239530  0.57271786  0.34588084  1
  Al0+  Al85  1  0.42924767  0.31980996  0.31999475  1
  Al0+  Al86  1  0.07321838  0.17623366  0.65206982  1
  Al0+  Al87  1  0.82063031  0.07004380  0.67997616  1
  Al0+  Al88  1  0.57484713  0.67727570  0.98129953  1
  Al0+  Al89  1  0.07276628  0.67841476  0.31747969  1
  Al0+  Al90  1  0.92845692  0.31967318  0.31831139  1
  Al0+  Al91  1  0.17755161  0.42807330  0.01441134  1
  Al0+  Al92  1  0.32053595  0.07123030  0.67985538  1
  Al0+  Al93  1  0.18076625  0.92848645  0.01402642  1
  Al0+  Al94  1  0.18067133  0.92935232  0.34898455  1
  Al0+  Al95  1  0.57036583  0.18173203  0.98706254  1
  Si0+  Si96  1  0.67656558  0.92676826  0.68142654  1
  Si0+  Si97  1  0.82159087  0.57204154  0.01526692  1
  Si0+  Si98  1  0.32155025  0.56969590  0.01546286  1
  Si0+  Si99  1  0.17699595  0.42516053  0.35123096  1
  Si0+  Si100  1  0.18017278  0.43012930  0.67956484  1
  Si0+  Si101  1  0.32197336  0.57317749  0.68417697  1
  Si0+  Si102  1  0.17910482  0.92675755  0.68455089  1
  Si0+  Si103  1  0.32374596  0.07241970  0.01763433  1
  Si0+  Si104  1  0.07253997  0.17774041  0.31526940  1
  Si0+  Si105  1  0.57278958  0.17641874  0.31605165  1
  Si0+  Si106  1  0.42756600  0.81992395  0.64940482  1
  Si0+  Si107  1  0.56991604  0.67838323  0.65092722  1
  Si0+  Si108  1  0.42740506  0.32397871  0.65165306  1
  Si0+  Si109  1  0.42740041  0.82319388  0.31909145  1
  Si0+  Si110  1  0.42465707  0.32158722  0.98239544  1
  Si0+  Si111  1  0.07041654  0.17821711  0.98664491  1
  Si0+  Si112  1  0.67531952  0.92713803  0.34926552  1
  Si0+  Si113  1  0.07268101  0.67927907  0.65297300  1
  Si0+  Si114  1  0.32350130  0.07423396  0.34964826  1
  Si0+  Si115  1  0.93101699  0.82347448  0.98387165  1
  Si0+  Si116  1  0.67859686  0.43135476  0.01450093  1
  Si0+  Si117  1  0.92849631  0.81955804  0.65368220  1
  Si0+  Si118  1  0.92992622  0.32247566  0.98452355  1
  Si0+  Si119  1  0.06985771  0.67852376  0.98428414  1
  O2-  O120  1  0.25756092  0.00100743  0.06129802  1
  O2-  O121  1  0.25548845  0.00480840  0.39364499  1
  O2-  O122  1  0.24416870  -0.00115720  0.72818649  1
  O2-  O123  1  0.25589119  0.49880802  0.06006487  1
  O2-  O124  1  0.24419929  0.49552599  0.39550563  1
  O2-  O125  1  0.25141301  0.50061730  0.72380184  1
  O2-  O126  1  0.74967540  0.00047985  0.06503546  1
  O2-  O127  1  0.74348428  -0.00489016  0.39514611  1
  O2-  O128  1  0.74333591  -0.00261900  0.72554838  1
  O2-  O129  1  0.74435203  0.50734635  0.05583160  1
  O2-  O130  1  0.75216836  0.49937788  0.39598643  1
  O2-  O131  1  0.75236656  0.49979264  0.73375336  1
  O2-  O132  1  0.00434192  0.24636792  0.26982827  1
  O2-  O133  1  -0.00211358  0.24480641  0.60236629  1
  O2-  O134  1  -0.00005202  0.24956880  0.94383997  1
  O2-  O135  1  -0.00082356  0.74872847  0.26699247  1
  O2-  O136  1  -0.00077670  0.74771778  0.61227835  1
  O2-  O137  1  0.00083312  0.75083147  0.94059282  1
  O2-  O138  1  0.50301633  0.24477366  0.27305756  1
  O2-  O139  1  0.49764785  0.25675480  0.60809722  1
  O2-  O140  1  0.49208871  0.25239291  0.93796759  1
  O2-  O141  1  0.49845114  0.75751888  0.27521324  1
  O2-  O142  1  0.49874246  0.74899930  0.60801904  1
  O2-  O143  1  0.50406035  0.75266397  0.93338180  1
  O2-  O144  1  0.07097477  0.17820311  0.09139890  1
  O2-  O145  1  0.07415113  0.18021053  0.42078659  1
  O2-  O146  1  0.07464155  0.17982889  0.76646916  1
  O2-  O147  1  0.06980506  0.67738396  0.08857730  1
  O2-  O148  1  0.07368999  0.68194434  0.43178560  1
  O2-  O149  1  0.07532761  0.68045475  0.75861779  1
  O2-  O150  1  0.56980723  0.18594151  0.10010094  1
  O2-  O151  1  0.57133352  0.17485853  0.42167207  1
  O2-  O152  1  0.56900926  0.17800770  0.76548452  1
  O2-  O153  1  0.57184212  0.67354156  0.09473869  1
  O2-  O154  1  0.56737181  0.68038799  0.43584707  1
  O2-  O155  1  0.56872329  0.67998861  0.75588415  1
  O2-  O156  1  0.17959290  0.42525685  0.24543227  1
  O2-  O157  1  0.18044862  0.43236055  0.57488774  1
  O2-  O158  1  0.17733955  0.42999572  0.90041188  1
  O2-  O159  1  0.18287616  0.92924615  0.23560090  1
  O2-  O160  1  0.18244974  0.92245221  0.57944446  1
  O2-  O161  1  0.17966006  0.93122729  0.90071775  1
  O2-  O162  1  0.67747314  0.43073505  0.23268583  1
  O2-  O163  1  0.67490284  0.43296324  0.57114976  1
  O2-  O164  1  0.68203491  0.42885731  0.90961446  1
  O2-  O165  1  0.67314837  0.92935471  0.24406009  1
  O2-  O166  1  0.67839796  0.92338750  0.57584282  1
  O2-  O167  1  0.68223610  0.93022599  0.90079552  1
  O2-  O168  1  0.42575173  0.32257044  0.08790235  1
  O2-  O169  1  0.42855907  0.31792582  0.43313635  1
  O2-  O170  1  0.42485391  0.32337939  0.75738510  1
  O2-  O171  1  0.42483480  0.81383615  0.09796661  1
  O2-  O172  1  0.42900375  0.82295694  0.42527286  1
  O2-  O173  1  0.42491543  0.81878205  0.75424075  1
  O2-  O174  1  0.93024662  0.32388745  0.08947587  1
  O2-  O175  1  0.92888363  0.31900111  0.43101381  1
  O2-  O176  1  0.93381611  0.32188169  0.76574909  1
  O2-  O177  1  0.93182152  0.82259417  0.08835317  1
  O2-  O178  1  0.93091217  0.82342836  0.43123081  1
  O2-  O179  1  0.93077687  0.81970817  0.75922043  1
  O2-  O180  1  0.32373116  0.07496450  0.24410196  1
  O2-  O181  1  0.32054968  0.06809045  0.56685782  1
  O2-  O182  1  0.32035501  0.07399443  0.91174776  1
  O2-  O183  1  0.31989328  0.56733614  0.23284515  1
  O2-  O184  1  0.32273596  0.57531501  0.57933525  1
  O2-  O185  1  0.31796168  0.56910730  0.90913400  1
  O2-  O186  1  0.81692692  0.07049829  0.23584952  1
  O2-  O187  1  0.82062969  0.06748441  0.56711706  1
  O2-  O188  1  0.82246449  0.07376082  0.90205123  1
  O2-  O189  1  0.81911655  0.57127607  0.23163145  1
  O2-  O190  1  0.82202952  0.57571873  0.56915996  1
  O2-  O191  1  0.82596065  0.56880465  0.91015675  1
  O2-  O192  1  0.04588335  0.08352497  0.27221688  1
  O2-  O193  1  0.05092672  0.07494878  0.60261232  1
  O2-  O194  1  0.04410300  0.08634123  0.93836620  1
  O2-  O195  1  0.05116686  0.57884772  0.26437158  1
  O2-  O196  1  0.05028936  0.58670430  0.60592686  1
  O2-  O197  1  0.03886577  0.58719228  0.93605969  1
  O2-  O198  1  0.54627055  0.08286190  0.26937045  1
  O2-  O199  1  0.53784477  0.08273635  0.59692863  1
  O2-  O200  1  0.54455456  0.08414841  0.93267314  1
  O2-  O201  1  0.53461472  0.58505581  0.26757073  1
  O2-  O202  1  0.53965719  0.58620652  0.60640088  1
  O2-  O203  1  0.54188571  0.58076094  0.92529368  1
  O2-  O204  1  0.16638304  0.20070051  0.26806748  1
  O2-  O205  1  0.17068222  0.20791240  0.59869139  1
  O2-  O206  1  0.16311830  0.20646462  0.93989828  1
  O2-  O207  1  0.17146164  0.71034395  0.26629965  1
  O2-  O208  1  0.16416215  0.70926553  0.60526208  1
  O2-  O209  1  0.16191323  0.70384240  0.93561926  1
  O2-  O210  1  0.66528122  0.20307083  0.26980017  1
  O2-  O211  1  0.66681629  0.20874547  0.59862641  1
  O2-  O212  1  0.66589017  0.21752510  0.93278775  1
  O2-  O213  1  0.66556841  0.70705294  0.26565727  1
  O2-  O214  1  0.66224161  0.70626905  0.60486563  1
  O2-  O215  1  0.67398994  0.70372523  0.92785968  1
  O2-  O216  1  0.08289654  0.46322384  0.06896956  1
  O2-  O217  1  0.08295478  0.44959280  0.39549256  1
  O2-  O218  1  0.09017529  0.45968179  0.72973586  1
  O2-  O219  1  0.08628143  0.96112670  0.07007807  1
  O2-  O220  1  0.08532128  0.96005057  0.40445451  1
  O2-  O221  1  0.08397863  0.94661644  0.72925165  1
  O2-  O222  1  0.58309524  0.45359497  0.05711506  1
  O2-  O223  1  0.58011222  0.45764020  0.40014793  1
  O2-  O224  1  0.58066299  0.45843678  0.73975125  1
  O2-  O225  1  0.57835841  0.95357712  0.06616804  1
  O2-  O226  1  0.58087690  0.95088956  0.39633072  1
  O2-  O227  1  0.58124982  0.94956382  0.72457568  1
  O2-  O228  1  0.20304265  0.33151828  0.07073159  1
  O2-  O229  1  0.20566610  0.33187920  0.39601726  1
  O2-  O230  1  0.20807092  0.33879089  0.72818761  1
  O2-  O231  1  0.20948640  0.83005540  0.06564610  1
  O2-  O232  1  0.21148023  0.83455105  0.40613030  1
  O2-  O233  1  0.20924828  0.83446974  0.73270716  1
  O2-  O234  1  0.71075692  0.34247186  0.06415380  1
  O2-  O235  1  0.70447329  0.32996214  0.39840606  1
  O2-  O236  1  0.70742728  0.33071837  0.73713268  1
  O2-  O237  1  0.70637386  0.82820487  0.06430026  1
  O2-  O238  1  0.70084869  0.83325604  0.39418938  1
  O2-  O239  1  0.70335469  0.83429895  0.72938681  1
  O2-  O240  1  0.45922448  0.41504914  0.26331322  1
  O2-  O241  1  0.45085895  0.41977017  0.60839873  1
  O2-  O242  1  0.44849327  0.41504337  0.93516211  1
  O2-  O243  1  0.44687990  0.91813614  0.27282040  1
  O2-  O244  1  0.45366673  0.91099583  0.60041686  1
  O2-  O245  1  0.45127638  0.92065197  0.93239021  1
  O2-  O246  1  0.95860546  0.41551974  0.26214481  1
  O2-  O247  1  0.96239709  0.41903608  0.59947878  1
  O2-  O248  1  0.96065760  0.41367451  0.93697389  1
  O2-  O249  1  0.96255295  0.92078692  0.26500611  1
  O2-  O250  1  0.95724902  0.91027692  0.60520394  1
  O2-  O251  1  0.96233543  0.91512151  0.93737888  1
  O2-  O252  1  0.33286260  0.29050669  0.26314558  1
  O2-  O253  1  0.33494180  0.29751584  0.60411073  1
  O2-  O254  1  0.32904959  0.29690558  0.93905584  1
  O2-  O255  1  0.33437555  0.79378699  0.27574356  1
  O2-  O256  1  0.33577356  0.79014023  0.60217999  1
  O2-  O257  1  0.33135104  0.78718879  0.92763104  1
  O2-  O258  1  0.83208251  0.28700032  0.26405324  1
  O2-  O259  1  0.82969866  0.29660648  0.60056300  1
  O2-  O260  1  0.83781730  0.29676692  0.93732857  1
  O2-  O261  1  0.83040627  0.79860296  0.26234389  1
  O2-  O262  1  0.83620757  0.79334205  0.60671924  1
  O2-  O263  1  0.84003744  0.79656306  0.93461487  1
  O2-  O264  1  0.41843932  0.05116665  0.06168544  1
  O2-  O265  1  0.41740583  0.04933174  0.39603896  1
  O2-  O266  1  0.41604247  0.03592100  0.73383611  1
  O2-  O267  1  0.41715251  0.54650955  0.05792415  1
  O2-  O268  1  0.41365327  0.53499792  0.40259904  1
  O2-  O269  1  0.41245308  0.54708235  0.73430605  1
  O2-  O270  1  0.91890361  0.04556082  0.06903542  1
  O2-  O271  1  0.91551163  0.03950583  0.40293225  1
  O2-  O272  1  0.91746914  0.03747887  0.73408939  1
  O2-  O273  1  0.91093159  0.53954586  0.06420741  1
  O2-  O274  1  0.92307777  0.54684863  0.39506381  1
  O2-  O275  1  0.92312898  0.54633464  0.73503038  1
  O2-  O276  1  0.29536405  0.16500662  0.06450533  1
  O2-  O277  1  0.29628397  0.16722738  0.39615367  1
  O2-  O278  1  0.29349870  0.16841883  0.73545233  1
  O2-  O279  1  0.29265332  0.66197062  0.06067851  1
  O2-  O280  1  0.29082308  0.66414241  0.40429450  1
  O2-  O281  1  0.29078751  0.66381164  0.73257972  1
  O2-  O282  1  0.79080858  0.17290003  0.06712612  1
  O2-  O283  1  0.78725570  0.16515151  0.40326486  1
  O2-  O284  1  0.79285656  0.16739501  0.73273210  1
  O2-  O285  1  0.80124433  0.66695716  0.05836174  1
  O2-  O286  1  0.79468251  0.67239841  0.39654170  1
  O2-  O287  1  0.79226795  0.66967761  0.73695817  1
