# generated using pymatgen
data_Ca2Al2SiO7
_symmetry_space_group_name_H-M   'P 1'
_cell_length_a   15.45674962
_cell_length_b   15.45533865
_cell_length_c   15.28162399
_cell_angle_alpha   89.99674967
_cell_angle_beta   89.97967683
_cell_angle_gamma   90.01303138
_symmetry_Int_Tables_number   1
_chemical_formula_structural   Ca2Al2SiO7
_chemical_formula_sum   'Ca48 Al48 Si24 O168'
_cell_volume   3650.61612524
_cell_formula_units_Z   24
loop_
 _symmetry_equiv_pos_site_id
 _symmetry_equiv_pos_as_xyz
  1  'x, y, z'
loop_
 _atom_type_symbol
 _atom_type_oxidation_number
  Ca2+  2.0
  Al0+  0.0
  Si0+  0.0
  O2-  -2.0
loop_
 _atom_site_type_symbol
 _atom_site_label
 _atom_site_symmetry_multiplicity
 _atom_site_fract_x
 _atom_site_fract_y
 _atom_site_fract_z
 _atom_site_occupancy
  Ca2+  Ca0  1  0.17252896  0.08520212  0.17537974  1
  Ca2+  Ca1  1  0.17530403  0.08096474  0.50387692  1
  Ca2+  Ca2  1  0.17072760  0.07593499  0.83078541  1
  Ca2+  Ca3  1  0.17845967  0.57642043  0.17399130  1
  Ca2+  Ca4  1  0.17375608  0.58021434  0.49768772  1
  Ca2+  Ca5  1  0.18071546  0.58762119  0.83694900  1
  Ca2+  Ca6  1  0.66554314  0.07810857  0.17337324  1
  Ca2+  Ca7  1  0.67758819  0.08900757  0.50061209  1
  Ca2+  Ca8  1  0.66877563  0.07620548  0.83546844  1
  Ca2+  Ca9  1  0.67392412  0.58770160  0.16892706  1
  Ca2+  Ca10  1  0.67705791  0.57713171  0.50528318  1
  Ca2+  Ca11  1  0.67368829  0.58577420  0.83841726  1
  Ca2+  Ca12  1  0.07830635  0.33557988  0.16808837  1
  Ca2+  Ca13  1  0.07836722  0.32796619  0.48701973  1
  Ca2+  Ca14  1  0.07555036  0.33568642  0.83220768  1
  Ca2+  Ca15  1  0.07367694  0.83472429  0.16763420  1
  Ca2+  Ca16  1  0.07989529  0.83477662  0.49487556  1
  Ca2+  Ca17  1  0.08495338  0.83251075  0.82635063  1
  Ca2+  Ca18  1  0.57994351  0.32596456  0.16390562  1
  Ca2+  Ca19  1  0.58582708  0.32848510  0.49619857  1
  Ca2+  Ca20  1  0.57936954  0.33984152  0.83118876  1
  Ca2+  Ca21  1  0.57338743  0.82914079  0.15834724  1
  Ca2+  Ca22  1  0.57012375  0.83415711  0.49391096  1
  Ca2+  Ca23  1  0.57747101  0.82990639  0.83431487  1
  Ca2+  Ca24  1  0.33538841  0.42518250  0.17392550  1
  Ca2+  Ca25  1  0.32903372  0.42550328  0.50270650  1
  Ca2+  Ca26  1  0.33943197  0.42832131  0.84081219  1
  Ca2+  Ca27  1  0.33722776  0.91764583  0.17373336  1
  Ca2+  Ca28  1  0.33488220  0.92378033  0.50580940  1
  Ca2+  Ca29  1  0.33736998  0.91487069  0.83273894  1
  Ca2+  Ca30  1  0.84159908  0.42369831  0.17204483  1
  Ca2+  Ca31  1  0.83110938  0.42177035  0.50444615  1
  Ca2+  Ca32  1  0.82782373  0.42401721  0.83823106  1
  Ca2+  Ca33  1  0.82350707  0.91726565  0.17520757  1
  Ca2+  Ca34  1  0.84126281  0.92935081  0.50171262  1
  Ca2+  Ca35  1  0.82685370  0.92310471  0.84010915  1
  Ca2+  Ca36  1  0.41924887  0.16919821  0.16483332  1
  Ca2+  Ca37  1  0.42198152  0.15983228  0.49050161  1
  Ca2+  Ca38  1  0.41520762  0.17205977  0.82916172  1
  Ca2+  Ca39  1  0.41726693  0.67225474  0.15737610  1
  Ca2+  Ca40  1  0.40754595  0.67510137  0.49583392  1
  Ca2+  Ca41  1  0.41600774  0.67239666  0.82729068  1
  Ca2+  Ca42  1  0.91765966  0.17690713  0.16770637  1
  Ca2+  Ca43  1  0.92124151  0.16807786  0.48570565  1
  Ca2+  Ca44  1  0.91201365  0.17144155  0.82907522  1
  Ca2+  Ca45  1  0.91245640  0.66567163  0.16386953  1
  Ca2+  Ca46  1  0.91323793  0.66945284  0.49164165  1
  Ca2+  Ca47  1  0.91458227  0.66277416  0.82973638  1
  Al0+  Al48  1  0.00146063  0.00107784  -0.00012908  1
  Al0+  Al49  1  -0.00088119  -0.00039528  0.32615891  1
  Al0+  Al50  1  0.00104181  0.00122601  0.67531916  1
  Al0+  Al51  1  0.00051629  0.49950874  -0.00223966  1
  Al0+  Al52  1  0.00128670  0.50097239  0.33813169  1
  Al0+  Al53  1  -0.00022732  0.50041339  0.66707466  1
  Al0+  Al54  1  0.50009951  -0.00052589  -0.00037871  1
  Al0+  Al55  1  0.49962802  -0.00171066  0.32853731  1
  Al0+  Al56  1  0.50066147  0.00120078  0.66615451  1
  Al0+  Al57  1  0.50322135  0.49974118  -0.00149014  1
  Al0+  Al58  1  0.50216047  0.50123554  0.33893793  1
  Al0+  Al59  1  0.50035012  0.49985362  0.66994865  1
  Al0+  Al60  1  0.24892343  0.24841456  -0.00617706  1
  Al0+  Al61  1  0.25044071  0.24966005  0.33742257  1
  Al0+  Al62  1  0.24870213  0.24972311  0.66937609  1
  Al0+  Al63  1  0.24805544  0.75123911  0.00217532  1
  Al0+  Al64  1  0.24767931  0.75046092  0.33094038  1
  Al0+  Al65  1  0.24818035  0.74941991  0.66726458  1
  Al0+  Al66  1  0.75173010  0.25028741  -0.00505225  1
  Al0+  Al67  1  0.74925463  0.24857528  0.32673219  1
  Al0+  Al68  1  0.74854913  0.25105844  0.67491564  1
  Al0+  Al69  1  0.74894461  0.75201283  0.00389012  1
  Al0+  Al70  1  0.74716046  0.74997631  0.33548660  1
  Al0+  Al71  1  0.74973508  0.75043591  0.66693470  1
  Al0+  Al72  1  0.67906420  0.93114787  0.01466323  1
  Al0+  Al73  1  0.93036550  0.32142637  0.98360342  1
  Al0+  Al74  1  0.17949325  0.42801059  0.34804801  1
  Al0+  Al75  1  0.32209930  0.06932855  0.34441108  1
  Al0+  Al76  1  0.42666922  0.82082901  0.98324487  1
  Al0+  Al77  1  0.67914601  0.42889517  0.68285349  1
  Al0+  Al78  1  0.82096089  0.56936919  0.01514177  1
  Al0+  Al79  1  0.32269722  0.57099605  0.01372137  1
  Al0+  Al80  1  0.82041387  0.57166810  0.34672937  1
  Al0+  Al81  1  0.42754211  0.81862490  0.31929153  1
  Al0+  Al82  1  0.31868413  0.56991047  0.68061572  1
  Al0+  Al83  1  0.81985816  0.06989436  0.34351001  1
  Al0+  Al84  1  0.82156389  0.07086945  0.68031783  1
  Al0+  Al85  1  0.92879249  0.32273989  0.31992591  1
  Al0+  Al86  1  0.57063492  0.17878632  0.32030319  1
  Al0+  Al87  1  0.07385689  0.17791136  0.31884084  1
  Al0+  Al88  1  0.32412726  0.07199788  0.68274986  1
  Al0+  Al89  1  0.57293787  0.67902237  0.98466273  1
  Al0+  Al90  1  0.92718508  0.82067850  0.32065169  1
  Al0+  Al91  1  0.82189590  0.57263976  0.68205909  1
  Al0+  Al92  1  0.32356589  0.57326784  0.34809737  1
  Al0+  Al93  1  0.18018331  0.92918693  0.68070360  1
  Al0+  Al94  1  0.42961193  0.81965398  0.65133629  1
  Al0+  Al95  1  0.42931422  0.32025649  0.98756127  1
  Si0+  Si96  1  0.31964897  0.07120842  0.01472175  1
  Si0+  Si97  1  0.06988670  0.17824698  0.65159838  1
  Si0+  Si98  1  0.92863290  0.82264150  0.65406524  1
  Si0+  Si99  1  0.06941422  0.68019653  0.98511046  1
  Si0+  Si100  1  0.57187490  0.67657937  0.31798533  1
  Si0+  Si101  1  0.82345431  0.07325559  0.01850813  1
  Si0+  Si102  1  0.07249992  0.17591140  0.97872716  1
  Si0+  Si103  1  0.67726432  0.92803120  0.68174143  1
  Si0+  Si104  1  0.17611670  0.92853170  0.34750360  1
  Si0+  Si105  1  0.17717264  0.42661486  0.68474938  1
  Si0+  Si106  1  0.42844909  0.32390763  0.32049648  1
  Si0+  Si107  1  0.57072815  0.18007979  0.65202288  1
  Si0+  Si108  1  0.67849707  0.42553851  0.01904949  1
  Si0+  Si109  1  0.67684231  0.92810178  0.35157712  1
  Si0+  Si110  1  0.57329677  0.67625118  0.64783216  1
  Si0+  Si111  1  0.57202039  0.17717253  0.98153155  1
  Si0+  Si112  1  0.17902121  0.42702313  0.01490753  1
  Si0+  Si113  1  0.07075488  0.67784590  0.31548957  1
  Si0+  Si114  1  0.07021312  0.67870298  0.65090639  1
  Si0+  Si115  1  0.92848984  0.32007260  0.65175648  1
  Si0+  Si116  1  0.67840422  0.42577968  0.34835500  1
  Si0+  Si117  1  0.17729156  0.92860300  0.01775142  1
  Si0+  Si118  1  0.42766353  0.32235344  0.65113363  1
  Si0+  Si119  1  0.92881600  0.82208216  0.98488074  1
  O2-  O120  1  0.25030552  -0.00142692  0.05730919  1
  O2-  O121  1  0.24595650  -0.00400409  0.39097775  1
  O2-  O122  1  0.25498844  -0.00280616  0.73287810  1
  O2-  O123  1  0.25207494  0.49117691  0.05857072  1
  O2-  O124  1  0.25328942  0.49886711  0.39716022  1
  O2-  O125  1  0.24732652  0.49291176  0.72963401  1
  O2-  O126  1  0.75340736  0.00625668  0.06188985  1
  O2-  O127  1  0.74807907  -0.00524813  0.39505121  1
  O2-  O128  1  0.74914058  -0.00622580  0.72596551  1
  O2-  O129  1  0.74747390  0.49390932  0.06297436  1
  O2-  O130  1  0.74838725  0.49384974  0.39165358  1
  O2-  O131  1  0.74885823  0.50297748  0.73291737  1
  O2-  O132  1  0.00252443  0.25157597  0.27030066  1
  O2-  O133  1  -0.00055341  0.24949461  0.60908706  1
  O2-  O134  1  0.00230958  0.24394246  0.93569563  1
  O2-  O135  1  -0.00117037  0.74387051  0.27176263  1
  O2-  O136  1  -0.00378429  0.74851882  0.61130045  1
  O2-  O137  1  -0.00144642  0.75093299  0.94121342  1
  O2-  O138  1  0.49532292  0.25385473  0.27545087  1
  O2-  O139  1  0.49701469  0.24892082  0.60970713  1
  O2-  O140  1  0.50486864  0.24744993  0.93751367  1
  O2-  O141  1  0.49824325  0.73983489  0.27409865  1
  O2-  O142  1  0.50398048  0.74457700  0.60365633  1
  O2-  O143  1  0.49598360  0.74578431  0.93387579  1
  O2-  O144  1  0.07479897  0.17397459  0.08375156  1
  O2-  O145  1  0.07125528  0.17628037  0.43302868  1
  O2-  O146  1  0.06881717  0.17918554  0.75690525  1
  O2-  O147  1  0.06859272  0.68134965  0.08995211  1
  O2-  O148  1  0.07210326  0.68012808  0.42136794  1
  O2-  O149  1  0.07086578  0.67919559  0.75644977  1
  O2-  O150  1  0.57041518  0.17679439  0.08715795  1
  O2-  O151  1  0.57190621  0.18032092  0.43388646  1
  O2-  O152  1  0.57055199  0.17998876  0.75715836  1
  O2-  O153  1  0.57299075  0.68215687  0.09840420  1
  O2-  O154  1  0.57445566  0.67907431  0.42355734  1
  O2-  O155  1  0.57429378  0.67784098  0.75324219  1
  O2-  O156  1  0.18045833  0.43050792  0.23404188  1
  O2-  O157  1  0.17728843  0.42644429  0.57953322  1
  O2-  O158  1  0.17798077  0.43003375  0.90896508  1
  O2-  O159  1  0.17645460  0.92872037  0.24153753  1
  O2-  O160  1  0.17639649  0.93218132  0.56739068  1
  O2-  O161  1  0.17348536  0.92878777  0.91290370  1
  O2-  O162  1  0.67517684  0.42631154  0.24307139  1
  O2-  O163  1  0.68295736  0.42565187  0.56895417  1
  O2-  O164  1  0.68053142  0.42520378  0.91352924  1
  O2-  O165  1  0.67744474  0.92930863  0.24585329  1
  O2-  O166  1  0.67698189  0.92983015  0.57629426  1
  O2-  O167  1  0.68208152  0.93307140  0.90098785  1
  O2-  O168  1  0.42887260  0.31668413  0.10079797  1
  O2-  O169  1  0.43086497  0.32415247  0.42629918  1
  O2-  O170  1  0.42889579  0.32183376  0.75642620  1
  O2-  O171  1  0.42719727  0.82139296  0.09683753  1
  O2-  O172  1  0.42907180  0.82073965  0.43267639  1
  O2-  O173  1  0.43143810  0.81862967  0.76415729  1
  O2-  O174  1  0.93338020  0.32231905  0.09624490  1
  O2-  O175  1  0.92785491  0.31978161  0.43410369  1
  O2-  O176  1  0.93141339  0.31936811  0.75705954  1
  O2-  O177  1  0.93093425  0.82275875  0.08982286  1
  O2-  O178  1  0.93112315  0.82190995  0.43430986  1
  O2-  O179  1  0.93012495  0.82292658  0.75950062  1
  O2-  O180  1  0.32213027  0.06800443  0.23079475  1
  O2-  O181  1  0.32337849  0.07209527  0.56925769  1
  O2-  O182  1  0.31805551  0.07189996  0.90971304  1
  O2-  O183  1  0.32314834  0.57168683  0.23429982  1
  O2-  O184  1  0.31545904  0.56975085  0.56789124  1
  O2-  O185  1  0.31857464  0.57202809  0.90036528  1
  O2-  O186  1  0.81721661  0.06862719  0.23076505  1
  O2-  O187  1  0.82301094  0.07182354  0.56716570  1
  O2-  O188  1  0.82350829  0.07039435  0.91233570  1
  O2-  O189  1  0.81841259  0.57218638  0.23359402  1
  O2-  O190  1  0.82260835  0.57120174  0.56849475  1
  O2-  O191  1  0.82153240  0.56883535  0.90222861  1
  O2-  O192  1  0.04498149  0.08140588  0.26253632  1
  O2-  O193  1  0.04137981  0.08571837  0.60665082  1
  O2-  O194  1  0.04601508  0.08199383  0.93218365  1
  O2-  O195  1  0.04752349  0.58379869  0.27046831  1
  O2-  O196  1  0.04414099  0.58630557  0.60319658  1
  O2-  O197  1  0.04331529  0.58887846  0.93600036  1
  O2-  O198  1  0.53883926  0.08382987  0.26405566  1
  O2-  O199  1  0.54686373  0.08798061  0.60347817  1
  O2-  O200  1  0.54366616  0.08497846  0.93448731  1
  O2-  O201  1  0.55336382  0.58046266  0.27375163  1
  O2-  O202  1  0.54863999  0.58151386  0.60357184  1
  O2-  O203  1  0.55397839  0.57787282  0.93416091  1
  O2-  O204  1  0.17287778  0.20603354  0.26609872  1
  O2-  O205  1  0.16299465  0.20475669  0.60572792  1
  O2-  O206  1  0.16469378  0.20224688  0.92980470  1
  O2-  O207  1  0.16217401  0.70653737  0.26643943  1
  O2-  O208  1  0.15980645  0.70895898  0.60126549  1
  O2-  O209  1  0.16011320  0.71091029  0.93680592  1
  O2-  O210  1  0.66448108  0.20877341  0.26111266  1
  O2-  O211  1  0.66267268  0.21174866  0.60604959  1
  O2-  O212  1  0.66684713  0.19943434  0.93618368  1
  O2-  O213  1  0.66310374  0.70714885  0.26988533  1
  O2-  O214  1  0.66751160  0.70258607  0.60191166  1
  O2-  O215  1  0.66970445  0.71485195  0.93120084  1
  O2-  O216  1  0.08761473  0.45832120  0.06122539  1
  O2-  O217  1  0.08320459  0.45877569  0.40447734  1
  O2-  O218  1  0.08402510  0.45494405  0.73026010  1
  O2-  O219  1  0.08578584  0.95873850  0.06560522  1
  O2-  O220  1  0.08261323  0.95443269  0.39300732  1
  O2-  O221  1  0.08485646  0.96098162  0.73955137  1
  O2-  O222  1  0.58458256  0.44896129  0.06480370  1
  O2-  O223  1  0.58658316  0.45137171  0.39884714  1
  O2-  O224  1  0.57992340  0.45395191  0.73503394  1
  O2-  O225  1  0.58221576  0.96185904  0.06873225  1
  O2-  O226  1  0.58468348  0.95814696  0.39694409  1
  O2-  O227  1  0.58663194  0.95878517  0.73020660  1
  O2-  O228  1  0.19904881  0.33040788  0.05670141  1
  O2-  O229  1  0.20494029  0.33008241  0.40332431  1
  O2-  O230  1  0.19867978  0.33240049  0.73128330  1
  O2-  O231  1  0.20162595  0.83681803  0.06613304  1
  O2-  O232  1  0.19830282  0.83408565  0.39274976  1
  O2-  O233  1  0.20363096  0.82999483  0.73384495  1
  O2-  O234  1  0.70374862  0.33015661  0.06217417  1
  O2-  O235  1  0.70395959  0.33199729  0.39370275  1
  O2-  O236  1  0.70774878  0.33284585  0.74045687  1
  O2-  O237  1  0.71149195  0.83661844  0.07081680  1
  O2-  O238  1  0.69895095  0.83422253  0.39775058  1
  O2-  O239  1  0.70038906  0.83400982  0.72762096  1
  O2-  O240  1  0.45643660  0.41722273  0.27440146  1
  O2-  O241  1  0.45719569  0.41348307  0.60334332  1
  O2-  O242  1  0.46014669  0.41631438  0.93249860  1
  O2-  O243  1  0.46268253  0.91274187  0.26349472  1
  O2-  O244  1  0.46110211  0.91781884  0.59945707  1
  O2-  O245  1  0.45824885  0.91937215  0.93164098  1
  O2-  O246  1  0.95883711  0.42165708  0.26859418  1
  O2-  O247  1  0.95591994  0.41271583  0.60557657  1
  O2-  O248  1  0.96450907  0.41663227  0.92774432  1
  O2-  O249  1  0.95951558  0.91391844  0.26128111  1
  O2-  O250  1  0.96081187  0.91437060  0.60847939  1
  O2-  O251  1  0.95807698  0.91421509  0.93763222  1
  O2-  O252  1  0.33473666  0.30002524  0.27522836  1
  O2-  O253  1  0.33377943  0.29726606  0.60648909  1
  O2-  O254  1  0.33342158  0.28963431  0.93074635  1
  O2-  O255  1  0.32907536  0.79434204  0.26577757  1
  O2-  O256  1  0.33140092  0.78918660  0.59995911  1
  O2-  O257  1  0.32554455  0.79645599  0.93341306  1
  O2-  O258  1  0.83229179  0.29362115  0.26400897  1
  O2-  O259  1  0.83505540  0.29231363  0.60885674  1
  O2-  O260  1  0.83345049  0.29214574  0.92836898  1
  O2-  O261  1  0.82903226  0.79227266  0.26860662  1
  O2-  O262  1  0.83560443  0.80017237  0.60645611  1
  O2-  O263  1  0.83686493  0.79581531  0.93838974  1
  O2-  O264  1  0.41268137  0.04640817  0.06025857  1
  O2-  O265  1  0.41785259  0.03589298  0.39866524  1
  O2-  O266  1  0.42330997  0.04703110  0.73527486  1
  O2-  O267  1  0.42106684  0.54332808  0.06482310  1
  O2-  O268  1  0.42221502  0.54873177  0.40254190  1
  O2-  O269  1  0.41626641  0.54210185  0.73297521  1
  O2-  O270  1  0.91793516  0.04717767  0.06183923  1
  O2-  O271  1  0.91732688  0.03870214  0.39629912  1
  O2-  O272  1  0.91610840  0.04172676  0.73862968  1
  O2-  O273  1  0.91922885  0.53910445  0.06672860  1
  O2-  O274  1  0.91797924  0.54678510  0.40071323  1
  O2-  O275  1  0.92072178  0.54370427  0.73416739  1
  O2-  O276  1  0.28903926  0.16283767  0.06117637  1
  O2-  O277  1  0.29691721  0.16630638  0.39966664  1
  O2-  O278  1  0.29193284  0.16963084  0.73600885  1
  O2-  O279  1  0.28590873  0.66618438  0.06687825  1
  O2-  O280  1  0.28812348  0.67038741  0.39996753  1
  O2-  O281  1  0.28373390  0.66464787  0.73492101  1
  O2-  O282  1  0.79963584  0.16873196  0.06027072  1
  O2-  O283  1  0.78777840  0.16640895  0.39714058  1
  O2-  O284  1  0.78755440  0.16450753  0.73726146  1
  O2-  O285  1  0.79198876  0.66730423  0.06715554  1
  O2-  O286  1  0.78729503  0.66728766  0.40224638  1
  O2-  O287  1  0.79698945  0.67294263  0.73357294  1
