# generated using pymatgen
data_Ca2Al2SiO7
_symmetry_space_group_name_H-M   'P 1'
_cell_length_a   15.45911315
_cell_length_b   15.45884600
_cell_length_c   15.28429236
_cell_angle_alpha   89.99667674
_cell_angle_beta   90.00496923
_cell_angle_gamma   90.00282393
_symmetry_Int_Tables_number   1
_chemical_formula_structural   Ca2Al2SiO7
_chemical_formula_sum   'Ca48 Al48 Si24 O168'
_cell_volume   3652.64092018
_cell_formula_units_Z   24
loop_
 _symmetry_equiv_pos_site_id
 _symmetry_equiv_pos_as_xyz
  1  'x, y, z'
loop_
 _atom_type_symbol
 _atom_type_oxidation_number
  Ca2+  2.0
  Al0+  0.0
  Si0+  0.0
  O2-  -2.0
loop_
 _atom_site_type_symbol
 _atom_site_label
 _atom_site_symmetry_multiplicity
 _atom_site_fract_x
 _atom_site_fract_y
 _atom_site_fract_z
 _atom_site_occupancy
  Ca2+  Ca0  1  0.17102017  0.07858620  0.17610764  1
  Ca2+  Ca1  1  0.17460616  0.07624007  0.50882826  1
  Ca2+  Ca2  1  0.16541106  0.08480569  0.83194204  1
  Ca2+  Ca3  1  0.17346008  0.58930243  0.16697690  1
  Ca2+  Ca4  1  0.17344510  0.57584577  0.51368211  1
  Ca2+  Ca5  1  0.17396950  0.58854817  0.83619008  1
  Ca2+  Ca6  1  0.66477378  0.08674829  0.16932782  1
  Ca2+  Ca7  1  0.67482205  0.07648897  0.51204389  1
  Ca2+  Ca8  1  0.66835516  0.08055608  0.83363277  1
  Ca2+  Ca9  1  0.66218198  0.58100158  0.17352678  1
  Ca2+  Ca10  1  0.66745767  0.57483994  0.50784852  1
  Ca2+  Ca11  1  0.66883395  0.58016929  0.83276804  1
  Ca2+  Ca12  1  0.07649385  0.32832829  0.16258940  1
  Ca2+  Ca13  1  0.08385813  0.32838661  0.49936688  1
  Ca2+  Ca14  1  0.09084718  0.32334799  0.82368750  1
  Ca2+  Ca15  1  0.08608826  0.83126590  0.16264181  1
  Ca2+  Ca16  1  0.08708855  0.83447689  0.50394320  1
  Ca2+  Ca17  1  0.08164099  0.82443389  0.82083267  1
  Ca2+  Ca18  1  0.57835917  0.33163611  0.16590618  1
  Ca2+  Ca19  1  0.57416051  0.34118763  0.49632511  1
  Ca2+  Ca20  1  0.57830088  0.33084266  0.82614872  1
  Ca2+  Ca21  1  0.57632990  0.82406502  0.16329119  1
  Ca2+  Ca22  1  0.57908808  0.82893048  0.49313354  1
  Ca2+  Ca23  1  0.58456932  0.82851470  0.82719629  1
  Ca2+  Ca24  1  0.33664084  0.42081892  0.16899249  1
  Ca2+  Ca25  1  0.33457422  0.41957073  0.51168502  1
  Ca2+  Ca26  1  0.33056756  0.42352074  0.82762621  1
  Ca2+  Ca27  1  0.32857314  0.92253156  0.17976596  1
  Ca2+  Ca28  1  0.32892899  0.92432752  0.50484967  1
  Ca2+  Ca29  1  0.32739536  0.91978331  0.83098708  1
  Ca2+  Ca30  1  0.82677485  0.41640147  0.17719052  1
  Ca2+  Ca31  1  0.82234402  0.41667963  0.50686862  1
  Ca2+  Ca32  1  0.83211378  0.42069831  0.83063035  1
  Ca2+  Ca33  1  0.83139712  0.91979482  0.16999307  1
  Ca2+  Ca34  1  0.82792442  0.91755101  0.51384700  1
  Ca2+  Ca35  1  0.83534611  0.91651670  0.82535751  1
  Ca2+  Ca36  1  0.41612264  0.17185710  0.16435645  1
  Ca2+  Ca37  1  0.40702669  0.17589378  0.49818598  1
  Ca2+  Ca38  1  0.41855055  0.17143486  0.82270639  1
  Ca2+  Ca39  1  0.42488613  0.66734450  0.16400262  1
  Ca2+  Ca40  1  0.42000860  0.67099686  0.49317832  1
  Ca2+  Ca41  1  0.41862177  0.65798082  0.82957514  1
  Ca2+  Ca42  1  0.92061495  0.17427816  0.16205248  1
  Ca2+  Ca43  1  0.92068482  0.16659802  0.50031330  1
  Ca2+  Ca44  1  0.92746724  0.16373016  0.82379748  1
  Ca2+  Ca45  1  0.92539534  0.66955633  0.15969843  1
  Ca2+  Ca46  1  0.91871473  0.66494595  0.50474463  1
  Ca2+  Ca47  1  0.92650719  0.66846782  0.82064541  1
  Al0+  Al48  1  -0.00196385  0.00201706  -0.00025010  1
  Al0+  Al49  1  0.00062741  -0.00180661  0.33527127  1
  Al0+  Al50  1  -0.00024896  -0.00157694  0.66469797  1
  Al0+  Al51  1  -0.00081847  0.50075146  -0.00166145  1
  Al0+  Al52  1  -0.00010982  0.50017009  0.32768456  1
  Al0+  Al53  1  -0.00052438  0.49723703  0.66901609  1
  Al0+  Al54  1  0.49976909  0.00041075  -0.00149514  1
  Al0+  Al55  1  0.50018285  0.00041284  0.33373923  1
  Al0+  Al56  1  0.50068608  -0.00074768  0.67352567  1
  Al0+  Al57  1  0.49913681  0.50105434  0.00082723  1
  Al0+  Al58  1  0.50064733  0.49802318  0.32851478  1
  Al0+  Al59  1  0.50006202  0.49847052  0.67049385  1
  Al0+  Al60  1  0.24850630  0.25131925  -0.00116832  1
  Al0+  Al61  1  0.24999550  0.25048302  0.32918678  1
  Al0+  Al62  1  0.25160151  0.25118679  0.66498107  1
  Al0+  Al63  1  0.25018850  0.75086040  0.00266453  1
  Al0+  Al64  1  0.25008968  0.75023260  0.33347356  1
  Al0+  Al65  1  0.25228841  0.75088622  0.66913768  1
  Al0+  Al66  1  0.74830982  0.25027012  -0.00247830  1
  Al0+  Al67  1  0.75036811  0.25191382  0.33401646  1
  Al0+  Al68  1  0.75009031  0.24781941  0.67497539  1
  Al0+  Al69  1  0.74792943  0.75037837  -0.00116260  1
  Al0+  Al70  1  0.75373399  0.74956006  0.32813112  1
  Al0+  Al71  1  0.75105398  0.74861267  0.66992956  1
  Al0+  Al72  1  0.07147012  0.17905579  0.65109065  1
  Al0+  Al73  1  0.32053309  0.07268382  0.68290082  1
  Al0+  Al74  1  0.82236425  0.07069538  0.68200335  1
  Al0+  Al75  1  0.57213040  0.67889392  0.31976457  1
  Al0+  Al76  1  0.17901264  0.92930749  0.68324686  1
  Al0+  Al77  1  0.82131734  0.57024900  0.68140988  1
  Al0+  Al78  1  0.32261855  0.07337956  0.34810205  1
  Al0+  Al79  1  0.56993341  0.67885615  0.98375938  1
  Al0+  Al80  1  0.06970141  0.18030356  0.98676364  1
  Al0+  Al81  1  0.17796601  0.42800506  0.67927556  1
  Al0+  Al82  1  0.43233781  0.31971801  0.65323390  1
  Al0+  Al83  1  0.42748812  0.32046779  0.31863441  1
  Al0+  Al84  1  0.57032627  0.17856009  0.98561286  1
  Al0+  Al85  1  0.07146186  0.68077615  0.98660547  1
  Al0+  Al86  1  0.67780736  0.92700696  0.68155719  1
  Al0+  Al87  1  0.32015252  0.57085424  0.01688364  1
  Al0+  Al88  1  0.07418443  0.67628736  0.65056352  1
  Al0+  Al89  1  0.67918945  0.43041008  0.34615762  1
  Al0+  Al90  1  0.67733976  0.42793800  0.68343328  1
  Al0+  Al91  1  0.92841768  0.32089305  0.32108565  1
  Al0+  Al92  1  0.32106266  0.57269153  0.67941177  1
  Al0+  Al93  1  0.17813709  0.92691881  0.34971273  1
  Al0+  Al94  1  0.42792949  0.82249982  0.31911983  1
  Al0+  Al95  1  0.92951382  0.81859338  0.65031454  1
  Si0+  Si96  1  0.42977186  0.82318100  0.65244231  1
  Si0+  Si97  1  0.42781666  0.32206368  0.98217832  1
  Si0+  Si98  1  0.92519075  0.32131374  0.65046146  1
  Si0+  Si99  1  0.67748513  0.92854488  0.01776298  1
  Si0+  Si100  1  0.92928112  0.82261360  0.31670484  1
  Si0+  Si101  1  0.32083056  0.56890079  0.34663292  1
  Si0+  Si102  1  0.68009825  0.42928865  0.01699265  1
  Si0+  Si103  1  0.57045482  0.67882171  0.65286462  1
  Si0+  Si104  1  0.17671039  0.42987097  0.34532371  1
  Si0+  Si105  1  0.32148790  0.07257553  0.01538384  1
  Si0+  Si106  1  0.82037346  0.07146518  0.34643129  1
  Si0+  Si107  1  0.68084181  0.92738204  0.34517014  1
  Si0+  Si108  1  0.81984069  0.07117781  0.01699147  1
  Si0+  Si109  1  0.92661024  0.32253501  0.98235946  1
  Si0+  Si110  1  0.57368354  0.17803286  0.31952780  1
  Si0+  Si111  1  0.07108375  0.67832485  0.31807215  1
  Si0+  Si112  1  0.82476204  0.57327355  0.34831240  1
  Si0+  Si113  1  0.17845121  0.93098988  0.01485826  1
  Si0+  Si114  1  0.92685196  0.82291418  0.98363285  1
  Si0+  Si115  1  0.07045056  0.17723978  0.31683866  1
  Si0+  Si116  1  0.82137643  0.57206477  0.01660985  1
  Si0+  Si117  1  0.57328323  0.17592275  0.65039061  1
  Si0+  Si118  1  0.42803507  0.82241094  0.98231124  1
  Si0+  Si119  1  0.17656109  0.42706143  0.01874592  1
  O2-  O120  1  0.24930027  0.00233226  0.05732606  1
  O2-  O121  1  0.25106481  -0.00018630  0.39588273  1
  O2-  O122  1  0.24793001  0.00290151  0.73537699  1
  O2-  O123  1  0.24386035  0.49695962  0.06401482  1
  O2-  O124  1  0.24998375  0.49784195  0.38788356  1
  O2-  O125  1  0.24297313  0.50659326  0.72889778  1
  O2-  O126  1  0.74816596  0.00070806  0.06027674  1
  O2-  O127  1  0.74964517  0.00001246  0.38750949  1
  O2-  O128  1  0.74866253  0.00012592  0.73200936  1
  O2-  O129  1  0.75093978  0.50083253  0.05994428  1
  O2-  O130  1  0.75289476  0.50725383  0.39042790  1
  O2-  O131  1  0.75072276  0.49816244  0.73375925  1
  O2-  O132  1  0.00191378  0.24607162  0.27226237  1
  O2-  O133  1  -0.00462398  0.25395492  0.60613782  1
  O2-  O134  1  -0.00196438  0.25704691  0.93903381  1
  O2-  O135  1  0.00175264  0.75213620  0.27625574  1
  O2-  O136  1  0.00216209  0.74776159  0.59887714  1
  O2-  O137  1  -0.00471887  0.75382751  0.94136789  1
  O2-  O138  1  0.50115064  0.24287472  0.27487027  1
  O2-  O139  1  0.50656779  0.24495015  0.60475690  1
  O2-  O140  1  0.49408853  0.25072880  0.93913380  1
  O2-  O141  1  0.50049800  0.75107624  0.26858440  1
  O2-  O142  1  0.50028211  0.75072013  0.61113654  1
  O2-  O143  1  0.49492331  0.75273176  0.93686133  1
  O2-  O144  1  0.06607993  0.17991497  0.10040720  1
  O2-  O145  1  0.06960195  0.17761719  0.42184129  1
  O2-  O146  1  0.07020446  0.18106604  0.76459672  1
  O2-  O147  1  0.07000559  0.68385082  0.10076988  1
  O2-  O148  1  0.07018496  0.67396774  0.42206602  1
  O2-  O149  1  0.07297510  0.67949394  0.76437737  1
  O2-  O150  1  0.57038061  0.18034253  0.09933247  1
  O2-  O151  1  0.57895864  0.17863044  0.42426450  1
  O2-  O152  1  0.57073195  0.17700877  0.75629698  1
  O2-  O153  1  0.57082357  0.68081778  0.09689462  1
  O2-  O154  1  0.57192036  0.68010365  0.43338148  1
  O2-  O155  1  0.56894836  0.67931611  0.75825204  1
  O2-  O156  1  0.17525408  0.43269125  0.23989995  1
  O2-  O157  1  0.18172452  0.42747532  0.56479585  1
  O2-  O158  1  0.17734648  0.42489976  0.91400100  1
  O2-  O159  1  0.17628196  0.92976239  0.23479993  1
  O2-  O160  1  0.18323866  0.92963643  0.56990485  1
  O2-  O161  1  0.17828203  0.93095141  0.91057669  1
  O2-  O162  1  0.68135801  0.42970756  0.23229191  1
  O2-  O163  1  0.67643567  0.43084939  0.56955144  1
  O2-  O164  1  0.68167545  0.42930126  0.91249209  1
  O2-  O165  1  0.68385817  0.92813348  0.23954082  1
  O2-  O166  1  0.67769801  0.92777130  0.56706150  1
  O2-  O167  1  0.67771722  0.92767327  0.91353446  1
  O2-  O168  1  0.42900579  0.32099231  0.08840814  1
  O2-  O169  1  0.42798974  0.32371778  0.43097989  1
  O2-  O170  1  0.43376472  0.31967883  0.76650493  1
  O2-  O171  1  0.43052202  0.82338210  0.08804828  1
  O2-  O172  1  0.43019691  0.82042408  0.43266329  1
  O2-  O173  1  0.43095425  0.82371429  0.75773666  1
  O2-  O174  1  0.92534197  0.32030685  0.08864134  1
  O2-  O175  1  0.92857731  0.31996958  0.43329140  1
  O2-  O176  1  0.92475571  0.31935244  0.75625221  1
  O2-  O177  1  0.92744455  0.82334668  0.09026440  1
  O2-  O178  1  0.92362875  0.82389759  0.42032419  1
  O2-  O179  1  0.92989353  0.81672264  0.76427591  1
  O2-  O180  1  0.31956757  0.07349817  0.23323250  1
  O2-  O181  1  0.32091469  0.07118788  0.56951274  1
  O2-  O182  1  0.32210873  0.07222713  0.91099351  1
  O2-  O183  1  0.31900794  0.56878192  0.24110937  1
  O2-  O184  1  0.32447096  0.57032324  0.56523913  1
  O2-  O185  1  0.32015257  0.56951590  0.90467476  1
  O2-  O186  1  0.82000880  0.07034697  0.24054447  1
  O2-  O187  1  0.81933036  0.07064637  0.56749898  1
  O2-  O188  1  0.82148270  0.07002625  0.91299069  1
  O2-  O189  1  0.82657919  0.57228191  0.24205441  1
  O2-  O190  1  0.81777606  0.57003138  0.56732798  1
  O2-  O191  1  0.82165791  0.57151837  0.91232278  1
  O2-  O192  1  0.04329330  0.08358311  0.27053079  1
  O2-  O193  1  0.03992065  0.08308411  0.59741391  1
  O2-  O194  1  0.03646588  0.08432921  0.93364520  1
  O2-  O195  1  0.04118968  0.58909555  0.26570594  1
  O2-  O196  1  0.04537818  0.57634234  0.60002474  1
  O2-  O197  1  0.04364484  0.58248314  0.93564425  1
  O2-  O198  1  0.55290838  0.08332147  0.27277580  1
  O2-  O199  1  0.54868179  0.08102238  0.60661599  1
  O2-  O200  1  0.54369899  0.08059679  0.93299131  1
  O2-  O201  1  0.54147144  0.58229169  0.26439513  1
  O2-  O202  1  0.54114090  0.58730840  0.60659156  1
  O2-  O203  1  0.53987545  0.58152932  0.93177687  1
  O2-  O204  1  0.16298966  0.20355600  0.26888430  1
  O2-  O205  1  0.16680211  0.21233335  0.59698628  1
  O2-  O206  1  0.16747501  0.20781651  0.93394639  1
  O2-  O207  1  0.16297451  0.70564579  0.27010591  1
  O2-  O208  1  0.17369686  0.70536950  0.59961439  1
  O2-  O209  1  0.16828115  0.71213379  0.93502865  1
  O2-  O210  1  0.66497792  0.20793468  0.26948973  1
  O2-  O211  1  0.66902375  0.19885371  0.60799362  1
  O2-  O212  1  0.66674928  0.20933574  0.93193937  1
  O2-  O213  1  0.67135103  0.70572852  0.26540726  1
  O2-  O214  1  0.66251121  0.70528699  0.60657277  1
  O2-  O215  1  0.66697220  0.71027388  0.93131077  1
  O2-  O216  1  0.08101657  0.45106693  0.06325949  1
  O2-  O217  1  0.08572988  0.45984887  0.39261716  1
  O2-  O218  1  0.07718223  0.44333305  0.73115685  1
  O2-  O219  1  0.08559776  0.95835335  0.06223650  1
  O2-  O220  1  0.07884977  0.95383456  0.40129934  1
  O2-  O221  1  0.07934485  0.95377532  0.73352461  1
  O2-  O222  1  0.58770399  0.45714842  0.06314925  1
  O2-  O223  1  0.58195863  0.46040746  0.39865923  1
  O2-  O224  1  0.58209971  0.46041365  0.73922220  1
  O2-  O225  1  0.58554613  0.95699198  0.06534771  1
  O2-  O226  1  0.58803229  0.95073299  0.39133016  1
  O2-  O227  1  0.58138251  0.95391496  0.73866977  1
  O2-  O228  1  0.20401692  0.33395004  0.06690800  1
  O2-  O229  1  0.20022748  0.33587141  0.38878644  1
  O2-  O230  1  0.21510812  0.33405340  0.73482669  1
  O2-  O231  1  0.20646102  0.83992756  0.06405106  1
  O2-  O232  1  0.20489133  0.82774576  0.40109574  1
  O2-  O233  1  0.21107113  0.83245935  0.73698901  1
  O2-  O234  1  0.70848707  0.33687877  0.06413789  1
  O2-  O235  1  0.71142584  0.33466903  0.40048093  1
  O2-  O236  1  0.70267181  0.32944833  0.73682221  1
  O2-  O237  1  0.70729008  0.83717346  0.06615842  1
  O2-  O238  1  0.71155413  0.83606180  0.39138367  1
  O2-  O239  1  0.70792135  0.83035875  0.73629817  1
  O2-  O240  1  0.46196731  0.41420172  0.26078489  1
  O2-  O241  1  0.46447154  0.41659224  0.59939501  1
  O2-  O242  1  0.45714402  0.41459599  0.93801577  1
  O2-  O243  1  0.45619196  0.92117642  0.26519118  1
  O2-  O244  1  0.45970291  0.91447012  0.60512757  1
  O2-  O245  1  0.45501593  0.91542418  0.93641222  1
  O2-  O246  1  0.95916544  0.41633293  0.26280761  1
  O2-  O247  1  0.94681411  0.41551235  0.60473590  1
  O2-  O248  1  0.94773626  0.41780681  0.93900562  1
  O2-  O249  1  0.95657126  0.91442171  0.26707044  1
  O2-  O250  1  0.95471168  0.91749377  0.59728168  1
  O2-  O251  1  0.95163123  0.91698968  0.93966572  1
  O2-  O252  1  0.33102933  0.29295106  0.26073907  1
  O2-  O253  1  0.33631104  0.29034470  0.59806033  1
  O2-  O254  1  0.33291639  0.29940272  0.93884244  1
  O2-  O255  1  0.32963285  0.79342934  0.26521838  1
  O2-  O256  1  0.33856767  0.79624226  0.60469060  1
  O2-  O257  1  0.33334668  0.79856014  0.93922881  1
  O2-  O258  1  0.83297666  0.28872899  0.26400254  1
  O2-  O259  1  0.83134948  0.29266464  0.60563991  1
  O2-  O260  1  0.83409137  0.29461505  0.93677680  1
  O2-  O261  1  0.83976876  0.79409349  0.26365765  1
  O2-  O262  1  0.83013125  0.78888088  0.59813676  1
  O2-  O263  1  0.83273762  0.79857159  0.93978092  1
  O2-  O264  1  0.41342540  0.04393581  0.06285353  1
  O2-  O265  1  0.42255782  0.04880634  0.39950557  1
  O2-  O266  1  0.41816526  0.04321790  0.73667350  1
  O2-  O267  1  0.41692658  0.53836242  0.07108522  1
  O2-  O268  1  0.41302036  0.54108943  0.39156978  1
  O2-  O269  1  0.41562012  0.53693667  0.73534785  1
  O2-  O270  1  0.91065943  0.04194732  0.06726640  1
  O2-  O271  1  0.91236831  0.04424780  0.39229440  1
  O2-  O272  1  0.91905919  0.03923024  0.73547910  1
  O2-  O273  1  0.91384839  0.54519773  0.06481496  1
  O2-  O274  1  0.91753298  0.54464086  0.39363340  1
  O2-  O275  1  0.91915186  0.54248561  0.73570355  1
  O2-  O276  1  0.29420858  0.16535701  0.06207611  1
  O2-  O277  1  0.29214708  0.17245724  0.39828765  1
  O2-  O278  1  0.29301400  0.17086564  0.73510852  1
  O2-  O279  1  0.28934387  0.66819293  0.07151685  1
  O2-  O280  1  0.29394035  0.66109260  0.39259702  1
  O2-  O281  1  0.30094494  0.67157105  0.73407689  1
  O2-  O282  1  0.79116459  0.16373834  0.06389512  1
  O2-  O283  1  0.79300839  0.16256674  0.39389764  1
  O2-  O284  1  0.79701824  0.16751206  0.73904073  1
  O2-  O285  1  0.79358626  0.66480692  0.06350455  1
  O2-  O286  1  0.80332448  0.66871391  0.39186659  1
  O2-  O287  1  0.79227041  0.66677692  0.73674453  1
