# generated using pymatgen
data_Ca2Al2SiO7
_symmetry_space_group_name_H-M   'P 1'
_cell_length_a   15.45916171
_cell_length_b   15.45871751
_cell_length_c   15.28424693
_cell_angle_alpha   90.00147884
_cell_angle_beta   90.00785905
_cell_angle_gamma   90.01124292
_symmetry_Int_Tables_number   1
_chemical_formula_structural   Ca2Al2SiO7
_chemical_formula_sum   'Ca48 Al48 Si24 O168'
_cell_volume   3652.61109521
_cell_formula_units_Z   24
loop_
 _symmetry_equiv_pos_site_id
 _symmetry_equiv_pos_as_xyz
  1  'x, y, z'
loop_
 _atom_type_symbol
 _atom_type_oxidation_number
  Ca2+  2.0
  Al0+  0.0
  Si0+  0.0
  O2-  -2.0
loop_
 _atom_site_type_symbol
 _atom_site_label
 _atom_site_symmetry_multiplicity
 _atom_site_fract_x
 _atom_site_fract_y
 _atom_site_fract_z
 _atom_site_occupancy
  Ca2+  Ca0  1  0.17728918  0.07988250  0.17155785  1
  Ca2+  Ca1  1  0.16895597  0.08143606  0.50224225  1
  Ca2+  Ca2  1  0.17447704  0.07235573  0.84308001  1
  Ca2+  Ca3  1  0.17734710  0.58905413  0.17233102  1
  Ca2+  Ca4  1  0.17533007  0.59405940  0.50279135  1
  Ca2+  Ca5  1  0.17719344  0.58949368  0.83503978  1
  Ca2+  Ca6  1  0.65958777  0.07822435  0.17430051  1
  Ca2+  Ca7  1  0.65889557  0.07254639  0.49893081  1
  Ca2+  Ca8  1  0.66357200  0.07931897  0.83734856  1
  Ca2+  Ca9  1  0.66357143  0.57445754  0.17412012  1
  Ca2+  Ca10  1  0.67078238  0.57210411  0.49975723  1
  Ca2+  Ca11  1  0.65747038  0.57116266  0.83980478  1
  Ca2+  Ca12  1  0.08658473  0.32761653  0.16851055  1
  Ca2+  Ca13  1  0.08307497  0.32645816  0.48998398  1
  Ca2+  Ca14  1  0.08197100  0.33262956  0.82926003  1
  Ca2+  Ca15  1  0.07395715  0.83287638  0.16288817  1
  Ca2+  Ca16  1  0.08165281  0.82567475  0.49271153  1
  Ca2+  Ca17  1  0.08479561  0.83476081  0.82890505  1
  Ca2+  Ca18  1  0.58498408  0.32777275  0.16406554  1
  Ca2+  Ca19  1  0.57686886  0.33474394  0.49298808  1
  Ca2+  Ca20  1  0.58233329  0.33108436  0.82883802  1
  Ca2+  Ca21  1  0.57885985  0.82619987  0.15697506  1
  Ca2+  Ca22  1  0.58583479  0.83533212  0.49370984  1
  Ca2+  Ca23  1  0.57600505  0.82905739  0.83243592  1
  Ca2+  Ca24  1  0.34028549  0.42799216  0.17322500  1
  Ca2+  Ca25  1  0.34271932  0.42563217  0.50213891  1
  Ca2+  Ca26  1  0.34204359  0.42703649  0.83411471  1
  Ca2+  Ca27  1  0.33905166  0.92651211  0.16804644  1
  Ca2+  Ca28  1  0.32862119  0.92733091  0.50395873  1
  Ca2+  Ca29  1  0.32231279  0.91552228  0.84435958  1
  Ca2+  Ca30  1  0.82065998  0.42412758  0.17502021  1
  Ca2+  Ca31  1  0.82318761  0.41663934  0.50194263  1
  Ca2+  Ca32  1  0.82084390  0.41757575  0.84032750  1
  Ca2+  Ca33  1  0.82829456  0.90915677  0.17361954  1
  Ca2+  Ca34  1  0.82300354  0.90932520  0.49848176  1
  Ca2+  Ca35  1  0.82970730  0.91356585  0.83567480  1
  Ca2+  Ca36  1  0.42386205  0.16605066  0.16425566  1
  Ca2+  Ca37  1  0.41828060  0.18006536  0.48762784  1
  Ca2+  Ca38  1  0.41892961  0.17015867  0.83142837  1
  Ca2+  Ca39  1  0.41793381  0.66851732  0.15843120  1
  Ca2+  Ca40  1  0.41355933  0.66614909  0.49581480  1
  Ca2+  Ca41  1  0.41470812  0.66460645  0.83507596  1
  Ca2+  Ca42  1  0.92484660  0.16205302  0.16539752  1
  Ca2+  Ca43  1  0.92403926  0.16619264  0.49286418  1
  Ca2+  Ca44  1  0.91802852  0.16767467  0.83156933  1
  Ca2+  Ca45  1  0.91333819  0.67506312  0.16520980  1
  Ca2+  Ca46  1  0.92750300  0.66783642  0.48797267  1
  Ca2+  Ca47  1  0.92511288  0.67302555  0.82768636  1
  Al0+  Al48  1  -0.00044141  -0.00039641  -0.00237888  1
  Al0+  Al49  1  -0.00092546  -0.00065157  0.32596942  1
  Al0+  Al50  1  -0.00140489  -0.00014928  0.66898169  1
  Al0+  Al51  1  -0.00097558  0.49951960  -0.00064667  1
  Al0+  Al52  1  0.00224245  0.49997730  0.33048237  1
  Al0+  Al53  1  0.00117282  0.50060400  0.66178936  1
  Al0+  Al54  1  0.49997785  -0.00028521  -0.00645696  1
  Al0+  Al55  1  0.49807116  0.00174077  0.34042383  1
  Al0+  Al56  1  0.50097074  -0.00016512  0.67136362  1
  Al0+  Al57  1  0.49950938  0.49792373  0.00581385  1
  Al0+  Al58  1  0.49901053  0.50088830  0.33845113  1
  Al0+  Al59  1  0.50114338  0.50051401  0.66992249  1
  Al0+  Al60  1  0.25052000  0.24962897  0.00119838  1
  Al0+  Al61  1  0.25104557  0.25197905  0.32767620  1
  Al0+  Al62  1  0.25087871  0.25253011  0.66284454  1
  Al0+  Al63  1  0.24759197  0.74975879  0.00592777  1
  Al0+  Al64  1  0.24924576  0.75143085  0.33290062  1
  Al0+  Al65  1  0.25088916  0.75179382  0.67006249  1
  Al0+  Al66  1  0.74969985  0.24913656  -0.00009816  1
  Al0+  Al67  1  0.74969701  0.24786592  0.33493125  1
  Al0+  Al68  1  0.75047841  0.24897798  0.66920389  1
  Al0+  Al69  1  0.75152621  0.74821924  -0.01150070  1
  Al0+  Al70  1  0.74983474  0.74840530  0.33851065  1
  Al0+  Al71  1  0.74974688  0.75013307  0.67124762  1
  Al0+  Al72  1  0.07373672  0.67777355  0.31569747  1
  Al0+  Al73  1  0.17992113  0.93130325  0.67879383  1
  Al0+  Al74  1  0.92926259  0.82175222  0.98281549  1
  Al0+  Al75  1  0.67951206  0.42834917  0.01512841  1
  Al0+  Al76  1  0.07157845  0.17867182  0.31879683  1
  Al0+  Al77  1  0.68099592  0.42993826  0.68211978  1
  Al0+  Al78  1  0.67883742  0.42671182  0.34947355  1
  Al0+  Al79  1  0.57196338  0.17887732  0.98478971  1
  Al0+  Al80  1  0.31937039  0.57266272  0.34814339  1
  Al0+  Al81  1  0.92712991  0.81867771  0.31887681  1
  Al0+  Al82  1  0.17634917  0.92850851  0.01818603  1
  Al0+  Al83  1  0.57081361  0.17761980  0.31965934  1
  Al0+  Al84  1  0.43057237  0.32409412  0.31603262  1
  Al0+  Al85  1  0.32327223  0.07131044  0.01550590  1
  Al0+  Al86  1  0.43115644  0.32169949  0.65284217  1
  Al0+  Al87  1  0.82287362  0.57139093  0.34774401  1
  Al0+  Al88  1  0.31985810  0.57031158  0.68093239  1
  Al0+  Al89  1  0.42727896  0.82050868  0.98558731  1
  Al0+  Al90  1  0.57015173  0.67586892  0.98544727  1
  Al0+  Al91  1  0.67836951  0.92906519  0.34354160  1
  Al0+  Al92  1  0.67789164  0.92762985  0.68379558  1
  Al0+  Al93  1  0.31891648  0.56883505  0.01468737  1
  Al0+  Al94  1  0.32030445  0.07297032  0.34813222  1
  Al0+  Al95  1  0.07225607  0.68120356  0.65263872  1
  Si0+  Si96  1  0.82509029  0.57118678  0.68425839  1
  Si0+  Si97  1  0.56972232  0.68031208  0.32237842  1
  Si0+  Si98  1  0.07006456  0.17873095  0.65341512  1
  Si0+  Si99  1  0.17654225  0.93052512  0.34957404  1
  Si0+  Si100  1  0.42871752  0.82269718  0.32172924  1
  Si0+  Si101  1  0.82206270  0.07152819  0.68423157  1
  Si0+  Si102  1  0.17415541  0.42655879  0.01677531  1
  Si0+  Si103  1  0.92692793  0.32207137  0.31626744  1
  Si0+  Si104  1  0.92893972  0.32038261  0.98540339  1
  Si0+  Si105  1  0.92665978  0.82285659  0.64825592  1
  Si0+  Si106  1  0.17836893  0.42770030  0.34932364  1
  Si0+  Si107  1  0.68093336  0.92789467  0.01232054  1
  Si0+  Si108  1  0.82447511  0.07128163  0.34855284  1
  Si0+  Si109  1  0.17584676  0.42595965  0.68190932  1
  Si0+  Si110  1  0.42737416  0.32163321  0.98302208  1
  Si0+  Si111  1  0.32129542  0.07564520  0.68293242  1
  Si0+  Si112  1  0.42967185  0.82175090  0.65118638  1
  Si0+  Si113  1  0.07174019  0.17981453  0.98344355  1
  Si0+  Si114  1  0.07145485  0.67671005  0.98266055  1
  Si0+  Si115  1  0.92801601  0.32066167  0.65209270  1
  Si0+  Si116  1  0.57123997  0.67947115  0.65077612  1
  Si0+  Si117  1  0.82071372  0.07112247  0.01473826  1
  Si0+  Si118  1  0.57328990  0.17676894  0.64913551  1
  Si0+  Si119  1  0.82339293  0.57223651  0.01486224  1
  O2-  O120  1  0.25226790  -0.00206151  0.06566196  1
  O2-  O121  1  0.24325635  0.00055881  0.39498092  1
  O2-  O122  1  0.25353506  0.00630950  0.72676748  1
  O2-  O123  1  0.24284033  0.49482846  0.06023271  1
  O2-  O124  1  0.24358580  0.49876661  0.39473294  1
  O2-  O125  1  0.24408891  0.49502843  0.72575630  1
  O2-  O126  1  0.75119665  -0.00131336  0.05630060  1
  O2-  O127  1  0.75364584  0.00392052  0.39111078  1
  O2-  O128  1  0.75279570  0.00344994  0.72831864  1
  O2-  O129  1  0.75112695  0.50739363  0.05860183  1
  O2-  O130  1  0.75441450  0.49618435  0.39833276  1
  O2-  O131  1  0.75575953  0.50421074  0.73018994  1
  O2-  O132  1  -0.00457809  0.25275848  0.27211480  1
  O2-  O133  1  0.00099444  0.25135513  0.61036697  1
  O2-  O134  1  0.00245590  0.25263165  0.94073209  1
  O2-  O135  1  -0.00168788  0.74693199  0.26727244  1
  O2-  O136  1  -0.00494464  0.75352989  0.60565085  1
  O2-  O137  1  0.00538665  0.74771369  0.93771443  1
  O2-  O138  1  0.50272008  0.25162257  0.26736288  1
  O2-  O139  1  0.50370360  0.24474048  0.60627898  1
  O2-  O140  1  0.49553490  0.25225148  0.93876932  1
  O2-  O141  1  0.49945969  0.75154096  0.28008818  1
  O2-  O142  1  0.50285412  0.75316638  0.60785302  1
  O2-  O143  1  0.49750379  0.74700522  0.93404554  1
  O2-  O144  1  0.06985946  0.18024701  0.08820597  1
  O2-  O145  1  0.06888126  0.17956852  0.43286498  1
  O2-  O146  1  0.06813511  0.18008841  0.75867431  1
  O2-  O147  1  0.06795170  0.67377195  0.08760324  1
  O2-  O148  1  0.07528538  0.68300386  0.42976877  1
  O2-  O149  1  0.07097963  0.68227023  0.76590819  1
  O2-  O150  1  0.57497511  0.17865819  0.09719396  1
  O2-  O151  1  0.56746501  0.17545908  0.43339321  1
  O2-  O152  1  0.57366302  0.17778690  0.75503616  1
  O2-  O153  1  0.57155708  0.67851187  0.09954222  1
  O2-  O154  1  0.56879792  0.68172841  0.42802752  1
  O2-  O155  1  0.56904612  0.67874118  0.75563663  1
  O2-  O156  1  0.17950003  0.42711653  0.24363371  1
  O2-  O157  1  0.17359651  0.42183753  0.57697057  1
  O2-  O158  1  0.17094961  0.42631391  0.91087057  1
  O2-  O159  1  0.17744050  0.93167162  0.24449764  1
  O2-  O160  1  0.18076206  0.93443205  0.56563532  1
  O2-  O161  1  0.17609482  0.93263436  0.90378864  1
  O2-  O162  1  0.67946558  0.42885449  0.23592284  1
  O2-  O163  1  0.68276645  0.42992371  0.56957475  1
  O2-  O164  1  0.68221815  0.42756553  0.90149973  1
  O2-  O165  1  0.67785098  0.92759169  0.23033159  1
  O2-  O166  1  0.67819928  0.92817472  0.57059866  1
  O2-  O167  1  0.68351065  0.93077484  0.90705737  1
  O2-  O168  1  0.42768023  0.32231305  0.08802137  1
  O2-  O169  1  0.43198201  0.32397791  0.43019215  1
  O2-  O170  1  0.43220123  0.32045949  0.76614839  1
  O2-  O171  1  0.43280052  0.82176557  0.09961618  1
  O2-  O172  1  0.42912869  0.82228662  0.42748115  1
  O2-  O173  1  0.42934231  0.82055414  0.75588079  1
  O2-  O174  1  0.92940897  0.31791570  0.08988335  1
  O2-  O175  1  0.92865371  0.31992624  0.42251315  1
  O2-  O176  1  0.92871129  0.31910296  0.75757305  1
  O2-  O177  1  0.92581580  0.82086102  0.09534382  1
  O2-  O178  1  0.92816563  0.81944137  0.43271626  1
  O2-  O179  1  0.92814997  0.82303848  0.75399947  1
  O2-  O180  1  0.32263996  0.06897328  0.23559055  1
  O2-  O181  1  0.31919860  0.07576209  0.57727631  1
  O2-  O182  1  0.31855125  0.07393822  0.90130783  1
  O2-  O183  1  0.32081478  0.57294473  0.23539144  1
  O2-  O184  1  0.31958770  0.57105134  0.56812295  1
  O2-  O185  1  0.31810001  0.56680119  0.90116432  1
  O2-  O186  1  0.82602133  0.07106534  0.24297276  1
  O2-  O187  1  0.82577993  0.07332545  0.57910317  1
  O2-  O188  1  0.82064764  0.07257837  0.90926930  1
  O2-  O189  1  0.81696824  0.57208786  0.23389084  1
  O2-  O190  1  0.82492628  0.56858415  0.57902050  1
  O2-  O191  1  0.82797813  0.56716412  0.90915824  1
  O2-  O192  1  0.04001510  0.08417627  0.26198182  1
  O2-  O193  1  0.03908431  0.08815242  0.60541635  1
  O2-  O194  1  0.03970755  0.09006878  0.93459653  1
  O2-  O195  1  0.05272430  0.57686374  0.26510252  1
  O2-  O196  1  0.04607543  0.58281583  0.59890598  1
  O2-  O197  1  0.04426701  0.58321534  0.93515334  1
  O2-  O198  1  0.53818058  0.07929763  0.26788393  1
  O2-  O199  1  0.54858543  0.08144175  0.60617239  1
  O2-  O200  1  0.54296097  0.08309427  0.92818866  1
  O2-  O201  1  0.54106132  0.58918956  0.27554979  1
  O2-  O202  1  0.54099434  0.58861166  0.60352604  1
  O2-  O203  1  0.53923218  0.57708958  0.93395763  1
  O2-  O204  1  0.16560925  0.21176491  0.26236351  1
  O2-  O205  1  0.16204229  0.20444933  0.60572665  1
  O2-  O206  1  0.16347089  0.20672487  0.93530526  1
  O2-  O207  1  0.17075011  0.71101713  0.26278757  1
  O2-  O208  1  0.16851106  0.71547064  0.59990365  1
  O2-  O209  1  0.16586861  0.70114422  0.93857499  1
  O2-  O210  1  0.67235964  0.19841545  0.26941983  1
  O2-  O211  1  0.66819658  0.20122901  0.60551037  1
  O2-  O212  1  0.66878251  0.21051462  0.92981905  1
  O2-  O213  1  0.66133772  0.70693663  0.27541787  1
  O2-  O214  1  0.66489674  0.70559243  0.60599961  1
  O2-  O215  1  0.66758331  0.70176593  0.92898886  1
  O2-  O216  1  0.08006911  0.45020299  0.06326317  1
  O2-  O217  1  0.08274717  0.44690061  0.39408112  1
  O2-  O218  1  0.08153651  0.45051039  0.72811449  1
  O2-  O219  1  0.07847281  0.96235033  0.06870784  1
  O2-  O220  1  0.08200188  0.95565726  0.39407757  1
  O2-  O221  1  0.08244576  0.96019734  0.73266521  1
  O2-  O222  1  0.58316863  0.45528113  0.06953310  1
  O2-  O223  1  0.58343161  0.46182052  0.40381682  1
  O2-  O224  1  0.58563921  0.46264132  0.73664935  1
  O2-  O225  1  0.58818766  0.95470339  0.05675398  1
  O2-  O226  1  0.58426549  0.96020229  0.40303487  1
  O2-  O227  1  0.58161072  0.95810616  0.73897413  1
  O2-  O228  1  0.19892163  0.33244130  0.06154853  1
  O2-  O229  1  0.20468852  0.33438524  0.39556918  1
  O2-  O230  1  0.20143672  0.33254730  0.72977010  1
  O2-  O231  1  0.19668690  0.82847621  0.06892227  1
  O2-  O232  1  0.20527051  0.83796052  0.39565637  1
  O2-  O233  1  0.21246212  0.83685797  0.73501496  1
  O2-  O234  1  0.71625260  0.33321783  0.06768236  1
  O2-  O235  1  0.70558481  0.32744968  0.40239542  1
  O2-  O236  1  0.71226329  0.33249707  0.73509011  1
  O2-  O237  1  0.70925921  0.83440610  0.05556850  1
  O2-  O238  1  0.70910203  0.83447815  0.40193010  1
  O2-  O239  1  0.70835592  0.83130131  0.73858156  1
  O2-  O240  1  0.46020118  0.42325795  0.26555987  1
  O2-  O241  1  0.46462403  0.41822421  0.60019119  1
  O2-  O242  1  0.45594785  0.41451308  0.93748296  1
  O2-  O243  1  0.45790773  0.91401690  0.27559587  1
  O2-  O244  1  0.45610498  0.91540315  0.60564426  1
  O2-  O245  1  0.45665473  0.91682904  0.92888494  1
  O2-  O246  1  0.95294607  0.41459925  0.26897862  1
  O2-  O247  1  0.95293497  0.41236124  0.60389588  1
  O2-  O248  1  0.95403793  0.41252859  0.93644268  1
  O2-  O249  1  0.95255399  0.91716839  0.26470148  1
  O2-  O250  1  0.95094790  0.91778439  0.60439604  1
  O2-  O251  1  0.95784728  0.91954876  0.92840141  1
  O2-  O252  1  0.33185888  0.29850774  0.26382111  1
  O2-  O253  1  0.33277622  0.29588784  0.59869753  1
  O2-  O254  1  0.33268940  0.29813227  0.93658678  1
  O2-  O255  1  0.33758180  0.79640277  0.27385355  1
  O2-  O256  1  0.33881589  0.79230522  0.60339732  1
  O2-  O257  1  0.32678319  0.79300000  0.93605557  1
  O2-  O258  1  0.83344238  0.29621067  0.27101557  1
  O2-  O259  1  0.83765478  0.28918621  0.60402376  1
  O2-  O260  1  0.83975433  0.28779893  0.93522332  1
  O2-  O261  1  0.82806265  0.78892356  0.26663262  1
  O2-  O262  1  0.83148466  0.79746852  0.60541682  1
  O2-  O263  1  0.83517044  0.79025714  0.92382411  1
  O2-  O264  1  0.42290994  0.04208080  0.06563014  1
  O2-  O265  1  0.41314138  0.03902258  0.40727365  1
  O2-  O266  1  0.41571537  0.05146505  0.72703488  1
  O2-  O267  1  0.41450294  0.53789175  0.06985267  1
  O2-  O268  1  0.41511291  0.54224982  0.40410458  1
  O2-  O269  1  0.41571725  0.53847508  0.73550794  1
  O2-  O270  1  0.91341574  0.04528810  0.06041182  1
  O2-  O271  1  0.91748899  0.04415162  0.39591556  1
  O2-  O272  1  0.91466117  0.04568435  0.73336475  1
  O2-  O273  1  0.91494479  0.54288126  0.06313641  1
  O2-  O274  1  0.92362697  0.54596155  0.39750293  1
  O2-  O275  1  0.91891079  0.54430766  0.72980187  1
  O2-  O276  1  0.29315124  0.16981742  0.06743062  1
  O2-  O277  1  0.28929676  0.17080341  0.39914405  1
  O2-  O278  1  0.29443486  0.16903837  0.72871740  1
  O2-  O279  1  0.29046622  0.66535782  0.06916279  1
  O2-  O280  1  0.28958149  0.67028065  0.40229112  1
  O2-  O281  1  0.28902367  0.66640189  0.73546682  1
  O2-  O282  1  0.79414596  0.16241739  0.06265185  1
  O2-  O283  1  0.80290192  0.16508343  0.39607340  1
  O2-  O284  1  0.79740611  0.16480908  0.73239335  1
  O2-  O285  1  0.80049871  0.66834617  0.05566172  1
  O2-  O286  1  0.79144191  0.66654166  0.40512409  1
  O2-  O287  1  0.80159918  0.66579721  0.72880664  1
