# generated using pymatgen
data_Ca2Al2SiO7
_symmetry_space_group_name_H-M   'P 1'
_cell_length_a   15.45718912
_cell_length_b   15.45784658
_cell_length_c   15.28344937
_cell_angle_alpha   90.00331636
_cell_angle_beta   90.00181603
_cell_angle_gamma   90.01346987
_symmetry_Int_Tables_number   1
_chemical_formula_structural   Ca2Al2SiO7
_chemical_formula_sum   'Ca48 Al48 Si24 O168'
_cell_volume   3651.74869390
_cell_formula_units_Z   24
loop_
 _symmetry_equiv_pos_site_id
 _symmetry_equiv_pos_as_xyz
  1  'x, y, z'
loop_
 _atom_type_symbol
 _atom_type_oxidation_number
  Ca2+  2.0
  Al0+  0.0
  Si0+  0.0
  O2-  -2.0
loop_
 _atom_site_type_symbol
 _atom_site_label
 _atom_site_symmetry_multiplicity
 _atom_site_fract_x
 _atom_site_fract_y
 _atom_site_fract_z
 _atom_site_occupancy
  Ca2+  Ca0  1  0.16078036  0.07371812  0.16773883  1
  Ca2+  Ca1  1  0.17150320  0.07393336  0.50786876  1
  Ca2+  Ca2  1  0.15987736  0.07661811  0.83407876  1
  Ca2+  Ca3  1  0.16945811  0.57106503  0.17721276  1
  Ca2+  Ca4  1  0.18246676  0.58517265  0.50312264  1
  Ca2+  Ca5  1  0.17365485  0.58138030  0.83982466  1
  Ca2+  Ca6  1  0.67544653  0.07542672  0.17259124  1
  Ca2+  Ca7  1  0.67101222  0.07247177  0.50580839  1
  Ca2+  Ca8  1  0.68300134  0.08305414  0.83954365  1
  Ca2+  Ca9  1  0.66649728  0.59189306  0.16336269  1
  Ca2+  Ca10  1  0.65907776  0.58182444  0.50508248  1
  Ca2+  Ca11  1  0.66457534  0.57815306  0.83944491  1
  Ca2+  Ca12  1  0.08989020  0.32849987  0.15726057  1
  Ca2+  Ca13  1  0.09248513  0.32481774  0.49645958  1
  Ca2+  Ca14  1  0.08812692  0.32230802  0.83000713  1
  Ca2+  Ca15  1  0.07617959  0.84014632  0.16152737  1
  Ca2+  Ca16  1  0.07618544  0.84417622  0.49713800  1
  Ca2+  Ca17  1  0.07526418  0.84380946  0.83045341  1
  Ca2+  Ca18  1  0.57637184  0.33969038  0.16324063  1
  Ca2+  Ca19  1  0.57819390  0.33225910  0.49521590  1
  Ca2+  Ca20  1  0.58776794  0.33767300  0.82842160  1
  Ca2+  Ca21  1  0.58119677  0.82644453  0.16562666  1
  Ca2+  Ca22  1  0.57797921  0.82267694  0.48751258  1
  Ca2+  Ca23  1  0.58502511  0.81859990  0.82748082  1
  Ca2+  Ca24  1  0.32560946  0.41972381  0.17451895  1
  Ca2+  Ca25  1  0.33716082  0.42551697  0.49799512  1
  Ca2+  Ca26  1  0.32891370  0.42286340  0.83576277  1
  Ca2+  Ca27  1  0.32266224  0.91173232  0.17525144  1
  Ca2+  Ca28  1  0.32380037  0.91255466  0.50640585  1
  Ca2+  Ca29  1  0.32000287  0.91969296  0.83683938  1
  Ca2+  Ca30  1  0.82918902  0.42513487  0.16664813  1
  Ca2+  Ca31  1  0.82408951  0.42064793  0.50801792  1
  Ca2+  Ca32  1  0.82120202  0.42403076  0.84284857  1
  Ca2+  Ca33  1  0.83441358  0.91571855  0.16973087  1
  Ca2+  Ca34  1  0.83239728  0.91417727  0.50242739  1
  Ca2+  Ca35  1  0.84539864  0.92384718  0.83556285  1
  Ca2+  Ca36  1  0.41397731  0.17444817  0.16480623  1
  Ca2+  Ca37  1  0.41036891  0.17256534  0.49425995  1
  Ca2+  Ca38  1  0.41554195  0.16881715  0.82709462  1
  Ca2+  Ca39  1  0.42285850  0.66575257  0.16780514  1
  Ca2+  Ca40  1  0.42307088  0.66416997  0.49253991  1
  Ca2+  Ca41  1  0.42567182  0.66031050  0.82813727  1
  Ca2+  Ca42  1  0.92251848  0.16702865  0.15711049  1
  Ca2+  Ca43  1  0.92085647  0.16247375  0.50234291  1
  Ca2+  Ca44  1  0.92534120  0.15929741  0.82803631  1
  Ca2+  Ca45  1  0.91280496  0.67867030  0.15943948  1
  Ca2+  Ca46  1  0.91792627  0.68062148  0.49411831  1
  Ca2+  Ca47  1  0.91202597  0.67785088  0.83040449  1
  Al0+  Al48  1  0.00068953  0.00177133  0.00115173  1
  Al0+  Al49  1  0.00107608  0.00232596  0.33309744  1
  Al0+  Al50  1  -0.00051469  0.00126451  0.66260227  1
  Al0+  Al51  1  -0.00127607  0.50086285  0.00657316  1
  Al0+  Al52  1  -0.00204503  0.49780455  0.33974274  1
  Al0+  Al53  1  -0.00065017  0.50029022  0.66525886  1
  Al0+  Al54  1  0.49932058  0.00207640  -0.00209695  1
  Al0+  Al55  1  0.50222549  -0.00076932  0.33315421  1
  Al0+  Al56  1  0.50006740  -0.00093592  0.67077159  1
  Al0+  Al57  1  0.49883495  0.50016497  -0.00108627  1
  Al0+  Al58  1  0.50024485  0.49747010  0.32670864  1
  Al0+  Al59  1  0.49915596  0.49862029  0.67035755  1
  Al0+  Al60  1  0.25121141  0.25016915  -0.00318547  1
  Al0+  Al61  1  0.25021131  0.24862638  0.33023246  1
  Al0+  Al62  1  0.25072894  0.24956720  0.66336688  1
  Al0+  Al63  1  0.24954931  0.75163600  0.00436309  1
  Al0+  Al64  1  0.24916274  0.74790287  0.33854008  1
  Al0+  Al65  1  0.24971549  0.74878458  0.67819773  1
  Al0+  Al66  1  0.74932361  0.25084476  0.00918618  1
  Al0+  Al67  1  0.75310352  0.25065059  0.33340840  1
  Al0+  Al68  1  0.74965795  0.24941269  0.67247113  1
  Al0+  Al69  1  0.74834752  0.75112802  -0.00731927  1
  Al0+  Al70  1  0.75149064  0.75138607  0.32991323  1
  Al0+  Al71  1  0.75014250  0.74857196  0.65654829  1
  Al0+  Al72  1  0.82001634  0.57462474  0.01458961  1
  Al0+  Al73  1  0.67976906  0.92818186  0.34636270  1
  Al0+  Al74  1  0.07048648  0.18126035  0.65038907  1
  Al0+  Al75  1  0.82160463  0.06959755  0.01463470  1
  Al0+  Al76  1  0.93209852  0.82005445  0.65107365  1
  Al0+  Al77  1  0.56728115  0.68123885  0.98358263  1
  Al0+  Al78  1  0.17706161  0.42527928  0.34996759  1
  Al0+  Al79  1  0.42555391  0.82258347  0.31981257  1
  Al0+  Al80  1  0.57114856  0.67823874  0.31638854  1
  Al0+  Al81  1  0.17891296  0.92905602  0.34740339  1
  Al0+  Al82  1  0.32059473  0.56946719  0.68200203  1
  Al0+  Al83  1  0.17976137  0.42875256  0.01133284  1
  Al0+  Al84  1  0.56813346  0.67820223  0.65185773  1
  Al0+  Al85  1  0.17851270  0.93013909  0.68300134  1
  Al0+  Al86  1  0.06979412  0.18158824  0.98550790  1
  Al0+  Al87  1  0.67692703  0.42996661  0.01817428  1
  Al0+  Al88  1  0.32189365  0.56914686  0.34774567  1
  Al0+  Al89  1  0.68002798  0.43070260  0.67843717  1
  Al0+  Al90  1  0.18003122  0.93109951  0.01560742  1
  Al0+  Al91  1  0.93090867  0.82012705  0.98565276  1
  Al0+  Al92  1  0.93267492  0.82133567  0.31789326  1
  Al0+  Al93  1  0.32323940  0.07350008  0.68119901  1
  Al0+  Al94  1  0.81862150  0.06832702  0.67952586  1
  Al0+  Al95  1  0.43036215  0.31777645  0.31870965  1
  Si0+  Si96  1  0.32318942  0.07138310  0.34701709  1
  Si0+  Si97  1  0.92560584  0.32435206  0.98434635  1
  Si0+  Si98  1  0.57620532  0.17695351  0.31695632  1
  Si0+  Si99  1  0.07524662  0.67467984  0.65083696  1
  Si0+  Si100  1  0.32428298  0.07293411  0.01757283  1
  Si0+  Si101  1  0.07152994  0.67464403  0.31873775  1
  Si0+  Si102  1  0.43056543  0.31909193  0.65176692  1
  Si0+  Si103  1  0.82343045  0.57421261  0.68119699  1
  Si0+  Si104  1  0.06918608  0.18200384  0.31707846  1
  Si0+  Si105  1  0.92623485  0.32319508  0.31763804  1
  Si0+  Si106  1  0.82028994  0.57239378  0.34979894  1
  Si0+  Si107  1  0.68008535  0.42818700  0.34836130  1
  Si0+  Si108  1  0.42433324  0.82514004  0.98180641  1
  Si0+  Si109  1  0.57391761  0.17748659  0.65350802  1
  Si0+  Si110  1  0.82241088  0.07311215  0.35121785  1
  Si0+  Si111  1  0.57302163  0.17886064  0.98480557  1
  Si0+  Si112  1  0.67556702  0.92846669  0.01470112  1
  Si0+  Si113  1  0.17654940  0.42693965  0.68228721  1
  Si0+  Si114  1  0.43029961  0.31963301  0.98236829  1
  Si0+  Si115  1  0.67757425  0.92412588  0.68283910  1
  Si0+  Si116  1  0.32176769  0.57229029  0.01779185  1
  Si0+  Si117  1  0.42652916  0.82252218  0.65284869  1
  Si0+  Si118  1  0.07364392  0.67557400  0.98567245  1
  Si0+  Si119  1  0.92568865  0.32275100  0.65099888  1
  O2-  O120  1  0.25868102  0.00208001  0.06206652  1
  O2-  O121  1  0.26091015  -0.00270102  0.39143740  1
  O2-  O122  1  0.25184322  0.00191648  0.73195847  1
  O2-  O123  1  0.24831963  0.50771894  0.05990979  1
  O2-  O124  1  0.24740875  0.49929577  0.39853353  1
  O2-  O125  1  0.24067176  0.49921382  0.72723816  1
  O2-  O126  1  0.74532663  -0.00397334  0.05953954  1
  O2-  O127  1  0.75280802  0.00459865  0.39359876  1
  O2-  O128  1  0.74532295  -0.00684722  0.72798414  1
  O2-  O129  1  0.74880638  0.50251745  0.06706637  1
  O2-  O130  1  0.74787349  0.50172772  0.39117379  1
  O2-  O131  1  0.75584057  0.50411010  0.72443489  1
  O2-  O132  1  0.00118290  0.25638610  0.27587395  1
  O2-  O133  1  -0.00230967  0.25882232  0.60410120  1
  O2-  O134  1  -0.00456106  0.25751759  0.93899895  1
  O2-  O135  1  0.00728191  0.74616772  0.27200330  1
  O2-  O136  1  0.00742213  0.74429989  0.60639259  1
  O2-  O137  1  0.00504281  0.74378097  0.94009123  1
  O2-  O138  1  0.50552557  0.24319993  0.27164067  1
  O2-  O139  1  0.49843629  0.24372130  0.61082876  1
  O2-  O140  1  0.50334836  0.25038125  0.94063827  1
  O2-  O141  1  0.49810772  0.75119121  0.26907902  1
  O2-  O142  1  0.49582633  0.75559717  0.60681403  1
  O2-  O143  1  0.49233012  0.75599903  0.93695558  1
  O2-  O144  1  0.06905679  0.18240309  0.09904230  1
  O2-  O145  1  0.06829195  0.18138525  0.42216190  1
  O2-  O146  1  0.06904116  0.18206527  0.76340971  1
  O2-  O147  1  0.07392011  0.67620769  0.09116999  1
  O2-  O148  1  0.06734661  0.67355746  0.42437597  1
  O2-  O149  1  0.07300196  0.67053883  0.75631200  1
  O2-  O150  1  0.57026590  0.17742034  0.08979272  1
  O2-  O151  1  0.57812088  0.18016828  0.42280392  1
  O2-  O152  1  0.57595325  0.18113876  0.75862117  1
  O2-  O153  1  0.56618156  0.68262514  0.09628036  1
  O2-  O154  1  0.56986526  0.67697438  0.43022121  1
  O2-  O155  1  0.56745188  0.67723558  0.76505515  1
  O2-  O156  1  0.17893147  0.42495277  0.23608863  1
  O2-  O157  1  0.17957720  0.42628602  0.57700989  1
  O2-  O158  1  0.18430659  0.42790449  0.89804197  1
  O2-  O159  1  0.17564543  0.93423602  0.23438842  1
  O2-  O160  1  0.17957855  0.93156515  0.56921570  1
  O2-  O161  1  0.17877037  0.93375035  0.90290985  1
  O2-  O162  1  0.68325158  0.42468536  0.24394919  1
  O2-  O163  1  0.67949001  0.42990239  0.56479600  1
  O2-  O164  1  0.67763694  0.43005155  0.90435866  1
  O2-  O165  1  0.68209583  0.93025556  0.23304147  1
  O2-  O166  1  0.67770174  0.92668121  0.57713920  1
  O2-  O167  1  0.67355507  0.93163383  0.90911009  1
  O2-  O168  1  0.42905345  0.31775033  0.08743026  1
  O2-  O169  1  0.43286569  0.31723318  0.43222799  1
  O2-  O170  1  0.43137521  0.31985485  0.75709970  1
  O2-  O171  1  0.42477467  0.82589568  0.08716560  1
  O2-  O172  1  0.42782744  0.82251089  0.43363545  1
  O2-  O173  1  0.42918646  0.82166782  0.75854118  1
  O2-  O174  1  0.92652449  0.32194693  0.09032573  1
  O2-  O175  1  0.92011196  0.32062981  0.42248571  1
  O2-  O176  1  0.92499605  0.32188182  0.75627834  1
  O2-  O177  1  0.93182429  0.82066533  0.09886204  1
  O2-  O178  1  0.93265563  0.82131593  0.43107585  1
  O2-  O179  1  0.93206960  0.81991957  0.76425854  1
  O2-  O180  1  0.31914894  0.07495314  0.24143285  1
  O2-  O181  1  0.32174808  0.07481492  0.56745186  1
  O2-  O182  1  0.32531950  0.07348182  0.91224325  1
  O2-  O183  1  0.32070850  0.56602033  0.23407908  1
  O2-  O184  1  0.32386628  0.56675585  0.56938841  1
  O2-  O185  1  0.32265333  0.56902852  0.91182100  1
  O2-  O186  1  0.82239775  0.07474695  0.24563752  1
  O2-  O187  1  0.81585660  0.06952869  0.56635108  1
  O2-  O188  1  0.82147775  0.06889009  0.90140385  1
  O2-  O189  1  0.82176223  0.57118435  0.24496397  1
  O2-  O190  1  0.82308448  0.57249070  0.57527609  1
  O2-  O191  1  0.81838649  0.57299161  0.90072593  1
  O2-  O192  1  0.03703291  0.09210236  0.26871342  1
  O2-  O193  1  0.03598037  0.08698788  0.59479575  1
  O2-  O194  1  0.03588446  0.08625598  0.93202118  1
  O2-  O195  1  0.04282729  0.58061079  0.27393828  1
  O2-  O196  1  0.05117827  0.58107598  0.60248490  1
  O2-  O197  1  0.04971607  0.58104463  0.93987774  1
  O2-  O198  1  0.55439929  0.08276936  0.27122595  1
  O2-  O199  1  0.55159130  0.08301397  0.60826788  1
  O2-  O200  1  0.54599533  0.08766005  0.93512817  1
  O2-  O201  1  0.54456931  0.57981338  0.26293864  1
  O2-  O202  1  0.53457394  0.58108438  0.60004065  1
  O2-  O203  1  0.53558717  0.58343798  0.93092589  1
  O2-  O204  1  0.16149657  0.20605426  0.26895464  1
  O2-  O205  1  0.16756957  0.21097239  0.59549165  1
  O2-  O206  1  0.16698989  0.21138534  0.93136876  1
  O2-  O207  1  0.16715909  0.69430554  0.27578572  1
  O2-  O208  1  0.17045687  0.70054417  0.60853077  1
  O2-  O209  1  0.16826884  0.70094481  0.94060450  1
  O2-  O210  1  0.66922144  0.20533471  0.27047172  1
  O2-  O211  1  0.66322559  0.20996674  0.60386847  1
  O2-  O212  1  0.66583656  0.20724379  0.93955273  1
  O2-  O213  1  0.66918743  0.70912434  0.26436200  1
  O2-  O214  1  0.66516625  0.70414951  0.59633719  1
  O2-  O215  1  0.66320890  0.71111358  0.92751977  1
  O2-  O216  1  0.08160557  0.45101535  0.06586309  1
  O2-  O217  1  0.07649893  0.44643013  0.40201190  1
  O2-  O218  1  0.08023136  0.44580438  0.72572928  1
  O2-  O219  1  0.08569457  0.96754542  0.06977154  1
  O2-  O220  1  0.08509660  0.96884984  0.40149876  1
  O2-  O221  1  0.08090993  0.96432709  0.73337493  1
  O2-  O222  1  0.57752150  0.45844552  0.06843522  1
  O2-  O223  1  0.58665838  0.45273942  0.39295759  1
  O2-  O224  1  0.58487982  0.46061728  0.73476049  1
  O2-  O225  1  0.58234878  0.95580473  0.06149006  1
  O2-  O226  1  0.58315224  0.95765159  0.40211325  1
  O2-  O227  1  0.58376463  0.94684214  0.72932915  1
  O2-  O228  1  0.21630209  0.33369690  0.06519891  1
  O2-  O229  1  0.21081051  0.32752660  0.40097911  1
  O2-  O230  1  0.20796128  0.33516514  0.72803649  1
  O2-  O231  1  0.20523119  0.83277376  0.06949177  1
  O2-  O232  1  0.20020364  0.83035084  0.40083658  1
  O2-  O233  1  0.20208702  0.83177480  0.73835058  1
  O2-  O234  1  0.70282384  0.33183942  0.07267405  1
  O2-  O235  1  0.71071504  0.33709786  0.39698555  1
  O2-  O236  1  0.70909619  0.33480490  0.73468603  1
  O2-  O237  1  0.70174953  0.83483051  0.05816283  1
  O2-  O238  1  0.71307233  0.83262362  0.40068584  1
  O2-  O239  1  0.70524524  0.82986314  0.72545168  1
  O2-  O240  1  0.46172895  0.41186986  0.26123755  1
  O2-  O241  1  0.46414940  0.40857521  0.60409996  1
  O2-  O242  1  0.45637389  0.41190401  0.93526845  1
  O2-  O243  1  0.45272278  0.92204633  0.26676367  1
  O2-  O244  1  0.44846379  0.91790453  0.60796712  1
  O2-  O245  1  0.44922463  0.91961871  0.93631849  1
  O2-  O246  1  0.94913543  0.41708143  0.27225931  1
  O2-  O247  1  0.94504466  0.41840203  0.60523114  1
  O2-  O248  1  0.94806572  0.41962538  0.94041231  1
  O2-  O249  1  0.96214497  0.91952449  0.26591404  1
  O2-  O250  1  0.96203579  0.91611782  0.59581786  1
  O2-  O251  1  0.96533199  0.91640992  0.93328125  1
  O2-  O252  1  0.33448978  0.28560049  0.26279945  1
  O2-  O253  1  0.33881186  0.29516793  0.60251928  1
  O2-  O254  1  0.34044898  0.28945604  0.93247887  1
  O2-  O255  1  0.32636915  0.79330649  0.26797564  1
  O2-  O256  1  0.33151196  0.79550074  0.61107649  1
  O2-  O257  1  0.32999115  0.79956240  0.93693208  1
  O2-  O258  1  0.83690596  0.29190934  0.26659601  1
  O2-  O259  1  0.83338556  0.29159897  0.60401722  1
  O2-  O260  1  0.83084005  0.29742355  0.94127035  1
  O2-  O261  1  0.83655823  0.78983749  0.26425060  1
  O2-  O262  1  0.83615067  0.78930049  0.59464735  1
  O2-  O263  1  0.83400812  0.79340325  0.92991621  1
  O2-  O264  1  0.41960080  0.05254315  0.06318751  1
  O2-  O265  1  0.42005693  0.05687734  0.39012728  1
  O2-  O266  1  0.42305098  0.04987719  0.73514679  1
  O2-  O267  1  0.41271607  0.54003588  0.06359716  1
  O2-  O268  1  0.42010155  0.53445011  0.39861999  1
  O2-  O269  1  0.41324436  0.53069552  0.73837894  1
  O2-  O270  1  0.91649490  0.03823430  0.07017431  1
  O2-  O271  1  0.91526690  0.04586382  0.39686496  1
  O2-  O272  1  0.91543715  0.03771478  0.73164535  1
  O2-  O273  1  0.91807828  0.54870831  0.07014901  1
  O2-  O274  1  0.91028431  0.54318290  0.40010257  1
  O2-  O275  1  0.91790465  0.55182090  0.72718530  1
  O2-  O276  1  0.29569679  0.16622767  0.06238791  1
  O2-  O277  1  0.29060310  0.16229433  0.39465534  1
  O2-  O278  1  0.29568843  0.17298256  0.73300809  1
  O2-  O279  1  0.30296442  0.66785388  0.06147450  1
  O2-  O280  1  0.29607024  0.66687927  0.40344238  1
  O2-  O281  1  0.29508925  0.66498409  0.74039080  1
  O2-  O282  1  0.79210097  0.16554512  0.07047208  1
  O2-  O283  1  0.79767131  0.16715484  0.39755899  1
  O2-  O284  1  0.78803462  0.16379206  0.73578665  1
  O2-  O285  1  0.78810274  0.67305948  0.06595720  1
  O2-  O286  1  0.79313341  0.66422787  0.39641268  1
  O2-  O287  1  0.79560768  0.66766104  0.72523600  1
