# generated using pymatgen
data_Ca2Al2SiO7
_symmetry_space_group_name_H-M   'P 1'
_cell_length_a   15.45484127
_cell_length_b   15.45479760
_cell_length_c   15.28198024
_cell_angle_alpha   90.00761345
_cell_angle_beta   90.01035680
_cell_angle_gamma   90.00356140
_symmetry_Int_Tables_number   1
_chemical_formula_structural   Ca2Al2SiO7
_chemical_formula_sum   'Ca48 Al48 Si24 O168'
_cell_volume   3650.12294614
_cell_formula_units_Z   24
loop_
 _symmetry_equiv_pos_site_id
 _symmetry_equiv_pos_as_xyz
  1  'x, y, z'
loop_
 _atom_type_symbol
 _atom_type_oxidation_number
  Ca2+  2.0
  Al0+  0.0
  Si0+  0.0
  O2-  -2.0
loop_
 _atom_site_type_symbol
 _atom_site_label
 _atom_site_symmetry_multiplicity
 _atom_site_fract_x
 _atom_site_fract_y
 _atom_site_fract_z
 _atom_site_occupancy
  Ca2+  Ca0  1  0.16624771  0.08690381  0.16768675  1
  Ca2+  Ca1  1  0.17280805  0.07800765  0.51246287  1
  Ca2+  Ca2  1  0.16734544  0.08466449  0.83300954  1
  Ca2+  Ca3  1  0.16716583  0.57670680  0.16622167  1
  Ca2+  Ca4  1  0.16632676  0.57378167  0.50241362  1
  Ca2+  Ca5  1  0.17406458  0.57884159  0.84681936  1
  Ca2+  Ca6  1  0.67100820  0.07095971  0.16658021  1
  Ca2+  Ca7  1  0.66258609  0.07997015  0.50413530  1
  Ca2+  Ca8  1  0.66945798  0.08300938  0.84400943  1
  Ca2+  Ca9  1  0.66403123  0.57843778  0.17356236  1
  Ca2+  Ca10  1  0.66380231  0.57776996  0.49717816  1
  Ca2+  Ca11  1  0.66094805  0.57175157  0.83968334  1
  Ca2+  Ca12  1  0.07765501  0.33570989  0.15437729  1
  Ca2+  Ca13  1  0.09064143  0.32552902  0.49541227  1
  Ca2+  Ca14  1  0.08221463  0.32543943  0.83384445  1
  Ca2+  Ca15  1  0.07459103  0.82607655  0.15973072  1
  Ca2+  Ca16  1  0.07785517  0.83536840  0.49524285  1
  Ca2+  Ca17  1  0.08969036  0.82742206  0.82992658  1
  Ca2+  Ca18  1  0.58051661  0.34332311  0.16306669  1
  Ca2+  Ca19  1  0.57717655  0.33614856  0.49833305  1
  Ca2+  Ca20  1  0.58219874  0.33141219  0.82278797  1
  Ca2+  Ca21  1  0.58723983  0.82328404  0.15885602  1
  Ca2+  Ca22  1  0.57959853  0.83118241  0.49113306  1
  Ca2+  Ca23  1  0.57490504  0.83361753  0.83310964  1
  Ca2+  Ca24  1  0.32421633  0.41887142  0.17019008  1
  Ca2+  Ca25  1  0.33627273  0.41159036  0.50056203  1
  Ca2+  Ca26  1  0.33218152  0.42215315  0.84276980  1
  Ca2+  Ca27  1  0.33590547  0.91553327  0.16600503  1
  Ca2+  Ca28  1  0.32977333  0.92262227  0.51404759  1
  Ca2+  Ca29  1  0.33729124  0.91848819  0.83474562  1
  Ca2+  Ca30  1  0.82348658  0.42013837  0.17127284  1
  Ca2+  Ca31  1  0.82193982  0.42173109  0.50273730  1
  Ca2+  Ca32  1  0.82203183  0.40909075  0.84037054  1
  Ca2+  Ca33  1  0.82607139  0.91422192  0.17088752  1
  Ca2+  Ca34  1  0.82736930  0.91116218  0.49889637  1
  Ca2+  Ca35  1  0.82490439  0.92709431  0.84402652  1
  Ca2+  Ca36  1  0.41808587  0.17446477  0.16568582  1
  Ca2+  Ca37  1  0.41785105  0.17433417  0.50189374  1
  Ca2+  Ca38  1  0.42315376  0.17326333  0.82099977  1
  Ca2+  Ca39  1  0.42750720  0.66833072  0.15644573  1
  Ca2+  Ca40  1  0.42277366  0.67261587  0.49600678  1
  Ca2+  Ca41  1  0.41670848  0.67387459  0.83504589  1
  Ca2+  Ca42  1  0.92097366  0.17381224  0.15409050  1
  Ca2+  Ca43  1  0.92457356  0.16523591  0.49922675  1
  Ca2+  Ca44  1  0.92206381  0.16764728  0.83477349  1
  Ca2+  Ca45  1  0.91552001  0.66651439  0.16384884  1
  Ca2+  Ca46  1  0.91331806  0.67084569  0.49107518  1
  Ca2+  Ca47  1  0.92443740  0.66349982  0.83518449  1
  Al0+  Al48  1  0.00147797  0.00157643  0.00019201  1
  Al0+  Al49  1  0.00015930  -0.00099754  0.32825842  1
  Al0+  Al50  1  -0.00059080  -0.00126426  0.66651860  1
  Al0+  Al51  1  -0.00226761  0.49926390  -0.00736527  1
  Al0+  Al52  1  0.00134923  0.49827329  0.34353817  1
  Al0+  Al53  1  -0.00065854  0.50071910  0.66631455  1
  Al0+  Al54  1  0.49932465  0.00075214  0.00283871  1
  Al0+  Al55  1  0.50005543  0.00236830  0.33693652  1
  Al0+  Al56  1  0.49891371  0.00007300  0.66288305  1
  Al0+  Al57  1  0.49881010  0.50262908  0.00317325  1
  Al0+  Al58  1  0.49765618  0.50036155  0.32931331  1
  Al0+  Al59  1  0.50039405  0.50106377  0.66677373  1
  Al0+  Al60  1  0.24963212  0.24907435  -0.00002556  1
  Al0+  Al61  1  0.25239068  0.24920267  0.33263627  1
  Al0+  Al62  1  0.24937077  0.24889087  0.66338313  1
  Al0+  Al63  1  0.25043407  0.75162976  -0.00133687  1
  Al0+  Al64  1  0.24904662  0.74970933  0.33394627  1
  Al0+  Al65  1  0.24942445  0.74825948  0.66325403  1
  Al0+  Al66  1  0.75019260  0.24978385  0.00706354  1
  Al0+  Al67  1  0.75152668  0.24785986  0.33723233  1
  Al0+  Al68  1  0.75078655  0.24989637  0.66454630  1
  Al0+  Al69  1  0.74907924  0.74820606  -0.00518934  1
  Al0+  Al70  1  0.75003406  0.75134543  0.33322014  1
  Al0+  Al71  1  0.75207288  0.74892828  0.66972954  1
  Al0+  Al72  1  0.17795012  0.92774685  0.68228889  1
  Al0+  Al73  1  0.42889442  0.32357529  0.65299263  1
  Al0+  Al74  1  0.67840904  0.42943645  0.01350266  1
  Al0+  Al75  1  0.68004902  0.43080660  0.68030370  1
  Al0+  Al76  1  0.32037169  0.57386712  0.01609109  1
  Al0+  Al77  1  0.43063501  0.31922444  0.31685752  1
  Al0+  Al78  1  0.82304857  0.07117993  0.01595808  1
  Al0+  Al79  1  0.42953501  0.82323508  0.98538138  1
  Al0+  Al80  1  0.18038931  0.42827877  0.34814703  1
  Al0+  Al81  1  0.93007336  0.81976766  0.31910935  1
  Al0+  Al82  1  0.68011925  0.93028998  0.34784984  1
  Al0+  Al83  1  0.17862093  0.42806462  0.01247931  1
  Al0+  Al84  1  0.57274645  0.67686403  0.98249567  1
  Al0+  Al85  1  0.06893856  0.17948354  0.65185638  1
  Al0+  Al86  1  0.82084974  0.57127261  0.34766980  1
  Al0+  Al87  1  0.67782268  0.92810036  0.01376395  1
  Al0+  Al88  1  0.07332262  0.17797241  0.98407876  1
  Al0+  Al89  1  0.57389848  0.17833561  0.65227947  1
  Al0+  Al90  1  0.92619519  0.32140637  0.98540717  1
  Al0+  Al91  1  0.06988654  0.67954207  0.98734988  1
  Al0+  Al92  1  0.56901397  0.68142756  0.32032333  1
  Al0+  Al93  1  0.42925806  0.81978113  0.65173268  1
  Al0+  Al94  1  0.32141137  0.07129267  0.68301939  1
  Al0+  Al95  1  0.67581098  0.42729484  0.34959186  1
  Si0+  Si96  1  0.82115868  0.07029912  0.68045682  1
  Si0+  Si97  1  0.92777430  0.32341332  0.64711216  1
  Si0+  Si98  1  0.82371282  0.57334668  0.68644335  1
  Si0+  Si99  1  0.92934949  0.32133078  0.32094895  1
  Si0+  Si100  1  0.32128231  0.07171507  0.01615973  1
  Si0+  Si101  1  0.17881334  0.92848969  0.01614005  1
  Si0+  Si102  1  0.82509114  0.07089882  0.35189594  1
  Si0+  Si103  1  0.42599299  0.82503787  0.31785638  1
  Si0+  Si104  1  0.17759417  0.42803206  0.68184440  1
  Si0+  Si105  1  0.56952828  0.18019880  0.98902389  1
  Si0+  Si106  1  0.32016027  0.57039353  0.68052870  1
  Si0+  Si107  1  0.32140660  0.57326570  0.35122786  1
  Si0+  Si108  1  0.92908071  0.81997834  0.65230431  1
  Si0+  Si109  1  0.57381124  0.67906487  0.64932022  1
  Si0+  Si110  1  0.57436769  0.17627444  0.31471160  1
  Si0+  Si111  1  0.07306435  0.67517555  0.31783675  1
  Si0+  Si112  1  0.07119626  0.67771461  0.64971578  1
  Si0+  Si113  1  0.67841271  0.92770300  0.68088691  1
  Si0+  Si114  1  0.07093169  0.17962967  0.31836144  1
  Si0+  Si115  1  0.42903741  0.32119410  0.98691727  1
  Si0+  Si116  1  0.92751457  0.82311105  0.98185199  1
  Si0+  Si117  1  0.82286646  0.57207978  0.01419989  1
  Si0+  Si118  1  0.17812017  0.92897082  0.34614703  1
  Si0+  Si119  1  0.32014606  0.07064298  0.34911776  1
  O2-  O120  1  0.24896551  0.00105545  0.05791196  1
  O2-  O121  1  0.25277688  -0.00498140  0.38908314  1
  O2-  O122  1  0.25049007  -0.00173783  0.73372054  1
  O2-  O123  1  0.24841112  0.50076492  0.06465152  1
  O2-  O124  1  0.25323126  0.50429254  0.39633034  1
  O2-  O125  1  0.25099697  0.49702804  0.72238628  1
  O2-  O126  1  0.75487250  -0.00527399  0.06426639  1
  O2-  O127  1  0.75337830  0.00581264  0.39694425  1
  O2-  O128  1  0.74538485  0.00342518  0.72165278  1
  O2-  O129  1  0.75190969  0.50625909  0.05833543  1
  O2-  O130  1  0.74862281  0.49963451  0.39840346  1
  O2-  O131  1  0.75545775  0.50396388  0.72881749  1
  O2-  O132  1  -0.00006277  0.25043096  0.27748360  1
  O2-  O133  1  -0.00157892  0.25674323  0.60214677  1
  O2-  O134  1  -0.00015945  0.24982633  0.93636033  1
  O2-  O135  1  0.00350439  0.74302679  0.27404318  1
  O2-  O136  1  -0.00043524  0.74865874  0.60893719  1
  O2-  O137  1  -0.00316145  0.75503093  0.93755289  1
  O2-  O138  1  0.51088718  0.24983608  0.27006171  1
  O2-  O139  1  0.50180938  0.25141108  0.60379572  1
  O2-  O140  1  0.50275108  0.25368778  0.94474766  1
  O2-  O141  1  0.49401939  0.75660647  0.27422031  1
  O2-  O142  1  0.50767780  0.74981289  0.60426635  1
  O2-  O143  1  0.50162563  0.75144273  0.93507666  1
  O2-  O144  1  0.07395323  0.17965979  0.09839286  1
  O2-  O145  1  0.07024506  0.17806066  0.42367406  1
  O2-  O146  1  0.06656890  0.17951837  0.76411223  1
  O2-  O147  1  0.06778439  0.68116095  0.10063955  1
  O2-  O148  1  0.07502111  0.67837175  0.42380217  1
  O2-  O149  1  0.07164423  0.67678898  0.75463077  1
  O2-  O150  1  0.56571004  0.17875322  0.09411020  1
  O2-  O151  1  0.57056514  0.17290454  0.42001750  1
  O2-  O152  1  0.57508744  0.17979026  0.76654015  1
  O2-  O153  1  0.57245016  0.67717257  0.09621193  1
  O2-  O154  1  0.56645339  0.68375584  0.43405212  1
  O2-  O155  1  0.57307977  0.67902771  0.75444132  1
  O2-  O156  1  0.17871940  0.42832144  0.23560303  1
  O2-  O157  1  0.17610277  0.43073244  0.57637643  1
  O2-  O158  1  0.18305948  0.42792332  0.89843189  1
  O2-  O159  1  0.17741496  0.93062314  0.24105346  1
  O2-  O160  1  0.17720765  0.92939519  0.56774909  1
  O2-  O161  1  0.17848826  0.92715372  0.91147492  1
  O2-  O162  1  0.67849124  0.42899078  0.23615944  1
  O2-  O163  1  0.68013200  0.43355512  0.56749750  1
  O2-  O164  1  0.67818598  0.42723645  0.90009264  1
  O2-  O165  1  0.68137580  0.93055447  0.23535172  1
  O2-  O166  1  0.68231864  0.92491170  0.57562042  1
  O2-  O167  1  0.67695407  0.93393296  0.89952193  1
  O2-  O168  1  0.42786132  0.31782719  0.09213923  1
  O2-  O169  1  0.42792043  0.31505115  0.42963484  1
  O2-  O170  1  0.43038790  0.32439512  0.76705316  1
  O2-  O171  1  0.43028488  0.82370268  0.09931334  1
  O2-  O172  1  0.42522069  0.82428591  0.42362452  1
  O2-  O173  1  0.42927630  0.81799847  0.76424595  1
  O2-  O174  1  0.92722654  0.32149096  0.09971436  1
  O2-  O175  1  0.93098833  0.31840304  0.42621490  1
  O2-  O176  1  0.92727230  0.32248879  0.75231678  1
  O2-  O177  1  0.92908142  0.82211101  0.08759458  1
  O2-  O178  1  0.93376344  0.82155605  0.43284706  1
  O2-  O179  1  0.92836030  0.81897048  0.75702138  1
  O2-  O180  1  0.31881873  0.07197008  0.24359664  1
  O2-  O181  1  0.31819806  0.06978584  0.56875334  1
  O2-  O182  1  0.32356980  0.07305862  0.91176201  1
  O2-  O183  1  0.31870471  0.57504562  0.24626524  1
  O2-  O184  1  0.31800287  0.57155214  0.57517363  1
  O2-  O185  1  0.31925553  0.57157741  0.90159822  1
  O2-  O186  1  0.82744083  0.06956152  0.24694771  1
  O2-  O187  1  0.82388561  0.06718632  0.57519423  1
  O2-  O188  1  0.81976436  0.07080701  0.90153384  1
  O2-  O189  1  0.82314160  0.56878642  0.23427632  1
  O2-  O190  1  0.82480907  0.57569337  0.58104691  1
  O2-  O191  1  0.82332227  0.57073154  0.90843818  1
  O2-  O192  1  0.04387876  0.08808441  0.27006453  1
  O2-  O193  1  0.03536790  0.08289786  0.59766800  1
  O2-  O194  1  0.04701543  0.07881593  0.93154589  1
  O2-  O195  1  0.04830395  0.58000873  0.27586694  1
  O2-  O196  1  0.04243749  0.58599370  0.60157589  1
  O2-  O197  1  0.03951039  0.58513465  0.92870540  1
  O2-  O198  1  0.54104148  0.08489543  0.26749354  1
  O2-  O199  1  0.54509888  0.08065143  0.59782116  1
  O2-  O200  1  0.53912606  0.08997798  0.94052541  1
  O2-  O201  1  0.53869057  0.58531690  0.26608623  1
  O2-  O202  1  0.54395006  0.58708928  0.60293011  1
  O2-  O203  1  0.53839549  0.57978142  0.92935062  1
  O2-  O204  1  0.16325425  0.20627735  0.27239470  1
  O2-  O205  1  0.16556586  0.20783746  0.59640807  1
  O2-  O206  1  0.17134842  0.20706403  0.93027388  1
  O2-  O207  1  0.16603825  0.70251483  0.27109366  1
  O2-  O208  1  0.16175949  0.70438918  0.59967184  1
  O2-  O209  1  0.16561308  0.71169816  0.93261014  1
  O2-  O210  1  0.67160313  0.19397311  0.27338016  1
  O2-  O211  1  0.67238870  0.20387726  0.59738662  1
  O2-  O212  1  0.66312122  0.20390750  0.94446057  1
  O2-  O213  1  0.66547089  0.71224889  0.26751966  1
  O2-  O214  1  0.66940419  0.70259322  0.60581201  1
  O2-  O215  1  0.67144453  0.70083273  0.92756456  1
  O2-  O216  1  0.07810503  0.45615823  0.06084260  1
  O2-  O217  1  0.08578289  0.45639065  0.40786377  1
  O2-  O218  1  0.08590431  0.45829778  0.72806921  1
  O2-  O219  1  0.08709781  0.95537842  0.06447135  1
  O2-  O220  1  0.08755932  0.96061134  0.39407940  1
  O2-  O221  1  0.07897706  0.95541636  0.73428016  1
  O2-  O222  1  0.58213963  0.45986683  0.06731049  1
  O2-  O223  1  0.57657604  0.45771797  0.39976252  1
  O2-  O224  1  0.58317549  0.46177546  0.73413462  1
  O2-  O225  1  0.58205677  0.96153598  0.06928230  1
  O2-  O226  1  0.58263108  0.96031665  0.40215606  1
  O2-  O227  1  0.58485746  0.95121315  0.72488367  1
  O2-  O228  1  0.20783069  0.33018552  0.06657638  1
  O2-  O229  1  0.21463356  0.33172092  0.40129679  1
  O2-  O230  1  0.20151478  0.33472261  0.72603566  1
  O2-  O231  1  0.20763618  0.83839111  0.06599727  1
  O2-  O232  1  0.19919975  0.83505439  0.39325537  1
  O2-  O233  1  0.20506175  0.82714349  0.73107829  1
  O2-  O234  1  0.70808471  0.33435671  0.07040110  1
  O2-  O235  1  0.70406430  0.32766664  0.40103840  1
  O2-  O236  1  0.71069715  0.33246894  0.73166092  1
  O2-  O237  1  0.70400312  0.82723305  0.06206634  1
  O2-  O238  1  0.71321941  0.83558471  0.40361648  1
  O2-  O239  1  0.71052577  0.83769266  0.72947036  1
  O2-  O240  1  0.45332330  0.41776417  0.26377124  1
  O2-  O241  1  0.45716623  0.42172171  0.59849674  1
  O2-  O242  1  0.45266499  0.41459387  0.94221619  1
  O2-  O243  1  0.44993535  0.92008708  0.27427891  1
  O2-  O244  1  0.45581791  0.91706402  0.59742573  1
  O2-  O245  1  0.45844346  0.92223554  0.93258221  1
  O2-  O246  1  0.95867472  0.41370076  0.27651993  1
  O2-  O247  1  0.95173578  0.41856394  0.60287572  1
  O2-  O248  1  0.95092107  0.41830714  0.92822148  1
  O2-  O249  1  0.96364767  0.91463539  0.26267461  1
  O2-  O250  1  0.95644575  0.91081225  0.60295806  1
  O2-  O251  1  0.95361028  0.91706335  0.93752743  1
  O2-  O252  1  0.33584299  0.28117937  0.26224675  1
  O2-  O253  1  0.33077775  0.29490743  0.59914566  1
  O2-  O254  1  0.33879699  0.29035804  0.93905304  1
  O2-  O255  1  0.33090362  0.80101765  0.27317667  1
  O2-  O256  1  0.33331567  0.78625493  0.59641125  1
  O2-  O257  1  0.33086477  0.79653261  0.93251206  1
  O2-  O258  1  0.83687680  0.29464595  0.27426647  1
  O2-  O259  1  0.83591565  0.29465688  0.59977518  1
  O2-  O260  1  0.82841805  0.28768656  0.93313768  1
  O2-  O261  1  0.83389878  0.79098442  0.26511206  1
  O2-  O262  1  0.83724324  0.79116849  0.60404230  1
  O2-  O263  1  0.83470831  0.79827950  0.93411914  1
  O2-  O264  1  0.41108631  0.04296781  0.06732687  1
  O2-  O265  1  0.41269776  0.04774024  0.39690643  1
  O2-  O266  1  0.42131006  0.04403215  0.73379493  1
  O2-  O267  1  0.41739438  0.54463915  0.06967735  1
  O2-  O268  1  0.41433783  0.54671217  0.39715403  1
  O2-  O269  1  0.41261218  0.54616602  0.72775075  1
  O2-  O270  1  0.92347246  0.04767873  0.06732889  1
  O2-  O271  1  0.91809252  0.04030243  0.39806862  1
  O2-  O272  1  0.91005549  0.03692921  0.72964174  1
  O2-  O273  1  0.91581305  0.54552654  0.06054286  1
  O2-  O274  1  0.91844051  0.54427814  0.40496795  1
  O2-  O275  1  0.91837695  0.54803692  0.73123296  1
  O2-  O276  1  0.29213715  0.16229012  0.06590620  1
  O2-  O277  1  0.28729568  0.15983631  0.39757328  1
  O2-  O278  1  0.29184641  0.17037966  0.73400850  1
  O2-  O279  1  0.29157637  0.67218707  0.06854652  1
  O2-  O280  1  0.29545123  0.66722626  0.39876363  1
  O2-  O281  1  0.28833944  0.66062593  0.72787523  1
  O2-  O282  1  0.79122979  0.16638556  0.07254814  1
  O2-  O283  1  0.80434150  0.16531830  0.39853838  1
  O2-  O284  1  0.79884199  0.16390277  0.72612354  1
  O2-  O285  1  0.80196386  0.66773923  0.05781122  1
  O2-  O286  1  0.79269548  0.66973017  0.40107685  1
  O2-  O287  1  0.79977079  0.66703236  0.73364467  1
