# generated using pymatgen
data_Ca2Al2SiO7
_symmetry_space_group_name_H-M   'P 1'
_cell_length_a   15.46657157
_cell_length_b   15.46380632
_cell_length_c   15.28881090
_cell_angle_alpha   89.98813419
_cell_angle_beta   89.99294656
_cell_angle_gamma   89.98932570
_symmetry_Int_Tables_number   1
_chemical_formula_structural   Ca2Al2SiO7
_chemical_formula_sum   'Ca48 Al48 Si24 O168'
_cell_volume   3656.65633845
_cell_formula_units_Z   24
loop_
 _symmetry_equiv_pos_site_id
 _symmetry_equiv_pos_as_xyz
  1  'x, y, z'
loop_
 _atom_type_symbol
 _atom_type_oxidation_number
  Ca2+  2.0
  Al0+  0.0
  Si0+  0.0
  O2-  -2.0
loop_
 _atom_site_type_symbol
 _atom_site_label
 _atom_site_symmetry_multiplicity
 _atom_site_fract_x
 _atom_site_fract_y
 _atom_site_fract_z
 _atom_site_occupancy
  Ca2+  Ca0  1  0.17958620  0.08010167  0.17582698  1
  Ca2+  Ca1  1  0.17058352  0.07420475  0.50326714  1
  Ca2+  Ca2  1  0.17258789  0.07945860  0.83959260  1
  Ca2+  Ca3  1  0.16934747  0.58485821  0.17581389  1
  Ca2+  Ca4  1  0.17387125  0.58623378  0.49575205  1
  Ca2+  Ca5  1  0.16847163  0.58064377  0.83962244  1
  Ca2+  Ca6  1  0.66164779  0.07830870  0.17431956  1
  Ca2+  Ca7  1  0.66167646  0.08598883  0.49602408  1
  Ca2+  Ca8  1  0.65671173  0.08014374  0.83948088  1
  Ca2+  Ca9  1  0.67802625  0.58538678  0.17187203  1
  Ca2+  Ca10  1  0.67152289  0.58383772  0.50408651  1
  Ca2+  Ca11  1  0.67019170  0.58390673  0.84409744  1
  Ca2+  Ca12  1  0.07131610  0.33646556  0.16439303  1
  Ca2+  Ca13  1  0.07116954  0.33620939  0.49505972  1
  Ca2+  Ca14  1  0.07162485  0.33348504  0.83222598  1
  Ca2+  Ca15  1  0.09063884  0.82273727  0.16646554  1
  Ca2+  Ca16  1  0.09080288  0.83146234  0.49012492  1
  Ca2+  Ca17  1  0.08743494  0.82825427  0.82983713  1
  Ca2+  Ca18  1  0.57304297  0.32046427  0.16312189  1
  Ca2+  Ca19  1  0.57511597  0.32164668  0.49421602  1
  Ca2+  Ca20  1  0.57381355  0.32195359  0.82730807  1
  Ca2+  Ca21  1  0.58241700  0.83677681  0.16347743  1
  Ca2+  Ca22  1  0.58078384  0.82918459  0.49173180  1
  Ca2+  Ca23  1  0.59289241  0.82304898  0.83414344  1
  Ca2+  Ca24  1  0.33927228  0.42086667  0.17438417  1
  Ca2+  Ca25  1  0.34608493  0.42007464  0.50033959  1
  Ca2+  Ca26  1  0.33789306  0.41150699  0.83821271  1
  Ca2+  Ca27  1  0.33530731  0.92728378  0.17667591  1
  Ca2+  Ca28  1  0.32903310  0.91708240  0.49538347  1
  Ca2+  Ca29  1  0.33022264  0.92338637  0.83800097  1
  Ca2+  Ca30  1  0.83825413  0.42332024  0.17288799  1
  Ca2+  Ca31  1  0.83738976  0.41804884  0.50024696  1
  Ca2+  Ca32  1  0.83400490  0.41939216  0.84155963  1
  Ca2+  Ca33  1  0.81845227  0.92200809  0.17541346  1
  Ca2+  Ca34  1  0.82861444  0.92396063  0.49746532  1
  Ca2+  Ca35  1  0.82497263  0.92243329  0.84248533  1
  Ca2+  Ca36  1  0.41973302  0.16537748  0.16049930  1
  Ca2+  Ca37  1  0.42297635  0.17005527  0.48867852  1
  Ca2+  Ca38  1  0.42173535  0.16982258  0.83214079  1
  Ca2+  Ca39  1  0.41817442  0.67458893  0.16514204  1
  Ca2+  Ca40  1  0.42066274  0.67084005  0.49100111  1
  Ca2+  Ca41  1  0.43372707  0.66518917  0.82967506  1
  Ca2+  Ca42  1  0.90735104  0.17703169  0.16677198  1
  Ca2+  Ca43  1  0.91208716  0.17567447  0.49068358  1
  Ca2+  Ca44  1  0.90954100  0.18123035  0.82876224  1
  Ca2+  Ca45  1  0.92584125  0.65949821  0.16234999  1
  Ca2+  Ca46  1  0.92474030  0.66804397  0.48942159  1
  Ca2+  Ca47  1  0.92009516  0.66483901  0.83625300  1
  Al0+  Al48  1  -0.00086591  -0.00091987  0.00189093  1
  Al0+  Al49  1  -0.00234503  -0.00050444  0.33860467  1
  Al0+  Al50  1  -0.00112833  -0.00018308  0.67487338  1
  Al0+  Al51  1  0.00127534  0.50081719  -0.00539867  1
  Al0+  Al52  1  0.00091275  0.50101345  0.33127630  1
  Al0+  Al53  1  0.00230921  0.50222748  0.66423354  1
  Al0+  Al54  1  0.49714145  -0.00073875  0.00274641  1
  Al0+  Al55  1  0.49875358  -0.00275348  0.33581577  1
  Al0+  Al56  1  0.49957684  -0.00235475  0.66576919  1
  Al0+  Al57  1  0.50033809  0.50076809  -0.00471245  1
  Al0+  Al58  1  0.50260652  0.49906914  0.33476601  1
  Al0+  Al59  1  0.50395237  0.50061866  0.66187291  1
  Al0+  Al60  1  0.24686067  0.25021611  0.00134245  1
  Al0+  Al61  1  0.24692532  0.25163295  0.33618321  1
  Al0+  Al62  1  0.24778940  0.25167128  0.66545909  1
  Al0+  Al63  1  0.24989002  0.74788819  -0.00690564  1
  Al0+  Al64  1  0.25295087  0.74704692  0.33203890  1
  Al0+  Al65  1  0.25131076  0.74847054  0.67350249  1
  Al0+  Al66  1  0.74751961  0.25090429  -0.00842890  1
  Al0+  Al67  1  0.74806575  0.25142975  0.32758721  1
  Al0+  Al68  1  0.74855441  0.25269094  0.65972029  1
  Al0+  Al69  1  0.75220337  0.75072181  0.00536759  1
  Al0+  Al70  1  0.75315274  0.74977062  0.34278755  1
  Al0+  Al71  1  0.75373952  0.75079740  0.66336654  1
  Al0+  Al72  1  0.07031810  0.68189581  0.32068895  1
  Al0+  Al73  1  0.92996615  0.32001350  0.31873925  1
  Al0+  Al74  1  0.32094570  0.07377659  0.34970066  1
  Al0+  Al75  1  0.07131083  0.68038504  0.98427094  1
  Al0+  Al76  1  0.43090896  0.81793835  0.32019322  1
  Al0+  Al77  1  0.56798159  0.17791950  0.31625268  1
  Al0+  Al78  1  0.81909259  0.07410417  0.34748020  1
  Al0+  Al79  1  0.57440897  0.68067461  0.65214606  1
  Al0+  Al80  1  0.31750492  0.07044756  0.01309908  1
  Al0+  Al81  1  0.92915415  0.32001155  0.98631572  1
  Al0+  Al82  1  0.17984299  0.92744954  0.34517791  1
  Al0+  Al83  1  0.82323661  0.56949804  0.34862560  1
  Al0+  Al84  1  0.67975843  0.93027410  0.01273128  1
  Al0+  Al85  1  0.56894782  0.17630136  0.98450307  1
  Al0+  Al86  1  0.17869488  0.92840597  0.68290075  1
  Al0+  Al87  1  0.42599453  0.32165323  0.98563132  1
  Al0+  Al88  1  0.82138053  0.56839910  0.01351517  1
  Al0+  Al89  1  0.93039469  0.32196996  0.65169003  1
  Al0+  Al90  1  0.42582405  0.32270126  0.31778774  1
  Al0+  Al91  1  0.32286822  0.56828243  0.34535675  1
  Al0+  Al92  1  0.56925212  0.17594064  0.64962078  1
  Al0+  Al93  1  0.42653840  0.32103307  0.65068939  1
  Al0+  Al94  1  0.67711934  0.92854839  0.35070816  1
  Al0+  Al95  1  0.57322882  0.68123659  0.99002659  1
  Si0+  Si96  1  0.07030945  0.17608176  0.65140082  1
  Si0+  Si97  1  0.67608023  0.42700379  0.01597507  1
  Si0+  Si98  1  0.32177523  0.07306576  0.68376513  1
  Si0+  Si99  1  0.81893250  0.07347972  0.68221330  1
  Si0+  Si100  1  0.32305139  0.56873671  0.68323496  1
  Si0+  Si101  1  0.17873183  0.43075317  0.01415547  1
  Si0+  Si102  1  0.93045776  0.82288810  0.65206171  1
  Si0+  Si103  1  0.68067739  0.43067449  0.68260329  1
  Si0+  Si104  1  0.17622335  0.42884455  0.35014677  1
  Si0+  Si105  1  0.17659770  0.92458608  0.01667981  1
  Si0+  Si106  1  0.92623905  0.82397593  0.31679753  1
  Si0+  Si107  1  0.67922488  0.42902180  0.35108568  1
  Si0+  Si108  1  0.42747360  0.82148027  0.98196683  1
  Si0+  Si109  1  0.17669940  0.43024644  0.68261603  1
  Si0+  Si110  1  0.92798256  0.82288819  0.98407884  1
  Si0+  Si111  1  0.42675261  0.81904185  0.65089267  1
  Si0+  Si112  1  0.82320407  0.57186045  0.68311412  1
  Si0+  Si113  1  0.07149979  0.17449190  0.31786215  1
  Si0+  Si114  1  0.67983887  0.92770150  0.68218018  1
  Si0+  Si115  1  0.32273429  0.57094040  0.01339984  1
  Si0+  Si116  1  0.57646006  0.67745920  0.31770597  1
  Si0+  Si117  1  0.82268815  0.07558735  0.01470675  1
  Si0+  Si118  1  0.07140132  0.17611172  0.98456626  1
  Si0+  Si119  1  0.07235659  0.68125020  0.65094395  1
  O2-  O120  1  0.24291199  -0.00497353  0.05930665  1
  O2-  O121  1  0.24670063  0.00255333  0.39789121  1
  O2-  O122  1  0.25204014  0.00477103  0.72853454  1
  O2-  O123  1  0.25391294  0.49769530  0.05508432  1
  O2-  O124  1  0.25241321  0.48985042  0.39377314  1
  O2-  O125  1  0.25433221  0.49461652  0.72496459  1
  O2-  O126  1  0.75218032  0.00832860  0.05690368  1
  O2-  O127  1  0.74730304  0.00317793  0.40009673  1
  O2-  O128  1  0.74581546  0.00397157  0.72427160  1
  O2-  O129  1  0.74666363  0.49401002  0.06049392  1
  O2-  O130  1  0.74749865  0.49775124  0.39755440  1
  O2-  O131  1  0.75201552  0.50172669  0.72591308  1
  O2-  O132  1  0.00225329  0.24259120  0.27281921  1
  O2-  O133  1  0.00268964  0.24488593  0.60587964  1
  O2-  O134  1  -0.00160516  0.24003868  0.93941173  1
  O2-  O135  1  -0.00327464  0.75698412  0.27292527  1
  O2-  O136  1  0.00560861  0.75617673  0.61004099  1
  O2-  O137  1  -0.00050324  0.75788886  0.93740537  1
  O2-  O138  1  0.49060457  0.24504458  0.26747565  1
  O2-  O139  1  0.49233638  0.24359270  0.60170328  1
  O2-  O140  1  0.49800292  0.25003657  0.93573419  1
  O2-  O141  1  0.50946008  0.74705063  0.27329526  1
  O2-  O142  1  0.49835783  0.75361956  0.60671194  1
  O2-  O143  1  0.49888342  0.75455277  0.93922800  1
  O2-  O144  1  0.07289187  0.17848430  0.08962884  1
  O2-  O145  1  0.07010939  0.17585897  0.42373469  1
  O2-  O146  1  0.06828190  0.17771422  0.75734394  1
  O2-  O147  1  0.07295232  0.67908142  0.09674290  1
  O2-  O148  1  0.07007335  0.68206134  0.43441064  1
  O2-  O149  1  0.07053973  0.67922943  0.75616548  1
  O2-  O150  1  0.56878090  0.17572134  0.09722609  1
  O2-  O151  1  0.56895280  0.18154518  0.42981677  1
  O2-  O152  1  0.56948695  0.17683666  0.76327187  1
  O2-  O153  1  0.57189327  0.68154753  0.10244267  1
  O2-  O154  1  0.57411966  0.67843043  0.42378328  1
  O2-  O155  1  0.57567205  0.68130369  0.76569774  1
  O2-  O156  1  0.17137260  0.43352033  0.24455268  1
  O2-  O157  1  0.16980893  0.43547478  0.57848411  1
  O2-  O158  1  0.17702162  0.43326824  0.90849540  1
  O2-  O159  1  0.18296143  0.92712251  0.23156679  1
  O2-  O160  1  0.17875352  0.92688217  0.57053842  1
  O2-  O161  1  0.17800415  0.92537114  0.91055978  1
  O2-  O162  1  0.67995525  0.43197814  0.24551040  1
  O2-  O163  1  0.68244266  0.43269997  0.57783294  1
  O2-  O164  1  0.67763986  0.42958136  0.90981300  1
  O2-  O165  1  0.67987532  0.92646942  0.23710878  1
  O2-  O166  1  0.68299076  0.92413291  0.57806916  1
  O2-  O167  1  0.68333397  0.92857043  0.89861998  1
  O2-  O168  1  0.42635935  0.32266271  0.09837100  1
  O2-  O169  1  0.43180089  0.32367454  0.43117460  1
  O2-  O170  1  0.42916292  0.32121540  0.76431765  1
  O2-  O171  1  0.42439808  0.81921497  0.08717684  1
  O2-  O172  1  0.42922043  0.81377091  0.43365753  1
  O2-  O173  1  0.42641782  0.81669174  0.75677478  1
  O2-  O174  1  0.93206760  0.32244041  0.09888194  1
  O2-  O175  1  0.93311462  0.32157697  0.43203067  1
  O2-  O176  1  0.93167406  0.32319608  0.76497136  1
  O2-  O177  1  0.92811811  0.82203766  0.08891698  1
  O2-  O178  1  0.92672545  0.82157998  0.42299990  1
  O2-  O179  1  0.92792438  0.81995030  0.75726929  1
  O2-  O180  1  0.31965831  0.07205911  0.23596580  1
  O2-  O181  1  0.32020850  0.07219359  0.57885915  1
  O2-  O182  1  0.31533999  0.06866718  0.89932443  1
  O2-  O183  1  0.32004444  0.57017194  0.23199898  1
  O2-  O184  1  0.32056305  0.57179432  0.57843196  1
  O2-  O185  1  0.32135010  0.57163389  0.90781144  1
  O2-  O186  1  0.81833647  0.07258199  0.23371435  1
  O2-  O187  1  0.82233269  0.07144579  0.57786760  1
  O2-  O188  1  0.82488961  0.07327848  0.90848878  1
  O2-  O189  1  0.82434229  0.56788228  0.23552411  1
  O2-  O190  1  0.82449079  0.57139746  0.57834460  1
  O2-  O191  1  0.82090004  0.56778563  0.89952800  1
  O2-  O192  1  0.04772290  0.08035157  0.27249464  1
  O2-  O193  1  0.04403957  0.08157057  0.60830600  1
  O2-  O194  1  0.05190232  0.07997125  0.93996715  1
  O2-  O195  1  0.03815939  0.58643458  0.26599580  1
  O2-  O196  1  0.04127497  0.59141911  0.60268585  1
  O2-  O197  1  0.03755921  0.58607693  0.92713683  1
  O2-  O198  1  0.54480610  0.07667687  0.26869194  1
  O2-  O199  1  0.54785149  0.07442094  0.60012693  1
  O2-  O200  1  0.53730357  0.07829977  0.93142157  1
  O2-  O201  1  0.55143890  0.58375750  0.27344724  1
  O2-  O202  1  0.54540310  0.58453928  0.59818213  1
  O2-  O203  1  0.54235359  0.58600202  0.93236732  1
  O2-  O204  1  0.16457401  0.20158065  0.27198003  1
  O2-  O205  1  0.16412578  0.20011634  0.60615065  1
  O2-  O206  1  0.16145848  0.20765314  0.93468264  1
  O2-  O207  1  0.16664347  0.71021153  0.26570801  1
  O2-  O208  1  0.16652948  0.70566599  0.60730090  1
  O2-  O209  1  0.16750825  0.70775464  0.92608833  1
  O2-  O210  1  0.66466200  0.21066829  0.26264977  1
  O2-  O211  1  0.66605077  0.20956994  0.59709831  1
  O2-  O212  1  0.66732754  0.20218654  0.92922936  1
  O2-  O213  1  0.67215496  0.70162705  0.27614726  1
  O2-  O214  1  0.67099413  0.71107163  0.59830003  1
  O2-  O215  1  0.66981075  0.71277164  0.93498126  1
  O2-  O216  1  0.08925801  0.46458666  0.06174394  1
  O2-  O217  1  0.08747857  0.46504811  0.39991704  1
  O2-  O218  1  0.08839772  0.46653047  0.73360402  1
  O2-  O219  1  0.08102088  0.94492471  0.06051631  1
  O2-  O220  1  0.07955746  0.94897323  0.39802592  1
  O2-  O221  1  0.08151364  0.95622530  0.73942645  1
  O2-  O222  1  0.58297071  0.45476864  0.06108386  1
  O2-  O223  1  0.58695816  0.45482405  0.39971394  1
  O2-  O224  1  0.58913258  0.45977829  0.73016511  1
  O2-  O225  1  0.58141272  0.95508428  0.06467415  1
  O2-  O226  1  0.57864956  0.95208957  0.40449973  1
  O2-  O227  1  0.58541437  0.94822737  0.72833483  1
  O2-  O228  1  0.19847781  0.33746233  0.06112681  1
  O2-  O229  1  0.18954546  0.33305892  0.39554877  1
  O2-  O230  1  0.19543580  0.33544768  0.72876536  1
  O2-  O231  1  0.20434733  0.82988754  0.05867539  1
  O2-  O232  1  0.21405646  0.83087114  0.39910921  1
  O2-  O233  1  0.21082657  0.83188255  0.73847748  1
  O2-  O234  1  0.70067608  0.33206058  0.05874887  1
  O2-  O235  1  0.70692386  0.33603069  0.39599179  1
  O2-  O236  1  0.70912809  0.33829749  0.72890808  1
  O2-  O237  1  0.71372992  0.83632252  0.06899973  1
  O2-  O238  1  0.70946218  0.83200826  0.40647424  1
  O2-  O239  1  0.71554672  0.83776557  0.73029203  1
  O2-  O240  1  0.46048363  0.42024343  0.26575585  1
  O2-  O241  1  0.46129960  0.41805713  0.59928528  1
  O2-  O242  1  0.45358884  0.42032815  0.93166804  1
  O2-  O243  1  0.45769458  0.91495752  0.26650444  1
  O2-  O244  1  0.44802735  0.91388059  0.60703753  1
  O2-  O245  1  0.45136114  0.91501347  0.93625818  1
  O2-  O246  1  0.96593827  0.41503886  0.26507320  1
  O2-  O247  1  0.96514439  0.41818900  0.59900406  1
  O2-  O248  1  0.96669400  0.41340293  0.92993735  1
  O2-  O249  1  0.94728293  0.91878327  0.27212209  1
  O2-  O250  1  0.95377625  0.91703991  0.60816481  1
  O2-  O251  1  0.94899553  0.91805725  0.93730970  1
  O2-  O252  1  0.32168713  0.30705181  0.27233413  1
  O2-  O253  1  0.32324842  0.30554360  0.60259364  1
  O2-  O254  1  0.32608381  0.29459632  0.93383968  1
  O2-  O255  1  0.33783890  0.78178649  0.26350927  1
  O2-  O256  1  0.33428227  0.78827200  0.60576470  1
  O2-  O257  1  0.33586787  0.79323328  0.93261669  1
  O2-  O258  1  0.83334792  0.29391500  0.26361054  1
  O2-  O259  1  0.83377518  0.29486731  0.59785536  1
  O2-  O260  1  0.83239284  0.29495852  0.92923130  1
  O2-  O261  1  0.83319147  0.79455125  0.27249517  1
  O2-  O262  1  0.84177636  0.79127923  0.60163989  1
  O2-  O263  1  0.83667816  0.79250513  0.93579042  1
  O2-  O264  1  0.41273679  0.03856517  0.06749752  1
  O2-  O265  1  0.41678144  0.04020650  0.40305180  1
  O2-  O266  1  0.41496984  0.04410024  0.72994555  1
  O2-  O267  1  0.41532840  0.54696562  0.06031155  1
  O2-  O268  1  0.42030888  0.54265878  0.40116979  1
  O2-  O269  1  0.41690379  0.54339753  0.72847684  1
  O2-  O270  1  0.91639194  0.05065041  0.06117694  1
  O2-  O271  1  0.91685839  0.04592168  0.40338801  1
  O2-  O272  1  0.90900293  0.04449553  0.73329746  1
  O2-  O273  1  0.91906537  0.53651870  0.06444635  1
  O2-  O274  1  0.91910736  0.53635022  0.40313431  1
  O2-  O275  1  0.91583774  0.54351764  0.72939654  1
  O2-  O276  1  0.28565841  0.16666624  0.06698706  1
  O2-  O277  1  0.29359937  0.17273706  0.40264526  1
  O2-  O278  1  0.29563056  0.16745728  0.72900783  1
  O2-  O279  1  0.29162102  0.66282494  0.05862009  1
  O2-  O280  1  0.28648607  0.66155215  0.40229282  1
  O2-  O281  1  0.29206624  0.65821029  0.73368077  1
  O2-  O282  1  0.79884004  0.17090540  0.05695215  1
  O2-  O283  1  0.79187119  0.17365136  0.39887399  1
  O2-  O284  1  0.79246394  0.16720122  0.72688890  1
  O2-  O285  1  0.79385496  0.66518618  0.06755735  1
  O2-  O286  1  0.79729647  0.66581485  0.40552652  1
  O2-  O287  1  0.79633225  0.66495966  0.72901539  1
