# generated using pymatgen
data_Ca2Al2SiO7
_symmetry_space_group_name_H-M   'P 1'
_cell_length_a   15.47236373
_cell_length_b   15.47200988
_cell_length_c   15.29461280
_cell_angle_alpha   89.98552963
_cell_angle_beta   89.99796049
_cell_angle_gamma   90.01780915
_symmetry_Int_Tables_number   1
_chemical_formula_structural   Ca2Al2SiO7
_chemical_formula_sum   'Ca48 Al48 Si24 O168'
_cell_volume   3661.35510647
_cell_formula_units_Z   24
loop_
 _symmetry_equiv_pos_site_id
 _symmetry_equiv_pos_as_xyz
  1  'x, y, z'
loop_
 _atom_type_symbol
 _atom_type_oxidation_number
  Ca2+  2.0
  Al0+  0.0
  Si0+  0.0
  O2-  -2.0
loop_
 _atom_site_type_symbol
 _atom_site_label
 _atom_site_symmetry_multiplicity
 _atom_site_fract_x
 _atom_site_fract_y
 _atom_site_fract_z
 _atom_site_occupancy
  Ca2+  Ca0  1  0.17526159  0.08339116  0.16355982  1
  Ca2+  Ca1  1  0.17873488  0.07743004  0.51029466  1
  Ca2+  Ca2  1  0.17338456  0.06974897  0.83788545  1
  Ca2+  Ca3  1  0.17487416  0.58800671  0.15883958  1
  Ca2+  Ca4  1  0.16940014  0.57672866  0.51492949  1
  Ca2+  Ca5  1  0.17133487  0.58246141  0.84021945  1
  Ca2+  Ca6  1  0.66020157  0.06715123  0.16861280  1
  Ca2+  Ca7  1  0.66953907  0.07649171  0.50953590  1
  Ca2+  Ca8  1  0.67048986  0.08172850  0.83587333  1
  Ca2+  Ca9  1  0.67294448  0.59025850  0.17018798  1
  Ca2+  Ca10  1  0.66693655  0.58980166  0.50948408  1
  Ca2+  Ca11  1  0.68012351  0.60300634  0.83353346  1
  Ca2+  Ca12  1  0.08843913  0.32724963  0.15351789  1
  Ca2+  Ca13  1  0.08534212  0.33456545  0.50039596  1
  Ca2+  Ca14  1  0.09622466  0.32951751  0.83265329  1
  Ca2+  Ca15  1  0.08324052  0.82973917  0.15442167  1
  Ca2+  Ca16  1  0.08202388  0.83582424  0.50743937  1
  Ca2+  Ca17  1  0.08569591  0.82590149  0.82430363  1
  Ca2+  Ca18  1  0.57272289  0.32698528  0.15709898  1
  Ca2+  Ca19  1  0.58494644  0.32382576  0.50095889  1
  Ca2+  Ca20  1  0.57592275  0.32653465  0.82855303  1
  Ca2+  Ca21  1  0.58121379  0.83458076  0.16187336  1
  Ca2+  Ca22  1  0.58073539  0.82528258  0.50033147  1
  Ca2+  Ca23  1  0.56987586  0.83514737  0.82857863  1
  Ca2+  Ca24  1  0.33135684  0.41600391  0.16071465  1
  Ca2+  Ca25  1  0.32648320  0.42482167  0.51079232  1
  Ca2+  Ca26  1  0.32804388  0.42845820  0.83722589  1
  Ca2+  Ca27  1  0.33406426  0.92307855  0.16388549  1
  Ca2+  Ca28  1  0.33233030  0.92398031  0.51033121  1
  Ca2+  Ca29  1  0.33128923  0.91796962  0.84146729  1
  Ca2+  Ca30  1  0.83527415  0.42389112  0.16430970  1
  Ca2+  Ca31  1  0.82833058  0.42519771  0.51089765  1
  Ca2+  Ca32  1  0.83044722  0.42930431  0.83647414  1
  Ca2+  Ca33  1  0.82009452  0.91223152  0.16899509  1
  Ca2+  Ca34  1  0.82844948  0.91621141  0.50913077  1
  Ca2+  Ca35  1  0.82817883  0.91400332  0.83451072  1
  Ca2+  Ca36  1  0.40821856  0.16867532  0.15650308  1
  Ca2+  Ca37  1  0.41617609  0.15965328  0.50128596  1
  Ca2+  Ca38  1  0.40972973  0.16981531  0.82909078  1
  Ca2+  Ca39  1  0.42391712  0.67138810  0.15447835  1
  Ca2+  Ca40  1  0.41993130  0.67034500  0.50069262  1
  Ca2+  Ca41  1  0.41229701  0.67613198  0.82463437  1
  Ca2+  Ca42  1  0.92612750  0.17045585  0.15624386  1
  Ca2+  Ca43  1  0.91590031  0.16479740  0.50009820  1
  Ca2+  Ca44  1  0.92342875  0.16375615  0.82701367  1
  Ca2+  Ca45  1  0.92403259  0.66689358  0.15636913  1
  Ca2+  Ca46  1  0.91935130  0.66887854  0.50665771  1
  Ca2+  Ca47  1  0.92588880  0.66636739  0.82673955  1
  Al0+  Al48  1  -0.00079041  0.00122538  -0.00066962  1
  Al0+  Al49  1  -0.00006902  0.00087152  0.33019943  1
  Al0+  Al50  1  -0.00001081  0.00146690  0.66790328  1
  Al0+  Al51  1  -0.00149830  0.50010059  0.00514479  1
  Al0+  Al52  1  -0.00085724  0.50059129  0.33220147  1
  Al0+  Al53  1  -0.00373372  0.49769753  0.66968057  1
  Al0+  Al54  1  0.50214635  -0.00115735  0.00389202  1
  Al0+  Al55  1  0.50110769  -0.00128620  0.34218035  1
  Al0+  Al56  1  0.50145441  0.00149497  0.66146988  1
  Al0+  Al57  1  0.50342020  0.49840174  -0.00326777  1
  Al0+  Al58  1  0.50125045  0.49834366  0.32888965  1
  Al0+  Al59  1  0.49846577  0.49638827  0.66576921  1
  Al0+  Al60  1  0.25009113  0.25088188  -0.00418204  1
  Al0+  Al61  1  0.24954973  0.25028522  0.33781222  1
  Al0+  Al62  1  0.24955538  0.24941952  0.66940350  1
  Al0+  Al63  1  0.25066317  0.74955802  0.00184124  1
  Al0+  Al64  1  0.24976918  0.75073005  0.33311143  1
  Al0+  Al65  1  0.24902013  0.74920883  0.65991480  1
  Al0+  Al66  1  0.75091852  0.25146937  0.00175140  1
  Al0+  Al67  1  0.74988204  0.25176626  0.32913313  1
  Al0+  Al68  1  0.74987117  0.24964013  0.66649420  1
  Al0+  Al69  1  0.75176606  0.75099618  0.01058971  1
  Al0+  Al70  1  0.75096711  0.75015306  0.33488970  1
  Al0+  Al71  1  0.75045290  0.75134266  0.66423109  1
  Al0+  Al72  1  0.32060839  0.07001435  0.01313968  1
  Al0+  Al73  1  0.81909369  0.57003680  0.01531137  1
  Al0+  Al74  1  0.57224958  0.17960201  0.65326511  1
  Al0+  Al75  1  0.18048963  0.43029929  0.01497697  1
  Al0+  Al76  1  0.07066820  0.17881988  0.98386622  1
  Al0+  Al77  1  0.43104706  0.82008413  0.98868872  1
  Al0+  Al78  1  0.07005120  0.67990820  0.98740889  1
  Al0+  Al79  1  0.32233160  0.57204863  0.67925419  1
  Al0+  Al80  1  0.68086062  0.93073235  0.01268568  1
  Al0+  Al81  1  0.32401760  0.06943119  0.68291778  1
  Al0+  Al82  1  0.32505628  0.57270595  0.01456101  1
  Al0+  Al83  1  0.82072533  0.07242681  0.67959579  1
  Al0+  Al84  1  0.17629671  0.42910722  0.68137656  1
  Al0+  Al85  1  0.81715403  0.57216603  0.68000273  1
  Al0+  Al86  1  0.68089230  0.92824431  0.35105683  1
  Al0+  Al87  1  0.07083370  0.67599673  0.65227091  1
  Al0+  Al88  1  0.17694666  0.92681222  0.01477764  1
  Al0+  Al89  1  0.17902395  0.92813519  0.68014321  1
  Al0+  Al90  1  0.42898636  0.32157000  0.98424346  1
  Al0+  Al91  1  0.31873235  0.07108621  0.34804302  1
  Al0+  Al92  1  0.92977536  0.82290527  0.65277388  1
  Al0+  Al93  1  0.57049319  0.67895497  0.31837475  1
  Al0+  Al94  1  0.56994491  0.67827478  0.65459866  1
  Al0+  Al95  1  0.42613085  0.82243611  0.65113495  1
  Si0+  Si96  1  0.42642451  0.31913835  0.64747614  1
  Si0+  Si97  1  0.93021349  0.82146902  0.31768994  1
  Si0+  Si98  1  0.07109090  0.18120908  0.31875980  1
  Si0+  Si99  1  0.17493875  0.92658853  0.35019563  1
  Si0+  Si100  1  0.57273569  0.17709237  0.98506436  1
  Si0+  Si101  1  0.57167679  0.17805086  0.31808563  1
  Si0+  Si102  1  0.82089281  0.56931310  0.35014963  1
  Si0+  Si103  1  0.67830558  0.42799871  0.34819191  1
  Si0+  Si104  1  0.67715853  0.42639232  0.68276196  1
  Si0+  Si105  1  0.92840287  0.32276873  0.31714344  1
  Si0+  Si106  1  0.57548693  0.67809308  0.98549112  1
  Si0+  Si107  1  0.82270687  0.07524839  0.01761880  1
  Si0+  Si108  1  0.67830742  0.42433185  0.01842756  1
  Si0+  Si109  1  0.42838700  0.31886532  0.31856324  1
  Si0+  Si110  1  0.42801984  0.82293010  0.31567812  1
  Si0+  Si111  1  0.17891126  0.43045101  0.34725983  1
  Si0+  Si112  1  0.92703140  0.32000871  0.65117770  1
  Si0+  Si113  1  0.92608277  0.82222921  0.98531022  1
  Si0+  Si114  1  0.07092358  0.18038986  0.65011243  1
  Si0+  Si115  1  0.07072526  0.67720810  0.31736481  1
  Si0+  Si116  1  0.82244677  0.07361263  0.34800494  1
  Si0+  Si117  1  0.92708925  0.32247341  0.98181431  1
  Si0+  Si118  1  0.67901655  0.92839515  0.68364932  1
  Si0+  Si119  1  0.32269372  0.57089406  0.34618523  1
  O2-  O120  1  0.24891206  -0.00117453  0.06537634  1
  O2-  O121  1  0.24584613  -0.00625383  0.39228547  1
  O2-  O122  1  0.25791593  -0.00832540  0.73067982  1
  O2-  O123  1  0.25324325  0.50065602  0.06661927  1
  O2-  O124  1  0.24751417  0.50374132  0.38823156  1
  O2-  O125  1  0.24442348  0.50576721  0.72803369  1
  O2-  O126  1  0.75457285  0.00638078  0.06163461  1
  O2-  O127  1  0.75541648  0.00520662  0.39396911  1
  O2-  O128  1  0.74743923  -0.00222811  0.72699922  1
  O2-  O129  1  0.74309352  0.49669881  0.06308113  1
  O2-  O130  1  0.74708563  0.50060607  0.39134556  1
  O2-  O131  1  0.73674123  0.50309140  0.72630797  1
  O2-  O132  1  -0.00134714  0.25093886  0.27602741  1
  O2-  O133  1  0.00029830  0.25203974  0.60710314  1
  O2-  O134  1  -0.00515823  0.25358718  0.93764641  1
  O2-  O135  1  0.00388348  0.75294482  0.27614729  1
  O2-  O136  1  0.00146415  0.75085599  0.60129267  1
  O2-  O137  1  -0.00052603  0.75898168  0.94247618  1
  O2-  O138  1  0.49692497  0.24503829  0.27605156  1
  O2-  O139  1  0.49519557  0.25044185  0.60297908  1
  O2-  O140  1  0.50336373  0.24452298  0.94097287  1
  O2-  O141  1  0.49465263  0.75197604  0.27136439  1
  O2-  O142  1  0.49663038  0.74727649  0.60220227  1
  O2-  O143  1  0.50128359  0.74043637  0.94298591  1
  O2-  O144  1  0.06843883  0.18163394  0.09836282  1
  O2-  O145  1  0.06979774  0.18300283  0.42375627  1
  O2-  O146  1  0.06951869  0.18134157  0.75456138  1
  O2-  O147  1  0.06668951  0.68073121  0.10181312  1
  O2-  O148  1  0.06803310  0.67114527  0.42161601  1
  O2-  O149  1  0.06713496  0.67351802  0.76536090  1
  O2-  O150  1  0.57316963  0.17900516  0.09144624  1
  O2-  O151  1  0.57601788  0.18280167  0.42263490  1
  O2-  O152  1  0.57764051  0.18476713  0.76575782  1
  O2-  O153  1  0.57636830  0.68104297  0.09174053  1
  O2-  O154  1  0.56942805  0.67720488  0.43088381  1
  O2-  O155  1  0.57299062  0.68395389  0.76776840  1
  O2-  O156  1  0.17859297  0.42681005  0.24291402  1
  O2-  O157  1  0.17866019  0.42796195  0.56608000  1
  O2-  O158  1  0.18054052  0.43219806  0.90246696  1
  O2-  O159  1  0.17212256  0.92677227  0.24494805  1
  O2-  O160  1  0.17680699  0.93572529  0.56582019  1
  O2-  O161  1  0.17671284  0.92690067  0.90211549  1
  O2-  O162  1  0.68033791  0.42571805  0.24354170  1
  O2-  O163  1  0.68221453  0.42331180  0.57642134  1
  O2-  O164  1  0.68165749  0.41687815  0.91374687  1
  O2-  O165  1  0.68158748  0.92993220  0.23773581  1
  O2-  O166  1  0.68181660  0.92917141  0.57769005  1
  O2-  O167  1  0.68229297  0.93131638  0.90017372  1
  O2-  O168  1  0.43072664  0.31896344  0.09865901  1
  O2-  O169  1  0.42949200  0.32045642  0.42323169  1
  O2-  O170  1  0.42756404  0.31892288  0.75256522  1
  O2-  O171  1  0.43506192  0.82154696  0.10235450  1
  O2-  O172  1  0.42768423  0.82116355  0.42082309  1
  O2-  O173  1  0.42956371  0.82492218  0.76466043  1
  O2-  O174  1  0.92669407  0.32000660  0.08842898  1
  O2-  O175  1  0.92750195  0.32458513  0.42199253  1
  O2-  O176  1  0.92280775  0.31764875  0.75541561  1
  O2-  O177  1  0.92444066  0.81871162  0.09185618  1
  O2-  O178  1  0.92978332  0.82221884  0.42222523  1
  O2-  O179  1  0.92768392  0.82129712  0.76593998  1
  O2-  O180  1  0.31639271  0.07532213  0.23539718  1
  O2-  O181  1  0.31889978  0.07143210  0.56855456  1
  O2-  O182  1  0.32174894  0.06810734  0.90068358  1
  O2-  O183  1  0.32276736  0.56927826  0.24150448  1
  O2-  O184  1  0.32286618  0.56634044  0.56423258  1
  O2-  O185  1  0.32382327  0.57290966  0.90196915  1
  O2-  O186  1  0.82277859  0.07376166  0.24261820  1
  O2-  O187  1  0.81859607  0.07330169  0.56585790  1
  O2-  O188  1  0.82091879  0.07809143  0.91240545  1
  O2-  O189  1  0.82222080  0.56680886  0.24514686  1
  O2-  O190  1  0.81770331  0.56794110  0.56616792  1
  O2-  O191  1  0.81715423  0.57085501  0.90275291  1
  O2-  O192  1  0.04522178  0.08893425  0.27087031  1
  O2-  O193  1  0.04063303  0.09047560  0.60096900  1
  O2-  O194  1  0.03890844  0.08245271  0.93034883  1
  O2-  O195  1  0.03787434  0.58731083  0.26815292  1
  O2-  O196  1  0.03568879  0.57817616  0.59876323  1
  O2-  O197  1  0.03366687  0.58382154  0.93751538  1
  O2-  O198  1  0.54683939  0.08372244  0.27526828  1
  O2-  O199  1  0.54710194  0.08365756  0.59568602  1
  O2-  O200  1  0.55094752  0.08296138  0.94084175  1
  O2-  O201  1  0.54437544  0.58042694  0.26414213  1
  O2-  O202  1  0.54815452  0.57660054  0.60309283  1
  O2-  O203  1  0.56304862  0.58118402  0.94316873  1
  O2-  O204  1  0.16196063  0.21300305  0.27199011  1
  O2-  O205  1  0.16195491  0.21009713  0.60135316  1
  O2-  O206  1  0.16545933  0.21117720  0.92981088  1
  O2-  O207  1  0.16477826  0.70138039  0.27226665  1
  O2-  O208  1  0.16831277  0.69942680  0.59528004  1
  O2-  O209  1  0.16844338  0.70451798  0.93663356  1
  O2-  O210  1  0.66182407  0.20926191  0.26831531  1
  O2-  O211  1  0.66689746  0.21551781  0.59581755  1
  O2-  O212  1  0.66680653  0.20482850  0.94099207  1
  O2-  O213  1  0.66902668  0.71010840  0.26714434  1
  O2-  O214  1  0.66723765  0.70934225  0.59925906  1
  O2-  O215  1  0.66779800  0.71220811  0.94266141  1
  O2-  O216  1  0.08144514  0.45554585  0.06912953  1
  O2-  O217  1  0.08549525  0.45648188  0.39336808  1
  O2-  O218  1  0.07515329  0.44628453  0.73114542  1
  O2-  O219  1  0.07753110  0.95604933  0.06748412  1
  O2-  O220  1  0.08141181  0.95508402  0.39528176  1
  O2-  O221  1  0.08330973  0.96298492  0.73314536  1
  O2-  O222  1  0.58374865  0.44638717  0.06314508  1
  O2-  O223  1  0.58528180  0.45199465  0.39463393  1
  O2-  O224  1  0.58029007  0.43973013  0.72396595  1
  O2-  O225  1  0.58688464  0.96207470  0.07204308  1
  O2-  O226  1  0.58535416  0.95794181  0.40597736  1
  O2-  O227  1  0.58558982  0.95561841  0.72685041  1
  O2-  O228  1  0.21102261  0.33196552  0.06784701  1
  O2-  O229  1  0.20749344  0.34000361  0.39706089  1
  O2-  O230  1  0.20891974  0.33233385  0.73283118  1
  O2-  O231  1  0.20563213  0.82992097  0.07025751  1
  O2-  O232  1  0.19751382  0.83146220  0.39502170  1
  O2-  O233  1  0.19536030  0.82503302  0.72460175  1
  O2-  O234  1  0.70780816  0.33338080  0.06985710  1
  O2-  O235  1  0.70954547  0.33671392  0.39588336  1
  O2-  O236  1  0.71324095  0.33783380  0.73087716  1
  O2-  O237  1  0.71348453  0.83745531  0.07305702  1
  O2-  O238  1  0.71472980  0.83235559  0.40395413  1
  O2-  O239  1  0.70648844  0.83613381  0.72949363  1
  O2-  O240  1  0.45917024  0.40864266  0.26884756  1
  O2-  O241  1  0.45267584  0.41191393  0.59947449  1
  O2-  O242  1  0.46254368  0.41667184  0.92898985  1
  O2-  O243  1  0.45813646  0.91682188  0.27265222  1
  O2-  O244  1  0.45847695  0.91924530  0.59630883  1
  O2-  O245  1  0.46675441  0.91542539  0.93548608  1
  O2-  O246  1  0.95701534  0.41416502  0.26880226  1
  O2-  O247  1  0.95227830  0.41158595  0.60162401  1
  O2-  O248  1  0.95106034  0.41700115  0.93922522  1
  O2-  O249  1  0.95307160  0.91478446  0.26941370  1
  O2-  O250  1  0.95781411  0.92152559  0.59764783  1
  O2-  O251  1  0.94211609  0.91879307  0.94332191  1
  O2-  O252  1  0.33518647  0.29238995  0.27277928  1
  O2-  O253  1  0.33308986  0.29240908  0.60049975  1
  O2-  O254  1  0.33361665  0.29220584  0.92965406  1
  O2-  O255  1  0.33215954  0.80122132  0.27158220  1
  O2-  O256  1  0.32877333  0.79795184  0.59395019  1
  O2-  O257  1  0.33338807  0.79353140  0.93699086  1
  O2-  O258  1  0.83676463  0.29647753  0.26769366  1
  O2-  O259  1  0.83771376  0.28930655  0.59952895  1
  O2-  O260  1  0.83269490  0.29800966  0.93725471  1
  O2-  O261  1  0.83954427  0.78968922  0.27027914  1
  O2-  O262  1  0.83282412  0.79234700  0.59712983  1
  O2-  O263  1  0.83405300  0.79029952  0.94070435  1
  O2-  O264  1  0.41918659  0.04328909  0.06773783  1
  O2-  O265  1  0.41648699  0.04440205  0.40112223  1
  O2-  O266  1  0.42699969  0.05297621  0.72939507  1
  O2-  O267  1  0.42514652  0.54393202  0.06545184  1
  O2-  O268  1  0.41334408  0.53797587  0.39234681  1
  O2-  O269  1  0.41886886  0.53892454  0.73273555  1
  O2-  O270  1  0.91606393  0.05046843  0.06397711  1
  O2-  O271  1  0.91735215  0.04984384  0.39266298  1
  O2-  O272  1  0.91719812  0.04471050  0.73323675  1
  O2-  O273  1  0.91282597  0.53594023  0.07355358  1
  O2-  O274  1  0.91176545  0.53736612  0.39713217  1
  O2-  O275  1  0.91034648  0.53507221  0.73454468  1
  O2-  O276  1  0.28963183  0.16839301  0.06481907  1
  O2-  O277  1  0.28604033  0.16692539  0.40385607  1
  O2-  O278  1  0.28980358  0.16646317  0.73302310  1
  O2-  O279  1  0.29411090  0.66857629  0.07166714  1
  O2-  O280  1  0.29894076  0.66467235  0.39136476  1
  O2-  O281  1  0.30080296  0.67312368  0.72618799  1
  O2-  O282  1  0.79832678  0.16885259  0.06531300  1
  O2-  O283  1  0.79720112  0.16882007  0.39171374  1
  O2-  O284  1  0.78921809  0.16801221  0.73434701  1
  O2-  O285  1  0.79018890  0.66483187  0.07459221  1
  O2-  O286  1  0.79624025  0.66210445  0.39536619  1
  O2-  O287  1  0.79055766  0.66969236  0.73349154  1
