# generated using pymatgen
data_Ca2Al2SiO7
_symmetry_space_group_name_H-M   'P 1'
_cell_length_a   15.45304452
_cell_length_b   15.45284936
_cell_length_c   15.27981693
_cell_angle_alpha   89.99523179
_cell_angle_beta   90.01405941
_cell_angle_gamma   90.01483309
_symmetry_Int_Tables_number   1
_chemical_formula_structural   Ca2Al2SiO7
_chemical_formula_sum   'Ca48 Al48 Si24 O168'
_cell_volume   3648.72177519
_cell_formula_units_Z   24
loop_
 _symmetry_equiv_pos_site_id
 _symmetry_equiv_pos_as_xyz
  1  'x, y, z'
loop_
 _atom_type_symbol
 _atom_type_oxidation_number
  Ca2+  2.0
  Al0+  0.0
  Si0+  0.0
  O2-  -2.0
loop_
 _atom_site_type_symbol
 _atom_site_label
 _atom_site_symmetry_multiplicity
 _atom_site_fract_x
 _atom_site_fract_y
 _atom_site_fract_z
 _atom_site_occupancy
  Ca2+  Ca0  1  0.15698296  0.07103647  0.16599817  1
  Ca2+  Ca1  1  0.16928450  0.07880649  0.50689018  1
  Ca2+  Ca2  1  0.16896809  0.08692646  0.83943117  1
  Ca2+  Ca3  1  0.17811202  0.58477318  0.17221200  1
  Ca2+  Ca4  1  0.16888762  0.58539346  0.50568113  1
  Ca2+  Ca5  1  0.16699058  0.57398014  0.84183624  1
  Ca2+  Ca6  1  0.66756104  0.07507528  0.17291900  1
  Ca2+  Ca7  1  0.67158304  0.07346681  0.50427538  1
  Ca2+  Ca8  1  0.66330940  0.07086853  0.84011304  1
  Ca2+  Ca9  1  0.67811643  0.58578659  0.16981923  1
  Ca2+  Ca10  1  0.66986793  0.57677829  0.50519920  1
  Ca2+  Ca11  1  0.66672375  0.58509344  0.83976248  1
  Ca2+  Ca12  1  0.08435380  0.32660341  0.15756559  1
  Ca2+  Ca13  1  0.08727242  0.32957372  0.50093306  1
  Ca2+  Ca14  1  0.09225526  0.32808635  0.82859682  1
  Ca2+  Ca15  1  0.07874612  0.83210573  0.16001199  1
  Ca2+  Ca16  1  0.08738655  0.82236192  0.49194872  1
  Ca2+  Ca17  1  0.07795202  0.83056067  0.83067748  1
  Ca2+  Ca18  1  0.58133023  0.33031698  0.15740537  1
  Ca2+  Ca19  1  0.58761058  0.33727368  0.49417573  1
  Ca2+  Ca20  1  0.57739149  0.33372262  0.83110438  1
  Ca2+  Ca21  1  0.58745271  0.83042844  0.15748439  1
  Ca2+  Ca22  1  0.58739093  0.83297835  0.49969290  1
  Ca2+  Ca23  1  0.59090185  0.82345831  0.82955736  1
  Ca2+  Ca24  1  0.33564722  0.42449001  0.16278417  1
  Ca2+  Ca25  1  0.32791525  0.42458979  0.50469406  1
  Ca2+  Ca26  1  0.32469034  0.41928715  0.84163247  1
  Ca2+  Ca27  1  0.31827487  0.91067798  0.16892227  1
  Ca2+  Ca28  1  0.32800860  0.92189933  0.50310656  1
  Ca2+  Ca29  1  0.32694670  0.92325676  0.83780222  1
  Ca2+  Ca30  1  0.83006601  0.42895100  0.17297756  1
  Ca2+  Ca31  1  0.82390213  0.41966913  0.50131213  1
  Ca2+  Ca32  1  0.82860138  0.42526809  0.83767652  1
  Ca2+  Ca33  1  0.82501955  0.91778928  0.16875766  1
  Ca2+  Ca34  1  0.82516793  0.91718186  0.49894746  1
  Ca2+  Ca35  1  0.82559147  0.90979770  0.83976881  1
  Ca2+  Ca36  1  0.42524757  0.17524691  0.15420733  1
  Ca2+  Ca37  1  0.41520007  0.16710920  0.49806888  1
  Ca2+  Ca38  1  0.41630009  0.16991523  0.83253061  1
  Ca2+  Ca39  1  0.42161738  0.66167975  0.15992869  1
  Ca2+  Ca40  1  0.42235716  0.66292223  0.49563913  1
  Ca2+  Ca41  1  0.42687151  0.66092238  0.83234660  1
  Ca2+  Ca42  1  0.91748377  0.16565062  0.16070264  1
  Ca2+  Ca43  1  0.91765490  0.16512683  0.49633088  1
  Ca2+  Ca44  1  0.93115870  0.16620803  0.82956886  1
  Ca2+  Ca45  1  0.91618744  0.66875760  0.16118630  1
  Ca2+  Ca46  1  0.92892052  0.66074860  0.49460049  1
  Ca2+  Ca47  1  0.91689394  0.67106650  0.83112056  1
  Al0+  Al48  1  -0.00144189  -0.00033843  -0.00637115  1
  Al0+  Al49  1  -0.00035884  -0.00235425  0.34168951  1
  Al0+  Al50  1  -0.00063401  0.00024085  0.66014061  1
  Al0+  Al51  1  -0.00056776  0.49912800  0.00826178  1
  Al0+  Al52  1  0.00163601  0.49768790  0.33072075  1
  Al0+  Al53  1  -0.00087197  0.49950732  0.66600103  1
  Al0+  Al54  1  0.49875451  -0.00100101  0.00073267  1
  Al0+  Al55  1  0.49808950  -0.00021301  0.33433152  1
  Al0+  Al56  1  0.49968604  0.00067180  0.67409480  1
  Al0+  Al57  1  0.49932324  0.49908301  -0.00547747  1
  Al0+  Al58  1  0.49801811  0.50046152  0.33844062  1
  Al0+  Al59  1  0.50042665  0.49987813  0.66484496  1
  Al0+  Al60  1  0.25087729  0.25052097  -0.00168567  1
  Al0+  Al61  1  0.25062789  0.25029185  0.32911923  1
  Al0+  Al62  1  0.25074135  0.25053063  0.66718558  1
  Al0+  Al63  1  0.25039609  0.75023373  0.00543262  1
  Al0+  Al64  1  0.25149504  0.74886151  0.33751180  1
  Al0+  Al65  1  0.25141162  0.75227028  0.66417793  1
  Al0+  Al66  1  0.75115808  0.24919062  -0.00731778  1
  Al0+  Al67  1  0.75103767  0.24923289  0.33782741  1
  Al0+  Al68  1  0.74995554  0.25029976  0.67166880  1
  Al0+  Al69  1  0.75050067  0.75063440  0.00033284  1
  Al0+  Al70  1  0.75213625  0.74929658  0.34132013  1
  Al0+  Al71  1  0.74969808  0.75010044  0.66280222  1
  Al0+  Al72  1  0.07103192  0.67907331  0.65512953  1
  Al0+  Al73  1  0.81993405  0.57177497  0.01264460  1
  Al0+  Al74  1  0.57002726  0.67894275  0.65044160  1
  Al0+  Al75  1  0.17706201  0.93034588  0.01126959  1
  Al0+  Al76  1  0.67579334  0.92810605  0.34886066  1
  Al0+  Al77  1  0.17905258  0.43165132  0.67887493  1
  Al0+  Al78  1  0.17847361  0.42676511  0.01684878  1
  Al0+  Al79  1  0.31989647  0.56999246  0.34896763  1
  Al0+  Al80  1  0.68138208  0.92943470  0.68270572  1
  Al0+  Al81  1  0.82132511  0.07150172  0.34796761  1
  Al0+  Al82  1  0.57037027  0.68154408  0.98896439  1
  Al0+  Al83  1  0.07215650  0.18027233  0.65062689  1
  Al0+  Al84  1  0.32225996  0.57110504  0.01381527  1
  Al0+  Al85  1  0.06858093  0.18013088  0.98749699  1
  Al0+  Al86  1  0.82462085  0.57177381  0.35017369  1
  Al0+  Al87  1  0.43021325  0.32114405  0.98286345  1
  Al0+  Al88  1  0.67865651  0.92970496  0.01295290  1
  Al0+  Al89  1  0.31923483  0.07105393  0.68076618  1
  Al0+  Al90  1  0.67760737  0.42869386  0.68305555  1
  Al0+  Al91  1  0.67896385  0.43031526  0.34552571  1
  Al0+  Al92  1  0.17915166  0.92882557  0.34765490  1
  Al0+  Al93  1  0.07257078  0.67784281  0.31737189  1
  Al0+  Al94  1  0.92967617  0.81947536  0.98750213  1
  Al0+  Al95  1  0.57340990  0.17606649  0.98386526  1
  Si0+  Si96  1  0.42403165  0.82258652  0.98374782  1
  Si0+  Si97  1  0.32066822  0.07382182  0.34750180  1
  Si0+  Si98  1  0.92719562  0.82205464  0.64672591  1
  Si0+  Si99  1  0.92729255  0.32593255  0.98280758  1
  Si0+  Si100  1  0.82400080  0.07263219  0.68574743  1
  Si0+  Si101  1  0.17651762  0.92713305  0.68306812  1
  Si0+  Si102  1  0.82221124  0.07248069  0.01292173  1
  Si0+  Si103  1  0.57096455  0.17880642  0.32078159  1
  Si0+  Si104  1  0.82135558  0.57128671  0.68335500  1
  Si0+  Si105  1  0.07366600  0.67710357  0.98611276  1
  Si0+  Si106  1  0.92635464  0.32157622  0.64880457  1
  Si0+  Si107  1  0.07122524  0.17747648  0.31869578  1
  Si0+  Si108  1  0.42940861  0.82212403  0.31831201  1
  Si0+  Si109  1  0.57118568  0.17810175  0.65090336  1
  Si0+  Si110  1  0.32220369  0.57455017  0.68318354  1
  Si0+  Si111  1  0.32166192  0.07226239  0.01802102  1
  Si0+  Si112  1  0.92840047  0.82166586  0.31662177  1
  Si0+  Si113  1  0.42881434  0.82475317  0.64961351  1
  Si0+  Si114  1  0.57102436  0.67945985  0.31970614  1
  Si0+  Si115  1  0.92800180  0.31926873  0.31795290  1
  Si0+  Si116  1  0.17847600  0.42508033  0.34981146  1
  Si0+  Si117  1  0.67828583  0.42659015  0.01379754  1
  Si0+  Si118  1  0.42990948  0.31991677  0.64899822  1
  Si0+  Si119  1  0.42882317  0.32213867  0.31831876  1
  O2-  O120  1  0.25234916  0.00355894  0.06114314  1
  O2-  O121  1  0.25145302  0.00662559  0.39268923  1
  O2-  O122  1  0.24197666  -0.00128264  0.72700139  1
  O2-  O123  1  0.24798079  0.50193294  0.06536194  1
  O2-  O124  1  0.24279961  0.49734793  0.39457552  1
  O2-  O125  1  0.24923279  0.51019543  0.72594513  1
  O2-  O126  1  0.74822068  0.01000402  0.05786169  1
  O2-  O127  1  0.74783552  0.00080567  0.39756273  1
  O2-  O128  1  0.75709120  0.00273153  0.73002027  1
  O2-  O129  1  0.74716417  0.49429409  0.05851234  1
  O2-  O130  1  0.74932726  0.50223341  0.39834882  1
  O2-  O131  1  0.75034175  0.50540910  0.72836731  1
  O2-  O132  1  -0.00042088  0.24774765  0.27663966  1
  O2-  O133  1  -0.00489462  0.25272346  0.60359455  1
  O2-  O134  1  -0.00194323  0.25856616  0.93967353  1
  O2-  O135  1  -0.00436724  0.75137958  0.27218265  1
  O2-  O136  1  -0.00057885  0.75555381  0.60493411  1
  O2-  O137  1  0.00503803  0.74508579  0.94088017  1
  O2-  O138  1  0.50139772  0.25128281  0.27832903  1
  O2-  O139  1  0.50349819  0.25131640  0.60591907  1
  O2-  O140  1  0.50227923  0.24862513  0.93284445  1
  O2-  O141  1  0.50449024  0.75468271  0.27711246  1
  O2-  O142  1  0.49481529  0.75382572  0.60406292  1
  O2-  O143  1  0.49417727  0.75470063  0.94090482  1
  O2-  O144  1  0.06413339  0.17783112  0.10124629  1
  O2-  O145  1  0.07402412  0.18053437  0.42371656  1
  O2-  O146  1  0.07224315  0.18165170  0.76358172  1
  O2-  O147  1  0.07364941  0.68002178  0.09167550  1
  O2-  O148  1  0.07260457  0.67986147  0.43102757  1
  O2-  O149  1  0.06902976  0.67971512  0.76828668  1
  O2-  O150  1  0.57262403  0.17778228  0.09854638  1
  O2-  O151  1  0.56826276  0.17811344  0.42614776  1
  O2-  O152  1  0.56859799  0.17793134  0.75544157  1
  O2-  O153  1  0.57134310  0.68283803  0.10260940  1
  O2-  O154  1  0.56736937  0.67856271  0.42485043  1
  O2-  O155  1  0.57006598  0.67943366  0.76356766  1
  O2-  O156  1  0.18163181  0.42124830  0.24483936  1
  O2-  O157  1  0.18266476  0.43095446  0.56536541  1
  O2-  O158  1  0.17910526  0.42827278  0.90289122  1
  O2-  O159  1  0.17786659  0.93054182  0.23440855  1
  O2-  O160  1  0.17997727  0.92682052  0.57724707  1
  O2-  O161  1  0.17841012  0.93154879  0.89823389  1
  O2-  O162  1  0.67967765  0.42953680  0.23193280  1
  O2-  O163  1  0.67942743  0.42880491  0.56990470  1
  O2-  O164  1  0.67975827  0.42876044  0.90804664  1
  O2-  O165  1  0.67499920  0.92975805  0.23527291  1
  O2-  O166  1  0.68108008  0.93229203  0.56961807  1
  O2-  O167  1  0.68220160  0.92722969  0.89997847  1
  O2-  O168  1  0.43344656  0.32046544  0.09736717  1
  O2-  O169  1  0.42605284  0.31992201  0.42363899  1
  O2-  O170  1  0.42963267  0.31887458  0.75350804  1
  O2-  O171  1  0.42362999  0.82262420  0.08970900  1
  O2-  O172  1  0.42898739  0.82315806  0.42348468  1
  O2-  O173  1  0.42774571  0.82467289  0.75498582  1
  O2-  O174  1  0.92465395  0.32336731  0.08865267  1
  O2-  O175  1  0.92810791  0.31876083  0.42308536  1
  O2-  O176  1  0.92666941  0.32148328  0.75423172  1
  O2-  O177  1  0.92955220  0.82045074  0.10060348  1
  O2-  O178  1  0.93074576  0.82242191  0.42230390  1
  O2-  O179  1  0.92647331  0.82123242  0.75259046  1
  O2-  O180  1  0.32136356  0.07463199  0.24240181  1
  O2-  O181  1  0.31907082  0.06965587  0.56694636  1
  O2-  O182  1  0.32055948  0.07132427  0.91219134  1
  O2-  O183  1  0.32376476  0.56807943  0.23642716  1
  O2-  O184  1  0.32248065  0.57192188  0.57718312  1
  O2-  O185  1  0.32112758  0.57091083  0.90008708  1
  O2-  O186  1  0.82029229  0.07280900  0.23417415  1
  O2-  O187  1  0.82145251  0.07345792  0.58002847  1
  O2-  O188  1  0.82453499  0.06936258  0.90751042  1
  O2-  O189  1  0.82176327  0.57184902  0.23643579  1
  O2-  O190  1  0.82208527  0.56828445  0.57786994  1
  O2-  O191  1  0.81904634  0.57151048  0.89933215  1
  O2-  O192  1  0.04278331  0.08411340  0.27502235  1
  O2-  O193  1  0.04399110  0.08262122  0.59618069  1
  O2-  O194  1  0.03580989  0.08637109  0.92927014  1
  O2-  O195  1  0.04649632  0.57901684  0.26531142  1
  O2-  O196  1  0.03929673  0.58289009  0.59950353  1
  O2-  O197  1  0.04754018  0.58211780  0.94352806  1
  O2-  O198  1  0.54136977  0.08762896  0.27248361  1
  O2-  O199  1  0.53947259  0.08685914  0.60415567  1
  O2-  O200  1  0.54200424  0.07772323  0.93195837  1
  O2-  O201  1  0.53826031  0.58850217  0.27345577  1
  O2-  O202  1  0.53846154  0.58229160  0.59576836  1
  O2-  O203  1  0.54190407  0.58523835  0.93327373  1
  O2-  O204  1  0.16273140  0.20515760  0.26979135  1
  O2-  O205  1  0.16808661  0.21369284  0.59603425  1
  O2-  O206  1  0.16670197  0.20690124  0.93521768  1
  O2-  O207  1  0.17017957  0.71116282  0.26665672  1
  O2-  O208  1  0.16895234  0.70792883  0.60074007  1
  O2-  O209  1  0.16732571  0.70283219  0.94040641  1
  O2-  O210  1  0.66375572  0.20463769  0.27475327  1
  O2-  O211  1  0.66512693  0.20377346  0.60614892  1
  O2-  O212  1  0.67224208  0.19998561  0.92932728  1
  O2-  O213  1  0.66593307  0.70331016  0.27655040  1
  O2-  O214  1  0.66667649  0.70959608  0.59627971  1
  O2-  O215  1  0.66500992  0.71460648  0.93299879  1
  O2-  O216  1  0.07892259  0.44848513  0.06995386  1
  O2-  O217  1  0.08310898  0.44485562  0.39335335  1
  O2-  O218  1  0.08054744  0.45602865  0.73192014  1
  O2-  O219  1  0.08095701  0.96389509  0.06506075  1
  O2-  O220  1  0.08418386  0.95649418  0.40496965  1
  O2-  O221  1  0.08018899  0.94930149  0.72395753  1
  O2-  O222  1  0.58415169  0.45108543  0.05765508  1
  O2-  O223  1  0.58099918  0.45651105  0.40043372  1
  O2-  O224  1  0.57978407  0.45854353  0.73442515  1
  O2-  O225  1  0.57978897  0.95374191  0.06598801  1
  O2-  O226  1  0.57724004  0.95719492  0.40194247  1
  O2-  O227  1  0.58519895  0.96028383  0.73642414  1
  O2-  O228  1  0.20974637  0.32889387  0.06971538  1
  O2-  O229  1  0.20906989  0.33258643  0.39685966  1
  O2-  O230  1  0.21436521  0.33651053  0.73183625  1
  O2-  O231  1  0.20659112  0.83470155  0.06794805  1
  O2-  O232  1  0.21518173  0.83512109  0.40292392  1
  O2-  O233  1  0.20508886  0.83472987  0.72997119  1
  O2-  O234  1  0.70287813  0.33139847  0.05744877  1
  O2-  O235  1  0.70767269  0.33257921  0.40024597  1
  O2-  O236  1  0.70754247  0.33205891  0.73711197  1
  O2-  O237  1  0.71528737  0.83618140  0.06834499  1
  O2-  O238  1  0.70502332  0.83111568  0.40336073  1
  O2-  O239  1  0.71226708  0.83119341  0.73335613  1
  O2-  O240  1  0.45693268  0.41417720  0.27191179  1
  O2-  O241  1  0.45573207  0.41245731  0.60150709  1
  O2-  O242  1  0.45759240  0.41798472  0.92657812  1
  O2-  O243  1  0.45131502  0.91550266  0.27025263  1
  O2-  O244  1  0.45793751  0.91792663  0.60359447  1
  O2-  O245  1  0.44724972  0.91685890  0.93860030  1
  O2-  O246  1  0.95567957  0.41017452  0.26878257  1
  O2-  O247  1  0.95223104  0.41468108  0.60185205  1
  O2-  O248  1  0.95136513  0.42047566  0.93782027  1
  O2-  O249  1  0.95595779  0.91587168  0.27218500  1
  O2-  O250  1  0.94864363  0.91668932  0.60067116  1
  O2-  O251  1  0.95953314  0.91404905  0.92914041  1
  O2-  O252  1  0.33827324  0.29320679  0.26847015  1
  O2-  O253  1  0.33979479  0.28857201  0.60005189  1
  O2-  O254  1  0.33209420  0.29159451  0.93028031  1
  O2-  O255  1  0.33906984  0.78969745  0.27104994  1
  O2-  O256  1  0.33445808  0.80267020  0.60236954  1
  O2-  O257  1  0.33080608  0.79698579  0.93635825  1
  O2-  O258  1  0.83645825  0.29073765  0.26977535  1
  O2-  O259  1  0.83244675  0.29403806  0.60302531  1
  O2-  O260  1  0.83508437  0.30060541  0.93350498  1
  O2-  O261  1  0.83290773  0.79733291  0.27305313  1
  O2-  O262  1  0.83522085  0.79393103  0.59914889  1
  O2-  O263  1  0.83538621  0.78540208  0.93122091  1
  O2-  O264  1  0.41502854  0.04692880  0.06445326  1
  O2-  O265  1  0.41324168  0.04738472  0.39552465  1
  O2-  O266  1  0.41404462  0.04009876  0.73729752  1
  O2-  O267  1  0.42027840  0.53846889  0.06663756  1
  O2-  O268  1  0.41391304  0.53618374  0.40612776  1
  O2-  O269  1  0.41435226  0.54326268  0.72773052  1
  O2-  O270  1  0.91311084  0.04119182  0.06076213  1
  O2-  O271  1  0.91784489  0.04290880  0.40471011  1
  O2-  O272  1  0.91958899  0.04767073  0.72804779  1
  O2-  O273  1  0.91561571  0.54408351  0.06964083  1
  O2-  O274  1  0.92242183  0.53798239  0.40120701  1
  O2-  O275  1  0.91358082  0.54313194  0.73045912  1
  O2-  O276  1  0.29744418  0.16601853  0.06312234  1
  O2-  O277  1  0.29561525  0.16762919  0.39432599  1
  O2-  O278  1  0.28950491  0.16738613  0.73463858  1
  O2-  O279  1  0.29829864  0.66989514  0.06872311  1
  O2-  O280  1  0.29268328  0.66631238  0.40457937  1
  O2-  O281  1  0.30357417  0.67082140  0.72575360  1
  O2-  O282  1  0.80346547  0.16897233  0.05644232  1
  O2-  O283  1  0.79442016  0.16876940  0.40405231  1
  O2-  O284  1  0.79945018  0.16603838  0.73177805  1
  O2-  O285  1  0.78565263  0.66581921  0.06872323  1
  O2-  O286  1  0.80090749  0.66981048  0.40469248  1
  O2-  O287  1  0.79726210  0.66631283  0.72614505  1
