# generated using pymatgen
data_Ca2Al2SiO7
_symmetry_space_group_name_H-M   'P 1'
_cell_length_a   15.45503177
_cell_length_b   15.45489184
_cell_length_c   15.28110688
_cell_angle_alpha   90.00695543
_cell_angle_beta   90.00311490
_cell_angle_gamma   89.99621030
_symmetry_Int_Tables_number   1
_chemical_formula_structural   Ca2Al2SiO7
_chemical_formula_sum   'Ca48 Al48 Si24 O168'
_cell_volume   3649.98164673
_cell_formula_units_Z   24
loop_
 _symmetry_equiv_pos_site_id
 _symmetry_equiv_pos_as_xyz
  1  'x, y, z'
loop_
 _atom_type_symbol
 _atom_type_oxidation_number
  Ca2+  2.0
  Al0+  0.0
  Si0+  0.0
  O2-  -2.0
loop_
 _atom_site_type_symbol
 _atom_site_label
 _atom_site_symmetry_multiplicity
 _atom_site_fract_x
 _atom_site_fract_y
 _atom_site_fract_z
 _atom_site_occupancy
  Ca2+  Ca0  1  0.16385793  0.07590652  0.17635027  1
  Ca2+  Ca1  1  0.16609746  0.07789537  0.49924977  1
  Ca2+  Ca2  1  0.16092089  0.07360703  0.83980456  1
  Ca2+  Ca3  1  0.15903415  0.57795157  0.17026766  1
  Ca2+  Ca4  1  0.16667549  0.58502850  0.49876140  1
  Ca2+  Ca5  1  0.16551543  0.57594213  0.84252635  1
  Ca2+  Ca6  1  0.66891115  0.08386728  0.17501171  1
  Ca2+  Ca7  1  0.67219567  0.09319008  0.49688322  1
  Ca2+  Ca8  1  0.67062252  0.07577072  0.83925677  1
  Ca2+  Ca9  1  0.68176093  0.57727617  0.17518965  1
  Ca2+  Ca10  1  0.66660983  0.57263104  0.50274796  1
  Ca2+  Ca11  1  0.67158192  0.58115969  0.83672201  1
  Ca2+  Ca12  1  0.08456306  0.32063239  0.16186678  1
  Ca2+  Ca13  1  0.06958908  0.32893909  0.48955256  1
  Ca2+  Ca14  1  0.08146511  0.32873787  0.83179075  1
  Ca2+  Ca15  1  0.09046737  0.82374098  0.16283373  1
  Ca2+  Ca16  1  0.08589049  0.83217639  0.49478102  1
  Ca2+  Ca17  1  0.08178319  0.83182879  0.82979216  1
  Ca2+  Ca18  1  0.57716877  0.33315558  0.16936109  1
  Ca2+  Ca19  1  0.57741623  0.33541402  0.49068975  1
  Ca2+  Ca20  1  0.57310477  0.34120444  0.82661620  1
  Ca2+  Ca21  1  0.57586654  0.84345901  0.16419650  1
  Ca2+  Ca22  1  0.57933896  0.82529323  0.49298112  1
  Ca2+  Ca23  1  0.58756694  0.82654849  0.82784110  1
  Ca2+  Ca24  1  0.33015077  0.40900818  0.16821918  1
  Ca2+  Ca25  1  0.33688893  0.41244259  0.50329076  1
  Ca2+  Ca26  1  0.33170681  0.41429461  0.83975933  1
  Ca2+  Ca27  1  0.32431829  0.92241990  0.17905360  1
  Ca2+  Ca28  1  0.32543685  0.91814857  0.49866047  1
  Ca2+  Ca29  1  0.31999168  0.91769391  0.83987125  1
  Ca2+  Ca30  1  0.83485360  0.42409071  0.17821910  1
  Ca2+  Ca31  1  0.82507689  0.41171473  0.50262944  1
  Ca2+  Ca32  1  0.83102130  0.42010898  0.83671619  1
  Ca2+  Ca33  1  0.82631980  0.92233137  0.17187262  1
  Ca2+  Ca34  1  0.84247887  0.92489619  0.50200245  1
  Ca2+  Ca35  1  0.82979873  0.91242983  0.83798756  1
  Ca2+  Ca36  1  0.41462917  0.17248966  0.16743485  1
  Ca2+  Ca37  1  0.42119346  0.17438531  0.48782913  1
  Ca2+  Ca38  1  0.41623426  0.17832885  0.83118374  1
  Ca2+  Ca39  1  0.41606471  0.67475809  0.16708442  1
  Ca2+  Ca40  1  0.42295407  0.67042936  0.49507054  1
  Ca2+  Ca41  1  0.42544063  0.66692679  0.82656742  1
  Ca2+  Ca42  1  0.92287295  0.16601309  0.16912167  1
  Ca2+  Ca43  1  0.91680108  0.17560950  0.48935782  1
  Ca2+  Ca44  1  0.92349621  0.17043573  0.82922360  1
  Ca2+  Ca45  1  0.92470693  0.65815040  0.16408658  1
  Ca2+  Ca46  1  0.92004851  0.67328269  0.49282577  1
  Ca2+  Ca47  1  0.91914134  0.66932232  0.83204562  1
  Al0+  Al48  1  -0.00088912  -0.00044888  -0.00005329  1
  Al0+  Al49  1  -0.00297349  -0.00189258  0.33799921  1
  Al0+  Al50  1  0.00105463  -0.00128084  0.66940876  1
  Al0+  Al51  1  0.00145421  0.50002122  0.00189150  1
  Al0+  Al52  1  0.00008611  0.50248650  0.33319749  1
  Al0+  Al53  1  0.00041126  0.50007125  0.66364488  1
  Al0+  Al54  1  0.49933246  0.00145966  -0.00056374  1
  Al0+  Al55  1  0.49798428  0.00026264  0.33101114  1
  Al0+  Al56  1  0.49962129  0.00104973  0.66931689  1
  Al0+  Al57  1  0.50055186  0.50184188  -0.00280533  1
  Al0+  Al58  1  0.49985152  0.50154826  0.33081454  1
  Al0+  Al59  1  0.50102300  0.50085843  0.66319389  1
  Al0+  Al60  1  0.24971699  0.25017715  -0.00661533  1
  Al0+  Al61  1  0.24898791  0.24875836  0.33236740  1
  Al0+  Al62  1  0.25127065  0.24930363  0.66363699  1
  Al0+  Al63  1  0.25029393  0.74934354  -0.00293061  1
  Al0+  Al64  1  0.25027189  0.74853927  0.32977851  1
  Al0+  Al65  1  0.25094533  0.74991930  0.67322411  1
  Al0+  Al66  1  0.74863606  0.24970967  -0.00117325  1
  Al0+  Al67  1  0.74794764  0.25053058  0.33175481  1
  Al0+  Al68  1  0.74971937  0.25062197  0.67285043  1
  Al0+  Al69  1  0.74934510  0.75036215  0.01039331  1
  Al0+  Al70  1  0.75100225  0.74848792  0.33680873  1
  Al0+  Al71  1  0.75235695  0.74949289  0.65641123  1
  Al0+  Al72  1  0.43022848  0.82003363  0.32066132  1
  Al0+  Al73  1  0.17810414  0.92836915  0.01504743  1
  Al0+  Al74  1  0.07135814  0.67808385  0.98477665  1
  Al0+  Al75  1  0.57167311  0.68003145  0.65256022  1
  Al0+  Al76  1  0.67874585  0.43011119  0.34800197  1
  Al0+  Al77  1  0.82496366  0.57158602  0.35289444  1
  Al0+  Al78  1  0.67852022  0.92961370  0.01273428  1
  Al0+  Al79  1  0.43128978  0.32097541  0.98470432  1
  Al0+  Al80  1  0.18009581  0.92965096  0.68327278  1
  Al0+  Al81  1  0.32105733  0.07278606  0.34889647  1
  Al0+  Al82  1  0.42740591  0.32352047  0.31711033  1
  Al0+  Al83  1  0.17863381  0.92653366  0.34857558  1
  Al0+  Al84  1  0.18125483  0.42867790  0.01281575  1
  Al0+  Al85  1  0.57100727  0.17876452  0.31833268  1
  Al0+  Al86  1  0.81890588  0.06988954  0.34680758  1
  Al0+  Al87  1  0.67902033  0.42995757  0.68231554  1
  Al0+  Al88  1  0.82061335  0.56920842  0.01284093  1
  Al0+  Al89  1  0.06962722  0.17752231  0.98537040  1
  Al0+  Al90  1  0.42997821  0.32002934  0.65208385  1
  Al0+  Al91  1  0.92875922  0.32097018  0.65432387  1
  Al0+  Al92  1  0.07029895  0.68143730  0.31992490  1
  Al0+  Al93  1  0.92764849  0.32166130  0.31798739  1
  Al0+  Al94  1  0.93066751  0.82102033  0.65354810  1
  Al0+  Al95  1  0.06972276  0.17688411  0.31994992  1
  Si0+  Si96  1  0.92712434  0.32285490  0.98366808  1
  Si0+  Si97  1  0.32061746  0.57091754  0.34734274  1
  Si0+  Si98  1  0.82176053  0.07357152  0.01592483  1
  Si0+  Si99  1  0.92576669  0.82279314  0.31522250  1
  Si0+  Si100  1  0.32105126  0.57014334  0.68149193  1
  Si0+  Si101  1  0.17941092  0.42807926  0.34810092  1
  Si0+  Si102  1  0.17800992  0.42838076  0.67984980  1
  Si0+  Si103  1  0.32461352  0.57235997  0.01633607  1
  Si0+  Si104  1  0.42875108  0.82297459  0.98318912  1
  Si0+  Si105  1  0.07144674  0.17737432  0.65001535  1
  Si0+  Si106  1  0.07426750  0.67800550  0.65114678  1
  Si0+  Si107  1  0.57361477  0.17665090  0.98046319  1
  Si0+  Si108  1  0.67556278  0.42760489  0.01625119  1
  Si0+  Si109  1  0.92677174  0.82057722  0.98596123  1
  Si0+  Si110  1  0.32336456  0.07382318  0.68566776  1
  Si0+  Si111  1  0.82312400  0.57329161  0.68319270  1
  Si0+  Si112  1  0.57176078  0.68204253  0.98659278  1
  Si0+  Si113  1  0.82092894  0.07100549  0.68323580  1
  Si0+  Si114  1  0.57263523  0.17577950  0.65198237  1
  Si0+  Si115  1  0.57335921  0.67848869  0.31429040  1
  Si0+  Si116  1  0.67573278  0.92736037  0.35159518  1
  Si0+  Si117  1  0.42695133  0.82275674  0.65226908  1
  Si0+  Si118  1  0.67913167  0.92694149  0.67873475  1
  Si0+  Si119  1  0.32060561  0.07204438  0.01556987  1
  O2-  O120  1  0.25261986  0.00326151  0.06016276  1
  O2-  O121  1  0.24790877  0.00141259  0.39860455  1
  O2-  O122  1  0.25462168  0.00504223  0.73004481  1
  O2-  O123  1  0.25571148  0.50396903  0.05994152  1
  O2-  O124  1  0.25358826  0.49646728  0.39046197  1
  O2-  O125  1  0.24978914  0.49890147  0.72286471  1
  O2-  O126  1  0.75012630  0.00700689  0.05824972  1
  O2-  O127  1  0.74467263  -0.00479104  0.39655991  1
  O2-  O128  1  0.74935790  -0.00163226  0.72284900  1
  O2-  O129  1  0.74990585  0.49034984  0.05875948  1
  O2-  O130  1  0.75233240  0.49935205  0.40082062  1
  O2-  O131  1  0.75569571  0.50368240  0.72845250  1
  O2-  O132  1  0.00014335  0.25027041  0.26812111  1
  O2-  O133  1  0.00388760  0.24737104  0.60714385  1
  O2-  O134  1  -0.00627735  0.25196551  0.93910319  1
  O2-  O135  1  -0.00547322  0.75424572  0.27163308  1
  O2-  O136  1  0.00661941  0.74748407  0.60782910  1
  O2-  O137  1  -0.00272103  0.75444008  0.93990350  1
  O2-  O138  1  0.49794910  0.24971150  0.26823445  1
  O2-  O139  1  0.50398539  0.24419643  0.60831080  1
  O2-  O140  1  0.50862226  0.24910020  0.93668236  1
  O2-  O141  1  0.50907672  0.75127982  0.27019945  1
  O2-  O142  1  0.49837429  0.75734379  0.60794506  1
  O2-  O143  1  0.50074460  0.75226911  0.94174495  1
  O2-  O144  1  0.06928885  0.17699102  0.09773517  1
  O2-  O145  1  0.06807463  0.18001239  0.43398976  1
  O2-  O146  1  0.06973756  0.17787099  0.75621606  1
  O2-  O147  1  0.07106855  0.67791096  0.09732656  1
  O2-  O148  1  0.07292108  0.68305689  0.43345794  1
  O2-  O149  1  0.07363441  0.67663644  0.75686441  1
  O2-  O150  1  0.57392359  0.17397283  0.08517499  1
  O2-  O151  1  0.57039133  0.17997768  0.43244699  1
  O2-  O152  1  0.57135076  0.17351710  0.75791469  1
  O2-  O153  1  0.56931758  0.68264212  0.09111363  1
  O2-  O154  1  0.56956649  0.67811979  0.42022856  1
  O2-  O155  1  0.57116583  0.68212939  0.76663167  1
  O2-  O156  1  0.17951056  0.42934534  0.24299844  1
  O2-  O157  1  0.17787796  0.43020468  0.57485216  1
  O2-  O158  1  0.18228458  0.43020674  0.89872754  1
  O2-  O159  1  0.18146715  0.92511915  0.23495703  1
  O2-  O160  1  0.18168934  0.92767508  0.57089059  1
  O2-  O161  1  0.17934101  0.92911543  0.90133008  1
  O2-  O162  1  0.67772743  0.43413317  0.23408120  1
  O2-  O163  1  0.67754291  0.42989803  0.57015736  1
  O2-  O164  1  0.67382660  0.43142962  0.91015393  1
  O2-  O165  1  0.67752434  0.92835816  0.24559829  1
  O2-  O166  1  0.67764218  0.92787698  0.57438308  1
  O2-  O167  1  0.68142468  0.92762261  0.89865197  1
  O2-  O168  1  0.43155874  0.32028090  0.09688924  1
  O2-  O169  1  0.42977584  0.32433214  0.43088410  1
  O2-  O170  1  0.42977942  0.32060596  0.76550230  1
  O2-  O171  1  0.42880256  0.82271786  0.08798059  1
  O2-  O172  1  0.43065423  0.81518594  0.43418836  1
  O2-  O173  1  0.42765116  0.82000422  0.75838678  1
  O2-  O174  1  0.92732498  0.32252457  0.08858131  1
  O2-  O175  1  0.92884115  0.31966001  0.43215648  1
  O2-  O176  1  0.93096103  0.31973023  0.76794078  1
  O2-  O177  1  0.92555869  0.82043652  0.09096699  1
  O2-  O178  1  0.92718017  0.82230372  0.42120119  1
  O2-  O179  1  0.92822887  0.81902302  0.76707157  1
  O2-  O180  1  0.32053817  0.07056638  0.23499540  1
  O2-  O181  1  0.32468824  0.07361856  0.58083482  1
  O2-  O182  1  0.32113082  0.06873729  0.90936982  1
  O2-  O183  1  0.31954529  0.57326302  0.24236352  1
  O2-  O184  1  0.31989301  0.57281179  0.57642509  1
  O2-  O185  1  0.32644161  0.57149908  0.91009710  1
  O2-  O186  1  0.81867325  0.06678680  0.23355997  1
  O2-  O187  1  0.82094173  0.07230460  0.57855167  1
  O2-  O188  1  0.82109792  0.07269659  0.90963683  1
  O2-  O189  1  0.82350265  0.57084811  0.23885419  1
  O2-  O190  1  0.82292869  0.57327722  0.57848037  1
  O2-  O191  1  0.81717973  0.57137059  0.89905189  1
  O2-  O192  1  0.03885026  0.07815141  0.26918567  1
  O2-  O193  1  0.04445497  0.08389093  0.60626915  1
  O2-  O194  1  0.03683186  0.08147106  0.92948065  1
  O2-  O195  1  0.04121734  0.58463667  0.26567556  1
  O2-  O196  1  0.04987919  0.58479282  0.60410377  1
  O2-  O197  1  0.03930773  0.58172504  0.93006281  1
  O2-  O198  1  0.54536803  0.07961241  0.26534683  1
  O2-  O199  1  0.54948528  0.08149617  0.60580941  1
  O2-  O200  1  0.54401221  0.08416576  0.93219156  1
  O2-  O201  1  0.54194339  0.58808270  0.26632593  1
  O2-  O202  1  0.53569965  0.58670908  0.59697676  1
  O2-  O203  1  0.54464887  0.59075637  0.93686116  1
  O2-  O204  1  0.16799019  0.20376773  0.26712692  1
  O2-  O205  1  0.16596010  0.20042766  0.60597444  1
  O2-  O206  1  0.16460602  0.20931852  0.92830137  1
  O2-  O207  1  0.16618502  0.71001595  0.26355461  1
  O2-  O208  1  0.16906889  0.70359600  0.60749664  1
  O2-  O209  1  0.16914866  0.70591668  0.93003790  1
  O2-  O210  1  0.66776875  0.20718289  0.26271450  1
  O2-  O211  1  0.66730193  0.20148025  0.60954500  1
  O2-  O212  1  0.66885100  0.19756983  0.93433049  1
  O2-  O213  1  0.66915005  0.70006380  0.27182002  1
  O2-  O214  1  0.66629043  0.70878070  0.59535891  1
  O2-  O215  1  0.66329805  0.71251695  0.93983924  1
  O2-  O216  1  0.08536966  0.45883124  0.06699947  1
  O2-  O217  1  0.08988932  0.46112841  0.39662243  1
  O2-  O218  1  0.08683752  0.45707331  0.72878242  1
  O2-  O219  1  0.07994185  0.95608385  0.06613473  1
  O2-  O220  1  0.07906412  0.95066569  0.40065938  1
  O2-  O221  1  0.08310788  0.96021918  0.73816654  1
  O2-  O222  1  0.58428945  0.45953218  0.06250058  1
  O2-  O223  1  0.58028222  0.46318674  0.40025492  1
  O2-  O224  1  0.58276679  0.46580451  0.73550174  1
  O2-  O225  1  0.58064579  0.95874087  0.06486755  1
  O2-  O226  1  0.58151417  0.95070428  0.39626798  1
  O2-  O227  1  0.58682231  0.95199784  0.72841713  1
  O2-  O228  1  0.21307794  0.33173713  0.06486742  1
  O2-  O229  1  0.20348439  0.33629430  0.39656468  1
  O2-  O230  1  0.20521713  0.33558772  0.72619324  1
  O2-  O231  1  0.21059351  0.83050450  0.06476850  1
  O2-  O232  1  0.21382933  0.82935214  0.40115769  1
  O2-  O233  1  0.21119576  0.83288537  0.73894080  1
  O2-  O234  1  0.69362057  0.33062502  0.05734851  1
  O2-  O235  1  0.70278565  0.33060119  0.39977172  1
  O2-  O236  1  0.70699202  0.33323708  0.73898930  1
  O2-  O237  1  0.70830763  0.83615340  0.07219438  1
  O2-  O238  1  0.69995083  0.83269483  0.39595802  1
  O2-  O239  1  0.70976921  0.83502445  0.72521653  1
  O2-  O240  1  0.45512758  0.42223240  0.26386329  1
  O2-  O241  1  0.45919131  0.41703599  0.59941544  1
  O2-  O242  1  0.45979163  0.41954369  0.93068568  1
  O2-  O243  1  0.45672301  0.91630215  0.26457486  1
  O2-  O244  1  0.44896328  0.91807062  0.60921130  1
  O2-  O245  1  0.45589864  0.91473808  0.93504239  1
  O2-  O246  1  0.95711067  0.42059531  0.26833941  1
  O2-  O247  1  0.95805266  0.41762095  0.60008797  1
  O2-  O248  1  0.95593389  0.41504452  0.93656331  1
  O2-  O249  1  0.94879447  0.91675819  0.27025559  1
  O2-  O250  1  0.96110639  0.91819766  0.60066948  1
  O2-  O251  1  0.94907325  0.91466637  0.93877495  1
  O2-  O252  1  0.32839679  0.29571461  0.26600766  1
  O2-  O253  1  0.33230762  0.29238904  0.59858177  1
  O2-  O254  1  0.33604423  0.28864779  0.92819532  1
  O2-  O255  1  0.33729665  0.78306371  0.26394017  1
  O2-  O256  1  0.33476756  0.79193959  0.60700094  1
  O2-  O257  1  0.33850777  0.79273134  0.93386090  1
  O2-  O258  1  0.82982067  0.29446432  0.26539430  1
  O2-  O259  1  0.83124076  0.28862987  0.60401719  1
  O2-  O260  1  0.83191156  0.29965902  0.93777506  1
  O2-  O261  1  0.83094724  0.79801953  0.27087214  1
  O2-  O262  1  0.83629883  0.79314274  0.59467079  1
  O2-  O263  1  0.83296132  0.79133666  0.94060392  1
  O2-  O264  1  0.41496762  0.04778376  0.06009746  1
  O2-  O265  1  0.41929249  0.04231787  0.40167782  1
  O2-  O266  1  0.41727962  0.04920237  0.73354892  1
  O2-  O267  1  0.41843265  0.54834174  0.06255033  1
  O2-  O268  1  0.41339601  0.54735227  0.39498970  1
  O2-  O269  1  0.41267686  0.54187706  0.72909456  1
  O2-  O270  1  0.91360310  0.04484541  0.06235119  1
  O2-  O271  1  0.91335292  0.03871468  0.40530448  1
  O2-  O272  1  0.91205341  0.04189215  0.73154758  1
  O2-  O273  1  0.91761346  0.54119483  0.06606270  1
  O2-  O274  1  0.92431504  0.54675012  0.40524813  1
  O2-  O275  1  0.91792367  0.54832608  0.72865572  1
  O2-  O276  1  0.29533399  0.16633901  0.05799726  1
  O2-  O277  1  0.29396091  0.17150031  0.40268198  1
  O2-  O278  1  0.29652723  0.16786172  0.73170417  1
  O2-  O279  1  0.29977386  0.66675418  0.06031794  1
  O2-  O280  1  0.28846977  0.65997718  0.39753815  1
  O2-  O281  1  0.29541290  0.66106347  0.73272840  1
  O2-  O282  1  0.79848586  0.16799881  0.06100709  1
  O2-  O283  1  0.78755925  0.16617204  0.40103504  1
  O2-  O284  1  0.79249128  0.16056110  0.73489647  1
  O2-  O285  1  0.78708987  0.66275993  0.07038138  1
  O2-  O286  1  0.79623965  0.67103920  0.40429252  1
  O2-  O287  1  0.79479406  0.66749894  0.72749673  1
