# generated using pymatgen
data_Ca2Al2SiO7
_symmetry_space_group_name_H-M   'P 1'
_cell_length_a   15.45607497
_cell_length_b   15.45641303
_cell_length_c   15.28180086
_cell_angle_alpha   89.99248964
_cell_angle_beta   90.01365770
_cell_angle_gamma   89.99066123
_symmetry_Int_Tables_number   1
_chemical_formula_structural   Ca2Al2SiO7
_chemical_formula_sum   'Ca48 Al48 Si24 O168'
_cell_volume   3650.75294595
_cell_formula_units_Z   24
loop_
 _symmetry_equiv_pos_site_id
 _symmetry_equiv_pos_as_xyz
  1  'x, y, z'
loop_
 _atom_type_symbol
 _atom_type_oxidation_number
  Ca2+  2.0
  Al0+  0.0
  Si0+  0.0
  O2-  -2.0
loop_
 _atom_site_type_symbol
 _atom_site_label
 _atom_site_symmetry_multiplicity
 _atom_site_fract_x
 _atom_site_fract_y
 _atom_site_fract_z
 _atom_site_occupancy
  Ca2+  Ca0  1  0.16680619  0.07847496  0.16972042  1
  Ca2+  Ca1  1  0.17235872  0.07883659  0.51024824  1
  Ca2+  Ca2  1  0.15901160  0.07620027  0.83793559  1
  Ca2+  Ca3  1  0.16580917  0.59208658  0.16625792  1
  Ca2+  Ca4  1  0.16504220  0.57970970  0.50597973  1
  Ca2+  Ca5  1  0.17041512  0.58093685  0.84377467  1
  Ca2+  Ca6  1  0.66823836  0.07556443  0.17608825  1
  Ca2+  Ca7  1  0.67450877  0.08329947  0.50210154  1
  Ca2+  Ca8  1  0.67020603  0.08374144  0.83931745  1
  Ca2+  Ca9  1  0.67462274  0.59087516  0.16441847  1
  Ca2+  Ca10  1  0.66473625  0.57809086  0.50964293  1
  Ca2+  Ca11  1  0.66538502  0.58019411  0.84270805  1
  Ca2+  Ca12  1  0.07598131  0.32337333  0.15530698  1
  Ca2+  Ca13  1  0.08670752  0.32878044  0.49993044  1
  Ca2+  Ca14  1  0.08096714  0.32539751  0.82954772  1
  Ca2+  Ca15  1  0.07122850  0.83176687  0.15804209  1
  Ca2+  Ca16  1  0.07949888  0.83117937  0.49287651  1
  Ca2+  Ca17  1  0.08214469  0.83612249  0.83347825  1
  Ca2+  Ca18  1  0.58580294  0.31744732  0.16129244  1
  Ca2+  Ca19  1  0.59181221  0.32181218  0.50020445  1
  Ca2+  Ca20  1  0.58806219  0.32404100  0.82740561  1
  Ca2+  Ca21  1  0.57960375  0.83949663  0.16014564  1
  Ca2+  Ca22  1  0.58017935  0.83253012  0.49349605  1
  Ca2+  Ca23  1  0.59293867  0.82103434  0.83379242  1
  Ca2+  Ca24  1  0.33490155  0.42473519  0.16638621  1
  Ca2+  Ca25  1  0.32639224  0.41871230  0.50767235  1
  Ca2+  Ca26  1  0.32834117  0.42103607  0.83802319  1
  Ca2+  Ca27  1  0.32814481  0.91764564  0.17167292  1
  Ca2+  Ca28  1  0.33161721  0.91848812  0.49957896  1
  Ca2+  Ca29  1  0.31870538  0.91346666  0.83853094  1
  Ca2+  Ca30  1  0.84072537  0.42155102  0.16352040  1
  Ca2+  Ca31  1  0.82680980  0.42040634  0.50708380  1
  Ca2+  Ca32  1  0.83037810  0.42099684  0.83906826  1
  Ca2+  Ca33  1  0.82401482  0.91208159  0.17125915  1
  Ca2+  Ca34  1  0.83407819  0.92465891  0.49924027  1
  Ca2+  Ca35  1  0.83037281  0.92198833  0.84075473  1
  Ca2+  Ca36  1  0.42665257  0.15615398  0.16586699  1
  Ca2+  Ca37  1  0.42826867  0.16023896  0.49351170  1
  Ca2+  Ca38  1  0.43008707  0.16237049  0.82984917  1
  Ca2+  Ca39  1  0.42053104  0.67345643  0.15999485  1
  Ca2+  Ca40  1  0.42194305  0.67354440  0.49644486  1
  Ca2+  Ca41  1  0.42468339  0.66264547  0.83247665  1
  Ca2+  Ca42  1  0.91567609  0.17107369  0.15831510  1
  Ca2+  Ca43  1  0.91733488  0.15939407  0.50031180  1
  Ca2+  Ca44  1  0.92444164  0.16546372  0.83055313  1
  Ca2+  Ca45  1  0.92384406  0.67494711  0.15812387  1
  Ca2+  Ca46  1  0.92415218  0.67579604  0.48945513  1
  Ca2+  Ca47  1  0.91279432  0.67302667  0.83764419  1
  Al0+  Al48  1  -0.00135243  0.00034824  -0.00092343  1
  Al0+  Al49  1  -0.00079790  -0.00078244  0.33238779  1
  Al0+  Al50  1  -0.00045655  0.00142872  0.66926877  1
  Al0+  Al51  1  -0.00100681  0.49977115  -0.00294961  1
  Al0+  Al52  1  0.00061570  0.49849373  0.33165928  1
  Al0+  Al53  1  -0.00003820  0.50022226  0.67072532  1
  Al0+  Al54  1  0.49861134  -0.00065635  -0.00423650  1
  Al0+  Al55  1  0.49920889  -0.00177064  0.33385695  1
  Al0+  Al56  1  0.50060091  -0.00158313  0.66291161  1
  Al0+  Al57  1  0.49854523  0.49880841  0.00364175  1
  Al0+  Al58  1  0.49867571  0.49896329  0.33538423  1
  Al0+  Al59  1  0.50052601  0.49960051  0.66580404  1
  Al0+  Al60  1  0.25152577  0.25017030  -0.00224912  1
  Al0+  Al61  1  0.25145400  0.25136880  0.33658720  1
  Al0+  Al62  1  0.25051418  0.25011631  0.66820414  1
  Al0+  Al63  1  0.24896207  0.75076895  0.00617473  1
  Al0+  Al64  1  0.25328856  0.74809031  0.32902404  1
  Al0+  Al65  1  0.25000122  0.75095443  0.66921880  1
  Al0+  Al66  1  0.74955531  0.25104130  -0.00752394  1
  Al0+  Al67  1  0.75078372  0.24996389  0.33219721  1
  Al0+  Al68  1  0.75140246  0.25166469  0.67076196  1
  Al0+  Al69  1  0.74949191  0.74958046  0.00085289  1
  Al0+  Al70  1  0.75089779  0.74866816  0.33730288  1
  Al0+  Al71  1  0.75080137  0.75104755  0.65871128  1
  Al0+  Al72  1  0.92701881  0.82101001  0.98347184  1
  Al0+  Al73  1  0.17698709  0.93080900  0.01600861  1
  Al0+  Al74  1  0.57293368  0.17869632  0.65134043  1
  Al0+  Al75  1  0.82052585  0.57011687  0.01375860  1
  Al0+  Al76  1  0.07241140  0.68066205  0.98323732  1
  Al0+  Al77  1  0.81936694  0.07001830  0.68230024  1
  Al0+  Al78  1  0.56923512  0.17756191  0.98581306  1
  Al0+  Al79  1  0.07051497  0.17913592  0.65116943  1
  Al0+  Al80  1  0.92813938  0.32223796  0.98277527  1
  Al0+  Al81  1  0.31985300  0.07144938  0.34710511  1
  Al0+  Al82  1  0.07258656  0.17808983  0.98549756  1
  Al0+  Al83  1  0.32107327  0.57058531  0.01517942  1
  Al0+  Al84  1  0.57055810  0.18069899  0.32030521  1
  Al0+  Al85  1  0.43148797  0.82057058  0.31886813  1
  Al0+  Al86  1  0.92839622  0.82272508  0.31763173  1
  Al0+  Al87  1  0.07127686  0.67689940  0.31896791  1
  Al0+  Al88  1  0.67804642  0.92703968  0.34963144  1
  Al0+  Al89  1  0.17961228  0.92990299  0.67932121  1
  Al0+  Al90  1  0.67914013  0.43101190  0.68078786  1
  Al0+  Al91  1  0.17822230  0.42802236  0.68169468  1
  Al0+  Al92  1  0.82189593  0.07330745  0.34764779  1
  Al0+  Al93  1  0.67898982  0.92969020  0.01165158  1
  Al0+  Al94  1  0.57118089  0.67850110  0.65297329  1
  Al0+  Al95  1  0.56958040  0.67973101  0.98911715  1
  Si0+  Si96  1  0.82241964  0.56955290  0.34870389  1
  Si0+  Si97  1  0.17858018  0.92718591  0.34891962  1
  Si0+  Si98  1  0.42536797  0.82033613  0.64999875  1
  Si0+  Si99  1  0.92923268  0.32053352  0.31976789  1
  Si0+  Si100  1  0.32453591  0.07185963  0.68353577  1
  Si0+  Si101  1  0.57191127  0.67465492  0.31732199  1
  Si0+  Si102  1  0.32088528  0.57202434  0.68293942  1
  Si0+  Si103  1  0.67736639  0.42629495  0.01850926  1
  Si0+  Si104  1  0.17859554  0.42956093  0.34805491  1
  Si0+  Si105  1  0.82185382  0.57475010  0.68246422  1
  Si0+  Si106  1  0.92974664  0.82224950  0.65049489  1
  Si0+  Si107  1  0.32199900  0.57147683  0.35037419  1
  Si0+  Si108  1  0.07186962  0.67876499  0.65344466  1
  Si0+  Si109  1  0.17807803  0.42694196  0.01751122  1
  Si0+  Si110  1  0.32252152  0.07287850  0.01539467  1
  Si0+  Si111  1  0.42650709  0.82244242  0.98215349  1
  Si0+  Si112  1  0.82030686  0.07350673  0.01573140  1
  Si0+  Si113  1  0.07358124  0.17965439  0.32126344  1
  Si0+  Si114  1  0.67663068  0.92656315  0.68302128  1
  Si0+  Si115  1  0.92961250  0.32359868  0.64832786  1
  Si0+  Si116  1  0.42822434  0.32157312  0.64979054  1
  Si0+  Si117  1  0.42566821  0.32349589  0.31640336  1
  Si0+  Si118  1  0.67887645  0.42912497  0.34710617  1
  Si0+  Si119  1  0.42847798  0.32350891  0.98299042  1
  O2-  O120  1  0.25060573  0.00806866  0.06024872  1
  O2-  O121  1  0.24351790  -0.00130841  0.39470090  1
  O2-  O122  1  0.25422439  0.00471441  0.72683892  1
  O2-  O123  1  0.24397305  0.49788794  0.06301470  1
  O2-  O124  1  0.24854674  0.50193364  0.39088694  1
  O2-  O125  1  0.25206533  0.50380358  0.72713863  1
  O2-  O126  1  0.75130886  0.00573952  0.05999304  1
  O2-  O127  1  0.75105062  -0.00040730  0.39764389  1
  O2-  O128  1  0.74169533  -0.00215070  0.72783114  1
  O2-  O129  1  0.74628382  0.49489910  0.06271430  1
  O2-  O130  1  0.74709544  0.50273236  0.39037278  1
  O2-  O131  1  0.75050354  0.50893800  0.72626459  1
  O2-  O132  1  -0.00188230  0.24636677  0.27974110  1
  O2-  O133  1  -0.00179960  0.25562571  0.60231210  1
  O2-  O134  1  0.00111959  0.25043400  0.93493329  1
  O2-  O135  1  0.00180449  0.75105486  0.26973337  1
  O2-  O136  1  0.00095311  0.74937592  0.61062250  1
  O2-  O137  1  0.00149078  0.75226110  0.93123380  1
  O2-  O138  1  0.49397051  0.25411767  0.27339533  1
  O2-  O139  1  0.49599135  0.25226359  0.60489031  1
  O2-  O140  1  0.49560303  0.25354079  0.93908974  1
  O2-  O141  1  0.50902089  0.74811304  0.27333336  1
  O2-  O142  1  0.49743587  0.75416481  0.60684651  1
  O2-  O143  1  0.49549907  0.75336923  0.93907407  1
  O2-  O144  1  0.07283073  0.18031605  0.10013278  1
  O2-  O145  1  0.07575720  0.18297332  0.42637065  1
  O2-  O146  1  0.06862453  0.17933711  0.76347753  1
  O2-  O147  1  0.07044478  0.68272229  0.09675972  1
  O2-  O148  1  0.06909533  0.67459892  0.43368752  1
  O2-  O149  1  0.07346159  0.67880572  0.75771413  1
  O2-  O150  1  0.56851677  0.17758963  0.09915976  1
  O2-  O151  1  0.57162379  0.18443549  0.43343608  1
  O2-  O152  1  0.57086372  0.17966528  0.76436103  1
  O2-  O153  1  0.56851478  0.68120254  0.10222699  1
  O2-  O154  1  0.56727341  0.67074515  0.42319638  1
  O2-  O155  1  0.57073186  0.67813092  0.76594668  1
  O2-  O156  1  0.17888568  0.42738767  0.24349988  1
  O2-  O157  1  0.17942376  0.43124591  0.56758973  1
  O2-  O158  1  0.18186003  0.42667545  0.91195557  1
  O2-  O159  1  0.17961669  0.92931179  0.24363215  1
  O2-  O160  1  0.18128122  0.92870213  0.56583686  1
  O2-  O161  1  0.17973119  0.93047468  0.90257577  1
  O2-  O162  1  0.67937565  0.42846372  0.24239058  1
  O2-  O163  1  0.68199326  0.43183353  0.56673232  1
  O2-  O164  1  0.67633614  0.42768504  0.91287750  1
  O2-  O165  1  0.67734824  0.92910865  0.23593271  1
  O2-  O166  1  0.67769965  0.92573319  0.57755029  1
  O2-  O167  1  0.68049430  0.92994036  0.89824059  1
  O2-  O168  1  0.42928403  0.32474924  0.08878232  1
  O2-  O169  1  0.42450087  0.32614265  0.42185978  1
  O2-  O170  1  0.42917632  0.32221494  0.75523830  1
  O2-  O171  1  0.42830613  0.82325392  0.08790576  1
  O2-  O172  1  0.42884312  0.81622541  0.43236831  1
  O2-  O173  1  0.42115905  0.81824904  0.75511401  1
  O2-  O174  1  0.92931130  0.31993735  0.09764288  1
  O2-  O175  1  0.93031719  0.32545895  0.42472979  1
  O2-  O176  1  0.93115057  0.32480732  0.75316868  1
  O2-  O177  1  0.92618011  0.81917553  0.09677067  1
  O2-  O178  1  0.93179403  0.82068847  0.43228361  1
  O2-  O179  1  0.92714004  0.82101899  0.75510705  1
  O2-  O180  1  0.31707830  0.07200776  0.23407844  1
  O2-  O181  1  0.32411462  0.07043375  0.57760292  1
  O2-  O182  1  0.32464443  0.07072069  0.90978181  1
  O2-  O183  1  0.32568732  0.56930757  0.24582628  1
  O2-  O184  1  0.31894340  0.57231204  0.57677619  1
  O2-  O185  1  0.32257067  0.56660431  0.90184100  1
  O2-  O186  1  0.81917954  0.07967062  0.23460525  1
  O2-  O187  1  0.82030961  0.06745438  0.56913079  1
  O2-  O188  1  0.81870640  0.07266765  0.90991563  1
  O2-  O189  1  0.82388832  0.56755786  0.24396686  1
  O2-  O190  1  0.82310599  0.57210720  0.57617776  1
  O2-  O191  1  0.81578329  0.57027701  0.90061681  1
  O2-  O192  1  0.05148026  0.08602679  0.27603884  1
  O2-  O193  1  0.03792792  0.08276648  0.59732576  1
  O2-  O194  1  0.04239850  0.08106705  0.93232611  1
  O2-  O195  1  0.04146465  0.57884066  0.26563167  1
  O2-  O196  1  0.04378469  0.58647753  0.60607146  1
  O2-  O197  1  0.04614688  0.58084286  0.93332544  1
  O2-  O198  1  0.53878310  0.08405775  0.26860101  1
  O2-  O199  1  0.54367644  0.08096182  0.59812679  1
  O2-  O200  1  0.53663567  0.08298375  0.92866259  1
  O2-  O201  1  0.54152563  0.58261027  0.27069786  1
  O2-  O202  1  0.53944943  0.58227675  0.59759472  1
  O2-  O203  1  0.53891401  0.58169338  0.93735978  1
  O2-  O204  1  0.16324491  0.21263028  0.27285009  1
  O2-  O205  1  0.16919400  0.20871905  0.59933874  1
  O2-  O206  1  0.17191547  0.20466930  0.93297484  1
  O2-  O207  1  0.17210793  0.69852358  0.26997053  1
  O2-  O208  1  0.16398601  0.70611046  0.60533791  1
  O2-  O209  1  0.17267204  0.70749666  0.93338963  1
  O2-  O210  1  0.66573536  0.21497616  0.26548450  1
  O2-  O211  1  0.66908163  0.21470450  0.59938045  1
  O2-  O212  1  0.66453959  0.20892729  0.93079779  1
  O2-  O213  1  0.66917481  0.69323144  0.27779674  1
  O2-  O214  1  0.66757637  0.70639731  0.59600696  1
  O2-  O215  1  0.66486516  0.70985469  0.93338829  1
  O2-  O216  1  0.08287948  0.44887221  0.06106975  1
  O2-  O217  1  0.08668646  0.45626675  0.39686512  1
  O2-  O218  1  0.08172619  0.45754210  0.73538586  1
  O2-  O219  1  0.08000419  0.96110718  0.06973815  1
  O2-  O220  1  0.08372252  0.94908362  0.39368461  1
  O2-  O221  1  0.08405288  0.96080099  0.73364520  1
  O2-  O222  1  0.58372187  0.44973971  0.06494070  1
  O2-  O223  1  0.58607038  0.45378037  0.39517884  1
  O2-  O224  1  0.58107937  0.45784860  0.73371423  1
  O2-  O225  1  0.58024152  0.95864224  0.06268901  1
  O2-  O226  1  0.57966767  0.95510598  0.40228450  1
  O2-  O227  1  0.58067573  0.94611325  0.72648569  1
  O2-  O228  1  0.20710275  0.33407482  0.06454406  1
  O2-  O229  1  0.20846061  0.33954184  0.39855886  1
  O2-  O230  1  0.21010634  0.33209656  0.73584391  1
  O2-  O231  1  0.20969066  0.83587906  0.07131665  1
  O2-  O232  1  0.20856483  0.83357058  0.39344563  1
  O2-  O233  1  0.21054246  0.83366934  0.73473692  1
  O2-  O234  1  0.70590376  0.33257447  0.06331409  1
  O2-  O235  1  0.71108901  0.33945501  0.39596454  1
  O2-  O236  1  0.71207710  0.33652663  0.73615167  1
  O2-  O237  1  0.70872486  0.83379344  0.06679836  1
  O2-  O238  1  0.70421207  0.82743062  0.40352278  1
  O2-  O239  1  0.70735187  0.83291462  0.72664649  1
  O2-  O240  1  0.45303901  0.41692012  0.27019356  1
  O2-  O241  1  0.45285954  0.41533425  0.60272143  1
  O2-  O242  1  0.45485162  0.41612930  0.93582500  1
  O2-  O243  1  0.45767934  0.91730083  0.26382952  1
  O2-  O244  1  0.44889325  0.91441246  0.60375737  1
  O2-  O245  1  0.44977222  0.91516226  0.93396912  1
  O2-  O246  1  0.96062025  0.41005284  0.26985375  1
  O2-  O247  1  0.95514793  0.41817340  0.60202480  1
  O2-  O248  1  0.95446866  0.42035117  0.92955117  1
  O2-  O249  1  0.95357692  0.92172517  0.26438834  1
  O2-  O250  1  0.96103599  0.91269441  0.60346176  1
  O2-  O251  1  0.95299483  0.92039696  0.93242285  1
  O2-  O252  1  0.33187983  0.29957873  0.26976638  1
  O2-  O253  1  0.33407299  0.29772155  0.60359954  1
  O2-  O254  1  0.33452736  0.30056304  0.93665464  1
  O2-  O255  1  0.33673572  0.78718016  0.26312617  1
  O2-  O256  1  0.33373018  0.79079238  0.60055168  1
  O2-  O257  1  0.33321512  0.79410843  0.93829475  1
  O2-  O258  1  0.83764452  0.29614392  0.27089967  1
  O2-  O259  1  0.83576752  0.29728857  0.60328054  1
  O2-  O260  1  0.83014918  0.29640338  0.92857789  1
  O2-  O261  1  0.82908397  0.79156940  0.26869899  1
  O2-  O262  1  0.83926625  0.79536817  0.59952655  1
  O2-  O263  1  0.83063827  0.78774694  0.92939118  1
  O2-  O264  1  0.41429108  0.04199581  0.06247623  1
  O2-  O265  1  0.41491417  0.03781046  0.40183619  1
  O2-  O266  1  0.41798887  0.04404791  0.72907756  1
  O2-  O267  1  0.41562862  0.53635116  0.07262248  1
  O2-  O268  1  0.41226406  0.54060546  0.40052549  1
  O2-  O269  1  0.41444888  0.54501251  0.72763527  1
  O2-  O270  1  0.91435053  0.05022109  0.06087206  1
  O2-  O271  1  0.92152263  0.04560500  0.40057460  1
  O2-  O272  1  0.91474070  0.03698707  0.73638683  1
  O2-  O273  1  0.91728599  0.53877225  0.06822225  1
  O2-  O274  1  0.91247809  0.53619679  0.39744730  1
  O2-  O275  1  0.91417452  0.54764551  0.72952946  1
  O2-  O276  1  0.30344573  0.16870870  0.06015847  1
  O2-  O277  1  0.29319171  0.16932662  0.40208126  1
  O2-  O278  1  0.30240561  0.16643052  0.72803438  1
  O2-  O279  1  0.29321399  0.66696354  0.07058284  1
  O2-  O280  1  0.29609701  0.66341458  0.39865803  1
  O2-  O281  1  0.29613752  0.66506954  0.72943807  1
  O2-  O282  1  0.79506678  0.16869996  0.05886575  1
  O2-  O283  1  0.79292453  0.17186925  0.40235768  1
  O2-  O284  1  0.79256652  0.16771755  0.73506416  1
  O2-  O285  1  0.78694977  0.66471209  0.06974860  1
  O2-  O286  1  0.79969827  0.66151980  0.39796498  1
  O2-  O287  1  0.79824221  0.67010174  0.72472016  1
