# generated using pymatgen
data_Ca2Al2SiO7
_symmetry_space_group_name_H-M   'P 1'
_cell_length_a   15.46170092
_cell_length_b   15.46079753
_cell_length_c   15.28655430
_cell_angle_alpha   89.99505851
_cell_angle_beta   90.01134712
_cell_angle_gamma   89.97963030
_symmetry_Int_Tables_number   1
_chemical_formula_structural   Ca2Al2SiO7
_chemical_formula_sum   'Ca48 Al48 Si24 O168'
_cell_volume   3654.25396448
_cell_formula_units_Z   24
loop_
 _symmetry_equiv_pos_site_id
 _symmetry_equiv_pos_as_xyz
  1  'x, y, z'
loop_
 _atom_type_symbol
 _atom_type_oxidation_number
  Ca2+  2.0
  Al0+  0.0
  Si0+  0.0
  O2-  -2.0
loop_
 _atom_site_type_symbol
 _atom_site_label
 _atom_site_symmetry_multiplicity
 _atom_site_fract_x
 _atom_site_fract_y
 _atom_site_fract_z
 _atom_site_occupancy
  Ca2+  Ca0  1  0.15966814  0.07721624  0.16992182  1
  Ca2+  Ca1  1  0.15432953  0.07891249  0.50170729  1
  Ca2+  Ca2  1  0.16571555  0.08233822  0.84494999  1
  Ca2+  Ca3  1  0.15613562  0.57884819  0.17402363  1
  Ca2+  Ca4  1  0.16530980  0.57178636  0.50475779  1
  Ca2+  Ca5  1  0.16957020  0.57738129  0.83465131  1
  Ca2+  Ca6  1  0.67493199  0.09096548  0.16647805  1
  Ca2+  Ca7  1  0.66789892  0.08340739  0.50578000  1
  Ca2+  Ca8  1  0.67043791  0.09250765  0.84372254  1
  Ca2+  Ca9  1  0.67138770  0.57954924  0.16906322  1
  Ca2+  Ca10  1  0.67434578  0.58693996  0.50411453  1
  Ca2+  Ca11  1  0.66496997  0.57803821  0.84196847  1
  Ca2+  Ca12  1  0.07523039  0.32853517  0.16249485  1
  Ca2+  Ca13  1  0.08277890  0.33132471  0.49136042  1
  Ca2+  Ca14  1  0.07617946  0.32423040  0.82571747  1
  Ca2+  Ca15  1  0.09028228  0.82584947  0.16407915  1
  Ca2+  Ca16  1  0.08081546  0.82533420  0.48620537  1
  Ca2+  Ca17  1  0.08929773  0.83150256  0.83697480  1
  Ca2+  Ca18  1  0.58283869  0.33186008  0.15698014  1
  Ca2+  Ca19  1  0.57678748  0.33220072  0.50417747  1
  Ca2+  Ca20  1  0.58011589  0.32615092  0.82979128  1
  Ca2+  Ca21  1  0.57669505  0.82761122  0.16232678  1
  Ca2+  Ca22  1  0.57571408  0.82677656  0.49390201  1
  Ca2+  Ca23  1  0.58500139  0.82086645  0.82877698  1
  Ca2+  Ca24  1  0.32420629  0.42033284  0.17380359  1
  Ca2+  Ca25  1  0.32149772  0.41740992  0.50963594  1
  Ca2+  Ca26  1  0.33320287  0.41530785  0.83068325  1
  Ca2+  Ca27  1  0.32458892  0.92140191  0.16986797  1
  Ca2+  Ca28  1  0.32878058  0.91395847  0.49910873  1
  Ca2+  Ca29  1  0.32696101  0.92774108  0.84393649  1
  Ca2+  Ca30  1  0.83327457  0.41549346  0.17093883  1
  Ca2+  Ca31  1  0.84240477  0.42007146  0.50097714  1
  Ca2+  Ca32  1  0.82877084  0.40713008  0.84032789  1
  Ca2+  Ca33  1  0.83895674  0.92310052  0.17068007  1
  Ca2+  Ca34  1  0.83641728  0.91609780  0.50263113  1
  Ca2+  Ca35  1  0.82959515  0.92799699  0.84257364  1
  Ca2+  Ca36  1  0.42091286  0.16557866  0.15919257  1
  Ca2+  Ca37  1  0.41782788  0.17040124  0.50113320  1
  Ca2+  Ca38  1  0.42482339  0.16687043  0.82805258  1
  Ca2+  Ca39  1  0.41598262  0.67519716  0.16036969  1
  Ca2+  Ca40  1  0.41777342  0.66528526  0.49839298  1
  Ca2+  Ca41  1  0.42656664  0.66068295  0.82693099  1
  Ca2+  Ca42  1  0.92482286  0.17370373  0.16001078  1
  Ca2+  Ca43  1  0.92847306  0.18088440  0.49678557  1
  Ca2+  Ca44  1  0.92195103  0.17331794  0.83180597  1
  Ca2+  Ca45  1  0.92441327  0.66781759  0.16845531  1
  Ca2+  Ca46  1  0.92143195  0.67034630  0.48720173  1
  Ca2+  Ca47  1  0.92376003  0.66698865  0.83444939  1
  Al0+  Al48  1  -0.00149100  -0.00075179  0.00530760  1
  Al0+  Al49  1  -0.00049437  0.00101163  0.33499361  1
  Al0+  Al50  1  -0.00298417  0.00040617  0.66709619  1
  Al0+  Al51  1  -0.00122606  0.50263274  -0.00864760  1
  Al0+  Al52  1  -0.00229153  0.50020404  0.33509290  1
  Al0+  Al53  1  0.00011372  0.50224487  0.67055564  1
  Al0+  Al54  1  0.49907094  -0.00039684  0.00020397  1
  Al0+  Al55  1  0.50060814  -0.00161926  0.33052847  1
  Al0+  Al56  1  0.49995481  -0.00418817  0.66421283  1
  Al0+  Al57  1  0.50059274  0.50087815  0.00222910  1
  Al0+  Al58  1  0.50162052  0.49789114  0.33422621  1
  Al0+  Al59  1  0.50236765  0.49964547  0.66066776  1
  Al0+  Al60  1  0.24970851  0.25233994  0.00189332  1
  Al0+  Al61  1  0.25303616  0.24944360  0.33315037  1
  Al0+  Al62  1  0.25049743  0.24640511  0.66455615  1
  Al0+  Al63  1  0.25019138  0.75081881  -0.00311085  1
  Al0+  Al64  1  0.25245238  0.75194686  0.32978003  1
  Al0+  Al65  1  0.25081060  0.74971675  0.67179193  1
  Al0+  Al66  1  0.74747493  0.25101251  0.00354537  1
  Al0+  Al67  1  0.74919799  0.24957476  0.33461977  1
  Al0+  Al68  1  0.75237395  0.25031897  0.65833268  1
  Al0+  Al69  1  0.75020978  0.74975660  -0.00326793  1
  Al0+  Al70  1  0.74957768  0.74962295  0.33335756  1
  Al0+  Al71  1  0.74944230  0.74996436  0.66522537  1
  Al0+  Al72  1  0.17928343  0.93012057  0.34833422  1
  Al0+  Al73  1  0.07372246  0.17944058  0.31740950  1
  Al0+  Al74  1  0.07143692  0.67951175  0.32062817  1
  Al0+  Al75  1  0.92835234  0.32201962  0.31730648  1
  Al0+  Al76  1  0.92804897  0.32113211  0.98509121  1
  Al0+  Al77  1  0.42951679  0.82074924  0.31828968  1
  Al0+  Al78  1  0.57203290  0.67815583  0.65135264  1
  Al0+  Al79  1  0.07185673  0.17680446  0.65253220  1
  Al0+  Al80  1  0.81835619  0.57000948  0.34650681  1
  Al0+  Al81  1  0.07233442  0.67968010  0.98388901  1
  Al0+  Al82  1  0.81868140  0.07148672  0.01444371  1
  Al0+  Al83  1  0.93047236  0.32363489  0.65076042  1
  Al0+  Al84  1  0.57214169  0.17620489  0.65158084  1
  Al0+  Al85  1  0.07161063  0.17779350  0.98590977  1
  Al0+  Al86  1  0.56847892  0.17935405  0.98929649  1
  Al0+  Al87  1  0.57054910  0.67934646  0.98704330  1
  Al0+  Al88  1  0.42861328  0.32029974  0.65172851  1
  Al0+  Al89  1  0.17744619  0.42570785  0.68347038  1
  Al0+  Al90  1  0.32221038  0.57030625  0.68178655  1
  Al0+  Al91  1  0.67919212  0.43048562  0.01257909  1
  Al0+  Al92  1  0.17973920  0.42959304  0.34483312  1
  Al0+  Al93  1  0.32229526  0.07465840  0.01496754  1
  Al0+  Al94  1  0.17893578  0.92921716  0.01634745  1
  Al0+  Al95  1  0.92648848  0.82231301  0.31890589  1
  Si0+  Si96  1  0.32462230  0.57282092  0.34803536  1
  Si0+  Si97  1  0.81787719  0.07052707  0.68153042  1
  Si0+  Si98  1  0.42997778  0.32164647  0.31740746  1
  Si0+  Si99  1  0.92921613  0.81987622  0.65360440  1
  Si0+  Si100  1  0.32500555  0.07063489  0.35200330  1
  Si0+  Si101  1  0.32115671  0.57021790  0.01448657  1
  Si0+  Si102  1  0.67639541  0.42546397  0.35365904  1
  Si0+  Si103  1  0.32383747  0.06874858  0.68078545  1
  Si0+  Si104  1  0.42687593  0.32457415  0.98546109  1
  Si0+  Si105  1  0.67758362  0.92523583  0.01680567  1
  Si0+  Si106  1  0.67806639  0.92757530  0.68162017  1
  Si0+  Si107  1  0.82114968  0.57436933  0.68369559  1
  Si0+  Si108  1  0.57204380  0.67677818  0.31606467  1
  Si0+  Si109  1  0.82112294  0.07220037  0.35153893  1
  Si0+  Si110  1  0.17720880  0.92982214  0.68158439  1
  Si0+  Si111  1  0.42720409  0.82012892  0.64998664  1
  Si0+  Si112  1  0.68186017  0.42914356  0.68057086  1
  Si0+  Si113  1  0.17655750  0.43113484  0.01454056  1
  Si0+  Si114  1  0.92736394  0.82272878  0.98256209  1
  Si0+  Si115  1  0.07268725  0.68119098  0.65236385  1
  Si0+  Si116  1  0.82301211  0.57398362  0.01620720  1
  Si0+  Si117  1  0.56980420  0.17842564  0.31828319  1
  Si0+  Si118  1  0.42833938  0.82172363  0.98071096  1
  Si0+  Si119  1  0.67889751  0.92997919  0.34854823  1
  O2-  O120  1  0.24727255  0.00572165  0.06505664  1
  O2-  O121  1  0.25189991  0.00671306  0.39685880  1
  O2-  O122  1  0.24690794  0.00305114  0.72186926  1
  O2-  O123  1  0.24788920  0.50238630  0.05726644  1
  O2-  O124  1  0.25377487  0.50614637  0.39086691  1
  O2-  O125  1  0.25182192  0.49700574  0.73278456  1
  O2-  O126  1  0.74435510  -0.00478124  0.06151732  1
  O2-  O127  1  0.75167915  -0.00191576  0.39305546  1
  O2-  O128  1  0.74284609  0.00344556  0.72454318  1
  O2-  O129  1  0.75505796  0.50405171  0.05903881  1
  O2-  O130  1  0.74499757  0.49491536  0.39632594  1
  O2-  O131  1  0.75394759  0.49893879  0.72402412  1
  O2-  O132  1  0.00142437  0.25125379  0.26828629  1
  O2-  O133  1  0.00945809  0.25776145  0.60308833  1
  O2-  O134  1  0.00108883  0.25042082  0.93529899  1
  O2-  O135  1  0.00248134  0.75450433  0.26987235  1
  O2-  O136  1  0.00107653  0.75118722  0.61032668  1
  O2-  O137  1  -0.00219839  0.75581078  0.93803872  1
  O2-  O138  1  0.50152144  0.25130179  0.27569423  1
  O2-  O139  1  0.49861053  0.24585660  0.60087300  1
  O2-  O140  1  0.49011608  0.24989423  0.94296384  1
  O2-  O141  1  0.50009787  0.74168562  0.27216198  1
  O2-  O142  1  0.49424595  0.74980624  0.60559142  1
  O2-  O143  1  0.49813489  0.75412839  0.93675945  1
  O2-  O144  1  0.07018185  0.17962376  0.09902940  1
  O2-  O145  1  0.07109356  0.18028784  0.43119455  1
  O2-  O146  1  0.06614905  0.17090622  0.76562887  1
  O2-  O147  1  0.07106797  0.67813707  0.09649662  1
  O2-  O148  1  0.06983880  0.68001131  0.43485746  1
  O2-  O149  1  0.07200732  0.68381842  0.75757260  1
  O2-  O150  1  0.56905576  0.18240483  0.10276624  1
  O2-  O151  1  0.56814828  0.17686555  0.42346481  1
  O2-  O152  1  0.57198917  0.17740834  0.76493933  1
  O2-  O153  1  0.56767392  0.68049452  0.10010726  1
  O2-  O154  1  0.57274015  0.67936502  0.42188700  1
  O2-  O155  1  0.57419883  0.68093747  0.76439129  1
  O2-  O156  1  0.18204535  0.43137467  0.23127537  1
  O2-  O157  1  0.17703069  0.43043914  0.56959371  1
  O2-  O158  1  0.17830140  0.43153724  0.90970829  1
  O2-  O159  1  0.18202586  0.92858735  0.23609005  1
  O2-  O160  1  0.17719294  0.92730236  0.57649197  1
  O2-  O161  1  0.18186505  0.92871355  0.90167597  1
  O2-  O162  1  0.67345465  0.42563994  0.24821305  1
  O2-  O163  1  0.68249059  0.43077208  0.57535845  1
  O2-  O164  1  0.67775014  0.43131791  0.89913900  1
  O2-  O165  1  0.67717171  0.93189789  0.24379061  1
  O2-  O166  1  0.68071082  0.92555757  0.57627396  1
  O2-  O167  1  0.68019860  0.92361751  0.91077359  1
  O2-  O168  1  0.43021094  0.32799543  0.09134032  1
  O2-  O169  1  0.43054797  0.32191835  0.42226496  1
  O2-  O170  1  0.43230799  0.31989680  0.76544839  1
  O2-  O171  1  0.42912355  0.81949337  0.08638629  1
  O2-  O172  1  0.43283292  0.82147956  0.43169835  1
  O2-  O173  1  0.42959150  0.82213666  0.75520443  1
  O2-  O174  1  0.92933562  0.32184170  0.09834695  1
  O2-  O175  1  0.92949942  0.32100638  0.43081223  1
  O2-  O176  1  0.92472885  0.31769199  0.76380121  1
  O2-  O177  1  0.92335032  0.82074739  0.08747858  1
  O2-  O178  1  0.92645771  0.81902499  0.43350195  1
  O2-  O179  1  0.92795398  0.81979704  0.75858666  1
  O2-  O180  1  0.32979474  0.06824793  0.24700584  1
  O2-  O181  1  0.32911580  0.06381811  0.57591178  1
  O2-  O182  1  0.32478887  0.07054238  0.90087448  1
  O2-  O183  1  0.32885755  0.56952558  0.24220748  1
  O2-  O184  1  0.31861142  0.57319502  0.56815247  1
  O2-  O185  1  0.32337806  0.56796667  0.90961071  1
  O2-  O186  1  0.81732715  0.07364681  0.24664184  1
  O2-  O187  1  0.81788745  0.06574624  0.57637542  1
  O2-  O188  1  0.81587378  0.06974808  0.90067193  1
  O2-  O189  1  0.81493012  0.57162329  0.23366677  1
  O2-  O190  1  0.81916143  0.57872734  0.57866112  1
  O2-  O191  1  0.82063458  0.57646094  0.91025550  1
  O2-  O192  1  0.04330975  0.08054612  0.26831335  1
  O2-  O193  1  0.03276777  0.08125276  0.59817224  1
  O2-  O194  1  0.04261146  0.07788211  0.93632837  1
  O2-  O195  1  0.03756928  0.58339339  0.26759539  1
  O2-  O196  1  0.04508955  0.58882095  0.60752028  1
  O2-  O197  1  0.03930776  0.58636334  0.92523872  1
  O2-  O198  1  0.54180017  0.08749719  0.27033703  1
  O2-  O199  1  0.54613590  0.07600943  0.59992156  1
  O2-  O200  1  0.54536374  0.08052624  0.93550784  1
  O2-  O201  1  0.55099856  0.58082349  0.27315668  1
  O2-  O202  1  0.54642204  0.58237174  0.59495545  1
  O2-  O203  1  0.53749561  0.58342513  0.93309207  1
  O2-  O204  1  0.17428850  0.20365424  0.26725669  1
  O2-  O205  1  0.17423020  0.18941710  0.60340266  1
  O2-  O206  1  0.17167785  0.20513313  0.93517682  1
  O2-  O207  1  0.17092906  0.70309634  0.26828259  1
  O2-  O208  1  0.16448225  0.70971138  0.60625220  1
  O2-  O209  1  0.16847808  0.71064790  0.92848317  1
  O2-  O210  1  0.66253968  0.20479880  0.27291329  1
  O2-  O211  1  0.66840474  0.20632038  0.59592334  1
  O2-  O212  1  0.66285001  0.21437939  0.93487746  1
  O2-  O213  1  0.66312822  0.70748341  0.26942826  1
  O2-  O214  1  0.66680519  0.71478010  0.59657742  1
  O2-  O215  1  0.66737678  0.70806648  0.93169094  1
  O2-  O216  1  0.08456463  0.46250400  0.05922684  1
  O2-  O217  1  0.08351107  0.45943061  0.39928083  1
  O2-  O218  1  0.08037331  0.45892811  0.73742842  1
  O2-  O219  1  0.07860079  0.94913617  0.06779301  1
  O2-  O220  1  0.08122775  0.95726255  0.40321637  1
  O2-  O221  1  0.08430380  0.95533962  0.72848161  1
  O2-  O222  1  0.58402012  0.46351831  0.06982540  1
  O2-  O223  1  0.58278032  0.45187600  0.40050022  1
  O2-  O224  1  0.58998532  0.45761774  0.72648291  1
  O2-  O225  1  0.58283795  0.94784039  0.06087792  1
  O2-  O226  1  0.58835928  0.96100353  0.39774358  1
  O2-  O227  1  0.58389156  0.94727111  0.72757630  1
  O2-  O228  1  0.20337889  0.33995301  0.06315815  1
  O2-  O229  1  0.21434672  0.33380690  0.39873707  1
  O2-  O230  1  0.20428807  0.32515412  0.73317945  1
  O2-  O231  1  0.21265565  0.83081150  0.06701559  1
  O2-  O232  1  0.21337609  0.83307133  0.40182395  1
  O2-  O233  1  0.20674894  0.83916542  0.73051561  1
  O2-  O234  1  0.70723138  0.33532827  0.06996343  1
  O2-  O235  1  0.70037850  0.33133842  0.39948501  1
  O2-  O236  1  0.70923686  0.33566991  0.72541690  1
  O2-  O237  1  0.70451170  0.83200502  0.06327663  1
  O2-  O238  1  0.70368098  0.83725431  0.39614231  1
  O2-  O239  1  0.71200956  0.83803547  0.73054420  1
  O2-  O240  1  0.45772107  0.41363275  0.26948787  1
  O2-  O241  1  0.46108049  0.41604221  0.59588657  1
  O2-  O242  1  0.45936003  0.41506643  0.93761755  1
  O2-  O243  1  0.46612872  0.91470887  0.26301646  1
  O2-  O244  1  0.45541933  0.91132243  0.60061110  1
  O2-  O245  1  0.45337850  0.91552227  0.93539112  1
  O2-  O246  1  0.95309207  0.42130182  0.26624863  1
  O2-  O247  1  0.95065946  0.42661172  0.60370823  1
  O2-  O248  1  0.95195760  0.42002646  0.93132580  1
  O2-  O249  1  0.94851875  0.92310973  0.27083703  1
  O2-  O250  1  0.95406950  0.91220917  0.60637366  1
  O2-  O251  1  0.95180821  0.91642966  0.93650708  1
  O2-  O252  1  0.33947165  0.29418217  0.26822419  1
  O2-  O253  1  0.33065417  0.29273195  0.59786279  1
  O2-  O254  1  0.33162298  0.30640259  0.94098684  1
  O2-  O255  1  0.33423777  0.79335529  0.26152743  1
  O2-  O256  1  0.33272210  0.79543965  0.60495285  1
  O2-  O257  1  0.33601654  0.79513710  0.93372138  1
  O2-  O258  1  0.82819815  0.29235504  0.26800132  1
  O2-  O259  1  0.83541970  0.29029880  0.59383085  1
  O2-  O260  1  0.82932468  0.28983450  0.93489198  1
  O2-  O261  1  0.82875809  0.79261515  0.26567332  1
  O2-  O262  1  0.83807478  0.79144929  0.60520977  1
  O2-  O263  1  0.83494518  0.79560734  0.93347589  1
  O2-  O264  1  0.42006462  0.04204677  0.06893113  1
  O2-  O265  1  0.41691371  0.03840940  0.39938977  1
  O2-  O266  1  0.41370912  0.03483540  0.73011574  1
  O2-  O267  1  0.41118701  0.54135682  0.06480820  1
  O2-  O268  1  0.41779620  0.54490984  0.39522595  1
  O2-  O269  1  0.42338484  0.54282249  0.73088421  1
  O2-  O270  1  0.91365716  0.04010247  0.07015499  1
  O2-  O271  1  0.91229118  0.04607727  0.40040980  1
  O2-  O272  1  0.90724351  0.03704383  0.73057460  1
  O2-  O273  1  0.91764561  0.54938891  0.05963255  1
  O2-  O274  1  0.91431296  0.54163839  0.40330163  1
  O2-  O275  1  0.91444003  0.55326979  0.73062886  1
  O2-  O276  1  0.30240247  0.17577165  0.06661813  1
  O2-  O277  1  0.30564818  0.16668380  0.39522928  1
  O2-  O278  1  0.30459688  0.16269781  0.72616286  1
  O2-  O279  1  0.29621687  0.66397750  0.05882316  1
  O2-  O280  1  0.30389651  0.66807979  0.39163486  1
  O2-  O281  1  0.29379519  0.66854740  0.73706918  1
  O2-  O282  1  0.78382712  0.16522075  0.07082703  1
  O2-  O283  1  0.78798580  0.16200741  0.40016777  1
  O2-  O284  1  0.79241261  0.16395499  0.72598985  1
  O2-  O285  1  0.79538784  0.66713924  0.06214921  1
  O2-  O286  1  0.78606277  0.66662219  0.40244300  1
  O2-  O287  1  0.78861946  0.66461083  0.73231471  1
