# generated using pymatgen
data_Ca2Al2SiO7
_symmetry_space_group_name_H-M   'P 1'
_cell_length_a   15.46574555
_cell_length_b   15.46510321
_cell_length_c   15.28922260
_cell_angle_alpha   89.99176186
_cell_angle_beta   90.00923902
_cell_angle_gamma   89.99423641
_symmetry_Int_Tables_number   1
_chemical_formula_structural   Ca2Al2SiO7
_chemical_formula_sum   'Ca48 Al48 Si24 O168'
_cell_volume   3656.86623520
_cell_formula_units_Z   24
loop_
 _symmetry_equiv_pos_site_id
 _symmetry_equiv_pos_as_xyz
  1  'x, y, z'
loop_
 _atom_type_symbol
 _atom_type_oxidation_number
  Ca2+  2.0
  Al0+  0.0
  Si0+  0.0
  O2-  -2.0
loop_
 _atom_site_type_symbol
 _atom_site_label
 _atom_site_symmetry_multiplicity
 _atom_site_fract_x
 _atom_site_fract_y
 _atom_site_fract_z
 _atom_site_occupancy
  Ca2+  Ca0  1  0.17782172  0.07379819  0.17904053  1
  Ca2+  Ca1  1  0.17598176  0.08843307  0.50639745  1
  Ca2+  Ca2  1  0.17856045  0.07909486  0.84059241  1
  Ca2+  Ca3  1  0.17081809  0.57919613  0.18125599  1
  Ca2+  Ca4  1  0.16226707  0.57672160  0.50040494  1
  Ca2+  Ca5  1  0.16183198  0.57935906  0.83043228  1
  Ca2+  Ca6  1  0.65704193  0.08043549  0.16871650  1
  Ca2+  Ca7  1  0.66270685  0.08155404  0.50673504  1
  Ca2+  Ca8  1  0.65527398  0.07410897  0.83531835  1
  Ca2+  Ca9  1  0.67457178  0.58116215  0.17660260  1
  Ca2+  Ca10  1  0.67848092  0.59110123  0.50720506  1
  Ca2+  Ca11  1  0.67108309  0.59315254  0.83159986  1
  Ca2+  Ca12  1  0.08521235  0.33230647  0.17334464  1
  Ca2+  Ca13  1  0.08677647  0.32841675  0.49387930  1
  Ca2+  Ca14  1  0.08523661  0.32762224  0.82323501  1
  Ca2+  Ca15  1  0.09698840  0.82930515  0.16648392  1
  Ca2+  Ca16  1  0.09141551  0.82168214  0.49261406  1
  Ca2+  Ca17  1  0.08500217  0.82929546  0.82662246  1
  Ca2+  Ca18  1  0.58139591  0.32098050  0.16312757  1
  Ca2+  Ca19  1  0.58379036  0.32065583  0.49403070  1
  Ca2+  Ca20  1  0.57924307  0.32038086  0.82787934  1
  Ca2+  Ca21  1  0.56871635  0.83725116  0.16119829  1
  Ca2+  Ca22  1  0.57232236  0.83487338  0.50129025  1
  Ca2+  Ca23  1  0.57497827  0.83930320  0.82528813  1
  Ca2+  Ca24  1  0.32947958  0.42730000  0.17927192  1
  Ca2+  Ca25  1  0.32138195  0.41777355  0.50331805  1
  Ca2+  Ca26  1  0.32794377  0.41689215  0.83219342  1
  Ca2+  Ca27  1  0.33050485  0.92076377  0.17072020  1
  Ca2+  Ca28  1  0.33464350  0.92205305  0.49878089  1
  Ca2+  Ca29  1  0.33751018  0.92326419  0.83760511  1
  Ca2+  Ca30  1  0.83434648  0.41873640  0.17731211  1
  Ca2+  Ca31  1  0.84205036  0.42508194  0.50105898  1
  Ca2+  Ca32  1  0.83254669  0.42286198  0.83186831  1
  Ca2+  Ca33  1  0.82295625  0.91618097  0.16848586  1
  Ca2+  Ca34  1  0.82347209  0.91569983  0.50682407  1
  Ca2+  Ca35  1  0.81812337  0.91500524  0.83607086  1
  Ca2+  Ca36  1  0.42211789  0.15373754  0.16622562  1
  Ca2+  Ca37  1  0.42378262  0.15521031  0.49701508  1
  Ca2+  Ca38  1  0.42220313  0.15465049  0.82956394  1
  Ca2+  Ca39  1  0.40347689  0.68062844  0.16552178  1
  Ca2+  Ca40  1  0.41124577  0.67906750  0.49361637  1
  Ca2+  Ca41  1  0.42231813  0.68371981  0.82253763  1
  Ca2+  Ca42  1  0.92438034  0.16857656  0.16968651  1
  Ca2+  Ca43  1  0.93254303  0.17140438  0.49030678  1
  Ca2+  Ca44  1  0.92640946  0.16727006  0.82582157  1
  Ca2+  Ca45  1  0.92213943  0.66357451  0.17056106  1
  Ca2+  Ca46  1  0.92370562  0.66025872  0.49615098  1
  Ca2+  Ca47  1  0.92040729  0.66913115  0.82326677  1
  Al0+  Al48  1  -0.00170992  -0.00180029  0.00197357  1
  Al0+  Al49  1  -0.00258630  -0.00210396  0.33192143  1
  Al0+  Al50  1  -0.00015191  0.00056657  0.66241809  1
  Al0+  Al51  1  -0.00059106  0.49986198  -0.00077381  1
  Al0+  Al52  1  -0.00088476  0.50072425  0.33161494  1
  Al0+  Al53  1  -0.00105265  0.50113784  0.67424859  1
  Al0+  Al54  1  0.50025177  -0.00156457  -0.00001729  1
  Al0+  Al55  1  0.49860107  -0.00329516  0.32902937  1
  Al0+  Al56  1  0.49913660  0.00005086  0.66550813  1
  Al0+  Al57  1  0.50186747  0.49839134  -0.00034144  1
  Al0+  Al58  1  0.50264940  0.49931388  0.33839703  1
  Al0+  Al59  1  0.50099483  0.50010065  0.66505343  1
  Al0+  Al60  1  0.25053475  0.25145077  0.00481028  1
  Al0+  Al61  1  0.25314478  0.24990409  0.33555896  1
  Al0+  Al62  1  0.25079791  0.25068052  0.67405546  1
  Al0+  Al63  1  0.25039421  0.74816960  -0.00654594  1
  Al0+  Al64  1  0.24975821  0.75124819  0.33123340  1
  Al0+  Al65  1  0.24898401  0.74973492  0.65895459  1
  Al0+  Al66  1  0.75133409  0.25131366  -0.00579416  1
  Al0+  Al67  1  0.75025338  0.24795004  0.32497645  1
  Al0+  Al68  1  0.75055409  0.25229720  0.66432018  1
  Al0+  Al69  1  0.75282952  0.75039530  0.00651749  1
  Al0+  Al70  1  0.74960828  0.74914788  0.33680484  1
  Al0+  Al71  1  0.74935597  0.75158339  0.67310017  1
  Al0+  Al72  1  0.32327150  0.57364562  0.34853054  1
  Al0+  Al73  1  0.42990310  0.81827943  0.98448938  1
  Al0+  Al74  1  0.67993969  0.93076232  0.01512148  1
  Al0+  Al75  1  0.17604944  0.92889967  0.34977202  1
  Al0+  Al76  1  0.42872755  0.82179215  0.64897449  1
  Al0+  Al77  1  0.56899463  0.17868509  0.31880449  1
  Al0+  Al78  1  0.17946725  0.42946203  0.34824875  1
  Al0+  Al79  1  0.07278740  0.17911322  0.65557575  1
  Al0+  Al80  1  0.18039942  0.43132055  0.68182997  1
  Al0+  Al81  1  0.17694497  0.92639994  0.01312384  1
  Al0+  Al82  1  0.68040717  0.93301908  0.67933821  1
  Al0+  Al83  1  0.43018343  0.81769876  0.31717687  1
  Al0+  Al84  1  0.32178757  0.06945480  0.34990490  1
  Al0+  Al85  1  0.93134855  0.32041930  0.31892916  1
  Al0+  Al86  1  0.31924421  0.06899694  0.68130412  1
  Al0+  Al87  1  0.81909121  0.56970071  0.34759773  1
  Al0+  Al88  1  0.81848405  0.56935926  0.68215237  1
  Al0+  Al89  1  0.32091291  0.07077638  0.01649694  1
  Al0+  Al90  1  0.57348120  0.67847287  0.65214887  1
  Al0+  Al91  1  0.06825803  0.68182022  0.31917463  1
  Al0+  Al92  1  0.06856017  0.67894637  0.65271032  1
  Al0+  Al93  1  0.56880285  0.18010987  0.98483060  1
  Al0+  Al94  1  0.07588165  0.17618209  0.31767048  1
  Al0+  Al95  1  0.56935164  0.18067808  0.65321285  1
  Si0+  Si96  1  0.17715496  0.43002726  0.01588146  1
  Si0+  Si97  1  0.92691151  0.82260972  0.65109856  1
  Si0+  Si98  1  0.06896431  0.67856089  0.98395621  1
  Si0+  Si99  1  0.93049499  0.32266719  0.98222820  1
  Si0+  Si100  1  0.57465920  0.67658535  0.31730905  1
  Si0+  Si101  1  0.82334803  0.07497344  0.01689036  1
  Si0+  Si102  1  0.68013603  0.42723608  0.01479720  1
  Si0+  Si103  1  0.67910055  0.93018292  0.34825975  1
  Si0+  Si104  1  0.92611722  0.82110264  0.98460699  1
  Si0+  Si105  1  0.92920188  0.32260173  0.65195966  1
  Si0+  Si106  1  0.67898382  0.42404698  0.34984739  1
  Si0+  Si107  1  0.57577554  0.67612818  0.98604394  1
  Si0+  Si108  1  0.32144748  0.56913879  0.01127908  1
  Si0+  Si109  1  0.42887351  0.32525478  0.31753154  1
  Si0+  Si110  1  0.32369509  0.57494360  0.68377020  1
  Si0+  Si111  1  0.42650022  0.32394641  0.65036459  1
  Si0+  Si112  1  0.67544766  0.42464044  0.68475767  1
  Si0+  Si113  1  0.82448564  0.07529314  0.68162182  1
  Si0+  Si114  1  0.82038956  0.07246773  0.34757918  1
  Si0+  Si115  1  0.82153878  0.56968061  0.01695235  1
  Si0+  Si116  1  0.92251456  0.82250926  0.31551095  1
  Si0+  Si117  1  0.17552857  0.92572585  0.68148540  1
  Si0+  Si118  1  0.42672813  0.32599183  0.98292337  1
  Si0+  Si119  1  0.07137909  0.17885618  0.98658677  1
  O2-  O120  1  0.24549468  0.00089131  0.06373634  1
  O2-  O121  1  0.24221852  0.00591645  0.39993073  1
  O2-  O122  1  0.24300016  -0.00530487  0.72653532  1
  O2-  O123  1  0.25180741  0.49778885  0.05529891  1
  O2-  O124  1  0.25284851  0.50007808  0.39807854  1
  O2-  O125  1  0.25528205  0.50612525  0.72945385  1
  O2-  O126  1  0.75208298  0.00875314  0.06116473  1
  O2-  O127  1  0.75072158  0.00061029  0.39006346  1
  O2-  O128  1  0.75462013  0.00868531  0.72702673  1
  O2-  O129  1  0.74815137  0.50084356  0.05772665  1
  O2-  O130  1  0.74448899  0.49525428  0.39433232  1
  O2-  O131  1  0.74028253  0.49779568  0.72916394  1
  O2-  O132  1  0.00409773  0.24954200  0.26767870  1
  O2-  O133  1  -0.00518813  0.25080444  0.60978979  1
  O2-  O134  1  0.00142766  0.25081703  0.94205339  1
  O2-  O135  1  -0.00364267  0.75910876  0.27110869  1
  O2-  O136  1  -0.00205541  0.75741533  0.60637340  1
  O2-  O137  1  0.00101039  0.75340910  0.94332896  1
  O2-  O138  1  0.49458373  0.25397226  0.27241839  1
  O2-  O139  1  0.49723178  0.25734628  0.60635181  1
  O2-  O140  1  0.49079180  0.25253195  0.93953859  1
  O2-  O141  1  0.50166273  0.73854749  0.27081391  1
  O2-  O142  1  0.49704169  0.74431453  0.60135746  1
  O2-  O143  1  0.50704917  0.74376785  0.94149254  1
  O2-  O144  1  0.06894861  0.18106953  0.09110255  1
  O2-  O145  1  0.07289039  0.17796570  0.43126649  1
  O2-  O146  1  0.07061629  0.18074752  0.76969514  1
  O2-  O147  1  0.06763911  0.67472354  0.08868585  1
  O2-  O148  1  0.06488354  0.67959658  0.43183715  1
  O2-  O149  1  0.06596756  0.67944544  0.76688725  1
  O2-  O150  1  0.56989187  0.18319143  0.09774635  1
  O2-  O151  1  0.57072606  0.17896242  0.43185737  1
  O2-  O152  1  0.56790083  0.18060841  0.76646025  1
  O2-  O153  1  0.57672687  0.67451194  0.09148748  1
  O2-  O154  1  0.57896618  0.68183784  0.42219700  1
  O2-  O155  1  0.57286126  0.68260567  0.76652916  1
  O2-  O156  1  0.18047687  0.43311683  0.23364369  1
  O2-  O157  1  0.17906724  0.43122908  0.56972195  1
  O2-  O158  1  0.17428288  0.43102490  0.91076835  1
  O2-  O159  1  0.18072552  0.92774069  0.23594091  1
  O2-  O160  1  0.17418894  0.92642456  0.57655907  1
  O2-  O161  1  0.17515348  0.92749304  0.89932097  1
  O2-  O162  1  0.68033326  0.42549343  0.24350577  1
  O2-  O163  1  0.67854011  0.41909157  0.57988798  1
  O2-  O164  1  0.68209006  0.42638519  0.91000711  1
  O2-  O165  1  0.68045331  0.93059620  0.24283624  1
  O2-  O166  1  0.68204995  0.93401458  0.56604455  1
  O2-  O167  1  0.68161544  0.93019986  0.90221064  1
  O2-  O168  1  0.43061187  0.33447788  0.08772320  1
  O2-  O169  1  0.43210859  0.32821435  0.42275976  1
  O2-  O170  1  0.42759817  0.32410560  0.75645648  1
  O2-  O171  1  0.42893523  0.81599546  0.09743147  1
  O2-  O172  1  0.43398337  0.82092035  0.42953526  1
  O2-  O173  1  0.43103660  0.82296417  0.76307842  1
  O2-  O174  1  0.92990829  0.32645369  0.08667714  1
  O2-  O175  1  0.93007458  0.31837276  0.43237803  1
  O2-  O176  1  0.93014151  0.32201619  0.75847264  1
  O2-  O177  1  0.92005281  0.81756640  0.08905839  1
  O2-  O178  1  0.91592024  0.81941770  0.42060409  1
  O2-  O179  1  0.92715821  0.82080100  0.75736081  1
  O2-  O180  1  0.32443738  0.06470245  0.23645006  1
  O2-  O181  1  0.32026240  0.06987649  0.56891643  1
  O2-  O182  1  0.31976863  0.06988670  0.90266911  1
  O2-  O183  1  0.31991578  0.57172459  0.23352828  1
  O2-  O184  1  0.32286572  0.57365955  0.57887824  1
  O2-  O185  1  0.31971459  0.56778642  0.90633570  1
  O2-  O186  1  0.81920577  0.07239501  0.24218316  1
  O2-  O187  1  0.82452023  0.07393011  0.57614013  1
  O2-  O188  1  0.82690777  0.07353319  0.91133720  1
  O2-  O189  1  0.81745425  0.56899123  0.23365318  1
  O2-  O190  1  0.82071180  0.56681485  0.56968287  1
  O2-  O191  1  0.82301135  0.56949885  0.91200342  1
  O2-  O192  1  0.04172417  0.07858249  0.26509404  1
  O2-  O193  1  0.04523240  0.08263380  0.60018875  1
  O2-  O194  1  0.04210342  0.08679561  0.94014490  1
  O2-  O195  1  0.03443486  0.58691983  0.26308863  1
  O2-  O196  1  0.03211918  0.58290462  0.60256541  1
  O2-  O197  1  0.03583225  0.58815750  0.93555149  1
  O2-  O198  1  0.53738521  0.08270683  0.26440675  1
  O2-  O199  1  0.53755674  0.08542358  0.59908054  1
  O2-  O200  1  0.53959556  0.08270356  0.93265008  1
  O2-  O201  1  0.55825957  0.57892468  0.27575534  1
  O2-  O202  1  0.55726715  0.57564251  0.60398870  1
  O2-  O203  1  0.55306703  0.58145546  0.94004489  1
  O2-  O204  1  0.17458394  0.20480738  0.26550696  1
  O2-  O205  1  0.16828733  0.21458808  0.60446768  1
  O2-  O206  1  0.16403621  0.20714349  0.94090717  1
  O2-  O207  1  0.16498023  0.71018943  0.26380501  1
  O2-  O208  1  0.16574523  0.70273771  0.59825339  1
  O2-  O209  1  0.16087427  0.70157090  0.93489850  1
  O2-  O210  1  0.66457524  0.20828689  0.26181667  1
  O2-  O211  1  0.66812004  0.20826206  0.60084709  1
  O2-  O212  1  0.66589696  0.21226579  0.93139219  1
  O2-  O213  1  0.66649274  0.70700338  0.26890774  1
  O2-  O214  1  0.67122829  0.71202461  0.60135063  1
  O2-  O215  1  0.67060286  0.70264612  0.94257129  1
  O2-  O216  1  0.08632375  0.46202474  0.06282417  1
  O2-  O217  1  0.08116780  0.45970470  0.39874503  1
  O2-  O218  1  0.08526101  0.46322004  0.73946703  1
  O2-  O219  1  0.07571475  0.94693213  0.06449402  1
  O2-  O220  1  0.07218150  0.94417665  0.39681731  1
  O2-  O221  1  0.08015179  0.94908158  0.72650212  1
  O2-  O222  1  0.58721524  0.45137207  0.06223889  1
  O2-  O223  1  0.58501804  0.44407700  0.39620917  1
  O2-  O224  1  0.58023136  0.44491316  0.73014463  1
  O2-  O225  1  0.58405789  0.96061628  0.06935157  1
  O2-  O226  1  0.58822716  0.95972668  0.39432016  1
  O2-  O227  1  0.58499946  0.96550731  0.73384710  1
  O2-  O228  1  0.19995976  0.33739823  0.06295133  1
  O2-  O229  1  0.20623079  0.33073987  0.40044052  1
  O2-  O230  1  0.21279457  0.33697252  0.74044272  1
  O2-  O231  1  0.20794187  0.82651563  0.06225109  1
  O2-  O232  1  0.21030080  0.83207045  0.40080598  1
  O2-  O233  1  0.20052832  0.83089546  0.72597473  1
  O2-  O234  1  0.71204753  0.33680297  0.06248203  1
  O2-  O235  1  0.70780048  0.33056274  0.39377458  1
  O2-  O236  1  0.70758835  0.33377056  0.73479183  1
  O2-  O237  1  0.71435403  0.83542551  0.07042034  1
  O2-  O238  1  0.70761447  0.83883668  0.39540935  1
  O2-  O239  1  0.71203828  0.83835770  0.73704485  1
  O2-  O240  1  0.45757158  0.41805298  0.26916251  1
  O2-  O241  1  0.44763617  0.41844976  0.60476755  1
  O2-  O242  1  0.45749369  0.41664096  0.93202859  1
  O2-  O243  1  0.46684941  0.91107329  0.26095426  1
  O2-  O244  1  0.46430878  0.91717261  0.59595121  1
  O2-  O245  1  0.46264755  0.91444964  0.93217765  1
  O2-  O246  1  0.95812699  0.41827460  0.26337798  1
  O2-  O247  1  0.95897273  0.41531612  0.60847422  1
  O2-  O248  1  0.96001166  0.41405811  0.93355597  1
  O2-  O249  1  0.93960422  0.91806388  0.27040328  1
  O2-  O250  1  0.94536044  0.91757442  0.60527747  1
  O2-  O251  1  0.94764215  0.91477108  0.93781609  1
  O2-  O252  1  0.33441627  0.30421677  0.27201629  1
  O2-  O253  1  0.33327583  0.29595792  0.60681819  1
  O2-  O254  1  0.33011315  0.30526517  0.94053955  1
  O2-  O255  1  0.33370600  0.78864067  0.26211373  1
  O2-  O256  1  0.32972477  0.79695560  0.59664809  1
  O2-  O257  1  0.33497030  0.78557265  0.92763733  1
  O2-  O258  1  0.83442117  0.29027262  0.26207071  1
  O2-  O259  1  0.83458162  0.30366060  0.60630105  1
  O2-  O260  1  0.83910580  0.29666866  0.93294762  1
  O2-  O261  1  0.83180322  0.78920395  0.26624630  1
  O2-  O262  1  0.83413509  0.79386323  0.60645915  1
  O2-  O263  1  0.83672073  0.78726170  0.93493303  1
  O2-  O264  1  0.41854324  0.03891699  0.06733487  1
  O2-  O265  1  0.41871887  0.03218131  0.40130149  1
  O2-  O266  1  0.41514434  0.03531522  0.73491245  1
  O2-  O267  1  0.41431395  0.54426950  0.05849232  1
  O2-  O268  1  0.42382610  0.55084711  0.39929250  1
  O2-  O269  1  0.41796304  0.54992924  0.72983740  1
  O2-  O270  1  0.91467052  0.04581396  0.06559281  1
  O2-  O271  1  0.91233131  0.04689125  0.39517536  1
  O2-  O272  1  0.91764403  0.04797732  0.72897679  1
  O2-  O273  1  0.91250596  0.53762519  0.06380959  1
  O2-  O274  1  0.91502854  0.53792451  0.40035808  1
  O2-  O275  1  0.91196574  0.53543005  0.74129319  1
  O2-  O276  1  0.29869582  0.17209194  0.06741025  1
  O2-  O277  1  0.30538879  0.17167625  0.39884406  1
  O2-  O278  1  0.29131506  0.16541309  0.73777352  1
  O2-  O279  1  0.29065514  0.66019226  0.05746394  1
  O2-  O280  1  0.29159048  0.67051842  0.39951407  1
  O2-  O281  1  0.29498641  0.66839426  0.72908789  1
  O2-  O282  1  0.80019242  0.17052993  0.05974246  1
  O2-  O283  1  0.79052646  0.16369179  0.39408610  1
  O2-  O284  1  0.80238424  0.17029512  0.72677169  1
  O2-  O285  1  0.79785263  0.66159022  0.06551147  1
  O2-  O286  1  0.78911939  0.66610379  0.40243126  1
  O2-  O287  1  0.79044230  0.66621435  0.73848163  1
