# generated using pymatgen
data_Ca2Al2SiO7
_symmetry_space_group_name_H-M   'P 1'
_cell_length_a   15.45284388
_cell_length_b   15.45339394
_cell_length_c   15.28024506
_cell_angle_alpha   90.00072874
_cell_angle_beta   90.00972264
_cell_angle_gamma   89.99521782
_symmetry_Int_Tables_number   1
_chemical_formula_structural   Ca2Al2SiO7
_chemical_formula_sum   'Ca48 Al48 Si24 O168'
_cell_volume   3648.90540223
_cell_formula_units_Z   24
loop_
 _symmetry_equiv_pos_site_id
 _symmetry_equiv_pos_as_xyz
  1  'x, y, z'
loop_
 _atom_type_symbol
 _atom_type_oxidation_number
  Ca2+  2.0
  Al0+  0.0
  Si0+  0.0
  O2-  -2.0
loop_
 _atom_site_type_symbol
 _atom_site_label
 _atom_site_symmetry_multiplicity
 _atom_site_fract_x
 _atom_site_fract_y
 _atom_site_fract_z
 _atom_site_occupancy
  Ca2+  Ca0  1  0.16723816  0.08627174  0.16635156  1
  Ca2+  Ca1  1  0.16323984  0.08589559  0.50092389  1
  Ca2+  Ca2  1  0.17224944  0.07932594  0.84794529  1
  Ca2+  Ca3  1  0.16785540  0.57906662  0.17615995  1
  Ca2+  Ca4  1  0.16430017  0.57696857  0.50875231  1
  Ca2+  Ca5  1  0.16667580  0.57922080  0.83045623  1
  Ca2+  Ca6  1  0.66899188  0.08428396  0.17350324  1
  Ca2+  Ca7  1  0.66112982  0.07257243  0.50214860  1
  Ca2+  Ca8  1  0.67041264  0.08126988  0.83995201  1
  Ca2+  Ca9  1  0.66528186  0.57829926  0.17322403  1
  Ca2+  Ca10  1  0.67435115  0.57371339  0.51175761  1
  Ca2+  Ca11  1  0.66263023  0.58165100  0.83128779  1
  Ca2+  Ca12  1  0.08191480  0.32607592  0.16773499  1
  Ca2+  Ca13  1  0.07378957  0.34007894  0.49323621  1
  Ca2+  Ca14  1  0.08053896  0.32857832  0.82502176  1
  Ca2+  Ca15  1  0.08103788  0.83361531  0.16455838  1
  Ca2+  Ca16  1  0.07570308  0.81922226  0.49223534  1
  Ca2+  Ca17  1  0.08456080  0.83063182  0.82785104  1
  Ca2+  Ca18  1  0.59069437  0.32222237  0.16466639  1
  Ca2+  Ca19  1  0.58127274  0.33779872  0.49569576  1
  Ca2+  Ca20  1  0.57976969  0.32831669  0.82535584  1
  Ca2+  Ca21  1  0.57983265  0.83050237  0.15870463  1
  Ca2+  Ca22  1  0.59278833  0.82801562  0.49828967  1
  Ca2+  Ca23  1  0.58070675  0.82670334  0.82853266  1
  Ca2+  Ca24  1  0.32637552  0.41744552  0.17352729  1
  Ca2+  Ca25  1  0.32096626  0.41886387  0.51051220  1
  Ca2+  Ca26  1  0.33557007  0.41893193  0.82900900  1
  Ca2+  Ca27  1  0.33337757  0.91907810  0.16337537  1
  Ca2+  Ca28  1  0.33186108  0.92089958  0.50379292  1
  Ca2+  Ca29  1  0.32738554  0.91943352  0.84459057  1
  Ca2+  Ca30  1  0.82881820  0.41601102  0.17496625  1
  Ca2+  Ca31  1  0.82804658  0.41364233  0.50764055  1
  Ca2+  Ca32  1  0.83418712  0.41967128  0.82848038  1
  Ca2+  Ca33  1  0.83030149  0.92283363  0.17353251  1
  Ca2+  Ca34  1  0.82551708  0.91255496  0.50221610  1
  Ca2+  Ca35  1  0.82689122  0.92162734  0.83840937  1
  Ca2+  Ca36  1  0.42841281  0.16264818  0.16039384  1
  Ca2+  Ca37  1  0.42172255  0.17606907  0.49673572  1
  Ca2+  Ca38  1  0.41856892  0.16821965  0.83130448  1
  Ca2+  Ca39  1  0.42392832  0.67390366  0.15597699  1
  Ca2+  Ca40  1  0.42102952  0.65972681  0.50374248  1
  Ca2+  Ca41  1  0.42425592  0.66796984  0.82774544  1
  Ca2+  Ca42  1  0.92266107  0.16848573  0.16235904  1
  Ca2+  Ca43  1  0.92058497  0.18058136  0.49216704  1
  Ca2+  Ca44  1  0.91995564  0.16797883  0.83120310  1
  Ca2+  Ca45  1  0.91991108  0.67183201  0.17001146  1
  Ca2+  Ca46  1  0.92424655  0.66204002  0.49674458  1
  Ca2+  Ca47  1  0.92128954  0.66513983  0.82342842  1
  Al0+  Al48  1  -0.00144689  0.00037586  0.00331199  1
  Al0+  Al49  1  0.00062778  0.00025315  0.32975160  1
  Al0+  Al50  1  -0.00031682  -0.00076720  0.66559226  1
  Al0+  Al51  1  -0.00208300  0.50084440  0.00233301  1
  Al0+  Al52  1  0.00060653  0.50063488  0.32670356  1
  Al0+  Al53  1  -0.00034741  0.49823189  0.66805673  1
  Al0+  Al54  1  0.49877142  -0.00063828  -0.00525393  1
  Al0+  Al55  1  0.50012570  0.00068870  0.33519649  1
  Al0+  Al56  1  0.49934811  -0.00124518  0.67131611  1
  Al0+  Al57  1  0.49994308  0.49928845  -0.00068230  1
  Al0+  Al58  1  0.49949487  0.50099275  0.33552353  1
  Al0+  Al59  1  0.49878505  0.49960694  0.66525897  1
  Al0+  Al60  1  0.24918740  0.24976195  0.00104327  1
  Al0+  Al61  1  0.25052690  0.25187994  0.33535639  1
  Al0+  Al62  1  0.25213658  0.24901192  0.66649806  1
  Al0+  Al63  1  0.24946643  0.74878749  0.00105512  1
  Al0+  Al64  1  0.25180140  0.75193756  0.33093019  1
  Al0+  Al65  1  0.25056942  0.75040382  0.66491179  1
  Al0+  Al66  1  0.75003525  0.25100453  -0.00154238  1
  Al0+  Al67  1  0.74965240  0.24993503  0.33140978  1
  Al0+  Al68  1  0.75129421  0.24755542  0.66641026  1
  Al0+  Al69  1  0.75213827  0.74801472  -0.00252937  1
  Al0+  Al70  1  0.75039699  0.75018794  0.33211084  1
  Al0+  Al71  1  0.74875694  0.75095445  0.67184108  1
  Al0+  Al72  1  0.06977954  0.17967976  0.98584712  1
  Al0+  Al73  1  0.82128821  0.57037108  0.68121693  1
  Al0+  Al74  1  0.57125236  0.68019637  0.65106117  1
  Al0+  Al75  1  0.07294796  0.67905560  0.31702879  1
  Al0+  Al76  1  0.67854634  0.92916072  0.68280483  1
  Al0+  Al77  1  0.92973650  0.31913518  0.65395704  1
  Al0+  Al78  1  0.07091766  0.67994776  0.65478854  1
  Al0+  Al79  1  0.17790929  0.42755885  0.68297903  1
  Al0+  Al80  1  0.56889726  0.17914165  0.32139339  1
  Al0+  Al81  1  0.81921630  0.07231673  0.01453393  1
  Al0+  Al82  1  0.42780685  0.82036116  0.98401153  1
  Al0+  Al83  1  0.17813296  0.92716425  0.01646705  1
  Al0+  Al84  1  0.17959319  0.43029816  0.34656092  1
  Al0+  Al85  1  0.32230156  0.07244921  0.01643922  1
  Al0+  Al86  1  0.67891672  0.92959604  0.34555596  1
  Al0+  Al87  1  0.92700821  0.82067603  0.31815453  1
  Al0+  Al88  1  0.57221014  0.17928492  0.98556593  1
  Al0+  Al89  1  0.07336135  0.17898885  0.31795417  1
  Al0+  Al90  1  0.67768464  0.42639742  0.68243658  1
  Al0+  Al91  1  0.92751813  0.32192828  0.31677404  1
  Al0+  Al92  1  0.32072337  0.57243077  0.68251808  1
  Al0+  Al93  1  0.42985984  0.32041260  0.65228974  1
  Al0+  Al94  1  0.57291333  0.67725220  0.98435002  1
  Al0+  Al95  1  0.67921985  0.42775678  0.34639299  1
  Si0+  Si96  1  0.92729723  0.82395569  0.65137837  1
  Si0+  Si97  1  0.32239331  0.57522493  0.34979901  1
  Si0+  Si98  1  0.57015155  0.67889934  0.31993145  1
  Si0+  Si99  1  0.32137468  0.07037982  0.34944219  1
  Si0+  Si100  1  0.67850557  0.43053623  0.01480624  1
  Si0+  Si101  1  0.17814200  0.92831233  0.34977230  1
  Si0+  Si102  1  0.42941281  0.82321836  0.31875828  1
  Si0+  Si103  1  0.82361780  0.07111555  0.68283429  1
  Si0+  Si104  1  0.57223558  0.17606544  0.65018946  1
  Si0+  Si105  1  0.42678576  0.32206355  0.98434163  1
  Si0+  Si106  1  0.67913540  0.92708821  0.01569642  1
  Si0+  Si107  1  0.17683480  0.42958940  0.01574911  1
  Si0+  Si108  1  0.17867575  0.92973769  0.67881888  1
  Si0+  Si109  1  0.82259219  0.57207534  0.01763876  1
  Si0+  Si110  1  0.42859597  0.32380971  0.31687787  1
  Si0+  Si111  1  0.07337602  0.17609836  0.65135216  1
  Si0+  Si112  1  0.32057839  0.07075962  0.68145995  1
  Si0+  Si113  1  0.82093739  0.57203063  0.34855102  1
  Si0+  Si114  1  0.32131357  0.56945189  0.01532666  1
  Si0+  Si115  1  0.07020368  0.67752731  0.98452569  1
  Si0+  Si116  1  0.42829499  0.82320483  0.64794298  1
  Si0+  Si117  1  0.92800241  0.32390345  0.98152825  1
  Si0+  Si118  1  0.92984953  0.82118416  0.98414331  1
  Si0+  Si119  1  0.82380660  0.07215554  0.35061342  1
  O2-  O120  1  0.24992756  0.00017210  0.06630741  1
  O2-  O121  1  0.24663150  0.00245990  0.39189724  1
  O2-  O122  1  0.24675981  0.00228734  0.72208798  1
  O2-  O123  1  0.24941126  0.49959264  0.05777647  1
  O2-  O124  1  0.25187594  0.50789204  0.39214691  1
  O2-  O125  1  0.24948218  0.49999012  0.73378805  1
  O2-  O126  1  0.74293704  -0.00096643  0.06168259  1
  O2-  O127  1  0.75508454  0.00248804  0.39386412  1
  O2-  O128  1  0.75370897  0.00393185  0.72754986  1
  O2-  O129  1  0.74865434  0.50276923  0.05723407  1
  O2-  O130  1  0.75546390  0.50055117  0.39244186  1
  O2-  O131  1  0.74785779  0.50021482  0.73314963  1
  O2-  O132  1  -0.00073236  0.24885574  0.26787817  1
  O2-  O133  1  0.00656264  0.24612994  0.60775121  1
  O2-  O134  1  -0.00312223  0.25507109  0.93799069  1
  O2-  O135  1  0.00238295  0.75259921  0.26671048  1
  O2-  O136  1  -0.00613137  0.75268149  0.60868550  1
  O2-  O137  1  0.00205311  0.75110151  0.94226611  1
  O2-  O138  1  0.49846302  0.25698527  0.27226316  1
  O2-  O139  1  0.50828226  0.24904550  0.60576589  1
  O2-  O140  1  0.49446699  0.25182873  0.94098917  1
  O2-  O141  1  0.49935767  0.75026013  0.27818420  1
  O2-  O142  1  0.49727984  0.75558600  0.60254269  1
  O2-  O143  1  0.50173834  0.75023383  0.93483083  1
  O2-  O144  1  0.06964390  0.18308584  0.09846584  1
  O2-  O145  1  0.07199405  0.17930950  0.43191819  1
  O2-  O146  1  0.07183873  0.17322183  0.75699836  1
  O2-  O147  1  0.06832128  0.67547224  0.08936463  1
  O2-  O148  1  0.07262966  0.67967151  0.43059062  1
  O2-  O149  1  0.07077656  0.68430912  0.76853632  1
  O2-  O150  1  0.57315395  0.18170392  0.09899431  1
  O2-  O151  1  0.56398112  0.17560895  0.43421134  1
  O2-  O152  1  0.56942836  0.17512481  0.75592175  1
  O2-  O153  1  0.57064839  0.67668795  0.09898960  1
  O2-  O154  1  0.57007957  0.67875183  0.42470343  1
  O2-  O155  1  0.56940808  0.68275089  0.76380147  1
  O2-  O156  1  0.18384952  0.43051230  0.23259617  1
  O2-  O157  1  0.17795063  0.42864552  0.56942129  1
  O2-  O158  1  0.17481049  0.43113376  0.91103027  1
  O2-  O159  1  0.18095825  0.92563628  0.24524226  1
  O2-  O160  1  0.17952282  0.93127499  0.57345722  1
  O2-  O161  1  0.17858620  0.92783266  0.90199355  1
  O2-  O162  1  0.67801997  0.43158788  0.23251881  1
  O2-  O163  1  0.68001047  0.42749776  0.56870300  1
  O2-  O164  1  0.67807906  0.43038933  0.91018055  1
  O2-  O165  1  0.67686024  0.93047188  0.23252478  1
  O2-  O166  1  0.67892390  0.93042290  0.56921642  1
  O2-  O167  1  0.68375541  0.92698768  0.91014877  1
  O2-  O168  1  0.42824857  0.32508367  0.09011259  1
  O2-  O169  1  0.42852084  0.32227749  0.42235220  1
  O2-  O170  1  0.42851844  0.31497987  0.76559873  1
  O2-  O171  1  0.42941703  0.81760949  0.09853752  1
  O2-  O172  1  0.42773568  0.82515768  0.42371857  1
  O2-  O173  1  0.42765935  0.82433302  0.75303258  1
  O2-  O174  1  0.92830363  0.32577361  0.08689213  1
  O2-  O175  1  0.92772003  0.32161543  0.43038578  1
  O2-  O176  1  0.93074895  0.31596873  0.76733860  1
  O2-  O177  1  0.92783257  0.81869629  0.08900826  1
  O2-  O178  1  0.92724369  0.81774798  0.43192443  1
  O2-  O179  1  0.93174071  0.82849081  0.75718381  1
  O2-  O180  1  0.32455087  0.06775448  0.24490742  1
  O2-  O181  1  0.32183025  0.06924945  0.57583781  1
  O2-  O182  1  0.31895647  0.07273243  0.90240338  1
  O2-  O183  1  0.32443533  0.57403984  0.24358006  1
  O2-  O184  1  0.31791789  0.57194854  0.56868116  1
  O2-  O185  1  0.32180572  0.56884944  0.91079705  1
  O2-  O186  1  0.82164857  0.07133531  0.24482656  1
  O2-  O187  1  0.82604797  0.06944324  0.57747216  1
  O2-  O188  1  0.81894754  0.06971475  0.90111151  1
  O2-  O189  1  0.81655213  0.57391362  0.24229613  1
  O2-  O190  1  0.82134000  0.56971007  0.56752173  1
  O2-  O191  1  0.82815198  0.57172802  0.91323658  1
  O2-  O192  1  0.04997405  0.07918152  0.26629568  1
  O2-  O193  1  0.04666028  0.08275939  0.60390509  1
  O2-  O194  1  0.03875132  0.08210831  0.93346032  1
  O2-  O195  1  0.04368963  0.58294628  0.26064097  1
  O2-  O196  1  0.04104707  0.58290148  0.60258303  1
  O2-  O197  1  0.03820932  0.58673240  0.93726304  1
  O2-  O198  1  0.53453209  0.08392940  0.26623874  1
  O2-  O199  1  0.53935476  0.08386476  0.60481416  1
  O2-  O200  1  0.54488350  0.08228024  0.93146772  1
  O2-  O201  1  0.54120318  0.58770698  0.27096408  1
  O2-  O202  1  0.54014556  0.58368935  0.59748227  1
  O2-  O203  1  0.54178931  0.57917955  0.93264389  1
  O2-  O204  1  0.17209900  0.20931934  0.26610133  1
  O2-  O205  1  0.16824174  0.19747198  0.60685610  1
  O2-  O206  1  0.16751282  0.20907332  0.93280228  1
  O2-  O207  1  0.17227166  0.70751514  0.26477651  1
  O2-  O208  1  0.16602942  0.71278869  0.59912523  1
  O2-  O209  1  0.16334659  0.70156019  0.93899448  1
  O2-  O210  1  0.66592197  0.20639656  0.26722116  1
  O2-  O211  1  0.66805284  0.19375754  0.60657766  1
  O2-  O212  1  0.66721179  0.21308513  0.93016703  1
  O2-  O213  1  0.66149153  0.70570085  0.27163426  1
  O2-  O214  1  0.66863313  0.71240148  0.59881836  1
  O2-  O215  1  0.67267106  0.70221892  0.93294564  1
  O2-  O216  1  0.08578683  0.45975284  0.06381567  1
  O2-  O217  1  0.08098289  0.45987819  0.39659753  1
  O2-  O218  1  0.08080739  0.45607197  0.73748145  1
  O2-  O219  1  0.07965153  0.95482482  0.06858049  1
  O2-  O220  1  0.08532355  0.95327410  0.39669197  1
  O2-  O221  1  0.08571630  0.95361121  0.72645803  1
  O2-  O222  1  0.58645501  0.45653257  0.06356048  1
  O2-  O223  1  0.58220686  0.45957456  0.39932153  1
  O2-  O224  1  0.57854529  0.45341342  0.73348820  1
  O2-  O225  1  0.58255964  0.94724364  0.05653983  1
  O2-  O226  1  0.58327190  0.96134830  0.40198188  1
  O2-  O227  1  0.58189357  0.95936404  0.73714201  1
  O2-  O228  1  0.20487770  0.33807495  0.06284402  1
  O2-  O229  1  0.21139695  0.33471866  0.40225600  1
  O2-  O230  1  0.20850587  0.32843718  0.73431718  1
  O2-  O231  1  0.20655882  0.82812469  0.06962596  1
  O2-  O232  1  0.21070485  0.83790159  0.39814241  1
  O2-  O233  1  0.20811917  0.83917602  0.72684738  1
  O2-  O234  1  0.70876072  0.33937536  0.06213677  1
  O2-  O235  1  0.70557449  0.32990563  0.39961749  1
  O2-  O236  1  0.70653368  0.32699835  0.73381640  1
  O2-  O237  1  0.70856594  0.83364756  0.06104616  1
  O2-  O238  1  0.70953741  0.83236036  0.39935367  1
  O2-  O239  1  0.70880544  0.83425781  0.73901362  1
  O2-  O240  1  0.45122426  0.41871794  0.27127364  1
  O2-  O241  1  0.45481537  0.41755025  0.59762670  1
  O2-  O242  1  0.45478255  0.41446492  0.93729526  1
  O2-  O243  1  0.45966177  0.91346860  0.27045339  1
  O2-  O244  1  0.45370705  0.91778342  0.60270434  1
  O2-  O245  1  0.45139575  0.91904085  0.93030622  1
  O2-  O246  1  0.95460703  0.41960768  0.26190068  1
  O2-  O247  1  0.95851826  0.41578295  0.60024402  1
  O2-  O248  1  0.95525298  0.41790434  0.93658653  1
  O2-  O249  1  0.95291145  0.91979888  0.26630101  1
  O2-  O250  1  0.95540554  0.91565282  0.60179959  1
  O2-  O251  1  0.95597213  0.91313401  0.93685360  1
  O2-  O252  1  0.33586730  0.29623946  0.27092551  1
  O2-  O253  1  0.33471470  0.28487801  0.59658264  1
  O2-  O254  1  0.33291689  0.29847139  0.93839107  1
  O2-  O255  1  0.33814378  0.79737183  0.26950615  1
  O2-  O256  1  0.33492953  0.79783905  0.60056598  1
  O2-  O257  1  0.32904694  0.79004685  0.93232555  1
  O2-  O258  1  0.82931464  0.29359724  0.26322775  1
  O2-  O259  1  0.83368727  0.28684681  0.59884411  1
  O2-  O260  1  0.83461243  0.29827217  0.93598476  1
  O2-  O261  1  0.83029525  0.78948575  0.26186204  1
  O2-  O262  1  0.83227733  0.80123138  0.60879930  1
  O2-  O263  1  0.83926632  0.79139046  0.93529900  1
  O2-  O264  1  0.42163414  0.04220877  0.06769049  1
  O2-  O265  1  0.41002233  0.03748717  0.40017563  1
  O2-  O266  1  0.41068845  0.04127472  0.73075741  1
  O2-  O267  1  0.41275498  0.54092504  0.06446089  1
  O2-  O268  1  0.41530474  0.54826805  0.39647022  1
  O2-  O269  1  0.41859106  0.54271460  0.73496412  1
  O2-  O270  1  0.91424883  0.03965039  0.06941892  1
  O2-  O271  1  0.91809459  0.04778097  0.39603017  1
  O2-  O272  1  0.91691099  0.04350352  0.73043326  1
  O2-  O273  1  0.91260528  0.54180861  0.06827755  1
  O2-  O274  1  0.91703072  0.55030959  0.38955368  1
  O2-  O275  1  0.91791552  0.53966394  0.73693857  1
  O2-  O276  1  0.29488998  0.17144175  0.06955163  1
  O2-  O277  1  0.29640683  0.16322596  0.39652069  1
  O2-  O278  1  0.29572061  0.16229185  0.72965596  1
  O2-  O279  1  0.29382123  0.66086665  0.06364032  1
  O2-  O280  1  0.30088613  0.67029686  0.39470577  1
  O2-  O281  1  0.29266907  0.67183697  0.73450648  1
  O2-  O282  1  0.79055225  0.17022968  0.06740060  1
  O2-  O283  1  0.79651417  0.16537943  0.39579122  1
  O2-  O284  1  0.79916914  0.16399435  0.73021917  1
  O2-  O285  1  0.79619289  0.66448649  0.06511111  1
  O2-  O286  1  0.79292115  0.66421739  0.39552306  1
  O2-  O287  1  0.79660666  0.66957991  0.73464661  1
