# generated using pymatgen
data_Ca2Al2SiO7
_symmetry_space_group_name_H-M   'P 1'
_cell_length_a   15.45768472
_cell_length_b   15.45634272
_cell_length_c   15.28321042
_cell_angle_alpha   90.00943201
_cell_angle_beta   89.98189387
_cell_angle_gamma   90.00892769
_symmetry_Int_Tables_number   1
_chemical_formula_structural   Ca2Al2SiO7
_chemical_formula_sum   'Ca48 Al48 Si24 O168'
_cell_volume   3651.45324159
_cell_formula_units_Z   24
loop_
 _symmetry_equiv_pos_site_id
 _symmetry_equiv_pos_as_xyz
  1  'x, y, z'
loop_
 _atom_type_symbol
 _atom_type_oxidation_number
  Ca2+  2.0
  Al0+  0.0
  Si0+  0.0
  O2-  -2.0
loop_
 _atom_site_type_symbol
 _atom_site_label
 _atom_site_symmetry_multiplicity
 _atom_site_fract_x
 _atom_site_fract_y
 _atom_site_fract_z
 _atom_site_occupancy
  Ca2+  Ca0  1  0.16735503  0.08129188  0.16777107  1
  Ca2+  Ca1  1  0.17836444  0.08536746  0.50304224  1
  Ca2+  Ca2  1  0.16526451  0.08001900  0.83920588  1
  Ca2+  Ca3  1  0.16758997  0.58266254  0.16846842  1
  Ca2+  Ca4  1  0.15872397  0.57813842  0.50080398  1
  Ca2+  Ca5  1  0.16870874  0.58847047  0.84025243  1
  Ca2+  Ca6  1  0.67516188  0.07855632  0.17671429  1
  Ca2+  Ca7  1  0.67768406  0.07249874  0.50203664  1
  Ca2+  Ca8  1  0.67352094  0.07823655  0.83027653  1
  Ca2+  Ca9  1  0.67735662  0.57293353  0.16908335  1
  Ca2+  Ca10  1  0.67441396  0.58184293  0.49609243  1
  Ca2+  Ca11  1  0.67605696  0.57751134  0.84437331  1
  Ca2+  Ca12  1  0.08229196  0.32902826  0.16684653  1
  Ca2+  Ca13  1  0.07171744  0.33365803  0.49383610  1
  Ca2+  Ca14  1  0.07883763  0.32633842  0.82842130  1
  Ca2+  Ca15  1  0.07173639  0.83148082  0.15573883  1
  Ca2+  Ca16  1  0.07416342  0.82874316  0.49661701  1
  Ca2+  Ca17  1  0.07714019  0.82544525  0.83178893  1
  Ca2+  Ca18  1  0.58272569  0.33971827  0.16112374  1
  Ca2+  Ca19  1  0.57909372  0.33341276  0.49448022  1
  Ca2+  Ca20  1  0.57310205  0.34105441  0.83075681  1
  Ca2+  Ca21  1  0.57845964  0.83883439  0.16853104  1
  Ca2+  Ca22  1  0.58305579  0.84340006  0.49242514  1
  Ca2+  Ca23  1  0.58569660  0.83239161  0.82807620  1
  Ca2+  Ca24  1  0.32892110  0.42012073  0.16850300  1
  Ca2+  Ca25  1  0.32380159  0.41219043  0.50390967  1
  Ca2+  Ca26  1  0.33558250  0.42004661  0.84196822  1
  Ca2+  Ca27  1  0.32393389  0.91859962  0.17460128  1
  Ca2+  Ca28  1  0.34016865  0.92856345  0.50349601  1
  Ca2+  Ca29  1  0.32402748  0.92362982  0.83944163  1
  Ca2+  Ca30  1  0.83256467  0.42615679  0.17728318  1
  Ca2+  Ca31  1  0.83547675  0.41622464  0.50146307  1
  Ca2+  Ca32  1  0.83165445  0.42173840  0.84216970  1
  Ca2+  Ca33  1  0.83451741  0.91942048  0.17717292  1
  Ca2+  Ca34  1  0.83299630  0.91983483  0.50702081  1
  Ca2+  Ca35  1  0.83943365  0.91372891  0.83316868  1
  Ca2+  Ca36  1  0.41762626  0.17151595  0.16197250  1
  Ca2+  Ca37  1  0.41457437  0.16505622  0.49548896  1
  Ca2+  Ca38  1  0.41441137  0.17862720  0.82692704  1
  Ca2+  Ca39  1  0.41544503  0.66865291  0.16257690  1
  Ca2+  Ca40  1  0.42327234  0.67722343  0.49149007  1
  Ca2+  Ca41  1  0.41711794  0.66473107  0.83055687  1
  Ca2+  Ca42  1  0.91691890  0.17093771  0.16342437  1
  Ca2+  Ca43  1  0.90435711  0.17378664  0.49557352  1
  Ca2+  Ca44  1  0.92047972  0.16864603  0.82821678  1
  Ca2+  Ca45  1  0.91268649  0.67391573  0.16076019  1
  Ca2+  Ca46  1  0.91432422  0.67649601  0.49432866  1
  Ca2+  Ca47  1  0.92385663  0.67154043  0.82847385  1
  Al0+  Al48  1  0.00027753  0.00076363  -0.00382965  1
  Al0+  Al49  1  0.00285833  0.00033621  0.33473630  1
  Al0+  Al50  1  0.00220013  -0.00071652  0.66632507  1
  Al0+  Al51  1  0.00122900  0.50083253  0.00132322  1
  Al0+  Al52  1  0.00104335  0.49917947  0.33650667  1
  Al0+  Al53  1  0.00091995  0.49728594  0.66242491  1
  Al0+  Al54  1  0.50077136  0.00242147  -0.00224374  1
  Al0+  Al55  1  0.49974745  0.00174948  0.33304737  1
  Al0+  Al56  1  0.50075593  0.00183582  0.67779342  1
  Al0+  Al57  1  0.49894452  0.50149013  0.00399468  1
  Al0+  Al58  1  0.49987323  0.50142884  0.33606608  1
  Al0+  Al59  1  0.49835123  0.50044890  0.65936898  1
  Al0+  Al60  1  0.25111466  0.25061001  -0.00828724  1
  Al0+  Al61  1  0.24974035  0.25110424  0.33980620  1
  Al0+  Al62  1  0.24941355  0.25179960  0.66764662  1
  Al0+  Al63  1  0.24870146  0.75197658  0.00540150  1
  Al0+  Al64  1  0.25074731  0.75034225  0.33033271  1
  Al0+  Al65  1  0.25185251  0.74904329  0.66084888  1
  Al0+  Al66  1  0.74728550  0.24685097  0.00141423  1
  Al0+  Al67  1  0.74797603  0.25011266  0.33412037  1
  Al0+  Al68  1  0.74688675  0.24774549  0.66833220  1
  Al0+  Al69  1  0.74713332  0.75058641  0.00008877  1
  Al0+  Al70  1  0.74780753  0.74701287  0.33398235  1
  Al0+  Al71  1  0.75030002  0.74738990  0.66756172  1
  Al0+  Al72  1  0.07377546  0.67781565  0.64961897  1
  Al0+  Al73  1  0.92873560  0.82009016  0.64997615  1
  Al0+  Al74  1  0.42866953  0.32150921  0.65010741  1
  Al0+  Al75  1  0.82362835  0.57136672  0.01406167  1
  Al0+  Al76  1  0.17850680  0.93107727  0.01341347  1
  Al0+  Al77  1  0.18078833  0.43021381  0.34719703  1
  Al0+  Al78  1  0.43031666  0.82311839  0.31906259  1
  Al0+  Al79  1  0.67769743  0.42782682  0.35043218  1
  Al0+  Al80  1  0.07028494  0.18014588  0.98704656  1
  Al0+  Al81  1  0.31987713  0.57178360  0.01294906  1
  Al0+  Al82  1  0.32028479  0.07277813  0.68358091  1
  Al0+  Al83  1  0.67989952  0.92881277  0.34511025  1
  Al0+  Al84  1  0.92782863  0.31958409  0.31927341  1
  Al0+  Al85  1  0.67923771  0.42756416  0.01322452  1
  Al0+  Al86  1  0.07230367  0.67784484  0.98660148  1
  Al0+  Al87  1  0.31960720  0.06978291  0.34463238  1
  Al0+  Al88  1  0.92875910  0.82104797  0.31978862  1
  Al0+  Al89  1  0.82242022  0.57045528  0.35027390  1
  Al0+  Al90  1  0.92580835  0.82084116  0.98472538  1
  Al0+  Al91  1  0.92718103  0.31785349  0.65454175  1
  Al0+  Al92  1  0.82487565  0.07060568  0.34668424  1
  Al0+  Al93  1  0.82352009  0.07170432  0.68379895  1
  Al0+  Al94  1  0.68110791  0.92643582  0.68377866  1
  Al0+  Al95  1  0.43228823  0.32116077  0.98790545  1
  Si0+  Si96  1  0.32202283  0.07361574  0.01583030  1
  Si0+  Si97  1  0.57089769  0.67585512  0.31325966  1
  Si0+  Si98  1  0.07531933  0.17921110  0.31832131  1
  Si0+  Si99  1  0.43148683  0.82218756  0.65445472  1
  Si0+  Si100  1  0.42715354  0.32190138  0.31860856  1
  Si0+  Si101  1  0.56765459  0.68077898  0.98531531  1
  Si0+  Si102  1  0.17823488  0.43057772  0.68374554  1
  Si0+  Si103  1  0.82181206  0.56808205  0.68189724  1
  Si0+  Si104  1  0.57127080  0.67796748  0.65166633  1
  Si0+  Si105  1  0.17785532  0.92562403  0.35132770  1
  Si0+  Si106  1  0.18017445  0.92582824  0.68278469  1
  Si0+  Si107  1  0.67634659  0.92890573  0.01611306  1
  Si0+  Si108  1  0.07203173  0.67741375  0.31521692  1
  Si0+  Si109  1  0.82127015  0.06951611  0.01487069  1
  Si0+  Si110  1  0.57376158  0.17514593  0.98030561  1
  Si0+  Si111  1  0.32227146  0.57427428  0.35175534  1
  Si0+  Si112  1  0.07263635  0.17743973  0.64917203  1
  Si0+  Si113  1  0.67605800  0.42954370  0.68062266  1
  Si0+  Si114  1  0.56909506  0.18056946  0.31819435  1
  Si0+  Si115  1  0.42776474  0.82354496  0.98482355  1
  Si0+  Si116  1  0.92598291  0.32184043  0.98626615  1
  Si0+  Si117  1  0.17824352  0.42514373  0.01479192  1
  Si0+  Si118  1  0.56942694  0.17693656  0.64869196  1
  Si0+  Si119  1  0.32149904  0.57069850  0.67963359  1
  O2-  O120  1  0.25491399  0.00461760  0.06061102  1
  O2-  O121  1  0.24817785  -0.00653263  0.39429926  1
  O2-  O122  1  0.24505885  -0.00198123  0.72824921  1
  O2-  O123  1  0.24329775  0.49815678  0.05790110  1
  O2-  O124  1  0.25368811  0.50632093  0.39619103  1
  O2-  O125  1  0.24959292  0.50220930  0.72420261  1
  O2-  O126  1  0.75029437  -0.00241738  0.05609535  1
  O2-  O127  1  0.75898966  -0.00794650  0.39557031  1
  O2-  O128  1  0.75652518  -0.00537332  0.73454257  1
  O2-  O129  1  0.75783744  0.49231847  0.06241394  1
  O2-  O130  1  0.75279169  0.49578685  0.40118906  1
  O2-  O131  1  0.75070187  0.49617402  0.72350858  1
  O2-  O132  1  0.00090094  0.24201610  0.27432335  1
  O2-  O133  1  -0.00225039  0.23942648  0.60617216  1
  O2-  O134  1  -0.00398006  0.25554037  0.94072226  1
  O2-  O135  1  0.00388162  0.74675249  0.27214256  1
  O2-  O136  1  0.00075511  0.74826016  0.59980396  1
  O2-  O137  1  -0.00368442  0.74570264  0.93698742  1
  O2-  O138  1  0.50090165  0.25475132  0.27577344  1
  O2-  O139  1  0.50077399  0.24510898  0.60279936  1
  O2-  O140  1  0.50736203  0.24769134  0.93899574  1
  O2-  O141  1  0.50273877  0.74679177  0.27084932  1
  O2-  O142  1  0.50602075  0.75541091  0.61134953  1
  O2-  O143  1  0.49801131  0.75259974  0.94114258  1
  O2-  O144  1  0.07053575  0.18107347  0.10025656  1
  O2-  O145  1  0.08084533  0.18325411  0.42354381  1
  O2-  O146  1  0.07465954  0.18160840  0.75504501  1
  O2-  O147  1  0.07449550  0.68116223  0.09981861  1
  O2-  O148  1  0.07311368  0.67948023  0.42090354  1
  O2-  O149  1  0.07552390  0.67875181  0.76303420  1
  O2-  O150  1  0.57213628  0.16972451  0.08577536  1
  O2-  O151  1  0.56565956  0.17921715  0.42311901  1
  O2-  O152  1  0.56837408  0.17940628  0.75440337  1
  O2-  O153  1  0.56595584  0.68203440  0.08996309  1
  O2-  O154  1  0.56790105  0.67323957  0.41922125  1
  O2-  O155  1  0.56759122  0.67408875  0.75703655  1
  O2-  O156  1  0.18463744  0.42811912  0.23396931  1
  O2-  O157  1  0.17945079  0.42978839  0.57864120  1
  O2-  O158  1  0.18062330  0.42300386  0.90901675  1
  O2-  O159  1  0.17834333  0.92670589  0.24558442  1
  O2-  O160  1  0.18435968  0.92521951  0.57720007  1
  O2-  O161  1  0.18202671  0.93191828  0.90012218  1
  O2-  O162  1  0.67605073  0.43050123  0.23711214  1
  O2-  O163  1  0.67454920  0.43255451  0.57592602  1
  O2-  O164  1  0.67767722  0.43218202  0.89883939  1
  O2-  O165  1  0.67738950  0.93436559  0.23114778  1
  O2-  O166  1  0.67744096  0.92922698  0.57075291  1
  O2-  O167  1  0.67251205  0.92996645  0.91133248  1
  O2-  O168  1  0.43114894  0.31900391  0.10124755  1
  O2-  O169  1  0.42668875  0.31932644  0.42375126  1
  O2-  O170  1  0.43149825  0.32552307  0.76325651  1
  O2-  O171  1  0.43032011  0.82500051  0.08975171  1
  O2-  O172  1  0.43278966  0.82297864  0.43282707  1
  O2-  O173  1  0.42926392  0.81772140  0.75981737  1
  O2-  O174  1  0.92595530  0.31903002  0.09168572  1
  O2-  O175  1  0.92939671  0.31851993  0.43252570  1
  O2-  O176  1  0.93132355  0.32080009  0.76804700  1
  O2-  O177  1  0.92586992  0.82254440  0.09848413  1
  O2-  O178  1  0.93073867  0.82069678  0.43262251  1
  O2-  O179  1  0.92911083  0.81612491  0.76341887  1
  O2-  O180  1  0.31799035  0.07102541  0.23149838  1
  O2-  O181  1  0.32102340  0.07042679  0.57015243  1
  O2-  O182  1  0.32146611  0.07221690  0.91026601  1
  O2-  O183  1  0.32248391  0.57314839  0.24608390  1
  O2-  O184  1  0.32316907  0.56948495  0.57486665  1
  O2-  O185  1  0.32256134  0.57008221  0.89926000  1
  O2-  O186  1  0.82180939  0.07166618  0.23236206  1
  O2-  O187  1  0.81851839  0.07377382  0.57081993  1
  O2-  O188  1  0.82009510  0.07167132  0.91005028  1
  O2-  O189  1  0.82089226  0.57042208  0.23677107  1
  O2-  O190  1  0.81997796  0.56864364  0.57715599  1
  O2-  O191  1  0.82018067  0.57075260  0.89955684  1
  O2-  O192  1  0.05764672  0.08299861  0.27481076  1
  O2-  O193  1  0.05827057  0.08078702  0.60613117  1
  O2-  O194  1  0.03870569  0.08573028  0.92997408  1
  O2-  O195  1  0.04868826  0.58260166  0.27147167  1
  O2-  O196  1  0.04614168  0.57845993  0.59898371  1
  O2-  O197  1  0.05160813  0.57664380  0.93415966  1
  O2-  O198  1  0.53719575  0.09135394  0.26783630  1
  O2-  O199  1  0.54175982  0.08256543  0.60564349  1
  O2-  O200  1  0.54444249  0.08379869  0.93059631  1
  O2-  O201  1  0.54069226  0.58351238  0.26627818  1
  O2-  O202  1  0.53650029  0.59104192  0.59939441  1
  O2-  O203  1  0.53769494  0.58999176  0.93699673  1
  O2-  O204  1  0.16593942  0.21300118  0.26965748  1
  O2-  O205  1  0.16371151  0.21094097  0.60251890  1
  O2-  O206  1  0.16596833  0.20912793  0.92957300  1
  O2-  O207  1  0.16730710  0.70059308  0.27065642  1
  O2-  O208  1  0.17239111  0.70510900  0.59460277  1
  O2-  O209  1  0.17058089  0.71082024  0.93395670  1
  O2-  O210  1  0.66067584  0.20580866  0.26928958  1
  O2-  O211  1  0.66265697  0.20268754  0.60289491  1
  O2-  O212  1  0.66816453  0.19723708  0.93405430  1
  O2-  O213  1  0.66439910  0.69904219  0.26724524  1
  O2-  O214  1  0.66450162  0.69929204  0.60545989  1
  O2-  O215  1  0.65868982  0.70817924  0.93588563  1
  O2-  O216  1  0.08362445  0.44530260  0.06053431  1
  O2-  O217  1  0.08522150  0.45923976  0.40342655  1
  O2-  O218  1  0.08645164  0.45700648  0.73162731  1
  O2-  O219  1  0.08260119  0.96437862  0.06710950  1
  O2-  O220  1  0.08620626  0.95276773  0.39942996  1
  O2-  O221  1  0.08572460  0.94779764  0.72787697  1
  O2-  O222  1  0.58411714  0.46343079  0.06768907  1
  O2-  O223  1  0.57929340  0.45915087  0.40351310  1
  O2-  O224  1  0.58503694  0.46383489  0.72671779  1
  O2-  O225  1  0.58483827  0.96015251  0.06343649  1
  O2-  O226  1  0.58435506  0.96569130  0.39907763  1
  O2-  O227  1  0.58429728  0.95788100  0.74013983  1
  O2-  O228  1  0.21033047  0.33354474  0.06140542  1
  O2-  O229  1  0.21446127  0.33666563  0.40542759  1
  O2-  O230  1  0.20719162  0.33927408  0.73125214  1
  O2-  O231  1  0.20998646  0.83682003  0.07060375  1
  O2-  O232  1  0.20330821  0.83147812  0.39585666  1
  O2-  O233  1  0.21199794  0.83332051  0.72829796  1
  O2-  O234  1  0.69556696  0.32506593  0.06258571  1
  O2-  O235  1  0.70049221  0.32813243  0.40196218  1
  O2-  O236  1  0.69645454  0.33568050  0.72633545  1
  O2-  O237  1  0.69797581  0.83560244  0.06216267  1
  O2-  O238  1  0.69347721  0.82650001  0.39366592  1
  O2-  O239  1  0.70357220  0.82528953  0.73556487  1
  O2-  O240  1  0.45127941  0.41613847  0.27426310  1
  O2-  O241  1  0.45984532  0.41699052  0.59378561  1
  O2-  O242  1  0.46258965  0.41863066  0.93379751  1
  O2-  O243  1  0.46204515  0.91868760  0.26319445  1
  O2-  O244  1  0.45730896  0.91627414  0.61121805  1
  O2-  O245  1  0.45597637  0.91540457  0.93679970  1
  O2-  O246  1  0.96323555  0.41577062  0.26717151  1
  O2-  O247  1  0.96216437  0.41200163  0.59876673  1
  O2-  O248  1  0.94905231  0.41650278  0.94158209  1
  O2-  O249  1  0.95974644  0.91920109  0.26747982  1
  O2-  O250  1  0.95626701  0.92020429  0.59998490  1
  O2-  O251  1  0.95822236  0.91778501  0.93154591  1
  O2-  O252  1  0.33656040  0.29012221  0.27169716  1
  O2-  O253  1  0.33052748  0.29203464  0.59887595  1
  O2-  O254  1  0.33731331  0.29115401  0.92994824  1
  O2-  O255  1  0.33304367  0.79323690  0.26510577  1
  O2-  O256  1  0.34256610  0.79206211  0.60331783  1
  O2-  O257  1  0.33613017  0.79537757  0.93871129  1
  O2-  O258  1  0.83003909  0.29184619  0.26583672  1
  O2-  O259  1  0.82805115  0.29233831  0.60265489  1
  O2-  O260  1  0.83237684  0.29432733  0.94039568  1
  O2-  O261  1  0.83028456  0.79135372  0.26842141  1
  O2-  O262  1  0.82927883  0.79001863  0.59935987  1
  O2-  O263  1  0.82546315  0.79629113  0.93309093  1
  O2-  O264  1  0.41712763  0.04942480  0.05977865  1
  O2-  O265  1  0.41547412  0.03947465  0.40001970  1
  O2-  O266  1  0.41530405  0.04286564  0.74032710  1
  O2-  O267  1  0.41418911  0.53946558  0.07010347  1
  O2-  O268  1  0.41575116  0.54960138  0.39779933  1
  O2-  O269  1  0.41337223  0.54117282  0.72702675  1
  O2-  O270  1  0.91322340  0.04368232  0.06140560  1
  O2-  O271  1  0.92592706  0.05297423  0.39817551  1
  O2-  O272  1  0.92523712  0.04929362  0.73348175  1
  O2-  O273  1  0.92375559  0.55051348  0.06655237  1
  O2-  O274  1  0.92112112  0.54511895  0.40274745  1
  O2-  O275  1  0.91398537  0.53889367  0.72758762  1
  O2-  O276  1  0.29546931  0.16771835  0.05978351  1
  O2-  O277  1  0.28874387  0.16460200  0.40192317  1
  O2-  O278  1  0.28921724  0.17027635  0.73593059  1
  O2-  O279  1  0.29328502  0.66827395  0.06893177  1
  O2-  O280  1  0.29844146  0.66900339  0.39684478  1
  O2-  O281  1  0.29713045  0.66407313  0.72628370  1
  O2-  O282  1  0.79215418  0.16069163  0.06356608  1
  O2-  O283  1  0.78731551  0.16593715  0.39903710  1
  O2-  O284  1  0.78825211  0.16839722  0.73874094  1
  O2-  O285  1  0.78609735  0.66762431  0.06594629  1
  O2-  O286  1  0.78737824  0.66642490  0.40445247  1
  O2-  O287  1  0.79236380  0.65877722  0.72993340  1
