# generated using pymatgen
data_Ca2Al2SiO7
_symmetry_space_group_name_H-M   'P 1'
_cell_length_a   15.46182437
_cell_length_b   15.46255533
_cell_length_c   15.28692884
_cell_angle_alpha   90.01897781
_cell_angle_beta   89.99216278
_cell_angle_gamma   90.00671804
_symmetry_Int_Tables_number   1
_chemical_formula_structural   Ca2Al2SiO7
_chemical_formula_sum   'Ca48 Al48 Si24 O168'
_cell_volume   3654.78821353
_cell_formula_units_Z   24
loop_
 _symmetry_equiv_pos_site_id
 _symmetry_equiv_pos_as_xyz
  1  'x, y, z'
loop_
 _atom_type_symbol
 _atom_type_oxidation_number
  Ca2+  2.0
  Al0+  0.0
  Si0+  0.0
  O2-  -2.0
loop_
 _atom_site_type_symbol
 _atom_site_label
 _atom_site_symmetry_multiplicity
 _atom_site_fract_x
 _atom_site_fract_y
 _atom_site_fract_z
 _atom_site_occupancy
  Ca2+  Ca0  1  0.18354533  0.08316157  0.17377451  1
  Ca2+  Ca1  1  0.17252386  0.07312784  0.49898952  1
  Ca2+  Ca2  1  0.17538435  0.07865448  0.83791753  1
  Ca2+  Ca3  1  0.17369365  0.57365124  0.16594224  1
  Ca2+  Ca4  1  0.16652756  0.57804246  0.50022150  1
  Ca2+  Ca5  1  0.17607690  0.57478223  0.84237537  1
  Ca2+  Ca6  1  0.66532680  0.07731822  0.17328509  1
  Ca2+  Ca7  1  0.66080949  0.07907885  0.50075109  1
  Ca2+  Ca8  1  0.65422356  0.07729531  0.83518588  1
  Ca2+  Ca9  1  0.66423560  0.57584313  0.17315563  1
  Ca2+  Ca10  1  0.67086065  0.57600413  0.50311642  1
  Ca2+  Ca11  1  0.67267766  0.58409545  0.83435032  1
  Ca2+  Ca12  1  0.08745095  0.33693969  0.16381600  1
  Ca2+  Ca13  1  0.07586057  0.33767214  0.49520177  1
  Ca2+  Ca14  1  0.08286604  0.33433746  0.82901951  1
  Ca2+  Ca15  1  0.07055458  0.84826442  0.16550479  1
  Ca2+  Ca16  1  0.08014285  0.83935941  0.48947968  1
  Ca2+  Ca17  1  0.07781107  0.83642252  0.82751706  1
  Ca2+  Ca18  1  0.57532907  0.32228243  0.16261059  1
  Ca2+  Ca19  1  0.57798422  0.32356804  0.48922803  1
  Ca2+  Ca20  1  0.57183594  0.32105838  0.82512747  1
  Ca2+  Ca21  1  0.58268572  0.83747934  0.15950862  1
  Ca2+  Ca22  1  0.58501983  0.83824739  0.49975419  1
  Ca2+  Ca23  1  0.57279971  0.84252183  0.83115839  1
  Ca2+  Ca24  1  0.33004263  0.41090615  0.17155320  1
  Ca2+  Ca25  1  0.33274065  0.40711712  0.50089772  1
  Ca2+  Ca26  1  0.33432334  0.41608918  0.84563479  1
  Ca2+  Ca27  1  0.33775084  0.92956334  0.17166467  1
  Ca2+  Ca28  1  0.33097697  0.92194706  0.50696605  1
  Ca2+  Ca29  1  0.33439298  0.91754940  0.84034141  1
  Ca2+  Ca30  1  0.82285229  0.41790627  0.17474123  1
  Ca2+  Ca31  1  0.82673176  0.41674344  0.50686137  1
  Ca2+  Ca32  1  0.83757843  0.42047181  0.83308851  1
  Ca2+  Ca33  1  0.82506241  0.91802947  0.17515338  1
  Ca2+  Ca34  1  0.82452345  0.92077246  0.50016881  1
  Ca2+  Ca35  1  0.81914454  0.91502861  0.84018338  1
  Ca2+  Ca36  1  0.42313681  0.16583446  0.16067284  1
  Ca2+  Ca37  1  0.42583494  0.17134025  0.49387762  1
  Ca2+  Ca38  1  0.42209741  0.16900471  0.83206294  1
  Ca2+  Ca39  1  0.41541017  0.67361005  0.15999290  1
  Ca2+  Ca40  1  0.41399031  0.67634009  0.49873446  1
  Ca2+  Ca41  1  0.41042944  0.67609031  0.83206927  1
  Ca2+  Ca42  1  0.91755802  0.16224675  0.16661551  1
  Ca2+  Ca43  1  0.91510557  0.16603519  0.49534858  1
  Ca2+  Ca44  1  0.92085387  0.17369372  0.82730870  1
  Ca2+  Ca45  1  0.91788235  0.68108996  0.16243130  1
  Ca2+  Ca46  1  0.91496597  0.67251086  0.49391392  1
  Ca2+  Ca47  1  0.91616242  0.67004300  0.82965561  1
  Al0+  Al48  1  -0.00256787  0.00195130  -0.00880051  1
  Al0+  Al49  1  -0.00085698  0.00205039  0.33469784  1
  Al0+  Al50  1  -0.00092342  -0.00021914  0.67049925  1
  Al0+  Al51  1  0.00031277  0.50206425  0.00450293  1
  Al0+  Al52  1  0.00237504  0.50247314  0.33356140  1
  Al0+  Al53  1  0.00060578  0.50101729  0.66698522  1
  Al0+  Al54  1  0.50002715  -0.00215405  0.00084736  1
  Al0+  Al55  1  0.50070890  0.00061013  0.33803323  1
  Al0+  Al56  1  0.49880123  0.00018436  0.66248498  1
  Al0+  Al57  1  0.50181825  0.50127099  0.00024815  1
  Al0+  Al58  1  0.49992453  0.50161448  0.33502093  1
  Al0+  Al59  1  0.50014871  0.50140485  0.66509557  1
  Al0+  Al60  1  0.24886138  0.24762518  0.00345153  1
  Al0+  Al61  1  0.24762536  0.25105586  0.34143304  1
  Al0+  Al62  1  0.24875945  0.24713301  0.66397671  1
  Al0+  Al63  1  0.24648852  0.74704177  0.00195637  1
  Al0+  Al64  1  0.24886024  0.74661316  0.33257147  1
  Al0+  Al65  1  0.24813545  0.74833123  0.66620580  1
  Al0+  Al66  1  0.75151855  0.24926319  -0.00530495  1
  Al0+  Al67  1  0.74950331  0.25059016  0.33582739  1
  Al0+  Al68  1  0.75094843  0.24992211  0.66118637  1
  Al0+  Al69  1  0.75085604  0.75063391  -0.00053889  1
  Al0+  Al70  1  0.75092521  0.75057658  0.33158258  1
  Al0+  Al71  1  0.75033218  0.75003330  0.67451656  1
  Al0+  Al72  1  0.42821015  0.81873274  0.98950508  1
  Al0+  Al73  1  0.67914760  0.93118580  0.68251724  1
  Al0+  Al74  1  0.42822985  0.81866531  0.65314452  1
  Al0+  Al75  1  0.57059832  0.17863944  0.64929064  1
  Al0+  Al76  1  0.17822385  0.92678250  0.68131077  1
  Al0+  Al77  1  0.57235662  0.17752523  0.98427092  1
  Al0+  Al78  1  0.32035865  0.06752679  0.01218242  1
  Al0+  Al79  1  0.93057618  0.82163676  0.32056520  1
  Al0+  Al80  1  0.82134102  0.07200458  0.34766517  1
  Al0+  Al81  1  0.92898205  0.82194636  0.98336744  1
  Al0+  Al82  1  0.18019577  0.42771259  0.01445503  1
  Al0+  Al83  1  0.32299187  0.07194942  0.35075743  1
  Al0+  Al84  1  0.42765843  0.32091600  0.98680831  1
  Al0+  Al85  1  0.67865856  0.92696644  0.34895954  1
  Al0+  Al86  1  0.93221195  0.32186836  0.65297320  1
  Al0+  Al87  1  0.68035392  0.93070211  0.01368555  1
  Al0+  Al88  1  0.82149703  0.56949915  0.68044520  1
  Al0+  Al89  1  0.17982753  0.92852934  0.34474273  1
  Al0+  Al90  1  0.42697193  0.32360604  0.65148793  1
  Al0+  Al91  1  0.42731032  0.32165203  0.31745969  1
  Al0+  Al92  1  0.57203371  0.17756536  0.31579320  1
  Al0+  Al93  1  0.17939625  0.43002186  0.34946682  1
  Al0+  Al94  1  0.67820184  0.42949056  0.34614877  1
  Al0+  Al95  1  0.32436506  0.57238993  0.01537802  1
  Si0+  Si96  1  0.32313381  0.57240326  0.35247366  1
  Si0+  Si97  1  0.07134640  0.17965245  0.98507923  1
  Si0+  Si98  1  0.42795713  0.82042347  0.31973827  1
  Si0+  Si99  1  0.92811406  0.82064950  0.65149829  1
  Si0+  Si100  1  0.68056854  0.42748226  0.01287091  1
  Si0+  Si101  1  0.92942790  0.32339430  0.98668622  1
  Si0+  Si102  1  0.67773521  0.42690366  0.68430384  1
  Si0+  Si103  1  0.57181298  0.68007761  0.31954032  1
  Si0+  Si104  1  0.32048956  0.07008012  0.68475299  1
  Si0+  Si105  1  0.18023065  0.42921460  0.68025570  1
  Si0+  Si106  1  0.92907185  0.32415499  0.31798829  1
  Si0+  Si107  1  0.06917802  0.18055304  0.31884437  1
  Si0+  Si108  1  0.07331443  0.67629680  0.31300751  1
  Si0+  Si109  1  0.17412762  0.92697262  0.01440301  1
  Si0+  Si110  1  0.32169972  0.57138740  0.68086745  1
  Si0+  Si111  1  0.06895737  0.67643305  0.98138218  1
  Si0+  Si112  1  0.82176974  0.57160551  0.34795879  1
  Si0+  Si113  1  0.82097168  0.57103910  0.01675245  1
  Si0+  Si114  1  0.82402545  0.07416680  0.01482068  1
  Si0+  Si115  1  0.82283360  0.07406816  0.68553282  1
  Si0+  Si116  1  0.57422372  0.67659830  0.98319978  1
  Si0+  Si117  1  0.57477601  0.67851762  0.65029401  1
  Si0+  Si118  1  0.07133762  0.17540917  0.64798686  1
  Si0+  Si119  1  0.06985503  0.67960162  0.65098371  1
  O2-  O120  1  0.24698628  -0.00961161  0.05818686  1
  O2-  O121  1  0.25544964  -0.00638793  0.39831662  1
  O2-  O122  1  0.25298671  -0.00009417  0.72932377  1
  O2-  O123  1  0.25763367  0.49436855  0.06387540  1
  O2-  O124  1  0.25696910  0.50113085  0.39683650  1
  O2-  O125  1  0.25842502  0.49227021  0.72159532  1
  O2-  O126  1  0.75508672  0.00610223  0.05818417  1
  O2-  O127  1  0.74776940  0.00223238  0.39806189  1
  O2-  O128  1  0.75199115  0.00802177  0.72972160  1
  O2-  O129  1  0.74951977  0.50031924  0.05730649  1
  O2-  O130  1  0.75595090  0.50144463  0.39307659  1
  O2-  O131  1  0.74732204  0.49503368  0.72932991  1
  O2-  O132  1  -0.00065994  0.25298249  0.27532635  1
  O2-  O133  1  0.00354819  0.24539412  0.60417416  1
  O2-  O134  1  0.00175790  0.25361996  0.94483727  1
  O2-  O135  1  0.00836167  0.75015494  0.27178963  1
  O2-  O136  1  0.00184474  0.75309828  0.60810619  1
  O2-  O137  1  0.00536793  0.74914968  0.93567443  1
  O2-  O138  1  0.49670262  0.24738933  0.26734619  1
  O2-  O139  1  0.50199498  0.25525240  0.60179113  1
  O2-  O140  1  0.50033489  0.25064900  0.93601185  1
  O2-  O141  1  0.50238694  0.75262110  0.27783597  1
  O2-  O142  1  0.50466690  0.74558952  0.60580026  1
  O2-  O143  1  0.50128947  0.74211506  0.94145490  1
  O2-  O144  1  0.06945293  0.17697835  0.09003024  1
  O2-  O145  1  0.06644125  0.18087920  0.42390283  1
  O2-  O146  1  0.07157069  0.17737469  0.75411051  1
  O2-  O147  1  0.06441527  0.67219492  0.08642348  1
  O2-  O148  1  0.07110528  0.67297431  0.41894568  1
  O2-  O149  1  0.06832926  0.67817801  0.75590110  1
  O2-  O150  1  0.57510087  0.17915969  0.09729544  1
  O2-  O151  1  0.57272489  0.18028433  0.42905823  1
  O2-  O152  1  0.56711682  0.17862115  0.76311080  1
  O2-  O153  1  0.57785261  0.67711385  0.08900860  1
  O2-  O154  1  0.57248518  0.67918674  0.42463820  1
  O2-  O155  1  0.57457140  0.67724528  0.75573872  1
  O2-  O156  1  0.17564637  0.43312254  0.23692609  1
  O2-  O157  1  0.17627694  0.43380641  0.57545578  1
  O2-  O158  1  0.17583491  0.43056453  0.90030852  1
  O2-  O159  1  0.17899521  0.93370568  0.23109716  1
  O2-  O160  1  0.17815966  0.92733217  0.56853785  1
  O2-  O161  1  0.17385130  0.92987920  0.90849557  1
  O2-  O162  1  0.68099173  0.43259349  0.23243707  1
  O2-  O163  1  0.67941728  0.43008288  0.57877931  1
  O2-  O164  1  0.68475043  0.42895167  0.90788054  1
  O2-  O165  1  0.68163255  0.92353927  0.23540224  1
  O2-  O166  1  0.68354401  0.92781695  0.57002144  1
  O2-  O167  1  0.68018617  0.93074520  0.90053146  1
  O2-  O168  1  0.42842428  0.31930727  0.09986163  1
  O2-  O169  1  0.43095169  0.32145220  0.43099117  1
  O2-  O170  1  0.42601479  0.32373136  0.76513085  1
  O2-  O171  1  0.43146041  0.81892982  0.10277211  1
  O2-  O172  1  0.42555742  0.81615428  0.42492834  1
  O2-  O173  1  0.42667654  0.81648222  0.76629976  1
  O2-  O174  1  0.92746759  0.32350357  0.09174796  1
  O2-  O175  1  0.93167898  0.32690106  0.42296176  1
  O2-  O176  1  0.93698591  0.32311327  0.76676662  1
  O2-  O177  1  0.92965183  0.82123956  0.09647909  1
  O2-  O178  1  0.93016563  0.81768731  0.43400264  1
  O2-  O179  1  0.92932034  0.81786110  0.75662711  1
  O2-  O180  1  0.32151803  0.07127890  0.23673455  1
  O2-  O181  1  0.31802122  0.06933592  0.57944942  1
  O2-  O182  1  0.31728348  0.06744670  0.89896095  1
  O2-  O183  1  0.32220314  0.57534927  0.24737921  1
  O2-  O184  1  0.31739655  0.57603381  0.57602693  1
  O2-  O185  1  0.31937344  0.57344945  0.90120985  1
  O2-  O186  1  0.82389426  0.06953537  0.23373674  1
  O2-  O187  1  0.82752217  0.07074150  0.58045781  1
  O2-  O188  1  0.82763076  0.07465017  0.90943515  1
  O2-  O189  1  0.81987071  0.57092225  0.24201856  1
  O2-  O190  1  0.82058804  0.56962035  0.56740747  1
  O2-  O191  1  0.82282226  0.56962060  0.91153082  1
  O2-  O192  1  0.03974355  0.09062460  0.26909424  1
  O2-  O193  1  0.04287377  0.08207498  0.60298459  1
  O2-  O194  1  0.04122924  0.09109772  0.93203993  1
  O2-  O195  1  0.04143486  0.58551903  0.26440393  1
  O2-  O196  1  0.03884574  0.58933483  0.60210812  1
  O2-  O197  1  0.03732675  0.58480986  0.93316850  1
  O2-  O198  1  0.54587630  0.07653044  0.26659493  1
  O2-  O199  1  0.53917736  0.08184271  0.59586215  1
  O2-  O200  1  0.53947395  0.08010565  0.93266824  1
  O2-  O201  1  0.54238818  0.58950664  0.27035063  1
  O2-  O202  1  0.55138964  0.58451731  0.60378582  1
  O2-  O203  1  0.55442540  0.58217995  0.93619292  1
  O2-  O204  1  0.16112565  0.20925084  0.27296335  1
  O2-  O205  1  0.16479882  0.19893992  0.60209984  1
  O2-  O206  1  0.16200223  0.20634312  0.93542060  1
  O2-  O207  1  0.16852753  0.69543865  0.26799513  1
  O2-  O208  1  0.16188249  0.70342381  0.60251971  1
  O2-  O209  1  0.16435670  0.69653728  0.93715037  1
  O2-  O210  1  0.67123698  0.20891003  0.26493814  1
  O2-  O211  1  0.67134297  0.20144890  0.59916362  1
  O2-  O212  1  0.67134385  0.20478240  0.93011627  1
  O2-  O213  1  0.66378818  0.70433744  0.27017437  1
  O2-  O214  1  0.66823885  0.70650733  0.60502902  1
  O2-  O215  1  0.66656021  0.70482107  0.93574985  1
  O2-  O216  1  0.08303653  0.46171324  0.06867650  1
  O2-  O217  1  0.08347024  0.46611471  0.40381224  1
  O2-  O218  1  0.09168945  0.46437237  0.72957280  1
  O2-  O219  1  0.08118938  0.95988200  0.05739653  1
  O2-  O220  1  0.08370729  0.96220421  0.39903290  1
  O2-  O221  1  0.08146229  0.95811979  0.73577441  1
  O2-  O222  1  0.58919376  0.45407153  0.06074092  1
  O2-  O223  1  0.58441021  0.46488800  0.40197772  1
  O2-  O224  1  0.58438693  0.45494024  0.72986303  1
  O2-  O225  1  0.58395143  0.95848523  0.06792624  1
  O2-  O226  1  0.57980687  0.95052487  0.40184845  1
  O2-  O227  1  0.58017586  0.96057460  0.73307526  1
  O2-  O228  1  0.20011152  0.32791599  0.06717020  1
  O2-  O229  1  0.20165407  0.33349493  0.40656653  1
  O2-  O230  1  0.19815240  0.33342418  0.72391383  1
  O2-  O231  1  0.18930179  0.83054510  0.05711488  1
  O2-  O232  1  0.19819501  0.82593269  0.39334090  1
  O2-  O233  1  0.20574703  0.82867728  0.73443602  1
  O2-  O234  1  0.71271299  0.33683626  0.05983343  1
  O2-  O235  1  0.70989249  0.33499393  0.40159952  1
  O2-  O236  1  0.70491056  0.33319047  0.72855805  1
  O2-  O237  1  0.71179396  0.83310772  0.06592684  1
  O2-  O238  1  0.71061411  0.82894932  0.40190651  1
  O2-  O239  1  0.71119370  0.83536440  0.73771493  1
  O2-  O240  1  0.45642348  0.42198364  0.26795011  1
  O2-  O241  1  0.44881280  0.42513336  0.60122274  1
  O2-  O242  1  0.45469212  0.42137038  0.93620207  1
  O2-  O243  1  0.45296286  0.91362674  0.27533380  1
  O2-  O244  1  0.45678510  0.91484049  0.59914204  1
  O2-  O245  1  0.46105789  0.91315239  0.93322537  1
  O2-  O246  1  0.95766823  0.41602525  0.27022466  1
  O2-  O247  1  0.96574466  0.41751462  0.59829305  1
  O2-  O248  1  0.95700533  0.41593966  0.94024835  1
  O2-  O249  1  0.96040022  0.91860210  0.26618954  1
  O2-  O250  1  0.95318384  0.91437757  0.60736268  1
  O2-  O251  1  0.95615559  0.91840355  0.92682800  1
  O2-  O252  1  0.32421901  0.29813787  0.27240043  1
  O2-  O253  1  0.32796703  0.29350886  0.60007657  1
  O2-  O254  1  0.32791134  0.29252707  0.93572908  1
  O2-  O255  1  0.33740758  0.78921336  0.27163058  1
  O2-  O256  1  0.33246350  0.78417666  0.59869334  1
  O2-  O257  1  0.32930490  0.79058785  0.93701055  1
  O2-  O258  1  0.83726355  0.29729794  0.27085899  1
  O2-  O259  1  0.83453592  0.29660630  0.59966395  1
  O2-  O260  1  0.84001206  0.29540641  0.93492837  1
  O2-  O261  1  0.83578340  0.78651347  0.26472213  1
  O2-  O262  1  0.83718299  0.78796827  0.60623444  1
  O2-  O263  1  0.83376186  0.78599811  0.92973666  1
  O2-  O264  1  0.41540199  0.03604908  0.06752064  1
  O2-  O265  1  0.42087532  0.04613475  0.40403312  1
  O2-  O266  1  0.41415732  0.04426181  0.72882947  1
  O2-  O267  1  0.42634318  0.55496471  0.06531462  1
  O2-  O268  1  0.41751465  0.55234646  0.39867222  1
  O2-  O269  1  0.41677174  0.55422198  0.72617801  1
  O2-  O270  1  0.91802746  0.04769860  0.06017411  1
  O2-  O271  1  0.91826606  0.04221265  0.40306077  1
  O2-  O272  1  0.91573311  0.04726312  0.73342106  1
  O2-  O273  1  0.91143619  0.54300644  0.06595057  1
  O2-  O274  1  0.91639266  0.54955567  0.39268112  1
  O2-  O275  1  0.91759467  0.53730251  0.73617619  1
  O2-  O276  1  0.28615943  0.16177431  0.06785599  1
  O2-  O277  1  0.28736021  0.16657125  0.40550952  1
  O2-  O278  1  0.29122860  0.16331898  0.73072565  1
  O2-  O279  1  0.28818049  0.66768529  0.07156141  1
  O2-  O280  1  0.29208963  0.66403621  0.40061221  1
  O2-  O281  1  0.28504551  0.65893550  0.73099809  1
  O2-  O282  1  0.80170873  0.16913041  0.06007701  1
  O2-  O283  1  0.79980198  0.17207880  0.39971804  1
  O2-  O284  1  0.80168555  0.17025909  0.72869456  1
  O2-  O285  1  0.79279940  0.66267260  0.06355569  1
  O2-  O286  1  0.79356224  0.66369587  0.39468015  1
  O2-  O287  1  0.79077209  0.66432178  0.73825078  1
