# generated using pymatgen
data_Ca2Al2SiO7
_symmetry_space_group_name_H-M   'P 1'
_cell_length_a   15.45155432
_cell_length_b   15.45131234
_cell_length_c   15.27944136
_cell_angle_alpha   90.00595507
_cell_angle_beta   89.99514054
_cell_angle_gamma   89.99508762
_symmetry_Int_Tables_number   1
_chemical_formula_structural   Ca2Al2SiO7
_chemical_formula_sum   'Ca48 Al48 Si24 O168'
_cell_volume   3647.91756198
_cell_formula_units_Z   24
loop_
 _symmetry_equiv_pos_site_id
 _symmetry_equiv_pos_as_xyz
  1  'x, y, z'
loop_
 _atom_type_symbol
 _atom_type_oxidation_number
  Ca2+  2.0
  Al0+  0.0
  Si0+  0.0
  O2-  -2.0
loop_
 _atom_site_type_symbol
 _atom_site_label
 _atom_site_symmetry_multiplicity
 _atom_site_fract_x
 _atom_site_fract_y
 _atom_site_fract_z
 _atom_site_occupancy
  Ca2+  Ca0  1  0.17159477  0.07141341  0.17344799  1
  Ca2+  Ca1  1  0.17088904  0.08429601  0.50180096  1
  Ca2+  Ca2  1  0.16534703  0.07727595  0.83935516  1
  Ca2+  Ca3  1  0.17611424  0.57856235  0.16948726  1
  Ca2+  Ca4  1  0.16960484  0.57769414  0.50647696  1
  Ca2+  Ca5  1  0.17703257  0.59439797  0.83570404  1
  Ca2+  Ca6  1  0.66036650  0.07849970  0.16685239  1
  Ca2+  Ca7  1  0.66265496  0.08024953  0.49908235  1
  Ca2+  Ca8  1  0.67346827  0.07609114  0.84613002  1
  Ca2+  Ca9  1  0.67661990  0.58588748  0.16598345  1
  Ca2+  Ca10  1  0.66315352  0.57498764  0.51060338  1
  Ca2+  Ca11  1  0.66695816  0.58078224  0.83643530  1
  Ca2+  Ca12  1  0.07642813  0.33703055  0.16349142  1
  Ca2+  Ca13  1  0.08253234  0.33047329  0.49165903  1
  Ca2+  Ca14  1  0.07694386  0.32755953  0.83066147  1
  Ca2+  Ca15  1  0.08125378  0.83914467  0.15871664  1
  Ca2+  Ca16  1  0.08370121  0.82912289  0.50064670  1
  Ca2+  Ca17  1  0.07199352  0.83328522  0.82713222  1
  Ca2+  Ca18  1  0.57236809  0.31956436  0.15919197  1
  Ca2+  Ca19  1  0.57827491  0.32917178  0.48924687  1
  Ca2+  Ca20  1  0.58436129  0.33240049  0.83427983  1
  Ca2+  Ca21  1  0.57855327  0.84074301  0.15871867  1
  Ca2+  Ca22  1  0.58125374  0.82940385  0.49823216  1
  Ca2+  Ca23  1  0.57451944  0.82908425  0.82868391  1
  Ca2+  Ca24  1  0.33350590  0.41494768  0.17034168  1
  Ca2+  Ca25  1  0.33146083  0.41802782  0.50528764  1
  Ca2+  Ca26  1  0.33661584  0.43049300  0.84034588  1
  Ca2+  Ca27  1  0.32416320  0.91737852  0.17242012  1
  Ca2+  Ca28  1  0.33330537  0.92167329  0.50094658  1
  Ca2+  Ca29  1  0.32752397  0.90803131  0.84208273  1
  Ca2+  Ca30  1  0.84177822  0.41927374  0.16903945  1
  Ca2+  Ca31  1  0.82680982  0.41354554  0.50481066  1
  Ca2+  Ca32  1  0.82918587  0.42131469  0.84101042  1
  Ca2+  Ca33  1  0.82321000  0.92047016  0.16664713  1
  Ca2+  Ca34  1  0.82907993  0.91448693  0.50265609  1
  Ca2+  Ca35  1  0.83132624  0.91760828  0.84712530  1
  Ca2+  Ca36  1  0.42042879  0.16821529  0.16283615  1
  Ca2+  Ca37  1  0.42142159  0.17209690  0.48593265  1
  Ca2+  Ca38  1  0.42267269  0.16996586  0.83478450  1
  Ca2+  Ca39  1  0.41830508  0.67143134  0.15742786  1
  Ca2+  Ca40  1  0.41622128  0.66766883  0.50510957  1
  Ca2+  Ca41  1  0.41312546  0.67496263  0.82646246  1
  Ca2+  Ca42  1  0.91139347  0.17690002  0.15943393  1
  Ca2+  Ca43  1  0.92427068  0.17246225  0.49608094  1
  Ca2+  Ca44  1  0.91936115  0.16584318  0.83231155  1
  Ca2+  Ca45  1  0.92052635  0.67206158  0.15605956  1
  Ca2+  Ca46  1  0.91980266  0.67048968  0.50079637  1
  Ca2+  Ca47  1  0.91569509  0.67798089  0.82953272  1
  Al0+  Al48  1  -0.00112750  0.00036778  0.00592034  1
  Al0+  Al49  1  -0.00164262  -0.00106287  0.33800593  1
  Al0+  Al50  1  -0.00001010  0.00237734  0.65685698  1
  Al0+  Al51  1  0.00100572  0.49912093  -0.00288695  1
  Al0+  Al52  1  0.00280867  0.50245592  0.33509651  1
  Al0+  Al53  1  -0.00198916  0.49995247  0.66519633  1
  Al0+  Al54  1  0.49844485  0.00002780  -0.00742465  1
  Al0+  Al55  1  0.50051620  -0.00228769  0.33904598  1
  Al0+  Al56  1  0.49989348  0.00137683  0.66482051  1
  Al0+  Al57  1  0.50084155  0.49971291  0.00349341  1
  Al0+  Al58  1  0.50262294  0.50160780  0.32777345  1
  Al0+  Al59  1  0.49874112  0.49965362  0.67302744  1
  Al0+  Al60  1  0.25025819  0.25085243  -0.00480668  1
  Al0+  Al61  1  0.24889307  0.25052810  0.33642528  1
  Al0+  Al62  1  0.24976608  0.24921753  0.66539794  1
  Al0+  Al63  1  0.25102443  0.74818060  0.00789931  1
  Al0+  Al64  1  0.25028499  0.74879382  0.33772975  1
  Al0+  Al65  1  0.24845099  0.75123654  0.66089533  1
  Al0+  Al66  1  0.75015411  0.25028671  -0.00519724  1
  Al0+  Al67  1  0.75057041  0.25020314  0.32563207  1
  Al0+  Al68  1  0.74914465  0.24896703  0.67165609  1
  Al0+  Al69  1  0.75069517  0.74867344  0.00474256  1
  Al0+  Al70  1  0.75180866  0.75054966  0.33813409  1
  Al0+  Al71  1  0.74808672  0.74912696  0.65896353  1
  Al0+  Al72  1  0.67976701  0.92908211  0.34944920  1
  Al0+  Al73  1  0.32034760  0.07016430  0.34754314  1
  Al0+  Al74  1  0.92958062  0.32269699  0.98452920  1
  Al0+  Al75  1  0.17901126  0.92913975  0.01102451  1
  Al0+  Al76  1  0.17635154  0.92695379  0.35234860  1
  Al0+  Al77  1  0.82213711  0.56978988  0.01256925  1
  Al0+  Al78  1  0.32210166  0.57032260  0.01462858  1
  Al0+  Al79  1  0.67878551  0.42794381  0.68039915  1
  Al0+  Al80  1  0.92936173  0.82094494  0.99034728  1
  Al0+  Al81  1  0.42648265  0.32304255  0.31885030  1
  Al0+  Al82  1  0.82151966  0.07292522  0.01536480  1
  Al0+  Al83  1  0.17985067  0.43085314  0.34620557  1
  Al0+  Al84  1  0.57043788  0.17629983  0.31811887  1
  Al0+  Al85  1  0.67686929  0.92853230  0.01248496  1
  Al0+  Al86  1  0.07123936  0.67830606  0.65167759  1
  Al0+  Al87  1  0.93125619  0.32166425  0.32046455  1
  Al0+  Al88  1  0.92730652  0.82250562  0.65041634  1
  Al0+  Al89  1  0.57045780  0.17811702  0.98189059  1
  Al0+  Al90  1  0.07169829  0.18068793  0.65233001  1
  Al0+  Al91  1  0.31746911  0.57033623  0.68021601  1
  Al0+  Al92  1  0.42796505  0.81922516  0.98930784  1
  Al0+  Al93  1  0.56918040  0.67718755  0.65271663  1
  Al0+  Al94  1  0.42722702  0.32298236  0.98222870  1
  Al0+  Al95  1  0.42775305  0.82326467  0.64957853  1
  Si0+  Si96  1  0.82232951  0.57318680  0.68313737  1
  Si0+  Si97  1  0.67857458  0.42728707  0.01959494  1
  Si0+  Si98  1  0.17554856  0.42554579  0.68448778  1
  Si0+  Si99  1  0.07204801  0.17607855  0.31565925  1
  Si0+  Si100  1  0.32237165  0.07277110  0.68347169  1
  Si0+  Si101  1  0.57427945  0.67893470  0.31721955  1
  Si0+  Si102  1  0.82143652  0.06944203  0.68049822  1
  Si0+  Si103  1  0.67891121  0.92794522  0.68147504  1
  Si0+  Si104  1  0.92622785  0.32097777  0.65096313  1
  Si0+  Si105  1  0.32571609  0.57147604  0.35113833  1
  Si0+  Si106  1  0.82091272  0.07513834  0.35173572  1
  Si0+  Si107  1  0.68088827  0.43008060  0.34506388  1
  Si0+  Si108  1  0.42988997  0.81838973  0.31895770  1
  Si0+  Si109  1  0.92836643  0.82059562  0.31650824  1
  Si0+  Si110  1  0.82240616  0.57121909  0.34990161  1
  Si0+  Si111  1  0.07157831  0.68030231  0.31707551  1
  Si0+  Si112  1  0.17861372  0.42618626  0.01482652  1
  Si0+  Si113  1  0.57228046  0.17982732  0.65136183  1
  Si0+  Si114  1  0.07269451  0.67778701  0.98553289  1
  Si0+  Si115  1  0.07164381  0.17720181  0.98555081  1
  Si0+  Si116  1  0.43039445  0.32051192  0.65280967  1
  Si0+  Si117  1  0.17920408  0.93166645  0.68094410  1
  Si0+  Si118  1  0.57386858  0.67793168  0.98559695  1
  Si0+  Si119  1  0.32136870  0.07378796  0.01380929  1
  O2-  O120  1  0.25394648  0.00369023  0.05733198  1
  O2-  O121  1  0.24707108  0.00087759  0.40108017  1
  O2-  O122  1  0.25290159  -0.00058131  0.72492410  1
  O2-  O123  1  0.25005192  0.49217614  0.05909727  1
  O2-  O124  1  0.26010386  0.49910034  0.39388197  1
  O2-  O125  1  0.24011049  0.49821956  0.72825565  1
  O2-  O126  1  0.74712855  0.00211672  0.06343249  1
  O2-  O127  1  0.75252128  0.00608050  0.39651828  1
  O2-  O128  1  0.75338209  -0.00446718  0.72283122  1
  O2-  O129  1  0.74960728  0.49454097  0.06302230  1
  O2-  O130  1  0.75166279  0.49955070  0.39087437  1
  O2-  O131  1  0.75364300  0.50367538  0.72575687  1
  O2-  O132  1  0.00380100  0.24548144  0.27198990  1
  O2-  O133  1  -0.00001184  0.25864732  0.60592816  1
  O2-  O134  1  0.00256035  0.24537112  0.94031074  1
  O2-  O135  1  0.00455462  0.75491859  0.27459902  1
  O2-  O136  1  -0.00193585  0.74876104  0.60040517  1
  O2-  O137  1  0.00388426  0.74687884  0.94261274  1
  O2-  O138  1  0.49543893  0.24695864  0.27101111  1
  O2-  O139  1  0.50089330  0.25001844  0.60896503  1
  O2-  O140  1  0.50024159  0.25230023  0.93155252  1
  O2-  O141  1  0.50165162  0.74846107  0.27586836  1
  O2-  O142  1  0.50030667  0.75092274  0.60019334  1
  O2-  O143  1  0.50403253  0.74593451  0.94260725  1
  O2-  O144  1  0.07323891  0.17861805  0.09085673  1
  O2-  O145  1  0.06992261  0.17850721  0.42164123  1
  O2-  O146  1  0.06964373  0.17831307  0.76554454  1
  O2-  O147  1  0.07131796  0.67711855  0.09166476  1
  O2-  O148  1  0.06857994  0.67846966  0.42195143  1
  O2-  O149  1  0.07190609  0.68313172  0.76529116  1
  O2-  O150  1  0.56701008  0.17758091  0.09531067  1
  O2-  O151  1  0.57224288  0.18151103  0.43272219  1
  O2-  O152  1  0.57208384  0.17912032  0.75588109  1
  O2-  O153  1  0.57377414  0.67889103  0.09181664  1
  O2-  O154  1  0.57441652  0.67651236  0.42209016  1
  O2-  O155  1  0.57016562  0.67967695  0.76617190  1
  O2-  O156  1  0.17588991  0.43638345  0.23328220  1
  O2-  O157  1  0.17878503  0.42414492  0.57869135  1
  O2-  O158  1  0.17750610  0.42636559  0.90924730  1
  O2-  O159  1  0.17817483  0.92643833  0.23852587  1
  O2-  O160  1  0.17978367  0.93442556  0.57606855  1
  O2-  O161  1  0.17788468  0.92955482  0.89737581  1
  O2-  O162  1  0.68233890  0.43398668  0.24057283  1
  O2-  O163  1  0.68070386  0.42602477  0.56630323  1
  O2-  O164  1  0.67890779  0.43036306  0.91358863  1
  O2-  O165  1  0.68103269  0.92608576  0.23684833  1
  O2-  O166  1  0.67869857  0.93111054  0.57614396  1
  O2-  O167  1  0.67973796  0.92742462  0.89841739  1
  O2-  O168  1  0.42670656  0.32052943  0.09559275  1
  O2-  O169  1  0.43190631  0.32566598  0.43332175  1
  O2-  O170  1  0.43037512  0.31893914  0.75750325  1
  O2-  O171  1  0.42749055  0.81735853  0.10288691  1
  O2-  O172  1  0.43085586  0.81631458  0.42393997  1
  O2-  O173  1  0.42757939  0.82252996  0.76333326  1
  O2-  O174  1  0.93419210  0.32461049  0.09778106  1
  O2-  O175  1  0.93060510  0.32062051  0.43396094  1
  O2-  O176  1  0.92595441  0.31818546  0.75631906  1
  O2-  O177  1  0.93038797  0.81873422  0.10369366  1
  O2-  O178  1  0.92593781  0.81643175  0.42148900  1
  O2-  O179  1  0.92798641  0.82430397  0.76432959  1
  O2-  O180  1  0.31975983  0.06620316  0.23371671  1
  O2-  O181  1  0.32202995  0.07454314  0.57865720  1
  O2-  O182  1  0.31842583  0.07400261  0.90769976  1
  O2-  O183  1  0.32356849  0.57441980  0.24561220  1
  O2-  O184  1  0.31901758  0.56512994  0.56696790  1
  O2-  O185  1  0.31832957  0.57350208  0.90151291  1
  O2-  O186  1  0.82246179  0.07440050  0.24673511  1
  O2-  O187  1  0.81828349  0.07289049  0.57532960  1
  O2-  O188  1  0.82402738  0.06861162  0.90099250  1
  O2-  O189  1  0.82288908  0.57301658  0.24480591  1
  O2-  O190  1  0.82270706  0.57075514  0.57704510  1
  O2-  O191  1  0.82010076  0.57051621  0.89960476  1
  O2-  O192  1  0.04603338  0.08107344  0.27281399  1
  O2-  O193  1  0.03839622  0.08807340  0.59303056  1
  O2-  O194  1  0.04433639  0.08410846  0.93914185  1
  O2-  O195  1  0.03929193  0.59071472  0.26845613  1
  O2-  O196  1  0.04477655  0.57823653  0.59892942  1
  O2-  O197  1  0.04937704  0.58494725  0.93792807  1
  O2-  O198  1  0.54335659  0.07604620  0.26908112  1
  O2-  O199  1  0.54487740  0.08814951  0.60356925  1
  O2-  O200  1  0.54090165  0.08144924  0.92519811  1
  O2-  O201  1  0.54922339  0.58804094  0.26670164  1
  O2-  O202  1  0.53781343  0.57860384  0.60025519  1
  O2-  O203  1  0.55050758  0.58330765  0.94189012  1
  O2-  O204  1  0.16626356  0.19998658  0.27169531  1
  O2-  O205  1  0.16882512  0.20920344  0.59729318  1
  O2-  O206  1  0.16404032  0.20218318  0.93630507  1
  O2-  O207  1  0.16593929  0.70347100  0.27210244  1
  O2-  O208  1  0.16700665  0.70776785  0.59448798  1
  O2-  O209  1  0.16630257  0.70553134  0.94202517  1
  O2-  O210  1  0.66746345  0.20601817  0.26416288  1
  O2-  O211  1  0.66437330  0.20792979  0.60459525  1
  O2-  O212  1  0.66909121  0.20573695  0.92889425  1
  O2-  O213  1  0.66690187  0.70827762  0.27205425  1
  O2-  O214  1  0.66725240  0.70109544  0.59631847  1
  O2-  O215  1  0.66686078  0.70332253  0.93896185  1
  O2-  O216  1  0.08628208  0.45524643  0.06145834  1
  O2-  O217  1  0.08611559  0.46741645  0.40393946  1
  O2-  O218  1  0.07895124  0.44572821  0.72671162  1
  O2-  O219  1  0.08482203  0.96035392  0.06899867  1
  O2-  O220  1  0.07651634  0.95206483  0.40431325  1
  O2-  O221  1  0.08663890  0.96327368  0.72519135  1
  O2-  O222  1  0.58612279  0.45420494  0.06688852  1
  O2-  O223  1  0.58918262  0.45946943  0.39282191  1
  O2-  O224  1  0.58381227  0.45846060  0.73696143  1
  O2-  O225  1  0.57706620  0.95731778  0.06308004  1
  O2-  O226  1  0.58376164  0.95639577  0.40607863  1
  O2-  O227  1  0.58736323  0.95900528  0.72761014  1
  O2-  O228  1  0.20137069  0.33186404  0.06107900  1
  O2-  O229  1  0.20199254  0.33251042  0.40067415  1
  O2-  O230  1  0.20469917  0.33282088  0.73061923  1
  O2-  O231  1  0.20972489  0.83449790  0.06903263  1
  O2-  O232  1  0.20726512  0.82856138  0.40428971  1
  O2-  O233  1  0.20374862  0.83825168  0.72583610  1
  O2-  O234  1  0.70307344  0.33269755  0.06204670  1
  O2-  O235  1  0.70807302  0.33742117  0.39147138  1
  O2-  O236  1  0.71057510  0.33261047  0.73699491  1
  O2-  O237  1  0.70526335  0.83131431  0.06768828  1
  O2-  O238  1  0.71451629  0.83359126  0.40518241  1
  O2-  O239  1  0.70213667  0.83339496  0.72461608  1
  O2-  O240  1  0.45810796  0.42037845  0.26484344  1
  O2-  O241  1  0.45806545  0.41234371  0.60667422  1
  O2-  O242  1  0.45767096  0.42263859  0.93239929  1
  O2-  O243  1  0.45765801  0.91056733  0.27379483  1
  O2-  O244  1  0.45775603  0.92195107  0.59714839  1
  O2-  O245  1  0.45234997  0.91527155  0.93199360  1
  O2-  O246  1  0.96396133  0.41910594  0.26840904  1
  O2-  O247  1  0.94339059  0.41699111  0.60700507  1
  O2-  O248  1  0.96259957  0.41743492  0.92755145  1
  O2-  O249  1  0.95070026  0.91544194  0.27323197  1
  O2-  O250  1  0.95657644  0.91902584  0.59434195  1
  O2-  O251  1  0.95952824  0.91788004  0.93704033  1
  O2-  O252  1  0.32589642  0.29916224  0.26893805  1
  O2-  O253  1  0.33815961  0.29293087  0.60590142  1
  O2-  O254  1  0.32890258  0.29598140  0.92772437  1
  O2-  O255  1  0.33707279  0.79029833  0.27322864  1
  O2-  O256  1  0.33048637  0.79498298  0.59554049  1
  O2-  O257  1  0.33197005  0.78425804  0.93595961  1
  O2-  O258  1  0.83515512  0.29439335  0.26421449  1
  O2-  O259  1  0.83436732  0.28844139  0.60448330  1
  O2-  O260  1  0.83277987  0.29583054  0.93033438  1
  O2-  O261  1  0.83794221  0.78683638  0.27003998  1
  O2-  O262  1  0.82984604  0.79415760  0.59519441  1
  O2-  O263  1  0.83335645  0.78805521  0.93644749  1
  O2-  O264  1  0.41555789  0.04883300  0.05693500  1
  O2-  O265  1  0.41711213  0.03992995  0.40370562  1
  O2-  O266  1  0.41562853  0.04749953  0.72959210  1
  O2-  O267  1  0.41968074  0.54453365  0.06931690  1
  O2-  O268  1  0.42170737  0.54982304  0.39428371  1
  O2-  O269  1  0.41247334  0.53879807  0.73633449  1
  O2-  O270  1  0.91804315  0.04491437  0.07166306  1
  O2-  O271  1  0.91406872  0.04846462  0.39896345  1
  O2-  O272  1  0.91546909  0.04463408  0.72471149  1
  O2-  O273  1  0.91973521  0.53990199  0.06636063  1
  O2-  O274  1  0.91368315  0.54346829  0.39787704  1
  O2-  O275  1  0.91620529  0.54932112  0.72958744  1
  O2-  O276  1  0.29508209  0.16710243  0.06002929  1
  O2-  O277  1  0.29526437  0.16948462  0.40141604  1
  O2-  O278  1  0.29188496  0.16372714  0.73136310  1
  O2-  O279  1  0.28759148  0.66286734  0.07453638  1
  O2-  O280  1  0.29583701  0.66293162  0.39877490  1
  O2-  O281  1  0.28744365  0.66935304  0.73108429  1
  O2-  O282  1  0.79502081  0.17312174  0.06488959  1
  O2-  O283  1  0.79473358  0.16927971  0.39739812  1
  O2-  O284  1  0.79178220  0.15960728  0.73025077  1
  O2-  O285  1  0.79001438  0.66383485  0.07159922  1
  O2-  O286  1  0.79314045  0.66153236  0.39910913  1
  O2-  O287  1  0.79525262  0.66771216  0.72650419  1
