# generated using pymatgen
data_Ca2Al2SiO7
_symmetry_space_group_name_H-M   'P 1'
_cell_length_a   15.45652136
_cell_length_b   15.45620620
_cell_length_c   15.28305243
_cell_angle_alpha   90.00192996
_cell_angle_beta   89.99841347
_cell_angle_gamma   90.01283846
_symmetry_Int_Tables_number   1
_chemical_formula_structural   Ca2Al2SiO7
_chemical_formula_sum   'Ca48 Al48 Si24 O168'
_cell_volume   3651.10861626
_cell_formula_units_Z   24
loop_
 _symmetry_equiv_pos_site_id
 _symmetry_equiv_pos_as_xyz
  1  'x, y, z'
loop_
 _atom_type_symbol
 _atom_type_oxidation_number
  Ca2+  2.0
  Al0+  0.0
  Si0+  0.0
  O2-  -2.0
loop_
 _atom_site_type_symbol
 _atom_site_label
 _atom_site_symmetry_multiplicity
 _atom_site_fract_x
 _atom_site_fract_y
 _atom_site_fract_z
 _atom_site_occupancy
  Ca2+  Ca0  1  0.16913115  0.08589249  0.17567010  1
  Ca2+  Ca1  1  0.17386661  0.07936257  0.50144543  1
  Ca2+  Ca2  1  0.17346263  0.08359598  0.83453680  1
  Ca2+  Ca3  1  0.17299032  0.57491517  0.18021557  1
  Ca2+  Ca4  1  0.16967243  0.57679538  0.50365180  1
  Ca2+  Ca5  1  0.16922809  0.57902058  0.82911298  1
  Ca2+  Ca6  1  0.67342187  0.08024512  0.17080696  1
  Ca2+  Ca7  1  0.67614735  0.08829995  0.50187250  1
  Ca2+  Ca8  1  0.66762091  0.07493586  0.83927794  1
  Ca2+  Ca9  1  0.66794791  0.57794781  0.17677079  1
  Ca2+  Ca10  1  0.66576930  0.57423700  0.50355290  1
  Ca2+  Ca11  1  0.67281873  0.57937404  0.82983360  1
  Ca2+  Ca12  1  0.08732722  0.32006834  0.16188777  1
  Ca2+  Ca13  1  0.08405601  0.33482662  0.49439785  1
  Ca2+  Ca14  1  0.07779484  0.32991775  0.82843783  1
  Ca2+  Ca15  1  0.09153901  0.82912666  0.17132366  1
  Ca2+  Ca16  1  0.08594275  0.83315980  0.49506251  1
  Ca2+  Ca17  1  0.07919240  0.83406719  0.82223486  1
  Ca2+  Ca18  1  0.57049129  0.33687889  0.16661191  1
  Ca2+  Ca19  1  0.57810024  0.34101527  0.49241681  1
  Ca2+  Ca20  1  0.57883815  0.33350688  0.82955301  1
  Ca2+  Ca21  1  0.58593182  0.82854686  0.16432726  1
  Ca2+  Ca22  1  0.57294703  0.82445917  0.49486309  1
  Ca2+  Ca23  1  0.57881350  0.83443859  0.82434471  1
  Ca2+  Ca24  1  0.33052317  0.41579365  0.17874030  1
  Ca2+  Ca25  1  0.32428437  0.42327602  0.50124865  1
  Ca2+  Ca26  1  0.32900647  0.41610770  0.83325135  1
  Ca2+  Ca27  1  0.32694223  0.93352530  0.17616766  1
  Ca2+  Ca28  1  0.32320899  0.92096606  0.50848232  1
  Ca2+  Ca29  1  0.33364543  0.92557821  0.83427377  1
  Ca2+  Ca30  1  0.82623603  0.40861997  0.17210199  1
  Ca2+  Ca31  1  0.82329634  0.41918833  0.51127805  1
  Ca2+  Ca32  1  0.83644993  0.41431846  0.83169005  1
  Ca2+  Ca33  1  0.82910415  0.92316393  0.17198415  1
  Ca2+  Ca34  1  0.83965924  0.92258762  0.50190799  1
  Ca2+  Ca35  1  0.82870209  0.91328079  0.83796213  1
  Ca2+  Ca36  1  0.40259107  0.17850955  0.16465220  1
  Ca2+  Ca37  1  0.41199215  0.17024902  0.49420471  1
  Ca2+  Ca38  1  0.41106565  0.16671463  0.83156384  1
  Ca2+  Ca39  1  0.42153367  0.66198111  0.16871427  1
  Ca2+  Ca40  1  0.41158786  0.66575022  0.49322211  1
  Ca2+  Ca41  1  0.41604868  0.67362072  0.82213560  1
  Ca2+  Ca42  1  0.92759737  0.16817215  0.16310206  1
  Ca2+  Ca43  1  0.92352440  0.17132170  0.49196900  1
  Ca2+  Ca44  1  0.92274257  0.17538557  0.82791239  1
  Ca2+  Ca45  1  0.92696632  0.66359058  0.16676763  1
  Ca2+  Ca46  1  0.91987415  0.67020090  0.49738704  1
  Ca2+  Ca47  1  0.91639768  0.67167017  0.82182027  1
  Al0+  Al48  1  0.00063719  -0.00223836  -0.00400810  1
  Al0+  Al49  1  -0.00183077  0.00169045  0.33504536  1
  Al0+  Al50  1  0.00105198  0.00078956  0.66638814  1
  Al0+  Al51  1  0.00097248  0.50103504  -0.00285317  1
  Al0+  Al52  1  -0.00235052  0.50208285  0.33056347  1
  Al0+  Al53  1  -0.00111099  0.50004998  0.66969316  1
  Al0+  Al54  1  0.49935678  -0.00061377  0.01138050  1
  Al0+  Al55  1  0.50169064  0.00029572  0.33499316  1
  Al0+  Al56  1  0.50061664  -0.00036218  0.66289678  1
  Al0+  Al57  1  0.50189130  0.50079316  -0.00653026  1
  Al0+  Al58  1  0.50072718  0.50088154  0.33159788  1
  Al0+  Al59  1  0.50140611  0.49884090  0.67523207  1
  Al0+  Al60  1  0.24949942  0.25071354  -0.00702712  1
  Al0+  Al61  1  0.24840876  0.25050734  0.33381940  1
  Al0+  Al62  1  0.25115958  0.24994946  0.67282297  1
  Al0+  Al63  1  0.25169996  0.74956533  -0.00041695  1
  Al0+  Al64  1  0.24956331  0.75182676  0.33177320  1
  Al0+  Al65  1  0.24930843  0.75102257  0.67011683  1
  Al0+  Al66  1  0.74894200  0.25016723  -0.00226458  1
  Al0+  Al67  1  0.74779169  0.24882981  0.34034350  1
  Al0+  Al68  1  0.75029371  0.24926626  0.66850571  1
  Al0+  Al69  1  0.75044580  0.74747193  0.00510146  1
  Al0+  Al70  1  0.74865239  0.75077730  0.32798635  1
  Al0+  Al71  1  0.75018952  0.74927454  0.66286818  1
  Al0+  Al72  1  0.07173683  0.17640770  0.98227976  1
  Al0+  Al73  1  0.92778626  0.82245152  0.65247766  1
  Al0+  Al74  1  0.56942343  0.67995267  0.31938683  1
  Al0+  Al75  1  0.32371359  0.07010524  0.68281465  1
  Al0+  Al76  1  0.32154921  0.57172488  0.68207675  1
  Al0+  Al77  1  0.42985226  0.32145907  0.98436075  1
  Al0+  Al78  1  0.17774870  0.42807158  0.68326135  1
  Al0+  Al79  1  0.42814082  0.82115319  0.65309450  1
  Al0+  Al80  1  0.67898364  0.42606467  0.68499118  1
  Al0+  Al81  1  0.92930723  0.32116927  0.65073378  1
  Al0+  Al82  1  0.32204166  0.07363921  0.34886750  1
  Al0+  Al83  1  0.17854007  0.92947588  0.34784395  1
  Al0+  Al84  1  0.81926800  0.06980734  0.34678876  1
  Al0+  Al85  1  0.17578977  0.42801615  0.34539859  1
  Al0+  Al86  1  0.31812850  0.07173345  0.01570603  1
  Al0+  Al87  1  0.92733770  0.32152508  0.98503838  1
  Al0+  Al88  1  0.06936197  0.18065953  0.32168921  1
  Al0+  Al89  1  0.68011479  0.43050889  0.34498154  1
  Al0+  Al90  1  0.17764872  0.92929312  0.68296977  1
  Al0+  Al91  1  0.67911818  0.92744421  0.01395586  1
  Al0+  Al92  1  0.32167442  0.57077676  0.34515029  1
  Al0+  Al93  1  0.43035649  0.31876591  0.32298020  1
  Al0+  Al94  1  0.07172713  0.67872753  0.32029059  1
  Al0+  Al95  1  0.82028027  0.57175253  0.68037505  1
  Si0+  Si96  1  0.82198422  0.57051104  0.01681669  1
  Si0+  Si97  1  0.07296161  0.67929027  0.98375223  1
  Si0+  Si98  1  0.57470041  0.17621631  0.31660704  1
  Si0+  Si99  1  0.92799420  0.82277442  0.31442990  1
  Si0+  Si100  1  0.57176951  0.17608364  0.98529228  1
  Si0+  Si101  1  0.42706924  0.82442572  0.31428778  1
  Si0+  Si102  1  0.07336527  0.17962039  0.64801448  1
  Si0+  Si103  1  0.82209129  0.07109469  0.68282476  1
  Si0+  Si104  1  0.57134603  0.17786509  0.65200960  1
  Si0+  Si105  1  0.82252398  0.57454253  0.34837280  1
  Si0+  Si106  1  0.92447630  0.32251062  0.31923629  1
  Si0+  Si107  1  0.07176107  0.67849708  0.65041854  1
  Si0+  Si108  1  0.82286760  0.07186871  0.01461297  1
  Si0+  Si109  1  0.57289213  0.67943690  0.98243542  1
  Si0+  Si110  1  0.42979955  0.32127832  0.65202318  1
  Si0+  Si111  1  0.92822755  0.81778015  0.98646012  1
  Si0+  Si112  1  0.67800549  0.92514778  0.35212919  1
  Si0+  Si113  1  0.57101201  0.67719536  0.65044312  1
  Si0+  Si114  1  0.17977425  0.43163617  0.01454439  1
  Si0+  Si115  1  0.67845107  0.42929724  0.01564242  1
  Si0+  Si116  1  0.43123217  0.82110964  0.98677332  1
  Si0+  Si117  1  0.32288279  0.57211284  0.01492307  1
  Si0+  Si118  1  0.17641028  0.92538715  0.01709520  1
  Si0+  Si119  1  0.68058215  0.92978284  0.67803863  1
  O2-  O120  1  0.24045855  -0.00139840  0.06006836  1
  O2-  O121  1  0.25371818  -0.00207847  0.39746461  1
  O2-  O122  1  0.25099252  -0.00080283  0.73353914  1
  O2-  O123  1  0.25316973  0.50027930  0.05701964  1
  O2-  O124  1  0.24568779  0.50282365  0.39386059  1
  O2-  O125  1  0.25105077  0.49925840  0.73399994  1
  O2-  O126  1  0.75405133  0.00288063  0.05871855  1
  O2-  O127  1  0.74455220  -0.00436376  0.39589861  1
  O2-  O128  1  0.75298585  -0.00255688  0.72396249  1
  O2-  O129  1  0.75401130  0.49587604  0.05768556  1
  O2-  O130  1  0.75707885  0.50276259  0.39121268  1
  O2-  O131  1  0.75281723  0.49718390  0.73390618  1
  O2-  O132  1  -0.00284857  0.25861424  0.27473075  1
  O2-  O133  1  0.00632170  0.24989048  0.60342245  1
  O2-  O134  1  -0.00245911  0.24801288  0.93484455  1
  O2-  O135  1  -0.00300180  0.75360091  0.27109153  1
  O2-  O136  1  0.00367774  0.74877434  0.60732544  1
  O2-  O137  1  0.00283565  0.75179419  0.94294436  1
  O2-  O138  1  0.50163245  0.24069193  0.27357654  1
  O2-  O139  1  0.50136640  0.25017507  0.61073042  1
  O2-  O140  1  0.50333417  0.24384409  0.93943848  1
  O2-  O141  1  0.49633870  0.75543338  0.27007275  1
  O2-  O142  1  0.49715222  0.74052672  0.60710100  1
  O2-  O143  1  0.50230978  0.75117838  0.94170268  1
  O2-  O144  1  0.07072974  0.17734720  0.09622859  1
  O2-  O145  1  0.06725314  0.17947301  0.43440141  1
  O2-  O146  1  0.07005343  0.17872688  0.75382378  1
  O2-  O147  1  0.07253520  0.67814680  0.08881286  1
  O2-  O148  1  0.06868250  0.67809479  0.43276541  1
  O2-  O149  1  0.06988542  0.68016555  0.75692830  1
  O2-  O150  1  0.57551660  0.17888488  0.09047740  1
  O2-  O151  1  0.57810144  0.17845569  0.42219545  1
  O2-  O152  1  0.57181511  0.17489872  0.75742682  1
  O2-  O153  1  0.57280819  0.67757130  0.08751332  1
  O2-  O154  1  0.56994870  0.68108125  0.43211663  1
  O2-  O155  1  0.57381553  0.68230002  0.75665607  1
  O2-  O156  1  0.17838473  0.42739059  0.23092061  1
  O2-  O157  1  0.17890247  0.42847672  0.56992745  1
  O2-  O158  1  0.17917234  0.43526668  0.90965604  1
  O2-  O159  1  0.17965345  0.93091773  0.23348388  1
  O2-  O160  1  0.17704225  0.93079014  0.56990096  1
  O2-  O161  1  0.17799739  0.92083951  0.91202100  1
  O2-  O162  1  0.68063644  0.43110983  0.23103477  1
  O2-  O163  1  0.67720802  0.42788282  0.57147391  1
  O2-  O164  1  0.67694548  0.43172070  0.91109710  1
  O2-  O165  1  0.68085021  0.92468599  0.24612363  1
  O2-  O166  1  0.68098215  0.93258956  0.57341253  1
  O2-  O167  1  0.68075822  0.92689514  0.90020963  1
  O2-  O168  1  0.43069524  0.32475667  0.09749126  1
  O2-  O169  1  0.43295395  0.32015171  0.43595437  1
  O2-  O170  1  0.43166418  0.31988014  0.75753685  1
  O2-  O171  1  0.43209561  0.81745210  0.09154420  1
  O2-  O172  1  0.42884395  0.82414568  0.41978767  1
  O2-  O173  1  0.43471953  0.82310219  0.76709298  1
  O2-  O174  1  0.92626544  0.32064807  0.09888105  1
  O2-  O175  1  0.92287526  0.32001564  0.42457907  1
  O2-  O176  1  0.92890880  0.31621023  0.76387773  1
  O2-  O177  1  0.92629472  0.81565252  0.09132297  1
  O2-  O178  1  0.92571044  0.82158922  0.41977832  1
  O2-  O179  1  0.92564329  0.81993328  0.76650116  1
  O2-  O180  1  0.31809282  0.07445418  0.23492080  1
  O2-  O181  1  0.32445230  0.06998670  0.56987926  1
  O2-  O182  1  0.32178727  0.06688579  0.90305270  1
  O2-  O183  1  0.32227676  0.56702066  0.23055185  1
  O2-  O184  1  0.32134438  0.56991065  0.56896011  1
  O2-  O185  1  0.32103367  0.57481370  0.91017116  1
  O2-  O186  1  0.81792640  0.06803217  0.23316427  1
  O2-  O187  1  0.82023762  0.07190809  0.57784887  1
  O2-  O188  1  0.82090546  0.06953782  0.90881487  1
  O2-  O189  1  0.82122916  0.57460524  0.24203505  1
  O2-  O190  1  0.81649280  0.57333019  0.56700456  1
  O2-  O191  1  0.81966655  0.57596039  0.91231951  1
  O2-  O192  1  0.03446889  0.08544912  0.26621790  1
  O2-  O193  1  0.04431947  0.08663968  0.60336607  1
  O2-  O194  1  0.04544976  0.07666440  0.92970335  1
  O2-  O195  1  0.03897318  0.58366747  0.26108577  1
  O2-  O196  1  0.04481835  0.58526691  0.60558640  1
  O2-  O197  1  0.04300223  0.58913564  0.93504671  1
  O2-  O198  1  0.55715392  0.07971878  0.27254012  1
  O2-  O199  1  0.54475739  0.08750364  0.60128956  1
  O2-  O200  1  0.54632069  0.08057548  0.94241090  1
  O2-  O201  1  0.53843394  0.58507018  0.26146240  1
  O2-  O202  1  0.55047663  0.58045924  0.60975672  1
  O2-  O203  1  0.54555907  0.58897800  0.93274647  1
  O2-  O204  1  0.16509199  0.21047586  0.26537880  1
  O2-  O205  1  0.16878486  0.20399898  0.60597562  1
  O2-  O206  1  0.16756710  0.20835424  0.92736368  1
  O2-  O207  1  0.16741661  0.70947983  0.26260567  1
  O2-  O208  1  0.16559239  0.70319086  0.60596234  1
  O2-  O209  1  0.16551029  0.70560570  0.93682654  1
  O2-  O210  1  0.66660466  0.20646451  0.26881167  1
  O2-  O211  1  0.66389573  0.20453522  0.60540422  1
  O2-  O212  1  0.66483389  0.20047512  0.93650755  1
  O2-  O213  1  0.66579849  0.71027761  0.26175565  1
  O2-  O214  1  0.66156734  0.70805499  0.60191726  1
  O2-  O215  1  0.66550381  0.70821139  0.93697177  1
  O2-  O216  1  0.08830784  0.46164309  0.06148396  1
  O2-  O217  1  0.07592749  0.45483244  0.39579407  1
  O2-  O218  1  0.08032354  0.45786214  0.73730847  1
  O2-  O219  1  0.07987475  0.94444322  0.06022413  1
  O2-  O220  1  0.07977753  0.95696138  0.39875069  1
  O2-  O221  1  0.07895091  0.95855865  0.73656272  1
  O2-  O222  1  0.58788906  0.46345505  0.06213714  1
  O2-  O223  1  0.58608099  0.46596184  0.39941263  1
  O2-  O224  1  0.58296790  0.45632900  0.74139390  1
  O2-  O225  1  0.58491463  0.95617133  0.07280627  1
  O2-  O226  1  0.58332424  0.94721062  0.39633956  1
  O2-  O227  1  0.59044938  0.96046131  0.72710289  1
  O2-  O228  1  0.20622677  0.33801611  0.05766491  1
  O2-  O229  1  0.20568378  0.33218634  0.40013702  1
  O2-  O230  1  0.20748724  0.33117810  0.73834437  1
  O2-  O231  1  0.20728160  0.83282219  0.06405510  1
  O2-  O232  1  0.20355897  0.82999862  0.39905161  1
  O2-  O233  1  0.20248435  0.83050839  0.73633706  1
  O2-  O234  1  0.70124937  0.33529333  0.06134266  1
  O2-  O235  1  0.70499757  0.33395528  0.40078346  1
  O2-  O236  1  0.70627645  0.32712251  0.73792721  1
  O2-  O237  1  0.71188118  0.83175536  0.06955604  1
  O2-  O238  1  0.70555859  0.83193135  0.39721859  1
  O2-  O239  1  0.70561143  0.83727890  0.72536773  1
  O2-  O240  1  0.46513234  0.41324165  0.26627235  1
  O2-  O241  1  0.45931410  0.41390987  0.60784097  1
  O2-  O242  1  0.46393725  0.41671121  0.92865951  1
  O2-  O243  1  0.45554414  0.91802198  0.26828540  1
  O2-  O244  1  0.46543587  0.91435465  0.59667800  1
  O2-  O245  1  0.45997013  0.91384416  0.94221869  1
  O2-  O246  1  0.94081032  0.41856872  0.27461830  1
  O2-  O247  1  0.95393202  0.42074860  0.60043647  1
  O2-  O248  1  0.95683669  0.42056168  0.93293140  1
  O2-  O249  1  0.95375699  0.91596571  0.26794053  1
  O2-  O250  1  0.95641181  0.92011574  0.59953902  1
  O2-  O251  1  0.94912727  0.91109236  0.93888120  1
  O2-  O252  1  0.33357808  0.29062537  0.26729576  1
  O2-  O253  1  0.33715557  0.29384318  0.60694869  1
  O2-  O254  1  0.33410845  0.29267854  0.92899148  1
  O2-  O255  1  0.33411481  0.80022549  0.26693727  1
  O2-  O256  1  0.32972015  0.79478841  0.60182691  1
  O2-  O257  1  0.33938208  0.79294402  0.93900363  1
  O2-  O258  1  0.83232227  0.29010391  0.27301066  1
  O2-  O259  1  0.83182466  0.28755412  0.59952220  1
  O2-  O260  1  0.82744573  0.29616764  0.93221631  1
  O2-  O261  1  0.83472006  0.79692099  0.26669676  1
  O2-  O262  1  0.83205677  0.79167467  0.59639114  1
  O2-  O263  1  0.83725220  0.78545862  0.93906096  1
  O2-  O264  1  0.41359232  0.04074173  0.07220284  1
  O2-  O265  1  0.42428779  0.05199443  0.39675067  1
  O2-  O266  1  0.42285523  0.03964567  0.73490528  1
  O2-  O267  1  0.41733986  0.54593549  0.05784425  1
  O2-  O268  1  0.41847097  0.54085145  0.39848583  1
  O2-  O269  1  0.41991305  0.54617936  0.73721237  1
  O2-  O270  1  0.91627378  0.04416794  0.05994305  1
  O2-  O271  1  0.91359008  0.03809071  0.40313704  1
  O2-  O272  1  0.91366506  0.04488785  0.73018149  1
  O2-  O273  1  0.91595959  0.54646015  0.06226402  1
  O2-  O274  1  0.91687976  0.55447836  0.39349494  1
  O2-  O275  1  0.91881176  0.54872003  0.73478922  1
  O2-  O276  1  0.28851135  0.17102487  0.06479789  1
  O2-  O277  1  0.29039342  0.16986113  0.40234374  1
  O2-  O278  1  0.29642816  0.16817032  0.73633659  1
  O2-  O279  1  0.29511915  0.66390508  0.06286909  1
  O2-  O280  1  0.29854859  0.67138077  0.39370655  1
  O2-  O281  1  0.29274918  0.66947876  0.73689508  1
  O2-  O282  1  0.79611168  0.16525044  0.06036057  1
  O2-  O283  1  0.78755479  0.16404782  0.40468974  1
  O2-  O284  1  0.79024838  0.16025153  0.73220297  1
  O2-  O285  1  0.79042232  0.65940873  0.06792503  1
  O2-  O286  1  0.79429232  0.66812982  0.39221404  1
  O2-  O287  1  0.78722399  0.66955792  0.73498065  1
