# generated using pymatgen
data_Ca2Al2SiO7
_symmetry_space_group_name_H-M   'P 1'
_cell_length_a   15.46904084
_cell_length_b   15.47134697
_cell_length_c   15.29188260
_cell_angle_alpha   90.01712418
_cell_angle_beta   89.98734412
_cell_angle_gamma   89.97213575
_symmetry_Int_Tables_number   1
_chemical_formula_structural   Ca2Al2SiO7
_chemical_formula_sum   'Ca48 Al48 Si24 O168'
_cell_volume   3659.75814484
_cell_formula_units_Z   24
loop_
 _symmetry_equiv_pos_site_id
 _symmetry_equiv_pos_as_xyz
  1  'x, y, z'
loop_
 _atom_type_symbol
 _atom_type_oxidation_number
  Ca2+  2.0
  Al0+  0.0
  Si0+  0.0
  O2-  -2.0
loop_
 _atom_site_type_symbol
 _atom_site_label
 _atom_site_symmetry_multiplicity
 _atom_site_fract_x
 _atom_site_fract_y
 _atom_site_fract_z
 _atom_site_occupancy
  Ca2+  Ca0  1  0.16688584  0.08756556  0.16540982  1
  Ca2+  Ca1  1  0.17433677  0.08005940  0.51385289  1
  Ca2+  Ca2  1  0.16517821  0.08481174  0.83193821  1
  Ca2+  Ca3  1  0.16483391  0.58618018  0.16930233  1
  Ca2+  Ca4  1  0.16486142  0.58250882  0.50805301  1
  Ca2+  Ca5  1  0.16003828  0.58728517  0.83858961  1
  Ca2+  Ca6  1  0.67401784  0.07446154  0.16631643  1
  Ca2+  Ca7  1  0.67063332  0.07268129  0.51026757  1
  Ca2+  Ca8  1  0.67639256  0.07718293  0.83539029  1
  Ca2+  Ca9  1  0.67585083  0.57499254  0.17750704  1
  Ca2+  Ca10  1  0.66910515  0.58018854  0.50126942  1
  Ca2+  Ca11  1  0.66459865  0.58465782  0.83462325  1
  Ca2+  Ca12  1  0.07045581  0.32852622  0.16008288  1
  Ca2+  Ca13  1  0.07756714  0.32402627  0.49773012  1
  Ca2+  Ca14  1  0.07622419  0.32002271  0.83435937  1
  Ca2+  Ca15  1  0.06619403  0.82868008  0.15826632  1
  Ca2+  Ca16  1  0.07019174  0.84184931  0.50108290  1
  Ca2+  Ca17  1  0.07250185  0.83302637  0.82487700  1
  Ca2+  Ca18  1  0.57571349  0.34117712  0.16383526  1
  Ca2+  Ca19  1  0.58290176  0.32505123  0.49455253  1
  Ca2+  Ca20  1  0.57847120  0.32527903  0.82692922  1
  Ca2+  Ca21  1  0.57718928  0.84428457  0.16284935  1
  Ca2+  Ca22  1  0.58709320  0.83398815  0.49473001  1
  Ca2+  Ca23  1  0.58297118  0.83965841  0.82759866  1
  Ca2+  Ca24  1  0.33439116  0.41427273  0.17235855  1
  Ca2+  Ca25  1  0.33572336  0.41602468  0.50297379  1
  Ca2+  Ca26  1  0.33244802  0.41821247  0.84066667  1
  Ca2+  Ca27  1  0.33355867  0.91276124  0.17103327  1
  Ca2+  Ca28  1  0.32693276  0.91926779  0.50893355  1
  Ca2+  Ca29  1  0.32871045  0.91863551  0.83506628  1
  Ca2+  Ca30  1  0.83603524  0.42038665  0.17831041  1
  Ca2+  Ca31  1  0.83679896  0.42016064  0.49773246  1
  Ca2+  Ca32  1  0.83550374  0.41765802  0.83975176  1
  Ca2+  Ca33  1  0.82613605  0.91180815  0.17010657  1
  Ca2+  Ca34  1  0.82725718  0.91520984  0.50819871  1
  Ca2+  Ca35  1  0.82764411  0.91832283  0.83906050  1
  Ca2+  Ca36  1  0.42100052  0.17767678  0.16156613  1
  Ca2+  Ca37  1  0.42386653  0.16178479  0.49783199  1
  Ca2+  Ca38  1  0.42078994  0.16794664  0.82704776  1
  Ca2+  Ca39  1  0.42015312  0.67985252  0.16277765  1
  Ca2+  Ca40  1  0.42487796  0.67474873  0.49723300  1
  Ca2+  Ca41  1  0.42411044  0.67569250  0.83019802  1
  Ca2+  Ca42  1  0.91566718  0.17522069  0.15676016  1
  Ca2+  Ca43  1  0.92142669  0.16031228  0.49837633  1
  Ca2+  Ca44  1  0.91792433  0.16110765  0.82843712  1
  Ca2+  Ca45  1  0.91354810  0.67361451  0.16333177  1
  Ca2+  Ca46  1  0.91689442  0.67741266  0.49842365  1
  Ca2+  Ca47  1  0.92302965  0.67978655  0.82928751  1
  Al0+  Al48  1  0.00137845  0.00059988  -0.00104873  1
  Al0+  Al49  1  0.00252186  -0.00337657  0.32603356  1
  Al0+  Al50  1  0.00109838  0.00182597  0.66359323  1
  Al0+  Al51  1  0.00088045  0.49738318  -0.00402649  1
  Al0+  Al52  1  0.00295370  0.49689628  0.33676137  1
  Al0+  Al53  1  -0.00074039  0.50126135  0.66562761  1
  Al0+  Al54  1  0.49816401  0.00206482  -0.00012396  1
  Al0+  Al55  1  0.50041086  0.00063610  0.33179437  1
  Al0+  Al56  1  0.49871581  0.00288141  0.66898025  1
  Al0+  Al57  1  0.49722512  0.50242810  -0.00204153  1
  Al0+  Al58  1  0.50004787  0.49966341  0.33460503  1
  Al0+  Al59  1  0.49893238  0.50263124  0.66406973  1
  Al0+  Al60  1  0.24873364  0.25236344  -0.00484758  1
  Al0+  Al61  1  0.25305954  0.24984308  0.33117770  1
  Al0+  Al62  1  0.24614663  0.25375951  0.66787601  1
  Al0+  Al63  1  0.25370910  0.74981854  -0.00427307  1
  Al0+  Al64  1  0.25241464  0.74927143  0.33235835  1
  Al0+  Al65  1  0.25096307  0.74765552  0.66877490  1
  Al0+  Al66  1  0.74674867  0.25020346  0.00167185  1
  Al0+  Al67  1  0.75165254  0.24821057  0.33342524  1
  Al0+  Al68  1  0.74568165  0.25198005  0.66501047  1
  Al0+  Al69  1  0.74875097  0.74665843  0.00257395  1
  Al0+  Al70  1  0.75167919  0.74758181  0.33677342  1
  Al0+  Al71  1  0.74922781  0.74691911  0.66340375  1
  Al0+  Al72  1  0.43043684  0.82137119  0.32090462  1
  Al0+  Al73  1  0.57091746  0.67898515  0.65186835  1
  Al0+  Al74  1  0.67956504  0.92599644  0.68061346  1
  Al0+  Al75  1  0.92917177  0.82247495  0.65160867  1
  Al0+  Al76  1  0.32080481  0.07417199  0.68238210  1
  Al0+  Al77  1  0.17945907  0.92780850  0.68178792  1
  Al0+  Al78  1  0.43115908  0.32057728  0.32038115  1
  Al0+  Al79  1  0.67878125  0.92760497  0.01544317  1
  Al0+  Al80  1  0.67925032  0.93039903  0.34688936  1
  Al0+  Al81  1  0.56955443  0.17908011  0.65260722  1
  Al0+  Al82  1  0.07030540  0.17822871  0.98499186  1
  Al0+  Al83  1  0.82424134  0.56962023  0.35072337  1
  Al0+  Al84  1  0.67751044  0.42661951  0.34963905  1
  Al0+  Al85  1  0.92485001  0.32028565  0.98574746  1
  Al0+  Al86  1  0.06955337  0.18009893  0.65192341  1
  Al0+  Al87  1  0.07132515  0.67930402  0.98752831  1
  Al0+  Al88  1  0.07229844  0.67831083  0.65097899  1
  Al0+  Al89  1  0.82076145  0.07320250  0.67892386  1
  Al0+  Al90  1  0.92557576  0.82112085  0.98520756  1
  Al0+  Al91  1  0.42942701  0.32295430  0.98590342  1
  Al0+  Al92  1  0.82388553  0.07190068  0.01555219  1
  Al0+  Al93  1  0.43075781  0.82375784  0.98507487  1
  Al0+  Al94  1  0.93031061  0.31909689  0.32137909  1
  Al0+  Al95  1  0.92811990  0.81948824  0.31820576  1
  Si0+  Si96  1  0.32072683  0.57209705  0.34958359  1
  Si0+  Si97  1  0.18013167  0.42987429  0.01676702  1
  Si0+  Si98  1  0.31971968  0.07167643  0.34627276  1
  Si0+  Si99  1  0.42890401  0.82287767  0.65093289  1
  Si0+  Si100  1  0.32158617  0.57187058  0.01761308  1
  Si0+  Si101  1  0.82217490  0.56690843  0.01408501  1
  Si0+  Si102  1  0.92548591  0.32285339  0.64991841  1
  Si0+  Si103  1  0.42723033  0.32314706  0.65080535  1
  Si0+  Si104  1  0.18029231  0.92723214  0.34588015  1
  Si0+  Si105  1  0.31931767  0.07352027  0.01626310  1
  Si0+  Si106  1  0.57228736  0.67767320  0.31652381  1
  Si0+  Si107  1  0.67648760  0.43068379  0.68265887  1
  Si0+  Si108  1  0.82558203  0.07061710  0.34798040  1
  Si0+  Si109  1  0.32209826  0.56947582  0.68367251  1
  Si0+  Si110  1  0.07348934  0.67688006  0.31910051  1
  Si0+  Si111  1  0.57330136  0.17667138  0.31505554  1
  Si0+  Si112  1  0.67532985  0.42984948  0.01273203  1
  Si0+  Si113  1  0.57027799  0.17870649  0.98284604  1
  Si0+  Si114  1  0.17650703  0.43121449  0.68441192  1
  Si0+  Si115  1  0.18106409  0.92673412  0.01585010  1
  Si0+  Si116  1  0.18181148  0.42724294  0.34951339  1
  Si0+  Si117  1  0.57061740  0.67800723  0.98534324  1
  Si0+  Si118  1  0.07405642  0.17717362  0.31677325  1
  Si0+  Si119  1  0.82107952  0.56914020  0.68377233  1
  O2-  O120  1  0.24967109  0.00094584  0.05906178  1
  O2-  O121  1  0.24886662  0.00070103  0.38775364  1
  O2-  O122  1  0.25057210  0.00067287  0.73287248  1
  O2-  O123  1  0.24871970  0.50296547  0.06050270  1
  O2-  O124  1  0.25081198  0.50014572  0.39227810  1
  O2-  O125  1  0.24811867  0.50196797  0.72640063  1
  O2-  O126  1  0.75562403  -0.00468362  0.06505435  1
  O2-  O127  1  0.75666246  0.00253266  0.39221638  1
  O2-  O128  1  0.75350755  -0.00329314  0.72907176  1
  O2-  O129  1  0.75195480  0.49422219  0.05534497  1
  O2-  O130  1  0.75078442  0.49746965  0.39971084  1
  O2-  O131  1  0.74957329  0.49841263  0.72633750  1
  O2-  O132  1  0.00111517  0.24147328  0.27395023  1
  O2-  O133  1  -0.01001622  0.25006842  0.60591438  1
  O2-  O134  1  -0.01006843  0.24203402  0.93640506  1
  O2-  O135  1  0.00233599  0.74205083  0.27475003  1
  O2-  O136  1  0.00444558  0.75303214  0.60094566  1
  O2-  O137  1  0.00231834  0.75289772  0.93711405  1
  O2-  O138  1  0.50956869  0.25124276  0.27178360  1
  O2-  O139  1  0.49121782  0.25099598  0.60638466  1
  O2-  O140  1  0.50346270  0.24975244  0.93898604  1
  O2-  O141  1  0.50808912  0.75050938  0.27236924  1
  O2-  O142  1  0.50223866  0.75959689  0.60609432  1
  O2-  O143  1  0.51070971  0.75406001  0.94084227  1
  O2-  O144  1  0.07605902  0.18551130  0.09889158  1
  O2-  O145  1  0.07699895  0.17867973  0.42218905  1
  O2-  O146  1  0.07269740  0.18463455  0.76415521  1
  O2-  O147  1  0.07033485  0.67931263  0.10169220  1
  O2-  O148  1  0.07649658  0.67900489  0.42414062  1
  O2-  O149  1  0.06766673  0.67590942  0.76406140  1
  O2-  O150  1  0.56774632  0.17923508  0.08871345  1
  O2-  O151  1  0.56845300  0.17478016  0.42051855  1
  O2-  O152  1  0.56975189  0.18459062  0.76549569  1
  O2-  O153  1  0.56599102  0.67185796  0.09053028  1
  O2-  O154  1  0.56784607  0.67634477  0.42204202  1
  O2-  O155  1  0.56589039  0.67309787  0.76480817  1
  O2-  O156  1  0.18285510  0.42697893  0.24442592  1
  O2-  O157  1  0.17792951  0.43068727  0.57887386  1
  O2-  O158  1  0.18221443  0.43076859  0.91179631  1
  O2-  O159  1  0.18193242  0.92646232  0.24065420  1
  O2-  O160  1  0.18258711  0.92968144  0.56714102  1
  O2-  O161  1  0.18430955  0.92473417  0.91139211  1
  O2-  O162  1  0.67534112  0.43149180  0.23546449  1
  O2-  O163  1  0.67461680  0.43169357  0.57803580  1
  O2-  O164  1  0.67240804  0.43390971  0.90755887  1
  O2-  O165  1  0.67703838  0.93329804  0.23399512  1
  O2-  O166  1  0.67964439  0.92775562  0.56665975  1
  O2-  O167  1  0.67669646  0.92932866  0.90241526  1
  O2-  O168  1  0.43060334  0.32271195  0.09922055  1
  O2-  O169  1  0.42671591  0.31727257  0.43300851  1
  O2-  O170  1  0.43060771  0.32640172  0.75644595  1
  O2-  O171  1  0.42858085  0.82027957  0.09851038  1
  O2-  O172  1  0.42676979  0.81865887  0.43350287  1
  O2-  O173  1  0.42811791  0.81897524  0.75656162  1
  O2-  O174  1  0.92982587  0.32426044  0.09941596  1
  O2-  O175  1  0.93498000  0.31971873  0.43428238  1
  O2-  O176  1  0.92788906  0.32526267  0.75537907  1
  O2-  O177  1  0.92533411  0.81594113  0.09925899  1
  O2-  O178  1  0.93077144  0.82338405  0.43056340  1
  O2-  O179  1  0.92778525  0.81918034  0.76493132  1
  O2-  O180  1  0.31811295  0.07404863  0.24096710  1
  O2-  O181  1  0.32003757  0.07328177  0.56784644  1
  O2-  O182  1  0.31938382  0.07460195  0.91179193  1
  O2-  O183  1  0.31880628  0.57315193  0.24445120  1
  O2-  O184  1  0.32392637  0.56645950  0.57833798  1
  O2-  O185  1  0.32434724  0.56933872  0.91273911  1
  O2-  O186  1  0.82504019  0.07061300  0.24255199  1
  O2-  O187  1  0.81769074  0.07385565  0.56485629  1
  O2-  O188  1  0.81897979  0.07400402  0.90250009  1
  O2-  O189  1  0.82343091  0.56758683  0.23629205  1
  O2-  O190  1  0.82216979  0.56651494  0.57903503  1
  O2-  O191  1  0.82085306  0.56672224  0.90888313  1
  O2-  O192  1  0.05491587  0.08246778  0.27066466  1
  O2-  O193  1  0.04615662  0.08355769  0.59504222  1
  O2-  O194  1  0.05516577  0.07686170  0.93496309  1
  O2-  O195  1  0.05289906  0.58095271  0.27579438  1
  O2-  O196  1  0.04072451  0.58050610  0.59737588  1
  O2-  O197  1  0.04394684  0.58094401  0.93495442  1
  O2-  O198  1  0.53931229  0.08733453  0.26601030  1
  O2-  O199  1  0.53923877  0.08281417  0.59720466  1
  O2-  O200  1  0.54003894  0.08764412  0.93613947  1
  O2-  O201  1  0.54129967  0.58590962  0.26984687  1
  O2-  O202  1  0.53259387  0.58558877  0.59535999  1
  O2-  O203  1  0.53555343  0.58933567  0.93460153  1
  O2-  O204  1  0.16576375  0.20836805  0.26992569  1
  O2-  O205  1  0.16443056  0.21797357  0.59675201  1
  O2-  O206  1  0.16453944  0.21680677  0.93008231  1
  O2-  O207  1  0.16645120  0.70393587  0.27186732  1
  O2-  O208  1  0.17478868  0.69733921  0.60232085  1
  O2-  O209  1  0.17183188  0.70139381  0.93684793  1
  O2-  O210  1  0.66889719  0.19586869  0.27179283  1
  O2-  O211  1  0.66313934  0.21465560  0.59561693  1
  O2-  O212  1  0.66352191  0.20358520  0.93742742  1
  O2-  O213  1  0.66797179  0.69666697  0.27369499  1
  O2-  O214  1  0.66848160  0.70048348  0.59710300  1
  O2-  O215  1  0.66673657  0.69309269  0.94187305  1
  O2-  O216  1  0.08749744  0.45626914  0.06393031  1
  O2-  O217  1  0.09096002  0.45235970  0.39927149  1
  O2-  O218  1  0.08517491  0.46023341  0.73168782  1
  O2-  O219  1  0.08840956  0.95162998  0.06316690  1
  O2-  O220  1  0.08739349  0.95319776  0.39151749  1
  O2-  O221  1  0.08080386  0.95660351  0.73208989  1
  O2-  O222  1  0.58567666  0.46462414  0.06144957  1
  O2-  O223  1  0.57892795  0.45622126  0.40283073  1
  O2-  O224  1  0.58541492  0.46245068  0.73006059  1
  O2-  O225  1  0.58013575  0.96210936  0.06715429  1
  O2-  O226  1  0.58192034  0.96196316  0.40009499  1
  O2-  O227  1  0.58063764  0.95595243  0.73094316  1
  O2-  O228  1  0.21194568  0.33952962  0.06464589  1
  O2-  O229  1  0.21352730  0.33645407  0.39731756  1
  O2-  O230  1  0.20442381  0.34063483  0.73327963  1
  O2-  O231  1  0.21437792  0.83637287  0.06366436  1
  O2-  O232  1  0.21104742  0.83694334  0.39407914  1
  O2-  O233  1  0.20795774  0.82886956  0.73425238  1
  O2-  O234  1  0.69262815  0.33592910  0.05928970  1
  O2-  O235  1  0.70365584  0.32650025  0.40023521  1
  O2-  O236  1  0.70128238  0.33867354  0.73044169  1
  O2-  O237  1  0.70018414  0.82611151  0.06737206  1
  O2-  O238  1  0.70510658  0.83139680  0.39748582  1
  O2-  O239  1  0.70289024  0.82514737  0.73128230  1
  O2-  O240  1  0.45613275  0.41935949  0.26698574  1
  O2-  O241  1  0.45702638  0.41480161  0.60330910  1
  O2-  O242  1  0.45828428  0.41979321  0.93177833  1
  O2-  O243  1  0.45662397  0.91880960  0.26600477  1
  O2-  O244  1  0.44655571  0.91880411  0.60790364  1
  O2-  O245  1  0.45375614  0.92222121  0.93255991  1
  O2-  O246  1  0.96607171  0.41470306  0.26749930  1
  O2-  O247  1  0.95844078  0.41397845  0.60340148  1
  O2-  O248  1  0.96114106  0.41473300  0.93001378  1
  O2-  O249  1  0.96215267  0.91371222  0.26064562  1
  O2-  O250  1  0.95607468  0.92044763  0.59718751  1
  O2-  O251  1  0.95110225  0.92091534  0.93652344  1
  O2-  O252  1  0.33601304  0.28702943  0.26387041  1
  O2-  O253  1  0.33106372  0.30452228  0.60825021  1
  O2-  O254  1  0.33344895  0.29355208  0.93199209  1
  O2-  O255  1  0.33559256  0.78589262  0.26474928  1
  O2-  O256  1  0.33756097  0.79005389  0.60467500  1
  O2-  O257  1  0.33808541  0.78618338  0.92922814  1
  O2-  O258  1  0.83173846  0.29534753  0.26796616  1
  O2-  O259  1  0.82981614  0.30495531  0.60620369  1
  O2-  O260  1  0.82253296  0.30371225  0.93695907  1
  O2-  O261  1  0.83150551  0.78733705  0.26539064  1
  O2-  O262  1  0.83271315  0.78793602  0.59874424  1
  O2-  O263  1  0.82835665  0.78729494  0.93374482  1
  O2-  O264  1  0.41114078  0.04746500  0.06447770  1
  O2-  O265  1  0.41152444  0.04383112  0.39274946  1
  O2-  O266  1  0.41906846  0.04867978  0.73590821  1
  O2-  O267  1  0.41191005  0.54091838  0.06673139  1
  O2-  O268  1  0.41215882  0.54412892  0.39702883  1
  O2-  O269  1  0.41205265  0.53739035  0.73270684  1
  O2-  O270  1  0.92574089  0.05280432  0.06632339  1
  O2-  O271  1  0.92101458  0.04446150  0.39075764  1
  O2-  O272  1  0.92221601  0.05269445  0.72701780  1
  O2-  O273  1  0.91405381  0.53899523  0.06127963  1
  O2-  O274  1  0.92231889  0.53889539  0.40381456  1
  O2-  O275  1  0.91225727  0.53978402  0.73177290  1
  O2-  O276  1  0.28883087  0.16555181  0.06335823  1
  O2-  O277  1  0.29240622  0.16289769  0.39530328  1
  O2-  O278  1  0.29151750  0.17365487  0.73319094  1
  O2-  O279  1  0.29583082  0.66444783  0.06502205  1
  O2-  O280  1  0.29257828  0.66298245  0.39887626  1
  O2-  O281  1  0.29918576  0.66188449  0.73158294  1
  O2-  O282  1  0.78949148  0.16998501  0.06955739  1
  O2-  O283  1  0.80340475  0.16491302  0.39364195  1
  O2-  O284  1  0.78831480  0.17147749  0.73117786  1
  O2-  O285  1  0.79300597  0.65725348  0.06351550  1
  O2-  O286  1  0.79535790  0.66708601  0.40419403  1
  O2-  O287  1  0.79132682  0.65994080  0.73084397  1
