# generated using pymatgen
data_Ca2Al2SiO7
_symmetry_space_group_name_H-M   'P 1'
_cell_length_a   15.46758328
_cell_length_b   15.46650600
_cell_length_c   15.29075791
_cell_angle_alpha   90.00988095
_cell_angle_beta   90.01339454
_cell_angle_gamma   90.00465544
_symmetry_Int_Tables_number   1
_chemical_formula_structural   Ca2Al2SiO7
_chemical_formula_sum   'Ca48 Al48 Si24 O168'
_cell_volume   3657.99973743
_cell_formula_units_Z   24
loop_
 _symmetry_equiv_pos_site_id
 _symmetry_equiv_pos_as_xyz
  1  'x, y, z'
loop_
 _atom_type_symbol
 _atom_type_oxidation_number
  Ca2+  2.0
  Al0+  0.0
  Si0+  0.0
  O2-  -2.0
loop_
 _atom_site_type_symbol
 _atom_site_label
 _atom_site_symmetry_multiplicity
 _atom_site_fract_x
 _atom_site_fract_y
 _atom_site_fract_z
 _atom_site_occupancy
  Ca2+  Ca0  1  0.16987303  0.08179855  0.16598493  1
  Ca2+  Ca1  1  0.15981321  0.07336666  0.50668133  1
  Ca2+  Ca2  1  0.16624069  0.08464887  0.84286340  1
  Ca2+  Ca3  1  0.17288792  0.57851014  0.16584883  1
  Ca2+  Ca4  1  0.16995383  0.57894227  0.49832785  1
  Ca2+  Ca5  1  0.17027278  0.57553882  0.84565841  1
  Ca2+  Ca6  1  0.65974064  0.07768127  0.16394759  1
  Ca2+  Ca7  1  0.66707945  0.07892272  0.51078493  1
  Ca2+  Ca8  1  0.65545152  0.07659716  0.83963014  1
  Ca2+  Ca9  1  0.66397791  0.57350988  0.16240636  1
  Ca2+  Ca10  1  0.67432450  0.57290232  0.50565626  1
  Ca2+  Ca11  1  0.67753309  0.58108156  0.84554843  1
  Ca2+  Ca12  1  0.08373506  0.33682448  0.15923030  1
  Ca2+  Ca13  1  0.07213937  0.33687404  0.49518685  1
  Ca2+  Ca14  1  0.08578934  0.32365474  0.82892914  1
  Ca2+  Ca15  1  0.08071448  0.82732689  0.15543905  1
  Ca2+  Ca16  1  0.08701986  0.83600799  0.49480471  1
  Ca2+  Ca17  1  0.08094027  0.82862376  0.83366705  1
  Ca2+  Ca18  1  0.57912272  0.33418590  0.15440575  1
  Ca2+  Ca19  1  0.58979538  0.32725341  0.49488346  1
  Ca2+  Ca20  1  0.58181413  0.32897451  0.83445813  1
  Ca2+  Ca21  1  0.57657638  0.82398431  0.15009296  1
  Ca2+  Ca22  1  0.58427421  0.83170729  0.49855967  1
  Ca2+  Ca23  1  0.58221897  0.83444101  0.83647663  1
  Ca2+  Ca24  1  0.32560736  0.42225083  0.16576870  1
  Ca2+  Ca25  1  0.33008884  0.42073571  0.49757858  1
  Ca2+  Ca26  1  0.32882854  0.41837933  0.84814023  1
  Ca2+  Ca27  1  0.33551691  0.92336785  0.16601316  1
  Ca2+  Ca28  1  0.31997097  0.91731630  0.50525289  1
  Ca2+  Ca29  1  0.33055884  0.92373600  0.84109815  1
  Ca2+  Ca30  1  0.82543149  0.41673772  0.16846239  1
  Ca2+  Ca31  1  0.83597027  0.41514630  0.50465094  1
  Ca2+  Ca32  1  0.83301193  0.42350947  0.84049606  1
  Ca2+  Ca33  1  0.83070131  0.91263782  0.16158286  1
  Ca2+  Ca34  1  0.82666343  0.92111396  0.51010527  1
  Ca2+  Ca35  1  0.82252037  0.91621085  0.84323835  1
  Ca2+  Ca36  1  0.41979897  0.17389132  0.15159585  1
  Ca2+  Ca37  1  0.42395156  0.16510194  0.50161568  1
  Ca2+  Ca38  1  0.42259776  0.16770952  0.83870366  1
  Ca2+  Ca39  1  0.41498392  0.66858998  0.15351765  1
  Ca2+  Ca40  1  0.41552062  0.66641383  0.49293099  1
  Ca2+  Ca41  1  0.42055654  0.66580761  0.83755707  1
  Ca2+  Ca42  1  0.92480216  0.17423167  0.16136567  1
  Ca2+  Ca43  1  0.92013393  0.17742390  0.49857958  1
  Ca2+  Ca44  1  0.92791334  0.17348015  0.82884481  1
  Ca2+  Ca45  1  0.92272645  0.67084752  0.15281983  1
  Ca2+  Ca46  1  0.91564161  0.66550662  0.49951925  1
  Ca2+  Ca47  1  0.91496427  0.66394467  0.83547496  1
  Al0+  Al48  1  -0.00267346  0.00070617  -0.00633080  1
  Al0+  Al49  1  -0.00147777  0.00123580  0.33691009  1
  Al0+  Al50  1  -0.00235192  -0.00204828  0.66788679  1
  Al0+  Al51  1  -0.00091125  0.50124196  0.00349442  1
  Al0+  Al52  1  -0.00005915  0.50190784  0.33068508  1
  Al0+  Al53  1  0.00240898  0.50223048  0.66593772  1
  Al0+  Al54  1  0.49828096  -0.00066768  0.00308292  1
  Al0+  Al55  1  0.49992028  -0.00204354  0.33506838  1
  Al0+  Al56  1  0.49702907  -0.00085518  0.66378075  1
  Al0+  Al57  1  0.49991968  0.50113888  -0.00281807  1
  Al0+  Al58  1  0.50304115  0.49830477  0.34249351  1
  Al0+  Al59  1  0.50093461  0.50154245  0.66420214  1
  Al0+  Al60  1  0.25099118  0.24844181  0.00096784  1
  Al0+  Al61  1  0.25215017  0.24942743  0.33928807  1
  Al0+  Al62  1  0.25216653  0.24853345  0.65932053  1
  Al0+  Al63  1  0.24777531  0.75061163  -0.00703740  1
  Al0+  Al64  1  0.25063668  0.75224696  0.33926717  1
  Al0+  Al65  1  0.24958940  0.75117087  0.66979049  1
  Al0+  Al66  1  0.75153153  0.24725011  -0.00019034  1
  Al0+  Al67  1  0.75225358  0.24839477  0.33211656  1
  Al0+  Al68  1  0.74965349  0.24964647  0.65990036  1
  Al0+  Al69  1  0.74906919  0.75110202  0.00247297  1
  Al0+  Al70  1  0.74939187  0.74959009  0.33278193  1
  Al0+  Al71  1  0.74936538  0.74883591  0.67160498  1
  Al0+  Al72  1  0.42896481  0.32237420  0.98735616  1
  Al0+  Al73  1  0.93184470  0.32307858  0.65286039  1
  Al0+  Al74  1  0.07166718  0.18070837  0.98938948  1
  Al0+  Al75  1  0.17681960  0.42781421  0.34961364  1
  Al0+  Al76  1  0.07069197  0.67705761  0.98422335  1
  Al0+  Al77  1  0.82202166  0.56878455  0.68040462  1
  Al0+  Al78  1  0.17846151  0.42650420  0.01219263  1
  Al0+  Al79  1  0.31991578  0.06957333  0.01309613  1
  Al0+  Al80  1  0.67951942  0.42611984  0.01229700  1
  Al0+  Al81  1  0.56843134  0.17942243  0.65270639  1
  Al0+  Al82  1  0.82127553  0.57202542  0.01689166  1
  Al0+  Al83  1  0.92789935  0.82138347  0.98412191  1
  Al0+  Al84  1  0.07275563  0.17601614  0.65014585  1
  Al0+  Al85  1  0.67762489  0.93025639  0.68095458  1
  Al0+  Al86  1  0.68164593  0.42736420  0.34793017  1
  Al0+  Al87  1  0.17674505  0.92944387  0.68337373  1
  Al0+  Al88  1  0.57077219  0.67783979  0.98481539  1
  Al0+  Al89  1  0.57292203  0.17840221  0.98743744  1
  Al0+  Al90  1  0.67844802  0.93075423  0.01502182  1
  Al0+  Al91  1  0.93022773  0.32187632  0.31686198  1
  Al0+  Al92  1  0.42671013  0.82246985  0.98450638  1
  Al0+  Al93  1  0.32106596  0.57347389  0.01148047  1
  Al0+  Al94  1  0.17938664  0.93237094  0.34458998  1
  Al0+  Al95  1  0.32135848  0.57122034  0.34783549  1
  Si0+  Si96  1  0.67873399  0.92810459  0.34885767  1
  Si0+  Si97  1  0.42835744  0.32606770  0.64654702  1
  Si0+  Si98  1  0.32545141  0.07218392  0.35250025  1
  Si0+  Si99  1  0.57095735  0.17702501  0.31850462  1
  Si0+  Si100  1  0.42897581  0.81929530  0.31923152  1
  Si0+  Si101  1  0.43052722  0.32119393  0.31938723  1
  Si0+  Si102  1  0.18176163  0.42940450  0.67907667  1
  Si0+  Si103  1  0.17495996  0.92909504  0.01434561  1
  Si0+  Si104  1  0.32255780  0.57151666  0.68158959  1
  Si0+  Si105  1  0.82166039  0.57371932  0.34980904  1
  Si0+  Si106  1  0.92750358  0.32270090  0.98500759  1
  Si0+  Si107  1  0.92737770  0.82297783  0.32027794  1
  Si0+  Si108  1  0.07261632  0.68124846  0.64905299  1
  Si0+  Si109  1  0.92675249  0.81867220  0.65108667  1
  Si0+  Si110  1  0.82022128  0.06985791  0.34958252  1
  Si0+  Si111  1  0.67729588  0.42607573  0.68301454  1
  Si0+  Si112  1  0.32101506  0.07206306  0.68325645  1
  Si0+  Si113  1  0.82460406  0.07164399  0.01812263  1
  Si0+  Si114  1  0.07266254  0.17672490  0.31750809  1
  Si0+  Si115  1  0.57238372  0.67926753  0.64930386  1
  Si0+  Si116  1  0.07194443  0.68234273  0.31953670  1
  Si0+  Si117  1  0.42846915  0.81897312  0.64918306  1
  Si0+  Si118  1  0.82039089  0.07349538  0.68418579  1
  Si0+  Si119  1  0.57135097  0.67797793  0.31970922  1
  O2-  O120  1  0.24541530  -0.00532324  0.06003987  1
  O2-  O121  1  0.25174951  0.00785981  0.39481568  1
  O2-  O122  1  0.24532772  0.01085256  0.72650169  1
  O2-  O123  1  0.24918403  0.50112663  0.06042734  1
  O2-  O124  1  0.24969725  0.49966189  0.39964438  1
  O2-  O125  1  0.25753677  0.49481404  0.72139264  1
  O2-  O126  1  0.75306977  0.00539669  0.06266429  1
  O2-  O127  1  0.74839688  -0.00079935  0.39225005  1
  O2-  O128  1  0.74926838  0.00731778  0.72762295  1
  O2-  O129  1  0.75064531  0.49776725  0.06503557  1
  O2-  O130  1  0.75726066  0.50145551  0.39466442  1
  O2-  O131  1  0.74885861  0.49201862  0.72508943  1
  O2-  O132  1  0.01116373  0.25173779  0.27330259  1
  O2-  O133  1  0.00304478  0.25063437  0.60060858  1
  O2-  O134  1  0.00025316  0.25791975  0.94218751  1
  O2-  O135  1  -0.00102725  0.75255838  0.27943725  1
  O2-  O136  1  0.00090977  0.75202123  0.60632147  1
  O2-  O137  1  -0.00249202  0.74775725  0.93335445  1
  O2-  O138  1  0.49921121  0.24732835  0.27782952  1
  O2-  O139  1  0.49867656  0.25777658  0.60309943  1
  O2-  O140  1  0.50465990  0.25378642  0.93796124  1
  O2-  O141  1  0.49840106  0.74701082  0.27801311  1
  O2-  O142  1  0.49965776  0.74831889  0.60547876  1
  O2-  O143  1  0.49789115  0.74942400  0.93457012  1
  O2-  O144  1  0.06935925  0.17850858  0.10283230  1
  O2-  O145  1  0.06673801  0.17239456  0.42276821  1
  O2-  O146  1  0.07266174  0.17860635  0.76349871  1
  O2-  O147  1  0.07200964  0.68115798  0.09859371  1
  O2-  O148  1  0.07148432  0.68376903  0.42533560  1
  O2-  O149  1  0.07397258  0.68036523  0.75309249  1
  O2-  O150  1  0.56911092  0.17795181  0.10174609  1
  O2-  O151  1  0.56973430  0.17538812  0.42402609  1
  O2-  O152  1  0.56516892  0.17767267  0.76459158  1
  O2-  O153  1  0.56945593  0.67950462  0.09928481  1
  O2-  O154  1  0.57336319  0.68249018  0.42540891  1
  O2-  O155  1  0.57189360  0.67815022  0.75328902  1
  O2-  O156  1  0.17837374  0.42897064  0.23694077  1
  O2-  O157  1  0.18108570  0.43395251  0.57388543  1
  O2-  O158  1  0.18054622  0.42549264  0.89783038  1
  O2-  O159  1  0.18005457  0.93186863  0.23216879  1
  O2-  O160  1  0.18082295  0.92725585  0.56946475  1
  O2-  O161  1  0.17498396  0.93278042  0.90881983  1
  O2-  O162  1  0.67871160  0.42822700  0.23578055  1
  O2-  O163  1  0.67642118  0.42875483  0.57678091  1
  O2-  O164  1  0.68289941  0.42524580  0.89856605  1
  O2-  O165  1  0.67756183  0.92790524  0.24462140  1
  O2-  O166  1  0.68067858  0.92998962  0.56648810  1
  O2-  O167  1  0.67828243  0.93336530  0.90199383  1
  O2-  O168  1  0.42802565  0.32010449  0.10158087  1
  O2-  O169  1  0.43279866  0.32011954  0.42494074  1
  O2-  O170  1  0.42709273  0.32900964  0.75122031  1
  O2-  O171  1  0.42900995  0.82281600  0.09908268  1
  O2-  O172  1  0.43110757  0.82031528  0.42488269  1
  O2-  O173  1  0.42826150  0.81875249  0.75328609  1
  O2-  O174  1  0.92637277  0.31906192  0.09085810  1
  O2-  O175  1  0.92889925  0.31869284  0.43002947  1
  O2-  O176  1  0.93420198  0.32307326  0.76601746  1
  O2-  O177  1  0.93216953  0.82253281  0.09890827  1
  O2-  O178  1  0.92512433  0.82217125  0.42576669  1
  O2-  O179  1  0.92509506  0.81658304  0.75502665  1
  O2-  O180  1  0.33024023  0.07034750  0.24756907  1
  O2-  O181  1  0.32458060  0.06711272  0.57712614  1
  O2-  O182  1  0.31878643  0.06955026  0.90005033  1
  O2-  O183  1  0.32089930  0.57366781  0.23540699  1
  O2-  O184  1  0.32109511  0.57313725  0.57610380  1
  O2-  O185  1  0.31912964  0.57095148  0.89726743  1
  O2-  O186  1  0.82153971  0.06838308  0.24501978  1
  O2-  O187  1  0.81925016  0.06984944  0.57759813  1
  O2-  O188  1  0.82706905  0.07050715  0.91290886  1
  O2-  O189  1  0.81875237  0.57819540  0.24543597  1
  O2-  O190  1  0.81916085  0.57078567  0.56655101  1
  O2-  O191  1  0.82070404  0.56920382  0.90299082  1
  O2-  O192  1  0.03912389  0.08557243  0.27033991  1
  O2-  O193  1  0.03970819  0.07730283  0.59857322  1
  O2-  O194  1  0.03823892  0.08665387  0.93279968  1
  O2-  O195  1  0.04644802  0.59065324  0.27237042  1
  O2-  O196  1  0.04401413  0.59026585  0.60009429  1
  O2-  O197  1  0.04298836  0.57811724  0.93169279  1
  O2-  O198  1  0.54369445  0.08355511  0.27342754  1
  O2-  O199  1  0.53405249  0.08367188  0.59572880  1
  O2-  O200  1  0.53710099  0.08240849  0.93559982  1
  O2-  O201  1  0.54667119  0.58382642  0.27736121  1
  O2-  O202  1  0.54583482  0.58708102  0.60022842  1
  O2-  O203  1  0.54495735  0.58092290  0.92850971  1
  O2-  O204  1  0.17116791  0.19354174  0.27880299  1
  O2-  O205  1  0.17308103  0.19764551  0.59728552  1
  O2-  O206  1  0.16762175  0.20794124  0.93372737  1
  O2-  O207  1  0.16337466  0.71347104  0.27422339  1
  O2-  O208  1  0.16412403  0.71129492  0.60106745  1
  O2-  O209  1  0.16667565  0.70583994  0.92723836  1
  O2-  O210  1  0.66369791  0.20193453  0.27346453  1
  O2-  O211  1  0.66601318  0.20454832  0.59612790  1
  O2-  O212  1  0.67303031  0.19842108  0.93474450  1
  O2-  O213  1  0.66196604  0.70855225  0.27200943  1
  O2-  O214  1  0.66315465  0.71063158  0.60111402  1
  O2-  O215  1  0.66824267  0.70960760  0.93346218  1
  O2-  O216  1  0.08046424  0.45324583  0.06554217  1
  O2-  O217  1  0.07885249  0.46105502  0.40187902  1
  O2-  O218  1  0.09228984  0.46196063  0.72648606  1
  O2-  O219  1  0.08201362  0.95722597  0.06021819  1
  O2-  O220  1  0.08196316  0.95969001  0.40104331  1
  O2-  O221  1  0.07658606  0.95031198  0.73320305  1
  O2-  O222  1  0.58106200  0.45607438  0.06420140  1
  O2-  O223  1  0.58773353  0.45853169  0.40745235  1
  O2-  O224  1  0.58360189  0.45471887  0.72650435  1
  O2-  O225  1  0.58325283  0.96173985  0.07160850  1
  O2-  O226  1  0.58661152  0.95472157  0.39747039  1
  O2-  O227  1  0.57892250  0.95853960  0.73033777  1
  O2-  O228  1  0.20889144  0.33047043  0.06790638  1
  O2-  O229  1  0.20431494  0.32901910  0.40360675  1
  O2-  O230  1  0.20485918  0.33409891  0.72088096  1
  O2-  O231  1  0.19762749  0.83389935  0.05681372  1
  O2-  O232  1  0.21195583  0.83806660  0.40307690  1
  O2-  O233  1  0.21309683  0.83442071  0.73609549  1
  O2-  O234  1  0.70638280  0.32718696  0.06608724  1
  O2-  O235  1  0.71210017  0.32966246  0.40099485  1
  O2-  O236  1  0.69835321  0.33010634  0.72430162  1
  O2-  O237  1  0.70953355  0.83551125  0.07108776  1
  O2-  O238  1  0.70742626  0.83633105  0.39686219  1
  O2-  O239  1  0.70924630  0.83431382  0.73337355  1
  O2-  O240  1  0.46151287  0.41321742  0.27551595  1
  O2-  O241  1  0.45320899  0.42005767  0.59908220  1
  O2-  O242  1  0.45289390  0.42001599  0.93230706  1
  O2-  O243  1  0.45835439  0.91142193  0.27316595  1
  O2-  O244  1  0.45589362  0.91000941  0.59950544  1
  O2-  O245  1  0.45911155  0.91923743  0.93178075  1
  O2-  O246  1  0.95420522  0.42109070  0.26539876  1
  O2-  O247  1  0.96276403  0.42085122  0.59751414  1
  O2-  O248  1  0.94795734  0.41787844  0.94217166  1
  O2-  O249  1  0.95356334  0.91544317  0.27432302  1
  O2-  O250  1  0.95029067  0.91197404  0.60379884  1
  O2-  O251  1  0.95523250  0.91855770  0.92883430  1
  O2-  O252  1  0.33659915  0.29629242  0.27516816  1
  O2-  O253  1  0.33638703  0.29815908  0.59752407  1
  O2-  O254  1  0.33366016  0.28768241  0.93249739  1
  O2-  O255  1  0.33617294  0.79453931  0.27363020  1
  O2-  O256  1  0.33674341  0.78851944  0.60149828  1
  O2-  O257  1  0.32855538  0.79921791  0.92986941  1
  O2-  O258  1  0.83534913  0.28415701  0.26358234  1
  O2-  O259  1  0.83270682  0.29610920  0.59876094  1
  O2-  O260  1  0.83667433  0.29244002  0.93669968  1
  O2-  O261  1  0.83548264  0.79522114  0.27263715  1
  O2-  O262  1  0.83598866  0.78751439  0.60174978  1
  O2-  O263  1  0.82831001  0.79610563  0.93405662  1
  O2-  O264  1  0.41399996  0.03757178  0.07123080  1
  O2-  O265  1  0.41661884  0.03940846  0.40151927  1
  O2-  O266  1  0.41108326  0.03733702  0.72953855  1
  O2-  O267  1  0.41977094  0.54787427  0.06370073  1
  O2-  O268  1  0.41876826  0.54238172  0.40445640  1
  O2-  O269  1  0.41740058  0.55001292  0.72521370  1
  O2-  O270  1  0.91594906  0.04096111  0.06683781  1
  O2-  O271  1  0.91024409  0.04100427  0.40021803  1
  O2-  O272  1  0.91300631  0.04545655  0.72936260  1
  O2-  O273  1  0.91974560  0.54683218  0.07061036  1
  O2-  O274  1  0.91700370  0.55274837  0.39396537  1
  O2-  O275  1  0.92056109  0.54285573  0.73243920  1
  O2-  O276  1  0.28884686  0.16413738  0.07004813  1
  O2-  O277  1  0.30672876  0.16680633  0.39879903  1
  O2-  O278  1  0.30544625  0.16968713  0.72391203  1
  O2-  O279  1  0.29205249  0.67277642  0.06293614  1
  O2-  O280  1  0.29219755  0.66899805  0.40378663  1
  O2-  O281  1  0.29059682  0.66151695  0.72810413  1
  O2-  O282  1  0.80169389  0.16529034  0.06489325  1
  O2-  O283  1  0.79150686  0.16062122  0.39795913  1
  O2-  O284  1  0.79792047  0.16880178  0.72641515  1
  O2-  O285  1  0.79307437  0.67017733  0.06961745  1
  O2-  O286  1  0.79195132  0.66627062  0.39867069  1
  O2-  O287  1  0.78849718  0.66392501  0.73407216  1
