# generated using pymatgen
data_Ca2Al2SiO7
_symmetry_space_group_name_H-M   'P 1'
_cell_length_a   15.46005928
_cell_length_b   15.45923037
_cell_length_c   15.28448415
_cell_angle_alpha   89.98800616
_cell_angle_beta   89.98649049
_cell_angle_gamma   90.00227365
_symmetry_Int_Tables_number   1
_chemical_formula_structural   Ca2Al2SiO7
_chemical_formula_sum   'Ca48 Al48 Si24 O168'
_cell_volume   3653.00097272
_cell_formula_units_Z   24
loop_
 _symmetry_equiv_pos_site_id
 _symmetry_equiv_pos_as_xyz
  1  'x, y, z'
loop_
 _atom_type_symbol
 _atom_type_oxidation_number
  Ca2+  2.0
  Al0+  0.0
  Si0+  0.0
  O2-  -2.0
loop_
 _atom_site_type_symbol
 _atom_site_label
 _atom_site_symmetry_multiplicity
 _atom_site_fract_x
 _atom_site_fract_y
 _atom_site_fract_z
 _atom_site_occupancy
  Ca2+  Ca0  1  0.17785067  0.07862818  0.16976719  1
  Ca2+  Ca1  1  0.17576931  0.08530269  0.50995095  1
  Ca2+  Ca2  1  0.17146501  0.07708671  0.83641256  1
  Ca2+  Ca3  1  0.18045680  0.58711027  0.17016614  1
  Ca2+  Ca4  1  0.17320412  0.58370005  0.49982551  1
  Ca2+  Ca5  1  0.17191779  0.58254554  0.83928775  1
  Ca2+  Ca6  1  0.66871935  0.08075192  0.17583585  1
  Ca2+  Ca7  1  0.66843013  0.09093143  0.50209545  1
  Ca2+  Ca8  1  0.66579789  0.08508522  0.83379371  1
  Ca2+  Ca9  1  0.67066544  0.58122454  0.16846219  1
  Ca2+  Ca10  1  0.67565045  0.57598560  0.51027200  1
  Ca2+  Ca11  1  0.67069860  0.57811253  0.83735306  1
  Ca2+  Ca12  1  0.07668902  0.33599656  0.16649819  1
  Ca2+  Ca13  1  0.07365343  0.33089988  0.49771311  1
  Ca2+  Ca14  1  0.07672320  0.32736247  0.82208842  1
  Ca2+  Ca15  1  0.07923506  0.83729365  0.16483541  1
  Ca2+  Ca16  1  0.07429832  0.83903496  0.49989978  1
  Ca2+  Ca17  1  0.08211591  0.83740073  0.82735660  1
  Ca2+  Ca18  1  0.58314874  0.32981926  0.16789333  1
  Ca2+  Ca19  1  0.58256585  0.32472191  0.49617307  1
  Ca2+  Ca20  1  0.58646839  0.33267951  0.82694969  1
  Ca2+  Ca21  1  0.57498217  0.82455768  0.15604166  1
  Ca2+  Ca22  1  0.58608296  0.82462871  0.49925263  1
  Ca2+  Ca23  1  0.57839698  0.82052898  0.83130877  1
  Ca2+  Ca24  1  0.33954575  0.42608750  0.17280473  1
  Ca2+  Ca25  1  0.34065457  0.41822555  0.49827639  1
  Ca2+  Ca26  1  0.33238016  0.42154045  0.83863236  1
  Ca2+  Ca27  1  0.33475189  0.92226792  0.16994274  1
  Ca2+  Ca28  1  0.32711623  0.92911226  0.50946507  1
  Ca2+  Ca29  1  0.32609633  0.92443996  0.84087172  1
  Ca2+  Ca30  1  0.82866938  0.42582817  0.17274518  1
  Ca2+  Ca31  1  0.83513477  0.42291872  0.50896122  1
  Ca2+  Ca32  1  0.82329933  0.42089189  0.83754808  1
  Ca2+  Ca33  1  0.83128837  0.92125524  0.17659079  1
  Ca2+  Ca34  1  0.83902145  0.91911403  0.50157545  1
  Ca2+  Ca35  1  0.83429959  0.91478223  0.83312615  1
  Ca2+  Ca36  1  0.41487210  0.16599361  0.16627806  1
  Ca2+  Ca37  1  0.42390126  0.16528498  0.49207447  1
  Ca2+  Ca38  1  0.41857483  0.16343230  0.82632496  1
  Ca2+  Ca39  1  0.41846251  0.66818228  0.15317063  1
  Ca2+  Ca40  1  0.42418377  0.66254938  0.49511655  1
  Ca2+  Ca41  1  0.42574690  0.66363140  0.83124327  1
  Ca2+  Ca42  1  0.91076599  0.17217965  0.16776976  1
  Ca2+  Ca43  1  0.91670277  0.17781683  0.49334240  1
  Ca2+  Ca44  1  0.92465264  0.17426231  0.82017326  1
  Ca2+  Ca45  1  0.90997652  0.66883398  0.16440045  1
  Ca2+  Ca46  1  0.90878654  0.67462164  0.49539025  1
  Ca2+  Ca47  1  0.91190000  0.66930773  0.82584993  1
  Al0+  Al48  1  0.00129247  0.00120553  0.00318038  1
  Al0+  Al49  1  -0.00185066  -0.00031411  0.33185340  1
  Al0+  Al50  1  0.00155315  -0.00003044  0.66278920  1
  Al0+  Al51  1  -0.00220325  0.50128692  0.00129324  1
  Al0+  Al52  1  0.00181419  0.50107823  0.33180121  1
  Al0+  Al53  1  0.00247730  0.50319133  0.66665068  1
  Al0+  Al54  1  0.50034063  0.00016872  -0.00128694  1
  Al0+  Al55  1  0.49983899  -0.00343489  0.33446434  1
  Al0+  Al56  1  0.50103430  -0.00033295  0.66668768  1
  Al0+  Al57  1  0.50096018  0.49673197  0.00292498  1
  Al0+  Al58  1  0.50148030  0.49817614  0.33444425  1
  Al0+  Al59  1  0.50261435  0.49974415  0.66551322  1
  Al0+  Al60  1  0.24895685  0.24838185  0.00215769  1
  Al0+  Al61  1  0.24998121  0.25033457  0.33253805  1
  Al0+  Al62  1  0.25101099  0.25234314  0.66730190  1
  Al0+  Al63  1  0.24632117  0.75151830  0.00267376  1
  Al0+  Al64  1  0.24932616  0.74901536  0.33976598  1
  Al0+  Al65  1  0.24984070  0.75216307  0.66937844  1
  Al0+  Al66  1  0.74912809  0.25178169  0.00245438  1
  Al0+  Al67  1  0.75008188  0.24868202  0.32810001  1
  Al0+  Al68  1  0.74871864  0.25128683  0.66376655  1
  Al0+  Al69  1  0.74918568  0.75088946  -0.00118398  1
  Al0+  Al70  1  0.75029474  0.74951999  0.33134569  1
  Al0+  Al71  1  0.74990118  0.75090232  0.66210119  1
  Al0+  Al72  1  0.92978670  0.81984125  0.65352956  1
  Al0+  Al73  1  0.07271375  0.17926036  0.65159624  1
  Al0+  Al74  1  0.56978103  0.67843695  0.65155398  1
  Al0+  Al75  1  0.32123411  0.07070137  0.34864976  1
  Al0+  Al76  1  0.57007793  0.17621098  0.31652957  1
  Al0+  Al77  1  0.92947211  0.32291682  0.31759552  1
  Al0+  Al78  1  0.32277144  0.57077119  0.34775157  1
  Al0+  Al79  1  0.42579371  0.82226097  0.98451096  1
  Al0+  Al80  1  0.67959955  0.42785940  0.68133247  1
  Al0+  Al81  1  0.56979205  0.17760702  0.65424188  1
  Al0+  Al82  1  0.42849428  0.32067167  0.31697605  1
  Al0+  Al83  1  0.92895823  0.32277354  0.65272965  1
  Al0+  Al84  1  0.81972459  0.07103844  0.34738395  1
  Al0+  Al85  1  0.32294523  0.07319886  0.68231200  1
  Al0+  Al86  1  0.17758004  0.92996686  0.68238687  1
  Al0+  Al87  1  0.82144555  0.57099883  0.34819427  1
  Al0+  Al88  1  0.57084994  0.67641878  0.98445691  1
  Al0+  Al89  1  0.92961125  0.82003886  0.31765221  1
  Al0+  Al90  1  0.31943968  0.56917212  0.01072088  1
  Al0+  Al91  1  0.82049855  0.57284250  0.01615067  1
  Al0+  Al92  1  0.82229956  0.57343261  0.68145344  1
  Al0+  Al93  1  0.32292680  0.07108635  0.01680231  1
  Al0+  Al94  1  0.17687234  0.92884612  0.01771290  1
  Al0+  Al95  1  0.67831543  0.42662674  0.01866062  1
  Si0+  Si96  1  0.82039413  0.07117219  0.67967267  1
  Si0+  Si97  1  0.06975210  0.67848770  0.98561642  1
  Si0+  Si98  1  0.67909975  0.92784446  0.68186407  1
  Si0+  Si99  1  0.42739794  0.81819624  0.32057197  1
  Si0+  Si100  1  0.17796235  0.42792901  0.35022688  1
  Si0+  Si101  1  0.42762296  0.32339233  0.65140405  1
  Si0+  Si102  1  0.42762163  0.82108942  0.64944016  1
  Si0+  Si103  1  0.07002298  0.17954053  0.98546532  1
  Si0+  Si104  1  0.82099605  0.07115839  0.01271197  1
  Si0+  Si105  1  0.17636500  0.42683422  0.01579898  1
  Si0+  Si106  1  0.67949937  0.42748734  0.35126321  1
  Si0+  Si107  1  0.07610241  0.67768002  0.64942668  1
  Si0+  Si108  1  0.07176776  0.17790460  0.31466959  1
  Si0+  Si109  1  0.92826832  0.32153346  0.98449170  1
  Si0+  Si110  1  0.07407374  0.67861787  0.31541940  1
  Si0+  Si111  1  0.92920464  0.82280109  0.98559584  1
  Si0+  Si112  1  0.57211132  0.17923482  0.98478311  1
  Si0+  Si113  1  0.67969703  0.92956146  0.01316680  1
  Si0+  Si114  1  0.17912221  0.43036597  0.68108437  1
  Si0+  Si115  1  0.67795309  0.92671467  0.35036430  1
  Si0+  Si116  1  0.57058402  0.67869334  0.31824278  1
  Si0+  Si117  1  0.17732417  0.92823338  0.35182390  1
  Si0+  Si118  1  0.42745610  0.31949827  0.98506545  1
  Si0+  Si119  1  0.32242426  0.57117376  0.68080024  1
  O2-  O120  1  0.25386112  -0.00407154  0.06646737  1
  O2-  O121  1  0.24437741  -0.00149453  0.39530176  1
  O2-  O122  1  0.25001011  0.00182276  0.73154364  1
  O2-  O123  1  0.24563875  0.49470693  0.05980649  1
  O2-  O124  1  0.24971646  0.49419765  0.39421951  1
  O2-  O125  1  0.25048707  0.50128997  0.72315082  1
  O2-  O126  1  0.75038608  0.00039230  0.05565677  1
  O2-  O127  1  0.74370808  -0.00185309  0.39468748  1
  O2-  O128  1  0.74960148  0.00041388  0.72359192  1
  O2-  O129  1  0.74836877  0.50153959  0.06663961  1
  O2-  O130  1  0.75094308  0.49322002  0.39519654  1
  O2-  O131  1  0.75234692  0.49946942  0.73092933  1
  O2-  O132  1  0.00298512  0.24675960  0.26958625  1
  O2-  O133  1  -0.00088782  0.24938710  0.60169763  1
  O2-  O134  1  0.00041411  0.25174081  0.94264356  1
  O2-  O135  1  0.00371685  0.74525752  0.27028778  1
  O2-  O136  1  0.00450622  0.74450673  0.60742745  1
  O2-  O137  1  -0.00200281  0.74946631  0.94406139  1
  O2-  O138  1  0.49699188  0.24625176  0.26507273  1
  O2-  O139  1  0.49249939  0.25015245  0.60961615  1
  O2-  O140  1  0.49846819  0.24803317  0.94347509  1
  O2-  O141  1  0.49568014  0.74562016  0.27634441  1
  O2-  O142  1  0.49360169  0.75091400  0.60302758  1
  O2-  O143  1  0.49507561  0.74628743  0.93570905  1
  O2-  O144  1  0.06841207  0.18002220  0.09041947  1
  O2-  O145  1  0.07096937  0.17937369  0.42001699  1
  O2-  O146  1  0.06984497  0.18162404  0.76609102  1
  O2-  O147  1  0.06999835  0.67702273  0.09044824  1
  O2-  O148  1  0.07661262  0.67992723  0.42090182  1
  O2-  O149  1  0.07878402  0.67680471  0.75521850  1
  O2-  O150  1  0.57460702  0.17851998  0.08932947  1
  O2-  O151  1  0.56963569  0.17784627  0.43004145  1
  O2-  O152  1  0.57047473  0.17835139  0.76795425  1
  O2-  O153  1  0.57091854  0.68051692  0.09864637  1
  O2-  O154  1  0.57057457  0.68090570  0.42346343  1
  O2-  O155  1  0.56786544  0.67867077  0.76439347  1
  O2-  O156  1  0.17655467  0.43053164  0.24440561  1
  O2-  O157  1  0.17869557  0.43110612  0.57634214  1
  O2-  O158  1  0.17687146  0.42751177  0.90977057  1
  O2-  O159  1  0.17928750  0.92723673  0.24620296  1
  O2-  O160  1  0.17970805  0.92916043  0.56874269  1
  O2-  O161  1  0.17123306  0.93407564  0.90481149  1
  O2-  O162  1  0.67874912  0.43064025  0.24555723  1
  O2-  O163  1  0.67800393  0.42880266  0.56791716  1
  O2-  O164  1  0.68182364  0.42163698  0.90549857  1
  O2-  O165  1  0.67948088  0.92586915  0.24421176  1
  O2-  O166  1  0.67902684  0.92649521  0.57696599  1
  O2-  O167  1  0.68172643  0.93003225  0.90783214  1
  O2-  O168  1  0.42593826  0.31949633  0.08962611  1
  O2-  O169  1  0.43156843  0.32197301  0.43063652  1
  O2-  O170  1  0.42718332  0.32614789  0.75737204  1
  O2-  O171  1  0.43043259  0.82133507  0.09894570  1
  O2-  O172  1  0.42939427  0.81670537  0.42565686  1
  O2-  O173  1  0.42915151  0.81934485  0.75480468  1
  O2-  O174  1  0.92909275  0.32008021  0.08959752  1
  O2-  O175  1  0.93159634  0.32296688  0.43031440  1
  O2-  O176  1  0.93104944  0.31977241  0.76711217  1
  O2-  O177  1  0.92935268  0.82430521  0.09051303  1
  O2-  O178  1  0.93034006  0.81972732  0.43043825  1
  O2-  O179  1  0.92954670  0.82005999  0.76726980  1
  O2-  O180  1  0.32068474  0.06705315  0.23562142  1
  O2-  O181  1  0.32290196  0.07118672  0.56859111  1
  O2-  O182  1  0.32067080  0.07377661  0.90362158  1
  O2-  O183  1  0.32112139  0.57265607  0.23469007  1
  O2-  O184  1  0.32204730  0.56969760  0.57567600  1
  O2-  O185  1  0.31728192  0.56624594  0.89720198  1
  O2-  O186  1  0.81870599  0.06795043  0.23335641  1
  O2-  O187  1  0.81902824  0.07046615  0.57488811  1
  O2-  O188  1  0.82105888  0.07090812  0.90724988  1
  O2-  O189  1  0.81719585  0.57215383  0.23520260  1
  O2-  O190  1  0.81993460  0.57282108  0.56773515  1
  O2-  O191  1  0.82280015  0.57163868  0.90297546  1
  O2-  O192  1  0.04486064  0.08462476  0.26880864  1
  O2-  O193  1  0.04742679  0.08102312  0.59881765  1
  O2-  O194  1  0.03913685  0.08858900  0.93802399  1
  O2-  O195  1  0.05278106  0.58440639  0.26941598  1
  O2-  O196  1  0.05475925  0.58377503  0.60254264  1
  O2-  O197  1  0.04364198  0.58615920  0.93675301  1
  O2-  O198  1  0.54463958  0.07516215  0.26620009  1
  O2-  O199  1  0.54474145  0.07977617  0.59944315  1
  O2-  O200  1  0.54808081  0.08661477  0.93712157  1
  O2-  O201  1  0.54654739  0.58550011  0.27313862  1
  O2-  O202  1  0.53910247  0.58248102  0.59634032  1
  O2-  O203  1  0.54434652  0.57635302  0.93412387  1
  O2-  O204  1  0.16484604  0.20454000  0.26801797  1
  O2-  O205  1  0.17048693  0.21110505  0.59966439  1
  O2-  O206  1  0.16218031  0.20623214  0.93807836  1
  O2-  O207  1  0.16744600  0.70786974  0.26938583  1
  O2-  O208  1  0.16890064  0.70538770  0.60187532  1
  O2-  O209  1  0.16073653  0.70572725  0.93639448  1
  O2-  O210  1  0.66811526  0.20458743  0.26248649  1
  O2-  O211  1  0.66533496  0.20908473  0.59902423  1
  O2-  O212  1  0.66388723  0.20878586  0.93696943  1
  O2-  O213  1  0.66006764  0.71110063  0.26961123  1
  O2-  O214  1  0.66419445  0.71330835  0.59649895  1
  O2-  O215  1  0.66770443  0.71137890  0.93123223  1
  O2-  O216  1  0.08316826  0.45353621  0.06163494  1
  O2-  O217  1  0.08660322  0.45799347  0.39814198  1
  O2-  O218  1  0.08893186  0.45873752  0.73168833  1
  O2-  O219  1  0.08051699  0.96331107  0.07329844  1
  O2-  O220  1  0.08242062  0.95289221  0.39450894  1
  O2-  O221  1  0.07844458  0.95778011  0.73493904  1
  O2-  O222  1  0.57907633  0.45071594  0.07084713  1
  O2-  O223  1  0.58708974  0.45547532  0.39785137  1
  O2-  O224  1  0.58107204  0.45747234  0.73466056  1
  O2-  O225  1  0.58858314  0.95712345  0.06135004  1
  O2-  O226  1  0.58356159  0.94679548  0.39661878  1
  O2-  O227  1  0.58797293  0.95491226  0.73056734  1
  O2-  O228  1  0.19998991  0.33338352  0.06206111  1
  O2-  O229  1  0.19997772  0.33363447  0.39559364  1
  O2-  O230  1  0.20652429  0.33966483  0.73120696  1
  O2-  O231  1  0.19650456  0.82839396  0.06963536  1
  O2-  O232  1  0.20308600  0.83528474  0.39886929  1
  O2-  O233  1  0.20490409  0.83075482  0.73581532  1
  O2-  O234  1  0.71045208  0.32954682  0.07329890  1
  O2-  O235  1  0.70221210  0.33173056  0.39237907  1
  O2-  O236  1  0.70717260  0.32909421  0.73517556  1
  O2-  O237  1  0.70738626  0.83884391  0.06229028  1
  O2-  O238  1  0.70808617  0.83473305  0.39692436  1
  O2-  O239  1  0.71024456  0.83796188  0.73066260  1
  O2-  O240  1  0.46044309  0.41918658  0.26446031  1
  O2-  O241  1  0.45707636  0.41472450  0.60296115  1
  O2-  O242  1  0.45529502  0.41080161  0.93678638  1
  O2-  O243  1  0.45692230  0.90869557  0.27207003  1
  O2-  O244  1  0.45707131  0.91352264  0.60351162  1
  O2-  O245  1  0.45950166  0.91920553  0.93119338  1
  O2-  O246  1  0.96330309  0.41852097  0.26238294  1
  O2-  O247  1  0.96071513  0.42101668  0.60146285  1
  O2-  O248  1  0.95511812  0.41395196  0.93821359  1
  O2-  O249  1  0.95909670  0.91712187  0.26289127  1
  O2-  O250  1  0.95996018  0.91591980  0.59804932  1
  O2-  O251  1  0.95834843  0.91487055  0.93857476  1
  O2-  O252  1  0.32775180  0.29850714  0.26541246  1
  O2-  O253  1  0.33290809  0.30425650  0.60564774  1
  O2-  O254  1  0.33454430  0.29347489  0.93740925  1
  O2-  O255  1  0.33415518  0.79285431  0.27519618  1
  O2-  O256  1  0.33304350  0.79779066  0.60445063  1
  O2-  O257  1  0.32467109  0.79883705  0.93562079  1
  O2-  O258  1  0.83412379  0.29068800  0.26236385  1
  O2-  O259  1  0.83131025  0.29462646  0.59974360  1
  O2-  O260  1  0.83696252  0.29067970  0.93816897  1
  O2-  O261  1  0.83240983  0.78996106  0.26327867  1
  O2-  O262  1  0.83366961  0.79240706  0.59709185  1
  O2-  O263  1  0.83658110  0.79833388  0.93814716  1
  O2-  O264  1  0.42326830  0.04578418  0.06750745  1
  O2-  O265  1  0.41744678  0.03660761  0.40131761  1
  O2-  O266  1  0.42152573  0.04273853  0.73429743  1
  O2-  O267  1  0.41538730  0.53926473  0.06518197  1
  O2-  O268  1  0.41938607  0.54010073  0.40204386  1
  O2-  O269  1  0.41322879  0.54108590  0.72803096  1
  O2-  O270  1  0.91168493  0.04395403  0.06158032  1
  O2-  O271  1  0.91638308  0.03941350  0.40025224  1
  O2-  O272  1  0.91214060  0.04284823  0.72678475  1
  O2-  O273  1  0.91937089  0.54436141  0.06905608  1
  O2-  O274  1  0.92138926  0.54629818  0.39759147  1
  O2-  O275  1  0.92389985  0.55175354  0.73116948  1
  O2-  O276  1  0.28987974  0.16857950  0.06997093  1
  O2-  O277  1  0.29334365  0.16935549  0.39929390  1
  O2-  O278  1  0.29723358  0.17333203  0.73351706  1
  O2-  O279  1  0.28814670  0.66527216  0.06488558  1
  O2-  O280  1  0.28997741  0.66538055  0.40512200  1
  O2-  O281  1  0.29603400  0.66326366  0.72755759  1
  O2-  O282  1  0.79275087  0.16228667  0.06051292  1
  O2-  O283  1  0.79074650  0.16875104  0.39960914  1
  O2-  O284  1  0.79212492  0.16226052  0.72817041  1
  O2-  O285  1  0.79342322  0.67293853  0.06707652  1
  O2-  O286  1  0.78751652  0.66763564  0.40001588  1
  O2-  O287  1  0.79067578  0.67190886  0.73248172  1
