# generated using pymatgen
data_Ca2Al2SiO7
_symmetry_space_group_name_H-M   'P 1'
_cell_length_a   15.46010026
_cell_length_b   15.45958667
_cell_length_c   15.28526579
_cell_angle_alpha   89.98880844
_cell_angle_beta   89.99769463
_cell_angle_gamma   90.00606266
_symmetry_Int_Tables_number   1
_chemical_formula_structural   Ca2Al2SiO7
_chemical_formula_sum   'Ca48 Al48 Si24 O168'
_cell_volume   3653.28175528
_cell_formula_units_Z   24
loop_
 _symmetry_equiv_pos_site_id
 _symmetry_equiv_pos_as_xyz
  1  'x, y, z'
loop_
 _atom_type_symbol
 _atom_type_oxidation_number
  Ca2+  2.0
  Al0+  0.0
  Si0+  0.0
  O2-  -2.0
loop_
 _atom_site_type_symbol
 _atom_site_label
 _atom_site_symmetry_multiplicity
 _atom_site_fract_x
 _atom_site_fract_y
 _atom_site_fract_z
 _atom_site_occupancy
  Ca2+  Ca0  1  0.16019708  0.07738071  0.17006135  1
  Ca2+  Ca1  1  0.16392781  0.08418738  0.50602381  1
  Ca2+  Ca2  1  0.17341458  0.08781439  0.83779694  1
  Ca2+  Ca3  1  0.17425786  0.58373983  0.16940105  1
  Ca2+  Ca4  1  0.16448359  0.57486735  0.50952819  1
  Ca2+  Ca5  1  0.16236458  0.57506349  0.83404464  1
  Ca2+  Ca6  1  0.67325404  0.08550329  0.17706710  1
  Ca2+  Ca7  1  0.67795279  0.09096050  0.50195431  1
  Ca2+  Ca8  1  0.67582969  0.08580391  0.83261576  1
  Ca2+  Ca9  1  0.67486842  0.57175694  0.17161892  1
  Ca2+  Ca10  1  0.67533351  0.58050757  0.50378361  1
  Ca2+  Ca11  1  0.67633837  0.57976346  0.83770490  1
  Ca2+  Ca12  1  0.08218468  0.31923525  0.16293940  1
  Ca2+  Ca13  1  0.08003864  0.32468013  0.50240552  1
  Ca2+  Ca14  1  0.08202956  0.32629267  0.82277630  1
  Ca2+  Ca15  1  0.08091681  0.83937883  0.16560702  1
  Ca2+  Ca16  1  0.07351390  0.83382038  0.49627836  1
  Ca2+  Ca17  1  0.08204245  0.82545242  0.82657843  1
  Ca2+  Ca18  1  0.58684732  0.33580398  0.16910428  1
  Ca2+  Ca19  1  0.57214307  0.33384671  0.49113635  1
  Ca2+  Ca20  1  0.57607188  0.33941368  0.82961875  1
  Ca2+  Ca21  1  0.58139340  0.83115149  0.16230817  1
  Ca2+  Ca22  1  0.58675095  0.82686316  0.50016345  1
  Ca2+  Ca23  1  0.58026287  0.82420773  0.82365261  1
  Ca2+  Ca24  1  0.33701707  0.41907387  0.16827884  1
  Ca2+  Ca25  1  0.32869992  0.40618552  0.50656015  1
  Ca2+  Ca26  1  0.32765705  0.41695452  0.83184260  1
  Ca2+  Ca27  1  0.31902480  0.92277029  0.16981078  1
  Ca2+  Ca28  1  0.32546983  0.92580585  0.50580846  1
  Ca2+  Ca29  1  0.32542999  0.92927497  0.84116900  1
  Ca2+  Ca30  1  0.82547107  0.42469538  0.17555334  1
  Ca2+  Ca31  1  0.83553265  0.42433584  0.50880036  1
  Ca2+  Ca32  1  0.83672425  0.42718261  0.83750351  1
  Ca2+  Ca33  1  0.83530282  0.92128191  0.17584740  1
  Ca2+  Ca34  1  0.84294692  0.92457277  0.50262703  1
  Ca2+  Ca35  1  0.84108008  0.91970022  0.82789733  1
  Ca2+  Ca36  1  0.42043602  0.16975728  0.16509769  1
  Ca2+  Ca37  1  0.41837748  0.17517685  0.49418038  1
  Ca2+  Ca38  1  0.41330796  0.16868710  0.82410708  1
  Ca2+  Ca39  1  0.41542728  0.66593738  0.15961193  1
  Ca2+  Ca40  1  0.42652737  0.66237883  0.49743588  1
  Ca2+  Ca41  1  0.42276115  0.66069952  0.82740952  1
  Ca2+  Ca42  1  0.92629046  0.15900082  0.16469942  1
  Ca2+  Ca43  1  0.92287015  0.16292982  0.49544696  1
  Ca2+  Ca44  1  0.92860105  0.17161050  0.82288597  1
  Ca2+  Ca45  1  0.90740327  0.67045281  0.16658336  1
  Ca2+  Ca46  1  0.91293055  0.67382854  0.49812381  1
  Ca2+  Ca47  1  0.91656179  0.67015149  0.82045060  1
  Al0+  Al48  1  0.00021824  -0.00046503  -0.00430964  1
  Al0+  Al49  1  -0.00057845  -0.00288281  0.33283276  1
  Al0+  Al50  1  0.00043087  -0.00190836  0.66684377  1
  Al0+  Al51  1  0.00023233  0.50143185  0.00720441  1
  Al0+  Al52  1  0.00327367  0.50108310  0.33506903  1
  Al0+  Al53  1  0.00085459  0.49865015  0.66986041  1
  Al0+  Al54  1  0.49943268  0.00063978  0.00113293  1
  Al0+  Al55  1  0.49881877  -0.00036546  0.32971615  1
  Al0+  Al56  1  0.50029182  -0.00073011  0.67046436  1
  Al0+  Al57  1  0.50069798  0.49930605  0.00595056  1
  Al0+  Al58  1  0.50084310  0.50130841  0.33122278  1
  Al0+  Al59  1  0.50025220  0.49964700  0.65724726  1
  Al0+  Al60  1  0.25262971  0.25041838  0.00026255  1
  Al0+  Al61  1  0.25089826  0.25077273  0.32243027  1
  Al0+  Al62  1  0.25007684  0.25049047  0.66769845  1
  Al0+  Al63  1  0.24828425  0.75167751  0.00555008  1
  Al0+  Al64  1  0.24902539  0.75077121  0.33893874  1
  Al0+  Al65  1  0.25203596  0.75023412  0.66312596  1
  Al0+  Al66  1  0.74929735  0.25016809  0.00175309  1
  Al0+  Al67  1  0.74869852  0.25136571  0.33784029  1
  Al0+  Al68  1  0.74920143  0.25050096  0.67152266  1
  Al0+  Al69  1  0.74923270  0.75052916  0.00089749  1
  Al0+  Al70  1  0.74972291  0.75019161  0.33084791  1
  Al0+  Al71  1  0.74848068  0.74968052  0.66244750  1
  Al0+  Al72  1  0.92645312  0.32176329  0.65408253  1
  Al0+  Al73  1  0.32308373  0.07413100  0.01757310  1
  Al0+  Al74  1  0.07396929  0.67658940  0.65277472  1
  Al0+  Al75  1  0.57274953  0.17845682  0.31869642  1
  Al0+  Al76  1  0.82299322  0.57354933  0.01601538  1
  Al0+  Al77  1  0.56960566  0.67897512  0.65267011  1
  Al0+  Al78  1  0.17779337  0.93083646  0.01493452  1
  Al0+  Al79  1  0.81977601  0.57076942  0.68024274  1
  Al0+  Al80  1  0.31955807  0.56989596  0.01099032  1
  Al0+  Al81  1  0.17956079  0.42981386  0.67921672  1
  Al0+  Al82  1  0.07080770  0.17925729  0.65251591  1
  Al0+  Al83  1  0.32006796  0.07083318  0.67836709  1
  Al0+  Al84  1  0.82002137  0.06990588  0.34544892  1
  Al0+  Al85  1  0.06834870  0.17870967  0.31924893  1
  Al0+  Al86  1  0.07081514  0.17944072  0.98440061  1
  Al0+  Al87  1  0.82239593  0.57161919  0.35149406  1
  Al0+  Al88  1  0.92947248  0.81965973  0.65095353  1
  Al0+  Al89  1  0.43041447  0.31874033  0.65478538  1
  Al0+  Al90  1  0.17861546  0.93013626  0.35005255  1
  Al0+  Al91  1  0.67929018  0.42819735  0.01536725  1
  Al0+  Al92  1  0.42936797  0.32217123  0.31417479  1
  Al0+  Al93  1  0.67832105  0.42933454  0.35245940  1
  Al0+  Al94  1  0.82253117  0.07188392  0.68143859  1
  Al0+  Al95  1  0.93022031  0.81813691  0.31769801  1
  Si0+  Si96  1  0.42836060  0.82468027  0.64974541  1
  Si0+  Si97  1  0.07446240  0.67686457  0.31506164  1
  Si0+  Si98  1  0.17733168  0.42690612  0.01842827  1
  Si0+  Si99  1  0.67443935  0.92734097  0.34886941  1
  Si0+  Si100  1  0.67493433  0.42862274  0.68301965  1
  Si0+  Si101  1  0.56900926  0.67981376  0.98573171  1
  Si0+  Si102  1  0.56987098  0.68107390  0.31479211  1
  Si0+  Si103  1  0.32091824  0.57193842  0.34911766  1
  Si0+  Si104  1  0.42713590  0.82125508  0.98549078  1
  Si0+  Si105  1  0.42612905  0.82080006  0.31739027  1
  Si0+  Si106  1  0.18138393  0.42733967  0.34725013  1
  Si0+  Si107  1  0.92752419  0.32310936  0.98600889  1
  Si0+  Si108  1  0.81969334  0.06894522  0.01323912  1
  Si0+  Si109  1  0.32183980  0.07288096  0.34911290  1
  Si0+  Si110  1  0.07258991  0.67857395  0.98724643  1
  Si0+  Si111  1  0.67808256  0.92786176  0.68366229  1
  Si0+  Si112  1  0.43145813  0.32205520  0.98323803  1
  Si0+  Si113  1  0.17794835  0.92588357  0.68370899  1
  Si0+  Si114  1  0.32454793  0.57264369  0.67979570  1
  Si0+  Si115  1  0.67788710  0.92830278  0.01350391  1
  Si0+  Si116  1  0.57307864  0.17496813  0.65229187  1
  Si0+  Si117  1  0.92807216  0.32496874  0.31779939  1
  Si0+  Si118  1  0.92751237  0.81964212  0.98411940  1
  Si0+  Si119  1  0.57267008  0.17702494  0.98310312  1
  O2-  O120  1  0.24689709  0.00564706  0.06574791  1
  O2-  O121  1  0.25167689  0.00698072  0.39507071  1
  O2-  O122  1  0.24594776  -0.00398389  0.72640668  1
  O2-  O123  1  0.24528103  0.49719360  0.06149534  1
  O2-  O124  1  0.25221265  0.49889342  0.38976754  1
  O2-  O125  1  0.25151074  0.50913850  0.72414663  1
  O2-  O126  1  0.74736327  -0.00022346  0.05629362  1
  O2-  O127  1  0.74031164  -0.00087804  0.39121645  1
  O2-  O128  1  0.74675131  -0.00315496  0.72787985  1
  O2-  O129  1  0.75463519  0.49744905  0.06388268  1
  O2-  O130  1  0.75448390  0.49655653  0.40248749  1
  O2-  O131  1  0.74741758  0.49348169  0.72723592  1
  O2-  O132  1  -0.00766161  0.25260146  0.27191918  1
  O2-  O133  1  -0.00670107  0.24554319  0.60293080  1
  O2-  O134  1  -0.00149038  0.25767006  0.94051659  1
  O2-  O135  1  0.00285998  0.74191761  0.26964491  1
  O2-  O136  1  0.00209537  0.74779884  0.60172906  1
  O2-  O137  1  -0.00365779  0.74469466  0.94554328  1
  O2-  O138  1  0.50268794  0.25063275  0.26519380  1
  O2-  O139  1  0.50540770  0.24446669  0.60886741  1
  O2-  O140  1  0.50024500  0.24765613  0.94195070  1
  O2-  O141  1  0.49799968  0.75161910  0.27260754  1
  O2-  O142  1  0.49385274  0.75304570  0.60527888  1
  O2-  O143  1  0.49764191  0.75004591  0.94211498  1
  O2-  O144  1  0.06632775  0.17749802  0.09776299  1
  O2-  O145  1  0.06973610  0.18019782  0.43177281  1
  O2-  O146  1  0.07212267  0.18204400  0.76637387  1
  O2-  O147  1  0.07585083  0.68050994  0.09215152  1
  O2-  O148  1  0.07757566  0.67759079  0.42003758  1
  O2-  O149  1  0.07376496  0.67895371  0.76738198  1
  O2-  O150  1  0.57441299  0.17478934  0.08761429  1
  O2-  O151  1  0.56839658  0.17568752  0.43211864  1
  O2-  O152  1  0.57106841  0.17426009  0.75854188  1
  O2-  O153  1  0.56780695  0.68348192  0.09084701  1
  O2-  O154  1  0.56877975  0.68205906  0.41983877  1
  O2-  O155  1  0.56763453  0.67957248  0.76654286  1
  O2-  O156  1  0.18187410  0.42990814  0.24182848  1
  O2-  O157  1  0.18321666  0.42728281  0.56596934  1
  O2-  O158  1  0.17702386  0.42734017  0.91293505  1
  O2-  O159  1  0.18029309  0.92946275  0.23688628  1
  O2-  O160  1  0.17984662  0.92570059  0.57812737  1
  O2-  O161  1  0.18079563  0.92702587  0.90167219  1
  O2-  O162  1  0.67865027  0.43338595  0.23861570  1
  O2-  O163  1  0.67235851  0.43168026  0.57809452  1
  O2-  O164  1  0.67565647  0.43219320  0.90173073  1
  O2-  O165  1  0.67525585  0.92576029  0.24251873  1
  O2-  O166  1  0.67461433  0.92819820  0.57846189  1
  O2-  O167  1  0.67737340  0.92622334  0.90868241  1
  O2-  O168  1  0.43313520  0.32387283  0.08784487  1
  O2-  O169  1  0.42703283  0.32010799  0.42772537  1
  O2-  O170  1  0.43181118  0.32077569  0.76845506  1
  O2-  O171  1  0.42988315  0.81945144  0.09079793  1
  O2-  O172  1  0.42726801  0.81888251  0.42235415  1
  O2-  O173  1  0.43055851  0.82495975  0.75567736  1
  O2-  O174  1  0.92783922  0.32004546  0.09169687  1
  O2-  O175  1  0.93236620  0.32643680  0.42296528  1
  O2-  O176  1  0.92956430  0.32175804  0.76831286  1
  O2-  O177  1  0.92573817  0.82159416  0.08911593  1
  O2-  O178  1  0.93105918  0.81909640  0.42993084  1
  O2-  O179  1  0.92977747  0.81828142  0.76549359  1
  O2-  O180  1  0.32252937  0.06939977  0.24364560  1
  O2-  O181  1  0.32104388  0.06907599  0.56530196  1
  O2-  O182  1  0.32504344  0.07111547  0.90377110  1
  O2-  O183  1  0.31921074  0.57438710  0.24352929  1
  O2-  O184  1  0.32639481  0.57013345  0.57423042  1
  O2-  O185  1  0.32086503  0.56819358  0.89817666  1
  O2-  O186  1  0.82041061  0.06539095  0.23144169  1
  O2-  O187  1  0.82097956  0.07060718  0.56869039  1
  O2-  O188  1  0.81843838  0.06747024  0.90823834  1
  O2-  O189  1  0.81809460  0.57193603  0.23763174  1
  O2-  O190  1  0.81753971  0.57202372  0.56778810  1
  O2-  O191  1  0.82078577  0.57658537  0.90242902  1
  O2-  O192  1  0.03554618  0.08263812  0.26513697  1
  O2-  O193  1  0.04771959  0.07865379  0.60323341  1
  O2-  O194  1  0.03781898  0.08370051  0.92985726  1
  O2-  O195  1  0.05430015  0.58167714  0.26921255  1
  O2-  O196  1  0.04826131  0.57728000  0.60252420  1
  O2-  O197  1  0.05046246  0.58368720  0.94291993  1
  O2-  O198  1  0.54530413  0.07886761  0.26431720  1
  O2-  O199  1  0.54865631  0.08108188  0.60705707  1
  O2-  O200  1  0.54648647  0.08427645  0.93576834  1
  O2-  O201  1  0.54045886  0.59034740  0.26686856  1
  O2-  O202  1  0.53798802  0.58576833  0.59344684  1
  O2-  O203  1  0.54007803  0.58776197  0.94018376  1
  O2-  O204  1  0.16349882  0.21006644  0.26245266  1
  O2-  O205  1  0.16703076  0.21277563  0.59940550  1
  O2-  O206  1  0.17024144  0.20809183  0.93488298  1
  O2-  O207  1  0.16768984  0.70737534  0.26938633  1
  O2-  O208  1  0.17400375  0.70063904  0.59986994  1
  O2-  O209  1  0.16259655  0.71056392  0.93855701  1
  O2-  O210  1  0.67254122  0.20504000  0.26586960  1
  O2-  O211  1  0.66741967  0.19915409  0.60887121  1
  O2-  O212  1  0.66460537  0.20541624  0.93518789  1
  O2-  O213  1  0.66022606  0.71085886  0.26617047  1
  O2-  O214  1  0.66286568  0.71338255  0.59580179  1
  O2-  O215  1  0.66032442  0.70993673  0.93834370  1
  O2-  O216  1  0.08458955  0.45091313  0.06677497  1
  O2-  O217  1  0.09006881  0.45422738  0.39526915  1
  O2-  O218  1  0.08488590  0.45821754  0.73822239  1
  O2-  O219  1  0.07794053  0.95807931  0.06650209  1
  O2-  O220  1  0.08210123  0.95968676  0.40251367  1
  O2-  O221  1  0.08402165  0.94793324  0.72950663  1
  O2-  O222  1  0.58368112  0.46109513  0.07114572  1
  O2-  O223  1  0.57992118  0.46401807  0.40216938  1
  O2-  O224  1  0.58254872  0.46107497  0.72889633  1
  O2-  O225  1  0.58578692  0.95333109  0.06153553  1
  O2-  O226  1  0.57918018  0.94742762  0.39384185  1
  O2-  O227  1  0.58521746  0.95229311  0.73309417  1
  O2-  O228  1  0.20659232  0.33477011  0.06456412  1
  O2-  O229  1  0.21149376  0.33535563  0.39227980  1
  O2-  O230  1  0.21609418  0.33673335  0.73631559  1
  O2-  O231  1  0.20874546  0.83445416  0.07121071  1
  O2-  O232  1  0.21168453  0.83444419  0.40453663  1
  O2-  O233  1  0.20634657  0.83232090  0.72959599  1
  O2-  O234  1  0.70367938  0.32827887  0.06794855  1
  O2-  O235  1  0.69653838  0.32828853  0.40256822  1
  O2-  O236  1  0.69255609  0.33338870  0.72898157  1
  O2-  O237  1  0.70561909  0.83750081  0.06311036  1
  O2-  O238  1  0.70279038  0.83460102  0.39427365  1
  O2-  O239  1  0.70450894  0.83457155  0.73024385  1
  O2-  O240  1  0.45715790  0.42232821  0.26296889  1
  O2-  O241  1  0.45819032  0.41399442  0.59710892  1
  O2-  O242  1  0.46267045  0.41355224  0.93639145  1
  O2-  O243  1  0.45179100  0.91240191  0.26856062  1
  O2-  O244  1  0.45858669  0.91627372  0.60213560  1
  O2-  O245  1  0.45670632  0.91269157  0.93813870  1
  O2-  O246  1  0.95864005  0.41690598  0.26971416  1
  O2-  O247  1  0.95961800  0.41786527  0.60100277  1
  O2-  O248  1  0.95083741  0.41947765  0.94389473  1
  O2-  O249  1  0.96316602  0.91332193  0.26203576  1
  O2-  O250  1  0.95822803  0.91788907  0.59883729  1
  O2-  O251  1  0.95760902  0.90992581  0.93517509  1
  O2-  O252  1  0.33263340  0.29453157  0.25720604  1
  O2-  O253  1  0.33536952  0.28629072  0.60016299  1
  O2-  O254  1  0.33811168  0.29825560  0.93700445  1
  O2-  O255  1  0.33506255  0.78942916  0.27040418  1
  O2-  O256  1  0.33447816  0.80348053  0.60333165  1
  O2-  O257  1  0.33504753  0.79366056  0.93951066  1
  O2-  O258  1  0.83207529  0.30386226  0.27584724  1
  O2-  O259  1  0.82488740  0.30062943  0.60510270  1
  O2-  O260  1  0.83405649  0.29661757  0.94003594  1
  O2-  O261  1  0.83189419  0.79097324  0.26290955  1
  O2-  O262  1  0.83051254  0.79420309  0.59878708  1
  O2-  O263  1  0.83451056  0.79484368  0.93684087  1
  O2-  O264  1  0.42077360  0.04129166  0.06995762  1
  O2-  O265  1  0.41490383  0.04397805  0.39459054  1
  O2-  O266  1  0.41674291  0.04054683  0.73414167  1
  O2-  O267  1  0.41474733  0.54000181  0.06836299  1
  O2-  O268  1  0.41443241  0.54729382  0.39347901  1
  O2-  O269  1  0.41655749  0.54137176  0.72643931  1
  O2-  O270  1  0.91072444  0.03797172  0.05935791  1
  O2-  O271  1  0.91386747  0.03314735  0.39940426  1
  O2-  O272  1  0.91802486  0.03794520  0.73680707  1
  O2-  O273  1  0.92243359  0.55201673  0.07018486  1
  O2-  O274  1  0.92457734  0.54957894  0.39905892  1
  O2-  O275  1  0.91659676  0.54230712  0.73490425  1
  O2-  O276  1  0.30135082  0.17460487  0.06783056  1
  O2-  O277  1  0.29784900  0.16894457  0.38948068  1
  O2-  O278  1  0.28917030  0.16594880  0.73459135  1
  O2-  O279  1  0.29056914  0.66600179  0.06764070  1
  O2-  O280  1  0.29357243  0.66252382  0.39841906  1
  O2-  O281  1  0.30760743  0.66917774  0.72358911  1
  O2-  O282  1  0.79403441  0.16106205  0.06015340  1
  O2-  O283  1  0.79535894  0.16750098  0.39953862  1
  O2-  O284  1  0.79100705  0.16723758  0.73898063  1
  O2-  O285  1  0.78836280  0.67069879  0.06877825  1
  O2-  O286  1  0.78797715  0.67021556  0.40036923  1
  O2-  O287  1  0.78489411  0.66724331  0.73294836  1
