# generated using pymatgen
data_Ca2Al2SiO7
_symmetry_space_group_name_H-M   'P 1'
_cell_length_a   15.46657972
_cell_length_b   15.46454638
_cell_length_c   15.28937210
_cell_angle_alpha   90.00159046
_cell_angle_beta   89.99181409
_cell_angle_gamma   90.01045266
_symmetry_Int_Tables_number   1
_chemical_formula_structural   Ca2Al2SiO7
_chemical_formula_sum   'Ca48 Al48 Si24 O168'
_cell_volume   3656.96756455
_cell_formula_units_Z   24
loop_
 _symmetry_equiv_pos_site_id
 _symmetry_equiv_pos_as_xyz
  1  'x, y, z'
loop_
 _atom_type_symbol
 _atom_type_oxidation_number
  Ca2+  2.0
  Al0+  0.0
  Si0+  0.0
  O2-  -2.0
loop_
 _atom_site_type_symbol
 _atom_site_label
 _atom_site_symmetry_multiplicity
 _atom_site_fract_x
 _atom_site_fract_y
 _atom_site_fract_z
 _atom_site_occupancy
  Ca2+  Ca0  1  0.17531064  0.09779678  0.16791574  1
  Ca2+  Ca1  1  0.17657894  0.09426621  0.50423735  1
  Ca2+  Ca2  1  0.17454576  0.09887860  0.83618176  1
  Ca2+  Ca3  1  0.17034169  0.57790038  0.16558454  1
  Ca2+  Ca4  1  0.16923448  0.58066462  0.50440548  1
  Ca2+  Ca5  1  0.17361120  0.57554207  0.84490047  1
  Ca2+  Ca6  1  0.67118391  0.07037181  0.17445339  1
  Ca2+  Ca7  1  0.66578764  0.07392454  0.50504168  1
  Ca2+  Ca8  1  0.65802443  0.07320785  0.83583021  1
  Ca2+  Ca9  1  0.67470994  0.57751641  0.16919928  1
  Ca2+  Ca10  1  0.67195461  0.57948457  0.50653276  1
  Ca2+  Ca11  1  0.67180352  0.57028107  0.83459064  1
  Ca2+  Ca12  1  0.07156601  0.33159975  0.15820956  1
  Ca2+  Ca13  1  0.06992734  0.33082838  0.50012605  1
  Ca2+  Ca14  1  0.07646919  0.33161202  0.83290674  1
  Ca2+  Ca15  1  0.07397820  0.83498818  0.16506573  1
  Ca2+  Ca16  1  0.07498988  0.82889005  0.49286267  1
  Ca2+  Ca17  1  0.08170453  0.82859758  0.82958390  1
  Ca2+  Ca18  1  0.57776149  0.33633706  0.16218256  1
  Ca2+  Ca19  1  0.58255662  0.32811282  0.49664613  1
  Ca2+  Ca20  1  0.58640214  0.33061802  0.82545224  1
  Ca2+  Ca21  1  0.59542927  0.82829355  0.16581502  1
  Ca2+  Ca22  1  0.59898773  0.82343293  0.49716990  1
  Ca2+  Ca23  1  0.58767741  0.82910807  0.82599380  1
  Ca2+  Ca24  1  0.32615108  0.41165094  0.16913236  1
  Ca2+  Ca25  1  0.33464413  0.41141189  0.50113834  1
  Ca2+  Ca26  1  0.32586970  0.42090162  0.84422427  1
  Ca2+  Ca27  1  0.32962595  0.92915574  0.17132858  1
  Ca2+  Ca28  1  0.33459303  0.92905290  0.50438445  1
  Ca2+  Ca29  1  0.33253961  0.92985192  0.83763335  1
  Ca2+  Ca30  1  0.83806578  0.42188206  0.17079900  1
  Ca2+  Ca31  1  0.83566753  0.42450006  0.50736249  1
  Ca2+  Ca32  1  0.83146172  0.42086720  0.83906788  1
  Ca2+  Ca33  1  0.82683405  0.92065022  0.17663331  1
  Ca2+  Ca34  1  0.82799950  0.91942287  0.49835760  1
  Ca2+  Ca35  1  0.81982699  0.91765438  0.83715194  1
  Ca2+  Ca36  1  0.41289859  0.16604353  0.16562120  1
  Ca2+  Ca37  1  0.42058510  0.16523912  0.49783479  1
  Ca2+  Ca38  1  0.41930652  0.16416849  0.82722570  1
  Ca2+  Ca39  1  0.42372641  0.66652159  0.16144989  1
  Ca2+  Ca40  1  0.43463011  0.66745552  0.49258262  1
  Ca2+  Ca41  1  0.42342469  0.66647061  0.82580382  1
  Ca2+  Ca42  1  0.91555073  0.17612834  0.15758277  1
  Ca2+  Ca43  1  0.91332475  0.17661211  0.49251465  1
  Ca2+  Ca44  1  0.92426698  0.18137879  0.82369129  1
  Ca2+  Ca45  1  0.90397271  0.66997377  0.16609878  1
  Ca2+  Ca46  1  0.90581701  0.67023297  0.49303055  1
  Ca2+  Ca47  1  0.90741186  0.66244370  0.83172006  1
  Al0+  Al48  1  0.00063788  -0.00104979  -0.00822324  1
  Al0+  Al49  1  0.00177142  -0.00147779  0.33181934  1
  Al0+  Al50  1  0.00246887  -0.00155248  0.66285857  1
  Al0+  Al51  1  0.00126323  0.50267417  0.00393687  1
  Al0+  Al52  1  0.00225126  0.49843631  0.33469948  1
  Al0+  Al53  1  0.00243108  0.50129236  0.66731626  1
  Al0+  Al54  1  0.49751814  -0.00220640  0.00918429  1
  Al0+  Al55  1  0.49783913  -0.00281305  0.34132128  1
  Al0+  Al56  1  0.49767221  0.00142987  0.67057796  1
  Al0+  Al57  1  0.50235765  0.50172061  0.00375175  1
  Al0+  Al58  1  0.49963918  0.50009282  0.32370480  1
  Al0+  Al59  1  0.50103223  0.50226513  0.66483995  1
  Al0+  Al60  1  0.25082802  0.25221023  0.00471422  1
  Al0+  Al61  1  0.25038823  0.25130261  0.33598079  1
  Al0+  Al62  1  0.24922738  0.25182654  0.66800277  1
  Al0+  Al63  1  0.25026382  0.75361078  0.00277689  1
  Al0+  Al64  1  0.25217018  0.74869290  0.33362436  1
  Al0+  Al65  1  0.24971189  0.75316572  0.66488580  1
  Al0+  Al66  1  0.74716404  0.24879836  -0.00315350  1
  Al0+  Al67  1  0.74831377  0.24932652  0.32943098  1
  Al0+  Al68  1  0.74869759  0.24944125  0.65950921  1
  Al0+  Al69  1  0.74812839  0.74862802  0.00343769  1
  Al0+  Al70  1  0.75155748  0.74774802  0.33008873  1
  Al0+  Al71  1  0.75020003  0.75018090  0.67070163  1
  Al0+  Al72  1  0.07232561  0.17905185  0.65009025  1
  Al0+  Al73  1  0.07241925  0.17933269  0.98503828  1
  Al0+  Al74  1  0.57090580  0.68060488  0.65350595  1
  Al0+  Al75  1  0.18024272  0.42998446  0.01687058  1
  Al0+  Al76  1  0.93122449  0.81948635  0.31934801  1
  Al0+  Al77  1  0.68038086  0.92808760  0.34965248  1
  Al0+  Al78  1  0.67943399  0.92990209  0.01413181  1
  Al0+  Al79  1  0.31804690  0.07056229  0.01465389  1
  Al0+  Al80  1  0.42955951  0.31866099  0.31897853  1
  Al0+  Al81  1  0.92743102  0.32098921  0.31894689  1
  Al0+  Al82  1  0.82318804  0.07358918  0.34655585  1
  Al0+  Al83  1  0.31813167  0.07125248  0.34967872  1
  Al0+  Al84  1  0.57049374  0.17725796  0.65401826  1
  Al0+  Al85  1  0.92834460  0.32290634  0.65071561  1
  Al0+  Al86  1  0.67850776  0.42407734  0.01551103  1
  Al0+  Al87  1  0.67688649  0.42612874  0.67864891  1
  Al0+  Al88  1  0.82189991  0.56996331  0.68132777  1
  Al0+  Al89  1  0.31774458  0.07133601  0.68165061  1
  Al0+  Al90  1  0.82086216  0.56674697  0.34735387  1
  Al0+  Al91  1  0.92646295  0.32352994  0.98406062  1
  Al0+  Al92  1  0.32296475  0.57464568  0.01464899  1
  Al0+  Al93  1  0.68104001  0.93138583  0.68069735  1
  Al0+  Al94  1  0.57182090  0.68051785  0.31662810  1
  Al0+  Al95  1  0.82046749  0.56884845  0.01610953  1
  Si0+  Si96  1  0.56789105  0.17533276  0.98721638  1
  Si0+  Si97  1  0.92873916  0.81928523  0.65255707  1
  Si0+  Si98  1  0.42596300  0.82204381  0.31536237  1
  Si0+  Si99  1  0.67453327  0.42767175  0.34874371  1
  Si0+  Si100  1  0.42828767  0.32322648  0.65309468  1
  Si0+  Si101  1  0.07164379  0.17912576  0.31815418  1
  Si0+  Si102  1  0.57074687  0.68031631  0.98257595  1
  Si0+  Si103  1  0.07299013  0.68161857  0.98554457  1
  Si0+  Si104  1  0.82386329  0.07089220  0.01176249  1
  Si0+  Si105  1  0.07402963  0.67955216  0.65255081  1
  Si0+  Si106  1  0.42809739  0.82212086  0.98490317  1
  Si0+  Si107  1  0.43052746  0.32175364  0.98567965  1
  Si0+  Si108  1  0.17659747  0.92587658  0.68434759  1
  Si0+  Si109  1  0.82550651  0.07309615  0.68188012  1
  Si0+  Si110  1  0.17488945  0.92700427  0.01676722  1
  Si0+  Si111  1  0.57031312  0.17385381  0.31605990  1
  Si0+  Si112  1  0.32306163  0.57150134  0.34946685  1
  Si0+  Si113  1  0.42704900  0.82286307  0.64984823  1
  Si0+  Si114  1  0.18099327  0.43160441  0.68172149  1
  Si0+  Si115  1  0.17794645  0.92440940  0.35085866  1
  Si0+  Si116  1  0.18091237  0.43028013  0.35163785  1
  Si0+  Si117  1  0.32164267  0.57407494  0.67853003  1
  Si0+  Si118  1  0.92656705  0.81957766  0.98295151  1
  Si0+  Si119  1  0.07557923  0.67628201  0.31608498  1
  O2-  O120  1  0.23743433  0.00138822  0.06018995  1
  O2-  O121  1  0.24379349  -0.00464882  0.39529147  1
  O2-  O122  1  0.24074400  -0.00138385  0.72808202  1
  O2-  O123  1  0.25411857  0.50095463  0.06664640  1
  O2-  O124  1  0.25208412  0.50181993  0.39392610  1
  O2-  O125  1  0.25252250  0.50294929  0.72263426  1
  O2-  O126  1  0.75552526  0.00342251  0.05837688  1
  O2-  O127  1  0.74935011  0.00384375  0.39806786  1
  O2-  O128  1  0.75363000  0.00809265  0.72797511  1
  O2-  O129  1  0.75502829  0.49093830  0.06574911  1
  O2-  O130  1  0.74829272  0.49015840  0.39359015  1
  O2-  O131  1  0.75363493  0.49326719  0.72877833  1
  O2-  O132  1  -0.00361682  0.23977609  0.27393959  1
  O2-  O133  1  -0.00538602  0.24476337  0.60061285  1
  O2-  O134  1  -0.00219491  0.24912990  0.93598061  1
  O2-  O135  1  0.00668030  0.74481180  0.27238739  1
  O2-  O136  1  0.00033792  0.74765207  0.61147960  1
  O2-  O137  1  -0.00078717  0.74924287  0.94163916  1
  O2-  O138  1  0.50368367  0.24424905  0.27081061  1
  O2-  O139  1  0.49928993  0.25683865  0.60959924  1
  O2-  O140  1  0.50186831  0.25123556  0.94395674  1
  O2-  O141  1  0.49808370  0.75757602  0.27060438  1
  O2-  O142  1  0.49659486  0.75558390  0.60550853  1
  O2-  O143  1  0.49627361  0.74902889  0.94145209  1
  O2-  O144  1  0.07098600  0.18025564  0.09892531  1
  O2-  O145  1  0.07415580  0.18376060  0.42354850  1
  O2-  O146  1  0.07410245  0.18489732  0.76325689  1
  O2-  O147  1  0.07659454  0.68531674  0.09022109  1
  O2-  O148  1  0.07843430  0.67808938  0.42210473  1
  O2-  O149  1  0.07991816  0.68177720  0.75739296  1
  O2-  O150  1  0.56439494  0.17281652  0.09210621  1
  O2-  O151  1  0.56806169  0.17438517  0.42167528  1
  O2-  O152  1  0.56472495  0.17365215  0.76755269  1
  O2-  O153  1  0.57124593  0.68264483  0.08750323  1
  O2-  O154  1  0.57019560  0.68013425  0.43002659  1
  O2-  O155  1  0.56705324  0.68132461  0.76668049  1
  O2-  O156  1  0.18170355  0.43091787  0.24701318  1
  O2-  O157  1  0.18169194  0.43323407  0.57632997  1
  O2-  O158  1  0.18281887  0.43213299  0.90261280  1
  O2-  O159  1  0.17979530  0.92103300  0.24533891  1
  O2-  O160  1  0.17923067  0.91844414  0.57932665  1
  O2-  O161  1  0.17890667  0.91972143  0.91164020  1
  O2-  O162  1  0.67295265  0.43088866  0.24331298  1
  O2-  O163  1  0.67176741  0.43088346  0.56528608  1
  O2-  O164  1  0.67430894  0.42716377  0.90215252  1
  O2-  O165  1  0.68238786  0.92933345  0.23584442  1
  O2-  O166  1  0.68420515  0.92891574  0.56830491  1
  O2-  O167  1  0.67830496  0.92971651  0.90074029  1
  O2-  O168  1  0.42955760  0.31970863  0.09073688  1
  O2-  O169  1  0.42968435  0.31892686  0.43236651  1
  O2-  O170  1  0.42589288  0.32351231  0.75882243  1
  O2-  O171  1  0.42794268  0.82253088  0.08970263  1
  O2-  O172  1  0.42029176  0.81790836  0.42065205  1
  O2-  O173  1  0.42435321  0.81984610  0.75574973  1
  O2-  O174  1  0.92865940  0.32145228  0.09787950  1
  O2-  O175  1  0.93192188  0.32477868  0.43170381  1
  O2-  O176  1  0.93253518  0.32597042  0.76400002  1
  O2-  O177  1  0.92740597  0.82008445  0.08782822  1
  O2-  O178  1  0.93228314  0.81701488  0.43283404  1
  O2-  O179  1  0.92992046  0.81879846  0.75800038  1
  O2-  O180  1  0.31575467  0.07127971  0.23648122  1
  O2-  O181  1  0.31718193  0.07016814  0.56870969  1
  O2-  O182  1  0.32051495  0.06847828  0.90175999  1
  O2-  O183  1  0.32045940  0.57245855  0.24484867  1
  O2-  O184  1  0.31921543  0.57379741  0.57333615  1
  O2-  O185  1  0.32055336  0.57324331  0.90005793  1
  O2-  O186  1  0.82206106  0.07087312  0.23237814  1
  O2-  O187  1  0.82613420  0.06858283  0.57654816  1
  O2-  O188  1  0.82240722  0.06722236  0.90612152  1
  O2-  O189  1  0.82015734  0.56684504  0.23475655  1
  O2-  O190  1  0.82053325  0.57205487  0.56776992  1
  O2-  O191  1  0.81605743  0.57218177  0.90270141  1
  O2-  O192  1  0.05890142  0.08173844  0.27576295  1
  O2-  O193  1  0.05607254  0.07605143  0.60130216  1
  O2-  O194  1  0.05321126  0.07815373  0.93188765  1
  O2-  O195  1  0.05099122  0.58243074  0.27180834  1
  O2-  O196  1  0.05107587  0.58711787  0.60494020  1
  O2-  O197  1  0.04909242  0.58891026  0.93879197  1
  O2-  O198  1  0.54088024  0.07999789  0.27229163  1
  O2-  O199  1  0.53310255  0.08291351  0.59903151  1
  O2-  O200  1  0.53327914  0.08477026  0.94047186  1
  O2-  O201  1  0.53733570  0.58640197  0.26049692  1
  O2-  O202  1  0.53826593  0.58558524  0.59700397  1
  O2-  O203  1  0.54474912  0.58736925  0.93636762  1
  O2-  O204  1  0.16241113  0.21423355  0.27191134  1
  O2-  O205  1  0.16874257  0.21581789  0.59718825  1
  O2-  O206  1  0.17109503  0.21306556  0.93453182  1
  O2-  O207  1  0.16941744  0.70171961  0.26988215  1
  O2-  O208  1  0.16389928  0.70999819  0.60114954  1
  O2-  O209  1  0.16355517  0.71301671  0.93599725  1
  O2-  O210  1  0.66441333  0.19549347  0.26979987  1
  O2-  O211  1  0.66725114  0.19947879  0.59670195  1
  O2-  O212  1  0.66089635  0.19524848  0.93893977  1
  O2-  O213  1  0.66728076  0.71110970  0.26128251  1
  O2-  O214  1  0.66765113  0.71324584  0.60117753  1
  O2-  O215  1  0.66089099  0.71324683  0.93537212  1
  O2-  O216  1  0.08397440  0.46172841  0.07079042  1
  O2-  O217  1  0.09084809  0.45991282  0.40103606  1
  O2-  O218  1  0.09112197  0.46150481  0.73051769  1
  O2-  O219  1  0.07816494  0.94598523  0.05873149  1
  O2-  O220  1  0.08349036  0.94641594  0.39572302  1
  O2-  O221  1  0.08105720  0.94496416  0.72892317  1
  O2-  O222  1  0.58234353  0.45841774  0.06973902  1
  O2-  O223  1  0.58192041  0.45908330  0.39345940  1
  O2-  O224  1  0.57965720  0.45984023  0.73345641  1
  O2-  O225  1  0.58421445  0.95924478  0.07044121  1
  O2-  O226  1  0.57992447  0.94888377  0.40166433  1
  O2-  O227  1  0.58293133  0.95917113  0.73379386  1
  O2-  O228  1  0.21033125  0.33380774  0.07242794  1
  O2-  O229  1  0.21176715  0.34036060  0.40017281  1
  O2-  O230  1  0.21007533  0.34137118  0.73006052  1
  O2-  O231  1  0.20593326  0.83742758  0.06759534  1
  O2-  O232  1  0.20553073  0.83115571  0.39797606  1
  O2-  O233  1  0.20719296  0.83417053  0.73377701  1
  O2-  O234  1  0.69558883  0.32204365  0.06579202  1
  O2-  O235  1  0.69213713  0.33039678  0.38927838  1
  O2-  O236  1  0.69642799  0.32390761  0.72744310  1
  O2-  O237  1  0.71181546  0.83434448  0.06731528  1
  O2-  O238  1  0.71521852  0.83066305  0.39968993  1
  O2-  O239  1  0.71446908  0.83646931  0.73672018  1
  O2-  O240  1  0.45636763  0.41490715  0.26240535  1
  O2-  O241  1  0.44925179  0.41765669  0.60615864  1
  O2-  O242  1  0.45572104  0.41520091  0.93986682  1
  O2-  O243  1  0.44742908  0.91810981  0.27304802  1
  O2-  O244  1  0.45138630  0.91702559  0.60625075  1
  O2-  O245  1  0.45946006  0.91321884  0.93779791  1
  O2-  O246  1  0.96735214  0.41536307  0.26598144  1
  O2-  O247  1  0.96599292  0.41974341  0.59818301  1
  O2-  O248  1  0.95858348  0.42306942  0.93504738  1
  O2-  O249  1  0.96240572  0.91552963  0.26284030  1
  O2-  O250  1  0.95627669  0.91016945  0.60357993  1
  O2-  O251  1  0.95256069  0.91049642  0.93268065  1
  O2-  O252  1  0.33239274  0.28706429  0.26582708  1
  O2-  O253  1  0.33608231  0.29502688  0.60560813  1
  O2-  O254  1  0.33865189  0.29385919  0.93875420  1
  O2-  O255  1  0.33404173  0.79263670  0.26676451  1
  O2-  O256  1  0.33376870  0.79741627  0.60219085  1
  O2-  O257  1  0.33499384  0.79835154  0.93720833  1
  O2-  O258  1  0.82860310  0.29813664  0.26553098  1
  O2-  O259  1  0.82854880  0.30161506  0.59809411  1
  O2-  O260  1  0.82689722  0.29652412  0.93184693  1
  O2-  O261  1  0.83663889  0.78702700  0.26325764  1
  O2-  O262  1  0.83812206  0.78986951  0.60494662  1
  O2-  O263  1  0.83544985  0.78812665  0.93590434  1
  O2-  O264  1  0.41043320  0.03373283  0.07233677  1
  O2-  O265  1  0.41385633  0.04035174  0.40478540  1
  O2-  O266  1  0.41230351  0.03775074  0.73760011  1
  O2-  O267  1  0.42187208  0.55021478  0.06589243  1
  O2-  O268  1  0.41494602  0.54106718  0.39457686  1
  O2-  O269  1  0.41346381  0.54866363  0.72584638  1
  O2-  O270  1  0.91808860  0.04515997  0.05614324  1
  O2-  O271  1  0.92219256  0.04386218  0.39799533  1
  O2-  O272  1  0.91879040  0.04418567  0.72736790  1
  O2-  O273  1  0.92203150  0.55332415  0.06687620  1
  O2-  O274  1  0.92022361  0.54189681  0.39993629  1
  O2-  O275  1  0.92348180  0.54860408  0.73227306  1
  O2-  O276  1  0.29255587  0.16790011  0.06909773  1
  O2-  O277  1  0.28664359  0.16764783  0.40384155  1
  O2-  O278  1  0.28931207  0.16920635  0.73506858  1
  O2-  O279  1  0.29260124  0.67233186  0.06767603  1
  O2-  O280  1  0.29614245  0.66321985  0.39801070  1
  O2-  O281  1  0.29307331  0.66595680  0.72548834  1
  O2-  O282  1  0.79886913  0.16474708  0.05606871  1
  O2-  O283  1  0.79637938  0.17323790  0.39794278  1
  O2-  O284  1  0.80309355  0.16871103  0.72358408  1
  O2-  O285  1  0.78480864  0.66526727  0.06917542  1
  O2-  O286  1  0.78855893  0.66379617  0.39843774  1
  O2-  O287  1  0.79087559  0.66690734  0.73550260  1
