# generated using pymatgen
data_Ca2Al2SiO7
_symmetry_space_group_name_H-M   'P 1'
_cell_length_a   15.46136179
_cell_length_b   15.46100453
_cell_length_c   15.28586870
_cell_angle_alpha   89.99611320
_cell_angle_beta   90.00481628
_cell_angle_gamma   89.97097435
_symmetry_Int_Tables_number   1
_chemical_formula_structural   Ca2Al2SiO7
_chemical_formula_sum   'Ca48 Al48 Si24 O168'
_cell_volume   3654.05867487
_cell_formula_units_Z   24
loop_
 _symmetry_equiv_pos_site_id
 _symmetry_equiv_pos_as_xyz
  1  'x, y, z'
loop_
 _atom_type_symbol
 _atom_type_oxidation_number
  Ca2+  2.0
  Al0+  0.0
  Si0+  0.0
  O2-  -2.0
loop_
 _atom_site_type_symbol
 _atom_site_label
 _atom_site_symmetry_multiplicity
 _atom_site_fract_x
 _atom_site_fract_y
 _atom_site_fract_z
 _atom_site_occupancy
  Ca2+  Ca0  1  0.16457376  0.08111529  0.17557487  1
  Ca2+  Ca1  1  0.16908799  0.08074081  0.50445446  1
  Ca2+  Ca2  1  0.17463623  0.09064061  0.83782587  1
  Ca2+  Ca3  1  0.17209444  0.58367546  0.17350602  1
  Ca2+  Ca4  1  0.17402135  0.58524229  0.50292452  1
  Ca2+  Ca5  1  0.16442986  0.58465172  0.83822244  1
  Ca2+  Ca6  1  0.66164144  0.08253737  0.17366592  1
  Ca2+  Ca7  1  0.66143795  0.08141409  0.50454378  1
  Ca2+  Ca8  1  0.66834271  0.09606157  0.83341219  1
  Ca2+  Ca9  1  0.66962052  0.56975521  0.17983481  1
  Ca2+  Ca10  1  0.66668102  0.58175435  0.50077146  1
  Ca2+  Ca11  1  0.66408569  0.57515226  0.84027798  1
  Ca2+  Ca12  1  0.07390836  0.32588892  0.16275252  1
  Ca2+  Ca13  1  0.07097880  0.32599572  0.49207636  1
  Ca2+  Ca14  1  0.07147316  0.33083914  0.83008086  1
  Ca2+  Ca15  1  0.08603270  0.82860473  0.16379527  1
  Ca2+  Ca16  1  0.08558972  0.83212167  0.49661296  1
  Ca2+  Ca17  1  0.08445624  0.82154053  0.83160914  1
  Ca2+  Ca18  1  0.58838006  0.32789930  0.16189258  1
  Ca2+  Ca19  1  0.58498748  0.32150422  0.49511127  1
  Ca2+  Ca20  1  0.57715827  0.32927195  0.83042175  1
  Ca2+  Ca21  1  0.57461894  0.83224024  0.16748370  1
  Ca2+  Ca22  1  0.58193039  0.82492829  0.48850045  1
  Ca2+  Ca23  1  0.57898765  0.82759387  0.82945154  1
  Ca2+  Ca24  1  0.33523127  0.42164943  0.17283391  1
  Ca2+  Ca25  1  0.33782653  0.42060323  0.50406812  1
  Ca2+  Ca26  1  0.33721174  0.41371822  0.83872520  1
  Ca2+  Ca27  1  0.33063895  0.91302072  0.17564378  1
  Ca2+  Ca28  1  0.33195907  0.92019187  0.50052423  1
  Ca2+  Ca29  1  0.33825720  0.92353541  0.83591619  1
  Ca2+  Ca30  1  0.82773369  0.41425078  0.17266913  1
  Ca2+  Ca31  1  0.83107404  0.41260232  0.49760148  1
  Ca2+  Ca32  1  0.82823489  0.40971066  0.84001548  1
  Ca2+  Ca33  1  0.82393738  0.91971969  0.17692006  1
  Ca2+  Ca34  1  0.82537965  0.92533561  0.50454974  1
  Ca2+  Ca35  1  0.83203085  0.92594786  0.83503090  1
  Ca2+  Ca36  1  0.42964880  0.17239771  0.15986877  1
  Ca2+  Ca37  1  0.42075610  0.16745002  0.49811408  1
  Ca2+  Ca38  1  0.42473328  0.17555077  0.82624303  1
  Ca2+  Ca39  1  0.41546928  0.67460026  0.16897913  1
  Ca2+  Ca40  1  0.42815965  0.66859346  0.49104296  1
  Ca2+  Ca41  1  0.42187126  0.67379192  0.82903859  1
  Ca2+  Ca42  1  0.92439184  0.17510566  0.16333147  1
  Ca2+  Ca43  1  0.91299842  0.17495846  0.49371629  1
  Ca2+  Ca44  1  0.91314541  0.17747422  0.82874612  1
  Ca2+  Ca45  1  0.91870159  0.66336193  0.16509483  1
  Ca2+  Ca46  1  0.92168582  0.66226768  0.49466361  1
  Ca2+  Ca47  1  0.92922064  0.66170961  0.82894411  1
  Al0+  Al48  1  0.00148916  -0.00129747  -0.00223583  1
  Al0+  Al49  1  0.00063448  -0.00207803  0.33555829  1
  Al0+  Al50  1  -0.00136985  -0.00170368  0.67489580  1
  Al0+  Al51  1  0.00134545  0.49999208  -0.00574377  1
  Al0+  Al52  1  0.00018096  0.49935988  0.33269200  1
  Al0+  Al53  1  0.00099043  0.49965605  0.65809173  1
  Al0+  Al54  1  0.50009507  0.00000146  -0.00720095  1
  Al0+  Al55  1  0.49841897  -0.00010217  0.33055122  1
  Al0+  Al56  1  0.49762624  -0.00069366  0.67015959  1
  Al0+  Al57  1  0.50077231  0.50101869  0.00424183  1
  Al0+  Al58  1  0.50113164  0.49975412  0.33938545  1
  Al0+  Al59  1  0.49953899  0.50184418  0.66279096  1
  Al0+  Al60  1  0.25081608  0.25104271  -0.00155281  1
  Al0+  Al61  1  0.24960405  0.24951055  0.33083289  1
  Al0+  Al62  1  0.24841415  0.25109032  0.66821723  1
  Al0+  Al63  1  0.25052051  0.75125220  -0.00818236  1
  Al0+  Al64  1  0.25028370  0.75045751  0.34033890  1
  Al0+  Al65  1  0.24966279  0.74899049  0.66489519  1
  Al0+  Al66  1  0.75155612  0.24943402  0.00002239  1
  Al0+  Al67  1  0.75030571  0.25100614  0.32856723  1
  Al0+  Al68  1  0.74852460  0.25044481  0.66344974  1
  Al0+  Al69  1  0.75058181  0.75195012  0.00087106  1
  Al0+  Al70  1  0.75086821  0.74908447  0.33693026  1
  Al0+  Al71  1  0.75199825  0.74987890  0.66698102  1
  Al0+  Al72  1  0.42964110  0.32449821  0.98760117  1
  Al0+  Al73  1  0.67653292  0.93005493  0.34553604  1
  Al0+  Al74  1  0.07240452  0.17594170  0.98389225  1
  Al0+  Al75  1  0.93020802  0.31964761  0.98410936  1
  Al0+  Al76  1  0.42845256  0.81962538  0.32001336  1
  Al0+  Al77  1  0.81858982  0.07218062  0.68057748  1
  Al0+  Al78  1  0.07215099  0.17583839  0.32038993  1
  Al0+  Al79  1  0.31969635  0.07166701  0.68186483  1
  Al0+  Al80  1  0.56932965  0.17915457  0.31974358  1
  Al0+  Al81  1  0.92928683  0.32185472  0.31605691  1
  Al0+  Al82  1  0.82274682  0.57089880  0.34895643  1
  Al0+  Al83  1  0.57266793  0.68008948  0.65392372  1
  Al0+  Al84  1  0.56936569  0.17929387  0.65048782  1
  Al0+  Al85  1  0.57165873  0.17889301  0.98416470  1
  Al0+  Al86  1  0.67902781  0.42629515  0.35128654  1
  Al0+  Al87  1  0.42601743  0.32190768  0.65056413  1
  Al0+  Al88  1  0.17809903  0.92923978  0.34682826  1
  Al0+  Al89  1  0.06952852  0.68043362  0.98860368  1
  Al0+  Al90  1  0.07070134  0.67994879  0.64994790  1
  Al0+  Al91  1  0.67995179  0.42943433  0.01328190  1
  Al0+  Al92  1  0.32029886  0.57025142  0.34759665  1
  Al0+  Al93  1  0.92820708  0.31974294  0.65083224  1
  Al0+  Al94  1  0.57411412  0.67693511  0.31707499  1
  Al0+  Al95  1  0.42899980  0.82029112  0.98519631  1
  Si0+  Si96  1  0.67764056  0.92820137  0.01531875  1
  Si0+  Si97  1  0.32147527  0.07319272  0.34813506  1
  Si0+  Si98  1  0.42679214  0.32338637  0.31773217  1
  Si0+  Si99  1  0.32173653  0.07148219  0.01571674  1
  Si0+  Si100  1  0.92516777  0.82305290  0.98334215  1
  Si0+  Si101  1  0.17822605  0.42666898  0.34983753  1
  Si0+  Si102  1  0.67745350  0.92616153  0.68479073  1
  Si0+  Si103  1  0.92860863  0.82114698  0.31992447  1
  Si0+  Si104  1  0.31976122  0.57328850  0.01367473  1
  Si0+  Si105  1  0.07162274  0.68024858  0.31967253  1
  Si0+  Si106  1  0.57344676  0.67871598  0.98598226  1
  Si0+  Si107  1  0.07139493  0.17622211  0.65185962  1
  Si0+  Si108  1  0.82149618  0.07060555  0.34772507  1
  Si0+  Si109  1  0.82368422  0.57139761  0.68222252  1
  Si0+  Si110  1  0.17819519  0.42927559  0.01460778  1
  Si0+  Si111  1  0.17797323  0.92596493  0.68726737  1
  Si0+  Si112  1  0.42827449  0.82186724  0.64931923  1
  Si0+  Si113  1  0.92873161  0.82357596  0.64958214  1
  Si0+  Si114  1  0.17797502  0.43116973  0.68203122  1
  Si0+  Si115  1  0.67942309  0.43137254  0.68187184  1
  Si0+  Si116  1  0.32137789  0.57097547  0.68399464  1
  Si0+  Si117  1  0.82171866  0.06973845  0.01609088  1
  Si0+  Si118  1  0.82414381  0.57314822  0.01412497  1
  Si0+  Si119  1  0.18110313  0.92821451  0.01417056  1
  O2-  O120  1  0.24837094  0.00204527  0.05754429  1
  O2-  O121  1  0.24964169  0.00718056  0.39202427  1
  O2-  O122  1  0.24447323  -0.00299239  0.73068402  1
  O2-  O123  1  0.25141363  0.49923418  0.05565173  1
  O2-  O124  1  0.24906508  0.49233336  0.39539444  1
  O2-  O125  1  0.25110207  0.49953051  0.72675495  1
  O2-  O126  1  0.74921871  -0.00079204  0.05700210  1
  O2-  O127  1  0.74907523  0.00637337  0.39277444  1
  O2-  O128  1  0.74272577  -0.00164226  0.72921107  1
  O2-  O129  1  0.75439964  0.50627129  0.05769819  1
  O2-  O130  1  0.74992016  0.50066901  0.40023419  1
  O2-  O131  1  0.75101834  0.50258449  0.72490909  1
  O2-  O132  1  0.00225284  0.24882990  0.26969900  1
  O2-  O133  1  -0.00040336  0.24033587  0.60692758  1
  O2-  O134  1  0.00050657  0.24676030  0.93272000  1
  O2-  O135  1  -0.00150273  0.74880794  0.27727206  1
  O2-  O136  1  -0.00310188  0.75537725  0.60395657  1
  O2-  O137  1  -0.00856693  0.75118308  0.94082534  1
  O2-  O138  1  0.49655987  0.25615646  0.27374471  1
  O2-  O139  1  0.49599858  0.24910007  0.59988350  1
  O2-  O140  1  0.50016744  0.25237919  0.93654163  1
  O2-  O141  1  0.50105074  0.74887425  0.26849410  1
  O2-  O142  1  0.50062601  0.75693183  0.60700022  1
  O2-  O143  1  0.50575155  0.74714168  0.93990249  1
  O2-  O144  1  0.07017875  0.17493810  0.09724696  1
  O2-  O145  1  0.07071794  0.17589029  0.43422130  1
  O2-  O146  1  0.07192392  0.18021476  0.75737814  1
  O2-  O147  1  0.07185477  0.68262733  0.10172875  1
  O2-  O148  1  0.07164207  0.68212947  0.42462956  1
  O2-  O149  1  0.07014109  0.68024843  0.76343439  1
  O2-  O150  1  0.56961646  0.17669448  0.09778856  1
  O2-  O151  1  0.56695926  0.17693609  0.43246525  1
  O2-  O152  1  0.57039125  0.18429637  0.76380001  1
  O2-  O153  1  0.57385258  0.68019938  0.09079183  1
  O2-  O154  1  0.57259796  0.68036714  0.43089270  1
  O2-  O155  1  0.56945124  0.67971498  0.76791746  1
  O2-  O156  1  0.17858160  0.42966369  0.24387508  1
  O2-  O157  1  0.17808212  0.43378329  0.57710958  1
  O2-  O158  1  0.17642044  0.43200381  0.90931479  1
  O2-  O159  1  0.17914897  0.92656026  0.23327120  1
  O2-  O160  1  0.17797145  0.92518538  0.58177216  1
  O2-  O161  1  0.18332764  0.92583025  0.90928211  1
  O2-  O162  1  0.68102663  0.42626013  0.23735091  1
  O2-  O163  1  0.68013333  0.43179414  0.57736043  1
  O2-  O164  1  0.67940192  0.43214530  0.89944574  1
  O2-  O165  1  0.67896865  0.93125768  0.23179640  1
  O2-  O166  1  0.67981067  0.92440072  0.57939602  1
  O2-  O167  1  0.68036226  0.92373346  0.91034924  1
  O2-  O168  1  0.42879856  0.32366393  0.10107911  1
  O2-  O169  1  0.42393475  0.31998239  0.42304754  1
  O2-  O170  1  0.42855620  0.32334319  0.76417091  1
  O2-  O171  1  0.42608206  0.81863903  0.09768794  1
  O2-  O172  1  0.42863886  0.81889076  0.43349645  1
  O2-  O173  1  0.42786567  0.81910877  0.75549298  1
  O2-  O174  1  0.93235549  0.31993575  0.09694113  1
  O2-  O175  1  0.93096198  0.31962351  0.42988158  1
  O2-  O176  1  0.92954208  0.32145786  0.76390024  1
  O2-  O177  1  0.92467064  0.82465102  0.08894686  1
  O2-  O178  1  0.93092188  0.82314232  0.42483775  1
  O2-  O179  1  0.92907171  0.82173496  0.75551067  1
  O2-  O180  1  0.32142192  0.07219680  0.24237126  1
  O2-  O181  1  0.31754328  0.06944009  0.56868664  1
  O2-  O182  1  0.32059079  0.06971053  0.91058342  1
  O2-  O183  1  0.31563350  0.57177379  0.23370360  1
  O2-  O184  1  0.31962924  0.57196156  0.57919948  1
  O2-  O185  1  0.31815379  0.57448492  0.90833606  1
  O2-  O186  1  0.82352915  0.06549001  0.24188581  1
  O2-  O187  1  0.81961736  0.06890230  0.56766461  1
  O2-  O188  1  0.82156089  0.06828289  0.91082545  1
  O2-  O189  1  0.82475873  0.57073015  0.23487438  1
  O2-  O190  1  0.82390059  0.57187907  0.57773943  1
  O2-  O191  1  0.82357162  0.57418539  0.90819436  1
  O2-  O192  1  0.04333898  0.07712607  0.26769990  1
  O2-  O193  1  0.05067806  0.07888519  0.61219388  1
  O2-  O194  1  0.04869764  0.07599474  0.93167032  1
  O2-  O195  1  0.04732418  0.58775964  0.27250231  1
  O2-  O196  1  0.04031294  0.58502079  0.59428168  1
  O2-  O197  1  0.04242954  0.58491228  0.93055731  1
  O2-  O198  1  0.53704656  0.08401868  0.26394938  1
  O2-  O199  1  0.54350901  0.07763171  0.60346480  1
  O2-  O200  1  0.54415440  0.08149213  0.92931836  1
  O2-  O201  1  0.54414345  0.57754237  0.26791545  1
  O2-  O202  1  0.53939102  0.58589780  0.59889526  1
  O2-  O203  1  0.54587622  0.58598988  0.93993449  1
  O2-  O204  1  0.17086363  0.20221288  0.26622570  1
  O2-  O205  1  0.16317495  0.20524444  0.60518554  1
  O2-  O206  1  0.17057234  0.20648847  0.93295687  1
  O2-  O207  1  0.16200518  0.71194825  0.27274338  1
  O2-  O208  1  0.16792667  0.71012108  0.59728237  1
  O2-  O209  1  0.16277154  0.71446999  0.92999058  1
  O2-  O210  1  0.66658197  0.20626426  0.26578152  1
  O2-  O211  1  0.66681604  0.20844017  0.59722975  1
  O2-  O212  1  0.67070929  0.20623972  0.93389910  1
  O2-  O213  1  0.67317396  0.70541836  0.26614713  1
  O2-  O214  1  0.67117322  0.70650177  0.60235875  1
  O2-  O215  1  0.66743184  0.70369894  0.93897094  1
  O2-  O216  1  0.08759240  0.46103705  0.06236559  1
  O2-  O217  1  0.08622104  0.45575070  0.39638064  1
  O2-  O218  1  0.08692107  0.46386769  0.72903607  1
  O2-  O219  1  0.08658235  0.94977710  0.06004267  1
  O2-  O220  1  0.08140446  0.95582178  0.40375989  1
  O2-  O221  1  0.08317914  0.94578239  0.73363702  1
  O2-  O222  1  0.58376749  0.45939164  0.06911862  1
  O2-  O223  1  0.58015179  0.45081969  0.40437526  1
  O2-  O224  1  0.58744413  0.46166213  0.72853551  1
  O2-  O225  1  0.58492931  0.95652989  0.06003282  1
  O2-  O226  1  0.57975108  0.95868507  0.39978707  1
  O2-  O227  1  0.58205960  0.94613313  0.72930571  1
  O2-  O228  1  0.20418494  0.33728987  0.06262144  1
  O2-  O229  1  0.20005461  0.33159774  0.39479641  1
  O2-  O230  1  0.20119003  0.33855290  0.72987215  1
  O2-  O231  1  0.21257746  0.83685195  0.06107393  1
  O2-  O232  1  0.21083461  0.83552904  0.40512111  1
  O2-  O233  1  0.20776673  0.83245864  0.73267873  1
  O2-  O234  1  0.71211655  0.33285194  0.06659261  1
  O2-  O235  1  0.71135471  0.32804926  0.40320025  1
  O2-  O236  1  0.70803657  0.33956017  0.72835278  1
  O2-  O237  1  0.70554020  0.83667053  0.06453388  1
  O2-  O238  1  0.71027766  0.83514361  0.40028235  1
  O2-  O239  1  0.70835984  0.83426040  0.73340299  1
  O2-  O240  1  0.44982313  0.41839517  0.27481861  1
  O2-  O241  1  0.45363959  0.42099236  0.59990748  1
  O2-  O242  1  0.45607367  0.42398604  0.93487615  1
  O2-  O243  1  0.45431898  0.91763363  0.26548463  1
  O2-  O244  1  0.44848572  0.91708525  0.60616073  1
  O2-  O245  1  0.45978695  0.91518302  0.92887509  1
  O2-  O246  1  0.95984421  0.42002661  0.26357103  1
  O2-  O247  1  0.96276639  0.41390508  0.59576376  1
  O2-  O248  1  0.95840517  0.41786479  0.93028181  1
  O2-  O249  1  0.95790775  0.91120967  0.27012102  1
  O2-  O250  1  0.95488139  0.91751436  0.60478305  1
  O2-  O251  1  0.95529634  0.91396396  0.93481055  1
  O2-  O252  1  0.33305745  0.29936047  0.27043385  1
  O2-  O253  1  0.32592107  0.29636462  0.59968266  1
  O2-  O254  1  0.33062298  0.29863614  0.93520725  1
  O2-  O255  1  0.32985204  0.78760164  0.26812863  1
  O2-  O256  1  0.33536091  0.79338253  0.60459808  1
  O2-  O257  1  0.33560727  0.78747137  0.92654427  1
  O2-  O258  1  0.83233185  0.29269002  0.26233496  1
  O2-  O259  1  0.83193341  0.29049481  0.59736618  1
  O2-  O260  1  0.83270725  0.28941066  0.93126565  1
  O2-  O261  1  0.83750477  0.79447491  0.27111798  1
  O2-  O262  1  0.83487509  0.79905433  0.60463358  1
  O2-  O263  1  0.83118981  0.80128298  0.93587188  1
  O2-  O264  1  0.41377414  0.04034308  0.06057510  1
  O2-  O265  1  0.41262756  0.04298021  0.39580628  1
  O2-  O266  1  0.41543467  0.03958900  0.73838620  1
  O2-  O267  1  0.41207435  0.55013619  0.06178365  1
  O2-  O268  1  0.41678764  0.54370475  0.40305413  1
  O2-  O269  1  0.41384459  0.54506755  0.73146330  1
  O2-  O270  1  0.91373102  0.03935510  0.06227585  1
  O2-  O271  1  0.91252731  0.04018507  0.39628877  1
  O2-  O272  1  0.91414862  0.04012349  0.73816653  1
  O2-  O273  1  0.91858347  0.54775760  0.05881847  1
  O2-  O274  1  0.92209080  0.54278019  0.40178261  1
  O2-  O275  1  0.91622659  0.54124282  0.72749975  1
  O2-  O276  1  0.29678407  0.16440987  0.06239759  1
  O2-  O277  1  0.29864387  0.16746459  0.39453498  1
  O2-  O278  1  0.28839833  0.16852530  0.73648987  1
  O2-  O279  1  0.28626781  0.66403292  0.05996664  1
  O2-  O280  1  0.28485514  0.66341281  0.40500512  1
  O2-  O281  1  0.29146067  0.66303668  0.73099976  1
  O2-  O282  1  0.79563007  0.16130595  0.06369626  1
  O2-  O283  1  0.79971786  0.16581428  0.38977329  1
  O2-  O284  1  0.78721527  0.16893199  0.73499563  1
  O2-  O285  1  0.80268354  0.66880024  0.05914280  1
  O2-  O286  1  0.79917820  0.67025497  0.40280930  1
  O2-  O287  1  0.80054163  0.66480475  0.72989655  1
