# generated using pymatgen
data_Ca2Al2SiO7
_symmetry_space_group_name_H-M   'P 1'
_cell_length_a   15.46948850
_cell_length_b   15.46492224
_cell_length_c   15.28932927
_cell_angle_alpha   90.00311066
_cell_angle_beta   90.00218632
_cell_angle_gamma   90.03679020
_symmetry_Int_Tables_number   1
_chemical_formula_structural   Ca2Al2SiO7
_chemical_formula_sum   'Ca48 Al48 Si24 O168'
_cell_volume   3657.73331416
_cell_formula_units_Z   24
loop_
 _symmetry_equiv_pos_site_id
 _symmetry_equiv_pos_as_xyz
  1  'x, y, z'
loop_
 _atom_type_symbol
 _atom_type_oxidation_number
  Ca2+  2.0
  Al0+  0.0
  Si0+  0.0
  O2-  -2.0
loop_
 _atom_site_type_symbol
 _atom_site_label
 _atom_site_symmetry_multiplicity
 _atom_site_fract_x
 _atom_site_fract_y
 _atom_site_fract_z
 _atom_site_occupancy
  Ca2+  Ca0  1  0.16767826  0.08035863  0.16872689  1
  Ca2+  Ca1  1  0.17113304  0.07952767  0.50337343  1
  Ca2+  Ca2  1  0.17960173  0.08226704  0.84369056  1
  Ca2+  Ca3  1  0.17725331  0.57780573  0.16723391  1
  Ca2+  Ca4  1  0.17883631  0.58333320  0.50261525  1
  Ca2+  Ca5  1  0.18052904  0.57600860  0.83930961  1
  Ca2+  Ca6  1  0.65770580  0.07341408  0.17273744  1
  Ca2+  Ca7  1  0.64897638  0.07626568  0.50314439  1
  Ca2+  Ca8  1  0.65298376  0.07259316  0.83386623  1
  Ca2+  Ca9  1  0.67358458  0.57667062  0.16760665  1
  Ca2+  Ca10  1  0.67663689  0.57855647  0.50815744  1
  Ca2+  Ca11  1  0.66887017  0.56947455  0.83848991  1
  Ca2+  Ca12  1  0.08946717  0.32398965  0.15809676  1
  Ca2+  Ca13  1  0.08214614  0.32637035  0.49351410  1
  Ca2+  Ca14  1  0.09016282  0.33168930  0.83527816  1
  Ca2+  Ca15  1  0.08591910  0.83624901  0.16015476  1
  Ca2+  Ca16  1  0.08173064  0.83301853  0.49185155  1
  Ca2+  Ca17  1  0.08389437  0.83382642  0.83155012  1
  Ca2+  Ca18  1  0.58032776  0.32917453  0.15883634  1
  Ca2+  Ca19  1  0.58304920  0.32678499  0.49929954  1
  Ca2+  Ca20  1  0.57666658  0.33307296  0.82534144  1
  Ca2+  Ca21  1  0.58023434  0.83553520  0.16510037  1
  Ca2+  Ca22  1  0.57172483  0.83977401  0.49558228  1
  Ca2+  Ca23  1  0.58107152  0.83288860  0.82541998  1
  Ca2+  Ca24  1  0.33726156  0.42286243  0.16410969  1
  Ca2+  Ca25  1  0.34073543  0.42695994  0.50588226  1
  Ca2+  Ca26  1  0.34010806  0.42283275  0.84236617  1
  Ca2+  Ca27  1  0.32509415  0.92148337  0.17085911  1
  Ca2+  Ca28  1  0.33481650  0.91910638  0.50474333  1
  Ca2+  Ca29  1  0.33701189  0.93016357  0.83701066  1
  Ca2+  Ca30  1  0.83325368  0.42442499  0.16807987  1
  Ca2+  Ca31  1  0.82786377  0.42376989  0.50760820  1
  Ca2+  Ca32  1  0.82229929  0.42224313  0.83763364  1
  Ca2+  Ca33  1  0.81936262  0.91594150  0.16950521  1
  Ca2+  Ca34  1  0.81749563  0.91880944  0.50294685  1
  Ca2+  Ca35  1  0.81920279  0.91674093  0.83685349  1
  Ca2+  Ca36  1  0.41867391  0.17081343  0.15994142  1
  Ca2+  Ca37  1  0.42343400  0.16845210  0.50229073  1
  Ca2+  Ca38  1  0.41391514  0.17736241  0.82640365  1
  Ca2+  Ca39  1  0.40695792  0.67158807  0.16433297  1
  Ca2+  Ca40  1  0.41030204  0.67602944  0.49470506  1
  Ca2+  Ca41  1  0.41114937  0.67268347  0.82529251  1
  Ca2+  Ca42  1  0.93103076  0.16159079  0.16143554  1
  Ca2+  Ca43  1  0.92334484  0.16745241  0.49171604  1
  Ca2+  Ca44  1  0.92628268  0.16354604  0.83290647  1
  Ca2+  Ca45  1  0.91263418  0.66410954  0.16041187  1
  Ca2+  Ca46  1  0.91372673  0.66314896  0.49503717  1
  Ca2+  Ca47  1  0.91492335  0.65919482  0.83005096  1
  Al0+  Al48  1  -0.00130723  -0.00163718  -0.00506359  1
  Al0+  Al49  1  -0.00155265  -0.00138404  0.33262678  1
  Al0+  Al50  1  -0.00232764  -0.00268844  0.66418224  1
  Al0+  Al51  1  0.00188891  0.49984856  0.00398589  1
  Al0+  Al52  1  0.00110305  0.50063306  0.33638566  1
  Al0+  Al53  1  0.00203680  0.49928586  0.66718483  1
  Al0+  Al54  1  0.49823827  -0.00107983  0.00841241  1
  Al0+  Al55  1  0.49634909  0.00006685  0.32800049  1
  Al0+  Al56  1  0.49642301  -0.00086907  0.66850318  1
  Al0+  Al57  1  0.50349967  0.50175063  0.00560473  1
  Al0+  Al58  1  0.50182819  0.50166622  0.33765399  1
  Al0+  Al59  1  0.50188333  0.50217555  0.66919750  1
  Al0+  Al60  1  0.25278603  0.25029133  -0.00156540  1
  Al0+  Al61  1  0.25015127  0.25032150  0.32969333  1
  Al0+  Al62  1  0.25044156  0.24943850  0.66275546  1
  Al0+  Al63  1  0.24834109  0.75105948  0.00176136  1
  Al0+  Al64  1  0.24759304  0.75075130  0.33554472  1
  Al0+  Al65  1  0.24699529  0.74846196  0.66543480  1
  Al0+  Al66  1  0.75254370  0.24795145  0.00137020  1
  Al0+  Al67  1  0.75087569  0.24999668  0.32675555  1
  Al0+  Al68  1  0.75296614  0.24795192  0.66543290  1
  Al0+  Al69  1  0.74920864  0.75156242  0.00488755  1
  Al0+  Al70  1  0.74831972  0.75091458  0.34106521  1
  Al0+  Al71  1  0.75188008  0.75229095  0.67179693  1
  Al0+  Al72  1  0.17726370  0.93017150  0.01286366  1
  Al0+  Al73  1  0.42697175  0.81901305  0.31773813  1
  Al0+  Al74  1  0.31867153  0.07047089  0.67906984  1
  Al0+  Al75  1  0.32358664  0.57299737  0.01450102  1
  Al0+  Al76  1  0.32106246  0.57067067  0.34802341  1
  Al0+  Al77  1  0.07071245  0.17822700  0.31923939  1
  Al0+  Al78  1  0.67923400  0.42599166  0.68075893  1
  Al0+  Al79  1  0.67875731  0.42509945  0.01638149  1
  Al0+  Al80  1  0.67819508  0.93268827  0.67953633  1
  Al0+  Al81  1  0.18068637  0.42794160  0.01402171  1
  Al0+  Al82  1  0.07142071  0.17861121  0.98422313  1
  Al0+  Al83  1  0.82100893  0.56996777  0.34810451  1
  Al0+  Al84  1  0.32124343  0.57157329  0.67949839  1
  Al0+  Al85  1  0.67855289  0.93079320  0.01465133  1
  Al0+  Al86  1  0.82063936  0.57022241  0.01450497  1
  Al0+  Al87  1  0.17743873  0.93048674  0.34779049  1
  Al0+  Al88  1  0.56958032  0.17999742  0.31838107  1
  Al0+  Al89  1  0.43289031  0.32185618  0.98743513  1
  Al0+  Al90  1  0.42834472  0.81899777  0.65437754  1
  Al0+  Al91  1  0.42818344  0.32498398  0.65113907  1
  Al0+  Al92  1  0.67642280  0.93205683  0.34862052  1
  Al0+  Al93  1  0.57128598  0.17867770  0.65410972  1
  Al0+  Al94  1  0.32122985  0.07236291  0.01658899  1
  Al0+  Al95  1  0.82323827  0.57094887  0.68179007  1
  Si0+  Si96  1  0.17918764  0.42719228  0.68094190  1
  Si0+  Si97  1  0.57335263  0.17522565  0.98461790  1
  Si0+  Si98  1  0.32067922  0.07355259  0.35127620  1
  Si0+  Si99  1  0.92765805  0.82136501  0.64904357  1
  Si0+  Si100  1  0.92685949  0.81921470  0.31786465  1
  Si0+  Si101  1  0.57333281  0.67856621  0.31728989  1
  Si0+  Si102  1  0.57515407  0.67941966  0.65111620  1
  Si0+  Si103  1  0.17901541  0.42684111  0.35057428  1
  Si0+  Si104  1  0.07127825  0.67822564  0.98391432  1
  Si0+  Si105  1  0.67884264  0.42527019  0.35064736  1
  Si0+  Si106  1  0.57302295  0.68181646  0.98616390  1
  Si0+  Si107  1  0.92698769  0.81898390  0.98361628  1
  Si0+  Si108  1  0.82655007  0.07201019  0.68332207  1
  Si0+  Si109  1  0.06963598  0.67910224  0.31699895  1
  Si0+  Si110  1  0.82397192  0.07103199  0.01610698  1
  Si0+  Si111  1  0.82140466  0.07235444  0.34819601  1
  Si0+  Si112  1  0.93104749  0.32101558  0.65195773  1
  Si0+  Si113  1  0.92962606  0.32374431  0.31567210  1
  Si0+  Si114  1  0.17498898  0.92757905  0.68215751  1
  Si0+  Si115  1  0.42762026  0.82025077  0.98507338  1
  Si0+  Si116  1  0.42889481  0.32586758  0.31601329  1
  Si0+  Si117  1  0.07110450  0.17686083  0.65126949  1
  Si0+  Si118  1  0.06884542  0.67854376  0.65014048  1
  Si0+  Si119  1  0.92872703  0.32370421  0.98178790  1
  O2-  O120  1  0.24688794  0.00197371  0.06525003  1
  O2-  O121  1  0.25081157  0.00539669  0.39522299  1
  O2-  O122  1  0.24231750  -0.00306535  0.72538349  1
  O2-  O123  1  0.25346585  0.49885513  0.06375771  1
  O2-  O124  1  0.25024551  0.49225399  0.39520205  1
  O2-  O125  1  0.25360753  0.48986427  0.72414656  1
  O2-  O126  1  0.74931631  0.00954973  0.06057751  1
  O2-  O127  1  0.74725601  0.01123680  0.39448634  1
  O2-  O128  1  0.75114799  0.00983218  0.72569152  1
  O2-  O129  1  0.75269402  0.49573263  0.06558444  1
  O2-  O130  1  0.74776572  0.49435943  0.39417218  1
  O2-  O131  1  0.74925213  0.50095321  0.72975323  1
  O2-  O132  1  -0.00276203  0.25398828  0.27193553  1
  O2-  O133  1  0.00019811  0.24800977  0.60920263  1
  O2-  O134  1  -0.00250588  0.25464394  0.93719979  1
  O2-  O135  1  -0.00313335  0.74806690  0.27432113  1
  O2-  O136  1  -0.00284386  0.74876014  0.60704456  1
  O2-  O137  1  -0.00157397  0.74793794  0.94154144  1
  O2-  O138  1  0.49756515  0.25708709  0.27236382  1
  O2-  O139  1  0.50291939  0.25419965  0.60327368  1
  O2-  O140  1  0.50916236  0.24803257  0.94109353  1
  O2-  O141  1  0.50124190  0.74308304  0.27150319  1
  O2-  O142  1  0.50299767  0.74441700  0.60647825  1
  O2-  O143  1  0.49784366  0.74838432  0.94316712  1
  O2-  O144  1  0.06743641  0.17742769  0.09726247  1
  O2-  O145  1  0.06806384  0.17976416  0.43312799  1
  O2-  O146  1  0.06987413  0.17584495  0.75602038  1
  O2-  O147  1  0.07150765  0.67959297  0.08906409  1
  O2-  O148  1  0.06861640  0.67996968  0.42250864  1
  O2-  O149  1  0.06934438  0.67973083  0.75513792  1
  O2-  O150  1  0.57078114  0.17506817  0.09027362  1
  O2-  O151  1  0.56729884  0.18060678  0.43139043  1
  O2-  O152  1  0.56814833  0.17714694  0.76750291  1
  O2-  O153  1  0.57621202  0.68523989  0.09117187  1
  O2-  O154  1  0.57416472  0.68057876  0.42291266  1
  O2-  O155  1  0.57609611  0.68248609  0.75694775  1
  O2-  O156  1  0.17649695  0.42815083  0.24557451  1
  O2-  O157  1  0.17464899  0.43040239  0.57513765  1
  O2-  O158  1  0.18029004  0.43145096  0.90009602  1
  O2-  O159  1  0.17676547  0.93078611  0.23525279  1
  O2-  O160  1  0.17277136  0.92887277  0.57634713  1
  O2-  O161  1  0.17844225  0.92966759  0.89905340  1
  O2-  O162  1  0.67967635  0.42581801  0.24539332  1
  O2-  O163  1  0.68375596  0.42620410  0.56677218  1
  O2-  O164  1  0.67893946  0.42677827  0.90298196  1
  O2-  O165  1  0.68028497  0.93032922  0.23562780  1
  O2-  O166  1  0.67929152  0.93308398  0.56654956  1
  O2-  O167  1  0.67946009  0.92922342  0.90139360  1
  O2-  O168  1  0.43422667  0.32079986  0.10083955  1
  O2-  O169  1  0.42882551  0.32677841  0.42158746  1
  O2-  O170  1  0.42615149  0.32318456  0.76456368  1
  O2-  O171  1  0.42720171  0.81928001  0.09016625  1
  O2-  O172  1  0.42776873  0.81924093  0.43117775  1
  O2-  O173  1  0.42932284  0.81918034  0.76773545  1
  O2-  O174  1  0.92949847  0.32340729  0.08737052  1
  O2-  O175  1  0.93107888  0.32295875  0.42184426  1
  O2-  O176  1  0.93321602  0.32216754  0.75657282  1
  O2-  O177  1  0.92605763  0.81843876  0.08877245  1
  O2-  O178  1  0.92828604  0.81867939  0.42321499  1
  O2-  O179  1  0.92928790  0.82477897  0.75404921  1
  O2-  O180  1  0.31928955  0.07343257  0.24602608  1
  O2-  O181  1  0.31630764  0.06946274  0.56579672  1
  O2-  O182  1  0.32227134  0.07011662  0.90264907  1
  O2-  O183  1  0.31743748  0.57068648  0.23546236  1
  O2-  O184  1  0.31568509  0.57433523  0.56640947  1
  O2-  O185  1  0.32044280  0.57538393  0.90083103  1
  O2-  O186  1  0.82417014  0.06742980  0.24291660  1
  O2-  O187  1  0.83602825  0.06762461  0.57821504  1
  O2-  O188  1  0.82725066  0.06727207  0.91040264  1
  O2-  O189  1  0.82095071  0.56951710  0.23542937  1
  O2-  O190  1  0.82363788  0.56824616  0.56797190  1
  O2-  O191  1  0.81821795  0.57016730  0.90128153  1
  O2-  O192  1  0.03644190  0.08217782  0.26583716  1
  O2-  O193  1  0.04168403  0.08496796  0.60396089  1
  O2-  O194  1  0.03710230  0.08306172  0.92863071  1
  O2-  O195  1  0.04384645  0.58605132  0.27102940  1
  O2-  O196  1  0.04250699  0.58650337  0.60173080  1
  O2-  O197  1  0.04465678  0.58601314  0.93652049  1
  O2-  O198  1  0.53626992  0.08485498  0.26346540  1
  O2-  O199  1  0.53457200  0.08256207  0.60069997  1
  O2-  O200  1  0.54268953  0.08151650  0.94100552  1
  O2-  O201  1  0.55289622  0.58266519  0.27358003  1
  O2-  O202  1  0.55485211  0.58447658  0.60641366  1
  O2-  O203  1  0.55044980  0.58783442  0.94142987  1
  O2-  O204  1  0.16759108  0.20726320  0.26532160  1
  O2-  O205  1  0.16146903  0.20429565  0.60148883  1
  O2-  O206  1  0.16788942  0.20929950  0.93070433  1
  O2-  O207  1  0.15993006  0.70963323  0.26954363  1
  O2-  O208  1  0.15901643  0.70818168  0.60024616  1
  O2-  O209  1  0.16164456  0.70916163  0.93461815  1
  O2-  O210  1  0.66862285  0.20387053  0.26450121  1
  O2-  O211  1  0.67335817  0.19758646  0.60217824  1
  O2-  O212  1  0.67054971  0.19204681  0.94221114  1
  O2-  O213  1  0.66577555  0.70964604  0.27147354  1
  O2-  O214  1  0.66848462  0.70833993  0.60549481  1
  O2-  O215  1  0.66245809  0.71516175  0.93704473  1
  O2-  O216  1  0.08333442  0.45638094  0.06864823  1
  O2-  O217  1  0.08677308  0.45557573  0.39852517  1
  O2-  O218  1  0.08876117  0.45864672  0.72947414  1
  O2-  O219  1  0.07677540  0.95453834  0.06322289  1
  O2-  O220  1  0.07967834  0.95925432  0.40178110  1
  O2-  O221  1  0.08051632  0.95124154  0.72722957  1
  O2-  O222  1  0.58428356  0.45866225  0.07298435  1
  O2-  O223  1  0.58582431  0.45085940  0.39716363  1
  O2-  O224  1  0.58158209  0.45468679  0.73413433  1
  O2-  O225  1  0.58273588  0.95690019  0.07105983  1
  O2-  O226  1  0.57798105  0.96179113  0.39901339  1
  O2-  O227  1  0.58196991  0.96051283  0.73489325  1
  O2-  O228  1  0.20772777  0.33000476  0.06639949  1
  O2-  O229  1  0.20117075  0.33176463  0.39551555  1
  O2-  O230  1  0.19681171  0.33101600  0.72340947  1
  O2-  O231  1  0.20444620  0.83208937  0.06600845  1
  O2-  O232  1  0.20624526  0.83374407  0.40214574  1
  O2-  O233  1  0.19915676  0.83336341  0.72624137  1
  O2-  O234  1  0.70528887  0.32548701  0.06794271  1
  O2-  O235  1  0.70618485  0.33132870  0.39511778  1
  O2-  O236  1  0.71014121  0.32789306  0.73268076  1
  O2-  O237  1  0.71474064  0.83738233  0.07058216  1
  O2-  O238  1  0.71114026  0.83779591  0.40398280  1
  O2-  O239  1  0.71286336  0.83808918  0.73494679  1
  O2-  O240  1  0.45500534  0.42004365  0.27121811  1
  O2-  O241  1  0.45592739  0.42460315  0.59951740  1
  O2-  O242  1  0.46197979  0.42098350  0.93647087  1
  O2-  O243  1  0.45725346  0.91491542  0.26307906  1
  O2-  O244  1  0.45961884  0.91477680  0.59973220  1
  O2-  O245  1  0.45804495  0.91283188  0.94068164  1
  O2-  O246  1  0.95742500  0.41732434  0.27072300  1
  O2-  O247  1  0.96218557  0.41146871  0.60241714  1
  O2-  O248  1  0.95590025  0.41726829  0.93616758  1
  O2-  O249  1  0.95431046  0.91074207  0.27022107  1
  O2-  O250  1  0.95684844  0.91167915  0.59848907  1
  O2-  O251  1  0.95417596  0.90958825  0.93338345  1
  O2-  O252  1  0.33474684  0.30047148  0.27103290  1
  O2-  O253  1  0.33004574  0.29505665  0.59637847  1
  O2-  O254  1  0.33643499  0.29248206  0.93256611  1
  O2-  O255  1  0.32961370  0.78759117  0.26523133  1
  O2-  O256  1  0.33061440  0.78924901  0.60064671  1
  O2-  O257  1  0.33551456  0.79383194  0.93734666  1
  O2-  O258  1  0.83600194  0.30144334  0.26892088  1
  O2-  O259  1  0.84019311  0.29474818  0.60194597  1
  O2-  O260  1  0.83517870  0.29649453  0.93562252  1
  O2-  O261  1  0.83437994  0.79087488  0.27214557  1
  O2-  O262  1  0.83538458  0.79516515  0.60167531  1
  O2-  O263  1  0.83537907  0.79026900  0.93574862  1
  O2-  O264  1  0.41652176  0.04091776  0.07288049  1
  O2-  O265  1  0.41317720  0.04390185  0.39601887  1
  O2-  O266  1  0.41210804  0.03652256  0.73559256  1
  O2-  O267  1  0.42195660  0.54977166  0.06832717  1
  O2-  O268  1  0.41962129  0.54639503  0.40154573  1
  O2-  O269  1  0.42045383  0.55191720  0.73143851  1
  O2-  O270  1  0.91410700  0.03693033  0.06353688  1
  O2-  O271  1  0.91189288  0.04031155  0.39715576  1
  O2-  O272  1  0.91625028  0.03786159  0.73342267  1
  O2-  O273  1  0.92024134  0.54621724  0.06670848  1
  O2-  O274  1  0.91880492  0.54158420  0.40193618  1
  O2-  O275  1  0.92148370  0.54021251  0.73357780  1
  O2-  O276  1  0.29478104  0.17060076  0.06820183  1
  O2-  O277  1  0.29590881  0.16810076  0.39600867  1
  O2-  O278  1  0.28816125  0.16776153  0.73172798  1
  O2-  O279  1  0.28876732  0.66912923  0.06750990  1
  O2-  O280  1  0.28337925  0.66502108  0.40178667  1
  O2-  O281  1  0.28189250  0.66533562  0.73425124  1
  O2-  O282  1  0.80920613  0.16698353  0.06028647  1
  O2-  O283  1  0.80484823  0.16966812  0.38984235  1
  O2-  O284  1  0.81047461  0.16795987  0.72652929  1
  O2-  O285  1  0.79021248  0.66765965  0.06794793  1
  O2-  O286  1  0.79044449  0.66594768  0.40328583  1
  O2-  O287  1  0.80175692  0.67159393  0.73192858  1
