# generated using pymatgen
data_Ca2Al2SiO7
_symmetry_space_group_name_H-M   'P 1'
_cell_length_a   15.46198734
_cell_length_b   15.46293522
_cell_length_c   15.28702272
_cell_angle_alpha   90.01467466
_cell_angle_beta   89.99873853
_cell_angle_gamma   89.99272996
_symmetry_Int_Tables_number   1
_chemical_formula_structural   Ca2Al2SiO7
_chemical_formula_sum   'Ca48 Al48 Si24 O168'
_cell_volume   3654.93908172
_cell_formula_units_Z   24
loop_
 _symmetry_equiv_pos_site_id
 _symmetry_equiv_pos_as_xyz
  1  'x, y, z'
loop_
 _atom_type_symbol
 _atom_type_oxidation_number
  Ca2+  2.0
  Al0+  0.0
  Si0+  0.0
  O2-  -2.0
loop_
 _atom_site_type_symbol
 _atom_site_label
 _atom_site_symmetry_multiplicity
 _atom_site_fract_x
 _atom_site_fract_y
 _atom_site_fract_z
 _atom_site_occupancy
  Ca2+  Ca0  1  0.17043581  0.08960125  0.17064877  1
  Ca2+  Ca1  1  0.16279131  0.07481710  0.50295433  1
  Ca2+  Ca2  1  0.17032822  0.08241750  0.83934810  1
  Ca2+  Ca3  1  0.16695438  0.57424726  0.16720349  1
  Ca2+  Ca4  1  0.17607918  0.58331457  0.50828408  1
  Ca2+  Ca5  1  0.17424600  0.57624281  0.83470274  1
  Ca2+  Ca6  1  0.66566863  0.08176395  0.17215894  1
  Ca2+  Ca7  1  0.66894444  0.07504048  0.51086159  1
  Ca2+  Ca8  1  0.66421188  0.08713250  0.83018914  1
  Ca2+  Ca9  1  0.66618402  0.57563410  0.17679690  1
  Ca2+  Ca10  1  0.66532730  0.57299807  0.50645080  1
  Ca2+  Ca11  1  0.67065137  0.57513386  0.82886782  1
  Ca2+  Ca12  1  0.07655195  0.32580793  0.15723550  1
  Ca2+  Ca13  1  0.06833667  0.32831264  0.49215948  1
  Ca2+  Ca14  1  0.07849099  0.33182524  0.83129559  1
  Ca2+  Ca15  1  0.08682335  0.83485690  0.16792007  1
  Ca2+  Ca16  1  0.08040640  0.83957562  0.49960996  1
  Ca2+  Ca17  1  0.07947811  0.83369268  0.82128813  1
  Ca2+  Ca18  1  0.57884448  0.32818873  0.15834729  1
  Ca2+  Ca19  1  0.58656527  0.33468883  0.50061423  1
  Ca2+  Ca20  1  0.57803547  0.32289211  0.82329321  1
  Ca2+  Ca21  1  0.58387161  0.83153570  0.16818984  1
  Ca2+  Ca22  1  0.57646399  0.83450857  0.49252346  1
  Ca2+  Ca23  1  0.57732167  0.83306603  0.82145901  1
  Ca2+  Ca24  1  0.32604482  0.40535978  0.16561100  1
  Ca2+  Ca25  1  0.33601114  0.42389424  0.51091168  1
  Ca2+  Ca26  1  0.33571358  0.41456079  0.83829870  1
  Ca2+  Ca27  1  0.33034519  0.92563048  0.17461210  1
  Ca2+  Ca28  1  0.32510648  0.90753215  0.50618626  1
  Ca2+  Ca29  1  0.33113375  0.92187071  0.83447852  1
  Ca2+  Ca30  1  0.83010786  0.41022403  0.17302739  1
  Ca2+  Ca31  1  0.82558914  0.41518387  0.50906368  1
  Ca2+  Ca32  1  0.83284760  0.40892307  0.83219959  1
  Ca2+  Ca33  1  0.82592743  0.92291931  0.17574334  1
  Ca2+  Ca34  1  0.82295233  0.92087979  0.51277205  1
  Ca2+  Ca35  1  0.83209901  0.92331959  0.82848321  1
  Ca2+  Ca36  1  0.42275046  0.16809796  0.15396710  1
  Ca2+  Ca37  1  0.42349734  0.16876898  0.50406061  1
  Ca2+  Ca38  1  0.42215035  0.17234924  0.83020270  1
  Ca2+  Ca39  1  0.42059255  0.67305584  0.17075593  1
  Ca2+  Ca40  1  0.42082610  0.67485284  0.49625865  1
  Ca2+  Ca41  1  0.41418283  0.67199115  0.82248779  1
  Ca2+  Ca42  1  0.92607371  0.17548694  0.16263892  1
  Ca2+  Ca43  1  0.91436270  0.17299037  0.49758257  1
  Ca2+  Ca44  1  0.91939508  0.17401174  0.82643794  1
  Ca2+  Ca45  1  0.91698761  0.67004921  0.16325294  1
  Ca2+  Ca46  1  0.90629292  0.67228297  0.50333657  1
  Ca2+  Ca47  1  0.91721313  0.67080630  0.82297794  1
  Al0+  Al48  1  -0.00253120  -0.00066975  -0.00070359  1
  Al0+  Al49  1  0.00214736  0.00111557  0.33181745  1
  Al0+  Al50  1  -0.00113018  -0.00271973  0.67038600  1
  Al0+  Al51  1  0.00114710  0.50293719  0.00104549  1
  Al0+  Al52  1  -0.00061759  0.50229180  0.33061374  1
  Al0+  Al53  1  0.00227785  0.49954833  0.66421214  1
  Al0+  Al54  1  0.49876457  -0.00239502  0.00136443  1
  Al0+  Al55  1  0.49829329  0.00179362  0.33335973  1
  Al0+  Al56  1  0.49711002  -0.00003437  0.66150651  1
  Al0+  Al57  1  0.50190422  0.50354583  -0.00038514  1
  Al0+  Al58  1  0.50037614  0.50137877  0.33224182  1
  Al0+  Al59  1  0.49996510  0.50093861  0.67376091  1
  Al0+  Al60  1  0.24964923  0.24936073  0.00169306  1
  Al0+  Al61  1  0.24950596  0.24993934  0.33512826  1
  Al0+  Al62  1  0.25062142  0.24830014  0.66068095  1
  Al0+  Al63  1  0.24997383  0.74871647  0.00196794  1
  Al0+  Al64  1  0.24998713  0.75130607  0.33072252  1
  Al0+  Al65  1  0.24988977  0.74837427  0.67239843  1
  Al0+  Al66  1  0.75065081  0.24865561  -0.00395849  1
  Al0+  Al67  1  0.74922071  0.25130055  0.33327226  1
  Al0+  Al68  1  0.75080822  0.24792877  0.66641568  1
  Al0+  Al69  1  0.74980778  0.74930381  0.00086794  1
  Al0+  Al70  1  0.74938521  0.74975084  0.33130370  1
  Al0+  Al71  1  0.75022207  0.74856101  0.67037524  1
  Al0+  Al72  1  0.57161061  0.67896364  0.31853480  1
  Al0+  Al73  1  0.67525859  0.92863330  0.68127789  1
  Al0+  Al74  1  0.17983383  0.92956553  0.68080057  1
  Al0+  Al75  1  0.57137701  0.17907069  0.64933162  1
  Al0+  Al76  1  0.42893394  0.32323123  0.65091143  1
  Al0+  Al77  1  0.18047798  0.43047721  0.01340626  1
  Al0+  Al78  1  0.42778494  0.82026795  0.65423926  1
  Al0+  Al79  1  0.92744994  0.32235899  0.31775116  1
  Al0+  Al80  1  0.32088876  0.56939307  0.67968357  1
  Al0+  Al81  1  0.93081497  0.32131400  0.65194172  1
  Al0+  Al82  1  0.82092554  0.07093222  0.68221431  1
  Al0+  Al83  1  0.67899202  0.42933955  0.34567743  1
  Al0+  Al84  1  0.07150104  0.17725509  0.98361127  1
  Al0+  Al85  1  0.92983024  0.32305026  0.98362529  1
  Al0+  Al86  1  0.92867713  0.81998871  0.65315694  1
  Al0+  Al87  1  0.67959177  0.42730722  0.68376602  1
  Al0+  Al88  1  0.42890413  0.32268364  0.98682052  1
  Al0+  Al89  1  0.57130531  0.17605562  0.98518415  1
  Al0+  Al90  1  0.31995790  0.06906455  0.01305265  1
  Al0+  Al91  1  0.42761551  0.82291659  0.31666924  1
  Al0+  Al92  1  0.18043742  0.92968848  0.34745364  1
  Al0+  Al93  1  0.82347730  0.57005922  0.68129208  1
  Al0+  Al94  1  0.67829719  0.92920285  0.34632442  1
  Al0+  Al95  1  0.07165480  0.17844008  0.31810132  1
  Si0+  Si96  1  0.42893287  0.81859516  0.98510854  1
  Si0+  Si97  1  0.31913091  0.56993664  0.34679832  1
  Si0+  Si98  1  0.82420073  0.57327888  0.34897126  1
  Si0+  Si99  1  0.68028268  0.42905249  0.01475498  1
  Si0+  Si100  1  0.07244006  0.17526747  0.64984515  1
  Si0+  Si101  1  0.07168781  0.68054940  0.98495927  1
  Si0+  Si102  1  0.42890960  0.32330419  0.31924856  1
  Si0+  Si103  1  0.57343364  0.68007354  0.98320856  1
  Si0+  Si104  1  0.17732104  0.42874186  0.34863712  1
  Si0+  Si105  1  0.92891000  0.82094478  0.31883249  1
  Si0+  Si106  1  0.07296864  0.67936787  0.31746247  1
  Si0+  Si107  1  0.82161793  0.07132362  0.34838631  1
  Si0+  Si108  1  0.92754872  0.81998226  0.98584067  1
  Si0+  Si109  1  0.17584243  0.92649132  0.01704993  1
  Si0+  Si110  1  0.32288245  0.07482688  0.35273636  1
  Si0+  Si111  1  0.32445376  0.57489131  0.02025323  1
  Si0+  Si112  1  0.82038282  0.57281622  0.01638756  1
  Si0+  Si113  1  0.07253130  0.67845934  0.64993016  1
  Si0+  Si114  1  0.56984777  0.17987251  0.31900902  1
  Si0+  Si115  1  0.57256235  0.67831673  0.65169550  1
  Si0+  Si116  1  0.67973483  0.92743195  0.01569128  1
  Si0+  Si117  1  0.32129749  0.07372261  0.68325208  1
  Si0+  Si118  1  0.17865361  0.42523937  0.68056569  1
  Si0+  Si119  1  0.82127269  0.07139751  0.01674358  1
  O2-  O120  1  0.24210379  -0.00279680  0.06078600  1
  O2-  O121  1  0.25495451  0.00397186  0.39458317  1
  O2-  O122  1  0.25180841  0.00577682  0.72762034  1
  O2-  O123  1  0.25970273  0.50122203  0.06247483  1
  O2-  O124  1  0.24969558  0.49818042  0.39054173  1
  O2-  O125  1  0.25138663  0.48947756  0.72522295  1
  O2-  O126  1  0.74782921  0.00152320  0.05797607  1
  O2-  O127  1  0.75367593  0.00232375  0.39264585  1
  O2-  O128  1  0.74562156  0.00147466  0.73264642  1
  O2-  O129  1  0.75313862  0.49833199  0.05819989  1
  O2-  O130  1  0.75651199  0.50263124  0.38990893  1
  O2-  O131  1  0.75590478  0.49564435  0.73395479  1
  O2-  O132  1  0.00196515  0.25283871  0.26856375  1
  O2-  O133  1  0.00487339  0.24532844  0.60625625  1
  O2-  O134  1  0.00093270  0.25026011  0.93373463  1
  O2-  O135  1  -0.00013622  0.74947442  0.27615606  1
  O2-  O136  1  0.00144317  0.74400474  0.60470737  1
  O2-  O137  1  0.00393173  0.75469894  0.94431251  1
  O2-  O138  1  0.49835471  0.25069543  0.27717140  1
  O2-  O139  1  0.50297143  0.25484948  0.59883084  1
  O2-  O140  1  0.50147689  0.25135587  0.93758102  1
  O2-  O141  1  0.50355711  0.75440813  0.26683812  1
  O2-  O142  1  0.50695781  0.75016770  0.60805832  1
  O2-  O143  1  0.49845808  0.74690801  0.94201707  1
  O2-  O144  1  0.06874697  0.17752530  0.09724705  1
  O2-  O145  1  0.07005815  0.17855653  0.43160492  1
  O2-  O146  1  0.07360186  0.17643538  0.75535580  1
  O2-  O147  1  0.07066049  0.68041170  0.09061089  1
  O2-  O148  1  0.07631438  0.67790088  0.42182356  1
  O2-  O149  1  0.07316682  0.68074267  0.75590778  1
  O2-  O150  1  0.57111552  0.17681116  0.09988760  1
  O2-  O151  1  0.57015950  0.17947887  0.42332600  1
  O2-  O152  1  0.56679332  0.17826830  0.76279461  1
  O2-  O153  1  0.57591489  0.68146418  0.08824250  1
  O2-  O154  1  0.56838169  0.67648144  0.43148983  1
  O2-  O155  1  0.57017115  0.67934772  0.75800664  1
  O2-  O156  1  0.17820629  0.43020032  0.24337774  1
  O2-  O157  1  0.17837969  0.42946005  0.57456018  1
  O2-  O158  1  0.17909837  0.43584589  0.90069641  1
  O2-  O159  1  0.18156904  0.92865205  0.23413469  1
  O2-  O160  1  0.18044277  0.92906794  0.56760023  1
  O2-  O161  1  0.17757442  0.92272446  0.91187008  1
  O2-  O162  1  0.67828404  0.42985451  0.23179224  1
  O2-  O163  1  0.67865968  0.43106629  0.56992338  1
  O2-  O164  1  0.67967905  0.43170805  0.91047766  1
  O2-  O165  1  0.68158966  0.93134490  0.23216885  1
  O2-  O166  1  0.67759101  0.92857647  0.56753545  1
  O2-  O167  1  0.68135913  0.92267332  0.91144393  1
  O2-  O168  1  0.43211230  0.32090111  0.10147786  1
  O2-  O169  1  0.42906755  0.32558991  0.42382297  1
  O2-  O170  1  0.42740531  0.32072245  0.76417232  1
  O2-  O171  1  0.42966664  0.81798936  0.09009390  1
  O2-  O172  1  0.42466316  0.81747113  0.42970259  1
  O2-  O173  1  0.42728633  0.81732828  0.76809509  1
  O2-  O174  1  0.92934021  0.32191827  0.09734002  1
  O2-  O175  1  0.92800721  0.32191212  0.43107238  1
  O2-  O176  1  0.93529066  0.32201690  0.76478960  1
  O2-  O177  1  0.92564419  0.81730043  0.09153891  1
  O2-  O178  1  0.92822088  0.82000259  0.42332374  1
  O2-  O179  1  0.93188713  0.81878872  0.76678045  1
  O2-  O180  1  0.32324174  0.07570096  0.24683520  1
  O2-  O181  1  0.31965017  0.07462965  0.57763618  1
  O2-  O182  1  0.32127045  0.06416380  0.90037262  1
  O2-  O183  1  0.31699584  0.56916613  0.24152773  1
  O2-  O184  1  0.31800352  0.57162588  0.56602455  1
  O2-  O185  1  0.32125427  0.58077330  0.91526174  1
  O2-  O186  1  0.81969420  0.06936007  0.24200500  1
  O2-  O187  1  0.82224139  0.06752395  0.56817513  1
  O2-  O188  1  0.82427303  0.06886964  0.91249943  1
  O2-  O189  1  0.82486727  0.57489294  0.24272222  1
  O2-  O190  1  0.82021545  0.57035208  0.56758295  1
  O2-  O191  1  0.81845730  0.57867169  0.91229999  1
  O2-  O192  1  0.04404627  0.08029941  0.26321169  1
  O2-  O193  1  0.04398397  0.08190621  0.60556416  1
  O2-  O194  1  0.04318184  0.07738663  0.93309428  1
  O2-  O195  1  0.04520802  0.58845793  0.26729268  1
  O2-  O196  1  0.05278647  0.58421055  0.60318806  1
  O2-  O197  1  0.04135824  0.59099115  0.93628361  1
  O2-  O198  1  0.54256531  0.08855485  0.26997680  1
  O2-  O199  1  0.53786192  0.08265984  0.59471318  1
  O2-  O200  1  0.54156809  0.07721864  0.93449356  1
  O2-  O201  1  0.53739994  0.58292470  0.26199096  1
  O2-  O202  1  0.54264969  0.58589845  0.60699387  1
  O2-  O203  1  0.55013454  0.58723956  0.93674179  1
  O2-  O204  1  0.17149099  0.20685712  0.26705174  1
  O2-  O205  1  0.16608479  0.19730232  0.60237768  1
  O2-  O206  1  0.17055194  0.20407370  0.93310288  1
  O2-  O207  1  0.16203179  0.70931952  0.26588619  1
  O2-  O208  1  0.16457295  0.70871452  0.60385916  1
  O2-  O209  1  0.16500481  0.70472437  0.93855843  1
  O2-  O210  1  0.66159974  0.20699822  0.27091057  1
  O2-  O211  1  0.67139487  0.20182377  0.59821310  1
  O2-  O212  1  0.67018266  0.20121405  0.93378634  1
  O2-  O213  1  0.67089579  0.70389833  0.26349719  1
  O2-  O214  1  0.66728764  0.69868776  0.60718076  1
  O2-  O215  1  0.66369349  0.71191651  0.93555542  1
  O2-  O216  1  0.08611904  0.46868243  0.06951675  1
  O2-  O217  1  0.08589025  0.45982011  0.39454568  1
  O2-  O218  1  0.08787399  0.45614553  0.72841733  1
  O2-  O219  1  0.07993851  0.94724094  0.06125845  1
  O2-  O220  1  0.08234753  0.95858770  0.40018268  1
  O2-  O221  1  0.08321469  0.95647837  0.73573222  1
  O2-  O222  1  0.58907537  0.46002804  0.06291436  1
  O2-  O223  1  0.58284108  0.46245889  0.39943844  1
  O2-  O224  1  0.58381735  0.46075595  0.73912216  1
  O2-  O225  1  0.58690451  0.95165839  0.06274196  1
  O2-  O226  1  0.58064356  0.95853841  0.39750141  1
  O2-  O227  1  0.57525260  0.95531745  0.73194352  1
  O2-  O228  1  0.20769077  0.33382151  0.06945051  1
  O2-  O229  1  0.20278981  0.33676497  0.39578589  1
  O2-  O230  1  0.19938488  0.32968878  0.72378582  1
  O2-  O231  1  0.20383826  0.83302692  0.06382881  1
  O2-  O232  1  0.20942614  0.83150760  0.39984971  1
  O2-  O233  1  0.21127244  0.83411074  0.73677264  1
  O2-  O234  1  0.70566333  0.33571519  0.06088887  1
  O2-  O235  1  0.70733952  0.33256224  0.40006389  1
  O2-  O236  1  0.70503597  0.32796272  0.73426490  1
  O2-  O237  1  0.71260006  0.83728488  0.06525956  1
  O2-  O238  1  0.70737908  0.83115385  0.39700570  1
  O2-  O239  1  0.70447488  0.83062040  0.73436487  1
  O2-  O240  1  0.45621855  0.41392677  0.26984868  1
  O2-  O241  1  0.45520422  0.42428728  0.60213895  1
  O2-  O242  1  0.45312151  0.42419229  0.93819936  1
  O2-  O243  1  0.45311154  0.92294910  0.26527211  1
  O2-  O244  1  0.45001529  0.91724243  0.59871004  1
  O2-  O245  1  0.45749310  0.90956668  0.93812572  1
  O2-  O246  1  0.95312157  0.42278613  0.26651148  1
  O2-  O247  1  0.96223080  0.41755378  0.59671485  1
  O2-  O248  1  0.95753266  0.42342195  0.93458150  1
  O2-  O249  1  0.95774939  0.91178807  0.26987577  1
  O2-  O250  1  0.96125317  0.91543763  0.59870948  1
  O2-  O251  1  0.94916646  0.91317767  0.93992328  1
  O2-  O252  1  0.33564955  0.29639469  0.27406983  1
  O2-  O253  1  0.33079288  0.29448456  0.59569370  1
  O2-  O254  1  0.33008916  0.29611864  0.93630366  1
  O2-  O255  1  0.33149365  0.78881468  0.26125165  1
  O2-  O256  1  0.33259961  0.78250928  0.60192075  1
  O2-  O257  1  0.33582972  0.79145517  0.93959726  1
  O2-  O258  1  0.82956964  0.29142095  0.26434567  1
  O2-  O259  1  0.83372172  0.29137616  0.59983559  1
  O2-  O260  1  0.83135251  0.29432353  0.93254946  1
  O2-  O261  1  0.83844817  0.79292669  0.26811852  1
  O2-  O262  1  0.83173231  0.78875394  0.59966973  1
  O2-  O263  1  0.83807901  0.78619628  0.93832281  1
  O2-  O264  1  0.41523492  0.03439161  0.06981893  1
  O2-  O265  1  0.41675607  0.05080087  0.39785316  1
  O2-  O266  1  0.41384522  0.04556055  0.72849605  1
  O2-  O267  1  0.42075466  0.55607721  0.06368719  1
  O2-  O268  1  0.41107240  0.54341453  0.39337184  1
  O2-  O269  1  0.41677639  0.54615993  0.73762965  1
  O2-  O270  1  0.91136132  0.03961322  0.06666427  1
  O2-  O271  1  0.91569993  0.04633591  0.39205816  1
  O2-  O272  1  0.91649452  0.03682169  0.73772296  1
  O2-  O273  1  0.91423781  0.55110143  0.06290403  1
  O2-  O274  1  0.91921725  0.55303221  0.39453440  1
  O2-  O275  1  0.92521934  0.54843211  0.73114124  1
  O2-  O276  1  0.29354208  0.16619093  0.06851555  1
  O2-  O277  1  0.29642541  0.16780978  0.40001164  1
  O2-  O278  1  0.29595810  0.16760552  0.72914066  1
  O2-  O279  1  0.29146713  0.66562438  0.06952962  1
  O2-  O280  1  0.28870893  0.66130271  0.39280821  1
  O2-  O281  1  0.28349212  0.66157040  0.73855644  1
  O2-  O282  1  0.79436329  0.16348776  0.06434522  1
  O2-  O283  1  0.79532688  0.16479020  0.39297915  1
  O2-  O284  1  0.79626737  0.16922539  0.73574150  1
  O2-  O285  1  0.78847506  0.66285877  0.06709891  1
  O2-  O286  1  0.79737296  0.66673327  0.39404966  1
  O2-  O287  1  0.79352301  0.66701662  0.73704030  1
