# generated using pymatgen
data_Ca2Al2SiO7
_symmetry_space_group_name_H-M   'P 1'
_cell_length_a   15.45926854
_cell_length_b   15.45871933
_cell_length_c   15.28528612
_cell_angle_alpha   89.99699918
_cell_angle_beta   89.99274021
_cell_angle_gamma   90.00633944
_symmetry_Int_Tables_number   1
_chemical_formula_structural   Ca2Al2SiO7
_chemical_formula_sum   'Ca48 Al48 Si24 O168'
_cell_volume   3652.88516363
_cell_formula_units_Z   24
loop_
 _symmetry_equiv_pos_site_id
 _symmetry_equiv_pos_as_xyz
  1  'x, y, z'
loop_
 _atom_type_symbol
 _atom_type_oxidation_number
  Ca2+  2.0
  Al0+  0.0
  Si0+  0.0
  O2-  -2.0
loop_
 _atom_site_type_symbol
 _atom_site_label
 _atom_site_symmetry_multiplicity
 _atom_site_fract_x
 _atom_site_fract_y
 _atom_site_fract_z
 _atom_site_occupancy
  Ca2+  Ca0  1  0.17391749  0.07922303  0.18033473  1
  Ca2+  Ca1  1  0.17597918  0.08907304  0.49830565  1
  Ca2+  Ca2  1  0.17662323  0.08245148  0.83465975  1
  Ca2+  Ca3  1  0.17272450  0.58211973  0.17474275  1
  Ca2+  Ca4  1  0.16061490  0.57783362  0.49620308  1
  Ca2+  Ca5  1  0.17683851  0.58139833  0.84031080  1
  Ca2+  Ca6  1  0.66277445  0.08272762  0.16725627  1
  Ca2+  Ca7  1  0.67019600  0.08077043  0.50545136  1
  Ca2+  Ca8  1  0.66921847  0.07654884  0.84154477  1
  Ca2+  Ca9  1  0.66287359  0.57170539  0.17357061  1
  Ca2+  Ca10  1  0.67796846  0.57858963  0.50039352  1
  Ca2+  Ca11  1  0.66492083  0.57926699  0.83985694  1
  Ca2+  Ca12  1  0.07994406  0.33510289  0.17296863  1
  Ca2+  Ca13  1  0.07772649  0.32840424  0.48517883  1
  Ca2+  Ca14  1  0.08020222  0.33099167  0.82905594  1
  Ca2+  Ca15  1  0.07952854  0.83505611  0.17046366  1
  Ca2+  Ca16  1  0.07522445  0.82834217  0.48556775  1
  Ca2+  Ca17  1  0.08109453  0.83059489  0.82980190  1
  Ca2+  Ca18  1  0.59103689  0.32517571  0.16403105  1
  Ca2+  Ca19  1  0.57388618  0.32780317  0.48879507  1
  Ca2+  Ca20  1  0.58208555  0.33027240  0.83258574  1
  Ca2+  Ca21  1  0.57788466  0.82617415  0.15479069  1
  Ca2+  Ca22  1  0.58108331  0.83952765  0.49925902  1
  Ca2+  Ca23  1  0.57931413  0.83808689  0.83221719  1
  Ca2+  Ca24  1  0.33366159  0.42198693  0.17555330  1
  Ca2+  Ca25  1  0.32854142  0.40369268  0.49991889  1
  Ca2+  Ca26  1  0.33875295  0.42167459  0.83736454  1
  Ca2+  Ca27  1  0.33021967  0.91982285  0.17610685  1
  Ca2+  Ca28  1  0.33189733  0.92879566  0.50254793  1
  Ca2+  Ca29  1  0.34215397  0.91710738  0.83496763  1
  Ca2+  Ca30  1  0.82211694  0.41866389  0.17678306  1
  Ca2+  Ca31  1  0.83558505  0.42265085  0.49834691  1
  Ca2+  Ca32  1  0.82585866  0.42314794  0.83952666  1
  Ca2+  Ca33  1  0.82878052  0.91798211  0.16934174  1
  Ca2+  Ca34  1  0.82963184  0.92083194  0.50744506  1
  Ca2+  Ca35  1  0.81951553  0.92580327  0.83771421  1
  Ca2+  Ca36  1  0.42620357  0.16887212  0.16856386  1
  Ca2+  Ca37  1  0.41788290  0.17038122  0.49081993  1
  Ca2+  Ca38  1  0.42508848  0.16775058  0.82571765  1
  Ca2+  Ca39  1  0.41943217  0.67082569  0.15445882  1
  Ca2+  Ca40  1  0.41683883  0.67636509  0.49780848  1
  Ca2+  Ca41  1  0.42176022  0.67509577  0.83348325  1
  Ca2+  Ca42  1  0.91790276  0.16812781  0.16478676  1
  Ca2+  Ca43  1  0.92138650  0.16910349  0.48714467  1
  Ca2+  Ca44  1  0.91249021  0.16067625  0.83151403  1
  Ca2+  Ca45  1  0.91765157  0.66584131  0.17207003  1
  Ca2+  Ca46  1  0.91524965  0.66961896  0.48699893  1
  Ca2+  Ca47  1  0.91523136  0.66541776  0.82721516  1
  Al0+  Al48  1  0.00130576  0.00073910  0.00034809  1
  Al0+  Al49  1  -0.00082860  -0.00205967  0.32829929  1
  Al0+  Al50  1  0.00184319  -0.00193957  0.66943129  1
  Al0+  Al51  1  0.00013317  0.49912882  -0.00249328  1
  Al0+  Al52  1  0.00210538  0.50156965  0.33120386  1
  Al0+  Al53  1  0.00091785  0.49801737  0.67214830  1
  Al0+  Al54  1  0.50050056  0.00218662  -0.00321696  1
  Al0+  Al55  1  0.49954001  0.00078408  0.33366917  1
  Al0+  Al56  1  0.49892111  -0.00058423  0.66881393  1
  Al0+  Al57  1  0.49935351  0.50114615  0.00434986  1
  Al0+  Al58  1  0.49977843  0.50125665  0.33805902  1
  Al0+  Al59  1  0.49885788  0.50044846  0.66055332  1
  Al0+  Al60  1  0.24703873  0.24958315  -0.00069347  1
  Al0+  Al61  1  0.25132857  0.25171485  0.33152230  1
  Al0+  Al62  1  0.24878122  0.24877812  0.67025031  1
  Al0+  Al63  1  0.24890667  0.74956514  -0.00064373  1
  Al0+  Al64  1  0.24815998  0.75095858  0.33483603  1
  Al0+  Al65  1  0.25091279  0.74826307  0.66160485  1
  Al0+  Al66  1  0.75133076  0.25145691  0.00070212  1
  Al0+  Al67  1  0.74831157  0.24905469  0.33163988  1
  Al0+  Al68  1  0.75104336  0.25242118  0.66855643  1
  Al0+  Al69  1  0.75184396  0.75084416  -0.00138349  1
  Al0+  Al70  1  0.74864506  0.75012140  0.33243957  1
  Al0+  Al71  1  0.75087917  0.74877710  0.67450709  1
  Al0+  Al72  1  0.57129087  0.17748931  0.31871028  1
  Al0+  Al73  1  0.18145931  0.43083863  0.34627518  1
  Al0+  Al74  1  0.92521293  0.82176896  0.31769349  1
  Al0+  Al75  1  0.07158023  0.17819447  0.31821542  1
  Al0+  Al76  1  0.07195624  0.67904096  0.31735736  1
  Al0+  Al77  1  0.42782830  0.82140257  0.98584769  1
  Al0+  Al78  1  0.32140374  0.07064429  0.34740572  1
  Al0+  Al79  1  0.82176084  0.56863844  0.68108372  1
  Al0+  Al80  1  0.92800986  0.32187560  0.31844732  1
  Al0+  Al81  1  0.67822308  0.92966530  0.68180811  1
  Al0+  Al82  1  0.67956629  0.43133093  0.01304249  1
  Al0+  Al83  1  0.67724818  0.92912814  0.01762282  1
  Al0+  Al84  1  0.82385117  0.07336174  0.67944120  1
  Al0+  Al85  1  0.57287176  0.67685598  0.98580934  1
  Al0+  Al86  1  0.42871131  0.32313145  0.31751667  1
  Al0+  Al87  1  0.42986370  0.82162845  0.65008805  1
  Al0+  Al88  1  0.31919288  0.56997643  0.01228227  1
  Al0+  Al89  1  0.57157422  0.18133597  0.98426337  1
  Al0+  Al90  1  0.82165231  0.07077385  0.01772494  1
  Al0+  Al91  1  0.31906851  0.07097791  0.68183127  1
  Al0+  Al92  1  0.17655185  0.92790649  0.34878044  1
  Al0+  Al93  1  0.67698972  0.42524486  0.35096921  1
  Al0+  Al94  1  0.42879297  0.32072738  0.65351748  1
  Al0+  Al95  1  0.81957576  0.57057610  0.34606128  1
  Si0+  Si96  1  0.42536037  0.32159116  0.98439373  1
  Si0+  Si97  1  0.06961872  0.67857658  0.98316315  1
  Si0+  Si98  1  0.93004887  0.81882208  0.65394399  1
  Si0+  Si99  1  0.17607167  0.42684698  0.01684201  1
  Si0+  Si100  1  0.57052689  0.68017651  0.32047395  1
  Si0+  Si101  1  0.32101736  0.07258817  0.01435510  1
  Si0+  Si102  1  0.07152882  0.17760287  0.98201520  1
  Si0+  Si103  1  0.07112823  0.67668658  0.65235396  1
  Si0+  Si104  1  0.18024573  0.42899600  0.68275685  1
  Si0+  Si105  1  0.32346467  0.57457263  0.35275165  1
  Si0+  Si106  1  0.57330477  0.17850220  0.65130154  1
  Si0+  Si107  1  0.17914631  0.92504069  0.68366005  1
  Si0+  Si108  1  0.67842601  0.92843290  0.34728252  1
  Si0+  Si109  1  0.06990908  0.17835944  0.65329216  1
  Si0+  Si110  1  0.82537078  0.57324692  0.01697534  1
  Si0+  Si111  1  0.67541770  0.42930956  0.68319569  1
  Si0+  Si112  1  0.93025692  0.32083958  0.98288079  1
  Si0+  Si113  1  0.82112431  0.07035465  0.34613228  1
  Si0+  Si114  1  0.93013145  0.82318857  0.98207698  1
  Si0+  Si115  1  0.92989352  0.32205355  0.65330510  1
  Si0+  Si116  1  0.17951379  0.92912415  0.01394488  1
  Si0+  Si117  1  0.42939298  0.82071152  0.32004524  1
  Si0+  Si118  1  0.32147935  0.57289563  0.68100327  1
  Si0+  Si119  1  0.57409260  0.67781678  0.64815692  1
  O2-  O120  1  0.25327460  -0.00243766  0.05450699  1
  O2-  O121  1  0.24627252  0.00182051  0.39844385  1
  O2-  O122  1  0.24841976  -0.00785085  0.72961011  1
  O2-  O123  1  0.24718155  0.49315153  0.05895462  1
  O2-  O124  1  0.25713297  0.50302916  0.39656163  1
  O2-  O125  1  0.25279189  0.49904757  0.72343117  1
  O2-  O126  1  0.74895000  0.00056575  0.06898217  1
  O2-  O127  1  0.75013333  -0.00066832  0.38850476  1
  O2-  O128  1  0.74779208  0.00580629  0.72934240  1
  O2-  O129  1  0.75120695  0.51001629  0.05845443  1
  O2-  O130  1  0.75203052  0.49577709  0.39857823  1
  O2-  O131  1  0.74481393  0.49703826  0.72826183  1
  O2-  O132  1  -0.00201111  0.24813672  0.26701955  1
  O2-  O133  1  -0.00694719  0.24350002  0.61263896  1
  O2-  O134  1  0.00034870  0.24865225  0.93970290  1
  O2-  O135  1  -0.00042124  0.75118633  0.26822006  1
  O2-  O136  1  -0.00035362  0.74699781  0.61106594  1
  O2-  O137  1  -0.00295415  0.74729780  0.93959695  1
  O2-  O138  1  0.50388370  0.25428329  0.26862531  1
  O2-  O139  1  0.50459651  0.24721396  0.60762411  1
  O2-  O140  1  0.49367427  0.25376070  0.93835936  1
  O2-  O141  1  0.49616076  0.74689634  0.27757220  1
  O2-  O142  1  0.50769737  0.74931744  0.60397400  1
  O2-  O143  1  0.50354490  0.75226432  0.93610193  1
  O2-  O144  1  0.07410028  0.17676276  0.08610167  1
  O2-  O145  1  0.06906086  0.18000081  0.43278773  1
  O2-  O146  1  0.07210162  0.18147733  0.75889502  1
  O2-  O147  1  0.07046155  0.67796268  0.08727389  1
  O2-  O148  1  0.06988302  0.67944858  0.43169634  1
  O2-  O149  1  0.07152094  0.67767965  0.75811873  1
  O2-  O150  1  0.57002956  0.18140073  0.09665960  1
  O2-  O151  1  0.57026455  0.17370751  0.43264628  1
  O2-  O152  1  0.57266562  0.18102727  0.75711436  1
  O2-  O153  1  0.56794961  0.67652802  0.09966459  1
  O2-  O154  1  0.57151550  0.68404336  0.42582828  1
  O2-  O155  1  0.57104457  0.67428008  0.75347439  1
  O2-  O156  1  0.18266882  0.43339627  0.23314305  1
  O2-  O157  1  0.17694105  0.42891444  0.57829101  1
  O2-  O158  1  0.17439083  0.42815637  0.91041963  1
  O2-  O159  1  0.18182569  0.92729195  0.23449734  1
  O2-  O160  1  0.17678878  0.92603614  0.57902394  1
  O2-  O161  1  0.17706093  0.93023070  0.90836592  1
  O2-  O162  1  0.67719066  0.42871850  0.23730982  1
  O2-  O163  1  0.67674764  0.42949981  0.57824859  1
  O2-  O164  1  0.68210323  0.43151459  0.89916096  1
  O2-  O165  1  0.67702344  0.92703598  0.24269396  1
  O2-  O166  1  0.68169487  0.92926150  0.56747420  1
  O2-  O167  1  0.67904777  0.93092856  0.90409856  1
  O2-  O168  1  0.42209224  0.31926510  0.08912067  1
  O2-  O169  1  0.42860644  0.31826211  0.43153632  1
  O2-  O170  1  0.42962494  0.32149937  0.76710715  1
  O2-  O171  1  0.42447217  0.81827984  0.09971566  1
  O2-  O172  1  0.43204158  0.82111585  0.42535981  1
  O2-  O173  1  0.42689426  0.81715259  0.76274956  1
  O2-  O174  1  0.93303593  0.32350909  0.08710276  1
  O2-  O175  1  0.93056102  0.31952007  0.43300446  1
  O2-  O176  1  0.93440885  0.32572424  0.75863437  1
  O2-  O177  1  0.93277358  0.82494885  0.08651852  1
  O2-  O178  1  0.92347068  0.82040089  0.43209180  1
  O2-  O179  1  0.93391816  0.81793773  0.75932418  1
  O2-  O180  1  0.32333277  0.06592952  0.23341789  1
  O2-  O181  1  0.31583794  0.07374431  0.56958411  1
  O2-  O182  1  0.31731751  0.07494913  0.90889021  1
  O2-  O183  1  0.32226966  0.57629696  0.24706095  1
  O2-  O184  1  0.31862709  0.57611770  0.57653981  1
  O2-  O185  1  0.31666834  0.56942498  0.89831322  1
  O2-  O186  1  0.82120277  0.06959161  0.24145639  1
  O2-  O187  1  0.82703400  0.07052836  0.56575782  1
  O2-  O188  1  0.82239107  0.06782675  0.90386810  1
  O2-  O189  1  0.81480277  0.57216931  0.23261913  1
  O2-  O190  1  0.82537722  0.56735638  0.56872724  1
  O2-  O191  1  0.82999592  0.56785199  0.91093408  1
  O2-  O192  1  0.04600586  0.07965981  0.26515831  1
  O2-  O193  1  0.04980261  0.08369263  0.60861455  1
  O2-  O194  1  0.04429618  0.08592504  0.93304181  1
  O2-  O195  1  0.04541506  0.58191354  0.26208959  1
  O2-  O196  1  0.04357488  0.58340121  0.60819052  1
  O2-  O197  1  0.04427450  0.58588353  0.93427879  1
  O2-  O198  1  0.53764460  0.08078896  0.26393205  1
  O2-  O199  1  0.54845014  0.08421623  0.60766890  1
  O2-  O200  1  0.54081246  0.08528269  0.92929949  1
  O2-  O201  1  0.54601085  0.58682410  0.27568720  1
  O2-  O202  1  0.54533956  0.58623608  0.59956251  1
  O2-  O203  1  0.53947631  0.57979815  0.93160064  1
  O2-  O204  1  0.16882939  0.20846396  0.26523743  1
  O2-  O205  1  0.15924791  0.21277983  0.60613788  1
  O2-  O206  1  0.16235317  0.20768840  0.93178481  1
  O2-  O207  1  0.17054941  0.70844862  0.26421608  1
  O2-  O208  1  0.16243188  0.70221911  0.60406329  1
  O2-  O209  1  0.15992032  0.70944731  0.93369584  1
  O2-  O210  1  0.67009042  0.20115087  0.26520034  1
  O2-  O211  1  0.66814831  0.20300306  0.60643047  1
  O2-  O212  1  0.66824443  0.21420295  0.93081321  1
  O2-  O213  1  0.65954704  0.71051803  0.27067842  1
  O2-  O214  1  0.66971419  0.70239406  0.60577856  1
  O2-  O215  1  0.67413508  0.69884613  0.93465179  1
  O2-  O216  1  0.08343723  0.45605243  0.06183980  1
  O2-  O217  1  0.08549275  0.46264632  0.40168676  1
  O2-  O218  1  0.09064114  0.45892201  0.73431238  1
  O2-  O219  1  0.08946271  0.95999136  0.06181565  1
  O2-  O220  1  0.07560853  0.95153129  0.39850677  1
  O2-  O221  1  0.08662700  0.95172388  0.73261526  1
  O2-  O222  1  0.58253173  0.45709669  0.06763690  1
  O2-  O223  1  0.58005989  0.45779059  0.40493744  1
  O2-  O224  1  0.58149888  0.45653471  0.72823214  1
  O2-  O225  1  0.57739953  0.95715718  0.06779058  1
  O2-  O226  1  0.58758834  0.95755121  0.39593339  1
  O2-  O227  1  0.57906002  0.95383511  0.73407228  1
  O2-  O228  1  0.19696714  0.33152435  0.06050650  1
  O2-  O229  1  0.20961850  0.33400780  0.40150650  1
  O2-  O230  1  0.20649093  0.33798663  0.73275815  1
  O2-  O231  1  0.20327072  0.83627407  0.06021693  1
  O2-  O232  1  0.20536775  0.83023748  0.40291288  1
  O2-  O233  1  0.20364433  0.83000734  0.72840378  1
  O2-  O234  1  0.71537374  0.33692134  0.06648072  1
  O2-  O235  1  0.70322203  0.32586783  0.40283886  1
  O2-  O236  1  0.70088092  0.33575534  0.72974544  1
  O2-  O237  1  0.70636852  0.82889252  0.06705834  1
  O2-  O238  1  0.70553202  0.83741412  0.39625483  1
  O2-  O239  1  0.70871778  0.83265893  0.73648093  1
  O2-  O240  1  0.45139174  0.42544305  0.27017177  1
  O2-  O241  1  0.45335840  0.41832502  0.59834650  1
  O2-  O242  1  0.45202542  0.41575350  0.94015796  1
  O2-  O243  1  0.45946731  0.91090940  0.27214954  1
  O2-  O244  1  0.45790261  0.91960220  0.59720493  1
  O2-  O245  1  0.45320839  0.92062081  0.93325781  1
  O2-  O246  1  0.95964771  0.41856517  0.26512480  1
  O2-  O247  1  0.96647062  0.41083771  0.60545685  1
  O2-  O248  1  0.96083805  0.41171590  0.93270053  1
  O2-  O249  1  0.95310962  0.91831640  0.26156875  1
  O2-  O250  1  0.95877199  0.91075318  0.60697843  1
  O2-  O251  1  0.96509808  0.91246974  0.93347392  1
  O2-  O252  1  0.33154037  0.29518022  0.26329631  1
  O2-  O253  1  0.33051175  0.28850877  0.60338685  1
  O2-  O254  1  0.33052642  0.29767677  0.93752247  1
  O2-  O255  1  0.33612820  0.79629926  0.27500566  1
  O2-  O256  1  0.33409034  0.78711092  0.59555805  1
  O2-  O257  1  0.32975242  0.79014621  0.93148165  1
  O2-  O258  1  0.82945475  0.29513089  0.26677765  1
  O2-  O259  1  0.83494304  0.30474411  0.60839479  1
  O2-  O260  1  0.83916090  0.29432148  0.93397622  1
  O2-  O261  1  0.82840768  0.79036788  0.26285929  1
  O2-  O262  1  0.83708637  0.79239695  0.60911514  1
  O2-  O263  1  0.83761638  0.79911182  0.93453826  1
  O2-  O264  1  0.41390646  0.04921390  0.05932730  1
  O2-  O265  1  0.41755004  0.03715395  0.40276262  1
  O2-  O266  1  0.41634560  0.04310322  0.73491521  1
  O2-  O267  1  0.41479404  0.54307166  0.06844650  1
  O2-  O268  1  0.41748744  0.55439361  0.39970822  1
  O2-  O269  1  0.41432345  0.54594390  0.72651707  1
  O2-  O270  1  0.92147236  0.04155061  0.06753405  1
  O2-  O271  1  0.91302107  0.04278120  0.39305798  1
  O2-  O272  1  0.92126168  0.04165240  0.73443240  1
  O2-  O273  1  0.91756879  0.54183845  0.06267220  1
  O2-  O274  1  0.92009858  0.54709264  0.39644807  1
  O2-  O275  1  0.91728996  0.53558492  0.73813052  1
  O2-  O276  1  0.28791274  0.16283455  0.06137938  1
  O2-  O277  1  0.29432945  0.16974200  0.39861749  1
  O2-  O278  1  0.28295956  0.16484244  0.73924295  1
  O2-  O279  1  0.28461082  0.66538719  0.06640461  1
  O2-  O280  1  0.29377413  0.66672214  0.39961383  1
  O2-  O281  1  0.28928567  0.66261783  0.73041314  1
  O2-  O282  1  0.79759964  0.17130671  0.06616918  1
  O2-  O283  1  0.79467476  0.16186485  0.39442976  1
  O2-  O284  1  0.80274530  0.17458592  0.73091769  1
  O2-  O285  1  0.80958741  0.67025008  0.05740882  1
  O2-  O286  1  0.78652320  0.66782961  0.40071989  1
  O2-  O287  1  0.79532410  0.66509727  0.73717041  1
