# generated using pymatgen
data_Ca2Al2SiO7
_symmetry_space_group_name_H-M   'P 1'
_cell_length_a   15.46662175
_cell_length_b   15.46553705
_cell_length_c   15.28963505
_cell_angle_alpha   89.99647769
_cell_angle_beta   90.01380702
_cell_angle_gamma   90.01018920
_symmetry_Int_Tables_number   1
_chemical_formula_structural   Ca2Al2SiO7
_chemical_formula_sum   'Ca48 Al48 Si24 O168'
_cell_volume   3657.27459724
_cell_formula_units_Z   24
loop_
 _symmetry_equiv_pos_site_id
 _symmetry_equiv_pos_as_xyz
  1  'x, y, z'
loop_
 _atom_type_symbol
 _atom_type_oxidation_number
  Ca2+  2.0
  Al0+  0.0
  Si0+  0.0
  O2-  -2.0
loop_
 _atom_site_type_symbol
 _atom_site_label
 _atom_site_symmetry_multiplicity
 _atom_site_fract_x
 _atom_site_fract_y
 _atom_site_fract_z
 _atom_site_occupancy
  Ca2+  Ca0  1  0.16840257  0.07488660  0.17437143  1
  Ca2+  Ca1  1  0.17148026  0.07997835  0.49942009  1
  Ca2+  Ca2  1  0.17641407  0.07983574  0.84404949  1
  Ca2+  Ca3  1  0.17309824  0.58993662  0.17047464  1
  Ca2+  Ca4  1  0.16802938  0.58758815  0.50398545  1
  Ca2+  Ca5  1  0.16232423  0.57634380  0.84279596  1
  Ca2+  Ca6  1  0.67393247  0.06922225  0.17327899  1
  Ca2+  Ca7  1  0.67109304  0.07421146  0.49630148  1
  Ca2+  Ca8  1  0.67129516  0.07656216  0.84239071  1
  Ca2+  Ca9  1  0.65990239  0.57813786  0.17187557  1
  Ca2+  Ca10  1  0.66538010  0.59078577  0.50269364  1
  Ca2+  Ca11  1  0.66666945  0.58063519  0.83961197  1
  Ca2+  Ca12  1  0.09257923  0.31936458  0.16095727  1
  Ca2+  Ca13  1  0.08319254  0.32987188  0.49726582  1
  Ca2+  Ca14  1  0.08901055  0.33173909  0.82971934  1
  Ca2+  Ca15  1  0.09306735  0.82839591  0.16260656  1
  Ca2+  Ca16  1  0.08395252  0.82615033  0.48843975  1
  Ca2+  Ca17  1  0.09504893  0.82111637  0.83582626  1
  Ca2+  Ca18  1  0.58146328  0.33167972  0.16061089  1
  Ca2+  Ca19  1  0.57847325  0.32867046  0.49341207  1
  Ca2+  Ca20  1  0.58159312  0.33412830  0.83196474  1
  Ca2+  Ca21  1  0.57255080  0.84093398  0.16397911  1
  Ca2+  Ca22  1  0.57816640  0.82457713  0.48895625  1
  Ca2+  Ca23  1  0.57524749  0.83407921  0.83100340  1
  Ca2+  Ca24  1  0.32883806  0.43138655  0.16584340  1
  Ca2+  Ca25  1  0.32476245  0.42534909  0.50189770  1
  Ca2+  Ca26  1  0.32023238  0.42631858  0.84066022  1
  Ca2+  Ca27  1  0.32709650  0.91936107  0.17141990  1
  Ca2+  Ca28  1  0.33272913  0.92082284  0.49553119  1
  Ca2+  Ca29  1  0.33142757  0.92450709  0.84277682  1
  Ca2+  Ca30  1  0.82827324  0.41688396  0.16680233  1
  Ca2+  Ca31  1  0.83553142  0.41739226  0.50516971  1
  Ca2+  Ca32  1  0.82926123  0.41499295  0.83779699  1
  Ca2+  Ca33  1  0.82380813  0.91080363  0.17755353  1
  Ca2+  Ca34  1  0.83552994  0.91302297  0.49440549  1
  Ca2+  Ca35  1  0.82359095  0.91226737  0.84035115  1
  Ca2+  Ca36  1  0.41010142  0.16348960  0.16035043  1
  Ca2+  Ca37  1  0.40815730  0.16482178  0.49546524  1
  Ca2+  Ca38  1  0.41245887  0.16297373  0.83021892  1
  Ca2+  Ca39  1  0.40974944  0.67896165  0.16493488  1
  Ca2+  Ca40  1  0.42469947  0.66947832  0.48761673  1
  Ca2+  Ca41  1  0.41589367  0.67184096  0.83426338  1
  Ca2+  Ca42  1  0.92991316  0.15595617  0.16646212  1
  Ca2+  Ca43  1  0.91914522  0.17279537  0.49002027  1
  Ca2+  Ca44  1  0.92568121  0.17370635  0.83071688  1
  Ca2+  Ca45  1  0.92825799  0.67402371  0.16740185  1
  Ca2+  Ca46  1  0.93007999  0.67189319  0.49287142  1
  Ca2+  Ca47  1  0.92912409  0.66483548  0.83117650  1
  Al0+  Al48  1  0.00063525  0.00091809  -0.00695987  1
  Al0+  Al49  1  -0.00175350  0.00138354  0.33599040  1
  Al0+  Al50  1  -0.00039495  0.00022207  0.66951420  1
  Al0+  Al51  1  -0.00290587  0.49821675  0.00191447  1
  Al0+  Al52  1  -0.00298636  0.49869456  0.32855337  1
  Al0+  Al53  1  -0.00159287  0.49976150  0.66272101  1
  Al0+  Al54  1  0.50252198  0.00034177  0.00041856  1
  Al0+  Al55  1  0.50260053  0.00044852  0.33859382  1
  Al0+  Al56  1  0.50157977  0.00047348  0.66927662  1
  Al0+  Al57  1  0.50028191  0.49885026  0.00572666  1
  Al0+  Al58  1  0.49777172  0.49709711  0.33512312  1
  Al0+  Al59  1  0.49945864  0.49840772  0.66313589  1
  Al0+  Al60  1  0.25162330  0.25348304  -0.00136329  1
  Al0+  Al61  1  0.24894899  0.25225028  0.33230874  1
  Al0+  Al62  1  0.25087544  0.25129277  0.67288272  1
  Al0+  Al63  1  0.25224514  0.75175819  -0.00569010  1
  Al0+  Al64  1  0.25426785  0.74991614  0.33683777  1
  Al0+  Al65  1  0.25255341  0.75221489  0.66210023  1
  Al0+  Al66  1  0.74938855  0.25036006  0.00312566  1
  Al0+  Al67  1  0.74783193  0.25006213  0.33582044  1
  Al0+  Al68  1  0.74993914  0.24938497  0.66313597  1
  Al0+  Al69  1  0.75012028  0.74836654  0.00421829  1
  Al0+  Al70  1  0.75121496  0.74434376  0.33127379  1
  Al0+  Al71  1  0.74954112  0.74921901  0.66592661  1
  Al0+  Al72  1  0.17517444  0.42931901  0.01592347  1
  Al0+  Al73  1  0.57123463  0.67560356  0.31672424  1
  Al0+  Al74  1  0.67961925  0.42931818  0.01305263  1
  Al0+  Al75  1  0.32202852  0.07201196  0.01365618  1
  Al0+  Al76  1  0.31988488  0.57267937  0.01344529  1
  Al0+  Al77  1  0.43170908  0.82306645  0.31774498  1
  Al0+  Al78  1  0.07317539  0.17948295  0.98436135  1
  Al0+  Al79  1  0.07060105  0.67937604  0.98675402  1
  Al0+  Al80  1  0.31981155  0.06917522  0.68151848  1
  Al0+  Al81  1  0.92986162  0.82187866  0.31967169  1
  Al0+  Al82  1  0.92850839  0.31925962  0.65311195  1
  Al0+  Al83  1  0.07046551  0.18080502  0.32152592  1
  Al0+  Al84  1  0.43083114  0.82252924  0.98464008  1
  Al0+  Al85  1  0.68045804  0.92747031  0.01293131  1
  Al0+  Al86  1  0.67993571  0.92482934  0.35019707  1
  Al0+  Al87  1  0.17838355  0.92971195  0.01314124  1
  Al0+  Al88  1  0.17789372  0.43307700  0.67917997  1
  Al0+  Al89  1  0.56953403  0.67835836  0.65476295  1
  Al0+  Al90  1  0.82176361  0.07130052  0.34865593  1
  Al0+  Al91  1  0.07357666  0.67921963  0.31821198  1
  Al0+  Al92  1  0.32085922  0.07376779  0.34775102  1
  Al0+  Al93  1  0.31988776  0.57055954  0.34806559  1
  Al0+  Al94  1  0.07131483  0.68027156  0.65394619  1
  Al0+  Al95  1  0.17849062  0.92782987  0.34848191  1
  Si0+  Si96  1  0.92601933  0.82249714  0.65198224  1
  Si0+  Si97  1  0.32409782  0.57328194  0.68212811  1
  Si0+  Si98  1  0.42870290  0.31963313  0.65141275  1
  Si0+  Si99  1  0.43050707  0.32323344  0.98323640  1
  Si0+  Si100  1  0.57248506  0.67611356  0.98450546  1
  Si0+  Si101  1  0.42844525  0.31942141  0.31725619  1
  Si0+  Si102  1  0.82130677  0.07424768  0.68312419  1
  Si0+  Si103  1  0.82252697  0.57241120  0.01873979  1
  Si0+  Si104  1  0.82195614  0.07191515  0.01406368  1
  Si0+  Si105  1  0.17588757  0.42894196  0.34915094  1
  Si0+  Si106  1  0.68205338  0.92928893  0.68225849  1
  Si0+  Si107  1  0.57146614  0.17825573  0.65106999  1
  Si0+  Si108  1  0.67794084  0.42880919  0.35089400  1
  Si0+  Si109  1  0.57139399  0.18058727  0.98486625  1
  Si0+  Si110  1  0.67758459  0.42709783  0.68029293  1
  Si0+  Si111  1  0.92558254  0.32030999  0.98388319  1
  Si0+  Si112  1  0.57177082  0.18002366  0.31812781  1
  Si0+  Si113  1  0.43048619  0.82497957  0.64869848  1
  Si0+  Si114  1  0.92506264  0.82176814  0.98287516  1
  Si0+  Si115  1  0.92434712  0.32177780  0.31436269  1
  Si0+  Si116  1  0.82187957  0.56801994  0.35039531  1
  Si0+  Si117  1  0.07377930  0.17850402  0.65056584  1
  Si0+  Si118  1  0.17556465  0.92616006  0.68435080  1
  Si0+  Si119  1  0.81912817  0.57019464  0.68114282  1
  O2-  O120  1  0.24722564  0.00420205  0.06342057  1
  O2-  O121  1  0.24972741  0.00155342  0.39829477  1
  O2-  O122  1  0.24383658  -0.00388970  0.72714328  1
  O2-  O123  1  0.24209796  0.50665457  0.06381026  1
  O2-  O124  1  0.23868463  0.50235773  0.39433287  1
  O2-  O125  1  0.24873204  0.51191574  0.72568865  1
  O2-  O126  1  0.76046977  -0.00303538  0.05748846  1
  O2-  O127  1  0.75408085  -0.00451804  0.40013735  1
  O2-  O128  1  0.75439664  -0.00088451  0.72525837  1
  O2-  O129  1  0.75119463  0.50515218  0.06143352  1
  O2-  O130  1  0.74846011  0.49919590  0.39364960  1
  O2-  O131  1  0.74695780  0.49926781  0.72283284  1
  O2-  O132  1  -0.00648490  0.25314962  0.27271746  1
  O2-  O133  1  0.00243656  0.24445449  0.60622635  1
  O2-  O134  1  -0.00113923  0.25675924  0.93947894  1
  O2-  O135  1  0.00785437  0.75740790  0.26848517  1
  O2-  O136  1  0.00109194  0.76032029  0.60973942  1
  O2-  O137  1  -0.00361980  0.75536096  0.93903132  1
  O2-  O138  1  0.49549501  0.24450756  0.27526773  1
  O2-  O139  1  0.49832690  0.24706985  0.60874430  1
  O2-  O140  1  0.49852368  0.24871322  0.94081662  1
  O2-  O141  1  0.50409931  0.75125809  0.26686588  1
  O2-  O142  1  0.49350040  0.74998582  0.60691614  1
  O2-  O143  1  0.50608257  0.74618410  0.93937180  1
  O2-  O144  1  0.07115073  0.17834865  0.09716526  1
  O2-  O145  1  0.07122063  0.18602469  0.43508630  1
  O2-  O146  1  0.07267386  0.18094115  0.75612264  1
  O2-  O147  1  0.06961785  0.68026570  0.09900837  1
  O2-  O148  1  0.06882369  0.67631500  0.43222270  1
  O2-  O149  1  0.06801957  0.67824432  0.76716253  1
  O2-  O150  1  0.57340474  0.18332551  0.08967963  1
  O2-  O151  1  0.57426137  0.18506272  0.42369080  1
  O2-  O152  1  0.57389203  0.17974101  0.75625520  1
  O2-  O153  1  0.57184468  0.67456913  0.08923113  1
  O2-  O154  1  0.56828637  0.67544734  0.43101805  1
  O2-  O155  1  0.57137668  0.67889900  0.76792507  1
  O2-  O156  1  0.17983547  0.42635326  0.24413163  1
  O2-  O157  1  0.18108424  0.43102763  0.56611621  1
  O2-  O158  1  0.17802307  0.43024364  0.90163616  1
  O2-  O159  1  0.17950460  0.92910752  0.23523608  1
  O2-  O160  1  0.17339804  0.92651266  0.57921363  1
  O2-  O161  1  0.18151587  0.92999783  0.89886333  1
  O2-  O162  1  0.67868731  0.42698421  0.24587191  1
  O2-  O163  1  0.67774072  0.42521987  0.57542188  1
  O2-  O164  1  0.68077560  0.42876478  0.89921965  1
  O2-  O165  1  0.67962338  0.92964468  0.23675081  1
  O2-  O166  1  0.68220913  0.92965295  0.57793638  1
  O2-  O167  1  0.68072317  0.93013981  0.89866588  1
  O2-  O168  1  0.43376422  0.32422335  0.08828478  1
  O2-  O169  1  0.43135226  0.32048182  0.42300702  1
  O2-  O170  1  0.43228323  0.32155675  0.75625974  1
  O2-  O171  1  0.43154383  0.82560274  0.09667978  1
  O2-  O172  1  0.43331688  0.82117408  0.43200322  1
  O2-  O173  1  0.43357725  0.82735749  0.75441986  1
  O2-  O174  1  0.91960248  0.31668701  0.08881101  1
  O2-  O175  1  0.92338671  0.32248866  0.42038140  1
  O2-  O176  1  0.92312409  0.31678362  0.76579410  1
  O2-  O177  1  0.92082169  0.82010162  0.08755016  1
  O2-  O178  1  0.92982400  0.81552419  0.43385217  1
  O2-  O179  1  0.91935952  0.81881304  0.75737135  1
  O2-  O180  1  0.31880626  0.07662492  0.23503788  1
  O2-  O181  1  0.32001787  0.06992024  0.56899338  1
  O2-  O182  1  0.32238710  0.06942302  0.89948743  1
  O2-  O183  1  0.32275479  0.56751737  0.23558743  1
  O2-  O184  1  0.32680284  0.56824780  0.57677982  1
  O2-  O185  1  0.32227319  0.56888399  0.89912541  1
  O2-  O186  1  0.81645366  0.07623791  0.23536729  1
  O2-  O187  1  0.81887656  0.07723619  0.57883796  1
  O2-  O188  1  0.81662278  0.07449889  0.90767625  1
  O2-  O189  1  0.82336047  0.56415025  0.24566466  1
  O2-  O190  1  0.81773668  0.56936360  0.57623257  1
  O2-  O191  1  0.82188919  0.57157271  0.91244054  1
  O2-  O192  1  0.04067054  0.08413281  0.26825059  1
  O2-  O193  1  0.05050908  0.08271322  0.60829900  1
  O2-  O194  1  0.04160435  0.08454760  0.92585196  1
  O2-  O195  1  0.03861249  0.58201139  0.26600813  1
  O2-  O196  1  0.03538973  0.58617443  0.59885304  1
  O2-  O197  1  0.03561615  0.58201574  0.93443620  1
  O2-  O198  1  0.55169867  0.08576608  0.27447215  1
  O2-  O199  1  0.54577033  0.08575110  0.60463485  1
  O2-  O200  1  0.54689140  0.08891057  0.93564272  1
  O2-  O201  1  0.54092186  0.57578814  0.26757835  1
  O2-  O202  1  0.54452343  0.57997209  0.60038028  1
  O2-  O203  1  0.54556622  0.58204332  0.93858236  1
  O2-  O204  1  0.16533880  0.21483371  0.26600534  1
  O2-  O205  1  0.16672283  0.20843709  0.60614828  1
  O2-  O206  1  0.16945188  0.21267631  0.92990976  1
  O2-  O207  1  0.17460587  0.70176492  0.27074410  1
  O2-  O208  1  0.17021881  0.70496820  0.60124369  1
  O2-  O209  1  0.16645582  0.70837419  0.92985708  1
  O2-  O210  1  0.66013380  0.21546324  0.26897283  1
  O2-  O211  1  0.66099730  0.20933294  0.60147693  1
  O2-  O212  1  0.66199857  0.21225027  0.93575321  1
  O2-  O213  1  0.67298995  0.69263605  0.26808513  1
  O2-  O214  1  0.66628410  0.71005914  0.60096216  1
  O2-  O215  1  0.66808747  0.69859684  0.93998160  1
  O2-  O216  1  0.07359717  0.44570359  0.06549345  1
  O2-  O217  1  0.07880596  0.44719039  0.39117483  1
  O2-  O218  1  0.07923853  0.45888460  0.73181368  1
  O2-  O219  1  0.07662916  0.95306319  0.06082656  1
  O2-  O220  1  0.07954660  0.95454037  0.40115835  1
  O2-  O221  1  0.08072214  0.94781779  0.73077020  1
  O2-  O222  1  0.58414392  0.45646025  0.06993074  1
  O2-  O223  1  0.58608224  0.45436645  0.39929063  1
  O2-  O224  1  0.58511732  0.45327696  0.72759620  1
  O2-  O225  1  0.58783032  0.96575320  0.06697799  1
  O2-  O226  1  0.58496458  0.95940939  0.40653159  1
  O2-  O227  1  0.59134733  0.96003793  0.73032566  1
  O2-  O228  1  0.21238263  0.33405065  0.06794141  1
  O2-  O229  1  0.20892244  0.33888012  0.39816894  1
  O2-  O230  1  0.21287817  0.33832078  0.73456498  1
  O2-  O231  1  0.20938125  0.83168557  0.06265502  1
  O2-  O232  1  0.20979145  0.83127743  0.40370654  1
  O2-  O233  1  0.20484624  0.83250314  0.72912353  1
  O2-  O234  1  0.71099520  0.33375135  0.06927476  1
  O2-  O235  1  0.70571049  0.33757295  0.39975412  1
  O2-  O236  1  0.70663073  0.33547503  0.72798969  1
  O2-  O237  1  0.70473049  0.82989154  0.06654718  1
  O2-  O238  1  0.70720123  0.82456494  0.40015954  1
  O2-  O239  1  0.70940764  0.83734589  0.73034044  1
  O2-  O240  1  0.46311321  0.40804944  0.26909215  1
  O2-  O241  1  0.45869233  0.40956304  0.60110290  1
  O2-  O242  1  0.46505188  0.41246905  0.93441885  1
  O2-  O243  1  0.46075515  0.92274354  0.26756957  1
  O2-  O244  1  0.46369212  0.91607743  0.60241529  1
  O2-  O245  1  0.46700824  0.91784013  0.92897111  1
  O2-  O246  1  0.94756537  0.41491556  0.26736968  1
  O2-  O247  1  0.95694678  0.41551752  0.59757896  1
  O2-  O248  1  0.94374461  0.41619814  0.93952719  1
  O2-  O249  1  0.94269602  0.92484762  0.27238337  1
  O2-  O250  1  0.94414066  0.91974516  0.61011336  1
  O2-  O251  1  0.94472780  0.91639239  0.93578282  1
  O2-  O252  1  0.33622054  0.29687530  0.26978990  1
  O2-  O253  1  0.33688094  0.29177826  0.60449983  1
  O2-  O254  1  0.33876528  0.29962081  0.93411791  1
  O2-  O255  1  0.33358660  0.79290247  0.26690050  1
  O2-  O256  1  0.33488408  0.80702227  0.60466160  1
  O2-  O257  1  0.33660319  0.79178250  0.92577938  1
  O2-  O258  1  0.82955713  0.29667587  0.27043707  1
  O2-  O259  1  0.83175221  0.28958162  0.59689005  1
  O2-  O260  1  0.83358111  0.28938165  0.93486697  1
  O2-  O261  1  0.83463550  0.78448649  0.26580174  1
  O2-  O262  1  0.83547998  0.79104329  0.60311124  1
  O2-  O263  1  0.83243490  0.79110930  0.93474898  1
  O2-  O264  1  0.42134883  0.04531674  0.06408815  1
  O2-  O265  1  0.42077056  0.04943742  0.40042370  1
  O2-  O266  1  0.41870964  0.04080043  0.73422812  1
  O2-  O267  1  0.41505718  0.53682225  0.06749627  1
  O2-  O268  1  0.41336212  0.52985696  0.40372720  1
  O2-  O269  1  0.41515863  0.53942611  0.72912267  1
  O2-  O270  1  0.91833537  0.05317181  0.05433146  1
  O2-  O271  1  0.91999330  0.05034329  0.40469483  1
  O2-  O272  1  0.91505360  0.05201841  0.72983311  1
  O2-  O273  1  0.91316261  0.54293708  0.06722641  1
  O2-  O274  1  0.91224619  0.53636196  0.39959295  1
  O2-  O275  1  0.90960808  0.53988204  0.72900579  1
  O2-  O276  1  0.30148263  0.17394738  0.06037713  1
  O2-  O277  1  0.29148040  0.17296410  0.40108062  1
  O2-  O278  1  0.29317218  0.16709604  0.73556398  1
  O2-  O279  1  0.29691343  0.67269658  0.06274556  1
  O2-  O280  1  0.29748667  0.66718400  0.40461112  1
  O2-  O281  1  0.30753791  0.67096259  0.72245869  1
  O2-  O282  1  0.78952441  0.16185615  0.06196009  1
  O2-  O283  1  0.78607171  0.16848116  0.40318803  1
  O2-  O284  1  0.78711523  0.16374682  0.73176768  1
  O2-  O285  1  0.79951395  0.66553370  0.06528078  1
  O2-  O286  1  0.79616853  0.65911175  0.39947049  1
  O2-  O287  1  0.79113338  0.66137903  0.72999898  1
