# generated using pymatgen
data_Ca2Al2SiO7
_symmetry_space_group_name_H-M   'P 1'
_cell_length_a   15.45362260
_cell_length_b   15.45326338
_cell_length_c   15.28050467
_cell_angle_alpha   89.99425488
_cell_angle_beta   90.00566204
_cell_angle_gamma   89.98535943
_symmetry_Int_Tables_number   1
_chemical_formula_structural   Ca2Al2SiO7
_chemical_formula_sum   'Ca48 Al48 Si24 O168'
_cell_volume   3649.12035785
_cell_formula_units_Z   24
loop_
 _symmetry_equiv_pos_site_id
 _symmetry_equiv_pos_as_xyz
  1  'x, y, z'
loop_
 _atom_type_symbol
 _atom_type_oxidation_number
  Ca2+  2.0
  Al0+  0.0
  Si0+  0.0
  O2-  -2.0
loop_
 _atom_site_type_symbol
 _atom_site_label
 _atom_site_symmetry_multiplicity
 _atom_site_fract_x
 _atom_site_fract_y
 _atom_site_fract_z
 _atom_site_occupancy
  Ca2+  Ca0  1  0.17623796  0.08569078  0.17589997  1
  Ca2+  Ca1  1  0.16118908  0.07242349  0.50439672  1
  Ca2+  Ca2  1  0.16917311  0.08149256  0.83739738  1
  Ca2+  Ca3  1  0.16431883  0.57664125  0.17550349  1
  Ca2+  Ca4  1  0.15305934  0.57269466  0.50646762  1
  Ca2+  Ca5  1  0.16367316  0.57765215  0.83132464  1
  Ca2+  Ca6  1  0.66623182  0.08272964  0.16863167  1
  Ca2+  Ca7  1  0.67506882  0.08438953  0.50919346  1
  Ca2+  Ca8  1  0.66994258  0.09438825  0.83652610  1
  Ca2+  Ca9  1  0.66610103  0.58185930  0.17314643  1
  Ca2+  Ca10  1  0.67835228  0.59237718  0.50275758  1
  Ca2+  Ca11  1  0.66908018  0.57855132  0.84062379  1
  Ca2+  Ca12  1  0.08319295  0.32550068  0.16289556  1
  Ca2+  Ca13  1  0.09463678  0.32295140  0.49671712  1
  Ca2+  Ca14  1  0.08450050  0.32212209  0.82816424  1
  Ca2+  Ca15  1  0.08288803  0.83451810  0.17153536  1
  Ca2+  Ca16  1  0.08369765  0.82530434  0.49276724  1
  Ca2+  Ca17  1  0.08737964  0.82645130  0.82298079  1
  Ca2+  Ca18  1  0.58275495  0.32884202  0.15655455  1
  Ca2+  Ca19  1  0.57800607  0.33124926  0.50230521  1
  Ca2+  Ca20  1  0.58114706  0.32690573  0.82789448  1
  Ca2+  Ca21  1  0.57954088  0.82102371  0.15992131  1
  Ca2+  Ca22  1  0.57632198  0.83142055  0.49632547  1
  Ca2+  Ca23  1  0.56877117  0.83485468  0.83145314  1
  Ca2+  Ca24  1  0.32675009  0.41849077  0.17439616  1
  Ca2+  Ca25  1  0.32363492  0.41645340  0.50547408  1
  Ca2+  Ca26  1  0.32955518  0.40820942  0.83162508  1
  Ca2+  Ca27  1  0.33206357  0.92724296  0.17168745  1
  Ca2+  Ca28  1  0.32358322  0.91757722  0.50422028  1
  Ca2+  Ca29  1  0.33218761  0.91644879  0.83820830  1
  Ca2+  Ca30  1  0.82944160  0.41748753  0.16871155  1
  Ca2+  Ca31  1  0.83791449  0.43150363  0.50573254  1
  Ca2+  Ca32  1  0.83100560  0.41945215  0.83960996  1
  Ca2+  Ca33  1  0.83345907  0.91385600  0.17290523  1
  Ca2+  Ca34  1  0.83545111  0.91900843  0.50553250  1
  Ca2+  Ca35  1  0.83311792  0.92623393  0.83308628  1
  Ca2+  Ca36  1  0.41726259  0.16216033  0.15990640  1
  Ca2+  Ca37  1  0.41384970  0.16901486  0.50072205  1
  Ca2+  Ca38  1  0.42704803  0.16475151  0.82728914  1
  Ca2+  Ca39  1  0.42597711  0.67148918  0.15838922  1
  Ca2+  Ca40  1  0.41966277  0.67303915  0.49655621  1
  Ca2+  Ca41  1  0.41889585  0.67583376  0.82910678  1
  Ca2+  Ca42  1  0.93328968  0.17094868  0.15864947  1
  Ca2+  Ca43  1  0.92877013  0.16130313  0.49750512  1
  Ca2+  Ca44  1  0.92330439  0.17209162  0.82773115  1
  Ca2+  Ca45  1  0.91759638  0.66706287  0.17273800  1
  Ca2+  Ca46  1  0.92209849  0.66734017  0.49223154  1
  Ca2+  Ca47  1  0.92059881  0.66616937  0.82626603  1
  Al0+  Al48  1  0.00058371  -0.00168907  -0.00225967  1
  Al0+  Al49  1  0.00100196  0.00080471  0.32658771  1
  Al0+  Al50  1  -0.00115819  -0.00012976  0.67428218  1
  Al0+  Al51  1  -0.00135782  0.50102729  -0.00128026  1
  Al0+  Al52  1  -0.00265638  0.49967494  0.33669257  1
  Al0+  Al53  1  -0.00016213  0.49946089  0.67550128  1
  Al0+  Al54  1  0.50016921  -0.00019583  -0.00261852  1
  Al0+  Al55  1  0.50084469  0.00138457  0.33814983  1
  Al0+  Al56  1  0.50010457  -0.00132072  0.65658927  1
  Al0+  Al57  1  0.50055577  0.49988192  0.00076616  1
  Al0+  Al58  1  0.49903340  0.49811171  0.33101739  1
  Al0+  Al59  1  0.50021228  0.50037795  0.66209631  1
  Al0+  Al60  1  0.24955724  0.24863011  0.00170386  1
  Al0+  Al61  1  0.25262950  0.25149455  0.33589169  1
  Al0+  Al62  1  0.25035705  0.24912673  0.66437194  1
  Al0+  Al63  1  0.24886971  0.74972257  -0.00053816  1
  Al0+  Al64  1  0.25075942  0.75087606  0.33034105  1
  Al0+  Al65  1  0.24968405  0.74831567  0.66138663  1
  Al0+  Al66  1  0.75155947  0.25248648  -0.00016931  1
  Al0+  Al67  1  0.74843977  0.25011744  0.33474208  1
  Al0+  Al68  1  0.75090665  0.25166759  0.66552345  1
  Al0+  Al69  1  0.75178072  0.74993094  -0.00385480  1
  Al0+  Al70  1  0.74887307  0.74992725  0.32972750  1
  Al0+  Al71  1  0.74952296  0.75186216  0.67529623  1
  Al0+  Al72  1  0.07214118  0.67614025  0.31825254  1
  Al0+  Al73  1  0.42841800  0.32181862  0.65072346  1
  Al0+  Al74  1  0.07355434  0.17791024  0.98376411  1
  Al0+  Al75  1  0.18062665  0.42736129  0.68250832  1
  Al0+  Al76  1  0.06848907  0.67808533  0.65415958  1
  Al0+  Al77  1  0.17880821  0.43164987  0.34617760  1
  Al0+  Al78  1  0.57341501  0.17906610  0.64960913  1
  Al0+  Al79  1  0.32070972  0.06942949  0.01146337  1
  Al0+  Al80  1  0.06949679  0.17783872  0.65265854  1
  Al0+  Al81  1  0.82070691  0.57233651  0.68274693  1
  Al0+  Al82  1  0.42752653  0.82036754  0.65021965  1
  Al0+  Al83  1  0.92929354  0.82149719  0.31941117  1
  Al0+  Al84  1  0.07196775  0.18051517  0.31988562  1
  Al0+  Al85  1  0.57050295  0.17965934  0.98874331  1
  Al0+  Al86  1  0.17776824  0.92931200  0.34830199  1
  Al0+  Al87  1  0.93006219  0.32195739  0.98495651  1
  Al0+  Al88  1  0.42862698  0.82054959  0.98614888  1
  Al0+  Al89  1  0.32314150  0.07189077  0.35156623  1
  Al0+  Al90  1  0.17975714  0.92723771  0.68069964  1
  Al0+  Al91  1  0.56979521  0.67969512  0.32064404  1
  Al0+  Al92  1  0.82020813  0.07185715  0.68065391  1
  Al0+  Al93  1  0.81691720  0.57012299  0.34642052  1
  Al0+  Al94  1  0.67932826  0.42979538  0.01370600  1
  Al0+  Al95  1  0.57249554  0.67656411  0.98352104  1
  Si0+  Si96  1  0.92527855  0.32217204  0.31847447  1
  Si0+  Si97  1  0.32391813  0.57256353  0.34843172  1
  Si0+  Si98  1  0.92812703  0.82177478  0.98252775  1
  Si0+  Si99  1  0.57340265  0.67874899  0.65068636  1
  Si0+  Si100  1  0.67537874  0.92892163  0.68491145  1
  Si0+  Si101  1  0.67684746  0.42954665  0.68289364  1
  Si0+  Si102  1  0.92707041  0.82209047  0.65327557  1
  Si0+  Si103  1  0.07047682  0.67917252  0.98483376  1
  Si0+  Si104  1  0.17888106  0.42986490  0.01489046  1
  Si0+  Si105  1  0.32027797  0.57250985  0.01447355  1
  Si0+  Si106  1  0.57252026  0.17882058  0.31756685  1
  Si0+  Si107  1  0.82283344  0.57403582  0.01950751  1
  Si0+  Si108  1  0.42819589  0.82441082  0.31567943  1
  Si0+  Si109  1  0.42997299  0.31970406  0.31646314  1
  Si0+  Si110  1  0.92866770  0.32281213  0.64965909  1
  Si0+  Si111  1  0.68006814  0.92900456  0.34712918  1
  Si0+  Si112  1  0.42661102  0.32316726  0.98562755  1
  Si0+  Si113  1  0.17632859  0.92517900  0.01786254  1
  Si0+  Si114  1  0.67503042  0.42552421  0.35209253  1
  Si0+  Si115  1  0.68044755  0.92937307  0.01456735  1
  Si0+  Si116  1  0.32395089  0.57170298  0.68275204  1
  Si0+  Si117  1  0.82088796  0.07185483  0.34523163  1
  Si0+  Si118  1  0.32255417  0.07024896  0.68316008  1
  Si0+  Si119  1  0.82207799  0.07144150  0.01636833  1
  O2-  O120  1  0.24356116  -0.00305955  0.05868082  1
  O2-  O121  1  0.24957827  0.00065731  0.39982691  1
  O2-  O122  1  0.25476495  0.00128153  0.72828138  1
  O2-  O123  1  0.25082587  0.49999443  0.05715015  1
  O2-  O124  1  0.24845385  0.51180760  0.39274233  1
  O2-  O125  1  0.25740513  0.50116215  0.72835630  1
  O2-  O126  1  0.75133781  -0.00007819  0.05906690  1
  O2-  O127  1  0.75149242  -0.00017925  0.38858839  1
  O2-  O128  1  0.74104520  0.00135753  0.72821554  1
  O2-  O129  1  0.75144447  0.50693570  0.06161849  1
  O2-  O130  1  0.74283492  0.49534137  0.39514560  1
  O2-  O131  1  0.74415795  0.49895488  0.72781212  1
  O2-  O132  1  -0.00400591  0.25526318  0.27474589  1
  O2-  O133  1  -0.00406461  0.25343194  0.60447377  1
  O2-  O134  1  0.00135017  0.24992214  0.93437673  1
  O2-  O135  1  0.00260773  0.75087750  0.26804944  1
  O2-  O136  1  -0.00645816  0.75260817  0.60826066  1
  O2-  O137  1  0.00091327  0.75171694  0.94266204  1
  O2-  O138  1  0.50130645  0.24875070  0.27464935  1
  O2-  O139  1  0.49963446  0.24914437  0.59956106  1
  O2-  O140  1  0.49569401  0.25435329  0.94294884  1
  O2-  O141  1  0.49314095  0.75155993  0.27260516  1
  O2-  O142  1  0.50435374  0.74627678  0.60565731  1
  O2-  O143  1  0.49927299  0.74755584  0.93484900  1
  O2-  O144  1  0.07417351  0.18076137  0.09771736  1
  O2-  O145  1  0.06888934  0.17876569  0.43295997  1
  O2-  O146  1  0.06867724  0.17873260  0.76559311  1
  O2-  O147  1  0.07044925  0.67709877  0.08959922  1
  O2-  O148  1  0.06733431  0.67423021  0.43145349  1
  O2-  O149  1  0.06806294  0.67958682  0.76810939  1
  O2-  O150  1  0.56960382  0.17939739  0.10244807  1
  O2-  O151  1  0.57618058  0.18024857  0.42200915  1
  O2-  O152  1  0.57294901  0.18112150  0.76347166  1
  O2-  O153  1  0.57127456  0.67844539  0.09746824  1
  O2-  O154  1  0.57028750  0.68401529  0.43385018  1
  O2-  O155  1  0.57204426  0.67859931  0.75605945  1
  O2-  O156  1  0.18235524  0.43078367  0.23220257  1
  O2-  O157  1  0.17997419  0.42925635  0.56949119  1
  O2-  O158  1  0.18003297  0.43052113  0.90992988  1
  O2-  O159  1  0.17943756  0.93210465  0.23436406  1
  O2-  O160  1  0.17817804  0.92691826  0.56800950  1
  O2-  O161  1  0.17670233  0.92177063  0.91224044  1
  O2-  O162  1  0.67561924  0.42300942  0.24642082  1
  O2-  O163  1  0.67759945  0.43054648  0.57710363  1
  O2-  O164  1  0.68055058  0.42998891  0.90075551  1
  O2-  O165  1  0.67882476  0.93088286  0.24165436  1
  O2-  O166  1  0.67887530  0.92522712  0.57897627  1
  O2-  O167  1  0.68215700  0.93027443  0.90974528  1
  O2-  O168  1  0.42685094  0.32356413  0.09159845  1
  O2-  O169  1  0.43124634  0.32148968  0.42108052  1
  O2-  O170  1  0.43054879  0.32074052  0.76472623  1
  O2-  O171  1  0.43110539  0.81911949  0.09979210  1
  O2-  O172  1  0.43086402  0.82396211  0.42131055  1
  O2-  O173  1  0.42862276  0.81947433  0.76338169  1
  O2-  O174  1  0.93227262  0.32108286  0.09911791  1
  O2-  O175  1  0.92196290  0.31989266  0.42383415  1
  O2-  O176  1  0.92906967  0.32089300  0.75530176  1
  O2-  O177  1  0.92576450  0.82255331  0.08733097  1
  O2-  O178  1  0.92599945  0.82098085  0.43277553  1
  O2-  O179  1  0.92830411  0.82088373  0.75934978  1
  O2-  O180  1  0.32552320  0.07045460  0.23739384  1
  O2-  O181  1  0.32068057  0.06900366  0.57772810  1
  O2-  O182  1  0.32225525  0.06820248  0.89858878  1
  O2-  O183  1  0.32727244  0.56693885  0.24239751  1
  O2-  O184  1  0.32502838  0.57114913  0.57721002  1
  O2-  O185  1  0.31823724  0.57461678  0.90958542  1
  O2-  O186  1  0.81713540  0.07296548  0.23996295  1
  O2-  O187  1  0.82102984  0.06735493  0.56689724  1
  O2-  O188  1  0.82103469  0.06991053  0.91135049  1
  O2-  O189  1  0.81506461  0.56893485  0.23332267  1
  O2-  O190  1  0.81949525  0.57346595  0.56945182  1
  O2-  O191  1  0.82413481  0.57367004  0.91395067  1
  O2-  O192  1  0.04057547  0.08630850  0.26232220  1
  O2-  O193  1  0.03439524  0.08091080  0.60166653  1
  O2-  O194  1  0.04584868  0.07820515  0.93384231  1
  O2-  O195  1  0.03845377  0.57873782  0.26474064  1
  O2-  O196  1  0.03576253  0.58062397  0.60400062  1
  O2-  O197  1  0.04140980  0.58829574  0.93639931  1
  O2-  O198  1  0.54600980  0.08553053  0.27201074  1
  O2-  O199  1  0.54974070  0.08009019  0.59604946  1
  O2-  O200  1  0.54244909  0.08377125  0.93306081  1
  O2-  O201  1  0.54228512  0.58112965  0.26795473  1
  O2-  O202  1  0.55100073  0.58533211  0.60326070  1
  O2-  O203  1  0.54399437  0.57804894  0.93165847  1
  O2-  O204  1  0.16894914  0.21386371  0.26795788  1
  O2-  O205  1  0.16625332  0.20729516  0.59973521  1
  O2-  O206  1  0.17148466  0.20788236  0.93115344  1
  O2-  O207  1  0.17239770  0.69986777  0.26552163  1
  O2-  O208  1  0.16500865  0.70445807  0.59958642  1
  O2-  O209  1  0.16241813  0.70525970  0.93709414  1
  O2-  O210  1  0.66429258  0.20643015  0.26879204  1
  O2-  O211  1  0.67155605  0.20953626  0.59613350  1
  O2-  O212  1  0.66709058  0.21066869  0.93616500  1
  O2-  O213  1  0.66340307  0.71356933  0.26350202  1
  O2-  O214  1  0.66730466  0.70863584  0.60717543  1
  O2-  O215  1  0.67135730  0.70495732  0.93229236  1
  O2-  O216  1  0.08735980  0.46045683  0.06142063  1
  O2-  O217  1  0.08071734  0.45506611  0.40023541  1
  O2-  O218  1  0.08617977  0.46012929  0.73954519  1
  O2-  O219  1  0.08092618  0.94793566  0.06196964  1
  O2-  O220  1  0.07784376  0.95806066  0.39850791  1
  O2-  O221  1  0.08380129  0.95653018  0.73698384  1
  O2-  O222  1  0.58113750  0.45636917  0.06879161  1
  O2-  O223  1  0.58061971  0.45027172  0.39638678  1
  O2-  O224  1  0.58246959  0.45403803  0.72823493  1
  O2-  O225  1  0.58919838  0.95737046  0.06263360  1
  O2-  O226  1  0.58986627  0.95750546  0.39710357  1
  O2-  O227  1  0.57985885  0.95233030  0.72728748  1
  O2-  O228  1  0.20562483  0.33803055  0.06274759  1
  O2-  O229  1  0.21624683  0.33790732  0.40058423  1
  O2-  O230  1  0.21266287  0.33072687  0.73663455  1
  O2-  O231  1  0.20321507  0.83208689  0.06517226  1
  O2-  O232  1  0.20396902  0.82833017  0.39808673  1
  O2-  O233  1  0.21142580  0.82952901  0.73296805  1
  O2-  O234  1  0.71252518  0.33415721  0.07038157  1
  O2-  O235  1  0.70114535  0.33210859  0.39882481  1
  O2-  O236  1  0.70341772  0.33603771  0.72827869  1
  O2-  O237  1  0.71013989  0.83709823  0.06129916  1
  O2-  O238  1  0.70773577  0.83800026  0.39509074  1
  O2-  O239  1  0.70310312  0.83804134  0.73565783  1
  O2-  O240  1  0.45679203  0.41126729  0.26714540  1
  O2-  O241  1  0.45670016  0.42008426  0.59572136  1
  O2-  O242  1  0.45037822  0.41664912  0.93930597  1
  O2-  O243  1  0.46043061  0.91703319  0.27121603  1
  O2-  O244  1  0.45841518  0.91472601  0.59275597  1
  O2-  O245  1  0.46104591  0.91644486  0.93112289  1
  O2-  O246  1  0.94859396  0.41603992  0.27293628  1
  O2-  O247  1  0.95623057  0.41687571  0.60679368  1
  O2-  O248  1  0.95615068  0.42128838  0.93263109  1
  O2-  O249  1  0.95500484  0.91901913  0.26195415  1
  O2-  O250  1  0.95232193  0.91587290  0.60903887  1
  O2-  O251  1  0.95352124  0.91395499  0.93476871  1
  O2-  O252  1  0.33888716  0.29252748  0.26756970  1
  O2-  O253  1  0.33079643  0.29318827  0.59684258  1
  O2-  O254  1  0.33319495  0.29774852  0.94028422  1
  O2-  O255  1  0.33376617  0.80424877  0.26991555  1
  O2-  O256  1  0.33376124  0.78618462  0.59383366  1
  O2-  O257  1  0.32953246  0.79243927  0.93402408  1
  O2-  O258  1  0.83181108  0.29486032  0.27128857  1
  O2-  O259  1  0.83434781  0.30142211  0.60371141  1
  O2-  O260  1  0.83229404  0.29336360  0.93189395  1
  O2-  O261  1  0.83198477  0.79096215  0.26372030  1
  O2-  O262  1  0.83121161  0.79968311  0.61026713  1
  O2-  O263  1  0.83765638  0.79387309  0.93280116  1
  O2-  O264  1  0.41744309  0.03755658  0.06663514  1
  O2-  O265  1  0.42190869  0.04410188  0.40508321  1
  O2-  O266  1  0.41834160  0.04413607  0.72469583  1
  O2-  O267  1  0.41246321  0.54592400  0.06208513  1
  O2-  O268  1  0.41455574  0.53968383  0.39699245  1
  O2-  O269  1  0.41885738  0.54880063  0.72830316  1
  O2-  O270  1  0.91421718  0.04145003  0.06269631  1
  O2-  O271  1  0.91317801  0.04491805  0.39063985  1
  O2-  O272  1  0.91263093  0.03720901  0.74031691  1
  O2-  O273  1  0.91618440  0.54598069  0.06560733  1
  O2-  O274  1  0.91277669  0.54006339  0.40208712  1
  O2-  O275  1  0.91453728  0.53904455  0.74034256  1
  O2-  O276  1  0.29293246  0.16694205  0.06756123  1
  O2-  O277  1  0.29818295  0.17171416  0.40142517  1
  O2-  O278  1  0.29798507  0.16429685  0.72796507  1
  O2-  O279  1  0.29062416  0.66294878  0.06415486  1
  O2-  O280  1  0.30867182  0.66998018  0.38904046  1
  O2-  O281  1  0.29431391  0.66390944  0.72901143  1
  O2-  O282  1  0.79452348  0.16294973  0.06361731  1
  O2-  O283  1  0.79139938  0.16230701  0.39476868  1
  O2-  O284  1  0.79233342  0.17008365  0.73360584  1
  O2-  O285  1  0.79946228  0.66937507  0.06334701  1
  O2-  O286  1  0.78464390  0.66704545  0.39958459  1
  O2-  O287  1  0.79253155  0.66901566  0.73897387  1
