# generated using pymatgen
data_Ca2Al2SiO7
_symmetry_space_group_name_H-M   'P 1'
_cell_length_a   15.45554620
_cell_length_b   15.45546421
_cell_length_c   15.28105798
_cell_angle_alpha   90.00757654
_cell_angle_beta   89.98316374
_cell_angle_gamma   89.99662139
_symmetry_Int_Tables_number   1
_chemical_formula_structural   Ca2Al2SiO7
_chemical_formula_sum   'Ca48 Al48 Si24 O168'
_cell_volume   3650.22648303
_cell_formula_units_Z   24
loop_
 _symmetry_equiv_pos_site_id
 _symmetry_equiv_pos_as_xyz
  1  'x, y, z'
loop_
 _atom_type_symbol
 _atom_type_oxidation_number
  Ca2+  2.0
  Al0+  0.0
  Si0+  0.0
  O2-  -2.0
loop_
 _atom_site_type_symbol
 _atom_site_label
 _atom_site_symmetry_multiplicity
 _atom_site_fract_x
 _atom_site_fract_y
 _atom_site_fract_z
 _atom_site_occupancy
  Ca2+  Ca0  1  0.17070902  0.08360555  0.16634648  1
  Ca2+  Ca1  1  0.17151807  0.08746420  0.49920394  1
  Ca2+  Ca2  1  0.17020828  0.08055773  0.84537823  1
  Ca2+  Ca3  1  0.17584918  0.58995382  0.17185949  1
  Ca2+  Ca4  1  0.17476412  0.58805970  0.50004161  1
  Ca2+  Ca5  1  0.17614831  0.58321793  0.83802137  1
  Ca2+  Ca6  1  0.66210336  0.07191930  0.17284036  1
  Ca2+  Ca7  1  0.66247566  0.07462872  0.49982037  1
  Ca2+  Ca8  1  0.66900053  0.07301785  0.83734026  1
  Ca2+  Ca9  1  0.67468190  0.58301348  0.16655177  1
  Ca2+  Ca10  1  0.67434313  0.57449207  0.51027112  1
  Ca2+  Ca11  1  0.67796996  0.57592929  0.83339756  1
  Ca2+  Ca12  1  0.07607502  0.32872386  0.16060330  1
  Ca2+  Ca13  1  0.07044123  0.33961767  0.49651007  1
  Ca2+  Ca14  1  0.07717722  0.33047590  0.83407256  1
  Ca2+  Ca15  1  0.07662565  0.83330208  0.16051386  1
  Ca2+  Ca16  1  0.06988612  0.82555456  0.49213386  1
  Ca2+  Ca17  1  0.07144986  0.83859475  0.83061215  1
  Ca2+  Ca18  1  0.57792731  0.32577366  0.16732346  1
  Ca2+  Ca19  1  0.57686931  0.33290812  0.49301554  1
  Ca2+  Ca20  1  0.57932479  0.33489257  0.82525333  1
  Ca2+  Ca21  1  0.57988410  0.83771482  0.15988570  1
  Ca2+  Ca22  1  0.58762117  0.83390954  0.49656580  1
  Ca2+  Ca23  1  0.58097562  0.83757816  0.83347036  1
  Ca2+  Ca24  1  0.33449150  0.42639293  0.17496820  1
  Ca2+  Ca25  1  0.34122959  0.42449744  0.50546005  1
  Ca2+  Ca26  1  0.33958543  0.42695708  0.83661667  1
  Ca2+  Ca27  1  0.33075640  0.92474992  0.16662767  1
  Ca2+  Ca28  1  0.33322580  0.92580955  0.50117241  1
  Ca2+  Ca29  1  0.32507960  0.92192339  0.84885795  1
  Ca2+  Ca30  1  0.84328034  0.41963344  0.16908719  1
  Ca2+  Ca31  1  0.83109429  0.41832878  0.51207914  1
  Ca2+  Ca32  1  0.84081508  0.42284780  0.83697188  1
  Ca2+  Ca33  1  0.82573545  0.90862776  0.17087508  1
  Ca2+  Ca34  1  0.82533713  0.90885021  0.50520772  1
  Ca2+  Ca35  1  0.82472707  0.90642364  0.83921011  1
  Ca2+  Ca36  1  0.41649114  0.16058697  0.16536126  1
  Ca2+  Ca37  1  0.42146264  0.17789177  0.48984286  1
  Ca2+  Ca38  1  0.41595965  0.17059865  0.82815851  1
  Ca2+  Ca39  1  0.41567389  0.66997614  0.15898242  1
  Ca2+  Ca40  1  0.41674521  0.66350563  0.49523909  1
  Ca2+  Ca41  1  0.41041540  0.67119594  0.83125464  1
  Ca2+  Ca42  1  0.91915474  0.17813106  0.15742318  1
  Ca2+  Ca43  1  0.91137292  0.17962561  0.49549640  1
  Ca2+  Ca44  1  0.92230733  0.17275705  0.83102953  1
  Ca2+  Ca45  1  0.92132038  0.67401599  0.16180121  1
  Ca2+  Ca46  1  0.91657459  0.67203628  0.49357357  1
  Ca2+  Ca47  1  0.90716411  0.67270885  0.83059441  1
  Al0+  Al48  1  -0.00148125  0.00050368  -0.00445741  1
  Al0+  Al49  1  -0.00240312  0.00115458  0.33243320  1
  Al0+  Al50  1  0.00023335  -0.00078505  0.65906313  1
  Al0+  Al51  1  0.00121311  0.50132282  0.00082650  1
  Al0+  Al52  1  0.00306962  0.50253759  0.32631421  1
  Al0+  Al53  1  0.00420645  0.50053820  0.66741569  1
  Al0+  Al54  1  0.49999560  -0.00090823  0.00100289  1
  Al0+  Al55  1  0.49964243  -0.00031347  0.34061063  1
  Al0+  Al56  1  0.49941483  -0.00002637  0.67021255  1
  Al0+  Al57  1  0.50305823  0.49982150  0.00413281  1
  Al0+  Al58  1  0.50136370  0.50034738  0.33207788  1
  Al0+  Al59  1  0.50130198  0.50185487  0.67158036  1
  Al0+  Al60  1  0.25060970  0.25150086  -0.00064155  1
  Al0+  Al61  1  0.24813136  0.25293405  0.33574418  1
  Al0+  Al62  1  0.25134039  0.25135933  0.66211488  1
  Al0+  Al63  1  0.25023700  0.75149967  0.00337600  1
  Al0+  Al64  1  0.24998312  0.75068416  0.33650730  1
  Al0+  Al65  1  0.24962708  0.75204922  0.66862931  1
  Al0+  Al66  1  0.74712476  0.25015929  -0.00538771  1
  Al0+  Al67  1  0.74760949  0.24818513  0.32403276  1
  Al0+  Al68  1  0.74930324  0.24555818  0.66659779  1
  Al0+  Al69  1  0.74907699  0.74588886  0.00476419  1
  Al0+  Al70  1  0.74871753  0.74848392  0.33444552  1
  Al0+  Al71  1  0.74734084  0.74897284  0.67011515  1
  Al0+  Al72  1  0.31936052  0.07164683  0.34899582  1
  Al0+  Al73  1  0.67952305  0.42507234  0.67981493  1
  Al0+  Al74  1  0.68119803  0.92946258  0.01416613  1
  Al0+  Al75  1  0.92604673  0.82120858  0.31743894  1
  Al0+  Al76  1  0.92760731  0.81886303  0.98588638  1
  Al0+  Al77  1  0.32214248  0.57115999  0.34811694  1
  Al0+  Al78  1  0.56804047  0.17686188  0.31727888  1
  Al0+  Al79  1  0.07230183  0.17892128  0.98515603  1
  Al0+  Al80  1  0.82391629  0.56921127  0.67981663  1
  Al0+  Al81  1  0.92818820  0.32109326  0.31981560  1
  Al0+  Al82  1  0.92677949  0.81830569  0.65246435  1
  Al0+  Al83  1  0.32182088  0.57083597  0.01449369  1
  Al0+  Al84  1  0.92779176  0.32301081  0.98299277  1
  Al0+  Al85  1  0.17480610  0.92937577  0.01484109  1
  Al0+  Al86  1  0.82170158  0.56820329  0.01588142  1
  Al0+  Al87  1  0.32098107  0.57138301  0.68111749  1
  Al0+  Al88  1  0.07284793  0.68094557  0.31699022  1
  Al0+  Al89  1  0.32101551  0.07307472  0.01415286  1
  Al0+  Al90  1  0.92997043  0.32055603  0.65381130  1
  Al0+  Al91  1  0.42761724  0.32322358  0.31725634  1
  Al0+  Al92  1  0.67965260  0.92927143  0.68243548  1
  Al0+  Al93  1  0.68077680  0.92838037  0.34839807  1
  Al0+  Al94  1  0.42992676  0.82012825  0.98758165  1
  Al0+  Al95  1  0.43169852  0.32242767  0.65367922  1
  Si0+  Si96  1  0.68050343  0.42754936  0.34604507  1
  Si0+  Si97  1  0.56891947  0.68096552  0.65244129  1
  Si0+  Si98  1  0.82212031  0.07425592  0.34892458  1
  Si0+  Si99  1  0.67765791  0.42509518  0.01921198  1
  Si0+  Si100  1  0.31949181  0.07182010  0.68116703  1
  Si0+  Si101  1  0.07561802  0.67898382  0.65062473  1
  Si0+  Si102  1  0.82104755  0.07440153  0.01521132  1
  Si0+  Si103  1  0.17703863  0.42941928  0.35097611  1
  Si0+  Si104  1  0.57080044  0.67819400  0.31902458  1
  Si0+  Si105  1  0.43038696  0.32292396  0.98537914  1
  Si0+  Si106  1  0.17861478  0.93051872  0.68015234  1
  Si0+  Si107  1  0.57103168  0.17437932  0.64989664  1
  Si0+  Si108  1  0.17886365  0.42874842  0.01735775  1
  Si0+  Si109  1  0.07381278  0.67892291  0.98196415  1
  Si0+  Si110  1  0.57192833  0.67599921  0.98180529  1
  Si0+  Si111  1  0.07323751  0.17723219  0.64741373  1
  Si0+  Si112  1  0.42979592  0.82119003  0.32127222  1
  Si0+  Si113  1  0.42723069  0.82236683  0.65146426  1
  Si0+  Si114  1  0.82191865  0.56878781  0.34735063  1
  Si0+  Si115  1  0.17521431  0.92817366  0.35206859  1
  Si0+  Si116  1  0.56929899  0.17726574  0.98276346  1
  Si0+  Si117  1  0.07259297  0.17759871  0.31732559  1
  Si0+  Si118  1  0.17876408  0.42609670  0.68428675  1
  Si0+  Si119  1  0.82496772  0.07116912  0.68320290  1
  O2-  O120  1  0.24695577  0.00249659  0.06317558  1
  O2-  O121  1  0.24236426  -0.00105206  0.39672041  1
  O2-  O122  1  0.24722596  0.00305136  0.72330478  1
  O2-  O123  1  0.24752106  0.49709756  0.06231930  1
  O2-  O124  1  0.24955548  0.49462569  0.39522644  1
  O2-  O125  1  0.24849775  0.49461763  0.72755704  1
  O2-  O126  1  0.75669657  0.00262553  0.06136876  1
  O2-  O127  1  0.75808873  0.00115150  0.39409140  1
  O2-  O128  1  0.75807070  0.00058138  0.72765469  1
  O2-  O129  1  0.75150058  0.48876996  0.06278387  1
  O2-  O130  1  0.75564817  0.49350119  0.38940228  1
  O2-  O131  1  0.75862741  0.48993479  0.72887984  1
  O2-  O132  1  0.00113737  0.24412780  0.27456479  1
  O2-  O133  1  0.00349327  0.24580708  0.60438046  1
  O2-  O134  1  -0.00107114  0.24935250  0.93450239  1
  O2-  O135  1  0.00200236  0.75394585  0.26747587  1
  O2-  O136  1  0.00028051  0.74140946  0.60748595  1
  O2-  O137  1  0.00434883  0.74671615  0.93724909  1
  O2-  O138  1  0.49374034  0.24635552  0.26621648  1
  O2-  O139  1  0.50771018  0.24893143  0.60722168  1
  O2-  O140  1  0.49883261  0.24977876  0.94204374  1
  O2-  O141  1  0.49870467  0.74855983  0.27851629  1
  O2-  O142  1  0.49778624  0.75147055  0.60847839  1
  O2-  O143  1  0.50150847  0.74347551  0.93807453  1
  O2-  O144  1  0.07198263  0.18203691  0.09886938  1
  O2-  O145  1  0.07214743  0.17933420  0.42334669  1
  O2-  O146  1  0.07443875  0.17590091  0.75258516  1
  O2-  O147  1  0.07300350  0.67988621  0.08742229  1
  O2-  O148  1  0.07102320  0.68052040  0.43121736  1
  O2-  O149  1  0.08142995  0.68332817  0.75575249  1
  O2-  O150  1  0.56955947  0.17666438  0.08755727  1
  O2-  O151  1  0.56845482  0.17879603  0.43116287  1
  O2-  O152  1  0.56635815  0.17041403  0.75562401  1
  O2-  O153  1  0.57129230  0.67578478  0.08797372  1
  O2-  O154  1  0.57168531  0.67729775  0.42446001  1
  O2-  O155  1  0.56823947  0.68189516  0.75722998  1
  O2-  O156  1  0.17663103  0.43037154  0.24555516  1
  O2-  O157  1  0.17729925  0.42591049  0.57880338  1
  O2-  O158  1  0.18074892  0.42943468  0.91142663  1
  O2-  O159  1  0.17636571  0.92739182  0.24703804  1
  O2-  O160  1  0.18151002  0.93053996  0.57498454  1
  O2-  O161  1  0.17760040  0.93004347  0.90025363  1
  O2-  O162  1  0.67935707  0.43101687  0.24108104  1
  O2-  O163  1  0.67839631  0.42945393  0.56556354  1
  O2-  O164  1  0.67321235  0.42729961  0.91385657  1
  O2-  O165  1  0.67917644  0.92821945  0.23557029  1
  O2-  O166  1  0.67828092  0.93018191  0.56931253  1
  O2-  O167  1  0.68034341  0.93147595  0.90084525  1
  O2-  O168  1  0.43253284  0.32465026  0.09003254  1
  O2-  O169  1  0.43352299  0.32534572  0.43106537  1
  O2-  O170  1  0.43146409  0.31960930  0.76730167  1
  O2-  O171  1  0.43268731  0.82031210  0.10103444  1
  O2-  O172  1  0.43120209  0.82042738  0.42712660  1
  O2-  O173  1  0.42630898  0.82270597  0.75632314  1
  O2-  O174  1  0.93026828  0.32129016  0.09676555  1
  O2-  O175  1  0.92746436  0.32199899  0.43341245  1
  O2-  O176  1  0.93346539  0.31908296  0.76612923  1
  O2-  O177  1  0.92649185  0.81646947  0.09853747  1
  O2-  O178  1  0.92449698  0.81608237  0.43149942  1
  O2-  O179  1  0.92797869  0.81872209  0.76547955  1
  O2-  O180  1  0.31948122  0.06775123  0.23652442  1
  O2-  O181  1  0.31982174  0.07027302  0.57602468  1
  O2-  O182  1  0.32162846  0.07178187  0.89971631  1
  O2-  O183  1  0.32243385  0.57142270  0.23529379  1
  O2-  O184  1  0.32046694  0.57211097  0.56799640  1
  O2-  O185  1  0.32127386  0.56897357  0.90107761  1
  O2-  O186  1  0.82042010  0.07614281  0.24361245  1
  O2-  O187  1  0.82390958  0.07275743  0.57749293  1
  O2-  O188  1  0.81695627  0.07565689  0.90942887  1
  O2-  O189  1  0.81877030  0.56954085  0.24242259  1
  O2-  O190  1  0.82018320  0.57006175  0.56549372  1
  O2-  O191  1  0.81860248  0.56895627  0.90286645  1
  O2-  O192  1  0.05136209  0.08280233  0.27276020  1
  O2-  O193  1  0.04949880  0.08410652  0.59895223  1
  O2-  O194  1  0.04526828  0.08121367  0.92977659  1
  O2-  O195  1  0.04601852  0.58389405  0.26142391  1
  O2-  O196  1  0.05858354  0.58272762  0.60708628  1
  O2-  O197  1  0.05018864  0.58445406  0.93714713  1
  O2-  O198  1  0.53868340  0.07724813  0.26720679  1
  O2-  O199  1  0.53802158  0.08346096  0.60177808  1
  O2-  O200  1  0.53984435  0.08668375  0.93403753  1
  O2-  O201  1  0.54444387  0.58759105  0.26912392  1
  O2-  O202  1  0.54117564  0.58938149  0.60444581  1
  O2-  O203  1  0.54801045  0.58152414  0.93682782  1
  O2-  O204  1  0.16503554  0.20583584  0.27123968  1
  O2-  O205  1  0.16647867  0.20424379  0.60071181  1
  O2-  O206  1  0.17058714  0.20930112  0.93069037  1
  O2-  O207  1  0.17250367  0.70896945  0.26629346  1
  O2-  O208  1  0.16576386  0.71278701  0.60074546  1
  O2-  O209  1  0.16771942  0.70423773  0.93654549  1
  O2-  O210  1  0.66431201  0.20556017  0.26048713  1
  O2-  O211  1  0.66713820  0.19095006  0.60623472  1
  O2-  O212  1  0.66031995  0.20401069  0.93302978  1
  O2-  O213  1  0.66145869  0.70708251  0.27043592  1
  O2-  O214  1  0.65958053  0.70954198  0.60304441  1
  O2-  O215  1  0.66445901  0.70431408  0.93620787  1
  O2-  O216  1  0.08546892  0.45363501  0.06339309  1
  O2-  O217  1  0.08488891  0.46163406  0.39803204  1
  O2-  O218  1  0.08692061  0.45294379  0.73301673  1
  O2-  O219  1  0.07585714  0.95662121  0.06685643  1
  O2-  O220  1  0.08053808  0.95249244  0.39788638  1
  O2-  O221  1  0.08508173  0.95633763  0.72490943  1
  O2-  O222  1  0.58748874  0.45688005  0.06910867  1
  O2-  O223  1  0.59075647  0.46066296  0.39455037  1
  O2-  O224  1  0.58565133  0.46239585  0.73643110  1
  O2-  O225  1  0.58524475  0.96273278  0.06744014  1
  O2-  O226  1  0.58541370  0.96002184  0.40505324  1
  O2-  O227  1  0.58282577  0.96197206  0.73618176  1
  O2-  O228  1  0.20444672  0.33551079  0.06333049  1
  O2-  O229  1  0.19535698  0.33494713  0.39826979  1
  O2-  O230  1  0.20463477  0.33195291  0.72939068  1
  O2-  O231  1  0.20533616  0.83240477  0.06853105  1
  O2-  O232  1  0.20473438  0.83640042  0.40025189  1
  O2-  O233  1  0.20786790  0.84027875  0.72894544  1
  O2-  O234  1  0.69684377  0.32890850  0.06215545  1
  O2-  O235  1  0.70264161  0.33315491  0.39031542  1
  O2-  O236  1  0.69618489  0.32293089  0.72941020  1
  O2-  O237  1  0.70721404  0.83154568  0.06723260  1
  O2-  O238  1  0.70918368  0.83040495  0.40287315  1
  O2-  O239  1  0.70624743  0.83206016  0.73643574  1
  O2-  O240  1  0.46261863  0.41948371  0.26333176  1
  O2-  O241  1  0.46194437  0.42037420  0.60197796  1
  O2-  O242  1  0.46272732  0.41374757  0.93776825  1
  O2-  O243  1  0.46027927  0.91189135  0.27508527  1
  O2-  O244  1  0.45648626  0.91436227  0.60469414  1
  O2-  O245  1  0.46268282  0.91575390  0.93177705  1
  O2-  O246  1  0.96170125  0.41627683  0.26570543  1
  O2-  O247  1  0.96156998  0.41802036  0.60038365  1
  O2-  O248  1  0.95997988  0.42125599  0.93196015  1
  O2-  O249  1  0.94743197  0.92296209  0.26907336  1
  O2-  O250  1  0.95798691  0.91445028  0.59697826  1
  O2-  O251  1  0.95245689  0.91701067  0.93182685  1
  O2-  O252  1  0.32560068  0.30272030  0.27007400  1
  O2-  O253  1  0.33518543  0.29265255  0.59867890  1
  O2-  O254  1  0.33769201  0.29952697  0.93812998  1
  O2-  O255  1  0.33717258  0.79616874  0.27565845  1
  O2-  O256  1  0.33557142  0.79531702  0.60323084  1
  O2-  O257  1  0.33240057  0.79144106  0.93353701  1
  O2-  O258  1  0.83237592  0.29299848  0.26365940  1
  O2-  O259  1  0.83196861  0.28971991  0.60106062  1
  O2-  O260  1  0.82760456  0.29761915  0.93186784  1
  O2-  O261  1  0.82880454  0.78711605  0.26566229  1
  O2-  O262  1  0.82893088  0.78797895  0.60056289  1
  O2-  O263  1  0.83110753  0.78255296  0.93392601  1
  O2-  O264  1  0.41779559  0.04018516  0.06712115  1
  O2-  O265  1  0.41336132  0.03702540  0.40633650  1
  O2-  O266  1  0.41042127  0.04276428  0.72913380  1
  O2-  O267  1  0.41926994  0.54103498  0.06742262  1
  O2-  O268  1  0.42044363  0.54148783  0.40089030  1
  O2-  O269  1  0.41707683  0.54288692  0.73657533  1
  O2-  O270  1  0.91653606  0.05432279  0.05786175  1
  O2-  O271  1  0.91745490  0.05611283  0.39516548  1
  O2-  O272  1  0.92042447  0.04761099  0.72609056  1
  O2-  O273  1  0.91995197  0.54253669  0.06932705  1
  O2-  O274  1  0.91638902  0.54642646  0.39117705  1
  O2-  O275  1  0.92504113  0.55016851  0.73105690  1
  O2-  O276  1  0.29666687  0.17274488  0.06618507  1
  O2-  O277  1  0.29033271  0.16974495  0.40257303  1
  O2-  O278  1  0.29404300  0.16510639  0.72658896  1
  O2-  O279  1  0.29279511  0.66760395  0.06806348  1
  O2-  O280  1  0.29186582  0.66800006  0.40335159  1
  O2-  O281  1  0.28919645  0.66874749  0.73395426  1
  O2-  O282  1  0.79158522  0.16738577  0.06092383  1
  O2-  O283  1  0.78967749  0.16648105  0.39560739  1
  O2-  O284  1  0.79738541  0.16300436  0.73173610  1
  O2-  O285  1  0.78447967  0.66109813  0.07284645  1
  O2-  O286  1  0.78822960  0.65822660  0.39586900  1
  O2-  O287  1  0.78510401  0.66350255  0.73410852  1
