# generated using pymatgen
data_Ca2Al2SiO7
_symmetry_space_group_name_H-M   'P 1'
_cell_length_a   15.46211807
_cell_length_b   15.46376298
_cell_length_c   15.28794722
_cell_angle_alpha   89.98925759
_cell_angle_beta   89.99882724
_cell_angle_gamma   89.98240881
_symmetry_Int_Tables_number   1
_chemical_formula_structural   Ca2Al2SiO7
_chemical_formula_sum   'Ca48 Al48 Si24 O168'
_cell_volume   3655.38660835
_cell_formula_units_Z   24
loop_
 _symmetry_equiv_pos_site_id
 _symmetry_equiv_pos_as_xyz
  1  'x, y, z'
loop_
 _atom_type_symbol
 _atom_type_oxidation_number
  Ca2+  2.0
  Al0+  0.0
  Si0+  0.0
  O2-  -2.0
loop_
 _atom_site_type_symbol
 _atom_site_label
 _atom_site_symmetry_multiplicity
 _atom_site_fract_x
 _atom_site_fract_y
 _atom_site_fract_z
 _atom_site_occupancy
  Ca2+  Ca0  1  0.17836351  0.08014995  0.17259109  1
  Ca2+  Ca1  1  0.17261032  0.07249945  0.49926444  1
  Ca2+  Ca2  1  0.17586564  0.08205492  0.84408640  1
  Ca2+  Ca3  1  0.17221139  0.59455719  0.16309798  1
  Ca2+  Ca4  1  0.16611144  0.58440273  0.50735640  1
  Ca2+  Ca5  1  0.17003763  0.58778490  0.84058459  1
  Ca2+  Ca6  1  0.67144326  0.08037114  0.16849607  1
  Ca2+  Ca7  1  0.66586147  0.08148936  0.50348677  1
  Ca2+  Ca8  1  0.66239430  0.07386129  0.84138089  1
  Ca2+  Ca9  1  0.65806113  0.57599971  0.17034947  1
  Ca2+  Ca10  1  0.66854631  0.58235349  0.50888738  1
  Ca2+  Ca11  1  0.66431495  0.59000355  0.83692901  1
  Ca2+  Ca12  1  0.08021550  0.32391618  0.15922649  1
  Ca2+  Ca13  1  0.07953940  0.33042845  0.49747815  1
  Ca2+  Ca14  1  0.08524381  0.32565402  0.83394262  1
  Ca2+  Ca15  1  0.07312087  0.84231422  0.16200764  1
  Ca2+  Ca16  1  0.07962788  0.83073436  0.49237700  1
  Ca2+  Ca17  1  0.07763929  0.82412847  0.83363820  1
  Ca2+  Ca18  1  0.59004722  0.32112263  0.16446255  1
  Ca2+  Ca19  1  0.58467131  0.32503269  0.49554995  1
  Ca2+  Ca20  1  0.57802780  0.31962217  0.82819971  1
  Ca2+  Ca21  1  0.57352292  0.83504547  0.15787990  1
  Ca2+  Ca22  1  0.57818952  0.83556698  0.50085684  1
  Ca2+  Ca23  1  0.57599301  0.83672391  0.82894569  1
  Ca2+  Ca24  1  0.33542761  0.42572006  0.16673115  1
  Ca2+  Ca25  1  0.33446049  0.41601499  0.50647947  1
  Ca2+  Ca26  1  0.33970416  0.42347100  0.83978972  1
  Ca2+  Ca27  1  0.33558538  0.92305717  0.17214420  1
  Ca2+  Ca28  1  0.33919806  0.91477337  0.49811709  1
  Ca2+  Ca29  1  0.33778011  0.91687917  0.84154467  1
  Ca2+  Ca30  1  0.82577709  0.42019807  0.17278490  1
  Ca2+  Ca31  1  0.82354175  0.42229496  0.50441705  1
  Ca2+  Ca32  1  0.83315144  0.42592741  0.83484836  1
  Ca2+  Ca33  1  0.83321883  0.92103608  0.16856996  1
  Ca2+  Ca34  1  0.82877537  0.91912847  0.50380265  1
  Ca2+  Ca35  1  0.81832621  0.91640031  0.84228669  1
  Ca2+  Ca36  1  0.42656865  0.15723968  0.16223819  1
  Ca2+  Ca37  1  0.42995661  0.16440324  0.49613631  1
  Ca2+  Ca38  1  0.42786432  0.16285867  0.82945700  1
  Ca2+  Ca39  1  0.41781731  0.67834690  0.15688870  1
  Ca2+  Ca40  1  0.42094456  0.67865758  0.49795479  1
  Ca2+  Ca41  1  0.42624664  0.67518223  0.83120128  1
  Ca2+  Ca42  1  0.91918866  0.15869272  0.15806955  1
  Ca2+  Ca43  1  0.91476298  0.16357551  0.49193886  1
  Ca2+  Ca44  1  0.92016901  0.15884509  0.83801602  1
  Ca2+  Ca45  1  0.92206743  0.68345993  0.15795553  1
  Ca2+  Ca46  1  0.91790939  0.67038634  0.49753876  1
  Ca2+  Ca47  1  0.92145141  0.66902123  0.82867536  1
  Al0+  Al48  1  -0.00041730  0.00104810  -0.00904515  1
  Al0+  Al49  1  0.00155075  -0.00042725  0.33824799  1
  Al0+  Al50  1  0.00200404  -0.00087235  0.66822200  1
  Al0+  Al51  1  -0.00089189  0.49823265  -0.00039800  1
  Al0+  Al52  1  0.00089936  0.49943661  0.33214626  1
  Al0+  Al53  1  0.00008722  0.49876668  0.66748991  1
  Al0+  Al54  1  0.50047613  0.00041317  0.00079790  1
  Al0+  Al55  1  0.50187464  0.00052929  0.32932316  1
  Al0+  Al56  1  0.49981670  0.00160095  0.66221319  1
  Al0+  Al57  1  0.49843671  0.50088138  0.00345164  1
  Al0+  Al58  1  0.49868881  0.49746077  0.34022471  1
  Al0+  Al59  1  0.49925770  0.49958022  0.66220414  1
  Al0+  Al60  1  0.24870377  0.25133299  0.00150265  1
  Al0+  Al61  1  0.25139757  0.25108924  0.33801024  1
  Al0+  Al62  1  0.24789800  0.24895625  0.66325475  1
  Al0+  Al63  1  0.24863180  0.75041366  -0.00161106  1
  Al0+  Al64  1  0.25117920  0.74928709  0.33416507  1
  Al0+  Al65  1  0.24778721  0.74893881  0.65982536  1
  Al0+  Al66  1  0.74994644  0.25119933  -0.00298450  1
  Al0+  Al67  1  0.74984391  0.25169631  0.33802417  1
  Al0+  Al68  1  0.75256038  0.25119901  0.66577494  1
  Al0+  Al69  1  0.74952535  0.74916375  0.00087712  1
  Al0+  Al70  1  0.75200584  0.74931535  0.32829335  1
  Al0+  Al71  1  0.75049628  0.75155643  0.67154155  1
  Al0+  Al72  1  0.82012576  0.57041120  0.68047822  1
  Al0+  Al73  1  0.42809181  0.82162404  0.65061335  1
  Al0+  Al74  1  0.32142893  0.07225019  0.01211428  1
  Al0+  Al75  1  0.06870204  0.67815637  0.65192960  1
  Al0+  Al76  1  0.67779738  0.92656250  0.01690599  1
  Al0+  Al77  1  0.18023897  0.92832687  0.34828624  1
  Al0+  Al78  1  0.06973648  0.67819476  0.98552556  1
  Al0+  Al79  1  0.42722555  0.32087070  0.65258594  1
  Al0+  Al80  1  0.82092124  0.06964830  0.34630008  1
  Al0+  Al81  1  0.43038611  0.81970060  0.31736758  1
  Al0+  Al82  1  0.67869753  0.93240770  0.67933425  1
  Al0+  Al83  1  0.67897002  0.43002313  0.34824927  1
  Al0+  Al84  1  0.42957857  0.82253560  0.98617948  1
  Al0+  Al85  1  0.57400705  0.67971877  0.65173266  1
  Al0+  Al86  1  0.92685362  0.82361151  0.98250782  1
  Al0+  Al87  1  0.32467630  0.07176405  0.35058456  1
  Al0+  Al88  1  0.92972117  0.82216477  0.32045158  1
  Al0+  Al89  1  0.31948881  0.57159974  0.01267634  1
  Al0+  Al90  1  0.82032814  0.07114840  0.01321918  1
  Al0+  Al91  1  0.57131553  0.17976144  0.98730158  1
  Al0+  Al92  1  0.57048657  0.67572956  0.98758840  1
  Al0+  Al93  1  0.07213463  0.17936178  0.98760517  1
  Al0+  Al94  1  0.57269816  0.17957194  0.65060647  1
  Al0+  Al95  1  0.57192513  0.18131305  0.31741744  1
  Si0+  Si96  1  0.92851741  0.82244290  0.64972436  1
  Si0+  Si97  1  0.07068560  0.17726143  0.64943179  1
  Si0+  Si98  1  0.17752204  0.42835753  0.34958514  1
  Si0+  Si99  1  0.42773466  0.32270771  0.98709548  1
  Si0+  Si100  1  0.07217818  0.67596627  0.31642364  1
  Si0+  Si101  1  0.92685199  0.32224970  0.98238839  1
  Si0+  Si102  1  0.17768906  0.92652073  0.68368861  1
  Si0+  Si103  1  0.57199153  0.67525853  0.31843690  1
  Si0+  Si104  1  0.67685118  0.42719524  0.68542633  1
  Si0+  Si105  1  0.93112627  0.32101060  0.65101681  1
  Si0+  Si106  1  0.31963945  0.57038771  0.35077650  1
  Si0+  Si107  1  0.67867545  0.92581374  0.34932965  1
  Si0+  Si108  1  0.82324634  0.57233070  0.34859409  1
  Si0+  Si109  1  0.31797989  0.06992232  0.68102988  1
  Si0+  Si110  1  0.17595292  0.42768049  0.01785859  1
  Si0+  Si111  1  0.42590425  0.32322106  0.31495619  1
  Si0+  Si112  1  0.67950972  0.43050526  0.01361088  1
  Si0+  Si113  1  0.82378087  0.57127110  0.01629371  1
  Si0+  Si114  1  0.17788898  0.92865083  0.01378054  1
  Si0+  Si115  1  0.17858846  0.42739782  0.68251004  1
  Si0+  Si116  1  0.31994310  0.57090729  0.68073125  1
  Si0+  Si117  1  0.07120184  0.18007593  0.32029855  1
  Si0+  Si118  1  0.92956659  0.32159323  0.31903676  1
  Si0+  Si119  1  0.82512008  0.07429217  0.68415336  1
  O2-  O120  1  0.24744819  -0.00370876  0.05793518  1
  O2-  O121  1  0.25501113  -0.00319754  0.40030889  1
  O2-  O122  1  0.25090359  -0.00429281  0.72471498  1
  O2-  O123  1  0.24234145  0.49884495  0.06132195  1
  O2-  O124  1  0.24733409  0.49973888  0.39244374  1
  O2-  O125  1  0.25234371  0.49571306  0.72302587  1
  O2-  O126  1  0.75168751  -0.00187752  0.06561918  1
  O2-  O127  1  0.74771980  -0.00551404  0.39367853  1
  O2-  O128  1  0.75322472  0.00855168  0.72548125  1
  O2-  O129  1  0.74821820  0.50389139  0.05686239  1
  O2-  O130  1  0.75067108  0.50838607  0.39356457  1
  O2-  O131  1  0.74152273  0.49999991  0.72928843  1
  O2-  O132  1  -0.00102973  0.24947792  0.27692999  1
  O2-  O133  1  -0.00413026  0.24457670  0.60754554  1
  O2-  O134  1  -0.00406659  0.25278598  0.94002311  1
  O2-  O135  1  0.00496589  0.74674450  0.27483448  1
  O2-  O136  1  -0.00416855  0.75312711  0.60403119  1
  O2-  O137  1  -0.00404229  0.74714288  0.93457751  1
  O2-  O138  1  0.49335555  0.25364552  0.27130400  1
  O2-  O139  1  0.50181092  0.25323144  0.60082089  1
  O2-  O140  1  0.49182413  0.25065455  0.94263995  1
  O2-  O141  1  0.50682694  0.74575836  0.27298747  1
  O2-  O142  1  0.50195632  0.75077346  0.60100873  1
  O2-  O143  1  0.50406949  0.75236072  0.93748125  1
  O2-  O144  1  0.07244653  0.18233122  0.10096941  1
  O2-  O145  1  0.06928070  0.18353354  0.42587239  1
  O2-  O146  1  0.07338710  0.17947026  0.75424177  1
  O2-  O147  1  0.06779159  0.67838335  0.09929987  1
  O2-  O148  1  0.06927247  0.67163133  0.42216306  1
  O2-  O149  1  0.06891836  0.67775529  0.76438161  1
  O2-  O150  1  0.57420886  0.18318519  0.10031142  1
  O2-  O151  1  0.57313897  0.18405162  0.43033706  1
  O2-  O152  1  0.57020687  0.17962104  0.76425568  1
  O2-  O153  1  0.56423669  0.67006484  0.10118156  1
  O2-  O154  1  0.57113833  0.67500455  0.42393844  1
  O2-  O155  1  0.57048567  0.67938657  0.76474375  1
  O2-  O156  1  0.17570070  0.42620684  0.24504286  1
  O2-  O157  1  0.17637448  0.42791141  0.57698009  1
  O2-  O158  1  0.17656869  0.42520844  0.91222966  1
  O2-  O159  1  0.17733389  0.93318629  0.23491133  1
  O2-  O160  1  0.17295929  0.92959222  0.57891335  1
  O2-  O161  1  0.17945595  0.93005404  0.90765167  1
  O2-  O162  1  0.68173834  0.43018243  0.23459839  1
  O2-  O163  1  0.68137048  0.42562487  0.57978900  1
  O2-  O164  1  0.68108191  0.42970319  0.90870774  1
  O2-  O165  1  0.67948037  0.92589462  0.24420612  1
  O2-  O166  1  0.68175304  0.93306395  0.56570920  1
  O2-  O167  1  0.67608253  0.92995848  0.90313740  1
  O2-  O168  1  0.43003010  0.32516446  0.09262930  1
  O2-  O169  1  0.42576429  0.32450136  0.42037668  1
  O2-  O170  1  0.42577741  0.31888991  0.76639810  1
  O2-  O171  1  0.42830969  0.82047384  0.09990503  1
  O2-  O172  1  0.43075919  0.81656050  0.43034962  1
  O2-  O173  1  0.42548582  0.82068972  0.76359132  1
  O2-  O174  1  0.92710576  0.32476571  0.08821122  1
  O2-  O175  1  0.93304013  0.32356469  0.42437196  1
  O2-  O176  1  0.93419116  0.32331705  0.75580935  1
  O2-  O177  1  0.93095233  0.82463562  0.09657143  1
  O2-  O178  1  0.92968101  0.81920371  0.43379068  1
  O2-  O179  1  0.93149953  0.82237786  0.75474592  1
  O2-  O180  1  0.32090921  0.07380591  0.23711439  1
  O2-  O181  1  0.31454574  0.07096309  0.57617002  1
  O2-  O182  1  0.31911113  0.07395560  0.89841916  1
  O2-  O183  1  0.31916641  0.56939741  0.24571404  1
  O2-  O184  1  0.31603376  0.56973287  0.57524551  1
  O2-  O185  1  0.31986026  0.56762865  0.89957830  1
  O2-  O186  1  0.82279284  0.07077213  0.23389754  1
  O2-  O187  1  0.82834189  0.07298824  0.57830559  1
  O2-  O188  1  0.81780050  0.07231885  0.89959254  1
  O2-  O189  1  0.82606199  0.56837417  0.24318191  1
  O2-  O190  1  0.82194859  0.56566236  0.56705642  1
  O2-  O191  1  0.82776479  0.56663948  0.91132738  1
  O2-  O192  1  0.04494665  0.08804138  0.27495378  1
  O2-  O193  1  0.04578466  0.08420696  0.60309780  1
  O2-  O194  1  0.04390969  0.08580215  0.92741802  1
  O2-  O195  1  0.04696018  0.58235026  0.26940350  1
  O2-  O196  1  0.03870374  0.58050273  0.59855694  1
  O2-  O197  1  0.04521032  0.57735608  0.93512396  1
  O2-  O198  1  0.54479465  0.08393934  0.26435129  1
  O2-  O199  1  0.54088302  0.08388896  0.59540723  1
  O2-  O200  1  0.54039393  0.08419164  0.93346105  1
  O2-  O201  1  0.54263679  0.58108730  0.27532626  1
  O2-  O202  1  0.54726242  0.58016825  0.59970241  1
  O2-  O203  1  0.53761799  0.57910171  0.93247588  1
  O2-  O204  1  0.16282511  0.21117606  0.27471375  1
  O2-  O205  1  0.15922094  0.21006301  0.59915828  1
  O2-  O206  1  0.16648934  0.21503666  0.93072785  1
  O2-  O207  1  0.16695245  0.69949447  0.27338763  1
  O2-  O208  1  0.16390143  0.70753096  0.59503155  1
  O2-  O209  1  0.16720534  0.70703210  0.93178751  1
  O2-  O210  1  0.66801821  0.21845917  0.26595882  1
  O2-  O211  1  0.67332799  0.20598903  0.60038611  1
  O2-  O212  1  0.66497778  0.21565431  0.93121514  1
  O2-  O213  1  0.66771656  0.69377164  0.27377784  1
  O2-  O214  1  0.67347549  0.70693522  0.59998699  1
  O2-  O215  1  0.67277337  0.69305416  0.94049844  1
  O2-  O216  1  0.08112535  0.44917578  0.06392960  1
  O2-  O217  1  0.08519452  0.45570196  0.39807727  1
  O2-  O218  1  0.08824933  0.45675605  0.73113788  1
  O2-  O219  1  0.08439246  0.95806018  0.05708347  1
  O2-  O220  1  0.08484079  0.96133139  0.40578518  1
  O2-  O221  1  0.08732908  0.95736565  0.73280388  1
  O2-  O222  1  0.58809964  0.45593473  0.06307284  1
  O2-  O223  1  0.58152503  0.45453034  0.40374868  1
  O2-  O224  1  0.58058418  0.44734286  0.72761891  1
  O2-  O225  1  0.58091752  0.95885409  0.06998054  1
  O2-  O226  1  0.58565976  0.95330794  0.39450232  1
  O2-  O227  1  0.58122150  0.96341698  0.73203640  1
  O2-  O228  1  0.20397493  0.33615502  0.06707361  1
  O2-  O229  1  0.20465710  0.33781175  0.40031457  1
  O2-  O230  1  0.20289861  0.33373856  0.72867884  1
  O2-  O231  1  0.19867221  0.83463210  0.06013386  1
  O2-  O232  1  0.20445489  0.82803712  0.40043857  1
  O2-  O233  1  0.20328587  0.83280152  0.72749643  1
  O2-  O234  1  0.71201079  0.34054859  0.06212534  1
  O2-  O235  1  0.71629610  0.33756482  0.40562774  1
  O2-  O236  1  0.70920440  0.33535004  0.73201351  1
  O2-  O237  1  0.70250355  0.82667606  0.06935732  1
  O2-  O238  1  0.70466315  0.83117910  0.39403386  1
  O2-  O239  1  0.70905402  0.83658440  0.73448445  1
  O2-  O240  1  0.45286799  0.41762562  0.27072397  1
  O2-  O241  1  0.44975138  0.42034559  0.59908542  1
  O2-  O242  1  0.45818992  0.41385113  0.93930167  1
  O2-  O243  1  0.45861261  0.91712802  0.26506468  1
  O2-  O244  1  0.45591167  0.91969671  0.59736388  1
  O2-  O245  1  0.45642501  0.92059427  0.93268317  1
  O2-  O246  1  0.95936986  0.41221453  0.26956039  1
  O2-  O247  1  0.96564685  0.40912802  0.60086960  1
  O2-  O248  1  0.95525041  0.41411483  0.93432813  1
  O2-  O249  1  0.96343621  0.91855855  0.26785339  1
  O2-  O250  1  0.95658210  0.91629228  0.60436216  1
  O2-  O251  1  0.95700553  0.91899590  0.92563383  1
  O2-  O252  1  0.33025466  0.30164159  0.27096953  1
  O2-  O253  1  0.32822042  0.29295786  0.59895264  1
  O2-  O254  1  0.33201417  0.30431215  0.94312349  1
  O2-  O255  1  0.33303230  0.78713929  0.26579591  1
  O2-  O256  1  0.33079042  0.79069403  0.59620026  1
  O2-  O257  1  0.33107804  0.79376720  0.93442289  1
  O2-  O258  1  0.83718311  0.29652050  0.27333036  1
  O2-  O259  1  0.83790144  0.29955948  0.60357543  1
  O2-  O260  1  0.83493417  0.29776106  0.93328128  1
  O2-  O261  1  0.83431764  0.79201601  0.26346397  1
  O2-  O262  1  0.83485054  0.79758103  0.60503963  1
  O2-  O263  1  0.82784948  0.79507452  0.93278349  1
  O2-  O264  1  0.41689103  0.04234995  0.06697078  1
  O2-  O265  1  0.42407140  0.04354175  0.40121806  1
  O2-  O266  1  0.41175691  0.04633628  0.72540233  1
  O2-  O267  1  0.41308950  0.53655949  0.07092234  1
  O2-  O268  1  0.40993394  0.54109823  0.40005798  1
  O2-  O269  1  0.41306871  0.54576850  0.72657671  1
  O2-  O270  1  0.92219847  0.04599289  0.06117608  1
  O2-  O271  1  0.91730718  0.04159787  0.40284233  1
  O2-  O272  1  0.91896067  0.04686198  0.72982561  1
  O2-  O273  1  0.91270651  0.53703292  0.06611005  1
  O2-  O274  1  0.91568598  0.54156039  0.39546843  1
  O2-  O275  1  0.91481980  0.53174156  0.73476979  1
  O2-  O276  1  0.28946747  0.16857463  0.06660546  1
  O2-  O277  1  0.29332677  0.16998429  0.40354437  1
  O2-  O278  1  0.28451080  0.16069963  0.72754570  1
  O2-  O279  1  0.28733736  0.66733395  0.06846688  1
  O2-  O280  1  0.29175639  0.66123384  0.39929828  1
  O2-  O281  1  0.28683509  0.66152619  0.72635593  1
  O2-  O282  1  0.79451214  0.17191882  0.06416434  1
  O2-  O283  1  0.79217908  0.16686113  0.40112805  1
  O2-  O284  1  0.80611733  0.17066769  0.72718273  1
  O2-  O285  1  0.80199755  0.66411523  0.06303405  1
  O2-  O286  1  0.80233358  0.66754111  0.39302485  1
  O2-  O287  1  0.79672086  0.66797467  0.73476997  1
