# generated using pymatgen
data_Ca2Al2SiO7
_symmetry_space_group_name_H-M   'P 1'
_cell_length_a   15.45992093
_cell_length_b   15.46161224
_cell_length_c   15.28577382
_cell_angle_alpha   90.00373560
_cell_angle_beta   90.00140894
_cell_angle_gamma   89.97835085
_symmetry_Int_Tables_number   1
_chemical_formula_structural   Ca2Al2SiO7
_chemical_formula_sum   'Ca48 Al48 Si24 O168'
_cell_volume   3653.83930200
_cell_formula_units_Z   24
loop_
 _symmetry_equiv_pos_site_id
 _symmetry_equiv_pos_as_xyz
  1  'x, y, z'
loop_
 _atom_type_symbol
 _atom_type_oxidation_number
  Ca2+  2.0
  Al0+  0.0
  Si0+  0.0
  O2-  -2.0
loop_
 _atom_site_type_symbol
 _atom_site_label
 _atom_site_symmetry_multiplicity
 _atom_site_fract_x
 _atom_site_fract_y
 _atom_site_fract_z
 _atom_site_occupancy
  Ca2+  Ca0  1  0.15884233  0.07563112  0.17165531  1
  Ca2+  Ca1  1  0.17014562  0.07531584  0.50532363  1
  Ca2+  Ca2  1  0.17099753  0.08899292  0.83649002  1
  Ca2+  Ca3  1  0.17140671  0.57519525  0.17572992  1
  Ca2+  Ca4  1  0.16696174  0.57816691  0.50023124  1
  Ca2+  Ca5  1  0.16605349  0.57394978  0.83825111  1
  Ca2+  Ca6  1  0.67178658  0.09235465  0.17604500  1
  Ca2+  Ca7  1  0.67023005  0.08914064  0.49830959  1
  Ca2+  Ca8  1  0.66799214  0.08223713  0.83989350  1
  Ca2+  Ca9  1  0.66993420  0.57847395  0.17160381  1
  Ca2+  Ca10  1  0.66357205  0.57722525  0.50261486  1
  Ca2+  Ca11  1  0.66488439  0.58567674  0.83917271  1
  Ca2+  Ca12  1  0.07667150  0.33755839  0.16213733  1
  Ca2+  Ca13  1  0.07486703  0.34399436  0.49533961  1
  Ca2+  Ca14  1  0.07897944  0.34067930  0.82900769  1
  Ca2+  Ca15  1  0.08494903  0.82770103  0.16608938  1
  Ca2+  Ca16  1  0.09099182  0.82274161  0.49402343  1
  Ca2+  Ca17  1  0.07306934  0.82683533  0.82659401  1
  Ca2+  Ca18  1  0.58138714  0.32893114  0.16958421  1
  Ca2+  Ca19  1  0.56898608  0.33331393  0.48921139  1
  Ca2+  Ca20  1  0.57307167  0.32885045  0.82923152  1
  Ca2+  Ca21  1  0.57473152  0.82764598  0.16302535  1
  Ca2+  Ca22  1  0.57638517  0.82590272  0.49627740  1
  Ca2+  Ca23  1  0.58287481  0.81902014  0.82925804  1
  Ca2+  Ca24  1  0.32495606  0.42518195  0.17462637  1
  Ca2+  Ca25  1  0.32410481  0.41142311  0.50451932  1
  Ca2+  Ca26  1  0.32136878  0.41737769  0.83961505  1
  Ca2+  Ca27  1  0.32912081  0.91676071  0.17729897  1
  Ca2+  Ca28  1  0.33302640  0.91970159  0.49936298  1
  Ca2+  Ca29  1  0.33501066  0.92496196  0.83379601  1
  Ca2+  Ca30  1  0.82868773  0.40629883  0.17480831  1
  Ca2+  Ca31  1  0.82814335  0.40910320  0.50136252  1
  Ca2+  Ca32  1  0.83589979  0.41419173  0.83614012  1
  Ca2+  Ca33  1  0.83461078  0.92399576  0.17333150  1
  Ca2+  Ca34  1  0.83712077  0.92349127  0.50423077  1
  Ca2+  Ca35  1  0.83670572  0.91187594  0.83959647  1
  Ca2+  Ca36  1  0.42654358  0.17137047  0.16473138  1
  Ca2+  Ca37  1  0.41575356  0.17611202  0.49430960  1
  Ca2+  Ca38  1  0.41782627  0.17009742  0.82579528  1
  Ca2+  Ca39  1  0.41199512  0.66504932  0.16524630  1
  Ca2+  Ca40  1  0.41613861  0.66723501  0.49114906  1
  Ca2+  Ca41  1  0.42637853  0.65349292  0.83320456  1
  Ca2+  Ca42  1  0.92047165  0.17486403  0.16335503  1
  Ca2+  Ca43  1  0.91488551  0.17590566  0.49298136  1
  Ca2+  Ca44  1  0.92648137  0.17864758  0.83383072  1
  Ca2+  Ca45  1  0.92651170  0.66885744  0.16406014  1
  Ca2+  Ca46  1  0.93157500  0.66921739  0.49893637  1
  Ca2+  Ca47  1  0.92126535  0.67607371  0.82384496  1
  Al0+  Al48  1  -0.00077035  0.00281668  -0.00732300  1
  Al0+  Al49  1  -0.00088357  0.00029697  0.34511775  1
  Al0+  Al50  1  -0.00114483  0.00159903  0.66776991  1
  Al0+  Al51  1  -0.00189236  0.50228174  0.00025720  1
  Al0+  Al52  1  -0.00028594  0.50248625  0.32701773  1
  Al0+  Al53  1  -0.00214048  0.50156142  0.66336354  1
  Al0+  Al54  1  0.50109689  -0.00172653  -0.00316748  1
  Al0+  Al55  1  0.50170902  -0.00223495  0.32686944  1
  Al0+  Al56  1  0.50262198  -0.00196916  0.67244845  1
  Al0+  Al57  1  0.50083809  0.49927348  0.00116358  1
  Al0+  Al58  1  0.50151519  0.49996006  0.33552189  1
  Al0+  Al59  1  0.50009605  0.49683887  0.65945957  1
  Al0+  Al60  1  0.25047848  0.24898764  0.00465340  1
  Al0+  Al61  1  0.24906338  0.24977215  0.33120810  1
  Al0+  Al62  1  0.24970491  0.24942585  0.67223477  1
  Al0+  Al63  1  0.25053497  0.75278980  -0.00003375  1
  Al0+  Al64  1  0.25023761  0.74975397  0.33208023  1
  Al0+  Al65  1  0.25214193  0.75042474  0.66789422  1
  Al0+  Al66  1  0.75041940  0.24902835  -0.00846671  1
  Al0+  Al67  1  0.75086490  0.25034713  0.33682574  1
  Al0+  Al68  1  0.75047403  0.24866570  0.66815659  1
  Al0+  Al69  1  0.74717482  0.75039235  -0.00343324  1
  Al0+  Al70  1  0.75053715  0.75156043  0.33524063  1
  Al0+  Al71  1  0.74939720  0.74998033  0.65771069  1
  Al0+  Al72  1  0.17740959  0.43169359  0.68046014  1
  Al0+  Al73  1  0.93090107  0.32017156  0.32086916  1
  Al0+  Al74  1  0.17979898  0.92962841  0.34642482  1
  Al0+  Al75  1  0.32062981  0.06977984  0.67952610  1
  Al0+  Al76  1  0.07084503  0.68069861  0.31772481  1
  Al0+  Al77  1  0.56798077  0.67885632  0.98833802  1
  Al0+  Al78  1  0.57085232  0.17796747  0.98508348  1
  Al0+  Al79  1  0.57049443  0.18028868  0.32079015  1
  Al0+  Al80  1  0.17704408  0.42723274  0.34896441  1
  Al0+  Al81  1  0.42487208  0.32375772  0.31645765  1
  Al0+  Al82  1  0.32068983  0.57044628  0.34918156  1
  Al0+  Al83  1  0.92988262  0.32347159  0.98463266  1
  Al0+  Al84  1  0.92935686  0.32025878  0.65123225  1
  Al0+  Al85  1  0.42762940  0.31803283  0.65419359  1
  Al0+  Al86  1  0.42964609  0.81880928  0.32016092  1
  Al0+  Al87  1  0.56948831  0.67728472  0.65125457  1
  Al0+  Al88  1  0.81934135  0.07021411  0.34744231  1
  Al0+  Al89  1  0.17576610  0.42855277  0.01677888  1
  Al0+  Al90  1  0.92949452  0.82050017  0.98963434  1
  Al0+  Al91  1  0.32241311  0.57106856  0.01465034  1
  Al0+  Al92  1  0.92872777  0.82328484  0.64941058  1
  Al0+  Al93  1  0.07332445  0.67964099  0.65210237  1
  Al0+  Al94  1  0.07308371  0.17923411  0.98595899  1
  Al0+  Al95  1  0.68157022  0.43006265  0.34683158  1
  Si0+  Si96  1  0.07316334  0.17891517  0.64954840  1
  Si0+  Si97  1  0.82313627  0.57598327  0.35056801  1
  Si0+  Si98  1  0.17705364  0.92656005  0.68566203  1
  Si0+  Si99  1  0.17781534  0.93221290  0.01307108  1
  Si0+  Si100  1  0.92804531  0.82486560  0.31822779  1
  Si0+  Si101  1  0.32526468  0.07155704  0.34704900  1
  Si0+  Si102  1  0.57472820  0.67711874  0.31606132  1
  Si0+  Si103  1  0.82137134  0.07265272  0.68652691  1
  Si0+  Si104  1  0.42913620  0.32096943  0.98417325  1
  Si0+  Si105  1  0.32474238  0.57246683  0.68256643  1
  Si0+  Si106  1  0.68123512  0.42749403  0.01307365  1
  Si0+  Si107  1  0.81905650  0.57421854  0.01306207  1
  Si0+  Si108  1  0.81754362  0.57081590  0.68064074  1
  Si0+  Si109  1  0.81926405  0.07014221  0.01388479  1
  Si0+  Si110  1  0.67624434  0.92619877  0.35093442  1
  Si0+  Si111  1  0.67759283  0.42779269  0.68308306  1
  Si0+  Si112  1  0.07351852  0.67923742  0.98328575  1
  Si0+  Si113  1  0.42985895  0.82394862  0.65124063  1
  Si0+  Si114  1  0.32457350  0.07018624  0.01661187  1
  Si0+  Si115  1  0.07181173  0.17429791  0.32032745  1
  Si0+  Si116  1  0.42566898  0.82299951  0.98092346  1
  Si0+  Si117  1  0.57196598  0.17569053  0.65110236  1
  Si0+  Si118  1  0.68157611  0.92780703  0.68357723  1
  Si0+  Si119  1  0.67888999  0.92741708  0.01563359  1
  O2-  O120  1  0.25054273  0.00113812  0.05704303  1
  O2-  O121  1  0.25343679  0.00619853  0.39160995  1
  O2-  O122  1  0.24545150  -0.00390743  0.72915917  1
  O2-  O123  1  0.24769701  0.50211393  0.06436799  1
  O2-  O124  1  0.25331070  0.49453505  0.39969599  1
  O2-  O125  1  0.25228185  0.50760912  0.72616842  1
  O2-  O126  1  0.74738022  0.00058301  0.05781252  1
  O2-  O127  1  0.74514674  -0.00535701  0.39488921  1
  O2-  O128  1  0.75323616  -0.00228036  0.72763074  1
  O2-  O129  1  0.75475758  0.49667261  0.05459602  1
  O2-  O130  1  0.75421469  0.50702626  0.39416695  1
  O2-  O131  1  0.74742436  0.49982855  0.72580632  1
  O2-  O132  1  0.00921344  0.24845995  0.27610644  1
  O2-  O133  1  0.00481792  0.24674486  0.60434421  1
  O2-  O134  1  0.00910174  0.25860426  0.93573947  1
  O2-  O135  1  -0.00561165  0.75549600  0.27261507  1
  O2-  O136  1  0.00664024  0.75719070  0.60162592  1
  O2-  O137  1  0.00273136  0.74637057  0.94032653  1
  O2-  O138  1  0.49731914  0.24990882  0.26923010  1
  O2-  O139  1  0.50243513  0.24277294  0.60826525  1
  O2-  O140  1  0.49371906  0.24899794  0.93782859  1
  O2-  O141  1  0.50392359  0.74385699  0.27288521  1
  O2-  O142  1  0.49103466  0.74891985  0.60705602  1
  O2-  O143  1  0.49003750  0.74911783  0.93920722  1
  O2-  O144  1  0.06546434  0.17032799  0.09889308  1
  O2-  O145  1  0.06884349  0.17004969  0.42570165  1
  O2-  O146  1  0.07143153  0.17933650  0.75523158  1
  O2-  O147  1  0.07326965  0.68149855  0.08879283  1
  O2-  O148  1  0.07056860  0.68154966  0.43049267  1
  O2-  O149  1  0.06853437  0.67992464  0.76627912  1
  O2-  O150  1  0.57250935  0.17925650  0.09755391  1
  O2-  O151  1  0.56896808  0.18056513  0.43458901  1
  O2-  O152  1  0.57163631  0.17657532  0.75709957  1
  O2-  O153  1  0.57221969  0.68274165  0.10065900  1
  O2-  O154  1  0.57618953  0.68004615  0.42173372  1
  O2-  O155  1  0.57089151  0.67861942  0.76480393  1
  O2-  O156  1  0.17495044  0.43033026  0.23561517  1
  O2-  O157  1  0.17723622  0.43094992  0.56804784  1
  O2-  O158  1  0.17645938  0.43110423  0.90255974  1
  O2-  O159  1  0.17830296  0.93148708  0.23256096  1
  O2-  O160  1  0.17813681  0.92681493  0.58023390  1
  O2-  O161  1  0.17906832  0.93285469  0.90802113  1
  O2-  O162  1  0.68413376  0.42997098  0.23294292  1
  O2-  O163  1  0.67864956  0.42725574  0.57829632  1
  O2-  O164  1  0.67997245  0.42917330  0.90757394  1
  O2-  O165  1  0.67783738  0.92358736  0.24523886  1
  O2-  O166  1  0.67966757  0.93006726  0.57879391  1
  O2-  O167  1  0.68057769  0.92643502  0.91028108  1
  O2-  O168  1  0.43303833  0.32053921  0.08925499  1
  O2-  O169  1  0.42555658  0.32036368  0.43038951  1
  O2-  O170  1  0.43055077  0.31775499  0.76778064  1
  O2-  O171  1  0.42729935  0.82755186  0.08622241  1
  O2-  O172  1  0.43250306  0.81999691  0.43350156  1
  O2-  O173  1  0.43383464  0.82761106  0.75678430  1
  O2-  O174  1  0.92393728  0.31769490  0.09771695  1
  O2-  O175  1  0.92915596  0.31785896  0.43400847  1
  O2-  O176  1  0.92819838  0.31932161  0.76416954  1
  O2-  O177  1  0.93071223  0.82057916  0.10262798  1
  O2-  O178  1  0.92895249  0.82401872  0.42338807  1
  O2-  O179  1  0.92714293  0.81941902  0.76360992  1
  O2-  O180  1  0.32630623  0.06758305  0.24123965  1
  O2-  O181  1  0.32076506  0.06697527  0.56659247  1
  O2-  O182  1  0.32662068  0.06767675  0.91129069  1
  O2-  O183  1  0.31720973  0.57174653  0.23558559  1
  O2-  O184  1  0.32628276  0.57201308  0.57753627  1
  O2-  O185  1  0.32393569  0.56712393  0.90062588  1
  O2-  O186  1  0.81973952  0.06865280  0.23375222  1
  O2-  O187  1  0.81867409  0.07495960  0.58161684  1
  O2-  O188  1  0.81734451  0.06798107  0.90872352  1
  O2-  O189  1  0.82025422  0.57971991  0.24456713  1
  O2-  O190  1  0.81559228  0.56974059  0.57583528  1
  O2-  O191  1  0.81598861  0.57722264  0.90778041  1
  O2-  O192  1  0.03852466  0.08255023  0.27390127  1
  O2-  O193  1  0.04786905  0.08413988  0.60586566  1
  O2-  O194  1  0.03707739  0.08596183  0.92617690  1
  O2-  O195  1  0.03736074  0.58718868  0.25974001  1
  O2-  O196  1  0.03668641  0.58527139  0.59747589  1
  O2-  O197  1  0.04736141  0.58593670  0.93833819  1
  O2-  O198  1  0.54848040  0.08075964  0.26654099  1
  O2-  O199  1  0.54955729  0.08034411  0.60804057  1
  O2-  O200  1  0.54353152  0.07978224  0.93137915  1
  O2-  O201  1  0.55341809  0.58263007  0.27170634  1
  O2-  O202  1  0.54397770  0.58031605  0.59689937  1
  O2-  O203  1  0.54224774  0.58108341  0.93278831  1
  O2-  O204  1  0.16735959  0.19032655  0.27509378  1
  O2-  O205  1  0.16764855  0.20119381  0.60584522  1
  O2-  O206  1  0.17591888  0.19673549  0.93754444  1
  O2-  O207  1  0.16500445  0.71531807  0.26275267  1
  O2-  O208  1  0.17426618  0.70341934  0.60198263  1
  O2-  O209  1  0.16621843  0.70695479  0.93671305  1
  O2-  O210  1  0.66792762  0.21266690  0.26821519  1
  O2-  O211  1  0.66575182  0.20221857  0.60719294  1
  O2-  O212  1  0.66531959  0.20928168  0.92761125  1
  O2-  O213  1  0.66819666  0.70565548  0.27020256  1
  O2-  O214  1  0.66307803  0.71187815  0.59511945  1
  O2-  O215  1  0.66181546  0.71428457  0.93069022  1
  O2-  O216  1  0.07573229  0.45659414  0.06738746  1
  O2-  O217  1  0.07855444  0.46236882  0.39856701  1
  O2-  O218  1  0.07989468  0.46367933  0.73348548  1
  O2-  O219  1  0.08623260  0.96275024  0.05954037  1
  O2-  O220  1  0.08518767  0.95774871  0.40534348  1
  O2-  O221  1  0.08251285  0.95236276  0.73043041  1
  O2-  O222  1  0.59082210  0.45690547  0.06144580  1
  O2-  O223  1  0.58526821  0.45897904  0.40225870  1
  O2-  O224  1  0.58522369  0.45561916  0.72961619  1
  O2-  O225  1  0.58538785  0.95233328  0.06097655  1
  O2-  O226  1  0.58295492  0.95279811  0.39697030  1
  O2-  O227  1  0.59100300  0.95503407  0.73462054  1
  O2-  O228  1  0.20162102  0.32851205  0.06779582  1
  O2-  O229  1  0.19844522  0.32531920  0.39901706  1
  O2-  O230  1  0.20817734  0.33506782  0.73510089  1
  O2-  O231  1  0.20297256  0.83952330  0.06036067  1
  O2-  O232  1  0.21484927  0.83541200  0.40078432  1
  O2-  O233  1  0.20344555  0.83351636  0.73319985  1
  O2-  O234  1  0.70924533  0.33475604  0.05847117  1
  O2-  O235  1  0.71437217  0.33589152  0.40367094  1
  O2-  O236  1  0.70615775  0.33585802  0.73086752  1
  O2-  O237  1  0.70855106  0.83691696  0.06438630  1
  O2-  O238  1  0.70107780  0.83294655  0.39892007  1
  O2-  O239  1  0.70955078  0.83461289  0.72894344  1
  O2-  O240  1  0.45872716  0.42123820  0.26539029  1
  O2-  O241  1  0.45953897  0.41210277  0.59757801  1
  O2-  O242  1  0.46005173  0.41234936  0.93701837  1
  O2-  O243  1  0.46098069  0.91353193  0.26215156  1
  O2-  O244  1  0.46403447  0.91432686  0.60363887  1
  O2-  O245  1  0.45839079  0.91339081  0.93216643  1
  O2-  O246  1  0.95352421  0.41798365  0.26598140  1
  O2-  O247  1  0.95498572  0.41799394  0.59861767  1
  O2-  O248  1  0.94908657  0.42523889  0.93356435  1
  O2-  O249  1  0.95535299  0.91889025  0.27445004  1
  O2-  O250  1  0.94947014  0.92559142  0.60217820  1
  O2-  O251  1  0.95910282  0.91556429  0.93234972  1
  O2-  O252  1  0.32673791  0.29605848  0.26264405  1
  O2-  O253  1  0.33139712  0.28567690  0.60167539  1
  O2-  O254  1  0.33393150  0.29776541  0.94112514  1
  O2-  O255  1  0.33407666  0.79005124  0.26400162  1
  O2-  O256  1  0.33321182  0.80720117  0.60915079  1
  O2-  O257  1  0.33057633  0.80469775  0.93498312  1
  O2-  O258  1  0.83587088  0.28404487  0.26775304  1
  O2-  O259  1  0.83181095  0.28660302  0.60018568  1
  O2-  O260  1  0.83485012  0.28840394  0.92796677  1
  O2-  O261  1  0.83253803  0.80249743  0.27377634  1
  O2-  O262  1  0.83259539  0.79222899  0.59486714  1
  O2-  O263  1  0.83302434  0.79024397  0.93465224  1
  O2-  O264  1  0.41564740  0.03806718  0.06341849  1
  O2-  O265  1  0.41741944  0.04101859  0.39339887  1
  O2-  O266  1  0.41721326  0.03764860  0.73589826  1
  O2-  O267  1  0.42105799  0.54235352  0.06790808  1
  O2-  O268  1  0.42262297  0.55104591  0.39816324  1
  O2-  O269  1  0.41778782  0.54074721  0.72767586  1
  O2-  O270  1  0.91115734  0.04067408  0.05976919  1
  O2-  O271  1  0.91310387  0.04038038  0.40750346  1
  O2-  O272  1  0.91472286  0.04862996  0.73303961  1
  O2-  O273  1  0.91300993  0.55476171  0.05919895  1
  O2-  O274  1  0.91675355  0.54957886  0.39400729  1
  O2-  O275  1  0.90903945  0.54371636  0.72872959  1
  O2-  O276  1  0.30280600  0.16296492  0.06363446  1
  O2-  O277  1  0.30305762  0.16627966  0.39099912  1
  O2-  O278  1  0.29036070  0.16433937  0.73821537  1
  O2-  O279  1  0.29989734  0.67392199  0.06223148  1
  O2-  O280  1  0.28925498  0.66818496  0.40151240  1
  O2-  O281  1  0.30702040  0.66867198  0.72795547  1
  O2-  O282  1  0.79044810  0.16271054  0.05903886  1
  O2-  O283  1  0.78601260  0.16434544  0.40451375  1
  O2-  O284  1  0.78914936  0.16245140  0.73597627  1
  O2-  O285  1  0.78393512  0.66256235  0.06299101  1
  O2-  O286  1  0.79843783  0.66944623  0.39833469  1
  O2-  O287  1  0.78838096  0.66357298  0.72652950  1
