# generated using pymatgen
data_Ca2Al2SiO7
_symmetry_space_group_name_H-M   'P 1'
_cell_length_a   15.46439327
_cell_length_b   15.46398783
_cell_length_c   15.28742389
_cell_angle_alpha   89.99333614
_cell_angle_beta   90.00656758
_cell_angle_gamma   89.99908641
_symmetry_Int_Tables_number   1
_chemical_formula_structural   Ca2Al2SiO7
_chemical_formula_sum   'Ca48 Al48 Si24 O168'
_cell_volume   3655.85268429
_cell_formula_units_Z   24
loop_
 _symmetry_equiv_pos_site_id
 _symmetry_equiv_pos_as_xyz
  1  'x, y, z'
loop_
 _atom_type_symbol
 _atom_type_oxidation_number
  Ca2+  2.0
  Al0+  0.0
  Si0+  0.0
  O2-  -2.0
loop_
 _atom_site_type_symbol
 _atom_site_label
 _atom_site_symmetry_multiplicity
 _atom_site_fract_x
 _atom_site_fract_y
 _atom_site_fract_z
 _atom_site_occupancy
  Ca2+  Ca0  1  0.17404405  0.07780851  0.17423708  1
  Ca2+  Ca1  1  0.17006038  0.08529778  0.49643004  1
  Ca2+  Ca2  1  0.17625552  0.07412678  0.84565176  1
  Ca2+  Ca3  1  0.17469874  0.57919118  0.16716641  1
  Ca2+  Ca4  1  0.16699061  0.58277370  0.50589732  1
  Ca2+  Ca5  1  0.17328013  0.58078751  0.84211360  1
  Ca2+  Ca6  1  0.66484822  0.07961168  0.17081652  1
  Ca2+  Ca7  1  0.66033301  0.08216297  0.50754419  1
  Ca2+  Ca8  1  0.66467651  0.07031501  0.83813796  1
  Ca2+  Ca9  1  0.67304476  0.58452606  0.17605687  1
  Ca2+  Ca10  1  0.66299466  0.58330782  0.49807802  1
  Ca2+  Ca11  1  0.66905834  0.58997755  0.84031164  1
  Ca2+  Ca12  1  0.08238178  0.33165182  0.16577471  1
  Ca2+  Ca13  1  0.07555486  0.32627738  0.48845311  1
  Ca2+  Ca14  1  0.08377584  0.33573320  0.83199628  1
  Ca2+  Ca15  1  0.08530320  0.83946186  0.16320067  1
  Ca2+  Ca16  1  0.07996133  0.83221961  0.49708127  1
  Ca2+  Ca17  1  0.07819555  0.83034054  0.82494981  1
  Ca2+  Ca18  1  0.58338109  0.33160497  0.16954176  1
  Ca2+  Ca19  1  0.57784472  0.32500102  0.48935669  1
  Ca2+  Ca20  1  0.57411997  0.32472930  0.82333199  1
  Ca2+  Ca21  1  0.58870668  0.82310243  0.16048779  1
  Ca2+  Ca22  1  0.58353701  0.82791606  0.50017010  1
  Ca2+  Ca23  1  0.58544202  0.82663258  0.82657564  1
  Ca2+  Ca24  1  0.33468349  0.41774759  0.16852261  1
  Ca2+  Ca25  1  0.33907023  0.41132925  0.50178446  1
  Ca2+  Ca26  1  0.32999212  0.42150658  0.84073701  1
  Ca2+  Ca27  1  0.32461120  0.92561580  0.17345861  1
  Ca2+  Ca28  1  0.33484944  0.91964364  0.50166979  1
  Ca2+  Ca29  1  0.33193857  0.91825513  0.84139916  1
  Ca2+  Ca30  1  0.82896443  0.42766178  0.17742116  1
  Ca2+  Ca31  1  0.82880684  0.41673218  0.49706117  1
  Ca2+  Ca32  1  0.82877538  0.42669033  0.84144990  1
  Ca2+  Ca33  1  0.82741152  0.92073732  0.16453108  1
  Ca2+  Ca34  1  0.82721366  0.91673897  0.50761144  1
  Ca2+  Ca35  1  0.82322460  0.91501561  0.83763341  1
  Ca2+  Ca36  1  0.41258320  0.16580850  0.16849363  1
  Ca2+  Ca37  1  0.42438033  0.17341576  0.49266679  1
  Ca2+  Ca38  1  0.41881239  0.16844449  0.82625615  1
  Ca2+  Ca39  1  0.42929924  0.66203411  0.15998242  1
  Ca2+  Ca40  1  0.42760473  0.67277043  0.49720222  1
  Ca2+  Ca41  1  0.42443971  0.67200768  0.82751681  1
  Ca2+  Ca42  1  0.91824736  0.16888364  0.16386261  1
  Ca2+  Ca43  1  0.92225255  0.17234893  0.48610122  1
  Ca2+  Ca44  1  0.91648987  0.16234800  0.83336464  1
  Ca2+  Ca45  1  0.91291059  0.66341952  0.16204930  1
  Ca2+  Ca46  1  0.91709609  0.67080055  0.49915156  1
  Ca2+  Ca47  1  0.92188361  0.67191106  0.82653614  1
  Al0+  Al48  1  -0.00147131  0.00074047  0.00316020  1
  Al0+  Al49  1  -0.00079340  -0.00165488  0.33324307  1
  Al0+  Al50  1  0.00097769  0.00031942  0.66364894  1
  Al0+  Al51  1  -0.00106322  0.49947101  0.00533604  1
  Al0+  Al52  1  0.00067719  0.50300263  0.33459551  1
  Al0+  Al53  1  0.00024280  0.49914996  0.66467852  1
  Al0+  Al54  1  0.49967760  -0.00151873  0.00762547  1
  Al0+  Al55  1  0.49772375  -0.00007451  0.33424540  1
  Al0+  Al56  1  0.50024211  -0.00050263  0.66631802  1
  Al0+  Al57  1  0.50053793  0.49822764  -0.00408692  1
  Al0+  Al58  1  0.50140087  0.50030100  0.32988559  1
  Al0+  Al59  1  0.49903657  0.50006980  0.66277784  1
  Al0+  Al60  1  0.24811338  0.24927807  0.00407691  1
  Al0+  Al61  1  0.24995078  0.24937384  0.33047724  1
  Al0+  Al62  1  0.24844604  0.25032665  0.66582397  1
  Al0+  Al63  1  0.25116338  0.74774348  0.00751066  1
  Al0+  Al64  1  0.24855849  0.75014032  0.33724147  1
  Al0+  Al65  1  0.25063017  0.74909350  0.66058875  1
  Al0+  Al66  1  0.75062000  0.25042136  -0.00154427  1
  Al0+  Al67  1  0.74934247  0.25217330  0.32880699  1
  Al0+  Al68  1  0.75108856  0.25154772  0.66711214  1
  Al0+  Al69  1  0.75158099  0.75013740  0.00243719  1
  Al0+  Al70  1  0.75210161  0.75108125  0.33435660  1
  Al0+  Al71  1  0.75218595  0.75043288  0.66371252  1
  Al0+  Al72  1  0.57218211  0.67918430  0.98622386  1
  Al0+  Al73  1  0.67909358  0.92817475  0.01577083  1
  Al0+  Al74  1  0.57072432  0.68260669  0.31857921  1
  Al0+  Al75  1  0.17810063  0.92689597  0.01261957  1
  Al0+  Al76  1  0.07135553  0.67751302  0.65282917  1
  Al0+  Al77  1  0.67858151  0.42960185  0.34931920  1
  Al0+  Al78  1  0.57334308  0.67847234  0.65143938  1
  Al0+  Al79  1  0.42915853  0.32153976  0.31538248  1
  Al0+  Al80  1  0.92870751  0.32353957  0.31656105  1
  Al0+  Al81  1  0.57200094  0.17910265  0.65431686  1
  Al0+  Al82  1  0.57122715  0.17643126  0.31625696  1
  Al0+  Al83  1  0.32243609  0.07157634  0.01489293  1
  Al0+  Al84  1  0.32078754  0.07206366  0.35275192  1
  Al0+  Al85  1  0.32394800  0.57009481  0.01451962  1
  Al0+  Al86  1  0.67966262  0.92935941  0.67936323  1
  Al0+  Al87  1  0.42681193  0.32043177  0.65319246  1
  Al0+  Al88  1  0.93000214  0.82221223  0.65163891  1
  Al0+  Al89  1  0.17719336  0.92831782  0.35269643  1
  Al0+  Al90  1  0.82260536  0.57346860  0.35240375  1
  Al0+  Al91  1  0.81898799  0.57043960  0.01150433  1
  Al0+  Al92  1  0.17811677  0.42889601  0.01555622  1
  Al0+  Al93  1  0.42781634  0.82245708  0.65283091  1
  Al0+  Al94  1  0.82043586  0.07285101  0.01480241  1
  Al0+  Al95  1  0.06959250  0.17785532  0.31613912  1
  Si0+  Si96  1  0.67697887  0.42672542  0.01403874  1
  Si0+  Si97  1  0.93069381  0.82163944  0.98547787  1
  Si0+  Si98  1  0.17833296  0.42926568  0.68055645  1
  Si0+  Si99  1  0.92895521  0.32256536  0.98305642  1
  Si0+  Si100  1  0.92958432  0.82019274  0.31594478  1
  Si0+  Si101  1  0.07048365  0.17931055  0.65348298  1
  Si0+  Si102  1  0.31894286  0.07109702  0.68132792  1
  Si0+  Si103  1  0.42569400  0.82148023  0.31528047  1
  Si0+  Si104  1  0.82459173  0.07438074  0.68156735  1
  Si0+  Si105  1  0.17823150  0.92793374  0.68124967  1
  Si0+  Si106  1  0.07002629  0.17906418  0.98360836  1
  Si0+  Si107  1  0.32159906  0.57190293  0.68031881  1
  Si0+  Si108  1  0.17971239  0.43012405  0.34939845  1
  Si0+  Si109  1  0.57214099  0.17708949  0.98457189  1
  Si0+  Si110  1  0.82162378  0.56907417  0.68211926  1
  Si0+  Si111  1  0.07167830  0.67730427  0.98769924  1
  Si0+  Si112  1  0.32204961  0.57065221  0.35001375  1
  Si0+  Si113  1  0.42733250  0.31879547  0.98375081  1
  Si0+  Si114  1  0.07280644  0.67939543  0.31609383  1
  Si0+  Si115  1  0.42732172  0.82130561  0.98632616  1
  Si0+  Si116  1  0.81952026  0.07134390  0.34697581  1
  Si0+  Si117  1  0.67777897  0.42839645  0.68222118  1
  Si0+  Si118  1  0.92936598  0.32194249  0.65308663  1
  Si0+  Si119  1  0.67904145  0.92939663  0.34883028  1
  O2-  O120  1  0.25053021  -0.00191907  0.06179403  1
  O2-  O121  1  0.24949025  -0.00076423  0.40354461  1
  O2-  O122  1  0.25056097  -0.00275530  0.72397186  1
  O2-  O123  1  0.25252237  0.49790804  0.06559473  1
  O2-  O124  1  0.25217257  0.49859561  0.39322782  1
  O2-  O125  1  0.24992835  0.50009750  0.72177757  1
  O2-  O126  1  0.74612955  0.00473389  0.06615758  1
  O2-  O127  1  0.74412872  0.00628949  0.39050066  1
  O2-  O128  1  0.75442425  0.00629044  0.72399936  1
  O2-  O129  1  0.74230890  0.49848682  0.05745472  1
  O2-  O130  1  0.75089757  0.50077904  0.40147317  1
  O2-  O131  1  0.74663380  0.50203326  0.72472128  1
  O2-  O132  1  -0.00129372  0.25052767  0.26508672  1
  O2-  O133  1  -0.00472550  0.24603674  0.61236809  1
  O2-  O134  1  -0.00066673  0.25058953  0.93968291  1
  O2-  O135  1  0.00151935  0.74993275  0.27394237  1
  O2-  O136  1  0.00221448  0.75089175  0.60095808  1
  O2-  O137  1  0.00468271  0.75216440  0.94504228  1
  O2-  O138  1  0.49935492  0.24799108  0.26504536  1
  O2-  O139  1  0.50190413  0.25213641  0.60408586  1
  O2-  O140  1  0.49829671  0.24643389  0.94301682  1
  O2-  O141  1  0.49590639  0.75559998  0.26969442  1
  O2-  O142  1  0.50159764  0.75180630  0.60337706  1
  O2-  O143  1  0.49682774  0.75397661  0.94075788  1
  O2-  O144  1  0.06847458  0.17900492  0.08771233  1
  O2-  O145  1  0.06654670  0.18046291  0.43095802  1
  O2-  O146  1  0.07197726  0.18039268  0.75888306  1
  O2-  O147  1  0.06898982  0.67607248  0.09260136  1
  O2-  O148  1  0.07317364  0.67885362  0.42116663  1
  O2-  O149  1  0.06994264  0.67671764  0.76707534  1
  O2-  O150  1  0.57489689  0.17982979  0.08897528  1
  O2-  O151  1  0.57143460  0.17710656  0.42996889  1
  O2-  O152  1  0.56963599  0.17983853  0.76868469  1
  O2-  O153  1  0.57305045  0.67992104  0.09911278  1
  O2-  O154  1  0.56948176  0.68501511  0.43153719  1
  O2-  O155  1  0.57202794  0.67886708  0.76542542  1
  O2-  O156  1  0.17847819  0.43356112  0.24460226  1
  O2-  O157  1  0.17622271  0.42844543  0.57577980  1
  O2-  O158  1  0.17801704  0.43077344  0.90091314  1
  O2-  O159  1  0.17834450  0.92804031  0.23919897  1
  O2-  O160  1  0.17584845  0.93078477  0.57700367  1
  O2-  O161  1  0.17770637  0.92823806  0.89803377  1
  O2-  O162  1  0.67918078  0.43262252  0.23538341  1
  O2-  O163  1  0.68091731  0.42542201  0.57796309  1
  O2-  O164  1  0.68012233  0.42560332  0.90771868  1
  O2-  O165  1  0.68303220  0.92706007  0.24385189  1
  O2-  O166  1  0.68218121  0.93077511  0.56607379  1
  O2-  O167  1  0.68100114  0.92742079  0.90193389  1
  O2-  O168  1  0.42784880  0.32067064  0.08814952  1
  O2-  O169  1  0.43050474  0.32068978  0.42906086  1
  O2-  O170  1  0.42504327  0.31800670  0.76747371  1
  O2-  O171  1  0.42726047  0.81912615  0.09155478  1
  O2-  O172  1  0.42661337  0.81892255  0.42102313  1
  O2-  O173  1  0.42463892  0.82038054  0.76673052  1
  O2-  O174  1  0.92939116  0.32364512  0.08706859  1
  O2-  O175  1  0.93159666  0.32040692  0.43133485  1
  O2-  O176  1  0.93158407  0.32510096  0.75848564  1
  O2-  O177  1  0.92988804  0.82106802  0.09056078  1
  O2-  O178  1  0.92926717  0.82024692  0.42098013  1
  O2-  O179  1  0.93162564  0.82098006  0.76579981  1
  O2-  O180  1  0.31875601  0.06936822  0.23933433  1
  O2-  O181  1  0.31545768  0.07423656  0.57716694  1
  O2-  O182  1  0.32040719  0.07182373  0.90004246  1
  O2-  O183  1  0.31953287  0.57093214  0.24499924  1
  O2-  O184  1  0.32017343  0.57099596  0.57527730  1
  O2-  O185  1  0.32159408  0.56953738  0.90022444  1
  O2-  O186  1  0.82098088  0.06735987  0.24216427  1
  O2-  O187  1  0.82693498  0.07589109  0.57607160  1
  O2-  O188  1  0.82094285  0.07067799  0.90073498  1
  O2-  O189  1  0.82095170  0.57391449  0.23861341  1
  O2-  O190  1  0.82565074  0.56548260  0.57782502  1
  O2-  O191  1  0.82127691  0.56920097  0.89768655  1
  O2-  O192  1  0.03945274  0.07921553  0.26545612  1
  O2-  O193  1  0.04802039  0.08716007  0.60527059  1
  O2-  O194  1  0.04038199  0.08756491  0.93518222  1
  O2-  O195  1  0.04578097  0.58771441  0.26893765  1
  O2-  O196  1  0.04125287  0.57985069  0.59866641  1
  O2-  O197  1  0.03986265  0.58677495  0.93939913  1
  O2-  O198  1  0.54364524  0.07678832  0.26496266  1
  O2-  O199  1  0.54417942  0.08144998  0.60228716  1
  O2-  O200  1  0.54525115  0.08331728  0.94019031  1
  O2-  O201  1  0.54085685  0.58601395  0.26565781  1
  O2-  O202  1  0.54345406  0.58090393  0.59861840  1
  O2-  O203  1  0.54461765  0.58128722  0.93183851  1
  O2-  O204  1  0.16757720  0.20648205  0.26492015  1
  O2-  O205  1  0.15926635  0.21213308  0.60417571  1
  O2-  O206  1  0.16190278  0.20715136  0.93536015  1
  O2-  O207  1  0.16491149  0.70699600  0.26909573  1
  O2-  O208  1  0.16917967  0.70195055  0.59843439  1
  O2-  O209  1  0.16585624  0.70015672  0.94234604  1
  O2-  O210  1  0.66968732  0.20442143  0.26352254  1
  O2-  O211  1  0.67211616  0.20488228  0.60341715  1
  O2-  O212  1  0.66319384  0.20644470  0.93548502  1
  O2-  O213  1  0.66829360  0.71485765  0.26711129  1
  O2-  O214  1  0.67170516  0.70450375  0.59922078  1
  O2-  O215  1  0.66932387  0.71183790  0.93316508  1
  O2-  O216  1  0.08152815  0.45883179  0.06976211  1
  O2-  O217  1  0.08913030  0.46060834  0.39810652  1
  O2-  O218  1  0.08673748  0.45705225  0.72961774  1
  O2-  O219  1  0.08050857  0.95617759  0.06527077  1
  O2-  O220  1  0.07755445  0.95696290  0.40391289  1
  O2-  O221  1  0.08661985  0.95764750  0.72920885  1
  O2-  O222  1  0.58219713  0.44713971  0.05753008  1
  O2-  O223  1  0.58024169  0.45990492  0.40165337  1
  O2-  O224  1  0.58424456  0.45308961  0.72809468  1
  O2-  O225  1  0.58046235  0.94991290  0.06944271  1
  O2-  O226  1  0.58479848  0.94998568  0.39366792  1
  O2-  O227  1  0.58270381  0.95816433  0.73477869  1
  O2-  O228  1  0.20225602  0.33011280  0.06723786  1
  O2-  O229  1  0.20394351  0.33698239  0.39533270  1
  O2-  O230  1  0.20523199  0.33744822  0.72958848  1
  O2-  O231  1  0.20175079  0.82882886  0.06735194  1
  O2-  O232  1  0.20417327  0.82857982  0.40471439  1
  O2-  O233  1  0.20363975  0.83411924  0.72588516  1
  O2-  O234  1  0.70555522  0.33475072  0.06018374  1
  O2-  O235  1  0.70776607  0.33016194  0.40120166  1
  O2-  O236  1  0.70846923  0.33802268  0.73245528  1
  O2-  O237  1  0.71571303  0.83352438  0.07028537  1
  O2-  O238  1  0.71469426  0.84107626  0.39740986  1
  O2-  O239  1  0.71342578  0.83281932  0.73312444  1
  O2-  O240  1  0.45823244  0.41967300  0.26231069  1
  O2-  O241  1  0.44987273  0.41983270  0.60191739  1
  O2-  O242  1  0.45583879  0.40964708  0.93394645  1
  O2-  O243  1  0.44839034  0.91623140  0.27211304  1
  O2-  O244  1  0.45466568  0.92038968  0.59949274  1
  O2-  O245  1  0.45055302  0.91658958  0.94177549  1
  O2-  O246  1  0.95978863  0.42257638  0.26673322  1
  O2-  O247  1  0.96206843  0.41022718  0.60299038  1
  O2-  O248  1  0.95974331  0.41386118  0.93465173  1
  O2-  O249  1  0.95651898  0.91174425  0.26812031  1
  O2-  O250  1  0.95670416  0.92091069  0.59784635  1
  O2-  O251  1  0.95565056  0.91400618  0.93744556  1
  O2-  O252  1  0.32946735  0.29611712  0.26429928  1
  O2-  O253  1  0.32869400  0.29138551  0.59990178  1
  O2-  O254  1  0.33415917  0.29232333  0.93737334  1
  O2-  O255  1  0.33178144  0.79355526  0.27152202  1
  O2-  O256  1  0.33140917  0.79358388  0.59646254  1
  O2-  O257  1  0.33333634  0.79421283  0.94032549  1
  O2-  O258  1  0.83037704  0.29858052  0.26399919  1
  O2-  O259  1  0.83627793  0.29965095  0.60674011  1
  O2-  O260  1  0.83712112  0.29599999  0.93347065  1
  O2-  O261  1  0.83875154  0.79141191  0.26765869  1
  O2-  O262  1  0.83374666  0.79255061  0.59690835  1
  O2-  O263  1  0.84057244  0.78985038  0.93729991  1
  O2-  O264  1  0.41996504  0.04736409  0.06953033  1
  O2-  O265  1  0.41984177  0.04300678  0.40485146  1
  O2-  O266  1  0.41153704  0.04604018  0.72813104  1
  O2-  O267  1  0.42215787  0.53965016  0.06593654  1
  O2-  O268  1  0.41407900  0.54378150  0.39611875  1
  O2-  O269  1  0.41326047  0.54456066  0.72851855  1
  O2-  O270  1  0.91710097  0.04243489  0.06873525  1
  O2-  O271  1  0.90926811  0.03875489  0.39579633  1
  O2-  O272  1  0.91842937  0.04776687  0.72819453  1
  O2-  O273  1  0.91355712  0.53848795  0.06749969  1
  O2-  O274  1  0.92242151  0.54657456  0.40381834  1
  O2-  O275  1  0.91228585  0.53629902  0.73066948  1
  O2-  O276  1  0.29149836  0.16823760  0.06769884  1
  O2-  O277  1  0.28978397  0.17112193  0.40365272  1
  O2-  O278  1  0.28667822  0.16174054  0.73005331  1
  O2-  O279  1  0.29594878  0.66609595  0.07118975  1
  O2-  O280  1  0.29171413  0.66138817  0.39781044  1
  O2-  O281  1  0.29292860  0.66347708  0.72795346  1
  O2-  O282  1  0.79804280  0.17353077  0.06464961  1
  O2-  O283  1  0.79906543  0.16588503  0.39161306  1
  O2-  O284  1  0.80265644  0.16890739  0.72859371  1
  O2-  O285  1  0.79302208  0.66667513  0.06686860  1
  O2-  O286  1  0.79317187  0.67214802  0.40432904  1
  O2-  O287  1  0.79843828  0.66286996  0.72730867  1
