# generated using pymatgen
data_Ca2Al2SiO7
_symmetry_space_group_name_H-M   'P 1'
_cell_length_a   15.45637460
_cell_length_b   15.45737852
_cell_length_c   15.28254609
_cell_angle_alpha   89.98791465
_cell_angle_beta   89.99831289
_cell_angle_gamma   90.00491759
_symmetry_Int_Tables_number   1
_chemical_formula_structural   Ca2Al2SiO7
_chemical_formula_sum   'Ca48 Al48 Si24 O168'
_cell_volume   3651.22990312
_cell_formula_units_Z   24
loop_
 _symmetry_equiv_pos_site_id
 _symmetry_equiv_pos_as_xyz
  1  'x, y, z'
loop_
 _atom_type_symbol
 _atom_type_oxidation_number
  Ca2+  2.0
  Al0+  0.0
  Si0+  0.0
  O2-  -2.0
loop_
 _atom_site_type_symbol
 _atom_site_label
 _atom_site_symmetry_multiplicity
 _atom_site_fract_x
 _atom_site_fract_y
 _atom_site_fract_z
 _atom_site_occupancy
  Ca2+  Ca0  1  0.16745637  0.08778756  0.16699436  1
  Ca2+  Ca1  1  0.16822316  0.08484586  0.50635364  1
  Ca2+  Ca2  1  0.17894434  0.09024061  0.83909570  1
  Ca2+  Ca3  1  0.17208637  0.58940188  0.17008822  1
  Ca2+  Ca4  1  0.17690813  0.58067274  0.51374435  1
  Ca2+  Ca5  1  0.16282994  0.58153098  0.83257322  1
  Ca2+  Ca6  1  0.67281386  0.06681043  0.17408893  1
  Ca2+  Ca7  1  0.67237620  0.08081404  0.50646892  1
  Ca2+  Ca8  1  0.66913919  0.08177875  0.83746773  1
  Ca2+  Ca9  1  0.66562223  0.57802242  0.16546996  1
  Ca2+  Ca10  1  0.67083379  0.57780694  0.50764047  1
  Ca2+  Ca11  1  0.67324270  0.58525424  0.84096640  1
  Ca2+  Ca12  1  0.08177053  0.32173923  0.16173227  1
  Ca2+  Ca13  1  0.07788204  0.33329124  0.50104549  1
  Ca2+  Ca14  1  0.07903918  0.33276319  0.82595668  1
  Ca2+  Ca15  1  0.07302612  0.82765142  0.15483873  1
  Ca2+  Ca16  1  0.08489792  0.82749806  0.50009815  1
  Ca2+  Ca17  1  0.07772017  0.82168356  0.83289070  1
  Ca2+  Ca18  1  0.58705090  0.33715174  0.16345639  1
  Ca2+  Ca19  1  0.58186054  0.33163247  0.50018707  1
  Ca2+  Ca20  1  0.57876587  0.33016361  0.82292690  1
  Ca2+  Ca21  1  0.58370850  0.83076252  0.15487172  1
  Ca2+  Ca22  1  0.58655595  0.82789164  0.49989367  1
  Ca2+  Ca23  1  0.58512317  0.82648757  0.83398808  1
  Ca2+  Ca24  1  0.33156601  0.42755109  0.17241175  1
  Ca2+  Ca25  1  0.32743983  0.42255418  0.50978326  1
  Ca2+  Ca26  1  0.33137556  0.41724398  0.83032416  1
  Ca2+  Ca27  1  0.33734363  0.92072911  0.16400302  1
  Ca2+  Ca28  1  0.32985249  0.92361958  0.50844185  1
  Ca2+  Ca29  1  0.34096139  0.92771624  0.83898090  1
  Ca2+  Ca30  1  0.82233382  0.42118495  0.16585945  1
  Ca2+  Ca31  1  0.82944200  0.41616228  0.50843389  1
  Ca2+  Ca32  1  0.83219345  0.42568838  0.83734570  1
  Ca2+  Ca33  1  0.82417527  0.91158614  0.16949842  1
  Ca2+  Ca34  1  0.83142998  0.92890959  0.50274123  1
  Ca2+  Ca35  1  0.83018094  0.91936204  0.83873766  1
  Ca2+  Ca36  1  0.41784179  0.16896640  0.15824769  1
  Ca2+  Ca37  1  0.41736650  0.17039248  0.50454571  1
  Ca2+  Ca38  1  0.42062638  0.16819367  0.82287270  1
  Ca2+  Ca39  1  0.42182077  0.67444209  0.15618195  1
  Ca2+  Ca40  1  0.42017017  0.65628382  0.49930502  1
  Ca2+  Ca41  1  0.42973627  0.66566078  0.82629083  1
  Ca2+  Ca42  1  0.92618655  0.15823893  0.16367613  1
  Ca2+  Ca43  1  0.91416201  0.16891120  0.49515821  1
  Ca2+  Ca44  1  0.91782859  0.17315688  0.82472742  1
  Ca2+  Ca45  1  0.91892306  0.67145919  0.15255548  1
  Ca2+  Ca46  1  0.92178457  0.65989784  0.50316393  1
  Ca2+  Ca47  1  0.91828644  0.66373476  0.82760673  1
  Al0+  Al48  1  0.00454311  -0.00043488  -0.01055092  1
  Al0+  Al49  1  0.00110528  -0.00131567  0.33234884  1
  Al0+  Al50  1  -0.00171465  -0.00139617  0.67177942  1
  Al0+  Al51  1  0.00031873  0.49755635  0.00444597  1
  Al0+  Al52  1  0.00062818  0.49761681  0.32889821  1
  Al0+  Al53  1  -0.00032962  0.49919186  0.66404500  1
  Al0+  Al54  1  0.50125131  0.00245694  0.00612478  1
  Al0+  Al55  1  0.49961012  -0.00027022  0.33763677  1
  Al0+  Al56  1  0.49967540  -0.00150472  0.66520027  1
  Al0+  Al57  1  0.49812453  0.49988548  0.00018077  1
  Al0+  Al58  1  0.50051873  0.50011585  0.33915302  1
  Al0+  Al59  1  0.49839420  0.49960284  0.66119484  1
  Al0+  Al60  1  0.25097319  0.25099444  0.00232248  1
  Al0+  Al61  1  0.24989345  0.25191040  0.32837353  1
  Al0+  Al62  1  0.24996923  0.24972293  0.66963264  1
  Al0+  Al63  1  0.24909509  0.75375206  -0.00755702  1
  Al0+  Al64  1  0.25230080  0.75203715  0.33665110  1
  Al0+  Al65  1  0.24989046  0.74994643  0.66754449  1
  Al0+  Al66  1  0.75122879  0.25027060  0.00565280  1
  Al0+  Al67  1  0.74905404  0.25104298  0.33684566  1
  Al0+  Al68  1  0.75058146  0.24818181  0.66289723  1
  Al0+  Al69  1  0.75020196  0.75118314  0.00059799  1
  Al0+  Al70  1  0.74975653  0.74870297  0.33722340  1
  Al0+  Al71  1  0.74955402  0.75074855  0.66332354  1
  Al0+  Al72  1  0.82253735  0.06879729  0.34677987  1
  Al0+  Al73  1  0.42980577  0.82513556  0.98500520  1
  Al0+  Al74  1  0.31853752  0.57236420  0.34603477  1
  Al0+  Al75  1  0.57162217  0.17684893  0.65136891  1
  Al0+  Al76  1  0.07259497  0.18007912  0.98413837  1
  Al0+  Al77  1  0.67667198  0.92630839  0.35114342  1
  Al0+  Al78  1  0.07122084  0.67553473  0.98523329  1
  Al0+  Al79  1  0.82065350  0.07246481  0.68195109  1
  Al0+  Al80  1  0.92669870  0.82100296  0.98406868  1
  Al0+  Al81  1  0.32053387  0.07176479  0.01545135  1
  Al0+  Al82  1  0.57166158  0.67925126  0.65111249  1
  Al0+  Al83  1  0.32303630  0.57204674  0.68464429  1
  Al0+  Al84  1  0.67595754  0.42790654  0.01297423  1
  Al0+  Al85  1  0.42724136  0.32066672  0.65067705  1
  Al0+  Al86  1  0.68111722  0.93083152  0.01189749  1
  Al0+  Al87  1  0.92942882  0.32056192  0.65348796  1
  Al0+  Al88  1  0.17835166  0.42952916  0.68176801  1
  Al0+  Al89  1  0.81944003  0.57035827  0.67863225  1
  Al0+  Al90  1  0.67965632  0.43012574  0.34981107  1
  Al0+  Al91  1  0.07002396  0.67957616  0.65163603  1
  Al0+  Al92  1  0.31929985  0.06898246  0.67949227  1
  Al0+  Al93  1  0.07016529  0.17918446  0.31983681  1
  Al0+  Al94  1  0.82178291  0.57162593  0.01472483  1
  Al0+  Al95  1  0.56981624  0.67768455  0.98604384  1
  Si0+  Si96  1  0.92474096  0.32292190  0.31334723  1
  Si0+  Si97  1  0.07344175  0.67890457  0.32010551  1
  Si0+  Si98  1  0.67830406  0.92839956  0.68422042  1
  Si0+  Si99  1  0.92714374  0.82334882  0.64686969  1
  Si0+  Si100  1  0.42793573  0.82174634  0.64867231  1
  Si0+  Si101  1  0.57185023  0.18048126  0.98959273  1
  Si0+  Si102  1  0.82600188  0.07273912  0.01510754  1
  Si0+  Si103  1  0.32079191  0.07391034  0.34811163  1
  Si0+  Si104  1  0.57097936  0.17791833  0.31709666  1
  Si0+  Si105  1  0.31975474  0.57291378  0.01314677  1
  Si0+  Si106  1  0.93040273  0.81885854  0.31997971  1
  Si0+  Si107  1  0.17825540  0.92824034  0.01670142  1
  Si0+  Si108  1  0.17803025  0.42711225  0.34871164  1
  Si0+  Si109  1  0.57016732  0.67895400  0.31852526  1
  Si0+  Si110  1  0.92726408  0.31988937  0.98436483  1
  Si0+  Si111  1  0.42815889  0.82282374  0.31858867  1
  Si0+  Si112  1  0.42913074  0.32171508  0.98678234  1
  Si0+  Si113  1  0.67750711  0.42749300  0.68154669  1
  Si0+  Si114  1  0.17990795  0.92999562  0.34724018  1
  Si0+  Si115  1  0.43038356  0.32105358  0.31665936  1
  Si0+  Si116  1  0.82446871  0.57163602  0.35016141  1
  Si0+  Si117  1  0.17588795  0.92602091  0.68577054  1
  Si0+  Si118  1  0.17914607  0.42844086  0.01728273  1
  Si0+  Si119  1  0.07140571  0.17680890  0.65156846  1
  O2-  O120  1  0.24625193  -0.00309236  0.06322302  1
  O2-  O121  1  0.24901770  0.00319803  0.38919265  1
  O2-  O122  1  0.24426908  -0.00416165  0.72801129  1
  O2-  O123  1  0.24576859  0.50523663  0.05753792  1
  O2-  O124  1  0.24046786  0.50116217  0.39195454  1
  O2-  O125  1  0.24998977  0.50092770  0.73407332  1
  O2-  O126  1  0.75973594  0.00184348  0.05914903  1
  O2-  O127  1  0.74737923  0.00087163  0.39835869  1
  O2-  O128  1  0.74510276  -0.00113588  0.72812303  1
  O2-  O129  1  0.74638339  0.50184029  0.06330050  1
  O2-  O130  1  0.75821723  0.50126041  0.39454349  1
  O2-  O131  1  0.74298200  0.49814884  0.72622132  1
  O2-  O132  1  -0.00690665  0.25170034  0.27202290  1
  O2-  O133  1  0.00133149  0.24271380  0.60606544  1
  O2-  O134  1  -0.00558073  0.25072116  0.93879669  1
  O2-  O135  1  -0.00249037  0.74378329  0.27760609  1
  O2-  O136  1  -0.00334316  0.75496472  0.60251406  1
  O2-  O137  1  -0.00563086  0.74325022  0.93661597  1
  O2-  O138  1  0.50028128  0.24921104  0.27328916  1
  O2-  O139  1  0.50078979  0.25000827  0.60018349  1
  O2-  O140  1  0.50486666  0.25488092  0.94736727  1
  O2-  O141  1  0.50171527  0.75360581  0.27750651  1
  O2-  O142  1  0.49293670  0.75018118  0.60315155  1
  O2-  O143  1  0.49772446  0.74957935  0.93559732  1
  O2-  O144  1  0.07224660  0.18176924  0.09793958  1
  O2-  O145  1  0.07265811  0.18056145  0.43261537  1
  O2-  O146  1  0.07116059  0.17935772  0.75697860  1
  O2-  O147  1  0.07314640  0.67993653  0.10020127  1
  O2-  O148  1  0.07434296  0.68128672  0.42495134  1
  O2-  O149  1  0.06716896  0.68008694  0.76404056  1
  O2-  O150  1  0.56882577  0.18036768  0.09520430  1
  O2-  O151  1  0.56825795  0.17765283  0.42169075  1
  O2-  O152  1  0.57014682  0.17745018  0.76570076  1
  O2-  O153  1  0.56616197  0.67671877  0.10058682  1
  O2-  O154  1  0.56882954  0.67889505  0.42353197  1
  O2-  O155  1  0.57377048  0.68159650  0.76374159  1
  O2-  O156  1  0.18106568  0.42607401  0.24270411  1
  O2-  O157  1  0.17881066  0.43055339  0.56751002  1
  O2-  O158  1  0.18027138  0.42485417  0.91293156  1
  O2-  O159  1  0.18071486  0.92716594  0.24254715  1
  O2-  O160  1  0.17654166  0.92734090  0.57893323  1
  O2-  O161  1  0.17871241  0.92937129  0.91172900  1
  O2-  O162  1  0.67750795  0.43336060  0.23677192  1
  O2-  O163  1  0.68043560  0.42891637  0.57551623  1
  O2-  O164  1  0.67612776  0.42422627  0.90001587  1
  O2-  O165  1  0.67677544  0.92530452  0.23744941  1
  O2-  O166  1  0.68006637  0.92870968  0.57835404  1
  O2-  O167  1  0.67892524  0.93551540  0.89918726  1
  O2-  O168  1  0.42707744  0.32132870  0.09261728  1
  O2-  O169  1  0.42808346  0.31896412  0.42103186  1
  O2-  O170  1  0.42864434  0.31858932  0.76483012  1
  O2-  O171  1  0.43104465  0.82272637  0.09974366  1
  O2-  O172  1  0.42434316  0.82316033  0.42327051  1
  O2-  O173  1  0.43125520  0.82470285  0.75374929  1
  O2-  O174  1  0.92854836  0.31861547  0.09026935  1
  O2-  O175  1  0.92657666  0.32619812  0.41872692  1
  O2-  O176  1  0.93001649  0.32020868  0.76662082  1
  O2-  O177  1  0.92978990  0.82155395  0.09899418  1
  O2-  O178  1  0.93381331  0.82055169  0.42484622  1
  O2-  O179  1  0.92663125  0.82337179  0.75200872  1
  O2-  O180  1  0.32160266  0.07333048  0.24302040  1
  O2-  O181  1  0.31652942  0.06776342  0.56544048  1
  O2-  O182  1  0.32127526  0.07308985  0.90288209  1
  O2-  O183  1  0.31760818  0.57280795  0.23209734  1
  O2-  O184  1  0.32020566  0.57053245  0.57046517  1
  O2-  O185  1  0.32257718  0.56845423  0.90907382  1
  O2-  O186  1  0.82350031  0.06307871  0.23296015  1
  O2-  O187  1  0.82243061  0.06998622  0.56879274  1
  O2-  O188  1  0.82109214  0.07622244  0.90980267  1
  O2-  O189  1  0.82387290  0.57362839  0.24482643  1
  O2-  O190  1  0.81898138  0.56762157  0.56493021  1
  O2-  O191  1  0.82272815  0.56833230  0.90130776  1
  O2-  O192  1  0.04258118  0.08105423  0.26527541  1
  O2-  O193  1  0.04857752  0.08087955  0.60837335  1
  O2-  O194  1  0.05178702  0.08265646  0.92914076  1
  O2-  O195  1  0.05364092  0.58422536  0.27409397  1
  O2-  O196  1  0.03833626  0.58438096  0.59557415  1
  O2-  O197  1  0.04889795  0.57396362  0.93731889  1
  O2-  O198  1  0.54147716  0.08534201  0.27094172  1
  O2-  O199  1  0.54077961  0.07926247  0.59727078  1
  O2-  O200  1  0.54023302  0.09104567  0.94172370  1
  O2-  O201  1  0.53865194  0.58769446  0.27223783  1
  O2-  O202  1  0.54299536  0.58248491  0.59611449  1
  O2-  O203  1  0.54043434  0.57956455  0.93294403  1
  O2-  O204  1  0.16601372  0.21247818  0.26334410  1
  O2-  O205  1  0.16447608  0.20336316  0.60535796  1
  O2-  O206  1  0.16863105  0.21632814  0.93297982  1
  O2-  O207  1  0.16383338  0.71271537  0.27285850  1
  O2-  O208  1  0.16737438  0.71129327  0.59783963  1
  O2-  O209  1  0.16722931  0.70752902  0.93042067  1
  O2-  O210  1  0.66350042  0.20521410  0.27103309  1
  O2-  O211  1  0.66923217  0.20412554  0.59679834  1
  O2-  O212  1  0.66582703  0.20307841  0.94430860  1
  O2-  O213  1  0.66406430  0.70340129  0.27324725  1
  O2-  O214  1  0.66640011  0.71320556  0.59423196  1
  O2-  O215  1  0.66842818  0.70582312  0.93582519  1
  O2-  O216  1  0.08677026  0.44950746  0.06689565  1
  O2-  O217  1  0.08127103  0.44574940  0.39076524  1
  O2-  O218  1  0.08063459  0.45927889  0.73434469  1
  O2-  O219  1  0.08435065  0.95526278  0.06260321  1
  O2-  O220  1  0.08873266  0.95582767  0.39628056  1
  O2-  O221  1  0.08200332  0.94865169  0.73131309  1
  O2-  O222  1  0.57691918  0.45468101  0.06805264  1
  O2-  O223  1  0.58456321  0.46278409  0.40492477  1
  O2-  O224  1  0.58180077  0.44914008  0.72316266  1
  O2-  O225  1  0.58764702  0.96562486  0.07070371  1
  O2-  O226  1  0.57773695  0.95371083  0.40379201  1
  O2-  O227  1  0.58370582  0.95160054  0.72814414  1
  O2-  O228  1  0.21452820  0.34029052  0.06791391  1
  O2-  O229  1  0.20963151  0.33569714  0.39520417  1
  O2-  O230  1  0.20609650  0.33125468  0.73511922  1
  O2-  O231  1  0.20328432  0.83440427  0.06400837  1
  O2-  O232  1  0.21082294  0.84053506  0.39825410  1
  O2-  O233  1  0.20174765  0.83296844  0.73089410  1
  O2-  O234  1  0.70725903  0.33120323  0.07092024  1
  O2-  O235  1  0.70536144  0.33211745  0.40288839  1
  O2-  O236  1  0.70373778  0.33361561  0.72534522  1
  O2-  O237  1  0.70743679  0.83397478  0.06800084  1
  O2-  O238  1  0.70670259  0.82842787  0.40396388  1
  O2-  O239  1  0.70702715  0.83559617  0.72902139  1
  O2-  O240  1  0.46040659  0.41342193  0.27068175  1
  O2-  O241  1  0.45308879  0.41842197  0.59554834  1
  O2-  O242  1  0.45166926  0.41383063  0.93883242  1
  O2-  O243  1  0.45268764  0.91647232  0.27233676  1
  O2-  O244  1  0.45635805  0.91345182  0.59924851  1
  O2-  O245  1  0.46268594  0.92331898  0.93473483  1
  O2-  O246  1  0.95322754  0.41533733  0.26441858  1
  O2-  O247  1  0.96271682  0.41422807  0.59527190  1
  O2-  O248  1  0.95499598  0.41330429  0.94037555  1
  O2-  O249  1  0.96220497  0.90821045  0.27060582  1
  O2-  O250  1  0.95572441  0.91707517  0.60130199  1
  O2-  O251  1  0.95955028  0.91652977  0.92813537  1
  O2-  O252  1  0.33869052  0.29474788  0.26701858  1
  O2-  O253  1  0.32947449  0.28846903  0.59736946  1
  O2-  O254  1  0.33943126  0.28944041  0.93943796  1
  O2-  O255  1  0.33699793  0.79319272  0.26955930  1
  O2-  O256  1  0.33216435  0.80159186  0.60429007  1
  O2-  O257  1  0.32968686  0.80552925  0.93378790  1
  O2-  O258  1  0.83003168  0.29936974  0.26883382  1
  O2-  O259  1  0.83376258  0.29074510  0.59734801  1
  O2-  O260  1  0.83288640  0.29586335  0.93911106  1
  O2-  O261  1  0.83666190  0.79336167  0.27464087  1
  O2-  O262  1  0.83457567  0.79784271  0.59933629  1
  O2-  O263  1  0.82713017  0.79984038  0.93219377  1
  O2-  O264  1  0.41585896  0.04139137  0.07273108  1
  O2-  O265  1  0.41152485  0.04566026  0.39641230  1
  O2-  O266  1  0.41635667  0.03737575  0.73227745  1
  O2-  O267  1  0.40914847  0.54154550  0.06402456  1
  O2-  O268  1  0.41323412  0.53806876  0.39984006  1
  O2-  O269  1  0.42207268  0.54159231  0.73457275  1
  O2-  O270  1  0.92242449  0.04842265  0.05528634  1
  O2-  O271  1  0.92016449  0.03755022  0.40063716  1
  O2-  O272  1  0.91693660  0.04194592  0.73681567  1
  O2-  O273  1  0.91904897  0.54050822  0.07092529  1
  O2-  O274  1  0.92050260  0.54749869  0.39294005  1
  O2-  O275  1  0.91531600  0.53794120  0.73095371  1
  O2-  O276  1  0.28828081  0.16787246  0.07127017  1
  O2-  O277  1  0.29238282  0.16633577  0.39320266  1
  O2-  O278  1  0.29079821  0.16511050  0.73445049  1
  O2-  O279  1  0.29419643  0.66697617  0.05804589  1
  O2-  O280  1  0.29178155  0.66929606  0.40145220  1
  O2-  O281  1  0.29731940  0.67215168  0.73401597  1
  O2-  O282  1  0.80051019  0.16478689  0.06459310  1
  O2-  O283  1  0.79830503  0.16926018  0.39620584  1
  O2-  O284  1  0.79079970  0.16935891  0.73543774  1
  O2-  O285  1  0.79628656  0.67061037  0.06752703  1
  O2-  O286  1  0.79829933  0.66418018  0.39763419  1
  O2-  O287  1  0.79186311  0.66907363  0.72924987  1
