# generated using pymatgen
data_Ca2Al2SiO7
_symmetry_space_group_name_H-M   'P 1'
_cell_length_a   15.46994782
_cell_length_b   15.46630117
_cell_length_c   15.28936619
_cell_angle_alpha   90.00760897
_cell_angle_beta   90.03446104
_cell_angle_gamma   90.02137399
_symmetry_Int_Tables_number   1
_chemical_formula_structural   Ca2Al2SiO7
_chemical_formula_sum   'Ca48 Al48 Si24 O168'
_cell_volume   3658.17671605
_cell_formula_units_Z   24
loop_
 _symmetry_equiv_pos_site_id
 _symmetry_equiv_pos_as_xyz
  1  'x, y, z'
loop_
 _atom_type_symbol
 _atom_type_oxidation_number
  Ca2+  2.0
  Al0+  0.0
  Si0+  0.0
  O2-  -2.0
loop_
 _atom_site_type_symbol
 _atom_site_label
 _atom_site_symmetry_multiplicity
 _atom_site_fract_x
 _atom_site_fract_y
 _atom_site_fract_z
 _atom_site_occupancy
  Ca2+  Ca0  1  0.16153268  0.07054034  0.17321385  1
  Ca2+  Ca1  1  0.16533266  0.07346188  0.50831720  1
  Ca2+  Ca2  1  0.16212307  0.07419983  0.83552652  1
  Ca2+  Ca3  1  0.15764078  0.57462088  0.17168346  1
  Ca2+  Ca4  1  0.16451088  0.57784790  0.50811824  1
  Ca2+  Ca5  1  0.16228224  0.57735887  0.83830854  1
  Ca2+  Ca6  1  0.66394450  0.08144117  0.16485209  1
  Ca2+  Ca7  1  0.67482511  0.07585083  0.51106673  1
  Ca2+  Ca8  1  0.66961675  0.07536544  0.83773752  1
  Ca2+  Ca9  1  0.66899399  0.57829078  0.17131533  1
  Ca2+  Ca10  1  0.66170849  0.58127502  0.49993100  1
  Ca2+  Ca11  1  0.67692692  0.57868600  0.84542841  1
  Ca2+  Ca12  1  0.09378010  0.32832571  0.16285195  1
  Ca2+  Ca13  1  0.09419903  0.32282527  0.49727021  1
  Ca2+  Ca14  1  0.08923278  0.33038844  0.82534029  1
  Ca2+  Ca15  1  0.08392997  0.82379477  0.15782408  1
  Ca2+  Ca16  1  0.09560494  0.82380493  0.49568643  1
  Ca2+  Ca17  1  0.08795957  0.82546118  0.83015779  1
  Ca2+  Ca18  1  0.58100804  0.33334511  0.15418288  1
  Ca2+  Ca19  1  0.58016920  0.33348560  0.49168864  1
  Ca2+  Ca20  1  0.58057359  0.33361329  0.83415533  1
  Ca2+  Ca21  1  0.57814294  0.83349618  0.16157562  1
  Ca2+  Ca22  1  0.57523366  0.83092561  0.49116357  1
  Ca2+  Ca23  1  0.58586352  0.83876797  0.82903541  1
  Ca2+  Ca24  1  0.32648295  0.41523377  0.16709854  1
  Ca2+  Ca25  1  0.32218603  0.42555491  0.50567353  1
  Ca2+  Ca26  1  0.32427123  0.41993213  0.83550290  1
  Ca2+  Ca27  1  0.32323223  0.91294676  0.17107840  1
  Ca2+  Ca28  1  0.32561173  0.91817307  0.50516838  1
  Ca2+  Ca29  1  0.32098368  0.92125358  0.83287742  1
  Ca2+  Ca30  1  0.82458033  0.42191442  0.16749528  1
  Ca2+  Ca31  1  0.82716694  0.41569248  0.50004114  1
  Ca2+  Ca32  1  0.83174238  0.42500534  0.84465174  1
  Ca2+  Ca33  1  0.83150610  0.90995369  0.16395763  1
  Ca2+  Ca34  1  0.82691006  0.92087602  0.50921526  1
  Ca2+  Ca35  1  0.82894734  0.91766856  0.83904056  1
  Ca2+  Ca36  1  0.42349830  0.17608834  0.15337015  1
  Ca2+  Ca37  1  0.41172157  0.16553780  0.49820968  1
  Ca2+  Ca38  1  0.41688763  0.16853715  0.83221537  1
  Ca2+  Ca39  1  0.42010896  0.66984102  0.16870025  1
  Ca2+  Ca40  1  0.41761249  0.67162210  0.49268820  1
  Ca2+  Ca41  1  0.41696676  0.66476018  0.82753075  1
  Ca2+  Ca42  1  0.92259545  0.16902622  0.16598628  1
  Ca2+  Ca43  1  0.92822623  0.16112539  0.49943257  1
  Ca2+  Ca44  1  0.92014160  0.16887611  0.82525571  1
  Ca2+  Ca45  1  0.92584988  0.66833383  0.15772327  1
  Ca2+  Ca46  1  0.92956715  0.66908772  0.49702622  1
  Ca2+  Ca47  1  0.92484793  0.66823148  0.83433905  1
  Al0+  Al48  1  -0.00077974  -0.00067931  0.00224601  1
  Al0+  Al49  1  -0.00002092  0.00064950  0.33389023  1
  Al0+  Al50  1  -0.00252750  0.00011306  0.66980306  1
  Al0+  Al51  1  0.00089236  0.49893659  0.00581894  1
  Al0+  Al52  1  -0.00356250  0.49825509  0.33590320  1
  Al0+  Al53  1  -0.00316821  0.49978429  0.66423583  1
  Al0+  Al54  1  0.50160354  0.00104559  -0.00089613  1
  Al0+  Al55  1  0.49977820  0.00099100  0.32908154  1
  Al0+  Al56  1  0.49932890  0.00017401  0.67120735  1
  Al0+  Al57  1  0.49794604  0.50022865  -0.00218908  1
  Al0+  Al58  1  0.49982526  0.49941464  0.33326629  1
  Al0+  Al59  1  0.49827881  0.49925661  0.66776256  1
  Al0+  Al60  1  0.25304218  0.25115373  -0.00202184  1
  Al0+  Al61  1  0.25071134  0.24963005  0.33101686  1
  Al0+  Al62  1  0.25134800  0.25143939  0.66667176  1
  Al0+  Al63  1  0.25210517  0.74976478  -0.00048212  1
  Al0+  Al64  1  0.25085667  0.74946720  0.32739484  1
  Al0+  Al65  1  0.25296209  0.75030901  0.66851308  1
  Al0+  Al66  1  0.75131151  0.24849282  -0.00113967  1
  Al0+  Al67  1  0.75071829  0.25057218  0.33773639  1
  Al0+  Al68  1  0.74828056  0.24885164  0.66777083  1
  Al0+  Al69  1  0.75139092  0.75205024  0.00491317  1
  Al0+  Al70  1  0.75048230  0.74888340  0.33275038  1
  Al0+  Al71  1  0.74950744  0.74714919  0.66756284  1
  Al0+  Al72  1  0.07118331  0.17916797  0.65433010  1
  Al0+  Al73  1  0.67970273  0.92710227  0.68008332  1
  Al0+  Al74  1  0.07222562  0.67748215  0.98459399  1
  Al0+  Al75  1  0.82141158  0.07201171  0.68248648  1
  Al0+  Al76  1  0.17917616  0.92815257  0.34630584  1
  Al0+  Al77  1  0.17685751  0.43107500  0.68059464  1
  Al0+  Al78  1  0.67845075  0.42886142  0.01325938  1
  Al0+  Al79  1  0.42836591  0.32320851  0.98115419  1
  Al0+  Al80  1  0.42911730  0.82303096  0.31672257  1
  Al0+  Al81  1  0.32174137  0.57183851  0.68066275  1
  Al0+  Al82  1  0.17764541  0.92811309  0.68116024  1
  Al0+  Al83  1  0.07139459  0.17995668  0.31916085  1
  Al0+  Al84  1  0.32137156  0.07294319  0.68120126  1
  Al0+  Al85  1  0.57308100  0.17857956  0.98223491  1
  Al0+  Al86  1  0.07165258  0.67996962  0.65291687  1
  Al0+  Al87  1  0.07022921  0.67751671  0.32048589  1
  Al0+  Al88  1  0.92842592  0.82196656  0.98436133  1
  Al0+  Al89  1  0.67897731  0.93047505  0.01596572  1
  Al0+  Al90  1  0.57163972  0.67801054  0.31770048  1
  Al0+  Al91  1  0.17878059  0.92929705  0.01496403  1
  Al0+  Al92  1  0.67851156  0.42978673  0.34757338  1
  Al0+  Al93  1  0.17734086  0.42788027  0.34747766  1
  Al0+  Al94  1  0.82218987  0.57231782  0.01660434  1
  Al0+  Al95  1  0.18056526  0.42915518  0.01424351  1
  Si0+  Si96  1  0.07168301  0.17903170  0.98613289  1
  Si0+  Si97  1  0.93012701  0.32008386  0.98696078  1
  Si0+  Si98  1  0.56996946  0.17875711  0.64963911  1
  Si0+  Si99  1  0.57141810  0.67703729  0.65288194  1
  Si0+  Si100  1  0.67792145  0.92907640  0.34725846  1
  Si0+  Si101  1  0.81975677  0.56961238  0.68127141  1
  Si0+  Si102  1  0.92597157  0.82071985  0.65036178  1
  Si0+  Si103  1  0.32295278  0.07190870  0.34711686  1
  Si0+  Si104  1  0.43014919  0.32223148  0.64784139  1
  Si0+  Si105  1  0.42994546  0.32003370  0.31843707  1
  Si0+  Si106  1  0.67727287  0.42842565  0.68088493  1
  Si0+  Si107  1  0.32143881  0.07146753  0.01673874  1
  Si0+  Si108  1  0.57090453  0.68040284  0.98505740  1
  Si0+  Si109  1  0.32321491  0.57386737  0.01857041  1
  Si0+  Si110  1  0.32123919  0.57078375  0.34836507  1
  Si0+  Si111  1  0.82112600  0.57340161  0.35377404  1
  Si0+  Si112  1  0.82355100  0.07299173  0.01953777  1
  Si0+  Si113  1  0.42972130  0.82208111  0.98218584  1
  Si0+  Si114  1  0.92469369  0.32241686  0.64936297  1
  Si0+  Si115  1  0.82028409  0.07152844  0.34886518  1
  Si0+  Si116  1  0.92533255  0.32038380  0.31642849  1
  Si0+  Si117  1  0.92748641  0.82309873  0.31844717  1
  Si0+  Si118  1  0.43105347  0.82206335  0.65247548  1
  Si0+  Si119  1  0.57328856  0.17986213  0.31957911  1
  O2-  O120  1  0.25253322  0.00469348  0.06276968  1
  O2-  O121  1  0.25510177  0.00275127  0.39127613  1
  O2-  O122  1  0.24457459  0.00577516  0.73031488  1
  O2-  O123  1  0.25222572  0.50678601  0.06135043  1
  O2-  O124  1  0.24751489  0.50750763  0.39262595  1
  O2-  O125  1  0.24505448  0.50591354  0.73131407  1
  O2-  O126  1  0.75402489  0.00469075  0.06346978  1
  O2-  O127  1  0.74979678  -0.00118342  0.38956320  1
  O2-  O128  1  0.75213890  -0.00257323  0.73129680  1
  O2-  O129  1  0.74710196  0.50234364  0.06523633  1
  O2-  O130  1  0.74997032  0.50603127  0.39728959  1
  O2-  O131  1  0.75014489  0.49679007  0.72260160  1
  O2-  O132  1  -0.00032250  0.25781863  0.27207446  1
  O2-  O133  1  -0.00436732  0.25458466  0.60732467  1
  O2-  O134  1  0.00216700  0.25110624  0.94376315  1
  O2-  O135  1  -0.00285069  0.75482731  0.27592301  1
  O2-  O136  1  0.00040788  0.75863644  0.60549499  1
  O2-  O137  1  0.00216457  0.75172337  0.93468733  1
  O2-  O138  1  0.50201128  0.24974702  0.27712327  1
  O2-  O139  1  0.49974379  0.24939207  0.60500726  1
  O2-  O140  1  0.50238064  0.25204505  0.93229110  1
  O2-  O141  1  0.50332906  0.75272807  0.26673948  1
  O2-  O142  1  0.50196944  0.74973575  0.61140813  1
  O2-  O143  1  0.50106005  0.75099420  0.94024462  1
  O2-  O144  1  0.07027274  0.17958250  0.09152545  1
  O2-  O145  1  0.06975808  0.17843131  0.43211147  1
  O2-  O146  1  0.06948492  0.18179794  0.76771827  1
  O2-  O147  1  0.07048733  0.67746447  0.09843859  1
  O2-  O148  1  0.06934939  0.67849466  0.43403796  1
  O2-  O149  1  0.06817698  0.67745369  0.76534361  1
  O2-  O150  1  0.57036837  0.17926257  0.09690397  1
  O2-  O151  1  0.57308976  0.17998652  0.42497860  1
  O2-  O152  1  0.57106093  0.18091921  0.75396714  1
  O2-  O153  1  0.56839507  0.68075943  0.08997415  1
  O2-  O154  1  0.56932506  0.67960315  0.43206313  1
  O2-  O155  1  0.57184496  0.67539716  0.75791683  1
  O2-  O156  1  0.18227392  0.42644497  0.23451039  1
  O2-  O157  1  0.18038693  0.43081424  0.56674815  1
  O2-  O158  1  0.18006400  0.42789463  0.90151249  1
  O2-  O159  1  0.17890900  0.93014504  0.23323811  1
  O2-  O160  1  0.18205093  0.92656386  0.56727306  1
  O2-  O161  1  0.17984155  0.93088204  0.90212273  1
  O2-  O162  1  0.68033933  0.42759497  0.23531893  1
  O2-  O163  1  0.67666747  0.42977925  0.57541123  1
  O2-  O164  1  0.68227996  0.43121227  0.89910087  1
  O2-  O165  1  0.67756730  0.93119968  0.24247118  1
  O2-  O166  1  0.67968167  0.92873019  0.56556090  1
  O2-  O167  1  0.67945295  0.93099386  0.90326288  1
  O2-  O168  1  0.42807841  0.32030626  0.09559265  1
  O2-  O169  1  0.43094082  0.31886717  0.42386966  1
  O2-  O170  1  0.43364266  0.32509154  0.75217101  1
  O2-  O171  1  0.43061065  0.82191652  0.08727451  1
  O2-  O172  1  0.43163087  0.82427627  0.43079086  1
  O2-  O173  1  0.43293894  0.82213911  0.75759063  1
  O2-  O174  1  0.92871978  0.31738136  0.09206260  1
  O2-  O175  1  0.92033198  0.31591081  0.42180697  1
  O2-  O176  1  0.92211016  0.32314930  0.75503264  1
  O2-  O177  1  0.93079963  0.82128770  0.09853868  1
  O2-  O178  1  0.92408620  0.82281775  0.42414994  1
  O2-  O179  1  0.92095700  0.81565291  0.75513155  1
  O2-  O180  1  0.32339104  0.07295976  0.24180214  1
  O2-  O181  1  0.32353821  0.06886384  0.56706158  1
  O2-  O182  1  0.31956950  0.07025155  0.91130276  1
  O2-  O183  1  0.32468770  0.56724810  0.24300742  1
  O2-  O184  1  0.32586433  0.56910376  0.56693144  1
  O2-  O185  1  0.32489793  0.57372407  0.91310852  1
  O2-  O186  1  0.81908742  0.07436050  0.24404511  1
  O2-  O187  1  0.81818382  0.07196814  0.56801772  1
  O2-  O188  1  0.82431895  0.07426019  0.91440219  1
  O2-  O189  1  0.82140873  0.57238723  0.24877050  1
  O2-  O190  1  0.81796369  0.57065553  0.57614226  1
  O2-  O191  1  0.82082678  0.56912819  0.90218823  1
  O2-  O192  1  0.03579973  0.08454374  0.26500507  1
  O2-  O193  1  0.03932506  0.08183446  0.60034716  1
  O2-  O194  1  0.04197860  0.08771852  0.94004379  1
  O2-  O195  1  0.03676395  0.58029193  0.26887883  1
  O2-  O196  1  0.03550793  0.58436922  0.59843419  1
  O2-  O197  1  0.04049786  0.57829489  0.93461684  1
  O2-  O198  1  0.54760741  0.08821580  0.27120973  1
  O2-  O199  1  0.54182187  0.08624907  0.60316921  1
  O2-  O200  1  0.54244408  0.08055924  0.92972311  1
  O2-  O201  1  0.54066347  0.58002185  0.26525806  1
  O2-  O202  1  0.54169401  0.58586820  0.60430080  1
  O2-  O203  1  0.54365003  0.58876703  0.93685237  1
  O2-  O204  1  0.16833986  0.20825340  0.26418808  1
  O2-  O205  1  0.16817819  0.20961458  0.59964199  1
  O2-  O206  1  0.16386912  0.20528068  0.94013081  1
  O2-  O207  1  0.16722852  0.70331788  0.26618667  1
  O2-  O208  1  0.17058625  0.70775342  0.60101375  1
  O2-  O209  1  0.17231172  0.70391656  0.93398400  1
  O2-  O210  1  0.66504913  0.20816621  0.27319243  1
  O2-  O211  1  0.66202682  0.20679567  0.60148278  1
  O2-  O212  1  0.67276325  0.20410751  0.93065255  1
  O2-  O213  1  0.67185204  0.70234044  0.26744032  1
  O2-  O214  1  0.66346246  0.70197346  0.60411662  1
  O2-  O215  1  0.66363389  0.70768518  0.93991647  1
  O2-  O216  1  0.08379001  0.45432743  0.07008203  1
  O2-  O217  1  0.07777703  0.45041988  0.39900085  1
  O2-  O218  1  0.07561443  0.45324821  0.73013956  1
  O2-  O219  1  0.08253231  0.96048005  0.06913334  1
  O2-  O220  1  0.08249638  0.95936960  0.39995617  1
  O2-  O221  1  0.07753129  0.95000748  0.73174683  1
  O2-  O222  1  0.57841769  0.45499067  0.06310547  1
  O2-  O223  1  0.58132316  0.45847703  0.40247396  1
  O2-  O224  1  0.58695430  0.45825724  0.72828785  1
  O2-  O225  1  0.58243871  0.96264848  0.07010367  1
  O2-  O226  1  0.58618945  0.95857972  0.39415048  1
  O2-  O227  1  0.58290574  0.95742989  0.73327710  1
  O2-  O228  1  0.21515947  0.33271606  0.06768702  1
  O2-  O229  1  0.21411569  0.33214063  0.40013757  1
  O2-  O230  1  0.20944795  0.33390965  0.73204535  1
  O2-  O231  1  0.21242857  0.83255438  0.06668460  1
  O2-  O232  1  0.21169716  0.83076257  0.39767216  1
  O2-  O233  1  0.21337795  0.83303063  0.73518508  1
  O2-  O234  1  0.70852053  0.33019747  0.06453259  1
  O2-  O235  1  0.71145099  0.33411585  0.40400833  1
  O2-  O236  1  0.70106010  0.33545821  0.72634193  1
  O2-  O237  1  0.70830954  0.83468652  0.07166590  1
  O2-  O238  1  0.70387595  0.83639570  0.39381394  1
  O2-  O239  1  0.70442715  0.82727982  0.73168400  1
  O2-  O240  1  0.45725300  0.41147843  0.27143097  1
  O2-  O241  1  0.46199912  0.41271721  0.59892138  1
  O2-  O242  1  0.45482557  0.42209545  0.92804007  1
  O2-  O243  1  0.45688083  0.92144862  0.26240822  1
  O2-  O244  1  0.46023644  0.91320242  0.60402201  1
  O2-  O245  1  0.45858779  0.91356495  0.93578511  1
  O2-  O246  1  0.94289908  0.41659385  0.27419849  1
  O2-  O247  1  0.94638267  0.41613865  0.60176106  1
  O2-  O248  1  0.95601476  0.41251586  0.94067433  1
  O2-  O249  1  0.95039913  0.91716357  0.27270660  1
  O2-  O250  1  0.94294874  0.91757819  0.60810403  1
  O2-  O251  1  0.95294294  0.92253518  0.93397446  1
  O2-  O252  1  0.33955907  0.29123407  0.26941320  1
  O2-  O253  1  0.33833378  0.29586190  0.59996857  1
  O2-  O254  1  0.33154105  0.29086384  0.92682421  1
  O2-  O255  1  0.33324788  0.79152324  0.26109292  1
  O2-  O256  1  0.34009160  0.79458565  0.60354690  1
  O2-  O257  1  0.33860011  0.79378125  0.93449558  1
  O2-  O258  1  0.83455681  0.28723288  0.26800727  1
  O2-  O259  1  0.83107925  0.29487948  0.60235430  1
  O2-  O260  1  0.83962618  0.29209144  0.93698061  1
  O2-  O261  1  0.83402471  0.79722455  0.27181530  1
  O2-  O262  1  0.83461842  0.78801564  0.60114645  1
  O2-  O263  1  0.82908500  0.79340068  0.93297703  1
  O2-  O264  1  0.41542387  0.04574438  0.06144712  1
  O2-  O265  1  0.41783406  0.04877128  0.39338438  1
  O2-  O266  1  0.41726471  0.04082499  0.73642225  1
  O2-  O267  1  0.41579747  0.54541527  0.06518008  1
  O2-  O268  1  0.41268079  0.54036690  0.39666732  1
  O2-  O269  1  0.41828576  0.53819630  0.73562971  1
  O2-  O270  1  0.91594032  0.04670161  0.06792579  1
  O2-  O271  1  0.91172286  0.04355793  0.39658182  1
  O2-  O272  1  0.91953671  0.04866513  0.73618615  1
  O2-  O273  1  0.91752461  0.53903848  0.07171271  1
  O2-  O274  1  0.91239898  0.54349294  0.40237555  1
  O2-  O275  1  0.91065797  0.54198029  0.72921470  1
  O2-  O276  1  0.29838926  0.16611313  0.06131380  1
  O2-  O277  1  0.29753947  0.16526325  0.39359320  1
  O2-  O278  1  0.30134686  0.17358249  0.73130048  1
  O2-  O279  1  0.30205357  0.66831837  0.06420810  1
  O2-  O280  1  0.30140940  0.66674797  0.39107867  1
  O2-  O281  1  0.30336196  0.67194126  0.73230607  1
  O2-  O282  1  0.79761536  0.16620894  0.06640687  1
  O2-  O283  1  0.79076031  0.16135940  0.39876806  1
  O2-  O284  1  0.79049945  0.16997862  0.73519582  1
  O2-  O285  1  0.79556382  0.67017755  0.06962118  1
  O2-  O286  1  0.79679773  0.66738125  0.40049211  1
  O2-  O287  1  0.78974362  0.65949820  0.73020226  1
