# generated using pymatgen
data_Ca2Al2SiO7
_symmetry_space_group_name_H-M   'P 1'
_cell_length_a   15.46281741
_cell_length_b   15.46268364
_cell_length_c   15.28643293
_cell_angle_alpha   90.00342112
_cell_angle_beta   89.99313668
_cell_angle_gamma   90.01987530
_symmetry_Int_Tables_number   1
_chemical_formula_structural   Ca2Al2SiO7
_chemical_formula_sum   'Ca48 Al48 Si24 O168'
_cell_volume   3654.93471106
_cell_formula_units_Z   24
loop_
 _symmetry_equiv_pos_site_id
 _symmetry_equiv_pos_as_xyz
  1  'x, y, z'
loop_
 _atom_type_symbol
 _atom_type_oxidation_number
  Ca2+  2.0
  Al0+  0.0
  Si0+  0.0
  O2-  -2.0
loop_
 _atom_site_type_symbol
 _atom_site_label
 _atom_site_symmetry_multiplicity
 _atom_site_fract_x
 _atom_site_fract_y
 _atom_site_fract_z
 _atom_site_occupancy
  Ca2+  Ca0  1  0.17606037  0.07219741  0.17781960  1
  Ca2+  Ca1  1  0.18032120  0.08128415  0.50319680  1
  Ca2+  Ca2  1  0.17292628  0.08536763  0.83158056  1
  Ca2+  Ca3  1  0.17178269  0.57941360  0.18132971  1
  Ca2+  Ca4  1  0.17481198  0.58256301  0.50121698  1
  Ca2+  Ca5  1  0.16859866  0.57983262  0.82768628  1
  Ca2+  Ca6  1  0.66132867  0.07202943  0.17264777  1
  Ca2+  Ca7  1  0.66251620  0.07441711  0.50751363  1
  Ca2+  Ca8  1  0.66811824  0.07558155  0.82951412  1
  Ca2+  Ca9  1  0.67471813  0.58390065  0.17277609  1
  Ca2+  Ca10  1  0.67517774  0.58331669  0.51158046  1
  Ca2+  Ca11  1  0.66769227  0.58763656  0.82729202  1
  Ca2+  Ca12  1  0.08814282  0.33331602  0.16685421  1
  Ca2+  Ca13  1  0.08129331  0.34487095  0.49961372  1
  Ca2+  Ca14  1  0.07752770  0.33359827  0.82216990  1
  Ca2+  Ca15  1  0.08508279  0.82581681  0.16381064  1
  Ca2+  Ca16  1  0.07767669  0.82980672  0.49224784  1
  Ca2+  Ca17  1  0.06732103  0.83529782  0.82550715  1
  Ca2+  Ca18  1  0.57582472  0.32472588  0.16251902  1
  Ca2+  Ca19  1  0.59320415  0.31993433  0.49810506  1
  Ca2+  Ca20  1  0.58074149  0.32982904  0.82142182  1
  Ca2+  Ca21  1  0.57379324  0.84016858  0.16558164  1
  Ca2+  Ca22  1  0.58255424  0.83259377  0.49678921  1
  Ca2+  Ca23  1  0.58404415  0.83296912  0.82774298  1
  Ca2+  Ca24  1  0.32995619  0.42218062  0.17578419  1
  Ca2+  Ca25  1  0.32353522  0.42600513  0.50792082  1
  Ca2+  Ca26  1  0.33650131  0.42135081  0.83352182  1
  Ca2+  Ca27  1  0.33357802  0.91679824  0.18077701  1
  Ca2+  Ca28  1  0.33420857  0.92176528  0.49909232  1
  Ca2+  Ca29  1  0.34081233  0.92352482  0.83497997  1
  Ca2+  Ca30  1  0.83148091  0.42447355  0.17569905  1
  Ca2+  Ca31  1  0.83155384  0.42802409  0.50986801  1
  Ca2+  Ca32  1  0.82706586  0.41515786  0.82646772  1
  Ca2+  Ca33  1  0.82171884  0.90855179  0.16900510  1
  Ca2+  Ca34  1  0.82116989  0.91857612  0.51088741  1
  Ca2+  Ca35  1  0.82211601  0.90729185  0.83449246  1
  Ca2+  Ca36  1  0.41863816  0.16693122  0.16667495  1
  Ca2+  Ca37  1  0.42478349  0.15863430  0.49583948  1
  Ca2+  Ca38  1  0.42192049  0.17159196  0.82427527  1
  Ca2+  Ca39  1  0.40867261  0.67997055  0.16603965  1
  Ca2+  Ca40  1  0.41892248  0.66578068  0.49488259  1
  Ca2+  Ca41  1  0.42142274  0.67388959  0.82380243  1
  Ca2+  Ca42  1  0.92121116  0.16712135  0.16447528  1
  Ca2+  Ca43  1  0.90710444  0.17431035  0.50143189  1
  Ca2+  Ca44  1  0.91471828  0.17088343  0.81947236  1
  Ca2+  Ca45  1  0.92195547  0.66881174  0.16714751  1
  Ca2+  Ca46  1  0.91661797  0.66626844  0.49604427  1
  Ca2+  Ca47  1  0.91138257  0.67588417  0.82471442  1
  Al0+  Al48  1  0.00163764  -0.00012872  -0.00335675  1
  Al0+  Al49  1  -0.00241859  0.00236553  0.33369233  1
  Al0+  Al50  1  0.00037922  0.00179834  0.66244501  1
  Al0+  Al51  1  0.00125455  0.49834095  0.00048899  1
  Al0+  Al52  1  -0.00161845  0.50189836  0.33362373  1
  Al0+  Al53  1  0.00047177  0.50120750  0.67136037  1
  Al0+  Al54  1  0.50185105  0.00089917  -0.00011659  1
  Al0+  Al55  1  0.50160612  -0.00071754  0.33186793  1
  Al0+  Al56  1  0.49896210  0.00120590  0.67172273  1
  Al0+  Al57  1  0.50045325  0.49950599  -0.00033849  1
  Al0+  Al58  1  0.50169479  0.49749439  0.33434718  1
  Al0+  Al59  1  0.49895507  0.50141141  0.66872460  1
  Al0+  Al60  1  0.25086889  0.25047456  -0.00334456  1
  Al0+  Al61  1  0.24888316  0.24961229  0.33934200  1
  Al0+  Al62  1  0.24941994  0.24944312  0.67403144  1
  Al0+  Al63  1  0.25056902  0.74914780  -0.00757630  1
  Al0+  Al64  1  0.24837129  0.74923338  0.33298171  1
  Al0+  Al65  1  0.24765929  0.75120998  0.67142904  1
  Al0+  Al66  1  0.75154898  0.24955832  0.00268709  1
  Al0+  Al67  1  0.74983436  0.24892716  0.32235100  1
  Al0+  Al68  1  0.75038853  0.25006584  0.66485888  1
  Al0+  Al69  1  0.75076055  0.74943010  0.00353995  1
  Al0+  Al70  1  0.74933697  0.74987646  0.33966626  1
  Al0+  Al71  1  0.74796718  0.75025132  0.66556038  1
  Al0+  Al72  1  0.68047071  0.92942206  0.01646969  1
  Al0+  Al73  1  0.43122913  0.81761013  0.32280190  1
  Al0+  Al74  1  0.56929314  0.18034694  0.65322567  1
  Al0+  Al75  1  0.67883141  0.92871294  0.68261186  1
  Al0+  Al76  1  0.17825522  0.42856860  0.34736991  1
  Al0+  Al77  1  0.82180486  0.07148482  0.67934444  1
  Al0+  Al78  1  0.92782920  0.82208310  0.65096644  1
  Al0+  Al79  1  0.17959000  0.42984667  0.68396161  1
  Al0+  Al80  1  0.32247851  0.57382548  0.68379808  1
  Al0+  Al81  1  0.67859802  0.42790896  0.67969371  1
  Al0+  Al82  1  0.92999837  0.81876966  0.98752225  1
  Al0+  Al83  1  0.42967015  0.32101236  0.98610705  1
  Al0+  Al84  1  0.32071122  0.06919383  0.68222637  1
  Al0+  Al85  1  0.68016570  0.93057828  0.34706669  1
  Al0+  Al86  1  0.42873605  0.82211485  0.98582870  1
  Al0+  Al87  1  0.81877330  0.56990369  0.34644650  1
  Al0+  Al88  1  0.32182001  0.06986878  0.34714383  1
  Al0+  Al89  1  0.57033625  0.17843814  0.31766927  1
  Al0+  Al90  1  0.17552631  0.92643765  0.34681830  1
  Al0+  Al91  1  0.93058860  0.32086324  0.65234267  1
  Al0+  Al92  1  0.56853631  0.67938522  0.65284606  1
  Al0+  Al93  1  0.06884694  0.68041258  0.32056477  1
  Al0+  Al94  1  0.32379085  0.57227335  0.34647477  1
  Al0+  Al95  1  0.82091118  0.57213764  0.68320637  1
  Si0+  Si96  1  0.17609057  0.92804996  0.68452632  1
  Si0+  Si97  1  0.57470648  0.67488234  0.31716402  1
  Si0+  Si98  1  0.82498772  0.07353356  0.01763907  1
  Si0+  Si99  1  0.42584336  0.32283136  0.64916704  1
  Si0+  Si100  1  0.82243078  0.07525677  0.34805729  1
  Si0+  Si101  1  0.93071339  0.32088975  0.31673995  1
  Si0+  Si102  1  0.17855814  0.92858390  0.01306605  1
  Si0+  Si103  1  0.57262819  0.67800393  0.98542524  1
  Si0+  Si104  1  0.07176031  0.67923757  0.64950823  1
  Si0+  Si105  1  0.17991291  0.42919557  0.01567759  1
  Si0+  Si106  1  0.82117499  0.56923770  0.01581205  1
  Si0+  Si107  1  0.07332030  0.17787095  0.31779399  1
  Si0+  Si108  1  0.67863255  0.42466414  0.34709288  1
  Si0+  Si109  1  0.42560662  0.32205620  0.31873226  1
  Si0+  Si110  1  0.67838904  0.42643737  0.01657478  1
  Si0+  Si111  1  0.57329653  0.17886768  0.98172781  1
  Si0+  Si112  1  0.07480938  0.17817706  0.64732732  1
  Si0+  Si113  1  0.92550006  0.82420045  0.31715008  1
  Si0+  Si114  1  0.32188227  0.57189167  0.01536340  1
  Si0+  Si115  1  0.92912295  0.32128064  0.98522726  1
  Si0+  Si116  1  0.07259125  0.67516035  0.98129234  1
  Si0+  Si117  1  0.31996815  0.07098886  0.01484240  1
  Si0+  Si118  1  0.07112076  0.17969510  0.98511222  1
  Si0+  Si119  1  0.42614004  0.82322843  0.65029060  1
  O2-  O120  1  0.25384157  -0.00513827  0.05649914  1
  O2-  O121  1  0.24831951  -0.00176031  0.39531561  1
  O2-  O122  1  0.24663171  -0.00567984  0.73027827  1
  O2-  O123  1  0.24982244  0.50121859  0.05753469  1
  O2-  O124  1  0.25327718  0.49806265  0.39470800  1
  O2-  O125  1  0.25349002  0.49911138  0.73513554  1
  O2-  O126  1  0.75627930  0.00496226  0.06178114  1
  O2-  O127  1  0.75743674  0.00348852  0.39073382  1
  O2-  O128  1  0.75485468  -0.00291207  0.73239910  1
  O2-  O129  1  0.75026228  0.49747549  0.05796467  1
  O2-  O130  1  0.74107960  0.49819609  0.39106283  1
  O2-  O131  1  0.74784544  0.50095140  0.73318612  1
  O2-  O132  1  0.00270344  0.25006929  0.27479045  1
  O2-  O133  1  0.00553677  0.24689680  0.60397540  1
  O2-  O134  1  -0.00318350  0.24730558  0.94357591  1
  O2-  O135  1  -0.00235514  0.75870428  0.27266648  1
  O2-  O136  1  0.00290843  0.74760730  0.60544772  1
  O2-  O137  1  0.00446302  0.74478753  0.93867402  1
  O2-  O138  1  0.49440308  0.25354176  0.27317871  1
  O2-  O139  1  0.49601264  0.25611632  0.60480767  1
  O2-  O140  1  0.50657485  0.24947538  0.93838457  1
  O2-  O141  1  0.50288065  0.74035852  0.27303844  1
  O2-  O142  1  0.49146770  0.75166243  0.60664530  1
  O2-  O143  1  0.50351125  0.74660009  0.94200354  1
  O2-  O144  1  0.07212922  0.18118642  0.09048528  1
  O2-  O145  1  0.07376743  0.17580233  0.42168522  1
  O2-  O146  1  0.07417248  0.17927737  0.75387649  1
  O2-  O147  1  0.07287285  0.67383987  0.08704466  1
  O2-  O148  1  0.06620009  0.67878398  0.43298344  1
  O2-  O149  1  0.07167734  0.68150516  0.75576422  1
  O2-  O150  1  0.57135439  0.17949975  0.08766178  1
  O2-  O151  1  0.57277052  0.17977439  0.43022436  1
  O2-  O152  1  0.56734295  0.18111369  0.76678530  1
  O2-  O153  1  0.57298431  0.67654910  0.09120127  1
  O2-  O154  1  0.57624476  0.67589752  0.42213750  1
  O2-  O155  1  0.56830509  0.68245942  0.76671909  1
  O2-  O156  1  0.17934075  0.42894713  0.23248616  1
  O2-  O157  1  0.17978014  0.43201111  0.57078656  1
  O2-  O158  1  0.17753470  0.42890857  0.91153057  1
  O2-  O159  1  0.17710253  0.92841986  0.23191703  1
  O2-  O160  1  0.17667521  0.92836599  0.57934764  1
  O2-  O161  1  0.17600194  0.93321747  0.90844096  1
  O2-  O162  1  0.68212248  0.42472980  0.24048313  1
  O2-  O163  1  0.68286745  0.42729972  0.56613028  1
  O2-  O164  1  0.67915545  0.42320684  0.91237012  1
  O2-  O165  1  0.68055911  0.93090331  0.23319537  1
  O2-  O166  1  0.67689331  0.93081029  0.56928562  1
  O2-  O167  1  0.68085276  0.92855982  0.90421043  1
  O2-  O168  1  0.42872400  0.31923910  0.09948805  1
  O2-  O169  1  0.42555571  0.32298490  0.42349001  1
  O2-  O170  1  0.42731187  0.31958043  0.75554854  1
  O2-  O171  1  0.42606163  0.82151963  0.09900879  1
  O2-  O172  1  0.43319691  0.81918015  0.43530107  1
  O2-  O173  1  0.42840167  0.82299429  0.75656413  1
  O2-  O174  1  0.93107584  0.32278271  0.09074276  1
  O2-  O175  1  0.92790670  0.32024490  0.42103395  1
  O2-  O176  1  0.93165406  0.31820870  0.76631000  1
  O2-  O177  1  0.93139859  0.81613933  0.10073774  1
  O2-  O178  1  0.92532687  0.82266743  0.42214985  1
  O2-  O179  1  0.92948043  0.81988394  0.76485856  1
  O2-  O180  1  0.31954293  0.06970618  0.23241965  1
  O2-  O181  1  0.32097077  0.06776238  0.56956286  1
  O2-  O182  1  0.31688538  0.07205809  0.91002816  1
  O2-  O183  1  0.32055130  0.57116050  0.23173549  1
  O2-  O184  1  0.32026465  0.57430233  0.57057231  1
  O2-  O185  1  0.32176476  0.57088020  0.91092945  1
  O2-  O186  1  0.82315524  0.07674670  0.24180818  1
  O2-  O187  1  0.81809617  0.07140044  0.56573548  1
  O2-  O188  1  0.82527627  0.07759832  0.91296643  1
  O2-  O189  1  0.81934427  0.56731758  0.23208358  1
  O2-  O190  1  0.82095922  0.57013480  0.56979824  1
  O2-  O191  1  0.82149766  0.56947804  0.91161772  1
  O2-  O192  1  0.04333043  0.08751117  0.26649108  1
  O2-  O193  1  0.05240315  0.08459088  0.60104812  1
  O2-  O194  1  0.04809363  0.08729621  0.93700077  1
  O2-  O195  1  0.03395099  0.58534275  0.26307066  1
  O2-  O196  1  0.04647770  0.58515135  0.60624998  1
  O2-  O197  1  0.04523602  0.58138756  0.93638208  1
  O2-  O198  1  0.53731787  0.08369120  0.26142170  1
  O2-  O199  1  0.53517161  0.08363366  0.60139604  1
  O2-  O200  1  0.54590618  0.08609410  0.93640847  1
  O2-  O201  1  0.55573816  0.57880646  0.27178285  1
  O2-  O202  1  0.54224087  0.58116756  0.59945780  1
  O2-  O203  1  0.54869399  0.58398717  0.93968965  1
  O2-  O204  1  0.16460272  0.20627036  0.26824458  1
  O2-  O205  1  0.16893104  0.20508209  0.60376455  1
  O2-  O206  1  0.16097128  0.21079353  0.93608510  1
  O2-  O207  1  0.16524497  0.70805633  0.26335616  1
  O2-  O208  1  0.16571717  0.70587263  0.60474505  1
  O2-  O209  1  0.16573689  0.69900668  0.93411613  1
  O2-  O210  1  0.66510266  0.20971508  0.25798856  1
  O2-  O211  1  0.66548448  0.21035944  0.59877712  1
  O2-  O212  1  0.66912768  0.20270664  0.93987589  1
  O2-  O213  1  0.66742630  0.70475018  0.27023706  1
  O2-  O214  1  0.66432208  0.71052532  0.59842318  1
  O2-  O215  1  0.66618051  0.70440864  0.94023241  1
  O2-  O216  1  0.08719217  0.45485887  0.06396182  1
  O2-  O217  1  0.08052580  0.45949059  0.39782383  1
  O2-  O218  1  0.08288940  0.46098373  0.73943333  1
  O2-  O219  1  0.08846854  0.95969420  0.06247130  1
  O2-  O220  1  0.07648142  0.95489403  0.39734027  1
  O2-  O221  1  0.08367336  0.95822230  0.73084687  1
  O2-  O222  1  0.58685825  0.45516107  0.06466556  1
  O2-  O223  1  0.58285898  0.43991752  0.39045916  1
  O2-  O224  1  0.57966728  0.45282696  0.73260265  1
  O2-  O225  1  0.58338891  0.96271547  0.06965496  1
  O2-  O226  1  0.58531797  0.96364195  0.40034058  1
  O2-  O227  1  0.58242137  0.96069063  0.73704936  1
  O2-  O228  1  0.20866203  0.33661089  0.06210823  1
  O2-  O229  1  0.19954520  0.32965076  0.40059835  1
  O2-  O230  1  0.20338376  0.33064378  0.73780033  1
  O2-  O231  1  0.20189796  0.83316812  0.05557065  1
  O2-  O232  1  0.20213523  0.82898347  0.39963829  1
  O2-  O233  1  0.19673221  0.83444585  0.73251778  1
  O2-  O234  1  0.70707677  0.33524451  0.06612872  1
  O2-  O235  1  0.71122957  0.33231031  0.39013393  1
  O2-  O236  1  0.71180416  0.33209447  0.73531362  1
  O2-  O237  1  0.71202581  0.83262360  0.07087353  1
  O2-  O238  1  0.70710027  0.83394428  0.40126440  1
  O2-  O239  1  0.70660473  0.83061957  0.73561005  1
  O2-  O240  1  0.45185020  0.41517287  0.26978876  1
  O2-  O241  1  0.44666017  0.41822914  0.60680201  1
  O2-  O242  1  0.45837602  0.41862972  0.93316185  1
  O2-  O243  1  0.46428313  0.91276890  0.26607484  1
  O2-  O244  1  0.45474493  0.91626147  0.60632762  1
  O2-  O245  1  0.45962626  0.91939366  0.93346237  1
  O2-  O246  1  0.95880130  0.41193004  0.26745063  1
  O2-  O247  1  0.96171628  0.41875127  0.60115409  1
  O2-  O248  1  0.95986227  0.41186197  0.93779714  1
  O2-  O249  1  0.94451526  0.92009435  0.27201807  1
  O2-  O250  1  0.95779512  0.91908698  0.59757956  1
  O2-  O251  1  0.95984446  0.91607106  0.93389178  1
  O2-  O252  1  0.33174252  0.29571445  0.27204122  1
  O2-  O253  1  0.33169508  0.29441479  0.60700803  1
  O2-  O254  1  0.33383267  0.28897973  0.93113827  1
  O2-  O255  1  0.33364984  0.79036600  0.26694627  1
  O2-  O256  1  0.32961913  0.80206819  0.60894994  1
  O2-  O257  1  0.33269232  0.79342246  0.92911825  1
  O2-  O258  1  0.84112434  0.29201458  0.26397625  1
  O2-  O259  1  0.83526340  0.28950013  0.59686065  1
  O2-  O260  1  0.83551018  0.29689347  0.94021339  1
  O2-  O261  1  0.83339617  0.79170052  0.27084535  1
  O2-  O262  1  0.83131885  0.79139982  0.59863416  1
  O2-  O263  1  0.83353575  0.78563904  0.93492853  1
  O2-  O264  1  0.41418185  0.04904347  0.05939037  1
  O2-  O265  1  0.41900584  0.03939692  0.39874215  1
  O2-  O266  1  0.41503855  0.03880248  0.74038077  1
  O2-  O267  1  0.41390504  0.54457516  0.06270304  1
  O2-  O268  1  0.42380625  0.54745611  0.39722777  1
  O2-  O269  1  0.42053198  0.54726448  0.73791885  1
  O2-  O270  1  0.91994770  0.04817640  0.06241407  1
  O2-  O271  1  0.91736107  0.05747692  0.39325817  1
  O2-  O272  1  0.92381405  0.05154555  0.72897194  1
  O2-  O273  1  0.91343142  0.53948043  0.06287589  1
  O2-  O274  1  0.91319223  0.53582455  0.39994213  1
  O2-  O275  1  0.91840855  0.54459784  0.73742937  1
  O2-  O276  1  0.28680375  0.16160321  0.06199562  1
  O2-  O277  1  0.29434526  0.16726742  0.40089499  1
  O2-  O278  1  0.28906717  0.16444218  0.73887328  1
  O2-  O279  1  0.29280964  0.66494156  0.06029535  1
  O2-  O280  1  0.29279804  0.66859587  0.39942974  1
  O2-  O281  1  0.29083349  0.67121085  0.73858124  1
  O2-  O282  1  0.80107004  0.16767916  0.06571228  1
  O2-  O283  1  0.79325856  0.16891028  0.39112518  1
  O2-  O284  1  0.79075294  0.16827781  0.73377776  1
  O2-  O285  1  0.79280256  0.65964864  0.06563918  1
  O2-  O286  1  0.79294708  0.66624198  0.40111421  1
  O2-  O287  1  0.78878736  0.66921346  0.73603634  1
