# generated using pymatgen
data_Ca2Al2SiO7
_symmetry_space_group_name_H-M   'P 1'
_cell_length_a   15.45566611
_cell_length_b   15.45646627
_cell_length_c   15.28246434
_cell_angle_alpha   89.99880913
_cell_angle_beta   90.01241740
_cell_angle_gamma   90.00168516
_symmetry_Int_Tables_number   1
_chemical_formula_structural   Ca2Al2SiO7
_chemical_formula_sum   'Ca48 Al48 Si24 O168'
_cell_volume   3650.82754131
_cell_formula_units_Z   24
loop_
 _symmetry_equiv_pos_site_id
 _symmetry_equiv_pos_as_xyz
  1  'x, y, z'
loop_
 _atom_type_symbol
 _atom_type_oxidation_number
  Ca2+  2.0
  Al0+  0.0
  Si0+  0.0
  O2-  -2.0
loop_
 _atom_site_type_symbol
 _atom_site_label
 _atom_site_symmetry_multiplicity
 _atom_site_fract_x
 _atom_site_fract_y
 _atom_site_fract_z
 _atom_site_occupancy
  Ca2+  Ca0  1  0.17198240  0.08308407  0.16995566  1
  Ca2+  Ca1  1  0.17272871  0.07316343  0.50537890  1
  Ca2+  Ca2  1  0.17652273  0.09025350  0.83918522  1
  Ca2+  Ca3  1  0.16429494  0.57260691  0.17564107  1
  Ca2+  Ca4  1  0.16931140  0.57812519  0.50827599  1
  Ca2+  Ca5  1  0.17099777  0.57612083  0.83302213  1
  Ca2+  Ca6  1  0.66459513  0.08032929  0.17762767  1
  Ca2+  Ca7  1  0.65276644  0.07119067  0.49978261  1
  Ca2+  Ca8  1  0.66202445  0.07407205  0.83490430  1
  Ca2+  Ca9  1  0.66576281  0.57493915  0.17321697  1
  Ca2+  Ca10  1  0.67471539  0.59425883  0.50383832  1
  Ca2+  Ca11  1  0.66847270  0.58442005  0.83864733  1
  Ca2+  Ca12  1  0.07907773  0.33519686  0.15626810  1
  Ca2+  Ca13  1  0.08556405  0.34052769  0.49670812  1
  Ca2+  Ca14  1  0.08720828  0.33678278  0.83364622  1
  Ca2+  Ca15  1  0.08829810  0.82772272  0.16830917  1
  Ca2+  Ca16  1  0.08808501  0.81963122  0.49187739  1
  Ca2+  Ca17  1  0.07935756  0.82574184  0.82536560  1
  Ca2+  Ca18  1  0.58344523  0.33294138  0.15921811  1
  Ca2+  Ca19  1  0.57585520  0.33165962  0.49248735  1
  Ca2+  Ca20  1  0.56898203  0.34054457  0.83037298  1
  Ca2+  Ca21  1  0.58534020  0.82368439  0.16825505  1
  Ca2+  Ca22  1  0.58082612  0.82765795  0.49211551  1
  Ca2+  Ca23  1  0.58571361  0.82242951  0.82637860  1
  Ca2+  Ca24  1  0.32318030  0.41030286  0.16707190  1
  Ca2+  Ca25  1  0.32468441  0.42053665  0.50905276  1
  Ca2+  Ca26  1  0.32909164  0.41509696  0.83629085  1
  Ca2+  Ca27  1  0.33397286  0.92161968  0.17378699  1
  Ca2+  Ca28  1  0.33601108  0.91785724  0.50191447  1
  Ca2+  Ca29  1  0.33741560  0.93125611  0.83705122  1
  Ca2+  Ca30  1  0.82346274  0.41676601  0.17322261  1
  Ca2+  Ca31  1  0.82398957  0.42742079  0.49957296  1
  Ca2+  Ca32  1  0.82772590  0.42094344  0.83896701  1
  Ca2+  Ca33  1  0.82781006  0.92072538  0.17370229  1
  Ca2+  Ca34  1  0.81857296  0.91168011  0.50243822  1
  Ca2+  Ca35  1  0.82735779  0.91435022  0.83291693  1
  Ca2+  Ca36  1  0.42071352  0.17094721  0.16224320  1
  Ca2+  Ca37  1  0.41612057  0.17091244  0.49926777  1
  Ca2+  Ca38  1  0.40493076  0.17726255  0.83061750  1
  Ca2+  Ca39  1  0.42660320  0.66991864  0.16524634  1
  Ca2+  Ca40  1  0.42631393  0.66673543  0.49314796  1
  Ca2+  Ca41  1  0.42903572  0.65823008  0.82613843  1
  Ca2+  Ca42  1  0.92510702  0.17509526  0.15544508  1
  Ca2+  Ca43  1  0.91836951  0.17057657  0.49506776  1
  Ca2+  Ca44  1  0.92213600  0.17539437  0.83349730  1
  Ca2+  Ca45  1  0.91853755  0.66015888  0.17145523  1
  Ca2+  Ca46  1  0.92497339  0.65402315  0.49716473  1
  Ca2+  Ca47  1  0.92194657  0.66109276  0.82508378  1
  Al0+  Al48  1  0.00012804  -0.00114772  -0.00529016  1
  Al0+  Al49  1  0.00215084  -0.00037383  0.33758265  1
  Al0+  Al50  1  -0.00246398  0.00096267  0.66555506  1
  Al0+  Al51  1  -0.00023404  0.50143566  -0.00076966  1
  Al0+  Al52  1  -0.00129644  0.49888120  0.33531535  1
  Al0+  Al53  1  -0.00244214  0.49892379  0.67053085  1
  Al0+  Al54  1  0.49936873  -0.00115280  0.00621659  1
  Al0+  Al55  1  0.50016730  0.00280918  0.32903281  1
  Al0+  Al56  1  0.49989161  -0.00048453  0.67745405  1
  Al0+  Al57  1  0.50140459  0.50059430  -0.00302867  1
  Al0+  Al58  1  0.49716219  0.49864165  0.33046178  1
  Al0+  Al59  1  0.49941902  0.49883648  0.65701631  1
  Al0+  Al60  1  0.25135551  0.24934246  0.00365815  1
  Al0+  Al61  1  0.24953469  0.24933763  0.33778620  1
  Al0+  Al62  1  0.24873101  0.24853278  0.66644134  1
  Al0+  Al63  1  0.25153444  0.75170865  -0.00216365  1
  Al0+  Al64  1  0.24984058  0.75060650  0.32661606  1
  Al0+  Al65  1  0.25034312  0.74914219  0.66806022  1
  Al0+  Al66  1  0.75119196  0.24886208  -0.00300180  1
  Al0+  Al67  1  0.75026166  0.25129802  0.33412798  1
  Al0+  Al68  1  0.75085061  0.24821523  0.66506044  1
  Al0+  Al69  1  0.75124423  0.75019380  -0.00250368  1
  Al0+  Al70  1  0.75240883  0.75130962  0.33575563  1
  Al0+  Al71  1  0.75071476  0.75079866  0.67270011  1
  Al0+  Al72  1  0.17954982  0.42908979  0.34678513  1
  Al0+  Al73  1  0.07033779  0.67897875  0.65365323  1
  Al0+  Al74  1  0.57438623  0.67779220  0.31792722  1
  Al0+  Al75  1  0.32426524  0.57237843  0.68049680  1
  Al0+  Al76  1  0.17930163  0.92769416  0.34666253  1
  Al0+  Al77  1  0.18059402  0.43218170  0.01444376  1
  Al0+  Al78  1  0.57032134  0.18219201  0.32058859  1
  Al0+  Al79  1  0.57167710  0.67956783  0.65233525  1
  Al0+  Al80  1  0.17897773  0.42939430  0.68300307  1
  Al0+  Al81  1  0.92762473  0.32350356  0.98376404  1
  Al0+  Al82  1  0.67913048  0.93106490  0.34527856  1
  Al0+  Al83  1  0.68021746  0.93028862  0.68193804  1
  Al0+  Al84  1  0.06996812  0.67752080  0.31950229  1
  Al0+  Al85  1  0.31879492  0.06871458  0.68034041  1
  Al0+  Al86  1  0.81828053  0.56920625  0.68206814  1
  Al0+  Al87  1  0.67891499  0.42925128  0.01122718  1
  Al0+  Al88  1  0.42891579  0.82232525  0.31824136  1
  Al0+  Al89  1  0.31990168  0.07094605  0.01702951  1
  Al0+  Al90  1  0.67462057  0.42718755  0.34844569  1
  Al0+  Al91  1  0.57023007  0.68099784  0.98536568  1
  Al0+  Al92  1  0.42759849  0.31993381  0.65126771  1
  Al0+  Al93  1  0.81867047  0.57035838  0.34799984  1
  Al0+  Al94  1  0.07173113  0.17936944  0.98509359  1
  Al0+  Al95  1  0.43100962  0.31901268  0.98758520  1
  Si0+  Si96  1  0.57222661  0.17644673  0.65229961  1
  Si0+  Si97  1  0.07067609  0.17860200  0.64935259  1
  Si0+  Si98  1  0.17595042  0.92645322  0.01605504  1
  Si0+  Si99  1  0.32384121  0.57457861  0.01721415  1
  Si0+  Si100  1  0.92814492  0.82342786  0.64869201  1
  Si0+  Si101  1  0.92926247  0.82442163  0.31713556  1
  Si0+  Si102  1  0.42936898  0.82468200  0.65315081  1
  Si0+  Si103  1  0.07246697  0.67878536  0.98502224  1
  Si0+  Si104  1  0.92913715  0.82097206  0.98429621  1
  Si0+  Si105  1  0.32130865  0.57357412  0.34733409  1
  Si0+  Si106  1  0.82217718  0.57362674  0.01728360  1
  Si0+  Si107  1  0.82368010  0.07328358  0.34923060  1
  Si0+  Si108  1  0.57366029  0.17466135  0.98306377  1
  Si0+  Si109  1  0.82233410  0.06997233  0.01365881  1
  Si0+  Si110  1  0.42763646  0.82387889  0.98142746  1
  Si0+  Si111  1  0.93069411  0.31991444  0.31911452  1
  Si0+  Si112  1  0.17511930  0.92647354  0.68331394  1
  Si0+  Si113  1  0.42462525  0.32163010  0.31582893  1
  Si0+  Si114  1  0.67711900  0.42469277  0.68165403  1
  Si0+  Si115  1  0.07159335  0.17706795  0.32005122  1
  Si0+  Si116  1  0.82472261  0.07439010  0.68552402  1
  Si0+  Si117  1  0.92770341  0.32061955  0.64920602  1
  Si0+  Si118  1  0.32190679  0.07128961  0.35131040  1
  Si0+  Si119  1  0.68089368  0.92832989  0.01682564  1
  O2-  O120  1  0.24477046  -0.00522642  0.06036127  1
  O2-  O121  1  0.25531666  0.00000973  0.39446875  1
  O2-  O122  1  0.24367294  -0.00559310  0.72819044  1
  O2-  O123  1  0.25262405  0.50888388  0.06243219  1
  O2-  O124  1  0.25398683  0.50378953  0.39209517  1
  O2-  O125  1  0.25286933  0.50018109  0.73183048  1
  O2-  O126  1  0.74820030  0.00353006  0.05801804  1
  O2-  O127  1  0.75357992  0.00610658  0.39312348  1
  O2-  O128  1  0.75497550  0.00605400  0.72838578  1
  O2-  O129  1  0.75543801  0.50208921  0.05873296  1
  O2-  O130  1  0.73941437  0.50604861  0.39822227  1
  O2-  O131  1  0.74137930  0.49662816  0.72762284  1
  O2-  O132  1  0.00130433  0.24803646  0.27755782  1
  O2-  O133  1  -0.00038415  0.24968442  0.60701546  1
  O2-  O134  1  0.00244887  0.25373290  0.93379116  1
  O2-  O135  1  -0.00320062  0.75458389  0.27258791  1
  O2-  O136  1  -0.00095480  0.75706435  0.60555895  1
  O2-  O137  1  0.00149057  0.75070529  0.94385500  1
  O2-  O138  1  0.49962398  0.25935322  0.27227208  1
  O2-  O139  1  0.50630966  0.24714858  0.60767551  1
  O2-  O140  1  0.50653602  0.24462610  0.93935036  1
  O2-  O141  1  0.50136195  0.74997399  0.26876697  1
  O2-  O142  1  0.49323549  0.75206610  0.60856652  1
  O2-  O143  1  0.49420299  0.75382420  0.93705773  1
  O2-  O144  1  0.06791942  0.17739936  0.09922086  1
  O2-  O145  1  0.06988306  0.17631519  0.42532854  1
  O2-  O146  1  0.06948400  0.17718167  0.75408767  1
  O2-  O147  1  0.07161167  0.67890856  0.09005016  1
  O2-  O148  1  0.06888834  0.67704784  0.43239004  1
  O2-  O149  1  0.06708385  0.68091732  0.76742792  1
  O2-  O150  1  0.57399305  0.17410227  0.08875245  1
  O2-  O151  1  0.56616654  0.17924806  0.43377213  1
  O2-  O152  1  0.57325414  0.17650013  0.75791978  1
  O2-  O153  1  0.57216294  0.68315749  0.09805734  1
  O2-  O154  1  0.57385505  0.68240651  0.43146170  1
  O2-  O155  1  0.57283029  0.68141177  0.76589966  1
  O2-  O156  1  0.17881844  0.42730282  0.23349538  1
  O2-  O157  1  0.17911692  0.43076373  0.56914268  1
  O2-  O158  1  0.18122415  0.43371954  0.90188276  1
  O2-  O159  1  0.17682726  0.93276542  0.23355031  1
  O2-  O160  1  0.17468855  0.92829337  0.57772427  1
  O2-  O161  1  0.17538421  0.92495970  0.91041306  1
  O2-  O162  1  0.68036946  0.42381811  0.23466732  1
  O2-  O163  1  0.68174357  0.42103254  0.57647234  1
  O2-  O164  1  0.67835280  0.43248131  0.89798019  1
  O2-  O165  1  0.68295244  0.93313605  0.23179514  1
  O2-  O166  1  0.67893808  0.93234406  0.56894341  1
  O2-  O167  1  0.68312218  0.92795188  0.91165686  1
  O2-  O168  1  0.43172687  0.31684896  0.10064022  1
  O2-  O169  1  0.42125402  0.31708294  0.42123298  1
  O2-  O170  1  0.42678414  0.31821272  0.76456562  1
  O2-  O171  1  0.42822060  0.82440657  0.08672545  1
  O2-  O172  1  0.43007206  0.82283104  0.43221117  1
  O2-  O173  1  0.43371760  0.82782537  0.75882270  1
  O2-  O174  1  0.92763944  0.32010786  0.09786088  1
  O2-  O175  1  0.93143255  0.31835132  0.42454905  1
  O2-  O176  1  0.92563827  0.31855307  0.75392475  1
  O2-  O177  1  0.92683818  0.82378766  0.08903017  1
  O2-  O178  1  0.93013151  0.82798717  0.42219729  1
  O2-  O179  1  0.92984569  0.82430573  0.75506467  1
  O2-  O180  1  0.31937063  0.07340858  0.24577776  1
  O2-  O181  1  0.31830500  0.06671739  0.56718326  1
  O2-  O182  1  0.31894679  0.06982021  0.90375833  1
  O2-  O183  1  0.31923090  0.57232725  0.24137046  1
  O2-  O184  1  0.32247955  0.57245657  0.56677962  1
  O2-  O185  1  0.32260907  0.57432451  0.91171774  1
  O2-  O186  1  0.82527372  0.07183478  0.24323197  1
  O2-  O187  1  0.82864361  0.07531005  0.58022914  1
  O2-  O188  1  0.82243263  0.06650668  0.90867917  1
  O2-  O189  1  0.82210476  0.56549457  0.23422987  1
  O2-  O190  1  0.81983178  0.56818146  0.56942267  1
  O2-  O191  1  0.82111603  0.57584997  0.91154274  1
  O2-  O192  1  0.04387401  0.08555658  0.27198432  1
  O2-  O193  1  0.04146859  0.08643868  0.60172966  1
  O2-  O194  1  0.04141803  0.08152253  0.93043041  1
  O2-  O195  1  0.03467169  0.58215003  0.26473484  1
  O2-  O196  1  0.03500648  0.58258327  0.60210660  1
  O2-  O197  1  0.04325674  0.58859846  0.93613133  1
  O2-  O198  1  0.53870679  0.08764457  0.26294880  1
  O2-  O199  1  0.54094964  0.08315602  0.60850056  1
  O2-  O200  1  0.54614624  0.08011502  0.93949379  1
  O2-  O201  1  0.54516717  0.57859140  0.26580739  1
  O2-  O202  1  0.54710553  0.58271244  0.59665102  1
  O2-  O203  1  0.54111660  0.58470105  0.93051848  1
  O2-  O204  1  0.16431121  0.20384493  0.27443741  1
  O2-  O205  1  0.16162084  0.20510232  0.60051262  1
  O2-  O206  1  0.17053123  0.20713711  0.93445732  1
  O2-  O207  1  0.16479668  0.70781433  0.26222878  1
  O2-  O208  1  0.16849058  0.70684544  0.60062786  1
  O2-  O209  1  0.16454604  0.70611395  0.93749704  1
  O2-  O210  1  0.66977766  0.20650249  0.26747202  1
  O2-  O211  1  0.66770183  0.19542099  0.60642515  1
  O2-  O212  1  0.66842694  0.19473804  0.93736364  1
  O2-  O213  1  0.67321073  0.70820620  0.26614769  1
  O2-  O214  1  0.66840075  0.71609392  0.60240427  1
  O2-  O215  1  0.66694157  0.71446538  0.93176717  1
  O2-  O216  1  0.08200637  0.46146248  0.06666731  1
  O2-  O217  1  0.08311696  0.45911039  0.40026274  1
  O2-  O218  1  0.08068853  0.45769185  0.73549670  1
  O2-  O219  1  0.08126407  0.95100288  0.06064242  1
  O2-  O220  1  0.08440427  0.95972567  0.40400792  1
  O2-  O221  1  0.08057629  0.95292757  0.72781591  1
  O2-  O222  1  0.58322955  0.46109010  0.06624593  1
  O2-  O223  1  0.57178103  0.44440542  0.39545251  1
  O2-  O224  1  0.58107680  0.44735942  0.72189635  1
  O2-  O225  1  0.58803698  0.95162012  0.06328315  1
  O2-  O226  1  0.58290638  0.96440427  0.39841105  1
  O2-  O227  1  0.58637574  0.96124086  0.74121426  1
  O2-  O228  1  0.21151137  0.33555971  0.06811798  1
  O2-  O229  1  0.20803868  0.33209888  0.40183645  1
  O2-  O230  1  0.20536020  0.32940264  0.73274652  1
  O2-  O231  1  0.20182780  0.83256392  0.06222123  1
  O2-  O232  1  0.20789342  0.82975547  0.39832371  1
  O2-  O233  1  0.19804875  0.83279327  0.72960882  1
  O2-  O234  1  0.70728417  0.33004664  0.06264309  1
  O2-  O235  1  0.71060538  0.33140032  0.40318506  1
  O2-  O236  1  0.70577881  0.33183781  0.72848866  1
  O2-  O237  1  0.71529852  0.83839255  0.06347254  1
  O2-  O238  1  0.71122541  0.83615870  0.40072704  1
  O2-  O239  1  0.71533357  0.83697166  0.73965865  1
  O2-  O240  1  0.44025333  0.41730876  0.27105452  1
  O2-  O241  1  0.45520904  0.41493396  0.59324968  1
  O2-  O242  1  0.46033567  0.41556845  0.93264096  1
  O2-  O243  1  0.45737167  0.92044668  0.26430500  1
  O2-  O244  1  0.45993789  0.91709194  0.60687830  1
  O2-  O245  1  0.45676085  0.91755743  0.93697821  1
  O2-  O246  1  0.95989126  0.41003082  0.27058226  1
  O2-  O247  1  0.95636909  0.41206213  0.60268554  1
  O2-  O248  1  0.95318037  0.42316806  0.93223542  1
  O2-  O249  1  0.95698242  0.91774700  0.26965241  1
  O2-  O250  1  0.94808659  0.91886872  0.60341308  1
  O2-  O251  1  0.95543312  0.91152753  0.93296974  1
  O2-  O252  1  0.33317247  0.28744572  0.26892959  1
  O2-  O253  1  0.33226074  0.28400436  0.59707065  1
  O2-  O254  1  0.33506894  0.28599892  0.93444024  1
  O2-  O255  1  0.33127599  0.79616536  0.26190912  1
  O2-  O256  1  0.33276068  0.80618727  0.61077959  1
  O2-  O257  1  0.33242475  0.80375412  0.93565835  1
  O2-  O258  1  0.83902830  0.29238992  0.27147411  1
  O2-  O259  1  0.83707116  0.29026617  0.59982258  1
  O2-  O260  1  0.83140434  0.29015678  0.92816687  1
  O2-  O261  1  0.83616273  0.79975202  0.26958840  1
  O2-  O262  1  0.83453713  0.79541580  0.60565375  1
  O2-  O263  1  0.83886830  0.79170896  0.93422934  1
  O2-  O264  1  0.41676129  0.04009072  0.07162451  1
  O2-  O265  1  0.41602029  0.04739967  0.39577306  1
  O2-  O266  1  0.41364076  0.04013230  0.73886923  1
  O2-  O267  1  0.41676315  0.54662131  0.06228557  1
  O2-  O268  1  0.41556843  0.55019967  0.39252616  1
  O2-  O269  1  0.42364744  0.54185337  0.73067961  1
  O2-  O270  1  0.91309290  0.03805264  0.06137390  1
  O2-  O271  1  0.91631947  0.04721158  0.39721125  1
  O2-  O272  1  0.91730213  0.04683931  0.73366143  1
  O2-  O273  1  0.91695520  0.55129386  0.06176538  1
  O2-  O274  1  0.91380004  0.53278439  0.40231583  1
  O2-  O275  1  0.91269040  0.53513202  0.73798842  1
  O2-  O276  1  0.28860093  0.16557223  0.07353235  1
  O2-  O277  1  0.29236634  0.16270361  0.39954601  1
  O2-  O278  1  0.28433887  0.16384160  0.73416069  1
  O2-  O279  1  0.30098424  0.67032374  0.06080050  1
  O2-  O280  1  0.29556095  0.66720296  0.39173870  1
  O2-  O281  1  0.29790688  0.67126714  0.73501702  1
  O2-  O282  1  0.79971984  0.16323932  0.06021779  1
  O2-  O283  1  0.80014868  0.16688748  0.39529128  1
  O2-  O284  1  0.79918634  0.16787341  0.73187205  1
  O2-  O285  1  0.79543533  0.66727221  0.06306867  1
  O2-  O286  1  0.80203182  0.67180654  0.39957949  1
  O2-  O287  1  0.79295420  0.66678088  0.73700683  1
