# generated using pymatgen
data_Ca2Al2SiO7
_symmetry_space_group_name_H-M   'P 1'
_cell_length_a   15.45558709
_cell_length_b   15.45479082
_cell_length_c   15.28185223
_cell_angle_alpha   90.00793460
_cell_angle_beta   90.00081024
_cell_angle_gamma   89.99310088
_symmetry_Int_Tables_number   1
_chemical_formula_structural   Ca2Al2SiO7
_chemical_formula_sum   'Ca48 Al48 Si24 O168'
_cell_volume   3650.26695149
_cell_formula_units_Z   24
loop_
 _symmetry_equiv_pos_site_id
 _symmetry_equiv_pos_as_xyz
  1  'x, y, z'
loop_
 _atom_type_symbol
 _atom_type_oxidation_number
  Ca2+  2.0
  Al0+  0.0
  Si0+  0.0
  O2-  -2.0
loop_
 _atom_site_type_symbol
 _atom_site_label
 _atom_site_symmetry_multiplicity
 _atom_site_fract_x
 _atom_site_fract_y
 _atom_site_fract_z
 _atom_site_occupancy
  Ca2+  Ca0  1  0.17241033  0.07260127  0.17028851  1
  Ca2+  Ca1  1  0.17628786  0.08216258  0.51216925  1
  Ca2+  Ca2  1  0.15789609  0.07163238  0.83296603  1
  Ca2+  Ca3  1  0.15053734  0.57540149  0.16889904  1
  Ca2+  Ca4  1  0.16072609  0.58076281  0.49756202  1
  Ca2+  Ca5  1  0.16032676  0.57685301  0.84271728  1
  Ca2+  Ca6  1  0.67429016  0.07680539  0.17012983  1
  Ca2+  Ca7  1  0.67054886  0.07760950  0.50740542  1
  Ca2+  Ca8  1  0.67952572  0.08886119  0.83503862  1
  Ca2+  Ca9  1  0.67450321  0.59329457  0.16394989  1
  Ca2+  Ca10  1  0.66638331  0.57662584  0.51098268  1
  Ca2+  Ca11  1  0.66821859  0.58262882  0.83814883  1
  Ca2+  Ca12  1  0.07715896  0.33657982  0.16086778  1
  Ca2+  Ca13  1  0.07501035  0.32983088  0.49469794  1
  Ca2+  Ca14  1  0.07316448  0.32858652  0.82847695  1
  Ca2+  Ca15  1  0.08395562  0.82168100  0.15544524  1
  Ca2+  Ca16  1  0.08090706  0.83368891  0.50014036  1
  Ca2+  Ca17  1  0.07764417  0.83850669  0.83032017  1
  Ca2+  Ca18  1  0.57978806  0.33022493  0.16227125  1
  Ca2+  Ca19  1  0.58719079  0.32678905  0.50343730  1
  Ca2+  Ca20  1  0.58503777  0.32914756  0.82246748  1
  Ca2+  Ca21  1  0.57406706  0.83759027  0.16086707  1
  Ca2+  Ca22  1  0.58075641  0.83310611  0.49379784  1
  Ca2+  Ca23  1  0.58257233  0.82253189  0.83141392  1
  Ca2+  Ca24  1  0.31757715  0.41973623  0.17138059  1
  Ca2+  Ca25  1  0.32532467  0.41739787  0.50318334  1
  Ca2+  Ca26  1  0.32534068  0.41878031  0.84062153  1
  Ca2+  Ca27  1  0.33312163  0.91327765  0.17117079  1
  Ca2+  Ca28  1  0.32915275  0.92233207  0.50549340  1
  Ca2+  Ca29  1  0.32353399  0.91765200  0.83664432  1
  Ca2+  Ca30  1  0.84428525  0.42322680  0.16651088  1
  Ca2+  Ca31  1  0.83305387  0.41362570  0.50631258  1
  Ca2+  Ca32  1  0.83278617  0.41771008  0.83921629  1
  Ca2+  Ca33  1  0.83131143  0.91747274  0.16642383  1
  Ca2+  Ca34  1  0.83002011  0.91874003  0.50927379  1
  Ca2+  Ca35  1  0.84534753  0.92730955  0.83845017  1
  Ca2+  Ca36  1  0.41516462  0.16229229  0.16636004  1
  Ca2+  Ca37  1  0.41968736  0.15407037  0.49906278  1
  Ca2+  Ca38  1  0.42276350  0.16500860  0.82563708  1
  Ca2+  Ca39  1  0.42272330  0.67997426  0.15744554  1
  Ca2+  Ca40  1  0.42295490  0.67358092  0.49543330  1
  Ca2+  Ca41  1  0.42431574  0.67007869  0.83135686  1
  Ca2+  Ca42  1  0.91242758  0.17801117  0.15992788  1
  Ca2+  Ca43  1  0.91690195  0.17330334  0.50326369  1
  Ca2+  Ca44  1  0.91591466  0.17249348  0.82307531  1
  Ca2+  Ca45  1  0.92350179  0.67125635  0.15716458  1
  Ca2+  Ca46  1  0.92072365  0.67448658  0.49748724  1
  Ca2+  Ca47  1  0.91569518  0.67708068  0.83561383  1
  Al0+  Al48  1  0.00262449  0.00150336  0.01184965  1
  Al0+  Al49  1  0.00017989  0.00219810  0.33324290  1
  Al0+  Al50  1  -0.00021982  0.00062121  0.66301893  1
  Al0+  Al51  1  -0.00331749  0.49917213  -0.00108790  1
  Al0+  Al52  1  -0.00143930  0.49976763  0.33360995  1
  Al0+  Al53  1  -0.00115479  0.50188123  0.66403249  1
  Al0+  Al54  1  0.50041287  0.00102407  -0.00581678  1
  Al0+  Al55  1  0.50228345  -0.00113798  0.33581076  1
  Al0+  Al56  1  0.49963849  -0.00114345  0.66780365  1
  Al0+  Al57  1  0.49839517  0.49834797  -0.00087021  1
  Al0+  Al58  1  0.50019375  0.49877637  0.33213279  1
  Al0+  Al59  1  0.50020306  0.49971480  0.66635454  1
  Al0+  Al60  1  0.24997625  0.25000454  0.00446583  1
  Al0+  Al61  1  0.25009550  0.24991595  0.34132001  1
  Al0+  Al62  1  0.25050273  0.25146375  0.66877694  1
  Al0+  Al63  1  0.25171271  0.74900860  -0.00456030  1
  Al0+  Al64  1  0.25127860  0.74824744  0.32655241  1
  Al0+  Al65  1  0.25062404  0.74929291  0.66948393  1
  Al0+  Al66  1  0.74929317  0.25040837  0.00266933  1
  Al0+  Al67  1  0.75004177  0.25105620  0.32812379  1
  Al0+  Al68  1  0.74693843  0.25032936  0.66527382  1
  Al0+  Al69  1  0.74975567  0.75035110  -0.00225863  1
  Al0+  Al70  1  0.75101072  0.74953656  0.33887897  1
  Al0+  Al71  1  0.75055519  0.74810848  0.65812103  1
  Al0+  Al72  1  0.68196536  0.92967439  0.34670139  1
  Al0+  Al73  1  0.42782750  0.82393734  0.98150380  1
  Al0+  Al74  1  0.17877126  0.92855930  0.68118204  1
  Al0+  Al75  1  0.81819196  0.57121675  0.01282905  1
  Al0+  Al76  1  0.17841983  0.43030989  0.01302434  1
  Al0+  Al77  1  0.06866989  0.68138220  0.32012477  1
  Al0+  Al78  1  0.57047446  0.67829491  0.65135370  1
  Al0+  Al79  1  0.56920592  0.17792100  0.65300667  1
  Al0+  Al80  1  0.92874793  0.31937574  0.98545405  1
  Al0+  Al81  1  0.82256909  0.07289071  0.01478604  1
  Al0+  Al82  1  0.32293614  0.07281156  0.68414004  1
  Al0+  Al83  1  0.17763222  0.43095178  0.34905896  1
  Al0+  Al84  1  0.81855514  0.06924909  0.67834246  1
  Al0+  Al85  1  0.92993911  0.31838234  0.31753269  1
  Al0+  Al86  1  0.92805752  0.32213963  0.65182180  1
  Al0+  Al87  1  0.93029535  0.82440529  0.98714842  1
  Al0+  Al88  1  0.18034647  0.92718744  0.01560900  1
  Al0+  Al89  1  0.32000387  0.06876445  0.34709636  1
  Al0+  Al90  1  0.57150604  0.67788926  0.98520566  1
  Al0+  Al91  1  0.07037110  0.67741504  0.98425865  1
  Al0+  Al92  1  0.68008568  0.43033044  0.67969473  1
  Al0+  Al93  1  0.93022814  0.82180135  0.65283039  1
  Al0+  Al94  1  0.07233287  0.17893448  0.65203233  1
  Al0+  Al95  1  0.43222643  0.82080301  0.32071740  1
  Si0+  Si96  1  0.57080701  0.18050740  0.98560084  1
  Si0+  Si97  1  0.17683679  0.43044867  0.68196193  1
  Si0+  Si98  1  0.67785216  0.92430285  0.68388294  1
  Si0+  Si99  1  0.82209853  0.07517589  0.35062539  1
  Si0+  Si100  1  0.32415088  0.57132952  0.01716128  1
  Si0+  Si101  1  0.17746035  0.92464174  0.34893220  1
  Si0+  Si102  1  0.42699561  0.31971564  0.98672928  1
  Si0+  Si103  1  0.82004111  0.56939747  0.34969745  1
  Si0+  Si104  1  0.07592570  0.17784871  0.31567967  1
  Si0+  Si105  1  0.67556110  0.42711745  0.01828692  1
  Si0+  Si106  1  0.92596908  0.82436496  0.31708672  1
  Si0+  Si107  1  0.42736435  0.32293132  0.64964039  1
  Si0+  Si108  1  0.32442199  0.07118158  0.01683038  1
  Si0+  Si109  1  0.42705570  0.32220812  0.31854082  1
  Si0+  Si110  1  0.42750949  0.82041473  0.64880651  1
  Si0+  Si111  1  0.57405295  0.67523591  0.31699952  1
  Si0+  Si112  1  0.67645981  0.42773210  0.34811988  1
  Si0+  Si113  1  0.07414723  0.17857510  0.98618351  1
  Si0+  Si114  1  0.07456326  0.67760479  0.64980544  1
  Si0+  Si115  1  0.67772174  0.92933437  0.01398831  1
  Si0+  Si116  1  0.56976834  0.17963449  0.31757160  1
  Si0+  Si117  1  0.32420153  0.57216001  0.34971530  1
  Si0+  Si118  1  0.82316734  0.57368901  0.68351047  1
  Si0+  Si119  1  0.32136072  0.57002393  0.68137663  1
  O2-  O120  1  0.25888230  -0.00027313  0.06075322  1
  O2-  O121  1  0.24244346  -0.00320931  0.39290841  1
  O2-  O122  1  0.24895510  0.00243738  0.73234407  1
  O2-  O123  1  0.25012396  0.50800637  0.06113518  1
  O2-  O124  1  0.25434737  0.50481999  0.39493148  1
  O2-  O125  1  0.24756726  0.50193906  0.72384385  1
  O2-  O126  1  0.74921283  -0.00488184  0.05902345  1
  O2-  O127  1  0.76020313  0.00022803  0.39402055  1
  O2-  O128  1  0.74645236  -0.00715088  0.72789094  1
  O2-  O129  1  0.74222754  0.49767676  0.06226157  1
  O2-  O130  1  0.74506905  0.50111619  0.38950074  1
  O2-  O131  1  0.75536854  0.50357846  0.72645944  1
  O2-  O132  1  0.00412363  0.24296457  0.27078264  1
  O2-  O133  1  0.00218178  0.25268572  0.60121205  1
  O2-  O134  1  0.00190392  0.24283587  0.94098263  1
  O2-  O135  1  -0.00083581  0.76082066  0.27359690  1
  O2-  O136  1  0.00640745  0.74750489  0.60716073  1
  O2-  O137  1  0.00392828  0.75483350  0.93530472  1
  O2-  O138  1  0.49753057  0.25033616  0.27599171  1
  O2-  O139  1  0.49074271  0.24906508  0.60531697  1
  O2-  O140  1  0.49970049  0.25149938  0.94405162  1
  O2-  O141  1  0.50639459  0.74498078  0.27415447  1
  O2-  O142  1  0.49898804  0.75505965  0.60357591  1
  O2-  O143  1  0.49933188  0.74939906  0.93482294  1
  O2-  O144  1  0.07675454  0.18242368  0.09203945  1
  O2-  O145  1  0.07662526  0.17966222  0.42095693  1
  O2-  O146  1  0.07004811  0.18042409  0.76592642  1
  O2-  O147  1  0.06577995  0.67693831  0.09808751  1
  O2-  O148  1  0.06599692  0.68126646  0.43359151  1
  O2-  O149  1  0.07499001  0.67397180  0.75469474  1
  O2-  O150  1  0.56942151  0.18065825  0.09131663  1
  O2-  O151  1  0.57095236  0.18102856  0.42238592  1
  O2-  O152  1  0.57066513  0.18278113  0.76627509  1
  O2-  O153  1  0.57003206  0.67959099  0.09938483  1
  O2-  O154  1  0.57201830  0.67283763  0.42255163  1
  O2-  O155  1  0.56776487  0.67740487  0.76398548  1
  O2-  O156  1  0.17854444  0.43184940  0.23600942  1
  O2-  O157  1  0.17765732  0.43224522  0.57667544  1
  O2-  O158  1  0.18221698  0.42872377  0.89969132  1
  O2-  O159  1  0.17987707  0.92457171  0.24337348  1
  O2-  O160  1  0.18203874  0.92576258  0.56712173  1
  O2-  O161  1  0.17758083  0.93137241  0.90300003  1
  O2-  O162  1  0.67355011  0.42612190  0.24328106  1
  O2-  O163  1  0.67983834  0.43136419  0.56584213  1
  O2-  O164  1  0.67522512  0.42465353  0.91297083  1
  O2-  O165  1  0.68062549  0.93255888  0.23334757  1
  O2-  O166  1  0.67875772  0.92652524  0.57770027  1
  O2-  O167  1  0.67521341  0.93207173  0.90877244  1
  O2-  O168  1  0.42733722  0.31830240  0.09222507  1
  O2-  O169  1  0.42900412  0.32581971  0.42317457  1
  O2-  O170  1  0.42987496  0.32595896  0.75549440  1
  O2-  O171  1  0.43178736  0.82569330  0.09573361  1
  O2-  O172  1  0.43366050  0.81884362  0.43377653  1
  O2-  O173  1  0.42681355  0.81741971  0.75392285  1
  O2-  O174  1  0.93047457  0.31946729  0.09894391  1
  O2-  O175  1  0.92808814  0.31784310  0.43030922  1
  O2-  O176  1  0.92936425  0.32257242  0.76523719  1
  O2-  O177  1  0.92955167  0.82153605  0.10123753  1
  O2-  O178  1  0.92443381  0.82177295  0.42271892  1
  O2-  O179  1  0.92952279  0.82167823  0.76543720  1
  O2-  O180  1  0.32030633  0.06818409  0.23369893  1
  O2-  O181  1  0.32297103  0.06794316  0.57018609  1
  O2-  O182  1  0.32529207  0.07451708  0.91205276  1
  O2-  O183  1  0.32875602  0.56887586  0.24472366  1
  O2-  O184  1  0.32175732  0.56876840  0.57599364  1
  O2-  O185  1  0.32807028  0.56479312  0.91140786  1
  O2-  O186  1  0.81768682  0.07756771  0.24494913  1
  O2-  O187  1  0.81573960  0.06845858  0.56491207  1
  O2-  O188  1  0.81998572  0.07604670  0.90188437  1
  O2-  O189  1  0.81997589  0.57036861  0.24457935  1
  O2-  O190  1  0.82260689  0.57328747  0.57726247  1
  O2-  O191  1  0.81725932  0.56965662  0.90007145  1
  O2-  O192  1  0.05412604  0.08203730  0.27120806  1
  O2-  O193  1  0.04406520  0.08220942  0.59639041  1
  O2-  O194  1  0.05098731  0.08305709  0.94550198  1
  O2-  O195  1  0.03201171  0.58614014  0.26772536  1
  O2-  O196  1  0.04645760  0.58548970  0.60124274  1
  O2-  O197  1  0.03634086  0.58137937  0.93074622  1
  O2-  O198  1  0.54125386  0.08854108  0.26977987  1
  O2-  O199  1  0.54243404  0.07975008  0.59889059  1
  O2-  O200  1  0.54506168  0.08998388  0.93615461  1
  O2-  O201  1  0.54957495  0.58143948  0.27049419  1
  O2-  O202  1  0.53603504  0.58256710  0.59688257  1
  O2-  O203  1  0.54340360  0.57790981  0.93419279  1
  O2-  O204  1  0.16927499  0.20638879  0.27065267  1
  O2-  O205  1  0.17202334  0.20752071  0.60075821  1
  O2-  O206  1  0.16656535  0.20719284  0.93923384  1
  O2-  O207  1  0.16735562  0.70256902  0.26582477  1
  O2-  O208  1  0.16877467  0.70145399  0.60332853  1
  O2-  O209  1  0.17234439  0.69487832  0.93563095  1
  O2-  O210  1  0.65973640  0.20993844  0.26759351  1
  O2-  O211  1  0.66232122  0.21365549  0.59560073  1
  O2-  O212  1  0.66169513  0.21035285  0.93860813  1
  O2-  O213  1  0.66913582  0.70109587  0.27451261  1
  O2-  O214  1  0.66701368  0.70389042  0.59497853  1
  O2-  O215  1  0.66880358  0.70617671  0.93108906  1
  O2-  O216  1  0.08134225  0.45962296  0.06643758  1
  O2-  O217  1  0.08226559  0.46473525  0.40369979  1
  O2-  O218  1  0.08485468  0.45897539  0.72860617  1
  O2-  O219  1  0.08762269  0.95988092  0.07640965  1
  O2-  O220  1  0.08123618  0.94654427  0.39208817  1
  O2-  O221  1  0.08007360  0.95802683  0.73245911  1
  O2-  O222  1  0.58025021  0.44915881  0.06375545  1
  O2-  O223  1  0.58396057  0.45245438  0.39643957  1
  O2-  O224  1  0.58281949  0.46031705  0.73351057  1
  O2-  O225  1  0.58555447  0.96112703  0.06117085  1
  O2-  O226  1  0.58786864  0.96435030  0.40280297  1
  O2-  O227  1  0.58355478  0.94792221  0.72809285  1
  O2-  O228  1  0.21343335  0.33550302  0.06942039  1
  O2-  O229  1  0.20982371  0.33565366  0.40439051  1
  O2-  O230  1  0.20494537  0.33944354  0.72985379  1
  O2-  O231  1  0.20999942  0.82852182  0.06671395  1
  O2-  O232  1  0.20630670  0.83148730  0.39397680  1
  O2-  O233  1  0.20718377  0.82987527  0.73444362  1
  O2-  O234  1  0.70196533  0.33453252  0.06638707  1
  O2-  O235  1  0.70709199  0.33589563  0.39417224  1
  O2-  O236  1  0.70772233  0.33356861  0.73384173  1
  O2-  O237  1  0.69960033  0.83525527  0.06029261  1
  O2-  O238  1  0.70695905  0.83174951  0.40232349  1
  O2-  O239  1  0.70342988  0.82916477  0.72562982  1
  O2-  O240  1  0.45630190  0.41268740  0.26841045  1
  O2-  O241  1  0.45815912  0.41375519  0.60077407  1
  O2-  O242  1  0.45133991  0.41179202  0.93871139  1
  O2-  O243  1  0.46613775  0.91632744  0.26595269  1
  O2-  O244  1  0.45113814  0.91510531  0.60471971  1
  O2-  O245  1  0.45696983  0.92167033  0.92794185  1
  O2-  O246  1  0.96212527  0.41552195  0.26600027  1
  O2-  O247  1  0.95472884  0.42161406  0.59885727  1
  O2-  O248  1  0.95921925  0.41491339  0.93139742  1
  O2-  O249  1  0.94348560  0.92147010  0.27495163  1
  O2-  O250  1  0.95932587  0.91670223  0.59515959  1
  O2-  O251  1  0.95872880  0.92527636  0.93957485  1
  O2-  O252  1  0.33493849  0.29360488  0.27239093  1
  O2-  O253  1  0.33183905  0.30402780  0.60530292  1
  O2-  O254  1  0.33631086  0.29043756  0.93812166  1
  O2-  O255  1  0.33644469  0.79081028  0.26483602  1
  O2-  O256  1  0.33511731  0.79034212  0.60209292  1
  O2-  O257  1  0.33065087  0.79491463  0.92799002  1
  O2-  O258  1  0.83268491  0.29012333  0.26199813  1
  O2-  O259  1  0.83035410  0.29137192  0.59905019  1
  O2-  O260  1  0.82981606  0.29123974  0.93513226  1
  O2-  O261  1  0.83350266  0.79292807  0.27167342  1
  O2-  O262  1  0.83561956  0.78902093  0.59495595  1
  O2-  O263  1  0.83188573  0.79675230  0.93482437  1
  O2-  O264  1  0.41979911  0.04875306  0.06201162  1
  O2-  O265  1  0.41669887  0.03693414  0.40015937  1
  O2-  O266  1  0.42177268  0.04375164  0.73624985  1
  O2-  O267  1  0.41492257  0.53974339  0.06659526  1
  O2-  O268  1  0.41726689  0.54418818  0.39742724  1
  O2-  O269  1  0.41102621  0.53796237  0.73011919  1
  O2-  O270  1  0.91781499  0.04742780  0.07365417  1
  O2-  O271  1  0.91925819  0.05783863  0.39254821  1
  O2-  O272  1  0.91618265  0.04157436  0.73055040  1
  O2-  O273  1  0.91295773  0.53705924  0.06881739  1
  O2-  O274  1  0.90908989  0.53709168  0.39889085  1
  O2-  O275  1  0.91763367  0.55045251  0.72854044  1
  O2-  O276  1  0.29669726  0.16387198  0.06516136  1
  O2-  O277  1  0.29586263  0.16650407  0.40235543  1
  O2-  O278  1  0.30158954  0.17463098  0.73375151  1
  O2-  O279  1  0.30620881  0.66779360  0.05871679  1
  O2-  O280  1  0.29812105  0.66608220  0.39496191  1
  O2-  O281  1  0.29777249  0.66224736  0.72911110  1
  O2-  O282  1  0.78437493  0.16673557  0.07124512  1
  O2-  O283  1  0.78816546  0.16662386  0.39604760  1
  O2-  O284  1  0.78409492  0.16492891  0.73178535  1
  O2-  O285  1  0.78811394  0.66793846  0.06907611  1
  O2-  O286  1  0.79598127  0.66160275  0.39878512  1
  O2-  O287  1  0.79439052  0.66696156  0.72765167  1
