# generated using pymatgen
data_Ca2Al2SiO7
_symmetry_space_group_name_H-M   'P 1'
_cell_length_a   15.45948730
_cell_length_b   15.46162401
_cell_length_c   15.28594276
_cell_angle_alpha   89.99028977
_cell_angle_beta   89.99523563
_cell_angle_gamma   89.99439300
_symmetry_Int_Tables_number   1
_chemical_formula_structural   Ca2Al2SiO7
_chemical_formula_sum   'Ca48 Al48 Si24 O168'
_cell_volume   3653.78016745
_cell_formula_units_Z   24
loop_
 _symmetry_equiv_pos_site_id
 _symmetry_equiv_pos_as_xyz
  1  'x, y, z'
loop_
 _atom_type_symbol
 _atom_type_oxidation_number
  Ca2+  2.0
  Al0+  0.0
  Si0+  0.0
  O2-  -2.0
loop_
 _atom_site_type_symbol
 _atom_site_label
 _atom_site_symmetry_multiplicity
 _atom_site_fract_x
 _atom_site_fract_y
 _atom_site_fract_z
 _atom_site_occupancy
  Ca2+  Ca0  1  0.17376291  0.08529162  0.16966080  1
  Ca2+  Ca1  1  0.17085628  0.09385528  0.50013701  1
  Ca2+  Ca2  1  0.16729783  0.08154144  0.84208467  1
  Ca2+  Ca3  1  0.16486539  0.58222229  0.17034134  1
  Ca2+  Ca4  1  0.17907374  0.57848325  0.50859288  1
  Ca2+  Ca5  1  0.17070708  0.58512014  0.83864387  1
  Ca2+  Ca6  1  0.67387772  0.08245745  0.17231679  1
  Ca2+  Ca7  1  0.67519158  0.08376717  0.50783740  1
  Ca2+  Ca8  1  0.67795858  0.07387198  0.84016342  1
  Ca2+  Ca9  1  0.66827501  0.58647588  0.16811188  1
  Ca2+  Ca10  1  0.65664480  0.57921669  0.50879918  1
  Ca2+  Ca11  1  0.66832159  0.57917233  0.83298507  1
  Ca2+  Ca12  1  0.08378771  0.31829452  0.16189047  1
  Ca2+  Ca13  1  0.07640843  0.32161708  0.50018342  1
  Ca2+  Ca14  1  0.07345013  0.31982680  0.82583819  1
  Ca2+  Ca15  1  0.08538365  0.82901526  0.15699858  1
  Ca2+  Ca16  1  0.07590695  0.83654033  0.50131596  1
  Ca2+  Ca17  1  0.07941925  0.83328873  0.83142230  1
  Ca2+  Ca18  1  0.57968117  0.32478840  0.17063952  1
  Ca2+  Ca19  1  0.57643551  0.33272112  0.49568298  1
  Ca2+  Ca20  1  0.57993376  0.33361983  0.82495455  1
  Ca2+  Ca21  1  0.57323921  0.84248283  0.16315961  1
  Ca2+  Ca22  1  0.58631868  0.82345676  0.49497405  1
  Ca2+  Ca23  1  0.58520810  0.83483051  0.82886820  1
  Ca2+  Ca24  1  0.33313918  0.41546391  0.17295527  1
  Ca2+  Ca25  1  0.34199229  0.41901777  0.50912377  1
  Ca2+  Ca26  1  0.33808812  0.42288398  0.83178093  1
  Ca2+  Ca27  1  0.33256814  0.92135759  0.16782850  1
  Ca2+  Ca28  1  0.33637626  0.92066129  0.49864130  1
  Ca2+  Ca29  1  0.32726386  0.92253497  0.84633980  1
  Ca2+  Ca30  1  0.83784879  0.42594717  0.16789942  1
  Ca2+  Ca31  1  0.82557591  0.41740294  0.50976278  1
  Ca2+  Ca32  1  0.83061027  0.41651947  0.83568098  1
  Ca2+  Ca33  1  0.83004353  0.92683694  0.16757444  1
  Ca2+  Ca34  1  0.82867165  0.92516098  0.50936073  1
  Ca2+  Ca35  1  0.82645698  0.91913522  0.83484763  1
  Ca2+  Ca36  1  0.41508286  0.16215980  0.16540347  1
  Ca2+  Ca37  1  0.42274436  0.17626313  0.48862459  1
  Ca2+  Ca38  1  0.41559598  0.17056681  0.82856508  1
  Ca2+  Ca39  1  0.42163923  0.68175796  0.16370479  1
  Ca2+  Ca40  1  0.42660997  0.67001088  0.49555239  1
  Ca2+  Ca41  1  0.42048351  0.67521829  0.82603469  1
  Ca2+  Ca42  1  0.92399828  0.15551763  0.16273053  1
  Ca2+  Ca43  1  0.92247408  0.15863454  0.49756092  1
  Ca2+  Ca44  1  0.92455955  0.15588204  0.82639279  1
  Ca2+  Ca45  1  0.92137729  0.66780077  0.15498586  1
  Ca2+  Ca46  1  0.91084761  0.67786945  0.49963985  1
  Ca2+  Ca47  1  0.91797058  0.66983540  0.83053939  1
  Al0+  Al48  1  -0.00006162  -0.00321676  0.00190197  1
  Al0+  Al49  1  -0.00058131  -0.00149839  0.33313044  1
  Al0+  Al50  1  0.00280252  -0.00294727  0.66062416  1
  Al0+  Al51  1  0.00043579  0.49926392  -0.00084299  1
  Al0+  Al52  1  -0.00004334  0.49980770  0.33808174  1
  Al0+  Al53  1  0.00276752  0.49777724  0.66233432  1
  Al0+  Al54  1  0.49929338  0.00204816  -0.00000569  1
  Al0+  Al55  1  0.49938295  -0.00044741  0.33278281  1
  Al0+  Al56  1  0.49875306  0.00016015  0.67019591  1
  Al0+  Al57  1  0.49990009  0.50070454  0.00207537  1
  Al0+  Al58  1  0.50032585  0.50110221  0.32377231  1
  Al0+  Al59  1  0.50057053  0.50199128  0.67049005  1
  Al0+  Al60  1  0.24842453  0.25217431  -0.00259422  1
  Al0+  Al61  1  0.24658774  0.24978679  0.33125631  1
  Al0+  Al62  1  0.24905666  0.25238128  0.66076931  1
  Al0+  Al63  1  0.25192990  0.74975672  -0.00440222  1
  Al0+  Al64  1  0.24972100  0.74855002  0.33334857  1
  Al0+  Al65  1  0.25171914  0.75026990  0.66959425  1
  Al0+  Al66  1  0.74822638  0.25161649  0.00493689  1
  Al0+  Al67  1  0.75039089  0.25380968  0.33360450  1
  Al0+  Al68  1  0.75118511  0.25100682  0.67406710  1
  Al0+  Al69  1  0.74883389  0.74777930  0.00821787  1
  Al0+  Al70  1  0.75209640  0.75033001  0.32836657  1
  Al0+  Al71  1  0.75020363  0.74940850  0.66175379  1
  Al0+  Al72  1  0.31917834  0.07454655  0.01397074  1
  Al0+  Al73  1  0.82075033  0.56813923  0.01198873  1
  Al0+  Al74  1  0.42763841  0.32040369  0.31768740  1
  Al0+  Al75  1  0.07143309  0.67718804  0.98624170  1
  Al0+  Al76  1  0.82152667  0.07179672  0.01547086  1
  Al0+  Al77  1  0.06963310  0.17708259  0.65030789  1
  Al0+  Al78  1  0.42735345  0.82145798  0.31851444  1
  Al0+  Al79  1  0.06887892  0.17753204  0.98636075  1
  Al0+  Al80  1  0.32039691  0.07097702  0.34842903  1
  Al0+  Al81  1  0.67941637  0.42940370  0.67938573  1
  Al0+  Al82  1  0.93005851  0.81822546  0.65376054  1
  Al0+  Al83  1  0.82330470  0.07032059  0.68113158  1
  Al0+  Al84  1  0.67777650  0.92669789  0.68007319  1
  Al0+  Al85  1  0.92565254  0.32222284  0.65196331  1
  Al0+  Al86  1  0.67754873  0.92822944  0.01643139  1
  Al0+  Al87  1  0.57297883  0.67906912  0.31577762  1
  Al0+  Al88  1  0.32151711  0.57082506  0.68101004  1
  Al0+  Al89  1  0.06784899  0.17871180  0.31724744  1
  Al0+  Al90  1  0.17919058  0.92676588  0.01402966  1
  Al0+  Al91  1  0.56957632  0.68179602  0.65566992  1
  Al0+  Al92  1  0.43151105  0.82275556  0.98403301  1
  Al0+  Al93  1  0.82043011  0.07152892  0.34871131  1
  Al0+  Al94  1  0.57334968  0.17862271  0.31999961  1
  Al0+  Al95  1  0.43163719  0.32034731  0.65539523  1
  Si0+  Si96  1  0.92625735  0.81976510  0.98408705  1
  Si0+  Si97  1  0.32051809  0.56933187  0.34715594  1
  Si0+  Si98  1  0.06972826  0.67797415  0.32064494  1
  Si0+  Si99  1  0.57198751  0.18037353  0.98420483  1
  Si0+  Si100  1  0.57231875  0.67690829  0.98144646  1
  Si0+  Si101  1  0.42860249  0.32262146  0.98399758  1
  Si0+  Si102  1  0.82480993  0.57221575  0.68050273  1
  Si0+  Si103  1  0.67452219  0.42777252  0.02059038  1
  Si0+  Si104  1  0.17796793  0.92529108  0.35171305  1
  Si0+  Si105  1  0.42577953  0.82470807  0.65008125  1
  Si0+  Si106  1  0.31972403  0.07380961  0.67970540  1
  Si0+  Si107  1  0.18071306  0.92828734  0.68092861  1
  Si0+  Si108  1  0.32205677  0.57131060  0.01683819  1
  Si0+  Si109  1  0.92714086  0.32221179  0.98509470  1
  Si0+  Si110  1  0.07565612  0.67698321  0.64927120  1
  Si0+  Si111  1  0.57226927  0.17604075  0.65377675  1
  Si0+  Si112  1  0.67869008  0.43315563  0.34779661  1
  Si0+  Si113  1  0.17980942  0.43110435  0.01488429  1
  Si0+  Si114  1  0.67798984  0.92717324  0.35024082  1
  Si0+  Si115  1  0.82294749  0.57260358  0.34976273  1
  Si0+  Si116  1  0.17776811  0.42822333  0.34990462  1
  Si0+  Si117  1  0.17828595  0.42763134  0.68499040  1
  Si0+  Si118  1  0.93008750  0.82049517  0.31590067  1
  Si0+  Si119  1  0.92788418  0.32499583  0.31567134  1
  O2-  O120  1  0.24797058  0.00152657  0.06404275  1
  O2-  O121  1  0.24609001  -0.00502469  0.39565059  1
  O2-  O122  1  0.25113867  0.00044402  0.72153325  1
  O2-  O123  1  0.25042192  0.50136912  0.05984480  1
  O2-  O124  1  0.25363867  0.49501535  0.39103061  1
  O2-  O125  1  0.24462607  0.49869556  0.72930839  1
  O2-  O126  1  0.74830618  0.00149462  0.06633553  1
  O2-  O127  1  0.74211715  -0.00004089  0.39456060  1
  O2-  O128  1  0.74830815  0.00047235  0.72945383  1
  O2-  O129  1  0.74600794  0.49513693  0.06229742  1
  O2-  O130  1  0.74826898  0.50562211  0.39082886  1
  O2-  O131  1  0.75977570  0.49985084  0.72402366  1
  O2-  O132  1  -0.00856783  0.25230068  0.27101924  1
  O2-  O133  1  -0.00741621  0.24546708  0.60193403  1
  O2-  O134  1  -0.01226009  0.24648652  0.94134294  1
  O2-  O135  1  0.00054113  0.74808215  0.27535712  1
  O2-  O136  1  0.00362051  0.74171022  0.60497132  1
  O2-  O137  1  -0.00327102  0.75183103  0.94053556  1
  O2-  O138  1  0.49522448  0.24414392  0.26799182  1
  O2-  O139  1  0.50444157  0.24489449  0.60829578  1
  O2-  O140  1  0.49979762  0.25157231  0.94279248  1
  O2-  O141  1  0.50408190  0.75458363  0.26770461  1
  O2-  O142  1  0.49853079  0.75956700  0.60797083  1
  O2-  O143  1  0.50780454  0.74913709  0.93754120  1
  O2-  O144  1  0.07092796  0.18170673  0.09936930  1
  O2-  O145  1  0.06797433  0.18134998  0.42997901  1
  O2-  O146  1  0.07175538  0.17783524  0.76402835  1
  O2-  O147  1  0.06923142  0.67554349  0.10013355  1
  O2-  O148  1  0.06887884  0.67786670  0.42563325  1
  O2-  O149  1  0.07685887  0.67872126  0.75464507  1
  O2-  O150  1  0.57286203  0.18243751  0.08921616  1
  O2-  O151  1  0.57446506  0.18402039  0.43384554  1
  O2-  O152  1  0.56796950  0.17653252  0.75956040  1
  O2-  O153  1  0.56818348  0.67323401  0.08674072  1
  O2-  O154  1  0.57029706  0.67667136  0.42961683  1
  O2-  O155  1  0.56831324  0.68083892  0.76857885  1
  O2-  O156  1  0.17464543  0.43257557  0.24456719  1
  O2-  O157  1  0.17985256  0.42887871  0.57912941  1
  O2-  O158  1  0.18144962  0.43234754  0.91016064  1
  O2-  O159  1  0.17768781  0.92190249  0.24660728  1
  O2-  O160  1  0.18213391  0.92441897  0.57577512  1
  O2-  O161  1  0.18031827  0.92751293  0.89990097  1
  O2-  O162  1  0.68088709  0.43396624  0.24264412  1
  O2-  O163  1  0.67569767  0.43377769  0.56608329  1
  O2-  O164  1  0.67144641  0.42827925  0.91513463  1
  O2-  O165  1  0.68201721  0.92570112  0.24483312  1
  O2-  O166  1  0.67898645  0.92618979  0.56634655  1
  O2-  O167  1  0.68031392  0.92821825  0.90278913  1
  O2-  O168  1  0.42843896  0.32459180  0.08882105  1
  O2-  O169  1  0.43192277  0.32422712  0.43125801  1
  O2-  O170  1  0.43140289  0.31907015  0.76898576  1
  O2-  O171  1  0.42978132  0.81971311  0.09692711  1
  O2-  O172  1  0.42430891  0.81623978  0.43228474  1
  O2-  O173  1  0.42254075  0.82308150  0.75543520  1
  O2-  O174  1  0.93241035  0.32753273  0.09066022  1
  O2-  O175  1  0.93011572  0.33015255  0.42062495  1
  O2-  O176  1  0.93065502  0.32713888  0.76536784  1
  O2-  O177  1  0.92772909  0.81690738  0.09011935  1
  O2-  O178  1  0.92953755  0.81863530  0.42116080  1
  O2-  O179  1  0.93181031  0.81630058  0.76667030  1
  O2-  O180  1  0.31650235  0.07189103  0.23586439  1
  O2-  O181  1  0.31995429  0.07356946  0.57462199  1
  O2-  O182  1  0.31723403  0.07596622  0.89962904  1
  O2-  O183  1  0.31568398  0.56979725  0.24195607  1
  O2-  O184  1  0.32065786  0.56933944  0.56733845  1
  O2-  O185  1  0.32312406  0.56863300  0.91185273  1
  O2-  O186  1  0.82175572  0.06777720  0.23590905  1
  O2-  O187  1  0.82149631  0.06813152  0.56716669  1
  O2-  O188  1  0.82105838  0.07048598  0.90218567  1
  O2-  O189  1  0.82839094  0.56929406  0.24483920  1
  O2-  O190  1  0.82263510  0.57283502  0.57455084  1
  O2-  O191  1  0.82101910  0.56603014  0.89899525  1
  O2-  O192  1  0.03996482  0.08029932  0.26588384  1
  O2-  O193  1  0.04858213  0.07810251  0.59571563  1
  O2-  O194  1  0.04378245  0.07838735  0.93470832  1
  O2-  O195  1  0.04144016  0.58576769  0.27368151  1
  O2-  O196  1  0.05663442  0.58176289  0.60409964  1
  O2-  O197  1  0.04006848  0.58126785  0.93105918  1
  O2-  O198  1  0.55163798  0.07824731  0.26962669  1
  O2-  O199  1  0.54682800  0.08281459  0.60678211  1
  O2-  O200  1  0.54473088  0.08941656  0.93617296  1
  O2-  O201  1  0.54210835  0.58341687  0.25937712  1
  O2-  O202  1  0.53321438  0.58715733  0.60136610  1
  O2-  O203  1  0.54245009  0.58360585  0.93592005  1
  O2-  O204  1  0.16285002  0.21324723  0.26308924  1
  O2-  O205  1  0.16530083  0.21370417  0.59576985  1
  O2-  O206  1  0.16339086  0.21536207  0.93182349  1
  O2-  O207  1  0.16183671  0.70328482  0.27299825  1
  O2-  O208  1  0.16778218  0.70772921  0.60220920  1
  O2-  O209  1  0.16808390  0.70534073  0.93191389  1
  O2-  O210  1  0.66855705  0.21575123  0.26453434  1
  O2-  O211  1  0.66716394  0.20082924  0.61184336  1
  O2-  O212  1  0.66356443  0.21036466  0.93696680  1
  O2-  O213  1  0.67387843  0.70148767  0.26501375  1
  O2-  O214  1  0.66627904  0.70554290  0.59839143  1
  O2-  O215  1  0.66900281  0.69727167  0.94049636  1
  O2-  O216  1  0.08887767  0.45922700  0.06380148  1
  O2-  O217  1  0.08878701  0.46180910  0.40017753  1
  O2-  O218  1  0.08390214  0.45160141  0.73025519  1
  O2-  O219  1  0.07930987  0.94750539  0.06621846  1
  O2-  O220  1  0.08389223  0.95093665  0.39670792  1
  O2-  O221  1  0.08862476  0.95467880  0.72720169  1
  O2-  O222  1  0.58238826  0.45702995  0.06821358  1
  O2-  O223  1  0.58541248  0.46101710  0.39255770  1
  O2-  O224  1  0.58671571  0.46621858  0.73747194  1
  O2-  O225  1  0.57955294  0.95923942  0.06749438  1
  O2-  O226  1  0.58181221  0.94397072  0.39345758  1
  O2-  O227  1  0.57804191  0.95174400  0.73304376  1
  O2-  O228  1  0.20913701  0.34027619  0.06313246  1
  O2-  O229  1  0.20034981  0.33557358  0.39619038  1
  O2-  O230  1  0.20745327  0.33506436  0.73095941  1
  O2-  O231  1  0.20985539  0.82804298  0.06627974  1
  O2-  O232  1  0.20384181  0.83155646  0.39932852  1
  O2-  O233  1  0.20763268  0.83712125  0.73027630  1
  O2-  O234  1  0.69790128  0.33446058  0.06755591  1
  O2-  O235  1  0.70669299  0.34229764  0.39628284  1
  O2-  O236  1  0.70370814  0.33341338  0.73800167  1
  O2-  O237  1  0.70288913  0.82961326  0.07039663  1
  O2-  O238  1  0.71051107  0.83392234  0.39475313  1
  O2-  O239  1  0.70945259  0.82853274  0.73206579  1
  O2-  O240  1  0.45866221  0.41656545  0.26142060  1
  O2-  O241  1  0.46395434  0.41688818  0.60310396  1
  O2-  O242  1  0.45806870  0.41501699  0.93755535  1
  O2-  O243  1  0.45016050  0.92118301  0.26675098  1
  O2-  O244  1  0.44677493  0.92015510  0.60590970  1
  O2-  O245  1  0.45752141  0.92096305  0.93063212  1
  O2-  O246  1  0.96024919  0.41758067  0.26910074  1
  O2-  O247  1  0.95785202  0.41915046  0.59554227  1
  O2-  O248  1  0.96047621  0.41195542  0.93605516  1
  O2-  O249  1  0.95953110  0.91080881  0.26819495  1
  O2-  O250  1  0.96492597  0.91100343  0.59515357  1
  O2-  O251  1  0.95113308  0.91274796  0.93787418  1
  O2-  O252  1  0.32697517  0.29823237  0.26733957  1
  O2-  O253  1  0.33476134  0.29465833  0.60020047  1
  O2-  O254  1  0.33672166  0.29720352  0.93595171  1
  O2-  O255  1  0.33028289  0.78652786  0.26518417  1
  O2-  O256  1  0.33400438  0.79420055  0.60279559  1
  O2-  O257  1  0.33630091  0.78812949  0.92936213  1
  O2-  O258  1  0.83258601  0.30688383  0.27112516  1
  O2-  O259  1  0.82385628  0.30194325  0.60278816  1
  O2-  O260  1  0.82899154  0.30686547  0.94489625  1
  O2-  O261  1  0.83957427  0.79282733  0.26680840  1
  O2-  O262  1  0.83566326  0.78743946  0.59520768  1
  O2-  O263  1  0.83287698  0.79013167  0.94024556  1
  O2-  O264  1  0.41841380  0.04843738  0.06450075  1
  O2-  O265  1  0.41848201  0.04344659  0.40235381  1
  O2-  O266  1  0.41200588  0.04984387  0.72816773  1
  O2-  O267  1  0.41295889  0.54177739  0.06514538  1
  O2-  O268  1  0.41454888  0.54373658  0.39064225  1
  O2-  O269  1  0.41479410  0.53721881  0.73862170  1
  O2-  O270  1  0.91867452  0.03967943  0.06844644  1
  O2-  O271  1  0.91626975  0.03497671  0.40131127  1
  O2-  O272  1  0.92214713  0.03629718  0.72978698  1
  O2-  O273  1  0.91713219  0.53604166  0.06820694  1
  O2-  O274  1  0.91310454  0.54298717  0.40001892  1
  O2-  O275  1  0.92125350  0.55163311  0.72318764  1
  O2-  O276  1  0.29055626  0.17355149  0.06634521  1
  O2-  O277  1  0.28679647  0.16833475  0.40116991  1
  O2-  O278  1  0.29006520  0.16553326  0.72604958  1
  O2-  O279  1  0.29374535  0.66281666  0.06285736  1
  O2-  O280  1  0.28854194  0.65898918  0.39652517  1
  O2-  O281  1  0.29146369  0.66750981  0.73569119  1
  O2-  O282  1  0.79615422  0.17186197  0.06772277  1
  O2-  O283  1  0.79526143  0.17185576  0.39847450  1
  O2-  O284  1  0.80150300  0.16966987  0.73439344  1
  O2-  O285  1  0.79324843  0.66317025  0.07069289  1
  O2-  O286  1  0.79916652  0.66681877  0.39395167  1
  O2-  O287  1  0.79537132  0.66388459  0.72698786  1
