# generated using pymatgen
data_Ca2Al2SiO7
_symmetry_space_group_name_H-M   'P 1'
_cell_length_a   15.45240214
_cell_length_b   15.45228382
_cell_length_c   15.27976998
_cell_angle_alpha   90.00344793
_cell_angle_beta   89.99479583
_cell_angle_gamma   89.99480577
_symmetry_Int_Tables_number   1
_chemical_formula_structural   Ca2Al2SiO7
_chemical_formula_sum   'Ca48 Al48 Si24 O168'
_cell_volume   3648.42556552
_cell_formula_units_Z   24
loop_
 _symmetry_equiv_pos_site_id
 _symmetry_equiv_pos_as_xyz
  1  'x, y, z'
loop_
 _atom_type_symbol
 _atom_type_oxidation_number
  Ca2+  2.0
  Al0+  0.0
  Si0+  0.0
  O2-  -2.0
loop_
 _atom_site_type_symbol
 _atom_site_label
 _atom_site_symmetry_multiplicity
 _atom_site_fract_x
 _atom_site_fract_y
 _atom_site_fract_z
 _atom_site_occupancy
  Ca2+  Ca0  1  0.16439048  0.08014487  0.17061739  1
  Ca2+  Ca1  1  0.16924668  0.08886199  0.49670069  1
  Ca2+  Ca2  1  0.16407291  0.07962665  0.84327350  1
  Ca2+  Ca3  1  0.16461763  0.57857533  0.17443126  1
  Ca2+  Ca4  1  0.17772903  0.59166930  0.50187069  1
  Ca2+  Ca5  1  0.17149272  0.57598129  0.83787327  1
  Ca2+  Ca6  1  0.67635202  0.07774526  0.17123158  1
  Ca2+  Ca7  1  0.66748294  0.07107111  0.50928984  1
  Ca2+  Ca8  1  0.67755070  0.08616077  0.83310781  1
  Ca2+  Ca9  1  0.67200232  0.58089027  0.17340151  1
  Ca2+  Ca10  1  0.67162382  0.58706667  0.49864745  1
  Ca2+  Ca11  1  0.66915662  0.57326743  0.83905892  1
  Ca2+  Ca12  1  0.07596847  0.32563508  0.15980770  1
  Ca2+  Ca13  1  0.07205641  0.32848158  0.49089834  1
  Ca2+  Ca14  1  0.07619629  0.33191758  0.83267486  1
  Ca2+  Ca15  1  0.08512742  0.82645590  0.15962069  1
  Ca2+  Ca16  1  0.07499517  0.82905985  0.49616043  1
  Ca2+  Ca17  1  0.07111170  0.84340531  0.83423400  1
  Ca2+  Ca18  1  0.58303920  0.33637591  0.16180029  1
  Ca2+  Ca19  1  0.58050801  0.32629822  0.50205158  1
  Ca2+  Ca20  1  0.58229248  0.32871390  0.82480755  1
  Ca2+  Ca21  1  0.57572076  0.83436120  0.16800739  1
  Ca2+  Ca22  1  0.58358621  0.83115359  0.48886645  1
  Ca2+  Ca23  1  0.57880545  0.83636530  0.83021985  1
  Ca2+  Ca24  1  0.32324975  0.42163542  0.17340898  1
  Ca2+  Ca25  1  0.33686247  0.42914196  0.50727711  1
  Ca2+  Ca26  1  0.33154963  0.41956623  0.83808773  1
  Ca2+  Ca27  1  0.33309985  0.91739635  0.17202737  1
  Ca2+  Ca28  1  0.33662655  0.92056121  0.49837776  1
  Ca2+  Ca29  1  0.32601909  0.91716109  0.84222535  1
  Ca2+  Ca30  1  0.83260444  0.41470961  0.17058480  1
  Ca2+  Ca31  1  0.84298382  0.42027351  0.50041080  1
  Ca2+  Ca32  1  0.83048396  0.40911028  0.84125132  1
  Ca2+  Ca33  1  0.83515600  0.92109655  0.17010127  1
  Ca2+  Ca34  1  0.82178353  0.91790722  0.51076139  1
  Ca2+  Ca35  1  0.83755902  0.92718149  0.83834529  1
  Ca2+  Ca36  1  0.41767046  0.16182064  0.16530137  1
  Ca2+  Ca37  1  0.41864409  0.16718337  0.49675839  1
  Ca2+  Ca38  1  0.42515082  0.17514230  0.82295576  1
  Ca2+  Ca39  1  0.41608712  0.67479276  0.16718604  1
  Ca2+  Ca40  1  0.42090696  0.67018743  0.48805367  1
  Ca2+  Ca41  1  0.41408980  0.66988085  0.83108283  1
  Ca2+  Ca42  1  0.92434588  0.17148476  0.15854225  1
  Ca2+  Ca43  1  0.91429354  0.17591624  0.49567285  1
  Ca2+  Ca44  1  0.91483542  0.17067843  0.83047479  1
  Ca2+  Ca45  1  0.91758378  0.67013212  0.16569099  1
  Ca2+  Ca46  1  0.91933711  0.66990691  0.49076131  1
  Ca2+  Ca47  1  0.91401179  0.68175597  0.82939341  1
  Al0+  Al48  1  0.00175478  -0.00062816  0.00370048  1
  Al0+  Al49  1  0.00001168  0.00163344  0.33363873  1
  Al0+  Al50  1  -0.00050635  -0.00044266  0.66269792  1
  Al0+  Al51  1  0.00112964  0.49996441  -0.00025819  1
  Al0+  Al52  1  -0.00223861  0.50010822  0.33020050  1
  Al0+  Al53  1  0.00276172  0.50041256  0.66431268  1
  Al0+  Al54  1  0.50089973  -0.00089440  -0.00652886  1
  Al0+  Al55  1  0.49903651  0.00062338  0.33734085  1
  Al0+  Al56  1  0.49888410  -0.00077168  0.66880829  1
  Al0+  Al57  1  0.50205868  0.50082080  0.00460063  1
  Al0+  Al58  1  0.50035198  0.49953977  0.33360787  1
  Al0+  Al59  1  0.50026434  0.50215711  0.66869043  1
  Al0+  Al60  1  0.25123735  0.25134636  0.00012934  1
  Al0+  Al61  1  0.24923662  0.24878777  0.33504725  1
  Al0+  Al62  1  0.24943116  0.25224936  0.66334253  1
  Al0+  Al63  1  0.25170320  0.75090410  -0.00155939  1
  Al0+  Al64  1  0.24815797  0.75053479  0.33048611  1
  Al0+  Al65  1  0.25095567  0.74964294  0.67312081  1
  Al0+  Al66  1  0.74995331  0.24899332  0.00784859  1
  Al0+  Al67  1  0.74740696  0.24975765  0.33066272  1
  Al0+  Al68  1  0.75015020  0.24894534  0.65939830  1
  Al0+  Al69  1  0.74867499  0.74918142  -0.00536767  1
  Al0+  Al70  1  0.74867499  0.74758715  0.33634442  1
  Al0+  Al71  1  0.74820470  0.75000847  0.66835540  1
  Al0+  Al72  1  0.07238281  0.17839114  0.31689527  1
  Al0+  Al73  1  0.17995245  0.92966227  0.01381780  1
  Al0+  Al74  1  0.32227913  0.57115774  0.68228511  1
  Al0+  Al75  1  0.68013280  0.42865010  0.01301896  1
  Al0+  Al76  1  0.92937962  0.32154282  0.65239717  1
  Al0+  Al77  1  0.67660240  0.92649323  0.68500519  1
  Al0+  Al78  1  0.31946155  0.57103909  0.34588953  1
  Al0+  Al79  1  0.92806413  0.32048788  0.98448770  1
  Al0+  Al80  1  0.17880434  0.42860209  0.01447987  1
  Al0+  Al81  1  0.07077222  0.68061452  0.32064649  1
  Al0+  Al82  1  0.07262447  0.17883258  0.98407148  1
  Al0+  Al83  1  0.42963709  0.82061463  0.98424778  1
  Al0+  Al84  1  0.82091099  0.06941371  0.01540920  1
  Al0+  Al85  1  0.82114906  0.07111935  0.68087209  1
  Al0+  Al86  1  0.57019914  0.17782885  0.65069147  1
  Al0+  Al87  1  0.92805896  0.82125209  0.65209432  1
  Al0+  Al88  1  0.31990545  0.07058186  0.34700859  1
  Al0+  Al89  1  0.92686910  0.32082815  0.31583329  1
  Al0+  Al90  1  0.82049359  0.56845198  0.34656301  1
  Al0+  Al91  1  0.42780953  0.32336877  0.65166556  1
  Al0+  Al92  1  0.57263923  0.67698514  0.31762043  1
  Al0+  Al93  1  0.68078115  0.93020309  0.34498266  1
  Al0+  Al94  1  0.92899117  0.82005829  0.98813614  1
  Al0+  Al95  1  0.42950723  0.82255105  0.31953040  1
  Si0+  Si96  1  0.42908165  0.32159188  0.31823588  1
  Si0+  Si97  1  0.17746062  0.42803319  0.35109146  1
  Si0+  Si98  1  0.57123896  0.17915315  0.98659448  1
  Si0+  Si99  1  0.68133885  0.43048102  0.67894961  1
  Si0+  Si100  1  0.18018583  0.92963161  0.68089567  1
  Si0+  Si101  1  0.57133819  0.67636541  0.98109986  1
  Si0+  Si102  1  0.07238094  0.67905717  0.65149023  1
  Si0+  Si103  1  0.32441810  0.07201696  0.01389721  1
  Si0+  Si104  1  0.43017057  0.32287500  0.98732194  1
  Si0+  Si105  1  0.92644616  0.82167419  0.31865491  1
  Si0+  Si106  1  0.17600794  0.92688906  0.35136746  1
  Si0+  Si107  1  0.32036389  0.07327412  0.68194525  1
  Si0+  Si108  1  0.57032979  0.67901040  0.65230756  1
  Si0+  Si109  1  0.07369716  0.67685365  0.98200001  1
  Si0+  Si110  1  0.82292672  0.07294554  0.35057116  1
  Si0+  Si111  1  0.82202684  0.57430209  0.01452964  1
  Si0+  Si112  1  0.07310264  0.17627573  0.64909916  1
  Si0+  Si113  1  0.67634263  0.92659192  0.01652146  1
  Si0+  Si114  1  0.56863616  0.17822576  0.31738294  1
  Si0+  Si115  1  0.42715608  0.81981668  0.65226268  1
  Si0+  Si116  1  0.67624502  0.42549417  0.35305839  1
  Si0+  Si117  1  0.32231678  0.57189996  0.01864793  1
  Si0+  Si118  1  0.82427588  0.57128674  0.68156803  1
  Si0+  Si119  1  0.17762798  0.42763931  0.68321399  1
  O2-  O120  1  0.25456215  0.00529607  0.05859276  1
  O2-  O121  1  0.24425648  -0.00311447  0.39482775  1
  O2-  O122  1  0.24795410  0.00395413  0.72371592  1
  O2-  O123  1  0.25180766  0.50498683  0.06194034  1
  O2-  O124  1  0.24544482  0.49730980  0.39606395  1
  O2-  O125  1  0.24953945  0.49375834  0.72719591  1
  O2-  O126  1  0.74802696  -0.00845608  0.06094190  1
  O2-  O127  1  0.75757669  0.00120897  0.39402072  1
  O2-  O128  1  0.75070246  -0.00222262  0.73267059  1
  O2-  O129  1  0.75676911  0.50190935  0.05781275  1
  O2-  O130  1  0.74737219  0.49260411  0.39568869  1
  O2-  O131  1  0.75610594  0.49699144  0.72299054  1
  O2-  O132  1  -0.00172378  0.24784718  0.26741956  1
  O2-  O133  1  0.00367930  0.24549187  0.60744653  1
  O2-  O134  1  0.00008233  0.24949270  0.93278164  1
  O2-  O135  1  -0.00213755  0.75664666  0.27348348  1
  O2-  O136  1  0.00099231  0.74433600  0.60662556  1
  O2-  O137  1  0.00374591  0.74529883  0.93931340  1
  O2-  O138  1  0.49970593  0.25102313  0.27426140  1
  O2-  O139  1  0.49542674  0.24774487  0.60071281  1
  O2-  O140  1  0.50054732  0.25133086  0.94525046  1
  O2-  O141  1  0.49964064  0.74869604  0.26915290  1
  O2-  O142  1  0.50186080  0.75290872  0.61090845  1
  O2-  O143  1  0.50359388  0.74567129  0.93627580  1
  O2-  O144  1  0.07285311  0.17988395  0.09711504  1
  O2-  O145  1  0.07248626  0.18135361  0.43094370  1
  O2-  O146  1  0.07556461  0.17556304  0.75451775  1
  O2-  O147  1  0.07396142  0.67755293  0.08767603  1
  O2-  O148  1  0.07096884  0.68337051  0.43420227  1
  O2-  O149  1  0.07175912  0.67887220  0.75706966  1
  O2-  O150  1  0.56819157  0.17750477  0.09197549  1
  O2-  O151  1  0.56737034  0.17863426  0.42219574  1
  O2-  O152  1  0.56991877  0.18252747  0.76498819  1
  O2-  O153  1  0.57144650  0.67483728  0.08610116  1
  O2-  O154  1  0.57150997  0.67820539  0.43184202  1
  O2-  O155  1  0.56873775  0.67613421  0.75757778  1
  O2-  O156  1  0.18075880  0.42864271  0.24527551  1
  O2-  O157  1  0.17632520  0.42949580  0.57796872  1
  O2-  O158  1  0.18226048  0.42989776  0.90095538  1
  O2-  O159  1  0.17622714  0.92593474  0.24595151  1
  O2-  O160  1  0.18281761  0.92646403  0.57602674  1
  O2-  O161  1  0.18135763  0.93124974  0.89987641  1
  O2-  O162  1  0.67493188  0.42580469  0.24736454  1
  O2-  O163  1  0.67904684  0.43398521  0.57422484  1
  O2-  O164  1  0.67748256  0.42954905  0.89919162  1
  O2-  O165  1  0.68065304  0.93354312  0.23154960  1
  O2-  O166  1  0.67673330  0.92537034  0.57115476  1
  O2-  O167  1  0.67516259  0.92954469  0.91116360  1
  O2-  O168  1  0.43082262  0.32284022  0.09259534  1
  O2-  O169  1  0.43105486  0.32185749  0.42314730  1
  O2-  O170  1  0.43067274  0.32251381  0.76599939  1
  O2-  O171  1  0.43077156  0.82169783  0.09681739  1
  O2-  O172  1  0.43101526  0.82186071  0.43376141  1
  O2-  O173  1  0.42565203  0.81740479  0.75755740  1
  O2-  O174  1  0.92838125  0.31917137  0.09737605  1
  O2-  O175  1  0.92875728  0.31999997  0.42999898  1
  O2-  O176  1  0.92925939  0.32308321  0.76517031  1
  O2-  O177  1  0.92860019  0.81701234  0.10117910  1
  O2-  O178  1  0.92741074  0.81889365  0.42450910  1
  O2-  O179  1  0.93101803  0.82170765  0.76538932  1
  O2-  O180  1  0.32208051  0.06932201  0.23395710  1
  O2-  O181  1  0.32063571  0.07150124  0.57693417  1
  O2-  O182  1  0.32544667  0.07079145  0.90794990  1
  O2-  O183  1  0.31817703  0.56798725  0.23288254  1
  O2-  O184  1  0.32126948  0.57393493  0.56929558  1
  O2-  O185  1  0.32329080  0.56934091  0.91258306  1
  O2-  O186  1  0.82114724  0.07198272  0.24479784  1
  O2-  O187  1  0.81927506  0.06942383  0.56725343  1
  O2-  O188  1  0.81866795  0.07174098  0.90237072  1
  O2-  O189  1  0.81879628  0.56940959  0.23350751  1
  O2-  O190  1  0.82318684  0.57203712  0.57660163  1
  O2-  O191  1  0.81835156  0.57610744  0.90841428  1
  O2-  O192  1  0.04736336  0.07775251  0.26635661  1
  O2-  O193  1  0.04973026  0.08303814  0.60149285  1
  O2-  O194  1  0.04516311  0.07911301  0.93398784  1
  O2-  O195  1  0.03953738  0.58482077  0.26627882  1
  O2-  O196  1  0.05193524  0.58506138  0.60445945  1
  O2-  O197  1  0.04962246  0.58336352  0.93525065  1
  O2-  O198  1  0.53722068  0.08840515  0.26919088  1
  O2-  O199  1  0.54062879  0.07855633  0.59986808  1
  O2-  O200  1  0.54408811  0.08900695  0.93583943  1
  O2-  O201  1  0.54525057  0.57779152  0.26561621  1
  O2-  O202  1  0.54087026  0.58869123  0.60377206  1
  O2-  O203  1  0.54318056  0.58281349  0.93457713  1
  O2-  O204  1  0.17165574  0.20618388  0.26525421  1
  O2-  O205  1  0.16642264  0.20283710  0.60235748  1
  O2-  O206  1  0.17245393  0.20693656  0.93183651  1
  O2-  O207  1  0.16575843  0.70951238  0.26310166  1
  O2-  O208  1  0.16554856  0.71041221  0.60712686  1
  O2-  O209  1  0.16728561  0.70274609  0.93619940  1
  O2-  O210  1  0.66056243  0.20396133  0.26916469  1
  O2-  O211  1  0.66568033  0.20876378  0.59436685  1
  O2-  O212  1  0.66248273  0.20907837  0.94089524  1
  O2-  O213  1  0.67057053  0.70609562  0.26458046  1
  O2-  O214  1  0.66307125  0.70350413  0.60529928  1
  O2-  O215  1  0.66455945  0.69976810  0.93287195  1
  O2-  O216  1  0.08188879  0.45836854  0.06841684  1
  O2-  O217  1  0.08300853  0.45336160  0.39419384  1
  O2-  O218  1  0.08598651  0.45806314  0.73175107  1
  O2-  O219  1  0.08470581  0.95686779  0.07079689  1
  O2-  O220  1  0.08232987  0.95275555  0.39860799  1
  O2-  O221  1  0.08704143  0.95566407  0.72630535  1
  O2-  O222  1  0.58478806  0.46070117  0.06999213  1
  O2-  O223  1  0.58349236  0.45286661  0.39976080  1
  O2-  O224  1  0.59154322  0.46218505  0.72901140  1
  O2-  O225  1  0.58354607  0.95721423  0.06171511  1
  O2-  O226  1  0.58589526  0.96375355  0.40056352  1
  O2-  O227  1  0.57750270  0.95581339  0.73713073  1
  O2-  O228  1  0.21312207  0.33335985  0.06931456  1
  O2-  O229  1  0.20394861  0.33494119  0.39707736  1
  O2-  O230  1  0.20067924  0.33301360  0.72897056  1
  O2-  O231  1  0.21161908  0.83243233  0.06626198  1
  O2-  O232  1  0.20277016  0.83424936  0.39846096  1
  O2-  O233  1  0.21081285  0.84028735  0.73177766  1
  O2-  O234  1  0.70612486  0.33327836  0.07120308  1
  O2-  O235  1  0.69910015  0.33031799  0.39754501  1
  O2-  O236  1  0.70546459  0.33684446  0.72384588  1
  O2-  O237  1  0.69749806  0.83021969  0.05815017  1
  O2-  O238  1  0.70720328  0.83273093  0.39933439  1
  O2-  O239  1  0.70163928  0.82652069  0.73706192  1
  O2-  O240  1  0.45723483  0.41228331  0.26914995  1
  O2-  O241  1  0.46121362  0.42096766  0.60005260  1
  O2-  O242  1  0.45920536  0.41471563  0.94038006  1
  O2-  O243  1  0.46055867  0.92034008  0.26659906  1
  O2-  O244  1  0.44934401  0.91402281  0.60793946  1
  O2-  O245  1  0.45978387  0.91666575  0.92736657  1
  O2-  O246  1  0.95417474  0.41937540  0.26416173  1
  O2-  O247  1  0.96200825  0.41836172  0.59836585  1
  O2-  O248  1  0.95410446  0.42099251  0.93343957  1
  O2-  O249  1  0.94802147  0.91740716  0.27605130  1
  O2-  O250  1  0.96083709  0.91577993  0.59568015  1
  O2-  O251  1  0.96307504  0.91556182  0.93436766  1
  O2-  O252  1  0.33700626  0.29337729  0.27220002  1
  O2-  O253  1  0.32837293  0.29997908  0.59874968  1
  O2-  O254  1  0.33920286  0.29657000  0.93810616  1
  O2-  O255  1  0.33063895  0.79591638  0.26738961  1
  O2-  O256  1  0.33615562  0.78869627  0.60551835  1
  O2-  O257  1  0.33332740  0.78960898  0.92875879  1
  O2-  O258  1  0.82629969  0.29518951  0.26567322  1
  O2-  O259  1  0.83357954  0.29354383  0.59591333  1
  O2-  O260  1  0.82762788  0.29049360  0.93559560  1
  O2-  O261  1  0.83457762  0.79245317  0.27252732  1
  O2-  O262  1  0.83041031  0.79001374  0.60104235  1
  O2-  O263  1  0.83271003  0.79079647  0.93116569  1
  O2-  O264  1  0.41772782  0.04332458  0.05963395  1
  O2-  O265  1  0.41455125  0.03871144  0.40467279  1
  O2-  O266  1  0.41114687  0.04461188  0.73069009  1
  O2-  O267  1  0.41538587  0.54503510  0.06453521  1
  O2-  O268  1  0.41666484  0.53981727  0.39930715  1
  O2-  O269  1  0.41875118  0.54162062  0.73800597  1
  O2-  O270  1  0.91668761  0.03835224  0.06980325  1
  O2-  O271  1  0.91813164  0.05293338  0.39560871  1
  O2-  O272  1  0.92112978  0.04316983  0.73186504  1
  O2-  O273  1  0.91763237  0.55445767  0.05781017  1
  O2-  O274  1  0.91750575  0.53982671  0.40240300  1
  O2-  O275  1  0.91780819  0.54809863  0.72740139  1
  O2-  O276  1  0.30392288  0.16697432  0.05895012  1
  O2-  O277  1  0.29091417  0.16731918  0.40335276  1
  O2-  O278  1  0.29595501  0.16712514  0.72755708  1
  O2-  O279  1  0.29858348  0.66676268  0.06143057  1
  O2-  O280  1  0.28848669  0.66820444  0.39942714  1
  O2-  O281  1  0.28828882  0.66568075  0.73961902  1
  O2-  O282  1  0.78587704  0.16267730  0.07294086  1
  O2-  O283  1  0.79241841  0.16608110  0.39465306  1
  O2-  O284  1  0.78964837  0.17029464  0.73191775  1
  O2-  O285  1  0.79170946  0.66620283  0.06190674  1
  O2-  O286  1  0.78894633  0.66379620  0.40366195  1
  O2-  O287  1  0.79172559  0.66104421  0.73024562  1
