# generated using pymatgen
data_Ca2Al2SiO7
_symmetry_space_group_name_H-M   'P 1'
_cell_length_a   15.46105252
_cell_length_b   15.46093001
_cell_length_c   15.28562181
_cell_angle_alpha   89.99663916
_cell_angle_beta   90.00871429
_cell_angle_gamma   89.99703318
_symmetry_Int_Tables_number   1
_chemical_formula_structural   Ca2Al2SiO7
_chemical_formula_sum   'Ca48 Al48 Si24 O168'
_cell_volume   3653.90938815
_cell_formula_units_Z   24
loop_
 _symmetry_equiv_pos_site_id
 _symmetry_equiv_pos_as_xyz
  1  'x, y, z'
loop_
 _atom_type_symbol
 _atom_type_oxidation_number
  Ca2+  2.0
  Al0+  0.0
  Si0+  0.0
  O2-  -2.0
loop_
 _atom_site_type_symbol
 _atom_site_label
 _atom_site_symmetry_multiplicity
 _atom_site_fract_x
 _atom_site_fract_y
 _atom_site_fract_z
 _atom_site_occupancy
  Ca2+  Ca0  1  0.17111800  0.07745836  0.16508912  1
  Ca2+  Ca1  1  0.16594997  0.07537576  0.51133924  1
  Ca2+  Ca2  1  0.16744756  0.07363071  0.84245131  1
  Ca2+  Ca3  1  0.16361589  0.59070205  0.16606946  1
  Ca2+  Ca4  1  0.16945523  0.59091388  0.50928662  1
  Ca2+  Ca5  1  0.17036137  0.59375093  0.83726831  1
  Ca2+  Ca6  1  0.66842397  0.07729940  0.16632539  1
  Ca2+  Ca7  1  0.67344728  0.07791123  0.50720162  1
  Ca2+  Ca8  1  0.65697387  0.07566340  0.83883250  1
  Ca2+  Ca9  1  0.66432382  0.57871443  0.16763209  1
  Ca2+  Ca10  1  0.67024514  0.58166634  0.50490398  1
  Ca2+  Ca11  1  0.68014731  0.58195641  0.84525032  1
  Ca2+  Ca12  1  0.07377392  0.33086101  0.15615540  1
  Ca2+  Ca13  1  0.08298894  0.32590912  0.50017097  1
  Ca2+  Ca14  1  0.07755656  0.32805163  0.83118888  1
  Ca2+  Ca15  1  0.07353079  0.82695194  0.15958935  1
  Ca2+  Ca16  1  0.08091391  0.82492324  0.49446380  1
  Ca2+  Ca17  1  0.08251918  0.83045366  0.83205418  1
  Ca2+  Ca18  1  0.58587523  0.32979659  0.15367473  1
  Ca2+  Ca19  1  0.58751890  0.33097986  0.49719072  1
  Ca2+  Ca20  1  0.58578632  0.32400936  0.83516803  1
  Ca2+  Ca21  1  0.58422316  0.82352045  0.15451123  1
  Ca2+  Ca22  1  0.58563040  0.82723947  0.49699123  1
  Ca2+  Ca23  1  0.58331475  0.83646849  0.83378414  1
  Ca2+  Ca24  1  0.33500005  0.41548396  0.16722713  1
  Ca2+  Ca25  1  0.32936372  0.42756694  0.50688776  1
  Ca2+  Ca26  1  0.33443974  0.41963285  0.83741265  1
  Ca2+  Ca27  1  0.33307551  0.91278691  0.15893026  1
  Ca2+  Ca28  1  0.32349037  0.91442371  0.50982249  1
  Ca2+  Ca29  1  0.32262365  0.91733619  0.84562048  1
  Ca2+  Ca30  1  0.82450146  0.42030887  0.16482269  1
  Ca2+  Ca31  1  0.82705445  0.42530361  0.50454668  1
  Ca2+  Ca32  1  0.83430194  0.42694153  0.84301017  1
  Ca2+  Ca33  1  0.83475521  0.91528698  0.16709847  1
  Ca2+  Ca34  1  0.83108604  0.91559659  0.50139424  1
  Ca2+  Ca35  1  0.82283813  0.91431044  0.84132950  1
  Ca2+  Ca36  1  0.42224397  0.17322272  0.15096324  1
  Ca2+  Ca37  1  0.42486605  0.16607194  0.50018248  1
  Ca2+  Ca38  1  0.42415438  0.16311214  0.83636792  1
  Ca2+  Ca39  1  0.43054054  0.67037615  0.15800562  1
  Ca2+  Ca40  1  0.42031723  0.66633180  0.49506100  1
  Ca2+  Ca41  1  0.42172648  0.66843044  0.83457558  1
  Ca2+  Ca42  1  0.90921061  0.17256913  0.16086335  1
  Ca2+  Ca43  1  0.92042397  0.16025974  0.49694489  1
  Ca2+  Ca44  1  0.91569422  0.17571226  0.83060184  1
  Ca2+  Ca45  1  0.92165670  0.67448864  0.15598419  1
  Ca2+  Ca46  1  0.92315549  0.67144576  0.49462208  1
  Ca2+  Ca47  1  0.92137564  0.66623566  0.83181070  1
  Al0+  Al48  1  0.00034004  -0.00203883  0.00236682  1
  Al0+  Al49  1  0.00168790  -0.00021415  0.33410868  1
  Al0+  Al50  1  -0.00208927  0.00091404  0.66734896  1
  Al0+  Al51  1  0.00088748  0.49969588  -0.00297517  1
  Al0+  Al52  1  0.00053772  0.49666785  0.33252512  1
  Al0+  Al53  1  0.00046499  0.49981587  0.66427758  1
  Al0+  Al54  1  0.49927604  -0.00013273  0.00350473  1
  Al0+  Al55  1  0.49985812  0.00141272  0.33480826  1
  Al0+  Al56  1  0.49932191  0.00088059  0.66207009  1
  Al0+  Al57  1  0.49971916  0.49914529  -0.00494767  1
  Al0+  Al58  1  0.49818899  0.49872637  0.33565707  1
  Al0+  Al59  1  0.49886560  0.49996029  0.67022650  1
  Al0+  Al60  1  0.25116178  0.25054800  0.00019806  1
  Al0+  Al61  1  0.25056966  0.24990134  0.33617254  1
  Al0+  Al62  1  0.25053413  0.25185190  0.66069975  1
  Al0+  Al63  1  0.25113299  0.74977060  0.00137067  1
  Al0+  Al64  1  0.25061297  0.75070449  0.33086549  1
  Al0+  Al65  1  0.24998578  0.75096008  0.67132715  1
  Al0+  Al66  1  0.75049505  0.25104007  -0.00745434  1
  Al0+  Al67  1  0.75049406  0.24900449  0.34335489  1
  Al0+  Al68  1  0.74869495  0.25030574  0.66020148  1
  Al0+  Al69  1  0.75274264  0.75028904  0.00165816  1
  Al0+  Al70  1  0.74994417  0.74918554  0.32691936  1
  Al0+  Al71  1  0.74949985  0.75000790  0.67293753  1
  Al0+  Al72  1  0.82161354  0.57005387  0.67933460  1
  Al0+  Al73  1  0.56948181  0.67775108  0.32178926  1
  Al0+  Al74  1  0.92937652  0.82208066  0.31846563  1
  Al0+  Al75  1  0.67890134  0.92922345  0.01411858  1
  Al0+  Al76  1  0.43068129  0.82076973  0.98468997  1
  Al0+  Al77  1  0.06992208  0.17858445  0.65411571  1
  Al0+  Al78  1  0.57207425  0.17842177  0.98666557  1
  Al0+  Al79  1  0.67890354  0.42913055  0.01236883  1
  Al0+  Al80  1  0.82085836  0.06957525  0.34693222  1
  Al0+  Al81  1  0.92844124  0.82342259  0.98240931  1
  Al0+  Al82  1  0.07249612  0.67666850  0.31855126  1
  Al0+  Al83  1  0.67801685  0.43001401  0.34809521  1
  Al0+  Al84  1  0.82383747  0.57147880  0.01703949  1
  Al0+  Al85  1  0.92868597  0.32050840  0.98724669  1
  Al0+  Al86  1  0.17744523  0.93025879  0.68033609  1
  Al0+  Al87  1  0.67876948  0.93057528  0.67945057  1
  Al0+  Al88  1  0.07073820  0.67918409  0.98359001  1
  Al0+  Al89  1  0.17732512  0.92635873  0.01873687  1
  Al0+  Al90  1  0.57336455  0.67806799  0.98319632  1
  Al0+  Al91  1  0.32063889  0.07155557  0.01510486  1
  Al0+  Al92  1  0.32055515  0.57163617  0.68158098  1
  Al0+  Al93  1  0.07115293  0.68129170  0.65292354  1
  Al0+  Al94  1  0.56973164  0.17850078  0.64947950  1
  Al0+  Al95  1  0.42657060  0.32249160  0.98423111  1
  Si0+  Si96  1  0.18196736  0.93042726  0.34958176  1
  Si0+  Si97  1  0.82299581  0.57243595  0.34936269  1
  Si0+  Si98  1  0.92473500  0.82180879  0.65018919  1
  Si0+  Si99  1  0.42849440  0.32475742  0.64632871  1
  Si0+  Si100  1  0.57166809  0.67855926  0.65268173  1
  Si0+  Si101  1  0.32164733  0.07430068  0.35116733  1
  Si0+  Si102  1  0.92778743  0.32262142  0.64651379  1
  Si0+  Si103  1  0.82143873  0.07392743  0.68390784  1
  Si0+  Si104  1  0.17841755  0.42687991  0.68312872  1
  Si0+  Si105  1  0.07261425  0.17791925  0.98631339  1
  Si0+  Si106  1  0.42922486  0.82015400  0.65196056  1
  Si0+  Si107  1  0.92816409  0.31857137  0.31960622  1
  Si0+  Si108  1  0.32139454  0.07354257  0.68140000  1
  Si0+  Si109  1  0.07279664  0.17924464  0.31831898  1
  Si0+  Si110  1  0.67768876  0.42687562  0.68389387  1
  Si0+  Si111  1  0.31843904  0.56978510  0.34677210  1
  Si0+  Si112  1  0.17740365  0.42594221  0.34908164  1
  Si0+  Si113  1  0.82252168  0.07298877  0.01369943  1
  Si0+  Si114  1  0.42780698  0.82409099  0.31793622  1
  Si0+  Si115  1  0.67664711  0.92608239  0.34939798  1
  Si0+  Si116  1  0.42871777  0.31903701  0.31986345  1
  Si0+  Si117  1  0.57225061  0.18013014  0.31918090  1
  Si0+  Si118  1  0.32152281  0.57048534  0.01636264  1
  Si0+  Si119  1  0.17940834  0.42836779  0.01444647  1
  O2-  O120  1  0.24977631  -0.00044440  0.06749210  1
  O2-  O121  1  0.25392268  0.00034108  0.39341610  1
  O2-  O122  1  0.24879466  0.00942793  0.72447558  1
  O2-  O123  1  0.25018089  0.49906046  0.05817627  1
  O2-  O124  1  0.24279573  0.50328457  0.38953970  1
  O2-  O125  1  0.24446670  0.49762858  0.72716821  1
  O2-  O126  1  0.75527248  0.00359567  0.05890464  1
  O2-  O127  1  0.74740689  -0.00694867  0.39323053  1
  O2-  O128  1  0.75195120  0.00644049  0.72688401  1
  O2-  O129  1  0.74724698  0.50281015  0.06543357  1
  O2-  O130  1  0.75090150  0.50708142  0.39434946  1
  O2-  O131  1  0.74746689  0.49456426  0.72561913  1
  O2-  O132  1  0.00029662  0.24854032  0.27658941  1
  O2-  O133  1  -0.00521026  0.25122097  0.60304153  1
  O2-  O134  1  0.00166527  0.24353132  0.94176428  1
  O2-  O135  1  -0.00272329  0.74526505  0.27012488  1
  O2-  O136  1  -0.00419038  0.75513560  0.60583621  1
  O2-  O137  1  -0.00021591  0.75100348  0.93263935  1
  O2-  O138  1  0.49978257  0.24920076  0.27709685  1
  O2-  O139  1  0.49748680  0.25616335  0.60199492  1
  O2-  O140  1  0.49940504  0.25043244  0.93692042  1
  O2-  O141  1  0.50022981  0.75833562  0.27677275  1
  O2-  O142  1  0.50015886  0.74898197  0.60914376  1
  O2-  O143  1  0.50399597  0.75216160  0.93201458  1
  O2-  O144  1  0.07315309  0.18210242  0.09259704  1
  O2-  O145  1  0.07393684  0.18090630  0.42360681  1
  O2-  O146  1  0.06930633  0.18197701  0.76668708  1
  O2-  O147  1  0.06921013  0.67888475  0.09746838  1
  O2-  O148  1  0.07490321  0.68019655  0.43256205  1
  O2-  O149  1  0.07236750  0.68244671  0.76474878  1
  O2-  O150  1  0.57280404  0.18058509  0.10112907  1
  O2-  O151  1  0.56925130  0.18033384  0.42444205  1
  O2-  O152  1  0.56717918  0.17727475  0.76156104  1
  O2-  O153  1  0.56851184  0.67661620  0.09737511  1
  O2-  O154  1  0.56641218  0.67797771  0.43592846  1
  O2-  O155  1  0.57119646  0.67862220  0.75682222  1
  O2-  O156  1  0.17993153  0.41879569  0.24461239  1
  O2-  O157  1  0.18082080  0.42599283  0.57675608  1
  O2-  O158  1  0.18021152  0.42630415  0.90958503  1
  O2-  O159  1  0.18317075  0.93200214  0.24534048  1
  O2-  O160  1  0.18086274  0.92969744  0.56605282  1
  O2-  O161  1  0.17777516  0.92937748  0.90501133  1
  O2-  O162  1  0.67814816  0.42689894  0.23590749  1
  O2-  O163  1  0.67781457  0.42924985  0.57738486  1
  O2-  O164  1  0.68304552  0.42797785  0.89890482  1
  O2-  O165  1  0.67263077  0.92901822  0.24459106  1
  O2-  O166  1  0.68031797  0.92951058  0.56560397  1
  O2-  O167  1  0.67812605  0.93284253  0.90089217  1
  O2-  O168  1  0.42570585  0.32109959  0.09883126  1
  O2-  O169  1  0.42742443  0.31778684  0.42498719  1
  O2-  O170  1  0.42652788  0.32593513  0.75088059  1
  O2-  O171  1  0.43188922  0.81608420  0.09898307  1
  O2-  O172  1  0.42437087  0.82248654  0.42417876  1
  O2-  O173  1  0.42957490  0.82142499  0.75612660  1
  O2-  O174  1  0.92964985  0.31827786  0.10118658  1
  O2-  O175  1  0.93116362  0.31870903  0.42471928  1
  O2-  O176  1  0.92860906  0.32242435  0.75180253  1
  O2-  O177  1  0.93099934  0.82410591  0.09614935  1
  O2-  O178  1  0.93181369  0.82261949  0.43284767  1
  O2-  O179  1  0.92318843  0.82121653  0.75491623  1
  O2-  O180  1  0.31990767  0.07980820  0.24716205  1
  O2-  O181  1  0.32116764  0.06986497  0.57467685  1
  O2-  O182  1  0.31671022  0.07252634  0.90133871  1
  O2-  O183  1  0.32048730  0.56660936  0.24213840  1
  O2-  O184  1  0.32059676  0.57055271  0.56728644  1
  O2-  O185  1  0.32024594  0.57051403  0.91135681  1
  O2-  O186  1  0.81714402  0.07498652  0.23442607  1
  O2-  O187  1  0.82143999  0.07202654  0.57779341  1
  O2-  O188  1  0.82313487  0.07377072  0.90823356  1
  O2-  O189  1  0.82495473  0.56860173  0.24468617  1
  O2-  O190  1  0.81867515  0.57008166  0.56528749  1
  O2-  O191  1  0.82568422  0.56724213  0.90319205  1
  O2-  O192  1  0.04821921  0.08686209  0.27243703  1
  O2-  O193  1  0.03943663  0.08222649  0.59749624  1
  O2-  O194  1  0.05056217  0.08333824  0.94308538  1
  O2-  O195  1  0.05272308  0.57398154  0.27061084  1
  O2-  O196  1  0.04490209  0.58229221  0.59969503  1
  O2-  O197  1  0.04635095  0.57975306  0.93135764  1
  O2-  O198  1  0.54669005  0.08665750  0.27413921  1
  O2-  O199  1  0.53576517  0.08376762  0.59165295  1
  O2-  O200  1  0.53992812  0.08135767  0.93456546  1
  O2-  O201  1  0.53207305  0.58298654  0.26853777  1
  O2-  O202  1  0.54337887  0.58601413  0.60589770  1
  O2-  O203  1  0.54165741  0.58152426  0.92955144  1
  O2-  O204  1  0.16421195  0.21023116  0.27201457  1
  O2-  O205  1  0.16619613  0.20975785  0.59669732  1
  O2-  O206  1  0.16384821  0.20741433  0.93909032  1
  O2-  O207  1  0.17055887  0.70731906  0.26614952  1
  O2-  O208  1  0.16871159  0.71361119  0.59962346  1
  O2-  O209  1  0.17072912  0.70649505  0.93488309  1
  O2-  O210  1  0.66452277  0.20974427  0.27579817  1
  O2-  O211  1  0.66698010  0.20741756  0.59411206  1
  O2-  O212  1  0.66806423  0.20606444  0.92924593  1
  O2-  O213  1  0.66701551  0.70070354  0.26774954  1
  O2-  O214  1  0.66281292  0.70860020  0.60469961  1
  O2-  O215  1  0.67296937  0.70383182  0.93441809  1
  O2-  O216  1  0.08832353  0.45589175  0.06326993  1
  O2-  O217  1  0.08392168  0.44611001  0.39679227  1
  O2-  O218  1  0.08309388  0.44763057  0.72579800  1
  O2-  O219  1  0.08001855  0.95739573  0.07286383  1
  O2-  O220  1  0.09101836  0.95972301  0.39754715  1
  O2-  O221  1  0.07970514  0.95821263  0.73230550  1
  O2-  O222  1  0.57806108  0.45294011  0.06345412  1
  O2-  O223  1  0.58034274  0.45840823  0.40329593  1
  O2-  O224  1  0.58351153  0.45040336  0.72767342  1
  O2-  O225  1  0.58380242  0.96003280  0.07069793  1
  O2-  O226  1  0.58325264  0.95339456  0.39727896  1
  O2-  O227  1  0.58078444  0.96184956  0.72973432  1
  O2-  O228  1  0.20667966  0.33749425  0.06476040  1
  O2-  O229  1  0.21185215  0.33739436  0.40081656  1
  O2-  O230  1  0.20716533  0.33387511  0.72870368  1
  O2-  O231  1  0.21040430  0.82940751  0.07240165  1
  O2-  O232  1  0.21055869  0.83789432  0.39659141  1
  O2-  O233  1  0.21296151  0.83683109  0.73494114  1
  O2-  O234  1  0.71123987  0.33054590  0.06432073  1
  O2-  O235  1  0.71212368  0.33589261  0.40597587  1
  O2-  O236  1  0.70224947  0.33148664  0.72549348  1
  O2-  O237  1  0.70898220  0.83315835  0.06856681  1
  O2-  O238  1  0.70088003  0.83122108  0.39431602  1
  O2-  O239  1  0.70709610  0.83472007  0.73442935  1
  O2-  O240  1  0.45311673  0.41188426  0.27413407  1
  O2-  O241  1  0.45550506  0.41851275  0.59931309  1
  O2-  O242  1  0.45202505  0.41984400  0.92964420  1
  O2-  O243  1  0.44863645  0.91985501  0.27434861  1
  O2-  O244  1  0.45542026  0.91120007  0.60121763  1
  O2-  O245  1  0.45357737  0.92089681  0.93478012  1
  O2-  O246  1  0.95492732  0.40996435  0.27164914  1
  O2-  O247  1  0.95702238  0.41418086  0.59795355  1
  O2-  O248  1  0.96470490  0.41339515  0.93110204  1
  O2-  O249  1  0.96194170  0.91977596  0.26634194  1
  O2-  O250  1  0.94737904  0.91715872  0.60598769  1
  O2-  O251  1  0.95583711  0.92286348  0.93068402  1
  O2-  O252  1  0.33648151  0.29090478  0.27294522  1
  O2-  O253  1  0.33516128  0.29975013  0.59783321  1
  O2-  O254  1  0.32851526  0.29391416  0.93037895  1
  O2-  O255  1  0.33624775  0.79552743  0.27040447  1
  O2-  O256  1  0.33828743  0.79001506  0.60343085  1
  O2-  O257  1  0.33274181  0.78998929  0.93342810  1
  O2-  O258  1  0.83651343  0.28719602  0.27494188  1
  O2-  O259  1  0.83371233  0.29937345  0.60000254  1
  O2-  O260  1  0.83562462  0.29065704  0.92749804  1
  O2-  O261  1  0.82921257  0.80098358  0.26701045  1
  O2-  O262  1  0.83209261  0.79253179  0.60280644  1
  O2-  O263  1  0.82978907  0.79624409  0.93139429  1
  O2-  O264  1  0.41788173  0.04431804  0.07101403  1
  O2-  O265  1  0.41519828  0.04904965  0.39754646  1
  O2-  O266  1  0.41391514  0.04428491  0.72531398  1
  O2-  O267  1  0.41276687  0.54090408  0.06367832  1
  O2-  O268  1  0.40718091  0.53730409  0.39814047  1
  O2-  O269  1  0.41647058  0.54013261  0.73577675  1
  O2-  O270  1  0.91610645  0.05062983  0.06184998  1
  O2-  O271  1  0.91939186  0.04177009  0.40086969  1
  O2-  O272  1  0.91514454  0.05123436  0.72973097  1
  O2-  O273  1  0.92100991  0.53652364  0.06925730  1
  O2-  O274  1  0.91579747  0.54193803  0.39643220  1
  O2-  O275  1  0.91867046  0.53875680  0.73135551  1
  O2-  O276  1  0.29100423  0.17017128  0.06950390  1
  O2-  O277  1  0.29116629  0.16433945  0.40189397  1
  O2-  O278  1  0.30133640  0.17013699  0.72195995  1
  O2-  O279  1  0.29386659  0.66093558  0.06601733  1
  O2-  O280  1  0.29569283  0.66368137  0.39364816  1
  O2-  O281  1  0.29123886  0.66719924  0.73621375  1
  O2-  O282  1  0.79495969  0.16646588  0.05913311  1
  O2-  O283  1  0.78962168  0.16333450  0.40698884  1
  O2-  O284  1  0.79691189  0.16964244  0.72558088  1
  O2-  O285  1  0.79931136  0.67055293  0.06859614  1
  O2-  O286  1  0.79960197  0.66762188  0.39355749  1
  O2-  O287  1  0.79062842  0.66504403  0.73433993  1
