# generated using pymatgen
data_Ca2Al2SiO7
_symmetry_space_group_name_H-M   'P 1'
_cell_length_a   15.45628530
_cell_length_b   15.45618634
_cell_length_c   15.28274770
_cell_angle_alpha   90.00796832
_cell_angle_beta   90.00763992
_cell_angle_gamma   90.00686686
_symmetry_Int_Tables_number   1
_chemical_formula_structural   Ca2Al2SiO7
_chemical_formula_sum   'Ca48 Al48 Si24 O168'
_cell_volume   3650.97536606
_cell_formula_units_Z   24
loop_
 _symmetry_equiv_pos_site_id
 _symmetry_equiv_pos_as_xyz
  1  'x, y, z'
loop_
 _atom_type_symbol
 _atom_type_oxidation_number
  Ca2+  2.0
  Al0+  0.0
  Si0+  0.0
  O2-  -2.0
loop_
 _atom_site_type_symbol
 _atom_site_label
 _atom_site_symmetry_multiplicity
 _atom_site_fract_x
 _atom_site_fract_y
 _atom_site_fract_z
 _atom_site_occupancy
  Ca2+  Ca0  1  0.16235457  0.07215684  0.17223096  1
  Ca2+  Ca1  1  0.16320701  0.07984343  0.50923036  1
  Ca2+  Ca2  1  0.17026840  0.07700930  0.83364872  1
  Ca2+  Ca3  1  0.17526678  0.58552401  0.16370728  1
  Ca2+  Ca4  1  0.17278704  0.57659486  0.50504808  1
  Ca2+  Ca5  1  0.16729834  0.57077638  0.84209430  1
  Ca2+  Ca6  1  0.67066641  0.08360440  0.16763362  1
  Ca2+  Ca7  1  0.66524826  0.07686408  0.50157139  1
  Ca2+  Ca8  1  0.67368979  0.09133935  0.84197034  1
  Ca2+  Ca9  1  0.66296141  0.56957231  0.17188785  1
  Ca2+  Ca10  1  0.67302964  0.57465296  0.51116086  1
  Ca2+  Ca11  1  0.66483849  0.57586844  0.83146062  1
  Ca2+  Ca12  1  0.07889111  0.33209698  0.16317631  1
  Ca2+  Ca13  1  0.07849187  0.32748599  0.49581326  1
  Ca2+  Ca14  1  0.08237699  0.33118710  0.81878523  1
  Ca2+  Ca15  1  0.09182037  0.82975708  0.15845673  1
  Ca2+  Ca16  1  0.08651896  0.83776111  0.49712216  1
  Ca2+  Ca17  1  0.09239403  0.82881737  0.83212393  1
  Ca2+  Ca18  1  0.58762646  0.33199693  0.15985763  1
  Ca2+  Ca19  1  0.58011283  0.34218924  0.49988262  1
  Ca2+  Ca20  1  0.58090144  0.33516451  0.82919556  1
  Ca2+  Ca21  1  0.57612730  0.83312154  0.15799372  1
  Ca2+  Ca22  1  0.58014298  0.82838940  0.49755830  1
  Ca2+  Ca23  1  0.56821815  0.82741480  0.82279032  1
  Ca2+  Ca24  1  0.33114701  0.42969572  0.16890017  1
  Ca2+  Ca25  1  0.33147606  0.41956153  0.50899524  1
  Ca2+  Ca26  1  0.32325705  0.41507306  0.83727904  1
  Ca2+  Ca27  1  0.32450719  0.91118554  0.16821521  1
  Ca2+  Ca28  1  0.32291398  0.92492185  0.50993236  1
  Ca2+  Ca29  1  0.32992890  0.91433891  0.83379589  1
  Ca2+  Ca30  1  0.82351062  0.41079469  0.17095530  1
  Ca2+  Ca31  1  0.82843183  0.41287913  0.50783353  1
  Ca2+  Ca32  1  0.82631411  0.41598914  0.83368843  1
  Ca2+  Ca33  1  0.82935099  0.92535373  0.17150355  1
  Ca2+  Ca34  1  0.82661222  0.91494677  0.50324145  1
  Ca2+  Ca35  1  0.83148953  0.92671158  0.83919717  1
  Ca2+  Ca36  1  0.42677091  0.16815634  0.15977078  1
  Ca2+  Ca37  1  0.40803149  0.17398577  0.50317975  1
  Ca2+  Ca38  1  0.42185785  0.16905968  0.82473593  1
  Ca2+  Ca39  1  0.40964571  0.66944385  0.15852598  1
  Ca2+  Ca40  1  0.41829357  0.66706473  0.49995225  1
  Ca2+  Ca41  1  0.41365025  0.67436992  0.82823025  1
  Ca2+  Ca42  1  0.91799881  0.16900901  0.16639058  1
  Ca2+  Ca43  1  0.92749906  0.17694789  0.49633278  1
  Ca2+  Ca44  1  0.92219652  0.17237326  0.82529803  1
  Ca2+  Ca45  1  0.92558038  0.67075480  0.15952532  1
  Ca2+  Ca46  1  0.91662299  0.66319089  0.49941070  1
  Ca2+  Ca47  1  0.92163766  0.66234582  0.82894015  1
  Al0+  Al48  1  -0.00077467  0.00167555  0.00835769  1
  Al0+  Al49  1  -0.00136156  0.00022962  0.33377169  1
  Al0+  Al50  1  -0.00099250  -0.00225630  0.66716653  1
  Al0+  Al51  1  -0.00132254  0.50017526  0.00035594  1
  Al0+  Al52  1  0.00054800  0.50094311  0.32566327  1
  Al0+  Al53  1  -0.00113561  0.50105461  0.66807488  1
  Al0+  Al54  1  0.50078113  0.00062562  -0.01004107  1
  Al0+  Al55  1  0.49880906  -0.00016876  0.33623213  1
  Al0+  Al56  1  0.49827497  -0.00114269  0.66466850  1
  Al0+  Al57  1  0.50008006  0.49992316  0.00712309  1
  Al0+  Al58  1  0.50073368  0.50172473  0.34016990  1
  Al0+  Al59  1  0.50173526  0.50021737  0.66322984  1
  Al0+  Al60  1  0.24955050  0.24873746  0.00563046  1
  Al0+  Al61  1  0.25087030  0.25025474  0.32400343  1
  Al0+  Al62  1  0.25253925  0.24756358  0.66648332  1
  Al0+  Al63  1  0.24919390  0.74970138  -0.00308430  1
  Al0+  Al64  1  0.25102648  0.75128059  0.34281198  1
  Al0+  Al65  1  0.24943470  0.75088094  0.66311029  1
  Al0+  Al66  1  0.75139774  0.24951314  0.00428465  1
  Al0+  Al67  1  0.74995870  0.24953671  0.33561795  1
  Al0+  Al68  1  0.74989106  0.24922435  0.66537476  1
  Al0+  Al69  1  0.75005011  0.75045226  -0.00123542  1
  Al0+  Al70  1  0.74930736  0.74903437  0.33340588  1
  Al0+  Al71  1  0.75083843  0.74876912  0.66833532  1
  Al0+  Al72  1  0.68111395  0.43123543  0.01413513  1
  Al0+  Al73  1  0.17882789  0.93135138  0.34756497  1
  Al0+  Al74  1  0.18240207  0.93131538  0.01348301  1
  Al0+  Al75  1  0.82058230  0.07089815  0.01468534  1
  Al0+  Al76  1  0.17687311  0.92839872  0.68359914  1
  Al0+  Al77  1  0.32216468  0.07146727  0.68271021  1
  Al0+  Al78  1  0.17518843  0.42509439  0.01610935  1
  Al0+  Al79  1  0.92861432  0.32284393  0.65265680  1
  Al0+  Al80  1  0.57184319  0.67946474  0.65043173  1
  Al0+  Al81  1  0.43031371  0.32032137  0.65494963  1
  Al0+  Al82  1  0.06914762  0.68021563  0.98578385  1
  Al0+  Al83  1  0.68100279  0.42809522  0.34914469  1
  Al0+  Al84  1  0.42908172  0.81951544  0.98621401  1
  Al0+  Al85  1  0.31915638  0.57031777  0.01207098  1
  Al0+  Al86  1  0.07222725  0.17752512  0.31530054  1
  Al0+  Al87  1  0.67761343  0.92786787  0.34584373  1
  Al0+  Al88  1  0.57186117  0.18158865  0.98710315  1
  Al0+  Al89  1  0.07170286  0.17758754  0.65405360  1
  Al0+  Al90  1  0.92820424  0.32167160  0.31583952  1
  Al0+  Al91  1  0.18003417  0.42882711  0.67608978  1
  Al0+  Al92  1  0.82197539  0.57220229  0.68285815  1
  Al0+  Al93  1  0.42649083  0.82163183  0.64654389  1
  Al0+  Al94  1  0.31984132  0.57081429  0.34966779  1
  Al0+  Al95  1  0.67822265  0.42719894  0.68301456  1
  Si0+  Si96  1  0.92659178  0.82062089  0.31835904  1
  Si0+  Si97  1  0.42755676  0.32322497  0.98607985  1
  Si0+  Si98  1  0.57385962  0.67527796  0.98475687  1
  Si0+  Si99  1  0.82293985  0.57502512  0.01833622  1
  Si0+  Si100  1  0.32294828  0.07420811  0.34793403  1
  Si0+  Si101  1  0.67817570  0.92768137  0.68175560  1
  Si0+  Si102  1  0.81900084  0.06919516  0.67994736  1
  Si0+  Si103  1  0.07148060  0.17730229  0.98563976  1
  Si0+  Si104  1  0.92867444  0.82116390  0.65209201  1
  Si0+  Si105  1  0.43025430  0.32448825  0.31698535  1
  Si0+  Si106  1  0.67642816  0.92770187  0.01332478  1
  Si0+  Si107  1  0.82079876  0.07091757  0.35311986  1
  Si0+  Si108  1  0.57400251  0.17678918  0.64871509  1
  Si0+  Si109  1  0.56959981  0.17788251  0.31963172  1
  Si0+  Si110  1  0.82383354  0.57211327  0.34748348  1
  Si0+  Si111  1  0.42983183  0.82013412  0.31839158  1
  Si0+  Si112  1  0.57123179  0.67910763  0.31698282  1
  Si0+  Si113  1  0.17772890  0.42725040  0.34814102  1
  Si0+  Si114  1  0.07070197  0.67845616  0.65086611  1
  Si0+  Si115  1  0.32237105  0.57181005  0.68226778  1
  Si0+  Si116  1  0.92972114  0.31955385  0.98483568  1
  Si0+  Si117  1  0.32601000  0.07277772  0.01720199  1
  Si0+  Si118  1  0.07316781  0.68171719  0.31891979  1
  Si0+  Si119  1  0.92699100  0.82468993  0.98433770  1
  O2-  O120  1  0.25668317  0.00537759  0.06242567  1
  O2-  O121  1  0.24816408  0.01187928  0.39101473  1
  O2-  O122  1  0.25079329  -0.00129307  0.73243711  1
  O2-  O123  1  0.24891863  0.49698974  0.06376860  1
  O2-  O124  1  0.24727520  0.49344390  0.39440652  1
  O2-  O125  1  0.25443623  0.50246974  0.72547637  1
  O2-  O126  1  0.74619388  -0.00587460  0.05926783  1
  O2-  O127  1  0.75245396  0.00074767  0.39579988  1
  O2-  O128  1  0.74469180  0.00251125  0.72416186  1
  O2-  O129  1  0.75229463  0.50883486  0.06269884  1
  O2-  O130  1  0.75952727  0.50025443  0.39209602  1
  O2-  O131  1  0.75096092  0.49902578  0.73201728  1
  O2-  O132  1  0.00148413  0.25105073  0.26490368  1
  O2-  O133  1  0.00358909  0.25326122  0.60405832  1
  O2-  O134  1  0.00730191  0.25482781  0.94374833  1
  O2-  O135  1  0.00087141  0.75256737  0.27710712  1
  O2-  O136  1  0.00030280  0.75096239  0.60938369  1
  O2-  O137  1  -0.00738124  0.75397063  0.93915890  1
  O2-  O138  1  0.50120127  0.25168625  0.27688814  1
  O2-  O139  1  0.50580145  0.24651260  0.60564161  1
  O2-  O140  1  0.49448847  0.25318878  0.94140515  1
  O2-  O141  1  0.50082157  0.75020279  0.27377360  1
  O2-  O142  1  0.49946305  0.74983365  0.59742466  1
  O2-  O143  1  0.50646193  0.74577471  0.94209463  1
  O2-  O144  1  0.06767019  0.17500744  0.09062877  1
  O2-  O145  1  0.07068562  0.17762937  0.42863509  1
  O2-  O146  1  0.06772329  0.17658678  0.76820666  1
  O2-  O147  1  0.06937918  0.68407583  0.09968588  1
  O2-  O148  1  0.07134386  0.68075866  0.42409878  1
  O2-  O149  1  0.07034389  0.67840437  0.75583549  1
  O2-  O150  1  0.57147609  0.18156362  0.10101794  1
  O2-  O151  1  0.56791883  0.17527693  0.42432834  1
  O2-  O152  1  0.57564184  0.17716665  0.75439017  1
  O2-  O153  1  0.57477414  0.67700001  0.09093783  1
  O2-  O154  1  0.57262938  0.68066547  0.42139391  1
  O2-  O155  1  0.57095715  0.68244315  0.76435693  1
  O2-  O156  1  0.17917970  0.43009893  0.24260794  1
  O2-  O157  1  0.18060749  0.43199535  0.56261409  1
  O2-  O158  1  0.17537405  0.42453434  0.90228818  1
  O2-  O159  1  0.18270202  0.92689702  0.23428524  1
  O2-  O160  1  0.17532017  0.93089372  0.56979879  1
  O2-  O161  1  0.18144291  0.93193385  0.90124521  1
  O2-  O162  1  0.67955885  0.42921391  0.23562424  1
  O2-  O163  1  0.68035382  0.42841143  0.56934346  1
  O2-  O164  1  0.68145026  0.43025338  0.90184072  1
  O2-  O165  1  0.67828518  0.92974597  0.23260297  1
  O2-  O166  1  0.68157562  0.92765958  0.57618281  1
  O2-  O167  1  0.67873713  0.92846618  0.90786956  1
  O2-  O168  1  0.43078454  0.32258961  0.09223517  1
  O2-  O169  1  0.42883579  0.32415752  0.42192931  1
  O2-  O170  1  0.43055402  0.31956024  0.76806068  1
  O2-  O171  1  0.43015458  0.81914428  0.10037918  1
  O2-  O172  1  0.43193182  0.81930818  0.42266460  1
  O2-  O173  1  0.42736975  0.81953757  0.76038452  1
  O2-  O174  1  0.92765844  0.31649585  0.09003182  1
  O2-  O175  1  0.92882379  0.32089556  0.42897335  1
  O2-  O176  1  0.92775215  0.31902263  0.76682659  1
  O2-  O177  1  0.92643566  0.82322603  0.09032158  1
  O2-  O178  1  0.92420561  0.81881795  0.42354936  1
  O2-  O179  1  0.92732042  0.82339538  0.75698387  1
  O2-  O180  1  0.32874374  0.06983708  0.24234715  1
  O2-  O181  1  0.32075932  0.07162573  0.56861246  1
  O2-  O182  1  0.32519189  0.07404973  0.91221576  1
  O2-  O183  1  0.31870602  0.57289317  0.23664253  1
  O2-  O184  1  0.31952632  0.57032917  0.57616917  1
  O2-  O185  1  0.31815618  0.56891003  0.89882939  1
  O2-  O186  1  0.81919508  0.06999120  0.24722544  1
  O2-  O187  1  0.81809865  0.06537349  0.57489157  1
  O2-  O188  1  0.82023228  0.07089407  0.90116776  1
  O2-  O189  1  0.82055959  0.57573104  0.24192323  1
  O2-  O190  1  0.82155522  0.57434751  0.56888679  1
  O2-  O191  1  0.82375039  0.57445302  0.91326811  1
  O2-  O192  1  0.03927997  0.07880598  0.26347117  1
  O2-  O193  1  0.03693671  0.08059417  0.60093023  1
  O2-  O194  1  0.03671180  0.08728966  0.93929511  1
  O2-  O195  1  0.04791909  0.59060405  0.26879790  1
  O2-  O196  1  0.04076363  0.58853326  0.60110564  1
  O2-  O197  1  0.03882603  0.58269674  0.93260735  1
  O2-  O198  1  0.53928543  0.08701774  0.27027775  1
  O2-  O199  1  0.54857420  0.08287076  0.60319506  1
  O2-  O200  1  0.54673590  0.08514849  0.93009642  1
  O2-  O201  1  0.54147701  0.58686270  0.27125222  1
  O2-  O202  1  0.54601941  0.58111800  0.59656071  1
  O2-  O203  1  0.54689780  0.58163975  0.94051674  1
  O2-  O204  1  0.17176128  0.20070323  0.26072291  1
  O2-  O205  1  0.17099937  0.20088305  0.60205988  1
  O2-  O206  1  0.16714432  0.19703881  0.94273643  1
  O2-  O207  1  0.16467305  0.71384313  0.27349199  1
  O2-  O208  1  0.16178944  0.70500785  0.60155740  1
  O2-  O209  1  0.16363521  0.71241017  0.93024654  1
  O2-  O210  1  0.66274640  0.20288078  0.27368028  1
  O2-  O211  1  0.66743222  0.19968304  0.60118155  1
  O2-  O212  1  0.66840861  0.21419165  0.93417526  1
  O2-  O213  1  0.66328001  0.70587923  0.26859780  1
  O2-  O214  1  0.67057693  0.71056361  0.59827695  1
  O2-  O215  1  0.66845735  0.69813012  0.93897418  1
  O2-  O216  1  0.07735686  0.45631657  0.06861363  1
  O2-  O217  1  0.08358429  0.45558892  0.39130787  1
  O2-  O218  1  0.08433050  0.45997494  0.73063710  1
  O2-  O219  1  0.08557364  0.96003838  0.06897885  1
  O2-  O220  1  0.07904500  0.95465703  0.39878492  1
  O2-  O221  1  0.07752051  0.95464540  0.73611351  1
  O2-  O222  1  0.58453890  0.45813945  0.07117974  1
  O2-  O223  1  0.58594103  0.46230087  0.40277285  1
  O2-  O224  1  0.57967607  0.45766267  0.73473505  1
  O2-  O225  1  0.58320400  0.95573509  0.05867591  1
  O2-  O226  1  0.58245750  0.96017022  0.40164970  1
  O2-  O227  1  0.58454204  0.95080976  0.72605452  1
  O2-  O228  1  0.20131799  0.32672922  0.07078941  1
  O2-  O229  1  0.20220478  0.33151887  0.38947811  1
  O2-  O230  1  0.20975309  0.33263454  0.73005404  1
  O2-  O231  1  0.21409630  0.83459195  0.06669597  1
  O2-  O232  1  0.21255654  0.83771881  0.40450400  1
  O2-  O233  1  0.20527863  0.82815417  0.73267731  1
  O2-  O234  1  0.71589144  0.33630568  0.06919685  1
  O2-  O235  1  0.70621453  0.32992548  0.40205044  1
  O2-  O236  1  0.70516106  0.32724871  0.73401445  1
  O2-  O237  1  0.69864952  0.83291351  0.05961860  1
  O2-  O238  1  0.70952232  0.83155741  0.39999667  1
  O2-  O239  1  0.71050014  0.83860366  0.73029183  1
  O2-  O240  1  0.46129600  0.41616308  0.27105193  1
  O2-  O241  1  0.45907796  0.41625206  0.59808972  1
  O2-  O242  1  0.45487131  0.41657178  0.94132158  1
  O2-  O243  1  0.45694730  0.91275273  0.27149046  1
  O2-  O244  1  0.45593532  0.92042658  0.59480751  1
  O2-  O245  1  0.45829007  0.91515518  0.92966909  1
  O2-  O246  1  0.95296287  0.42114829  0.26128917  1
  O2-  O247  1  0.95339076  0.42233777  0.60044476  1
  O2-  O248  1  0.94876879  0.41443808  0.94064201  1
  O2-  O249  1  0.95000518  0.91392773  0.27241267  1
  O2-  O250  1  0.95521293  0.91173114  0.60126702  1
  O2-  O251  1  0.95437091  0.91871476  0.94054928  1
  O2-  O252  1  0.33916616  0.29953465  0.26663224  1
  O2-  O253  1  0.33563728  0.28825947  0.59703841  1
  O2-  O254  1  0.33211912  0.29924073  0.94313295  1
  O2-  O255  1  0.33716957  0.78977487  0.27372402  1
  O2-  O256  1  0.32799983  0.79328728  0.59353018  1
  O2-  O257  1  0.33470208  0.78627321  0.93080279  1
  O2-  O258  1  0.82928269  0.28867935  0.26449033  1
  O2-  O259  1  0.83159649  0.28973253  0.59924111  1
  O2-  O260  1  0.84058130  0.28411848  0.93777046  1
  O2-  O261  1  0.83628778  0.79058888  0.26812203  1
  O2-  O262  1  0.83760464  0.79260717  0.60315099  1
  O2-  O263  1  0.83185884  0.80351547  0.93826519  1
  O2-  O264  1  0.42065712  0.04561781  0.06096506  1
  O2-  O265  1  0.41320921  0.04378736  0.39772784  1
  O2-  O266  1  0.42194571  0.04377330  0.73440605  1
  O2-  O267  1  0.41721336  0.54546261  0.06913441  1
  O2-  O268  1  0.41637451  0.54173203  0.40373726  1
  O2-  O269  1  0.41708865  0.54932647  0.72526565  1
  O2-  O270  1  0.91406872  0.03927906  0.07394031  1
  O2-  O271  1  0.91368460  0.04388124  0.39860904  1
  O2-  O272  1  0.90841995  0.03684031  0.72892166  1
  O2-  O273  1  0.91553421  0.54810648  0.06531238  1
  O2-  O274  1  0.92019198  0.55192594  0.39034764  1
  O2-  O275  1  0.92021178  0.54571287  0.73656753  1
  O2-  O276  1  0.30349127  0.16629680  0.06504161  1
  O2-  O277  1  0.30334905  0.17137948  0.38902101  1
  O2-  O278  1  0.29620796  0.16922726  0.73737549  1
  O2-  O279  1  0.28657537  0.66712057  0.06675461  1
  O2-  O280  1  0.28708456  0.66496534  0.40639636  1
  O2-  O281  1  0.29523623  0.66580487  0.72520441  1
  O2-  O282  1  0.78623005  0.16419990  0.07219430  1
  O2-  O283  1  0.79289332  0.16314195  0.39923116  1
  O2-  O284  1  0.79435527  0.16141244  0.72758279  1
  O2-  O285  1  0.80146092  0.67086745  0.06317527  1
  O2-  O286  1  0.79562441  0.66449970  0.39500250  1
  O2-  O287  1  0.79449490  0.67076514  0.73727432  1
