# generated using pymatgen
data_Ca2Al2SiO7
_symmetry_space_group_name_H-M   'P 1'
_cell_length_a   15.45712959
_cell_length_b   15.45717420
_cell_length_c   15.28294425
_cell_angle_alpha   89.99279680
_cell_angle_beta   89.98621701
_cell_angle_gamma   90.00168257
_symmetry_Int_Tables_number   1
_chemical_formula_structural   Ca2Al2SiO7
_chemical_formula_sum   'Ca48 Al48 Si24 O168'
_cell_volume   3651.45507617
_cell_formula_units_Z   24
loop_
 _symmetry_equiv_pos_site_id
 _symmetry_equiv_pos_as_xyz
  1  'x, y, z'
loop_
 _atom_type_symbol
 _atom_type_oxidation_number
  Ca2+  2.0
  Al0+  0.0
  Si0+  0.0
  O2-  -2.0
loop_
 _atom_site_type_symbol
 _atom_site_label
 _atom_site_symmetry_multiplicity
 _atom_site_fract_x
 _atom_site_fract_y
 _atom_site_fract_z
 _atom_site_occupancy
  Ca2+  Ca0  1  0.17445514  0.07743992  0.17669955  1
  Ca2+  Ca1  1  0.17021637  0.07001264  0.50023880  1
  Ca2+  Ca2  1  0.16595531  0.07614775  0.83393644  1
  Ca2+  Ca3  1  0.18040254  0.58497769  0.17168696  1
  Ca2+  Ca4  1  0.17607718  0.58672548  0.50944794  1
  Ca2+  Ca5  1  0.17606484  0.58601941  0.83094760  1
  Ca2+  Ca6  1  0.67500031  0.08651918  0.17038095  1
  Ca2+  Ca7  1  0.67648925  0.07973054  0.50399399  1
  Ca2+  Ca8  1  0.67621155  0.08513209  0.84011309  1
  Ca2+  Ca9  1  0.66245655  0.58076430  0.17107573  1
  Ca2+  Ca10  1  0.67094822  0.59368371  0.49879038  1
  Ca2+  Ca11  1  0.65889666  0.57976408  0.84064058  1
  Ca2+  Ca12  1  0.07607758  0.33374682  0.16605019  1
  Ca2+  Ca13  1  0.07365754  0.33912259  0.49715584  1
  Ca2+  Ca14  1  0.07739537  0.33446364  0.82194148  1
  Ca2+  Ca15  1  0.07407567  0.84106571  0.16749292  1
  Ca2+  Ca16  1  0.08531048  0.83350749  0.49776437  1
  Ca2+  Ca17  1  0.08087601  0.82993689  0.82806912  1
  Ca2+  Ca18  1  0.58017743  0.32892517  0.15585459  1
  Ca2+  Ca19  1  0.58209766  0.33006035  0.49732320  1
  Ca2+  Ca20  1  0.58231463  0.33384020  0.83881569  1
  Ca2+  Ca21  1  0.58033641  0.82177933  0.16434310  1
  Ca2+  Ca22  1  0.57188196  0.82432508  0.49342568  1
  Ca2+  Ca23  1  0.57711830  0.81935617  0.82431616  1
  Ca2+  Ca24  1  0.34120848  0.42606452  0.16890661  1
  Ca2+  Ca25  1  0.32719322  0.43002431  0.50741218  1
  Ca2+  Ca26  1  0.33577408  0.42733947  0.83884506  1
  Ca2+  Ca27  1  0.32839007  0.91911044  0.18020172  1
  Ca2+  Ca28  1  0.32789347  0.90796404  0.50287807  1
  Ca2+  Ca29  1  0.32730236  0.90386143  0.83095421  1
  Ca2+  Ca30  1  0.82513671  0.42166286  0.17444151  1
  Ca2+  Ca31  1  0.83762929  0.41963853  0.50221417  1
  Ca2+  Ca32  1  0.82818329  0.41797092  0.83774902  1
  Ca2+  Ca33  1  0.83814154  0.92376359  0.17395752  1
  Ca2+  Ca34  1  0.84212703  0.92747958  0.50228099  1
  Ca2+  Ca35  1  0.83794148  0.92715686  0.84042909  1
  Ca2+  Ca36  1  0.41986817  0.17218937  0.15660175  1
  Ca2+  Ca37  1  0.41370398  0.16631240  0.49294048  1
  Ca2+  Ca38  1  0.42191245  0.17178139  0.83165520  1
  Ca2+  Ca39  1  0.42088922  0.66362451  0.16482058  1
  Ca2+  Ca40  1  0.41897887  0.66965979  0.49502426  1
  Ca2+  Ca41  1  0.42293805  0.66224629  0.82662246  1
  Ca2+  Ca42  1  0.91159034  0.16731045  0.16524980  1
  Ca2+  Ca43  1  0.91066686  0.17519997  0.49538410  1
  Ca2+  Ca44  1  0.91144944  0.17028138  0.82733627  1
  Ca2+  Ca45  1  0.90909483  0.68049941  0.16527180  1
  Ca2+  Ca46  1  0.92640921  0.66809728  0.48955629  1
  Ca2+  Ca47  1  0.92197126  0.67397463  0.82605710  1
  Al0+  Al48  1  -0.00030390  0.00124045  0.00040123  1
  Al0+  Al49  1  0.00173904  0.00146242  0.33825575  1
  Al0+  Al50  1  0.00248589  0.00305132  0.67575334  1
  Al0+  Al51  1  0.00130745  0.50096671  0.00024933  1
  Al0+  Al52  1  -0.00225168  0.49950959  0.32793539  1
  Al0+  Al53  1  -0.00092044  0.50078746  0.66304121  1
  Al0+  Al54  1  0.50058715  -0.00076254  -0.00522183  1
  Al0+  Al55  1  0.50195685  -0.00001367  0.33240753  1
  Al0+  Al56  1  0.50151310  -0.00018442  0.66377231  1
  Al0+  Al57  1  0.49978922  0.49933436  0.00155800  1
  Al0+  Al58  1  0.49967388  0.49685000  0.33653956  1
  Al0+  Al59  1  0.50241742  0.49785171  0.66466605  1
  Al0+  Al60  1  0.24754976  0.25044745  -0.00478832  1
  Al0+  Al61  1  0.24831852  0.24916730  0.33582077  1
  Al0+  Al62  1  0.24864952  0.24828083  0.66805978  1
  Al0+  Al63  1  0.24796214  0.74870286  0.00733204  1
  Al0+  Al64  1  0.25037730  0.74889225  0.33626834  1
  Al0+  Al65  1  0.24881538  0.74999091  0.66976212  1
  Al0+  Al66  1  0.75000509  0.25072492  0.00505962  1
  Al0+  Al67  1  0.74967002  0.25096808  0.33325482  1
  Al0+  Al68  1  0.75039816  0.25100116  0.66673011  1
  Al0+  Al69  1  0.74995422  0.75269436  -0.01094408  1
  Al0+  Al70  1  0.74999652  0.74868978  0.33006892  1
  Al0+  Al71  1  0.74966747  0.75258214  0.66380574  1
  Al0+  Al72  1  0.17637186  0.42850391  0.68084164  1
  Al0+  Al73  1  0.93028381  0.82227345  0.98520941  1
  Al0+  Al74  1  0.56908028  0.67962008  0.98637739  1
  Al0+  Al75  1  0.17997915  0.92863295  0.34883120  1
  Al0+  Al76  1  0.32456407  0.07241115  0.34629478  1
  Al0+  Al77  1  0.68112086  0.43182116  0.01383089  1
  Al0+  Al78  1  0.57276966  0.67511717  0.64910081  1
  Al0+  Al79  1  0.06837338  0.68044548  0.65374883  1
  Al0+  Al80  1  0.57319619  0.17760484  0.98469906  1
  Al0+  Al81  1  0.42728828  0.82098084  0.31690250  1
  Al0+  Al82  1  0.81978301  0.06940232  0.01614461  1
  Al0+  Al83  1  0.81995028  0.07099371  0.34813666  1
  Al0+  Al84  1  0.92775086  0.32143023  0.31683986  1
  Al0+  Al85  1  0.31983071  0.56886975  0.01510162  1
  Al0+  Al86  1  0.81901895  0.07076711  0.68154513  1
  Al0+  Al87  1  0.18121351  0.92964062  0.68304383  1
  Al0+  Al88  1  0.92916886  0.31935754  0.65341951  1
  Al0+  Al89  1  0.42864872  0.82021353  0.65177293  1
  Al0+  Al90  1  0.82024047  0.57194340  0.34540284  1
  Al0+  Al91  1  0.93109107  0.82221387  0.32220064  1
  Al0+  Al92  1  0.42794454  0.32098540  0.98463104  1
  Al0+  Al93  1  0.57019410  0.67699327  0.31641503  1
  Al0+  Al94  1  0.32146219  0.56865213  0.34853542  1
  Al0+  Al95  1  0.32203647  0.56966095  0.68275698  1
  Si0+  Si96  1  0.67823513  0.92608962  0.34975901  1
  Si0+  Si97  1  0.17578735  0.42752114  0.34843212  1
  Si0+  Si98  1  0.67681485  0.92805871  0.68421579  1
  Si0+  Si99  1  0.57203148  0.17900843  0.31963623  1
  Si0+  Si100  1  0.67678193  0.92593991  0.01558226  1
  Si0+  Si101  1  0.07336644  0.67803535  0.98392971  1
  Si0+  Si102  1  0.57145529  0.17992488  0.65102485  1
  Si0+  Si103  1  0.92934331  0.32167525  0.98588045  1
  Si0+  Si104  1  0.32148701  0.07276563  0.01178804  1
  Si0+  Si105  1  0.17535751  0.42496209  0.01750006  1
  Si0+  Si106  1  0.07108778  0.17911437  0.31667357  1
  Si0+  Si107  1  0.42755722  0.31846903  0.32060153  1
  Si0+  Si108  1  0.07341012  0.17604634  0.64876106  1
  Si0+  Si109  1  0.67864922  0.42786171  0.35198520  1
  Si0+  Si110  1  0.92915100  0.82575673  0.65101186  1
  Si0+  Si111  1  0.32551832  0.07306590  0.68523705  1
  Si0+  Si112  1  0.42780793  0.31964671  0.65085319  1
  Si0+  Si113  1  0.68065899  0.42856833  0.68187843  1
  Si0+  Si114  1  0.07287930  0.67644609  0.31522194  1
  Si0+  Si115  1  0.07023998  0.17919454  0.98422119  1
  Si0+  Si116  1  0.42455008  0.82236669  0.98478875  1
  Si0+  Si117  1  0.18004807  0.93028876  0.01612257  1
  Si0+  Si118  1  0.82449637  0.57519260  0.01388987  1
  Si0+  Si119  1  0.82122503  0.57319006  0.67986706  1
  O2-  O120  1  0.25550019  -0.00196767  0.05560219  1
  O2-  O121  1  0.25808120  -0.00405594  0.39668713  1
  O2-  O122  1  0.25885987  0.00246199  0.72974707  1
  O2-  O123  1  0.24521029  0.49240053  0.06091349  1
  O2-  O124  1  0.24278133  0.49684486  0.39293668  1
  O2-  O125  1  0.25118543  0.49578561  0.73291063  1
  O2-  O126  1  0.74396925  -0.00469405  0.06196394  1
  O2-  O127  1  0.74833441  -0.00638634  0.39492379  1
  O2-  O128  1  0.74790454  -0.00623444  0.72959370  1
  O2-  O129  1  0.75483428  0.50810559  0.05887139  1
  O2-  O130  1  0.74580368  0.49821284  0.39516398  1
  O2-  O131  1  0.74657742  0.50566694  0.72211579  1
  O2-  O132  1  0.00235601  0.24670245  0.27005624  1
  O2-  O133  1  0.00658362  0.24737026  0.60620567  1
  O2-  O134  1  0.00140219  0.25261960  0.94278193  1
  O2-  O135  1  0.00413619  0.74657303  0.27283068  1
  O2-  O136  1  -0.00676202  0.75421884  0.60592625  1
  O2-  O137  1  0.00177826  0.74394386  0.94003853  1
  O2-  O138  1  0.49469192  0.24369203  0.27887303  1
  O2-  O139  1  0.49584423  0.24569339  0.60790120  1
  O2-  O140  1  0.49873904  0.24728620  0.93446991  1
  O2-  O141  1  0.49742983  0.74797954  0.26580225  1
  O2-  O142  1  0.49905985  0.74662360  0.60209392  1
  O2-  O143  1  0.49419658  0.75486450  0.94101587  1
  O2-  O144  1  0.07126797  0.17841698  0.08922590  1
  O2-  O145  1  0.07128390  0.18076840  0.42185203  1
  O2-  O146  1  0.07177182  0.17538114  0.75492602  1
  O2-  O147  1  0.07528176  0.67915265  0.08933758  1
  O2-  O148  1  0.07090332  0.67438118  0.42086862  1
  O2-  O149  1  0.06590634  0.68164181  0.76734271  1
  O2-  O150  1  0.57169425  0.17950956  0.09861196  1
  O2-  O151  1  0.57463783  0.18302730  0.42511981  1
  O2-  O152  1  0.57269118  0.18254558  0.75582902  1
  O2-  O153  1  0.56909497  0.67946571  0.09906060  1
  O2-  O154  1  0.56987703  0.67874154  0.42955028  1
  O2-  O155  1  0.57198616  0.67473782  0.76305844  1
  O2-  O156  1  0.17796135  0.42629395  0.24254698  1
  O2-  O157  1  0.17789736  0.43050405  0.56711480  1
  O2-  O158  1  0.17207367  0.42449979  0.91245674  1
  O2-  O159  1  0.17768349  0.93414429  0.23447412  1
  O2-  O160  1  0.17880367  0.93203935  0.57073289  1
  O2-  O161  1  0.17971853  0.93028894  0.91102418  1
  O2-  O162  1  0.67882160  0.42570952  0.24639784  1
  O2-  O163  1  0.68199104  0.42255106  0.57708877  1
  O2-  O164  1  0.68366174  0.43129824  0.90016382  1
  O2-  O165  1  0.67832149  0.92872899  0.24396350  1
  O2-  O166  1  0.67635433  0.93125346  0.57872233  1
  O2-  O167  1  0.67926396  0.92719754  0.91003417  1
  O2-  O168  1  0.42863436  0.31821079  0.09881027  1
  O2-  O169  1  0.42947163  0.31834235  0.42603993  1
  O2-  O170  1  0.42993836  0.31974132  0.75572488  1
  O2-  O171  1  0.42416379  0.82380181  0.09003574  1
  O2-  O172  1  0.42843006  0.82009780  0.43006561  1
  O2-  O173  1  0.43141775  0.81942530  0.76607378  1
  O2-  O174  1  0.93079933  0.32094484  0.09084507  1
  O2-  O175  1  0.92795240  0.32042642  0.42988482  1
  O2-  O176  1  0.92704319  0.31747954  0.76713724  1
  O2-  O177  1  0.93231610  0.82446970  0.09844051  1
  O2-  O178  1  0.93347643  0.82210818  0.43521128  1
  O2-  O179  1  0.93102766  0.82436094  0.75695913  1
  O2-  O180  1  0.32099583  0.07594983  0.23205266  1
  O2-  O181  1  0.32453741  0.07578778  0.57999486  1
  O2-  O182  1  0.31802045  0.07454394  0.90683545  1
  O2-  O183  1  0.32243305  0.56534348  0.23512852  1
  O2-  O184  1  0.32114076  0.56810673  0.56921565  1
  O2-  O185  1  0.31869404  0.57012216  0.90240883  1
  O2-  O186  1  0.81790673  0.07141440  0.23500718  1
  O2-  O187  1  0.81703402  0.07176005  0.56844763  1
  O2-  O188  1  0.82067942  0.07017213  0.90297777  1
  O2-  O189  1  0.81909825  0.57036450  0.23214106  1
  O2-  O190  1  0.82230194  0.57108216  0.57486054  1
  O2-  O191  1  0.82705011  0.57115710  0.90797203  1
  O2-  O192  1  0.04511543  0.08596557  0.27034019  1
  O2-  O193  1  0.04389247  0.08340804  0.60381476  1
  O2-  O194  1  0.03977831  0.08885638  0.93569525  1
  O2-  O195  1  0.04750484  0.58376741  0.26714499  1
  O2-  O196  1  0.03791681  0.58525688  0.59743137  1
  O2-  O197  1  0.05152249  0.58295145  0.93852786  1
  O2-  O198  1  0.55366334  0.08540664  0.27267026  1
  O2-  O199  1  0.54974456  0.08688591  0.60355157  1
  O2-  O200  1  0.54834593  0.07882730  0.93008232  1
  O2-  O201  1  0.54214591  0.57588327  0.26789313  1
  O2-  O202  1  0.54992543  0.57481434  0.59745543  1
  O2-  O203  1  0.53769291  0.58308138  0.93349790  1
  O2-  O204  1  0.16460015  0.20572871  0.26886696  1
  O2-  O205  1  0.16847585  0.19677263  0.60349429  1
  O2-  O206  1  0.16157020  0.20353219  0.93393069  1
  O2-  O207  1  0.16653553  0.70212610  0.27031011  1
  O2-  O208  1  0.16491739  0.71157691  0.60148333  1
  O2-  O209  1  0.16547718  0.70866553  0.93752177  1
  O2-  O210  1  0.66029907  0.21390610  0.26991196  1
  O2-  O211  1  0.66040481  0.21452604  0.60228628  1
  O2-  O212  1  0.67071262  0.21197538  0.93281433  1
  O2-  O213  1  0.66881732  0.70488378  0.26332724  1
  O2-  O214  1  0.67168131  0.70651568  0.59775191  1
  O2-  O215  1  0.66534016  0.70723600  0.92909989  1
  O2-  O216  1  0.08211053  0.45211470  0.06517862  1
  O2-  O217  1  0.08064428  0.45115350  0.39123141  1
  O2-  O218  1  0.07806356  0.45916159  0.73363003  1
  O2-  O219  1  0.09028003  0.96463956  0.06299952  1
  O2-  O220  1  0.08519601  0.96347310  0.40480211  1
  O2-  O221  1  0.08724297  0.96430812  0.74130441  1
  O2-  O222  1  0.58433252  0.45942213  0.06841603  1
  O2-  O223  1  0.58461401  0.44920043  0.39884045  1
  O2-  O224  1  0.58748362  0.45101034  0.72889993  1
  O2-  O225  1  0.58135290  0.94885524  0.05983760  1
  O2-  O226  1  0.58616609  0.95487568  0.39721087  1
  O2-  O227  1  0.58429351  0.95648313  0.73113719  1
  O2-  O228  1  0.19844015  0.32998077  0.06274989  1
  O2-  O229  1  0.20033071  0.33410216  0.39526183  1
  O2-  O230  1  0.19851646  0.32676031  0.73083891  1
  O2-  O231  1  0.20208517  0.83804524  0.06480384  1
  O2-  O232  1  0.20191362  0.82879648  0.40046393  1
  O2-  O233  1  0.20934803  0.83362539  0.73982033  1
  O2-  O234  1  0.71265202  0.33660442  0.07003944  1
  O2-  O235  1  0.70744216  0.33563338  0.39943828  1
  O2-  O236  1  0.71414817  0.33983927  0.73204785  1
  O2-  O237  1  0.70430755  0.83213625  0.06001479  1
  O2-  O238  1  0.70216118  0.83228734  0.39448615  1
  O2-  O239  1  0.69979113  0.83301826  0.72915684  1
  O2-  O240  1  0.45989343  0.40807704  0.27236166  1
  O2-  O241  1  0.46020765  0.40886944  0.60173950  1
  O2-  O242  1  0.46135734  0.41714875  0.93145529  1
  O2-  O243  1  0.45605457  0.92098718  0.26548269  1
  O2-  O244  1  0.45652399  0.91976399  0.59946842  1
  O2-  O245  1  0.44576068  0.91648262  0.93730236  1
  O2-  O246  1  0.95770779  0.41691659  0.25981691  1
  O2-  O247  1  0.95719058  0.41618607  0.59880324  1
  O2-  O248  1  0.95459688  0.41484317  0.93891925  1
  O2-  O249  1  0.96345293  0.91917499  0.26832829  1
  O2-  O250  1  0.95977601  0.91940952  0.60851345  1
  O2-  O251  1  0.96606103  0.91770930  0.93130850  1
  O2-  O252  1  0.33438853  0.29529008  0.27354065  1
  O2-  O253  1  0.33478043  0.29406451  0.60462568  1
  O2-  O254  1  0.32881213  0.29494169  0.93133753  1
  O2-  O255  1  0.32727954  0.79472219  0.26585228  1
  O2-  O256  1  0.32882778  0.79430443  0.60264489  1
  O2-  O257  1  0.33010429  0.79440858  0.94140959  1
  O2-  O258  1  0.83105946  0.28931352  0.26370699  1
  O2-  O259  1  0.83372173  0.28597168  0.59822454  1
  O2-  O260  1  0.83799997  0.29208466  0.93978073  1
  O2-  O261  1  0.83469026  0.79292783  0.26672805  1
  O2-  O262  1  0.83319893  0.80736988  0.60776858  1
  O2-  O263  1  0.83440920  0.79712555  0.92729038  1
  O2-  O264  1  0.41619996  0.05093344  0.05600569  1
  O2-  O265  1  0.42592338  0.05345515  0.39687594  1
  O2-  O266  1  0.42103933  0.05100345  0.72912396  1
  O2-  O267  1  0.41510885  0.53581001  0.06960449  1
  O2-  O268  1  0.41562215  0.53250473  0.40362306  1
  O2-  O269  1  0.42149666  0.53802076  0.73284910  1
  O2-  O270  1  0.91735241  0.03877229  0.06894945  1
  O2-  O271  1  0.91704354  0.04399458  0.40193563  1
  O2-  O272  1  0.91632513  0.04508075  0.73660241  1
  O2-  O273  1  0.91796618  0.55002011  0.06085905  1
  O2-  O274  1  0.91739912  0.53946526  0.39787356  1
  O2-  O275  1  0.91068971  0.54154035  0.72901465  1
  O2-  O276  1  0.28970279  0.16351277  0.05943081  1
  O2-  O277  1  0.29136179  0.16888008  0.40204654  1
  O2-  O278  1  0.29721601  0.16570236  0.73251513  1
  O2-  O279  1  0.28729297  0.66435146  0.07155493  1
  O2-  O280  1  0.29285873  0.66562246  0.40098403  1
  O2-  O281  1  0.29102603  0.66674183  0.73604791  1
  O2-  O282  1  0.79012660  0.16623061  0.07010444  1
  O2-  O283  1  0.78507891  0.16698584  0.40097638  1
  O2-  O284  1  0.78382581  0.16661447  0.73509638  1
  O2-  O285  1  0.79962694  0.67102615  0.05466727  1
  O2-  O286  1  0.79234028  0.66861188  0.40065510  1
  O2-  O287  1  0.79897005  0.66753137  0.72575513  1
