# generated using pymatgen
data_Ca2Al2SiO7
_symmetry_space_group_name_H-M   'P 1'
_cell_length_a   15.46931530
_cell_length_b   15.46721568
_cell_length_c   15.29095295
_cell_angle_alpha   90.00751033
_cell_angle_beta   90.02005685
_cell_angle_gamma   90.01075069
_symmetry_Int_Tables_number   1
_chemical_formula_structural   Ca2Al2SiO7
_chemical_formula_sum   'Ca48 Al48 Si24 O168'
_cell_volume   3658.62373208
_cell_formula_units_Z   24
loop_
 _symmetry_equiv_pos_site_id
 _symmetry_equiv_pos_as_xyz
  1  'x, y, z'
loop_
 _atom_type_symbol
 _atom_type_oxidation_number
  Ca2+  2.0
  Al0+  0.0
  Si0+  0.0
  O2-  -2.0
loop_
 _atom_site_type_symbol
 _atom_site_label
 _atom_site_symmetry_multiplicity
 _atom_site_fract_x
 _atom_site_fract_y
 _atom_site_fract_z
 _atom_site_occupancy
  Ca2+  Ca0  1  0.17946691  0.07888593  0.17401870  1
  Ca2+  Ca1  1  0.16206060  0.07279118  0.50613853  1
  Ca2+  Ca2  1  0.16412735  0.07791916  0.83585248  1
  Ca2+  Ca3  1  0.16895553  0.58400636  0.17304458  1
  Ca2+  Ca4  1  0.15788775  0.57794922  0.50384643  1
  Ca2+  Ca5  1  0.16288485  0.57547503  0.83988825  1
  Ca2+  Ca6  1  0.67225550  0.08011854  0.16884289  1
  Ca2+  Ca7  1  0.67345160  0.07964225  0.50519626  1
  Ca2+  Ca8  1  0.67603538  0.09211743  0.83754092  1
  Ca2+  Ca9  1  0.66444740  0.56934099  0.17302262  1
  Ca2+  Ca10  1  0.66705954  0.57728678  0.50190598  1
  Ca2+  Ca11  1  0.66908228  0.57495566  0.84138114  1
  Ca2+  Ca12  1  0.08764078  0.33739822  0.16433302  1
  Ca2+  Ca13  1  0.09467655  0.32866189  0.49843211  1
  Ca2+  Ca14  1  0.09036786  0.32823541  0.82585567  1
  Ca2+  Ca15  1  0.08335493  0.82654795  0.16253689  1
  Ca2+  Ca16  1  0.07847981  0.83271531  0.49213685  1
  Ca2+  Ca17  1  0.07846390  0.82544372  0.82483812  1
  Ca2+  Ca18  1  0.58324170  0.32978966  0.15755497  1
  Ca2+  Ca19  1  0.57758772  0.32937671  0.49816325  1
  Ca2+  Ca20  1  0.57734987  0.32477803  0.82690737  1
  Ca2+  Ca21  1  0.58326463  0.83620225  0.16524647  1
  Ca2+  Ca22  1  0.58296180  0.83529628  0.49231106  1
  Ca2+  Ca23  1  0.57817547  0.83239161  0.82997254  1
  Ca2+  Ca24  1  0.32014685  0.42735626  0.17010858  1
  Ca2+  Ca25  1  0.32457021  0.42127220  0.50263086  1
  Ca2+  Ca26  1  0.32511944  0.41756608  0.83774242  1
  Ca2+  Ca27  1  0.33053222  0.92793388  0.17422312  1
  Ca2+  Ca28  1  0.31910963  0.91932619  0.49969426  1
  Ca2+  Ca29  1  0.32519628  0.92236286  0.83694560  1
  Ca2+  Ca30  1  0.82056600  0.41367547  0.17094642  1
  Ca2+  Ca31  1  0.82858964  0.41529751  0.50176072  1
  Ca2+  Ca32  1  0.82627374  0.41535211  0.84038679  1
  Ca2+  Ca33  1  0.83601603  0.91694759  0.17011913  1
  Ca2+  Ca34  1  0.83361270  0.91329462  0.50646610  1
  Ca2+  Ca35  1  0.84388592  0.92540208  0.83485211  1
  Ca2+  Ca36  1  0.42129808  0.16205088  0.15677490  1
  Ca2+  Ca37  1  0.41406849  0.17126724  0.49652436  1
  Ca2+  Ca38  1  0.42623168  0.16777538  0.82488032  1
  Ca2+  Ca39  1  0.41109371  0.66239653  0.16411290  1
  Ca2+  Ca40  1  0.41553721  0.66478198  0.49480426  1
  Ca2+  Ca41  1  0.41510345  0.66142725  0.83400872  1
  Ca2+  Ca42  1  0.91700215  0.16646086  0.16125013  1
  Ca2+  Ca43  1  0.92170805  0.16218639  0.50439819  1
  Ca2+  Ca44  1  0.91795489  0.16477600  0.82662812  1
  Ca2+  Ca45  1  0.92830263  0.67849635  0.15966559  1
  Ca2+  Ca46  1  0.92915631  0.67676656  0.49312999  1
  Ca2+  Ca47  1  0.92727551  0.67605546  0.82795726  1
  Al0+  Al48  1  -0.00070280  0.00167325  0.00296753  1
  Al0+  Al49  1  0.00066923  0.00356596  0.33048761  1
  Al0+  Al50  1  -0.00152683  0.00095859  0.66809742  1
  Al0+  Al51  1  -0.00338103  0.49967274  -0.00044327  1
  Al0+  Al52  1  -0.00148842  0.49916801  0.33142060  1
  Al0+  Al53  1  -0.00220023  0.50046514  0.66911119  1
  Al0+  Al54  1  0.50201739  -0.00054852  -0.00367621  1
  Al0+  Al55  1  0.50408208  0.00073053  0.34013941  1
  Al0+  Al56  1  0.50161545  -0.00210633  0.66191908  1
  Al0+  Al57  1  0.49791021  0.49858177  0.00566129  1
  Al0+  Al58  1  0.49916177  0.49778413  0.34024713  1
  Al0+  Al59  1  0.49915010  0.49873416  0.66343112  1
  Al0+  Al60  1  0.25091321  0.25104636  0.00684133  1
  Al0+  Al61  1  0.25344256  0.25421704  0.33542622  1
  Al0+  Al62  1  0.25138347  0.25120357  0.66162325  1
  Al0+  Al63  1  0.25039590  0.74951993  -0.00262586  1
  Al0+  Al64  1  0.25294304  0.75303107  0.33498261  1
  Al0+  Al65  1  0.25160915  0.74890824  0.66832747  1
  Al0+  Al66  1  0.75014509  0.24760800  0.00447258  1
  Al0+  Al67  1  0.74895632  0.24904897  0.33780097  1
  Al0+  Al68  1  0.74854613  0.24846869  0.66548291  1
  Al0+  Al69  1  0.74904657  0.75067303  -0.00583207  1
  Al0+  Al70  1  0.74995106  0.74914485  0.33177395  1
  Al0+  Al71  1  0.74902789  0.74886121  0.66572040  1
  Al0+  Al72  1  0.17872088  0.92883845  0.68121380  1
  Al0+  Al73  1  0.57143462  0.17832674  0.98661777  1
  Al0+  Al74  1  0.68284883  0.92795334  0.34578574  1
  Al0+  Al75  1  0.68003575  0.42916296  0.01214154  1
  Al0+  Al76  1  0.17823651  0.93185029  0.34672559  1
  Al0+  Al77  1  0.07052245  0.18024663  0.65509052  1
  Al0+  Al78  1  0.31944108  0.57229314  0.01438087  1
  Al0+  Al79  1  0.57256433  0.17750248  0.64855862  1
  Al0+  Al80  1  0.32400226  0.07297503  0.34882680  1
  Al0+  Al81  1  0.92848031  0.82372491  0.98265538  1
  Al0+  Al82  1  0.07249868  0.67731876  0.65117549  1
  Al0+  Al83  1  0.17508033  0.42857403  0.01442030  1
  Al0+  Al84  1  0.82124289  0.06917773  0.01428948  1
  Al0+  Al85  1  0.67861377  0.42730520  0.34983882  1
  Al0+  Al86  1  0.32022338  0.57296638  0.34959785  1
  Al0+  Al87  1  0.42878737  0.32121627  0.64944431  1
  Al0+  Al88  1  0.07321852  0.67937461  0.31725994  1
  Al0+  Al89  1  0.92757494  0.82365886  0.31673031  1
  Al0+  Al90  1  0.32308352  0.07004129  0.00983658  1
  Al0+  Al91  1  0.17597390  0.43162848  0.35004623  1
  Al0+  Al92  1  0.81843694  0.06946646  0.68051740  1
  Al0+  Al93  1  0.92993640  0.82149103  0.65097785  1
  Al0+  Al94  1  0.17855526  0.42916735  0.68098175  1
  Al0+  Al95  1  0.07282378  0.67792950  0.98332985  1
  Si0+  Si96  1  0.67645237  0.92488167  0.68500189  1
  Si0+  Si97  1  0.43231283  0.82285905  0.31839779  1
  Si0+  Si98  1  0.67705480  0.92594238  0.01460007  1
  Si0+  Si99  1  0.42812562  0.32154932  0.98444556  1
  Si0+  Si100  1  0.17840983  0.92915874  0.01537547  1
  Si0+  Si101  1  0.57018818  0.67685126  0.31855419  1
  Si0+  Si102  1  0.42969692  0.82189156  0.98532125  1
  Si0+  Si103  1  0.82023132  0.57071192  0.34969103  1
  Si0+  Si104  1  0.56960754  0.67611712  0.98659095  1
  Si0+  Si105  1  0.67850796  0.42975354  0.68216112  1
  Si0+  Si106  1  0.07264876  0.18161143  0.98793639  1
  Si0+  Si107  1  0.81932837  0.57162923  0.68275628  1
  Si0+  Si108  1  0.92614759  0.32279537  0.65169680  1
  Si0+  Si109  1  0.07338998  0.18144782  0.31751539  1
  Si0+  Si110  1  0.57098972  0.17932870  0.31663906  1
  Si0+  Si111  1  0.32412010  0.57131131  0.68450116  1
  Si0+  Si112  1  0.32313734  0.07146908  0.68188399  1
  Si0+  Si113  1  0.43041837  0.32211948  0.31452748  1
  Si0+  Si114  1  0.57039180  0.67855964  0.65194299  1
  Si0+  Si115  1  0.92701337  0.31968697  0.98721369  1
  Si0+  Si116  1  0.92642008  0.31927583  0.31854451  1
  Si0+  Si117  1  0.42884270  0.82100078  0.65035231  1
  Si0+  Si118  1  0.82018762  0.57432252  0.01672555  1
  Si0+  Si119  1  0.82281911  0.07289935  0.35086734  1
  O2-  O120  1  0.24885950  -0.00348563  0.05853973  1
  O2-  O121  1  0.24705557  0.00652195  0.39809284  1
  O2-  O122  1  0.25288216  0.00532200  0.72753818  1
  O2-  O123  1  0.24176502  0.50618228  0.06292340  1
  O2-  O124  1  0.24280773  0.50814733  0.40031414  1
  O2-  O125  1  0.25168681  0.50601000  0.72677098  1
  O2-  O126  1  0.74907298  -0.00902888  0.05824849  1
  O2-  O127  1  0.76171040  -0.00303939  0.39323808  1
  O2-  O128  1  0.74373618  -0.00535316  0.72826971  1
  O2-  O129  1  0.75192331  0.50527266  0.06139184  1
  O2-  O130  1  0.75288439  0.50179371  0.39692605  1
  O2-  O131  1  0.75018805  0.49869295  0.72570198  1
  O2-  O132  1  0.00075197  0.25181449  0.27593689  1
  O2-  O133  1  -0.00113672  0.25844132  0.60791076  1
  O2-  O134  1  0.00371252  0.25492186  0.94579093  1
  O2-  O135  1  0.00275028  0.75404205  0.26824812  1
  O2-  O136  1  0.00517256  0.75345656  0.60118867  1
  O2-  O137  1  0.00162284  0.75183105  0.93479569  1
  O2-  O138  1  0.49916933  0.24830359  0.27244421  1
  O2-  O139  1  0.49798931  0.24636828  0.59833778  1
  O2-  O140  1  0.49467897  0.25085460  0.94002082  1
  O2-  O141  1  0.50009618  0.74832587  0.27557367  1
  O2-  O142  1  0.50066649  0.74987060  0.60907665  1
  O2-  O143  1  0.49865103  0.74731507  0.94426712  1
  O2-  O144  1  0.07141711  0.18143202  0.09321614  1
  O2-  O145  1  0.07162651  0.18051646  0.42254026  1
  O2-  O146  1  0.06938288  0.18080443  0.76874215  1
  O2-  O147  1  0.07270805  0.68030176  0.09682843  1
  O2-  O148  1  0.06929198  0.67861209  0.43053076  1
  O2-  O149  1  0.06898145  0.67638906  0.76462966  1
  O2-  O150  1  0.57109661  0.17868418  0.10008856  1
  O2-  O151  1  0.57179688  0.18130903  0.42133934  1
  O2-  O152  1  0.57296570  0.18125753  0.76250740  1
  O2-  O153  1  0.57088641  0.67590204  0.09149761  1
  O2-  O154  1  0.57012199  0.67774228  0.42398572  1
  O2-  O155  1  0.56988354  0.67752996  0.75736723  1
  O2-  O156  1  0.17846530  0.42929991  0.23669930  1
  O2-  O157  1  0.17889340  0.43036031  0.56849522  1
  O2-  O158  1  0.17943427  0.42474256  0.90087625  1
  O2-  O159  1  0.18203984  0.93326743  0.23272432  1
  O2-  O160  1  0.17986149  0.92981292  0.56849325  1
  O2-  O161  1  0.17916781  0.93131625  0.90952530  1
  O2-  O162  1  0.67937858  0.42677055  0.23654641  1
  O2-  O163  1  0.67964107  0.43220562  0.57708063  1
  O2-  O164  1  0.68127026  0.43078881  0.89870918  1
  O2-  O165  1  0.67869319  0.93147790  0.23268745  1
  O2-  O166  1  0.67724648  0.92246034  0.57941848  1
  O2-  O167  1  0.67253642  0.92587606  0.90942009  1
  O2-  O168  1  0.43114068  0.32134445  0.09003875  1
  O2-  O169  1  0.43254629  0.32223169  0.41938986  1
  O2-  O170  1  0.43230561  0.32321867  0.76349255  1
  O2-  O171  1  0.43280836  0.82505032  0.09022237  1
  O2-  O172  1  0.43588672  0.82327965  0.42348439  1
  O2-  O173  1  0.43099621  0.82186305  0.75585691  1
  O2-  O174  1  0.92319356  0.31642681  0.09240096  1
  O2-  O175  1  0.92197940  0.31686065  0.42336358  1
  O2-  O176  1  0.92255354  0.32087738  0.75748859  1
  O2-  O177  1  0.92821449  0.82235662  0.09602629  1
  O2-  O178  1  0.92555059  0.82071825  0.43003979  1
  O2-  O179  1  0.92947677  0.81921879  0.76434950  1
  O2-  O180  1  0.32518621  0.06936075  0.23461917  1
  O2-  O181  1  0.32279475  0.06811900  0.57658016  1
  O2-  O182  1  0.32245326  0.06794626  0.89681153  1
  O2-  O183  1  0.32356686  0.56856096  0.23635939  1
  O2-  O184  1  0.32963533  0.57025622  0.57957306  1
  O2-  O185  1  0.32517389  0.56799982  0.90104349  1
  O2-  O186  1  0.81882008  0.07753620  0.24529511  1
  O2-  O187  1  0.81725070  0.06990521  0.56749765  1
  O2-  O188  1  0.82020291  0.07271878  0.90159778  1
  O2-  O189  1  0.81562653  0.56785958  0.24418192  1
  O2-  O190  1  0.81565884  0.57117128  0.57777123  1
  O2-  O191  1  0.81671281  0.57173600  0.91072680  1
  O2-  O192  1  0.04672314  0.09064714  0.26753366  1
  O2-  O193  1  0.03459597  0.08640980  0.59955155  1
  O2-  O194  1  0.04301407  0.09018024  0.94129588  1
  O2-  O195  1  0.04196044  0.58027287  0.26562492  1
  O2-  O196  1  0.03668548  0.58018629  0.59965064  1
  O2-  O197  1  0.04098334  0.57876322  0.93252558  1
  O2-  O198  1  0.54502438  0.08591555  0.27148122  1
  O2-  O199  1  0.55067815  0.07636100  0.59857894  1
  O2-  O200  1  0.54410729  0.08162848  0.93094846  1
  O2-  O201  1  0.54126622  0.58430930  0.27297467  1
  O2-  O202  1  0.54270432  0.58751236  0.60311661  1
  O2-  O203  1  0.54050940  0.58484748  0.93793720  1
  O2-  O204  1  0.16556883  0.21052927  0.27119658  1
  O2-  O205  1  0.16686340  0.20646916  0.59926520  1
  O2-  O206  1  0.16519187  0.20717617  0.94079487  1
  O2-  O207  1  0.17366680  0.70757525  0.26751773  1
  O2-  O208  1  0.17473362  0.69811362  0.60394291  1
  O2-  O209  1  0.17239341  0.70318320  0.93049008  1
  O2-  O210  1  0.66334473  0.20918792  0.27078486  1
  O2-  O211  1  0.66912987  0.21054073  0.59476732  1
  O2-  O212  1  0.66746036  0.21320630  0.93423040  1
  O2-  O213  1  0.66157782  0.70287675  0.27008610  1
  O2-  O214  1  0.66179685  0.70455787  0.60322496  1
  O2-  O215  1  0.66020091  0.70249316  0.93564220  1
  O2-  O216  1  0.07286403  0.44725469  0.06359877  1
  O2-  O217  1  0.07397340  0.44986828  0.39994736  1
  O2-  O218  1  0.07936656  0.45475337  0.73372178  1
  O2-  O219  1  0.08662509  0.95695234  0.06240493  1
  O2-  O220  1  0.07922558  0.96018398  0.39865212  1
  O2-  O221  1  0.08333214  0.96168039  0.73535616  1
  O2-  O222  1  0.58439323  0.45897422  0.06768288  1
  O2-  O223  1  0.58459241  0.46037087  0.40545893  1
  O2-  O224  1  0.58749507  0.46079891  0.72864345  1
  O2-  O225  1  0.58540179  0.95513437  0.06270086  1
  O2-  O226  1  0.58948552  0.96185614  0.40388687  1
  O2-  O227  1  0.58130797  0.94850902  0.72919417  1
  O2-  O228  1  0.20792631  0.33297471  0.07117500  1
  O2-  O229  1  0.21109921  0.33475453  0.40175617  1
  O2-  O230  1  0.21130135  0.33155597  0.73276989  1
  O2-  O231  1  0.20432265  0.83513386  0.05862050  1
  O2-  O232  1  0.21110566  0.83582105  0.40034371  1
  O2-  O233  1  0.21331226  0.83309116  0.73536975  1
  O2-  O234  1  0.71389640  0.33497030  0.06824276  1
  O2-  O235  1  0.71148354  0.33219817  0.40468322  1
  O2-  O236  1  0.70579702  0.33745309  0.72771476  1
  O2-  O237  1  0.69721443  0.83022080  0.05918565  1
  O2-  O238  1  0.70457358  0.82865992  0.39926632  1
  O2-  O239  1  0.70011844  0.83037451  0.73091305  1
  O2-  O240  1  0.46355512  0.41306924  0.26895879  1
  O2-  O241  1  0.46240867  0.41793817  0.59513964  1
  O2-  O242  1  0.45713552  0.41428152  0.93843935  1
  O2-  O243  1  0.46645571  0.91330103  0.27118822  1
  O2-  O244  1  0.45674028  0.91116266  0.60050952  1
  O2-  O245  1  0.46185868  0.90999936  0.93311631  1
  O2-  O246  1  0.94847396  0.41194072  0.27044945  1
  O2-  O247  1  0.94514422  0.41797892  0.60718747  1
  O2-  O248  1  0.94428925  0.41393541  0.94024913  1
  O2-  O249  1  0.95079493  0.92513772  0.26686490  1
  O2-  O250  1  0.95353577  0.92134588  0.60046973  1
  O2-  O251  1  0.95727490  0.92382589  0.93313009  1
  O2-  O252  1  0.33749518  0.29836500  0.26745007  1
  O2-  O253  1  0.33119148  0.29571699  0.59438971  1
  O2-  O254  1  0.33341068  0.29719584  0.94050572  1
  O2-  O255  1  0.34021876  0.80019356  0.27008684  1
  O2-  O256  1  0.33807722  0.79224390  0.60269050  1
  O2-  O257  1  0.33814015  0.79719103  0.93621822  1
  O2-  O258  1  0.83557893  0.28677661  0.27003841  1
  O2-  O259  1  0.83477234  0.29300972  0.60312522  1
  O2-  O260  1  0.83816599  0.28579708  0.93759419  1
  O2-  O261  1  0.82908736  0.79200061  0.26380959  1
  O2-  O262  1  0.83036026  0.78990436  0.60082895  1
  O2-  O263  1  0.82869081  0.79699689  0.93016735  1
  O2-  O264  1  0.41933145  0.03724454  0.06390658  1
  O2-  O265  1  0.42006617  0.04087151  0.40296422  1
  O2-  O266  1  0.41705145  0.04185063  0.72623870  1
  O2-  O267  1  0.41632801  0.54146631  0.06988499  1
  O2-  O268  1  0.41654482  0.53900745  0.40430403  1
  O2-  O269  1  0.41729753  0.54185208  0.73139180  1
  O2-  O270  1  0.91809502  0.04352405  0.07095879  1
  O2-  O271  1  0.91957557  0.05710893  0.39256030  1
  O2-  O272  1  0.91474028  0.04122578  0.73598630  1
  O2-  O273  1  0.91312011  0.54880304  0.06235006  1
  O2-  O274  1  0.91300023  0.54398695  0.39534596  1
  O2-  O275  1  0.90992271  0.54466943  0.73206932  1
  O2-  O276  1  0.29488381  0.16553154  0.06657025  1
  O2-  O277  1  0.30146347  0.17365750  0.39710101  1
  O2-  O278  1  0.30173369  0.16695902  0.72444610  1
  O2-  O279  1  0.29993344  0.67402699  0.06493680  1
  O2-  O280  1  0.30526382  0.67526698  0.39851413  1
  O2-  O281  1  0.30515315  0.66665931  0.72956919  1
  O2-  O282  1  0.78736642  0.16323833  0.07146478  1
  O2-  O283  1  0.78907164  0.16222315  0.40019836  1
  O2-  O284  1  0.78750435  0.16711855  0.73429484  1
  O2-  O285  1  0.79291796  0.66795489  0.06072639  1
  O2-  O286  1  0.79212939  0.66310610  0.39600920  1
  O2-  O287  1  0.78695986  0.66146646  0.73142263  1
