# generated using pymatgen
data_Ca2Al2SiO7
_symmetry_space_group_name_H-M   'P 1'
_cell_length_a   15.46083135
_cell_length_b   15.46255892
_cell_length_c   15.28602505
_cell_angle_alpha   89.99235188
_cell_angle_beta   90.00842581
_cell_angle_gamma   90.00599585
_symmetry_Int_Tables_number   1
_chemical_formula_structural   Ca2Al2SiO7
_chemical_formula_sum   'Ca48 Al48 Si24 O168'
_cell_volume   3654.33843868
_cell_formula_units_Z   24
loop_
 _symmetry_equiv_pos_site_id
 _symmetry_equiv_pos_as_xyz
  1  'x, y, z'
loop_
 _atom_type_symbol
 _atom_type_oxidation_number
  Ca2+  2.0
  Al0+  0.0
  Si0+  0.0
  O2-  -2.0
loop_
 _atom_site_type_symbol
 _atom_site_label
 _atom_site_symmetry_multiplicity
 _atom_site_fract_x
 _atom_site_fract_y
 _atom_site_fract_z
 _atom_site_occupancy
  Ca2+  Ca0  1  0.16405892  0.07721220  0.17107825  1
  Ca2+  Ca1  1  0.17138275  0.08913218  0.51011134  1
  Ca2+  Ca2  1  0.17417283  0.08249910  0.83783689  1
  Ca2+  Ca3  1  0.16410812  0.58395455  0.16492343  1
  Ca2+  Ca4  1  0.16226730  0.57547751  0.50324350  1
  Ca2+  Ca5  1  0.16862081  0.57396192  0.84445751  1
  Ca2+  Ca6  1  0.67170874  0.08204340  0.16921163  1
  Ca2+  Ca7  1  0.67356605  0.08846937  0.50008600  1
  Ca2+  Ca8  1  0.67418259  0.08757386  0.84201918  1
  Ca2+  Ca9  1  0.67054086  0.57358049  0.17296741  1
  Ca2+  Ca10  1  0.67440574  0.58348716  0.50028106  1
  Ca2+  Ca11  1  0.66723212  0.57391952  0.84236519  1
  Ca2+  Ca12  1  0.07214996  0.32908391  0.16275733  1
  Ca2+  Ca13  1  0.08265417  0.32155572  0.49384246  1
  Ca2+  Ca14  1  0.08041368  0.33425651  0.82996858  1
  Ca2+  Ca15  1  0.08664319  0.82332584  0.15806066  1
  Ca2+  Ca16  1  0.08105491  0.82537633  0.49216960  1
  Ca2+  Ca17  1  0.09051625  0.83022834  0.83656983  1
  Ca2+  Ca18  1  0.59392083  0.32183900  0.16015726  1
  Ca2+  Ca19  1  0.58355558  0.31989684  0.49568688  1
  Ca2+  Ca20  1  0.58767707  0.32300442  0.83238483  1
  Ca2+  Ca21  1  0.57583571  0.84452164  0.16133582  1
  Ca2+  Ca22  1  0.57216311  0.84439573  0.49455086  1
  Ca2+  Ca23  1  0.57264797  0.84206917  0.83258101  1
  Ca2+  Ca24  1  0.32881905  0.42197568  0.16686859  1
  Ca2+  Ca25  1  0.32371147  0.41591228  0.50971460  1
  Ca2+  Ca26  1  0.32013404  0.42041587  0.84370631  1
  Ca2+  Ca27  1  0.33167282  0.90939421  0.16538097  1
  Ca2+  Ca28  1  0.33572505  0.91924727  0.50345737  1
  Ca2+  Ca29  1  0.33385651  0.91770655  0.83734463  1
  Ca2+  Ca30  1  0.83695626  0.41482244  0.16795049  1
  Ca2+  Ca31  1  0.84181360  0.41795601  0.49460844  1
  Ca2+  Ca32  1  0.82948472  0.41284443  0.84240510  1
  Ca2+  Ca33  1  0.82187402  0.92756531  0.17502842  1
  Ca2+  Ca34  1  0.83043256  0.93106590  0.50409363  1
  Ca2+  Ca35  1  0.82739941  0.93201092  0.84353107  1
  Ca2+  Ca36  1  0.43174153  0.16466452  0.16204786  1
  Ca2+  Ca37  1  0.42788959  0.15685078  0.49783776  1
  Ca2+  Ca38  1  0.42977842  0.15856175  0.82777805  1
  Ca2+  Ca39  1  0.41354661  0.67695357  0.15831073  1
  Ca2+  Ca40  1  0.41644598  0.68046391  0.49401479  1
  Ca2+  Ca41  1  0.40853732  0.67636104  0.83404964  1
  Ca2+  Ca42  1  0.90918061  0.17253449  0.16290171  1
  Ca2+  Ca43  1  0.92404393  0.16592514  0.49249793  1
  Ca2+  Ca44  1  0.91793137  0.16774941  0.83037259  1
  Ca2+  Ca45  1  0.92600323  0.66026366  0.16311360  1
  Ca2+  Ca46  1  0.92092571  0.66661929  0.48931739  1
  Ca2+  Ca47  1  0.92292196  0.66751967  0.83366136  1
  Al0+  Al48  1  0.00176534  0.00072504  0.00785707  1
  Al0+  Al49  1  -0.00005267  -0.00312744  0.33505072  1
  Al0+  Al50  1  -0.00085016  -0.00109147  0.66753243  1
  Al0+  Al51  1  0.00054232  0.49835966  -0.00680686  1
  Al0+  Al52  1  0.00070245  0.49868725  0.33092035  1
  Al0+  Al53  1  -0.00072509  0.50048188  0.67087400  1
  Al0+  Al54  1  0.50067576  0.00066839  -0.00672889  1
  Al0+  Al55  1  0.49736409  0.00070584  0.32724816  1
  Al0+  Al56  1  0.49908938  -0.00069580  0.66125054  1
  Al0+  Al57  1  0.49953868  0.50003023  0.00874824  1
  Al0+  Al58  1  0.49860404  0.50188145  0.33774521  1
  Al0+  Al59  1  0.50098623  0.50186470  0.66614431  1
  Al0+  Al60  1  0.25066950  0.25069384  0.00693967  1
  Al0+  Al61  1  0.24986031  0.24983855  0.32982506  1
  Al0+  Al62  1  0.24976311  0.24979381  0.67474733  1
  Al0+  Al63  1  0.25042121  0.75045007  -0.00291182  1
  Al0+  Al64  1  0.25045666  0.74969225  0.32813148  1
  Al0+  Al65  1  0.25007349  0.74921584  0.65986268  1
  Al0+  Al66  1  0.75167377  0.25191965  -0.00196511  1
  Al0+  Al67  1  0.74966465  0.25002157  0.33168644  1
  Al0+  Al68  1  0.75071857  0.25164167  0.66438152  1
  Al0+  Al69  1  0.75024183  0.75117650  0.00141346  1
  Al0+  Al70  1  0.74673994  0.74860054  0.34275222  1
  Al0+  Al71  1  0.75009596  0.74983966  0.66774862  1
  Al0+  Al72  1  0.43001585  0.81861437  0.65105071  1
  Al0+  Al73  1  0.67714091  0.92882507  0.01333528  1
  Al0+  Al74  1  0.07126549  0.17881803  0.65664383  1
  Al0+  Al75  1  0.82149288  0.07225624  0.35047139  1
  Al0+  Al76  1  0.82136929  0.07275761  0.01558653  1
  Al0+  Al77  1  0.67968320  0.42979281  0.01275991  1
  Al0+  Al78  1  0.82145518  0.07220517  0.68145959  1
  Al0+  Al79  1  0.31948945  0.57167369  0.01563967  1
  Al0+  Al80  1  0.43114215  0.81917851  0.98402824  1
  Al0+  Al81  1  0.57147648  0.18045177  0.65187693  1
  Al0+  Al82  1  0.17896387  0.42921564  0.68061235  1
  Al0+  Al83  1  0.07374300  0.17454530  0.31792596  1
  Al0+  Al84  1  0.56945093  0.18201820  0.98497419  1
  Al0+  Al85  1  0.82168315  0.56888525  0.34577323  1
  Al0+  Al86  1  0.93166158  0.31813064  0.98419467  1
  Al0+  Al87  1  0.43152157  0.81957172  0.31682912  1
  Al0+  Al88  1  0.06888078  0.67991701  0.31944024  1
  Al0+  Al89  1  0.17578187  0.42731212  0.01890168  1
  Al0+  Al90  1  0.56878358  0.18159847  0.31854272  1
  Al0+  Al91  1  0.32163404  0.06927866  0.67950783  1
  Al0+  Al92  1  0.06924009  0.68075236  0.98394631  1
  Al0+  Al93  1  0.18119375  0.93035969  0.01283457  1
  Al0+  Al94  1  0.67480399  0.93032058  0.34988719  1
  Al0+  Al95  1  0.93075459  0.31865648  0.31853425  1
  Si0+  Si96  1  0.42598721  0.32451478  0.98457934  1
  Si0+  Si97  1  0.67597343  0.42728114  0.35230362  1
  Si0+  Si98  1  0.32065105  0.57330181  0.35048972  1
  Si0+  Si99  1  0.06855168  0.67881866  0.65130225  1
  Si0+  Si100  1  0.17735170  0.92508427  0.68114835  1
  Si0+  Si101  1  0.32207998  0.57328759  0.68140474  1
  Si0+  Si102  1  0.31807787  0.07099569  0.34673890  1
  Si0+  Si103  1  0.92682726  0.82489733  0.98414546  1
  Si0+  Si104  1  0.92841009  0.32361395  0.64923717  1
  Si0+  Si105  1  0.82138810  0.57237121  0.68313088  1
  Si0+  Si106  1  0.92689929  0.82076951  0.65181823  1
  Si0+  Si107  1  0.92418983  0.82116296  0.31818243  1
  Si0+  Si108  1  0.07531138  0.17513167  0.98380492  1
  Si0+  Si109  1  0.57447769  0.67474061  0.98519355  1
  Si0+  Si110  1  0.42775915  0.32383934  0.65332493  1
  Si0+  Si111  1  0.42631270  0.32617200  0.31764598  1
  Si0+  Si112  1  0.18066022  0.42952703  0.34889903  1
  Si0+  Si113  1  0.32426069  0.07224486  0.01724055  1
  Si0+  Si114  1  0.57502055  0.67545494  0.64871634  1
  Si0+  Si115  1  0.67892045  0.43024141  0.68048739  1
  Si0+  Si116  1  0.57315834  0.67533275  0.31676931  1
  Si0+  Si117  1  0.82296648  0.57303465  0.01406654  1
  Si0+  Si118  1  0.17955995  0.92604985  0.34819395  1
  Si0+  Si119  1  0.67799039  0.92828327  0.68307131  1
  O2-  O120  1  0.25254131  0.00699513  0.06169782  1
  O2-  O121  1  0.24339183  0.00364911  0.38997238  1
  O2-  O122  1  0.24459928  -0.00432727  0.72397511  1
  O2-  O123  1  0.24870882  0.49932315  0.06754193  1
  O2-  O124  1  0.25357897  0.49855352  0.39290227  1
  O2-  O125  1  0.25625519  0.50249927  0.72537624  1
  O2-  O126  1  0.75146402  -0.00233530  0.06313986  1
  O2-  O127  1  0.74925470  -0.00034214  0.40058915  1
  O2-  O128  1  0.74532370  -0.00191736  0.72686562  1
  O2-  O129  1  0.75041038  0.50884892  0.05778830  1
  O2-  O130  1  0.74588515  0.49593902  0.39532683  1
  O2-  O131  1  0.74923231  0.50205802  0.72311753  1
  O2-  O132  1  -0.00298966  0.24139689  0.26860673  1
  O2-  O133  1  -0.00333484  0.25314231  0.60817549  1
  O2-  O134  1  0.00789279  0.24441527  0.93856463  1
  O2-  O135  1  -0.00730293  0.75293251  0.27290694  1
  O2-  O136  1  -0.00182076  0.74979755  0.60875783  1
  O2-  O137  1  -0.00528029  0.75608817  0.93716727  1
  O2-  O138  1  0.49811256  0.26140472  0.27351365  1
  O2-  O139  1  0.49470488  0.25489049  0.60669595  1
  O2-  O140  1  0.49278383  0.25542446  0.93829585  1
  O2-  O141  1  0.50822577  0.74630381  0.27185458  1
  O2-  O142  1  0.50659527  0.74482580  0.60543394  1
  O2-  O143  1  0.50799162  0.74482545  0.93917409  1
  O2-  O144  1  0.07458803  0.17532772  0.08911518  1
  O2-  O145  1  0.07873645  0.17956242  0.43204714  1
  O2-  O146  1  0.07089148  0.17937747  0.76933816  1
  O2-  O147  1  0.06750634  0.68120076  0.09692407  1
  O2-  O148  1  0.06881613  0.68029545  0.43357691  1
  O2-  O149  1  0.06867641  0.67931171  0.75602170  1
  O2-  O150  1  0.56868829  0.18242658  0.09797084  1
  O2-  O151  1  0.56635209  0.18188543  0.43215979  1
  O2-  O152  1  0.57235390  0.18212274  0.76473136  1
  O2-  O153  1  0.57396769  0.67310734  0.09045050  1
  O2-  O154  1  0.56884226  0.67136768  0.42259534  1
  O2-  O155  1  0.57695276  0.67186245  0.75390217  1
  O2-  O156  1  0.18143805  0.43070822  0.24458138  1
  O2-  O157  1  0.17838472  0.43175750  0.56676465  1
  O2-  O158  1  0.17703055  0.42949045  0.90480640  1
  O2-  O159  1  0.18331058  0.92240830  0.24349752  1
  O2-  O160  1  0.17779858  0.92213730  0.57529174  1
  O2-  O161  1  0.18343695  0.93069641  0.89925812  1
  O2-  O162  1  0.67333614  0.42917466  0.24708696  1
  O2-  O163  1  0.67840079  0.43181583  0.57553106  1
  O2-  O164  1  0.68171355  0.43034202  0.89880998  1
  O2-  O165  1  0.67545897  0.93229496  0.23671585  1
  O2-  O166  1  0.68034051  0.92730964  0.57762920  1
  O2-  O167  1  0.67773398  0.93089473  0.89917540  1
  O2-  O168  1  0.42699716  0.32288015  0.09029434  1
  O2-  O169  1  0.42455118  0.32576330  0.42369289  1
  O2-  O170  1  0.43147334  0.32643918  0.75840983  1
  O2-  O171  1  0.43091601  0.81839339  0.09684974  1
  O2-  O172  1  0.42931988  0.81836897  0.43031648  1
  O2-  O173  1  0.42844430  0.81695379  0.76377682  1
  O2-  O174  1  0.93074250  0.31890319  0.09672165  1
  O2-  O175  1  0.93651418  0.32163144  0.43270501  1
  O2-  O176  1  0.92764984  0.32581602  0.75459161  1
  O2-  O177  1  0.92729999  0.82229253  0.08936903  1
  O2-  O178  1  0.92905545  0.81949830  0.42459639  1
  O2-  O179  1  0.92558485  0.81819360  0.75663273  1
  O2-  O180  1  0.31850130  0.06994378  0.24192109  1
  O2-  O181  1  0.32137208  0.06769910  0.56585190  1
  O2-  O182  1  0.32433996  0.07049877  0.91133244  1
  O2-  O183  1  0.32029876  0.57372136  0.24612060  1
  O2-  O184  1  0.31973320  0.57310057  0.57538550  1
  O2-  O185  1  0.31726204  0.57062620  0.90133579  1
  O2-  O186  1  0.81935944  0.07183783  0.23754066  1
  O2-  O187  1  0.82277294  0.07122031  0.56869627  1
  O2-  O188  1  0.82019440  0.07258320  0.90127629  1
  O2-  O189  1  0.82114761  0.56694515  0.23308212  1
  O2-  O190  1  0.82388179  0.57259754  0.57814131  1
  O2-  O191  1  0.82176223  0.57200396  0.90771254  1
  O2-  O192  1  0.05341729  0.07211686  0.27082483  1
  O2-  O193  1  0.04417371  0.08056211  0.60274115  1
  O2-  O194  1  0.05064042  0.08064817  0.93893812  1
  O2-  O195  1  0.03906930  0.58380496  0.26582553  1
  O2-  O196  1  0.03818232  0.58719796  0.60445503  1
  O2-  O197  1  0.03726556  0.58559864  0.92780965  1
  O2-  O198  1  0.53187347  0.08836090  0.26367120  1
  O2-  O199  1  0.53978199  0.08460399  0.59745792  1
  O2-  O200  1  0.53886326  0.08661114  0.92856689  1
  O2-  O201  1  0.54529036  0.58184966  0.27101794  1
  O2-  O202  1  0.54958755  0.58239793  0.60025344  1
  O2-  O203  1  0.54671028  0.58100197  0.93918218  1
  O2-  O204  1  0.17049947  0.20654179  0.26353115  1
  O2-  O205  1  0.16901489  0.21041372  0.60386621  1
  O2-  O206  1  0.17121702  0.19953142  0.94114238  1
  O2-  O207  1  0.16431264  0.71207912  0.26546136  1
  O2-  O208  1  0.16017915  0.70449345  0.60216081  1
  O2-  O209  1  0.16472656  0.71330646  0.92904785  1
  O2-  O210  1  0.66568479  0.21040302  0.26572049  1
  O2-  O211  1  0.66653068  0.21532784  0.59692343  1
  O2-  O212  1  0.66462216  0.21706679  0.93122376  1
  O2-  O213  1  0.66948584  0.69501090  0.27512788  1
  O2-  O214  1  0.66943632  0.70056479  0.60303103  1
  O2-  O215  1  0.66951335  0.69622479  0.93893441  1
  O2-  O216  1  0.07740473  0.46001038  0.06789032  1
  O2-  O217  1  0.09049130  0.46104949  0.39678434  1
  O2-  O218  1  0.08347881  0.46322073  0.73496555  1
  O2-  O219  1  0.08478245  0.95445855  0.07022339  1
  O2-  O220  1  0.08514591  0.94349908  0.39480503  1
  O2-  O221  1  0.08311382  0.94623466  0.72696491  1
  O2-  O222  1  0.58359137  0.45437434  0.07002242  1
  O2-  O223  1  0.58262101  0.45379959  0.40022542  1
  O2-  O224  1  0.58681569  0.45697638  0.72853522  1
  O2-  O225  1  0.57912137  0.96067220  0.06398269  1
  O2-  O226  1  0.57613297  0.96358895  0.40064031  1
  O2-  O227  1  0.58300756  0.95282988  0.72522941  1
  O2-  O228  1  0.20320145  0.32911389  0.07256263  1
  O2-  O229  1  0.20854530  0.33691260  0.39589255  1
  O2-  O230  1  0.20773074  0.33448798  0.73796875  1
  O2-  O231  1  0.21471345  0.83472411  0.06626646  1
  O2-  O232  1  0.21415832  0.83655922  0.39742501  1
  O2-  O233  1  0.20655605  0.83171846  0.72650735  1
  O2-  O234  1  0.71634690  0.33654336  0.06722943  1
  O2-  O235  1  0.70273752  0.33452782  0.39842390  1
  O2-  O236  1  0.70830930  0.33939019  0.72801017  1
  O2-  O237  1  0.69966220  0.82825530  0.06520664  1
  O2-  O238  1  0.69509067  0.82934777  0.40249739  1
  O2-  O239  1  0.70277808  0.83373009  0.72843394  1
  O2-  O240  1  0.44738500  0.42215227  0.27458387  1
  O2-  O241  1  0.45225136  0.41783162  0.60527453  1
  O2-  O242  1  0.45163057  0.41897064  0.94053669  1
  O2-  O243  1  0.45753802  0.91627902  0.26203613  1
  O2-  O244  1  0.45965821  0.91464296  0.59530075  1
  O2-  O245  1  0.46038546  0.91548199  0.92816069  1
  O2-  O246  1  0.96388535  0.41503726  0.26486732  1
  O2-  O247  1  0.95570150  0.41798872  0.60443394  1
  O2-  O248  1  0.95961811  0.41462186  0.92732073  1
  O2-  O249  1  0.94911294  0.91446984  0.27291350  1
  O2-  O250  1  0.95550419  0.91157159  0.60330929  1
  O2-  O251  1  0.95556583  0.91833782  0.93913941  1
  O2-  O252  1  0.33458356  0.29823961  0.26994034  1
  O2-  O253  1  0.33314752  0.29890211  0.60952745  1
  O2-  O254  1  0.33080173  0.30060112  0.94052848  1
  O2-  O255  1  0.33604170  0.78506441  0.26350772  1
  O2-  O256  1  0.33399743  0.78717754  0.59414503  1
  O2-  O257  1  0.33562172  0.78654867  0.92882769  1
  O2-  O258  1  0.82942583  0.29935676  0.26858311  1
  O2-  O259  1  0.83463700  0.30120465  0.60268057  1
  O2-  O260  1  0.83587019  0.28756019  0.92815088  1
  O2-  O261  1  0.82911595  0.79553368  0.27692760  1
  O2-  O262  1  0.83568442  0.79193040  0.60343821  1
  O2-  O263  1  0.83327126  0.79987522  0.93629787  1
  O2-  O264  1  0.41628579  0.04135002  0.06215522  1
  O2-  O265  1  0.40811699  0.03778061  0.39410741  1
  O2-  O266  1  0.41762334  0.03534355  0.73292251  1
  O2-  O267  1  0.41760336  0.54667834  0.07096879  1
  O2-  O268  1  0.41357841  0.55068059  0.39921141  1
  O2-  O269  1  0.41791520  0.55366091  0.72529865  1
  O2-  O270  1  0.92039980  0.04906930  0.06810613  1
  O2-  O271  1  0.92112478  0.04214848  0.40287571  1
  O2-  O272  1  0.91730843  0.03833859  0.73556010  1
  O2-  O273  1  0.91486463  0.54155535  0.05833903  1
  O2-  O274  1  0.91783529  0.53602444  0.40195684  1
  O2-  O275  1  0.91206269  0.54424947  0.73235166  1
  O2-  O276  1  0.30525554  0.16694468  0.06339276  1
  O2-  O277  1  0.29576736  0.16462192  0.39419164  1
  O2-  O278  1  0.29492195  0.16520176  0.73635069  1
  O2-  O279  1  0.28817694  0.66916637  0.06753771  1
  O2-  O280  1  0.28744755  0.66353044  0.39820082  1
  O2-  O281  1  0.29208890  0.66599066  0.72639848  1
  O2-  O282  1  0.78792890  0.16947226  0.06677009  1
  O2-  O283  1  0.79252154  0.17145735  0.40222939  1
  O2-  O284  1  0.79213133  0.17081160  0.73205075  1
  O2-  O285  1  0.80506170  0.66824164  0.05910716  1
  O2-  O286  1  0.79293940  0.66412257  0.40515315  1
  O2-  O287  1  0.79509893  0.66434560  0.73121197  1
