# generated using pymatgen
data_Ca2Al2SiO7
_symmetry_space_group_name_H-M   'P 1'
_cell_length_a   15.45915307
_cell_length_b   15.45822021
_cell_length_c   15.28412329
_cell_angle_alpha   89.99773304
_cell_angle_beta   89.99520925
_cell_angle_gamma   90.00908891
_symmetry_Int_Tables_number   1
_chemical_formula_structural   Ca2Al2SiO7
_chemical_formula_sum   'Ca48 Al48 Si24 O168'
_cell_volume   3652.46204952
_cell_formula_units_Z   24
loop_
 _symmetry_equiv_pos_site_id
 _symmetry_equiv_pos_as_xyz
  1  'x, y, z'
loop_
 _atom_type_symbol
 _atom_type_oxidation_number
  Ca2+  2.0
  Al0+  0.0
  Si0+  0.0
  O2-  -2.0
loop_
 _atom_site_type_symbol
 _atom_site_label
 _atom_site_symmetry_multiplicity
 _atom_site_fract_x
 _atom_site_fract_y
 _atom_site_fract_z
 _atom_site_occupancy
  Ca2+  Ca0  1  0.16497944  0.08079931  0.16182311  1
  Ca2+  Ca1  1  0.16981518  0.07562527  0.51235864  1
  Ca2+  Ca2  1  0.16874595  0.07985957  0.83911208  1
  Ca2+  Ca3  1  0.17063769  0.57951694  0.17207344  1
  Ca2+  Ca4  1  0.16664278  0.58372889  0.50540509  1
  Ca2+  Ca5  1  0.15521146  0.57103928  0.83416062  1
  Ca2+  Ca6  1  0.67459245  0.07967609  0.17361804  1
  Ca2+  Ca7  1  0.68153671  0.08527982  0.50424918  1
  Ca2+  Ca8  1  0.67517757  0.08632605  0.83372227  1
  Ca2+  Ca9  1  0.67188065  0.57911512  0.17916548  1
  Ca2+  Ca10  1  0.67339039  0.57948031  0.50164411  1
  Ca2+  Ca11  1  0.67280772  0.58016260  0.83163166  1
  Ca2+  Ca12  1  0.07785256  0.32826347  0.15398303  1
  Ca2+  Ca13  1  0.08776431  0.32767282  0.50140958  1
  Ca2+  Ca14  1  0.08962508  0.32497838  0.82953055  1
  Ca2+  Ca15  1  0.07655858  0.82864587  0.16340203  1
  Ca2+  Ca16  1  0.08264987  0.82228319  0.49471649  1
  Ca2+  Ca17  1  0.08520650  0.83333501  0.82831792  1
  Ca2+  Ca18  1  0.57200476  0.34140367  0.16540664  1
  Ca2+  Ca19  1  0.58022080  0.34192065  0.49312062  1
  Ca2+  Ca20  1  0.57660154  0.33600388  0.83022440  1
  Ca2+  Ca21  1  0.58049453  0.82371558  0.16052227  1
  Ca2+  Ca22  1  0.58057129  0.82579397  0.49298458  1
  Ca2+  Ca23  1  0.57405150  0.83785044  0.83244326  1
  Ca2+  Ca24  1  0.32902195  0.41330040  0.17092764  1
  Ca2+  Ca25  1  0.33097741  0.42195223  0.50097921  1
  Ca2+  Ca26  1  0.32040879  0.41277258  0.83933367  1
  Ca2+  Ca27  1  0.33031204  0.91593722  0.16453506  1
  Ca2+  Ca28  1  0.32542763  0.92265957  0.51151205  1
  Ca2+  Ca29  1  0.32145025  0.92425728  0.84304324  1
  Ca2+  Ca30  1  0.82859274  0.42022487  0.17640782  1
  Ca2+  Ca31  1  0.82373133  0.42746943  0.50708270  1
  Ca2+  Ca32  1  0.83582412  0.41979154  0.83543593  1
  Ca2+  Ca33  1  0.84479194  0.92073320  0.17226369  1
  Ca2+  Ca34  1  0.84185996  0.92395134  0.49975663  1
  Ca2+  Ca35  1  0.84144510  0.92243689  0.83642022  1
  Ca2+  Ca36  1  0.41429283  0.17684949  0.15903925  1
  Ca2+  Ca37  1  0.41578813  0.17367730  0.49564792  1
  Ca2+  Ca38  1  0.40585241  0.16837175  0.83158891  1
  Ca2+  Ca39  1  0.42121902  0.66406671  0.16540115  1
  Ca2+  Ca40  1  0.42180120  0.66181569  0.48931985  1
  Ca2+  Ca41  1  0.41109098  0.67514229  0.83270917  1
  Ca2+  Ca42  1  0.92019172  0.17261756  0.15774595  1
  Ca2+  Ca43  1  0.92064785  0.15991059  0.49775649  1
  Ca2+  Ca44  1  0.92902385  0.16948234  0.82886835  1
  Ca2+  Ca45  1  0.91452402  0.67483856  0.16433149  1
  Ca2+  Ca46  1  0.92391046  0.66406990  0.49259983  1
  Ca2+  Ca47  1  0.92132981  0.67227214  0.82558576  1
  Al0+  Al48  1  0.00133652  -0.00040706  -0.00235726  1
  Al0+  Al49  1  0.00250043  -0.00136159  0.33414361  1
  Al0+  Al50  1  -0.00024337  0.00080452  0.66981274  1
  Al0+  Al51  1  -0.00165422  0.50108281  0.00391583  1
  Al0+  Al52  1  0.00084472  0.49677709  0.33303090  1
  Al0+  Al53  1  -0.00080028  0.50087474  0.66887927  1
  Al0+  Al54  1  0.50172519  -0.00101617  0.00096305  1
  Al0+  Al55  1  0.50016315  0.00178505  0.33391625  1
  Al0+  Al56  1  0.50089248  0.00349672  0.66625887  1
  Al0+  Al57  1  0.50186958  0.49881502  -0.00669256  1
  Al0+  Al58  1  0.49668735  0.50031224  0.33090088  1
  Al0+  Al59  1  0.50024261  0.50160817  0.67096395  1
  Al0+  Al60  1  0.25060148  0.25014258  0.00148002  1
  Al0+  Al61  1  0.25042958  0.24835246  0.32951023  1
  Al0+  Al62  1  0.24999990  0.25182735  0.66535473  1
  Al0+  Al63  1  0.25145227  0.74932905  0.00058919  1
  Al0+  Al64  1  0.24917424  0.74884814  0.33347476  1
  Al0+  Al65  1  0.24921017  0.75153113  0.66496140  1
  Al0+  Al66  1  0.74904124  0.25149915  -0.00201522  1
  Al0+  Al67  1  0.74982354  0.24760727  0.34139875  1
  Al0+  Al68  1  0.74813851  0.25012691  0.67441744  1
  Al0+  Al69  1  0.75131174  0.74983738  -0.00589406  1
  Al0+  Al70  1  0.74942122  0.75121559  0.32924283  1
  Al0+  Al71  1  0.74735375  0.75046317  0.66927499  1
  Al0+  Al72  1  0.07068504  0.17983747  0.65141385  1
  Al0+  Al73  1  0.67768524  0.42955884  0.34685921  1
  Al0+  Al74  1  0.07279561  0.67458853  0.31692837  1
  Al0+  Al75  1  0.92625752  0.32398771  0.98536480  1
  Al0+  Al76  1  0.82165588  0.06996925  0.68258951  1
  Al0+  Al77  1  0.67723534  0.42936593  0.68446124  1
  Al0+  Al78  1  0.82229720  0.06899199  0.34571325  1
  Al0+  Al79  1  0.42935266  0.82072256  0.98661224  1
  Al0+  Al80  1  0.32255231  0.07078435  0.01766070  1
  Al0+  Al81  1  0.17743601  0.92684284  0.01839809  1
  Al0+  Al82  1  0.17902174  0.92767651  0.68148632  1
  Al0+  Al83  1  0.07003695  0.67837006  0.65294424  1
  Al0+  Al84  1  0.17848609  0.42957731  0.01465185  1
  Al0+  Al85  1  0.18007556  0.43086240  0.67830707  1
  Al0+  Al86  1  0.82303573  0.57334072  0.34716272  1
  Al0+  Al87  1  0.93005498  0.82020249  0.98440017  1
  Al0+  Al88  1  0.82144490  0.57245717  0.68292002  1
  Al0+  Al89  1  0.56980448  0.67993006  0.32046995  1
  Al0+  Al90  1  0.32169277  0.07237278  0.68044198  1
  Al0+  Al91  1  0.93087070  0.82079518  0.31941916  1
  Al0+  Al92  1  0.31788531  0.57023131  0.34512788  1
  Al0+  Al93  1  0.43003193  0.31968926  0.31987683  1
  Al0+  Al94  1  0.42988841  0.32005461  0.98443817  1
  Al0+  Al95  1  0.07056992  0.18076205  0.98465169  1
  Si0+  Si96  1  0.07307609  0.67777818  0.98389494  1
  Si0+  Si97  1  0.92563981  0.82216007  0.64992513  1
  Si0+  Si98  1  0.18088997  0.92958533  0.34875716  1
  Si0+  Si99  1  0.81998560  0.07043549  0.01436212  1
  Si0+  Si100  1  0.17747520  0.42415785  0.34975345  1
  Si0+  Si101  1  0.42959593  0.82269020  0.65156843  1
  Si0+  Si102  1  0.57300394  0.67768222  0.97995263  1
  Si0+  Si103  1  0.67514246  0.92773717  0.34891739  1
  Si0+  Si104  1  0.57290866  0.17661040  0.98313692  1
  Si0+  Si105  1  0.42991601  0.32198023  0.65081945  1
  Si0+  Si106  1  0.32311425  0.57358332  0.68336357  1
  Si0+  Si107  1  0.32180565  0.07232868  0.34826045  1
  Si0+  Si108  1  0.56950519  0.67940986  0.65095194  1
  Si0+  Si109  1  0.57415850  0.17709503  0.31745414  1
  Si0+  Si110  1  0.67967369  0.92714255  0.01486535  1
  Si0+  Si111  1  0.57307955  0.17954633  0.65022059  1
  Si0+  Si112  1  0.07090628  0.17845205  0.31838802  1
  Si0+  Si113  1  0.67673114  0.92814379  0.68349912  1
  Si0+  Si114  1  0.42692300  0.82500502  0.31798832  1
  Si0+  Si115  1  0.81963082  0.57265502  0.01602750  1
  Si0+  Si116  1  0.67860097  0.42948473  0.01596143  1
  Si0+  Si117  1  0.92596717  0.32142290  0.64926031  1
  Si0+  Si118  1  0.32448110  0.57090519  0.01558962  1
  Si0+  Si119  1  0.92710219  0.31879558  0.32187127  1
  O2-  O120  1  0.25069708  -0.00145114  0.06833454  1
  O2-  O121  1  0.25541111  -0.00241263  0.39018761  1
  O2-  O122  1  0.25040574  0.00057422  0.73036737  1
  O2-  O123  1  0.25525605  0.50306088  0.05997041  1
  O2-  O124  1  0.24103942  0.49833949  0.39271929  1
  O2-  O125  1  0.25214644  0.50754255  0.72665208  1
  O2-  O126  1  0.75088222  -0.00227205  0.05740631  1
  O2-  O127  1  0.74632983  -0.00546236  0.39192004  1
  O2-  O128  1  0.74865722  -0.00720142  0.72845982  1
  O2-  O129  1  0.75072779  0.49912333  0.05768544  1
  O2-  O130  1  0.75044914  0.50100785  0.39615477  1
  O2-  O131  1  0.75230990  0.49799665  0.73443147  1
  O2-  O132  1  -0.00047205  0.24984444  0.27821030  1
  O2-  O133  1  -0.00622841  0.25227162  0.60308693  1
  O2-  O134  1  0.00058670  0.25514830  0.93496071  1
  O2-  O135  1  -0.00267005  0.74404392  0.26832636  1
  O2-  O136  1  -0.00637052  0.75236739  0.60695294  1
  O2-  O137  1  0.00718477  0.74848083  0.93855819  1
  O2-  O138  1  0.50652799  0.24621961  0.27315931  1
  O2-  O139  1  0.50277351  0.25208659  0.60895364  1
  O2-  O140  1  0.50120372  0.24170716  0.93817670  1
  O2-  O141  1  0.49680975  0.75708263  0.27450120  1
  O2-  O142  1  0.49810960  0.74999251  0.60824408  1
  O2-  O143  1  0.50252130  0.74540905  0.93710626  1
  O2-  O144  1  0.06589302  0.18067593  0.09925651  1
  O2-  O145  1  0.07226327  0.17807880  0.42365788  1
  O2-  O146  1  0.07168178  0.18098882  0.76367403  1
  O2-  O147  1  0.07072820  0.67722984  0.08942708  1
  O2-  O148  1  0.07456907  0.67871192  0.43066193  1
  O2-  O149  1  0.06958131  0.67876841  0.76605070  1
  O2-  O150  1  0.57645590  0.17858894  0.08879452  1
  O2-  O151  1  0.57217803  0.17470415  0.42304137  1
  O2-  O152  1  0.57310983  0.17745539  0.75509104  1
  O2-  O153  1  0.57420811  0.67773527  0.08563560  1
  O2-  O154  1  0.56736710  0.68115666  0.43397533  1
  O2-  O155  1  0.56852657  0.68063129  0.75603710  1
  O2-  O156  1  0.18008301  0.42071666  0.24433254  1
  O2-  O157  1  0.18413939  0.42958876  0.56506351  1
  O2-  O158  1  0.17940741  0.43092116  0.90143242  1
  O2-  O159  1  0.17966286  0.93119263  0.24403202  1
  O2-  O160  1  0.18235593  0.92751379  0.56699296  1
  O2-  O161  1  0.17844179  0.92661757  0.90524635  1
  O2-  O162  1  0.67961079  0.42977234  0.23272066  1
  O2-  O163  1  0.67454199  0.43300121  0.57103809  1
  O2-  O164  1  0.67734540  0.43100412  0.91114691  1
  O2-  O165  1  0.67046399  0.93081574  0.24341113  1
  O2-  O166  1  0.67389870  0.92913194  0.57790673  1
  O2-  O167  1  0.67934022  0.92821501  0.90974068  1
  O2-  O168  1  0.43321134  0.32238728  0.09762328  1
  O2-  O169  1  0.42838434  0.31750872  0.43331954  1
  O2-  O170  1  0.43007475  0.32122459  0.75578373  1
  O2-  O171  1  0.43372457  0.81882161  0.09977299  1
  O2-  O172  1  0.42877301  0.82610225  0.42398304  1
  O2-  O173  1  0.43183615  0.82211314  0.75653076  1
  O2-  O174  1  0.92322069  0.31991135  0.09985991  1
  O2-  O175  1  0.92730217  0.31720909  0.42678872  1
  O2-  O176  1  0.92772276  0.31951758  0.75472923  1
  O2-  O177  1  0.92674170  0.81794047  0.09722021  1
  O2-  O178  1  0.93596239  0.82585126  0.43269323  1
  O2-  O179  1  0.92557362  0.82070469  0.75569772  1
  O2-  O180  1  0.32138370  0.07378313  0.24375224  1
  O2-  O181  1  0.32213204  0.06981306  0.56582928  1
  O2-  O182  1  0.32217768  0.06862626  0.90434647  1
  O2-  O183  1  0.31960933  0.56828763  0.23218010  1
  O2-  O184  1  0.32675245  0.57126538  0.57763375  1
  O2-  O185  1  0.32505589  0.57057867  0.90989306  1
  O2-  O186  1  0.82098349  0.06968348  0.23226749  1
  O2-  O187  1  0.82050157  0.06854075  0.56915968  1
  O2-  O188  1  0.81737343  0.07002286  0.90942895  1
  O2-  O189  1  0.82003275  0.57087803  0.23299652  1
  O2-  O190  1  0.81880232  0.57325152  0.56951668  1
  O2-  O191  1  0.81746199  0.57412984  0.91113829  1
  O2-  O192  1  0.04240549  0.08726983  0.27122555  1
  O2-  O193  1  0.03990141  0.08194243  0.59848730  1
  O2-  O194  1  0.04015384  0.08325650  0.93227439  1
  O2-  O195  1  0.05123948  0.57326081  0.26670762  1
  O2-  O196  1  0.04133734  0.58097862  0.59879837  1
  O2-  O197  1  0.04234765  0.58528945  0.93878052  1
  O2-  O198  1  0.54842202  0.08358998  0.27019159  1
  O2-  O199  1  0.54539104  0.08832442  0.60044388  1
  O2-  O200  1  0.55349552  0.08128431  0.93838343  1
  O2-  O201  1  0.53548672  0.58577861  0.26419096  1
  O2-  O202  1  0.54086332  0.58738904  0.60448484  1
  O2-  O203  1  0.54873913  0.58456698  0.93283639  1
  O2-  O204  1  0.16200361  0.20587989  0.26984278  1
  O2-  O205  1  0.16671280  0.21334142  0.59586162  1
  O2-  O206  1  0.16974278  0.20724372  0.93414321  1
  O2-  O207  1  0.17044908  0.70698571  0.26401973  1
  O2-  O208  1  0.16762030  0.70900980  0.59857112  1
  O2-  O209  1  0.16831617  0.69775913  0.93959849  1
  O2-  O210  1  0.66901739  0.20021001  0.27276268  1
  O2-  O211  1  0.66559125  0.20640045  0.60343292  1
  O2-  O212  1  0.66419314  0.20695578  0.93459129  1
  O2-  O213  1  0.66533934  0.70901835  0.26340566  1
  O2-  O214  1  0.66110632  0.70835391  0.60361156  1
  O2-  O215  1  0.66450990  0.70695597  0.93200509  1
  O2-  O216  1  0.08156051  0.45935938  0.06957911  1
  O2-  O217  1  0.08210774  0.44198096  0.39439601  1
  O2-  O218  1  0.08322800  0.45776450  0.73276958  1
  O2-  O219  1  0.07895573  0.95838374  0.07069997  1
  O2-  O220  1  0.09172397  0.96189454  0.39785499  1
  O2-  O221  1  0.08030535  0.95333661  0.73257224  1
  O2-  O222  1  0.58679873  0.46005568  0.06216060  1
  O2-  O223  1  0.57919014  0.45933248  0.39784634  1
  O2-  O224  1  0.58050282  0.46251701  0.73926813  1
  O2-  O225  1  0.58910657  0.95406947  0.06460003  1
  O2-  O226  1  0.58258643  0.95472949  0.39816012  1
  O2-  O227  1  0.58525960  0.95947918  0.73095806  1
  O2-  O228  1  0.20909158  0.33352347  0.06901619  1
  O2-  O229  1  0.20998121  0.33233957  0.39663239  1
  O2-  O230  1  0.21471209  0.33624240  0.73278612  1
  O2-  O231  1  0.20795766  0.82795953  0.07021603  1
  O2-  O232  1  0.20617424  0.83698679  0.39557375  1
  O2-  O233  1  0.20908496  0.82999047  0.73469345  1
  O2-  O234  1  0.70337346  0.33647064  0.06249767  1
  O2-  O235  1  0.70274583  0.33076220  0.40072503  1
  O2-  O236  1  0.69904601  0.32990462  0.73719870  1
  O2-  O237  1  0.70698229  0.83410548  0.06015769  1
  O2-  O238  1  0.69800353  0.83355688  0.39394650  1
  O2-  O239  1  0.69588461  0.83367134  0.73000121  1
  O2-  O240  1  0.45866187  0.41539733  0.26383371  1
  O2-  O241  1  0.45780394  0.41543329  0.60581360  1
  O2-  O242  1  0.46349670  0.41484327  0.92805030  1
  O2-  O243  1  0.45110785  0.91932983  0.27220381  1
  O2-  O244  1  0.45986516  0.91406397  0.60385019  1
  O2-  O245  1  0.46390021  0.91608553  0.93213123  1
  O2-  O246  1  0.95162471  0.41055408  0.27296985  1
  O2-  O247  1  0.95217585  0.41532993  0.60476945  1
  O2-  O248  1  0.95015959  0.42473845  0.93625876  1
  O2-  O249  1  0.96593467  0.91749906  0.26471647  1
  O2-  O250  1  0.95153799  0.91644095  0.60621754  1
  O2-  O251  1  0.95742461  0.91767087  0.93181120  1
  O2-  O252  1  0.33472525  0.28563505  0.26453665  1
  O2-  O253  1  0.33963381  0.29333202  0.60135797  1
  O2-  O254  1  0.33266030  0.29160849  0.93194264  1
  O2-  O255  1  0.33406878  0.79813681  0.27265785  1
  O2-  O256  1  0.33750296  0.79763794  0.60385034  1
  O2-  O257  1  0.33333394  0.78978477  0.93135354  1
  O2-  O258  1  0.83544142  0.28879442  0.27482110  1
  O2-  O259  1  0.83048810  0.29595512  0.60695662  1
  O2-  O260  1  0.82850896  0.29446335  0.93162882  1
  O2-  O261  1  0.82950134  0.80279301  0.26763021  1
  O2-  O262  1  0.82985013  0.79979834  0.60609879  1
  O2-  O263  1  0.83403062  0.78939918  0.92849894  1
  O2-  O264  1  0.42273205  0.04309989  0.06910453  1
  O2-  O265  1  0.41579486  0.05024853  0.39494327  1
  O2-  O266  1  0.42156582  0.04739937  0.73151224  1
  O2-  O267  1  0.41956124  0.54455339  0.05890019  1
  O2-  O268  1  0.41279351  0.53652949  0.40081562  1
  O2-  O269  1  0.41508213  0.54779397  0.73199362  1
  O2-  O270  1  0.91191976  0.04353410  0.06080633  1
  O2-  O271  1  0.91841402  0.03692415  0.40068307  1
  O2-  O272  1  0.91721260  0.04101574  0.73797592  1
  O2-  O273  1  0.91158044  0.54908974  0.06425587  1
  O2-  O274  1  0.92164486  0.54327105  0.39880041  1
  O2-  O275  1  0.91949110  0.54602387  0.73650876  1
  O2-  O276  1  0.29377472  0.16928298  0.06997650  1
  O2-  O277  1  0.28972852  0.16251660  0.39640962  1
  O2-  O278  1  0.29395951  0.17104568  0.73062838  1
  O2-  O279  1  0.30146794  0.66471651  0.06187912  1
  O2-  O280  1  0.29379672  0.66840420  0.40072869  1
  O2-  O281  1  0.30004361  0.66862758  0.72640707  1
  O2-  O282  1  0.78959837  0.16222251  0.06110486  1
  O2-  O283  1  0.79168360  0.16298453  0.40465050  1
  O2-  O284  1  0.78753352  0.16439800  0.73772327  1
  O2-  O285  1  0.78769482  0.66405165  0.06222227  1
  O2-  O286  1  0.79514778  0.67293063  0.39752141  1
  O2-  O287  1  0.78843342  0.66989356  0.73655407  1
