# generated using pymatgen
data_Ca2Al2SiO7
_symmetry_space_group_name_H-M   'P 1'
_cell_length_a   15.46135416
_cell_length_b   15.46104900
_cell_length_c   15.28624256
_cell_angle_alpha   89.99189072
_cell_angle_beta   90.02256304
_cell_angle_gamma   90.00856819
_symmetry_Int_Tables_number   1
_chemical_formula_structural   Ca2Al2SiO7
_chemical_formula_sum   'Ca48 Al48 Si24 O168'
_cell_volume   3654.15687947
_cell_formula_units_Z   24
loop_
 _symmetry_equiv_pos_site_id
 _symmetry_equiv_pos_as_xyz
  1  'x, y, z'
loop_
 _atom_type_symbol
 _atom_type_oxidation_number
  Ca2+  2.0
  Al0+  0.0
  Si0+  0.0
  O2-  -2.0
loop_
 _atom_site_type_symbol
 _atom_site_label
 _atom_site_symmetry_multiplicity
 _atom_site_fract_x
 _atom_site_fract_y
 _atom_site_fract_z
 _atom_site_occupancy
  Ca2+  Ca0  1  0.17374883  0.08397609  0.17559820  1
  Ca2+  Ca1  1  0.15566369  0.07416158  0.50571116  1
  Ca2+  Ca2  1  0.17115906  0.08447652  0.83659316  1
  Ca2+  Ca3  1  0.16611094  0.57847659  0.17084248  1
  Ca2+  Ca4  1  0.16419774  0.58610513  0.50476346  1
  Ca2+  Ca5  1  0.16727770  0.57676140  0.83687611  1
  Ca2+  Ca6  1  0.66441349  0.08289363  0.17361077  1
  Ca2+  Ca7  1  0.67571804  0.08914641  0.50642962  1
  Ca2+  Ca8  1  0.65841390  0.07930911  0.83529849  1
  Ca2+  Ca9  1  0.66845704  0.57043652  0.17761479  1
  Ca2+  Ca10  1  0.67530141  0.57514060  0.50492849  1
  Ca2+  Ca11  1  0.66827161  0.56957975  0.83499700  1
  Ca2+  Ca12  1  0.07435376  0.33614100  0.16491187  1
  Ca2+  Ca13  1  0.07238705  0.31885584  0.49238520  1
  Ca2+  Ca14  1  0.08336143  0.32877573  0.82561995  1
  Ca2+  Ca15  1  0.08527404  0.83118146  0.16945205  1
  Ca2+  Ca16  1  0.08745243  0.82602467  0.49343822  1
  Ca2+  Ca17  1  0.08256618  0.82761960  0.82200785  1
  Ca2+  Ca18  1  0.58667603  0.32400024  0.15961220  1
  Ca2+  Ca19  1  0.58969630  0.32889475  0.49629725  1
  Ca2+  Ca20  1  0.58014439  0.32733816  0.82647632  1
  Ca2+  Ca21  1  0.59389709  0.82557287  0.16254682  1
  Ca2+  Ca22  1  0.59028102  0.82787016  0.49533428  1
  Ca2+  Ca23  1  0.58724214  0.83845637  0.82865149  1
  Ca2+  Ca24  1  0.32764877  0.40680562  0.16501887  1
  Ca2+  Ca25  1  0.33463753  0.41567286  0.50477995  1
  Ca2+  Ca26  1  0.32978934  0.40552406  0.83921260  1
  Ca2+  Ca27  1  0.32996209  0.92616841  0.17084609  1
  Ca2+  Ca28  1  0.32130972  0.91754408  0.50360953  1
  Ca2+  Ca29  1  0.32830730  0.92626573  0.83734457  1
  Ca2+  Ca30  1  0.82245200  0.41541885  0.17710312  1
  Ca2+  Ca31  1  0.82750849  0.41959509  0.50052936  1
  Ca2+  Ca32  1  0.82125917  0.41516537  0.83236704  1
  Ca2+  Ca33  1  0.82944131  0.92546085  0.17050635  1
  Ca2+  Ca34  1  0.83037791  0.92954926  0.50663077  1
  Ca2+  Ca35  1  0.82358516  0.92501334  0.83145754  1
  Ca2+  Ca36  1  0.42740652  0.16812368  0.15767573  1
  Ca2+  Ca37  1  0.43052137  0.17101494  0.49983227  1
  Ca2+  Ca38  1  0.42348886  0.17412363  0.83005685  1
  Ca2+  Ca39  1  0.42339276  0.66856195  0.16842760  1
  Ca2+  Ca40  1  0.42612913  0.66996932  0.49297351  1
  Ca2+  Ca41  1  0.41810599  0.67069546  0.82851896  1
  Ca2+  Ca42  1  0.91658909  0.16795103  0.17275215  1
  Ca2+  Ca43  1  0.91813064  0.16343731  0.49178080  1
  Ca2+  Ca44  1  0.92207831  0.16510537  0.82502289  1
  Ca2+  Ca45  1  0.91813153  0.66131653  0.16788943  1
  Ca2+  Ca46  1  0.92151476  0.66109316  0.49374088  1
  Ca2+  Ca47  1  0.92034397  0.66615764  0.82343253  1
  Al0+  Al48  1  -0.00164461  -0.00272266  -0.00125136  1
  Al0+  Al49  1  0.00036540  -0.00228883  0.33480011  1
  Al0+  Al50  1  -0.00147812  -0.00337100  0.67324052  1
  Al0+  Al51  1  0.00178541  0.49971559  0.00141163  1
  Al0+  Al52  1  0.00054557  0.49935137  0.32810800  1
  Al0+  Al53  1  0.00224943  0.50008786  0.66620375  1
  Al0+  Al54  1  0.49920500  -0.00234721  0.00580159  1
  Al0+  Al55  1  0.49657431  0.00058729  0.33195379  1
  Al0+  Al56  1  0.49698753  0.00196074  0.66406360  1
  Al0+  Al57  1  0.49936720  0.50162176  0.00074200  1
  Al0+  Al58  1  0.49774079  0.50126453  0.33201854  1
  Al0+  Al59  1  0.49861402  0.50301919  0.66743632  1
  Al0+  Al60  1  0.25006380  0.24908872  0.00743750  1
  Al0+  Al61  1  0.25143538  0.24912329  0.33461926  1
  Al0+  Al62  1  0.24962352  0.24963152  0.65645760  1
  Al0+  Al63  1  0.25047040  0.74877173  -0.00073026  1
  Al0+  Al64  1  0.24979420  0.75018685  0.33094988  1
  Al0+  Al65  1  0.24993110  0.75007526  0.66779305  1
  Al0+  Al66  1  0.75313223  0.24958458  -0.00173589  1
  Al0+  Al67  1  0.74958359  0.24885495  0.33226090  1
  Al0+  Al68  1  0.75123915  0.25210592  0.67220111  1
  Al0+  Al69  1  0.75277746  0.75195504  0.00082761  1
  Al0+  Al70  1  0.75137698  0.74889660  0.32993661  1
  Al0+  Al71  1  0.75148226  0.75149805  0.67293373  1
  Al0+  Al72  1  0.57027839  0.17989902  0.31970393  1
  Al0+  Al73  1  0.57249360  0.17943171  0.65113335  1
  Al0+  Al74  1  0.18101301  0.93004174  0.34653489  1
  Al0+  Al75  1  0.82154477  0.07343913  0.68244865  1
  Al0+  Al76  1  0.07085014  0.67940976  0.65321831  1
  Al0+  Al77  1  0.67663134  0.42820557  0.34821071  1
  Al0+  Al78  1  0.06897599  0.17679647  0.65470284  1
  Al0+  Al79  1  0.81865228  0.06920538  0.34519545  1
  Al0+  Al80  1  0.17991191  0.42935663  0.01363110  1
  Al0+  Al81  1  0.82264933  0.57162110  0.34725179  1
  Al0+  Al82  1  0.57297997  0.17733241  0.98458808  1
  Al0+  Al83  1  0.92925288  0.32002076  0.31814605  1
  Al0+  Al84  1  0.31931082  0.06992406  0.01386306  1
  Al0+  Al85  1  0.07161785  0.67895032  0.31759517  1
  Al0+  Al86  1  0.67978070  0.93033834  0.01516069  1
  Al0+  Al87  1  0.67650560  0.42967141  0.68261101  1
  Al0+  Al88  1  0.57253628  0.68003891  0.32011066  1
  Al0+  Al89  1  0.67870011  0.42865850  0.01426776  1
  Al0+  Al90  1  0.07162762  0.17539909  0.31783204  1
  Al0+  Al91  1  0.42880152  0.32385127  0.65059997  1
  Al0+  Al92  1  0.82404625  0.57087282  0.68178422  1
  Al0+  Al93  1  0.17929623  0.92787524  0.68131905  1
  Al0+  Al94  1  0.42818383  0.32127621  0.98639248  1
  Al0+  Al95  1  0.67612984  0.93089811  0.67939393  1
  Si0+  Si96  1  0.18177337  0.42854472  0.67847129  1
  Si0+  Si97  1  0.07066248  0.17837916  0.98715140  1
  Si0+  Si98  1  0.82510356  0.07208903  0.01800381  1
  Si0+  Si99  1  0.42759498  0.82100009  0.31604889  1
  Si0+  Si100  1  0.32211515  0.57562180  0.01818883  1
  Si0+  Si101  1  0.67538794  0.92718430  0.34782238  1
  Si0+  Si102  1  0.82215760  0.57162716  0.01630807  1
  Si0+  Si103  1  0.32338979  0.07384188  0.35411608  1
  Si0+  Si104  1  0.32108047  0.57256031  0.68127840  1
  Si0+  Si105  1  0.31965540  0.07340428  0.68233213  1
  Si0+  Si106  1  0.92866723  0.32319294  0.65143690  1
  Si0+  Si107  1  0.57261522  0.68019327  0.98408190  1
  Si0+  Si108  1  0.93074803  0.32275825  0.98307033  1
  Si0+  Si109  1  0.42769252  0.82178047  0.65241405  1
  Si0+  Si110  1  0.31892593  0.57138701  0.34861833  1
  Si0+  Si111  1  0.42730163  0.32419538  0.31571479  1
  Si0+  Si112  1  0.57183448  0.68140775  0.65375280  1
  Si0+  Si113  1  0.92692852  0.82039357  0.64934283  1
  Si0+  Si114  1  0.92899586  0.82117709  0.98193899  1
  Si0+  Si115  1  0.17661172  0.92604600  0.01652389  1
  Si0+  Si116  1  0.17869312  0.42797841  0.34976453  1
  Si0+  Si117  1  0.92802702  0.82198260  0.31515572  1
  Si0+  Si118  1  0.42821394  0.81985492  0.98466173  1
  Si0+  Si119  1  0.07095128  0.67887116  0.98380312  1
  O2-  O120  1  0.24251536  -0.00346055  0.06054313  1
  O2-  O121  1  0.25033563  0.00829087  0.39605294  1
  O2-  O122  1  0.24980695  0.00603054  0.72787624  1
  O2-  O123  1  0.25658856  0.50285570  0.06024796  1
  O2-  O124  1  0.24975522  0.49931685  0.39187836  1
  O2-  O125  1  0.25415901  0.49750081  0.72269677  1
  O2-  O126  1  0.74987855  0.00946738  0.06063814  1
  O2-  O127  1  0.74127784  -0.00273280  0.39221006  1
  O2-  O128  1  0.74298991  0.00704799  0.73099105  1
  O2-  O129  1  0.75300603  0.50428773  0.06048879  1
  O2-  O130  1  0.74898808  0.50135224  0.39616841  1
  O2-  O131  1  0.75078322  0.50065088  0.73182563  1
  O2-  O132  1  0.00291418  0.24954763  0.26648954  1
  O2-  O133  1  -0.00983471  0.24716621  0.60877297  1
  O2-  O134  1  0.00065313  0.24926247  0.94277825  1
  O2-  O135  1  -0.00548293  0.75060367  0.27028887  1
  O2-  O136  1  -0.00481299  0.75148469  0.60487446  1
  O2-  O137  1  0.00091587  0.74991273  0.94105784  1
  O2-  O138  1  0.49668597  0.25598991  0.27315878  1
  O2-  O139  1  0.50534628  0.25673777  0.60145625  1
  O2-  O140  1  0.50365305  0.25335575  0.93614590  1
  O2-  O141  1  0.50242849  0.75903601  0.27163335  1
  O2-  O142  1  0.50411630  0.75605270  0.61130085  1
  O2-  O143  1  0.50083303  0.75084695  0.94136138  1
  O2-  O144  1  0.06876618  0.17793052  0.09179449  1
  O2-  O145  1  0.06823508  0.17549851  0.43141124  1
  O2-  O146  1  0.07261434  0.18199359  0.76869785  1
  O2-  O147  1  0.07126687  0.67941960  0.08872555  1
  O2-  O148  1  0.07482776  0.68143288  0.43032950  1
  O2-  O149  1  0.07242027  0.68033291  0.76693098  1
  O2-  O150  1  0.57120236  0.17728336  0.09836711  1
  O2-  O151  1  0.56962912  0.17838474  0.43242631  1
  O2-  O152  1  0.56653782  0.17617941  0.76451047  1
  O2-  O153  1  0.57140931  0.68179013  0.08916642  1
  O2-  O154  1  0.56940260  0.68147103  0.43351053  1
  O2-  O155  1  0.56759763  0.68094592  0.75918720  1
  O2-  O156  1  0.18046339  0.42915754  0.24440498  1
  O2-  O157  1  0.18210416  0.43140469  0.57357993  1
  O2-  O158  1  0.17808210  0.43132510  0.90003999  1
  O2-  O159  1  0.18542806  0.92882115  0.23304815  1
  O2-  O160  1  0.18267294  0.92473394  0.56846887  1
  O2-  O161  1  0.17823379  0.92436574  0.91097406  1
  O2-  O162  1  0.67701250  0.42940128  0.23418725  1
  O2-  O163  1  0.67537310  0.43273402  0.56956515  1
  O2-  O164  1  0.67960747  0.43109699  0.90140174  1
  O2-  O165  1  0.67765263  0.92766688  0.24197694  1
  O2-  O166  1  0.67943221  0.92614882  0.56609373  1
  O2-  O167  1  0.68143827  0.92764765  0.90250051  1
  O2-  O168  1  0.42741424  0.31787155  0.09976357  1
  O2-  O169  1  0.42612453  0.32484559  0.42116957  1
  O2-  O170  1  0.42472748  0.32068752  0.76395194  1
  O2-  O171  1  0.42470517  0.81645509  0.08944008  1
  O2-  O172  1  0.42510807  0.81712686  0.42179767  1
  O2-  O173  1  0.42492214  0.81842931  0.75782791  1
  O2-  O174  1  0.93155302  0.32527728  0.08775825  1
  O2-  O175  1  0.93136475  0.32001974  0.43170437  1
  O2-  O176  1  0.93469784  0.32611616  0.75759165  1
  O2-  O177  1  0.92948724  0.82250940  0.08685831  1
  O2-  O178  1  0.92881489  0.82295862  0.42029420  1
  O2-  O179  1  0.92925824  0.81864806  0.75547554  1
  O2-  O180  1  0.32439430  0.07131076  0.24827371  1
  O2-  O181  1  0.32005678  0.06996078  0.57702287  1
  O2-  O182  1  0.31609613  0.06806424  0.90057351  1
  O2-  O183  1  0.31789576  0.57291437  0.24352202  1
  O2-  O184  1  0.32012587  0.57614684  0.57622566  1
  O2-  O185  1  0.31832900  0.58317915  0.91276001  1
  O2-  O186  1  0.81853758  0.06656696  0.23182608  1
  O2-  O187  1  0.82354640  0.06922642  0.56892505  1
  O2-  O188  1  0.83213104  0.06782056  0.91311979  1
  O2-  O189  1  0.82031659  0.57051073  0.23316862  1
  O2-  O190  1  0.82377410  0.57039730  0.56864798  1
  O2-  O191  1  0.82287632  0.57134698  0.91079775  1
  O2-  O192  1  0.04326180  0.07712983  0.26468568  1
  O2-  O193  1  0.04160106  0.07728586  0.60563431  1
  O2-  O194  1  0.04403326  0.08534142  0.94022746  1
  O2-  O195  1  0.04446490  0.58238236  0.26200865  1
  O2-  O196  1  0.04481528  0.58160912  0.59952190  1
  O2-  O197  1  0.04347461  0.58666346  0.93667560  1
  O2-  O198  1  0.53774704  0.08246902  0.26634659  1
  O2-  O199  1  0.53924230  0.08231477  0.59671257  1
  O2-  O200  1  0.53944547  0.07779032  0.93629847  1
  O2-  O201  1  0.53421000  0.58632483  0.26459084  1
  O2-  O202  1  0.53920221  0.59236185  0.60485043  1
  O2-  O203  1  0.54348480  0.58921395  0.93622041  1
  O2-  O204  1  0.17272405  0.20210530  0.26957139  1
  O2-  O205  1  0.16261591  0.20895800  0.59673205  1
  O2-  O206  1  0.16274020  0.20665213  0.94161177  1
  O2-  O207  1  0.16691367  0.71327734  0.26195548  1
  O2-  O208  1  0.16776823  0.71158205  0.60012520  1
  O2-  O209  1  0.16374089  0.70553997  0.93713125  1
  O2-  O210  1  0.66655906  0.20736279  0.26457618  1
  O2-  O211  1  0.67411328  0.20456826  0.60369156  1
  O2-  O212  1  0.67412518  0.20010956  0.93443855  1
  O2-  O213  1  0.66871381  0.70690165  0.26293969  1
  O2-  O214  1  0.66479101  0.70714310  0.60849980  1
  O2-  O215  1  0.66469333  0.70937187  0.93830592  1
  O2-  O216  1  0.08510895  0.46423370  0.06940846  1
  O2-  O217  1  0.08713231  0.45680524  0.39513381  1
  O2-  O218  1  0.09162373  0.45767561  0.72816145  1
  O2-  O219  1  0.08155895  0.94831853  0.06042862  1
  O2-  O220  1  0.08313601  0.95392990  0.40015315  1
  O2-  O221  1  0.08256708  0.95241824  0.73683859  1
  O2-  O222  1  0.58146863  0.46003226  0.06665801  1
  O2-  O223  1  0.57733985  0.45768180  0.39847921  1
  O2-  O224  1  0.57909958  0.46348469  0.73592613  1
  O2-  O225  1  0.58130700  0.95058093  0.06964428  1
  O2-  O226  1  0.57915630  0.94671989  0.39058736  1
  O2-  O227  1  0.57478417  0.95346445  0.73077178  1
  O2-  O228  1  0.20761230  0.33415224  0.07115059  1
  O2-  O229  1  0.20620368  0.33605467  0.39721711  1
  O2-  O230  1  0.20852658  0.33576318  0.72476785  1
  O2-  O231  1  0.20533124  0.83278539  0.06194360  1
  O2-  O232  1  0.21675651  0.83408463  0.39973086  1
  O2-  O233  1  0.21543073  0.83322062  0.73700204  1
  O2-  O234  1  0.71198715  0.33153501  0.06553377  1
  O2-  O235  1  0.70760337  0.33070469  0.39957688  1
  O2-  O236  1  0.70450990  0.33249008  0.73765733  1
  O2-  O237  1  0.71656895  0.83467135  0.06924172  1
  O2-  O238  1  0.70264009  0.83329949  0.39156923  1
  O2-  O239  1  0.70714082  0.83433183  0.73600741  1
  O2-  O240  1  0.44708959  0.41901076  0.26968778  1
  O2-  O241  1  0.44907537  0.42630623  0.60146422  1
  O2-  O242  1  0.44642570  0.42445893  0.93760356  1
  O2-  O243  1  0.44512340  0.91676721  0.27197424  1
  O2-  O244  1  0.44695818  0.91469282  0.60458522  1
  O2-  O245  1  0.45446054  0.91182657  0.93811810  1
  O2-  O246  1  0.95919560  0.41689803  0.26198288  1
  O2-  O247  1  0.96288837  0.41279516  0.60312967  1
  O2-  O248  1  0.96225931  0.41364539  0.93540385  1
  O2-  O249  1  0.95886699  0.91269519  0.26603157  1
  O2-  O250  1  0.95387242  0.91397177  0.60529081  1
  O2-  O251  1  0.95715288  0.91217173  0.93266911  1
  O2-  O252  1  0.33325517  0.29720208  0.27106220  1
  O2-  O253  1  0.33272225  0.29281010  0.59357563  1
  O2-  O254  1  0.32880260  0.28898220  0.93571825  1
  O2-  O255  1  0.33839715  0.78693927  0.26628791  1
  O2-  O256  1  0.33947242  0.78586167  0.60308469  1
  O2-  O257  1  0.33706191  0.79003309  0.93512625  1
  O2-  O258  1  0.83248780  0.28901102  0.26371911  1
  O2-  O259  1  0.83221819  0.30674711  0.60980952  1
  O2-  O260  1  0.83961611  0.29587591  0.93452682  1
  O2-  O261  1  0.83458010  0.79881273  0.26689285  1
  O2-  O262  1  0.83262873  0.79691932  0.60425141  1
  O2-  O263  1  0.83796142  0.79218563  0.93360048  1
  O2-  O264  1  0.41287400  0.03450651  0.07081088  1
  O2-  O265  1  0.41460218  0.04187510  0.40164216  1
  O2-  O266  1  0.41163406  0.04491779  0.72958217  1
  O2-  O267  1  0.41720829  0.55556961  0.06260831  1
  O2-  O268  1  0.41088627  0.54582153  0.39682135  1
  O2-  O269  1  0.41330462  0.55143777  0.73045769  1
  O2-  O270  1  0.91552181  0.03732463  0.06661453  1
  O2-  O271  1  0.91452296  0.03592694  0.39880338  1
  O2-  O272  1  0.91597850  0.03708774  0.73977794  1
  O2-  O273  1  0.91642327  0.54614667  0.06105353  1
  O2-  O274  1  0.92247151  0.54341284  0.39717529  1
  O2-  O275  1  0.92284589  0.54168939  0.73526699  1
  O2-  O276  1  0.28939444  0.16409822  0.07199096  1
  O2-  O277  1  0.30322817  0.16895396  0.39852696  1
  O2-  O278  1  0.29235738  0.16749235  0.72610460  1
  O2-  O279  1  0.29125585  0.66663287  0.06777479  1
  O2-  O280  1  0.29015529  0.66260386  0.39645341  1
  O2-  O281  1  0.28891446  0.66152534  0.73222086  1
  O2-  O282  1  0.80793482  0.16852099  0.05998656  1
  O2-  O283  1  0.79118286  0.16569855  0.39921281  1
  O2-  O284  1  0.80481528  0.17402938  0.73462120  1
  O2-  O285  1  0.79926914  0.66643315  0.06081457  1
  O2-  O286  1  0.79709541  0.67174698  0.39806859  1
  O2-  O287  1  0.79701229  0.66930545  0.73565979  1
