# generated using pymatgen
data_Ca2Al2SiO7
_symmetry_space_group_name_H-M   'P 1'
_cell_length_a   15.45759873
_cell_length_b   15.45803272
_cell_length_c   15.28290982
_cell_angle_alpha   90.00298559
_cell_angle_beta   90.01076274
_cell_angle_gamma   90.00162568
_symmetry_Int_Tables_number   1
_chemical_formula_structural   Ca2Al2SiO7
_chemical_formula_sum   'Ca48 Al48 Si24 O168'
_cell_volume   3651.76055688
_cell_formula_units_Z   24
loop_
 _symmetry_equiv_pos_site_id
 _symmetry_equiv_pos_as_xyz
  1  'x, y, z'
loop_
 _atom_type_symbol
 _atom_type_oxidation_number
  Ca2+  2.0
  Al0+  0.0
  Si0+  0.0
  O2-  -2.0
loop_
 _atom_site_type_symbol
 _atom_site_label
 _atom_site_symmetry_multiplicity
 _atom_site_fract_x
 _atom_site_fract_y
 _atom_site_fract_z
 _atom_site_occupancy
  Ca2+  Ca0  1  0.17122677  0.06993307  0.17605289  1
  Ca2+  Ca1  1  0.18039864  0.07839172  0.50545089  1
  Ca2+  Ca2  1  0.17453071  0.08154276  0.83870004  1
  Ca2+  Ca3  1  0.15845664  0.57504479  0.16669150  1
  Ca2+  Ca4  1  0.16813833  0.57629087  0.50697423  1
  Ca2+  Ca5  1  0.15898999  0.57834249  0.83577232  1
  Ca2+  Ca6  1  0.66486750  0.08900160  0.16975596  1
  Ca2+  Ca7  1  0.65487776  0.07839117  0.50688556  1
  Ca2+  Ca8  1  0.65741129  0.07997212  0.83378904  1
  Ca2+  Ca9  1  0.67214536  0.58253882  0.16915147  1
  Ca2+  Ca10  1  0.66982261  0.57331847  0.51279250  1
  Ca2+  Ca11  1  0.67488322  0.58521414  0.83820426  1
  Ca2+  Ca12  1  0.08097868  0.33845624  0.15868129  1
  Ca2+  Ca13  1  0.07891222  0.34291769  0.50007036  1
  Ca2+  Ca14  1  0.07332737  0.34980043  0.82894965  1
  Ca2+  Ca15  1  0.08235398  0.83090540  0.15436813  1
  Ca2+  Ca16  1  0.08905189  0.82675292  0.49632641  1
  Ca2+  Ca17  1  0.08157699  0.82527151  0.83132960  1
  Ca2+  Ca18  1  0.58825060  0.32416165  0.16252897  1
  Ca2+  Ca19  1  0.58502550  0.32703255  0.49591877  1
  Ca2+  Ca20  1  0.57921681  0.32384185  0.82038033  1
  Ca2+  Ca21  1  0.57298694  0.82994466  0.16105308  1
  Ca2+  Ca22  1  0.58265259  0.82873350  0.49947793  1
  Ca2+  Ca23  1  0.59093217  0.82175083  0.82787596  1
  Ca2+  Ca24  1  0.32191767  0.41794163  0.17040768  1
  Ca2+  Ca25  1  0.32215217  0.40604455  0.50689454  1
  Ca2+  Ca26  1  0.32377665  0.41123027  0.83468538  1
  Ca2+  Ca27  1  0.32450185  0.91632648  0.17552145  1
  Ca2+  Ca28  1  0.34290240  0.92669759  0.50088453  1
  Ca2+  Ca29  1  0.33043053  0.92293663  0.83642553  1
  Ca2+  Ca30  1  0.83181376  0.42254897  0.16740874  1
  Ca2+  Ca31  1  0.82209719  0.41813198  0.50944914  1
  Ca2+  Ca32  1  0.83536518  0.42462303  0.83395944  1
  Ca2+  Ca33  1  0.83451259  0.91663076  0.16720310  1
  Ca2+  Ca34  1  0.82521956  0.92221322  0.50926216  1
  Ca2+  Ca35  1  0.83020392  0.91446624  0.83601877  1
  Ca2+  Ca36  1  0.42512785  0.16169924  0.16643698  1
  Ca2+  Ca37  1  0.42072480  0.16545424  0.50050897  1
  Ca2+  Ca38  1  0.42126579  0.17058077  0.82528130  1
  Ca2+  Ca39  1  0.42049014  0.67071262  0.16319349  1
  Ca2+  Ca40  1  0.42227987  0.67082507  0.49699027  1
  Ca2+  Ca41  1  0.43004875  0.66398057  0.82802892  1
  Ca2+  Ca42  1  0.92033680  0.17643424  0.15795591  1
  Ca2+  Ca43  1  0.91545126  0.17470451  0.50008255  1
  Ca2+  Ca44  1  0.91982647  0.18154731  0.82863624  1
  Ca2+  Ca45  1  0.92150107  0.67311112  0.15351368  1
  Ca2+  Ca46  1  0.91953526  0.66000079  0.50480397  1
  Ca2+  Ca47  1  0.92380207  0.66023911  0.83002529  1
  Al0+  Al48  1  -0.00069849  0.00160123  -0.00056398  1
  Al0+  Al49  1  -0.00021951  0.00040449  0.33825758  1
  Al0+  Al50  1  -0.00076360  -0.00047870  0.66646393  1
  Al0+  Al51  1  -0.00212378  0.50171074  0.00291211  1
  Al0+  Al52  1  -0.00099882  0.50163214  0.33571672  1
  Al0+  Al53  1  -0.00069095  0.50113193  0.66248002  1
  Al0+  Al54  1  0.50038979  0.00017237  -0.00208245  1
  Al0+  Al55  1  0.50050088  -0.00116920  0.32650678  1
  Al0+  Al56  1  0.49914779  -0.00017123  0.67512652  1
  Al0+  Al57  1  0.49883875  0.49858341  -0.00170884  1
  Al0+  Al58  1  0.50009207  0.49803301  0.33417956  1
  Al0+  Al59  1  0.49761524  0.49843603  0.66059666  1
  Al0+  Al60  1  0.25172783  0.24942581  0.00785929  1
  Al0+  Al61  1  0.24981216  0.24836658  0.33940113  1
  Al0+  Al62  1  0.24909271  0.24772716  0.67377376  1
  Al0+  Al63  1  0.25054224  0.75017109  -0.00083446  1
  Al0+  Al64  1  0.24966547  0.74732216  0.33104612  1
  Al0+  Al65  1  0.24959581  0.74961796  0.66212647  1
  Al0+  Al66  1  0.75037080  0.24894967  -0.00873254  1
  Al0+  Al67  1  0.75114429  0.25144308  0.33157086  1
  Al0+  Al68  1  0.75138129  0.24880990  0.66181349  1
  Al0+  Al69  1  0.74932000  0.75159281  0.00098205  1
  Al0+  Al70  1  0.75283569  0.75057578  0.33324266  1
  Al0+  Al71  1  0.75105378  0.75097559  0.66804787  1
  Al0+  Al72  1  0.81882053  0.57155874  0.01501524  1
  Al0+  Al73  1  0.32327797  0.06839032  0.34911230  1
  Al0+  Al74  1  0.93128766  0.32178336  0.98685277  1
  Al0+  Al75  1  0.31988836  0.06940068  0.68337690  1
  Al0+  Al76  1  0.57026038  0.67855064  0.98811597  1
  Al0+  Al77  1  0.67961574  0.93094954  0.68064700  1
  Al0+  Al78  1  0.93107456  0.32116116  0.65088585  1
  Al0+  Al79  1  0.57024760  0.18106719  0.31850623  1
  Al0+  Al80  1  0.81923553  0.56968013  0.68230172  1
  Al0+  Al81  1  0.17870172  0.42999519  0.34806484  1
  Al0+  Al82  1  0.57334095  0.67815525  0.65270455  1
  Al0+  Al83  1  0.17739161  0.92575106  0.34982829  1
  Al0+  Al84  1  0.17892563  0.92942355  0.01208660  1
  Al0+  Al85  1  0.17915937  0.43159084  0.01359795  1
  Al0+  Al86  1  0.18028751  0.43120112  0.68055784  1
  Al0+  Al87  1  0.43047190  0.81912880  0.31975196  1
  Al0+  Al88  1  0.57018121  0.17972784  0.98447508  1
  Al0+  Al89  1  0.42561200  0.32083576  0.65161500  1
  Al0+  Al90  1  0.07115076  0.67939778  0.98502650  1
  Al0+  Al91  1  0.67968973  0.42836076  0.34545500  1
  Al0+  Al92  1  0.67560180  0.42601573  0.68195268  1
  Al0+  Al93  1  0.92823090  0.82460995  0.98459226  1
  Al0+  Al94  1  0.56979632  0.17833817  0.65113861  1
  Al0+  Al95  1  0.07056030  0.68025553  0.65051649  1
  Si0+  Si96  1  0.07151955  0.17794743  0.31968520  1
  Si0+  Si97  1  0.82493744  0.07279532  0.68463731  1
  Si0+  Si98  1  0.67697535  0.42596812  0.01472517  1
  Si0+  Si99  1  0.32563640  0.57266681  0.01661309  1
  Si0+  Si100  1  0.32332492  0.57160227  0.34978390  1
  Si0+  Si101  1  0.92814225  0.82370636  0.64783950  1
  Si0+  Si102  1  0.82148055  0.07248954  0.34721692  1
  Si0+  Si103  1  0.06896184  0.67902187  0.31729936  1
  Si0+  Si104  1  0.17625790  0.92570657  0.68370819  1
  Si0+  Si105  1  0.68046970  0.92937364  0.34541873  1
  Si0+  Si106  1  0.32365317  0.07076335  0.01992419  1
  Si0+  Si107  1  0.42872136  0.82117747  0.65175848  1
  Si0+  Si108  1  0.67867190  0.92969997  0.01737209  1
  Si0+  Si109  1  0.82063499  0.57355288  0.35067009  1
  Si0+  Si110  1  0.07221022  0.17477271  0.64989573  1
  Si0+  Si111  1  0.42542566  0.32178927  0.98482500  1
  Si0+  Si112  1  0.07413357  0.17861056  0.98608453  1
  Si0+  Si113  1  0.32252706  0.57554143  0.68233673  1
  Si0+  Si114  1  0.81978119  0.07301136  0.01458055  1
  Si0+  Si115  1  0.57455706  0.67616540  0.31720128  1
  Si0+  Si116  1  0.42774684  0.82197787  0.98217563  1
  Si0+  Si117  1  0.92864582  0.82358527  0.31891352  1
  Si0+  Si118  1  0.93105810  0.32106811  0.31711126  1
  Si0+  Si119  1  0.42442637  0.32278266  0.31517913  1
  O2-  O120  1  0.25328812  0.00290164  0.06202838  1
  O2-  O121  1  0.25143750  -0.00434125  0.39924516  1
  O2-  O122  1  0.24313055  -0.00449574  0.72821385  1
  O2-  O123  1  0.25383313  0.50651429  0.06060959  1
  O2-  O124  1  0.25752844  0.50031298  0.39397990  1
  O2-  O125  1  0.25651980  0.50445551  0.72691917  1
  O2-  O126  1  0.74973844  0.00147814  0.05895559  1
  O2-  O127  1  0.75019364  0.00129029  0.38808716  1
  O2-  O128  1  0.75364952  0.00642987  0.72782503  1
  O2-  O129  1  0.74252704  0.49725937  0.06065622  1
  O2-  O130  1  0.74820590  0.50830400  0.39239280  1
  O2-  O131  1  0.74448562  0.50058732  0.73281732  1
  O2-  O132  1  0.00430423  0.25196334  0.27517730  1
  O2-  O133  1  0.00536293  0.24500448  0.60460384  1
  O2-  O134  1  0.01104965  0.25163389  0.94103819  1
  O2-  O135  1  0.00201393  0.75501836  0.27705182  1
  O2-  O136  1  -0.00173669  0.75721028  0.60264450  1
  O2-  O137  1  -0.00037074  0.75219868  0.93520374  1
  O2-  O138  1  0.49589164  0.25632981  0.27107518  1
  O2-  O139  1  0.50218334  0.25389835  0.60028921  1
  O2-  O140  1  0.49589750  0.25521068  0.94103809  1
  O2-  O141  1  0.50447797  0.74327167  0.27281823  1
  O2-  O142  1  0.49644247  0.75154787  0.60707404  1
  O2-  O143  1  0.49525864  0.75193000  0.93930398  1
  O2-  O144  1  0.07025902  0.17759894  0.09222851  1
  O2-  O145  1  0.06759359  0.17660624  0.42443954  1
  O2-  O146  1  0.06893859  0.17089696  0.75547932  1
  O2-  O147  1  0.06857733  0.67990938  0.09943120  1
  O2-  O148  1  0.06676372  0.67713442  0.42224416  1
  O2-  O149  1  0.07038015  0.68109545  0.76310945  1
  O2-  O150  1  0.57081911  0.18022353  0.09821986  1
  O2-  O151  1  0.57142267  0.17939932  0.43061738  1
  O2-  O152  1  0.56569791  0.17717596  0.76468466  1
  O2-  O153  1  0.56862830  0.68133745  0.10181161  1
  O2-  O154  1  0.57596074  0.67879565  0.42253195  1
  O2-  O155  1  0.57359383  0.68128310  0.76595265  1
  O2-  O156  1  0.17606476  0.43278666  0.23474484  1
  O2-  O157  1  0.18013561  0.43318952  0.56714249  1
  O2-  O158  1  0.18018511  0.43210721  0.90104033  1
  O2-  O159  1  0.17550067  0.92820522  0.23596522  1
  O2-  O160  1  0.17664343  0.92684570  0.57819588  1
  O2-  O161  1  0.18134333  0.93228381  0.89907745  1
  O2-  O162  1  0.68484031  0.42712203  0.23191140  1
  O2-  O163  1  0.67966108  0.42692887  0.56774940  1
  O2-  O164  1  0.67757359  0.42608834  0.90985676  1
  O2-  O165  1  0.68316157  0.92805043  0.24027122  1
  O2-  O166  1  0.68029453  0.93169339  0.56648336  1
  O2-  O167  1  0.67798546  0.92999036  0.91258313  1
  O2-  O168  1  0.42407106  0.32136042  0.09066737  1
  O2-  O169  1  0.42354345  0.32197934  0.42019599  1
  O2-  O170  1  0.42346888  0.31671305  0.76556085  1
  O2-  O171  1  0.42962934  0.82255765  0.08814475  1
  O2-  O172  1  0.43573103  0.81937451  0.43275996  1
  O2-  O173  1  0.42785591  0.81912459  0.75741772  1
  O2-  O174  1  0.93082394  0.31896372  0.10087460  1
  O2-  O175  1  0.93065879  0.31980714  0.42194909  1
  O2-  O176  1  0.93377607  0.32158848  0.76400456  1
  O2-  O177  1  0.92946113  0.82398081  0.09925138  1
  O2-  O178  1  0.92445293  0.82346540  0.42353335  1
  O2-  O179  1  0.92932601  0.82609662  0.75293676  1
  O2-  O180  1  0.32131252  0.06625378  0.23528232  1
  O2-  O181  1  0.32169090  0.06669456  0.57036677  1
  O2-  O182  1  0.32330094  0.07073366  0.91443423  1
  O2-  O183  1  0.32236392  0.57216065  0.24389923  1
  O2-  O184  1  0.31860455  0.58010465  0.57671889  1
  O2-  O185  1  0.33001609  0.57129216  0.91151237  1
  O2-  O186  1  0.82297019  0.07234397  0.24187907  1
  O2-  O187  1  0.82848062  0.06938626  0.57849361  1
  O2-  O188  1  0.81920115  0.07353213  0.91001446  1
  O2-  O189  1  0.82195950  0.57443448  0.24495433  1
  O2-  O190  1  0.81856780  0.56794166  0.56799410  1
  O2-  O191  1  0.82000739  0.57058246  0.90281922  1
  O2-  O192  1  0.03944344  0.08699311  0.27165994  1
  O2-  O193  1  0.04499878  0.08210722  0.60145868  1
  O2-  O194  1  0.04381873  0.08807011  0.93762408  1
  O2-  O195  1  0.03522587  0.58891366  0.26915417  1
  O2-  O196  1  0.03610928  0.58621407  0.59400934  1
  O2-  O197  1  0.03926122  0.58192508  0.93372340  1
  O2-  O198  1  0.54146000  0.08439510  0.26257433  1
  O2-  O199  1  0.53614105  0.07910558  0.60179682  1
  O2-  O200  1  0.53962605  0.08232309  0.93238963  1
  O2-  O201  1  0.55057799  0.58183150  0.27167773  1
  O2-  O202  1  0.54344589  0.58246090  0.59711387  1
  O2-  O203  1  0.54233064  0.58110907  0.93460925  1
  O2-  O204  1  0.16493268  0.20148539  0.27382167  1
  O2-  O205  1  0.16658392  0.19939070  0.60702795  1
  O2-  O206  1  0.17081054  0.19804528  0.94487377  1
  O2-  O207  1  0.16250270  0.69953690  0.27043772  1
  O2-  O208  1  0.16735217  0.70947308  0.59462902  1
  O2-  O209  1  0.17116081  0.70378495  0.93366584  1
  O2-  O210  1  0.66806776  0.21217128  0.26432908  1
  O2-  O211  1  0.67117962  0.19705698  0.60012088  1
  O2-  O212  1  0.66654522  0.20600566  0.92940945  1
  O2-  O213  1  0.66823488  0.70445338  0.27163387  1
  O2-  O214  1  0.66839640  0.71318850  0.59782366  1
  O2-  O215  1  0.66525420  0.71302831  0.93499934  1
  O2-  O216  1  0.08329577  0.46250808  0.06956099  1
  O2-  O217  1  0.08280947  0.46474097  0.40128528  1
  O2-  O218  1  0.08437261  0.46703401  0.73164939  1
  O2-  O219  1  0.08170921  0.96051944  0.06623353  1
  O2-  O220  1  0.07927410  0.95525806  0.40335082  1
  O2-  O221  1  0.08138848  0.94932273  0.72778369  1
  O2-  O222  1  0.58172573  0.44722232  0.06036370  1
  O2-  O223  1  0.58014091  0.45042787  0.39702579  1
  O2-  O224  1  0.57357853  0.44869449  0.72914905  1
  O2-  O225  1  0.58637251  0.95865598  0.06428279  1
  O2-  O226  1  0.58868199  0.95685778  0.39116428  1
  O2-  O227  1  0.58478536  0.95897622  0.73873742  1
  O2-  O228  1  0.20815087  0.33420217  0.06940049  1
  O2-  O229  1  0.20334564  0.33169031  0.40098329  1
  O2-  O230  1  0.20462944  0.33336129  0.73494416  1
  O2-  O231  1  0.20846474  0.83204605  0.06629197  1
  O2-  O232  1  0.20297827  0.82507918  0.39821398  1
  O2-  O233  1  0.20430965  0.83237508  0.72845125  1
  O2-  O234  1  0.70814894  0.33275384  0.05958223  1
  O2-  O235  1  0.71656504  0.33403309  0.39990172  1
  O2-  O236  1  0.70682457  0.32676816  0.73115527  1
  O2-  O237  1  0.70580752  0.83923310  0.06747321  1
  O2-  O238  1  0.70923436  0.83793495  0.39384719  1
  O2-  O239  1  0.71332535  0.83580816  0.73509380  1
  O2-  O240  1  0.44708888  0.41790132  0.26982926  1
  O2-  O241  1  0.44213147  0.42145331  0.59840887  1
  O2-  O242  1  0.44617901  0.41615486  0.93913520  1
  O2-  O243  1  0.46331480  0.91268956  0.26100314  1
  O2-  O244  1  0.45887501  0.91399651  0.60779907  1
  O2-  O245  1  0.45552349  0.91493325  0.93660781  1
  O2-  O246  1  0.95750394  0.41448182  0.27162241  1
  O2-  O247  1  0.96360601  0.41551752  0.59412533  1
  O2-  O248  1  0.96008438  0.41850981  0.93432141  1
  O2-  O249  1  0.95253808  0.91734722  0.27272058  1
  O2-  O250  1  0.95104142  0.91833829  0.60116890  1
  O2-  O251  1  0.95430357  0.92354371  0.93159020  1
  O2-  O252  1  0.33074466  0.29463295  0.26952593  1
  O2-  O253  1  0.32777891  0.28527507  0.60042204  1
  O2-  O254  1  0.33233322  0.29279951  0.93914924  1
  O2-  O255  1  0.33339669  0.78829109  0.26524477  1
  O2-  O256  1  0.33548300  0.79859783  0.60337081  1
  O2-  O257  1  0.33401591  0.79938149  0.93629939  1
  O2-  O258  1  0.84117651  0.28985788  0.26816068  1
  O2-  O259  1  0.83591558  0.28843795  0.59464451  1
  O2-  O260  1  0.83798297  0.28656749  0.93087635  1
  O2-  O261  1  0.83764118  0.79448054  0.26898439  1
  O2-  O262  1  0.83537487  0.79639674  0.60095265  1
  O2-  O263  1  0.82809306  0.79944996  0.93561707  1
  O2-  O264  1  0.41710485  0.04197941  0.06500010  1
  O2-  O265  1  0.42217362  0.03664669  0.39962397  1
  O2-  O266  1  0.41329600  0.03571119  0.74116976  1
  O2-  O267  1  0.41706068  0.54389017  0.06724482  1
  O2-  O268  1  0.41873850  0.55180115  0.39438390  1
  O2-  O269  1  0.41746938  0.55235922  0.72574576  1
  O2-  O270  1  0.91186919  0.04713285  0.06342168  1
  O2-  O271  1  0.91149918  0.04481513  0.39790588  1
  O2-  O272  1  0.91718495  0.04460940  0.73263485  1
  O2-  O273  1  0.91360510  0.53911624  0.07208999  1
  O2-  O274  1  0.91251756  0.54356213  0.39712753  1
  O2-  O275  1  0.91724252  0.53727192  0.73269714  1
  O2-  O276  1  0.30136050  0.16447216  0.06723847  1
  O2-  O277  1  0.29525207  0.16640981  0.40208972  1
  O2-  O278  1  0.28761047  0.16346659  0.74108835  1
  O2-  O279  1  0.30287139  0.66761352  0.06137362  1
  O2-  O280  1  0.29449370  0.66367972  0.39653983  1
  O2-  O281  1  0.29552733  0.66846008  0.72960804  1
  O2-  O282  1  0.78994672  0.16423779  0.06334773  1
  O2-  O283  1  0.79454861  0.16422544  0.39415893  1
  O2-  O284  1  0.80273707  0.16765777  0.72772111  1
  O2-  O285  1  0.78818500  0.66865923  0.07011111  1
  O2-  O286  1  0.80028623  0.66873321  0.39647207  1
  O2-  O287  1  0.79666380  0.67014598  0.73257805  1
