# generated using pymatgen
data_Ca2Al2SiO7
_symmetry_space_group_name_H-M   'P 1'
_cell_length_a   15.46903744
_cell_length_b   15.46927920
_cell_length_c   15.29128292
_cell_angle_alpha   89.98188893
_cell_angle_beta   90.00187263
_cell_angle_gamma   89.96909014
_symmetry_Int_Tables_number   1
_chemical_formula_structural   Ca2Al2SiO7
_chemical_formula_sum   'Ca48 Al48 Si24 O168'
_cell_volume   3659.12467403
_cell_formula_units_Z   24
loop_
 _symmetry_equiv_pos_site_id
 _symmetry_equiv_pos_as_xyz
  1  'x, y, z'
loop_
 _atom_type_symbol
 _atom_type_oxidation_number
  Ca2+  2.0
  Al0+  0.0
  Si0+  0.0
  O2-  -2.0
loop_
 _atom_site_type_symbol
 _atom_site_label
 _atom_site_symmetry_multiplicity
 _atom_site_fract_x
 _atom_site_fract_y
 _atom_site_fract_z
 _atom_site_occupancy
  Ca2+  Ca0  1  0.16849449  0.08301042  0.17243688  1
  Ca2+  Ca1  1  0.17144358  0.07920421  0.50033949  1
  Ca2+  Ca2  1  0.17892252  0.08982490  0.83975057  1
  Ca2+  Ca3  1  0.16840436  0.58977809  0.17011670  1
  Ca2+  Ca4  1  0.17254647  0.58292667  0.50579438  1
  Ca2+  Ca5  1  0.17844792  0.58230135  0.84250655  1
  Ca2+  Ca6  1  0.67363544  0.09110437  0.17377121  1
  Ca2+  Ca7  1  0.67309825  0.08532262  0.50846041  1
  Ca2+  Ca8  1  0.66196004  0.08149637  0.83553163  1
  Ca2+  Ca9  1  0.65960781  0.58583652  0.17049225  1
  Ca2+  Ca10  1  0.65981305  0.57665041  0.50568447  1
  Ca2+  Ca11  1  0.65856949  0.57418645  0.83953322  1
  Ca2+  Ca12  1  0.08464669  0.32048732  0.16375190  1
  Ca2+  Ca13  1  0.08075849  0.32453573  0.49445368  1
  Ca2+  Ca14  1  0.08396038  0.32866066  0.83489702  1
  Ca2+  Ca15  1  0.07691382  0.83295314  0.16562352  1
  Ca2+  Ca16  1  0.07986686  0.83099287  0.48639301  1
  Ca2+  Ca17  1  0.08153773  0.83246239  0.83588230  1
  Ca2+  Ca18  1  0.57448121  0.32133781  0.16534261  1
  Ca2+  Ca19  1  0.57671070  0.32657141  0.49842274  1
  Ca2+  Ca20  1  0.57500165  0.32248670  0.82785329  1
  Ca2+  Ca21  1  0.58062486  0.82512041  0.16501974  1
  Ca2+  Ca22  1  0.57900374  0.83080373  0.49405198  1
  Ca2+  Ca23  1  0.58604496  0.82909916  0.83054833  1
  Ca2+  Ca24  1  0.34429864  0.41989056  0.16650257  1
  Ca2+  Ca25  1  0.34150834  0.41921997  0.50411042  1
  Ca2+  Ca26  1  0.34542349  0.42373865  0.83819168  1
  Ca2+  Ca27  1  0.32873179  0.92096087  0.17328873  1
  Ca2+  Ca28  1  0.32805785  0.91601909  0.50330553  1
  Ca2+  Ca29  1  0.33782274  0.93325899  0.83805106  1
  Ca2+  Ca30  1  0.83156671  0.42030218  0.17299311  1
  Ca2+  Ca31  1  0.82335948  0.41941728  0.50821299  1
  Ca2+  Ca32  1  0.82258380  0.41318852  0.83614514  1
  Ca2+  Ca33  1  0.83620054  0.91651146  0.17365522  1
  Ca2+  Ca34  1  0.82846312  0.92410264  0.50309300  1
  Ca2+  Ca35  1  0.82854863  0.91778322  0.83286960  1
  Ca2+  Ca36  1  0.41925724  0.17505659  0.15619756  1
  Ca2+  Ca37  1  0.42723666  0.16984260  0.49406074  1
  Ca2+  Ca38  1  0.41838780  0.17266463  0.82374871  1
  Ca2+  Ca39  1  0.42178177  0.67225535  0.16409428  1
  Ca2+  Ca40  1  0.41976785  0.67206630  0.49168487  1
  Ca2+  Ca41  1  0.41708960  0.66003055  0.83198519  1
  Ca2+  Ca42  1  0.92933000  0.15468125  0.16697787  1
  Ca2+  Ca43  1  0.91801731  0.15828838  0.49275055  1
  Ca2+  Ca44  1  0.92377309  0.15776890  0.83082613  1
  Ca2+  Ca45  1  0.92746591  0.67867887  0.15921519  1
  Ca2+  Ca46  1  0.92404552  0.67588912  0.48803720  1
  Ca2+  Ca47  1  0.92066813  0.67175208  0.83377267  1
  Al0+  Al48  1  -0.00112366  0.00019952  -0.00983071  1
  Al0+  Al49  1  0.00133955  -0.00032276  0.33504289  1
  Al0+  Al50  1  -0.00102209  -0.00277101  0.66884826  1
  Al0+  Al51  1  -0.00051316  0.50076239  -0.00298067  1
  Al0+  Al52  1  0.00125362  0.49962329  0.33386340  1
  Al0+  Al53  1  0.00142903  0.49966027  0.66620071  1
  Al0+  Al54  1  0.50165295  -0.00149462  0.00514380  1
  Al0+  Al55  1  0.50240225  0.00019838  0.32687196  1
  Al0+  Al56  1  0.49988362  -0.00187641  0.66953425  1
  Al0+  Al57  1  0.49968198  0.49969488  0.00086869  1
  Al0+  Al58  1  0.50022155  0.49871662  0.32874811  1
  Al0+  Al59  1  0.50076419  0.49884061  0.67129750  1
  Al0+  Al60  1  0.24846765  0.25304143  -0.00346608  1
  Al0+  Al61  1  0.24890834  0.25301351  0.32834895  1
  Al0+  Al62  1  0.24717422  0.25145933  0.66458444  1
  Al0+  Al63  1  0.24954502  0.75118671  0.00095422  1
  Al0+  Al64  1  0.25143852  0.75055085  0.33182378  1
  Al0+  Al65  1  0.24981954  0.74783343  0.67156225  1
  Al0+  Al66  1  0.74823391  0.24990004  0.00057376  1
  Al0+  Al67  1  0.74972363  0.25321074  0.33644562  1
  Al0+  Al68  1  0.75222678  0.25119382  0.67310200  1
  Al0+  Al69  1  0.74985943  0.74921558  -0.00769866  1
  Al0+  Al70  1  0.75136770  0.75023437  0.32881023  1
  Al0+  Al71  1  0.75196171  0.75103867  0.66770656  1
  Al0+  Al72  1  0.42745007  0.82368882  0.31934443  1
  Al0+  Al73  1  0.57075600  0.67879241  0.32098845  1
  Al0+  Al74  1  0.56826333  0.68033979  0.98485869  1
  Al0+  Al75  1  0.06972674  0.18018587  0.98526845  1
  Al0+  Al76  1  0.67964525  0.43005986  0.68207698  1
  Al0+  Al77  1  0.42798098  0.32199521  0.65041430  1
  Al0+  Al78  1  0.93007228  0.82205221  0.31981069  1
  Al0+  Al79  1  0.07283349  0.67678571  0.31997320  1
  Al0+  Al80  1  0.06924045  0.17926989  0.32210706  1
  Al0+  Al81  1  0.31892840  0.07104489  0.67666872  1
  Al0+  Al82  1  0.07301010  0.67825103  0.98267061  1
  Al0+  Al83  1  0.57202152  0.17636756  0.65162167  1
  Al0+  Al84  1  0.81941390  0.07031522  0.34525687  1
  Al0+  Al85  1  0.31995324  0.56924441  0.67924469  1
  Al0+  Al86  1  0.32084384  0.57101556  0.01742879  1
  Al0+  Al87  1  0.57450987  0.17820416  0.31997872  1
  Al0+  Al88  1  0.82206365  0.07135418  0.68314183  1
  Al0+  Al89  1  0.42914165  0.31963474  0.98362101  1
  Al0+  Al90  1  0.42853573  0.31948718  0.31766381  1
  Al0+  Al91  1  0.92836140  0.82158808  0.98110360  1
  Al0+  Al92  1  0.67802909  0.92796096  0.68170959  1
  Al0+  Al93  1  0.32112408  0.07313994  0.01414306  1
  Al0+  Al94  1  0.18198191  0.92982847  0.34563571  1
  Al0+  Al95  1  0.57213901  0.17638400  0.98444077  1
  Si0+  Si96  1  0.67711616  0.92493272  0.34829189  1
  Si0+  Si97  1  0.17688423  0.42757107  0.34960858  1
  Si0+  Si98  1  0.42721307  0.82020230  0.65395469  1
  Si0+  Si99  1  0.17648310  0.93068729  0.01609205  1
  Si0+  Si100  1  0.57106007  0.67901785  0.65391128  1
  Si0+  Si101  1  0.17782999  0.92630262  0.68405924  1
  Si0+  Si102  1  0.07184049  0.67917795  0.65130269  1
  Si0+  Si103  1  0.42706587  0.82293248  0.98240800  1
  Si0+  Si104  1  0.68037593  0.92567721  0.01684460  1
  Si0+  Si105  1  0.92706365  0.32321455  0.31927589  1
  Si0+  Si106  1  0.82038424  0.07035383  0.01520709  1
  Si0+  Si107  1  0.82400916  0.57208823  0.68332665  1
  Si0+  Si108  1  0.92947517  0.82018508  0.64836632  1
  Si0+  Si109  1  0.17466440  0.42955363  0.01887505  1
  Si0+  Si110  1  0.82325034  0.57226639  0.34747409  1
  Si0+  Si111  1  0.17502903  0.42788474  0.68406972  1
  Si0+  Si112  1  0.82082908  0.57123835  0.01529294  1
  Si0+  Si113  1  0.92625864  0.32342003  0.98415712  1
  Si0+  Si114  1  0.92924645  0.32261485  0.65222945  1
  Si0+  Si115  1  0.32091126  0.56891541  0.34774995  1
  Si0+  Si116  1  0.67931855  0.43237309  0.34924580  1
  Si0+  Si117  1  0.32353637  0.07550587  0.34750064  1
  Si0+  Si118  1  0.06916708  0.17762350  0.65051011  1
  Si0+  Si119  1  0.67976845  0.42927572  0.01868988  1
  O2-  O120  1  0.24570617  -0.00136880  0.06027187  1
  O2-  O121  1  0.25925430  0.00244220  0.39239462  1
  O2-  O122  1  0.24458555  -0.00299224  0.72673232  1
  O2-  O123  1  0.24316850  0.49835243  0.06348603  1
  O2-  O124  1  0.24831029  0.49924048  0.39023658  1
  O2-  O125  1  0.24770787  0.49257228  0.72657081  1
  O2-  O126  1  0.74859101  0.00041962  0.05776080  1
  O2-  O127  1  0.74155234  -0.00157089  0.39133476  1
  O2-  O128  1  0.74562618  0.00396159  0.73303776  1
  O2-  O129  1  0.75170754  0.50003930  0.06058146  1
  O2-  O130  1  0.74971769  0.50477509  0.39126842  1
  O2-  O131  1  0.75431583  0.50565032  0.72901187  1
  O2-  O132  1  -0.00702705  0.25252349  0.27514356  1
  O2-  O133  1  -0.00456856  0.24706975  0.60959494  1
  O2-  O134  1  -0.00625408  0.25424108  0.93909333  1
  O2-  O135  1  0.00060513  0.74829122  0.27095749  1
  O2-  O136  1  0.00161996  0.74967801  0.60770056  1
  O2-  O137  1  0.00187635  0.75034065  0.93153062  1
  O2-  O138  1  0.49421937  0.24073045  0.27012553  1
  O2-  O139  1  0.49792054  0.24703446  0.60214335  1
  O2-  O140  1  0.49481950  0.24192643  0.93429853  1
  O2-  O141  1  0.50196598  0.75330546  0.27097197  1
  O2-  O142  1  0.50022265  0.75016655  0.61236052  1
  O2-  O143  1  0.49281509  0.75253360  0.93592807  1
  O2-  O144  1  0.06721239  0.17895192  0.09838012  1
  O2-  O145  1  0.06857938  0.18101718  0.43548684  1
  O2-  O146  1  0.06961568  0.17956035  0.75555339  1
  O2-  O147  1  0.06972733  0.67801002  0.09584585  1
  O2-  O148  1  0.07057990  0.67627166  0.43441753  1
  O2-  O149  1  0.07062691  0.67935192  0.75589471  1
  O2-  O150  1  0.57644902  0.18152105  0.09777215  1
  O2-  O151  1  0.57726217  0.18236952  0.43344433  1
  O2-  O152  1  0.56915596  0.17726897  0.76482868  1
  O2-  O153  1  0.56961110  0.68258840  0.09765817  1
  O2-  O154  1  0.56824917  0.67634849  0.43524177  1
  O2-  O155  1  0.57022658  0.67890565  0.75882989  1
  O2-  O156  1  0.17237115  0.42626393  0.24527445  1
  O2-  O157  1  0.16901613  0.43084982  0.57848627  1
  O2-  O158  1  0.17216164  0.43104815  0.91315322  1
  O2-  O159  1  0.17992950  0.93211006  0.23280052  1
  O2-  O160  1  0.17803400  0.92431274  0.57835680  1
  O2-  O161  1  0.17748887  0.93197645  0.91008093  1
  O2-  O162  1  0.68190109  0.43263953  0.24416020  1
  O2-  O163  1  0.68098018  0.43372439  0.56847433  1
  O2-  O164  1  0.68216575  0.43016995  0.91356778  1
  O2-  O165  1  0.68077985  0.92081345  0.24288363  1
  O2-  O166  1  0.68153869  0.92186977  0.56833665  1
  O2-  O167  1  0.68163294  0.92413492  0.91184361  1
  O2-  O168  1  0.43285110  0.32005635  0.09719716  1
  O2-  O169  1  0.43138633  0.32305007  0.43112040  1
  O2-  O170  1  0.43001551  0.32256349  0.76340132  1
  O2-  O171  1  0.42954103  0.82197765  0.08781894  1
  O2-  O172  1  0.42620763  0.81923592  0.43382581  1
  O2-  O173  1  0.42550734  0.81857490  0.75879481  1
  O2-  O174  1  0.92634926  0.32500741  0.08974900  1
  O2-  O175  1  0.92852667  0.32528176  0.42504107  1
  O2-  O176  1  0.93322953  0.32722045  0.75700594  1
  O2-  O177  1  0.92878415  0.82155147  0.09445188  1
  O2-  O178  1  0.93103656  0.81976046  0.43391649  1
  O2-  O179  1  0.92916770  0.81904213  0.75313886  1
  O2-  O180  1  0.31814038  0.07632292  0.24206383  1
  O2-  O181  1  0.31644427  0.06806177  0.56349228  1
  O2-  O182  1  0.31934394  0.07172016  0.90059018  1
  O2-  O183  1  0.32134195  0.56765390  0.24299900  1
  O2-  O184  1  0.31745735  0.57253058  0.56577366  1
  O2-  O185  1  0.32111568  0.56780811  0.90407939  1
  O2-  O186  1  0.82095421  0.06944116  0.23187088  1
  O2-  O187  1  0.82522602  0.06710167  0.56946489  1
  O2-  O188  1  0.82022279  0.07049936  0.91039607  1
  O2-  O189  1  0.82527080  0.56839655  0.24257367  1
  O2-  O190  1  0.82484703  0.57017071  0.57741878  1
  O2-  O191  1  0.81986871  0.56858046  0.91004956  1
  O2-  O192  1  0.03847147  0.08422092  0.26695258  1
  O2-  O193  1  0.04305589  0.08398355  0.60580575  1
  O2-  O194  1  0.03949946  0.08589395  0.92747676  1
  O2-  O195  1  0.04515453  0.57820558  0.26770884  1
  O2-  O196  1  0.04476509  0.58663728  0.60445585  1
  O2-  O197  1  0.04263135  0.58012890  0.92961499  1
  O2-  O198  1  0.56137785  0.07655137  0.26984609  1
  O2-  O199  1  0.54611278  0.07606929  0.60061701  1
  O2-  O200  1  0.55220127  0.07370023  0.93841544  1
  O2-  O201  1  0.54021202  0.58278062  0.26563498  1
  O2-  O202  1  0.54258272  0.58757445  0.60716108  1
  O2-  O203  1  0.53827836  0.58310743  0.93270920  1
  O2-  O204  1  0.16328476  0.21236866  0.26598387  1
  O2-  O205  1  0.15895938  0.20790620  0.60120671  1
  O2-  O206  1  0.16385278  0.21417454  0.92916539  1
  O2-  O207  1  0.17044354  0.70438776  0.26834590  1
  O2-  O208  1  0.16425908  0.70682319  0.60504043  1
  O2-  O209  1  0.17172176  0.70729375  0.93053745  1
  O2-  O210  1  0.66946593  0.21738272  0.26609253  1
  O2-  O211  1  0.67285283  0.20766342  0.60474689  1
  O2-  O212  1  0.66935564  0.21006622  0.93173402  1
  O2-  O213  1  0.67023502  0.70135046  0.26805890  1
  O2-  O214  1  0.66423095  0.70448734  0.60760104  1
  O2-  O215  1  0.66434189  0.70887988  0.92932118  1
  O2-  O216  1  0.07991282  0.45325356  0.06450246  1
  O2-  O217  1  0.08551796  0.45474267  0.40013418  1
  O2-  O218  1  0.08361279  0.45746803  0.73323273  1
  O2-  O219  1  0.08192404  0.95858335  0.05882474  1
  O2-  O220  1  0.08719437  0.96284729  0.40261674  1
  O2-  O221  1  0.08388393  0.95015786  0.72919304  1
  O2-  O222  1  0.58951862  0.46057180  0.06552441  1
  O2-  O223  1  0.58777093  0.46158175  0.39639916  1
  O2-  O224  1  0.58547585  0.46272052  0.73846784  1
  O2-  O225  1  0.58755366  0.94704979  0.06467940  1
  O2-  O226  1  0.58089059  0.94436263  0.39194682  1
  O2-  O227  1  0.57843801  0.94866857  0.73555445  1
  O2-  O228  1  0.19997211  0.33531401  0.06317824  1
  O2-  O229  1  0.20510991  0.33631023  0.39866436  1
  O2-  O230  1  0.19478089  0.33246031  0.72788570  1
  O2-  O231  1  0.20001731  0.83642906  0.06118425  1
  O2-  O232  1  0.21079539  0.83240732  0.40145645  1
  O2-  O233  1  0.20424558  0.83379548  0.73163259  1
  O2-  O234  1  0.70877579  0.33780685  0.06651217  1
  O2-  O235  1  0.70934506  0.34276783  0.39934915  1
  O2-  O236  1  0.71271188  0.33603492  0.73895461  1
  O2-  O237  1  0.71288605  0.83440069  0.06271836  1
  O2-  O238  1  0.70633313  0.83248587  0.39647094  1
  O2-  O239  1  0.71210383  0.83071219  0.73635664  1
  O2-  O240  1  0.46436841  0.41474900  0.26349711  1
  O2-  O241  1  0.46164918  0.42044201  0.59917790  1
  O2-  O242  1  0.46486539  0.41642269  0.93299921  1
  O2-  O243  1  0.45045653  0.92198182  0.26460444  1
  O2-  O244  1  0.45296377  0.91133728  0.60552546  1
  O2-  O245  1  0.45695585  0.91559524  0.93727878  1
  O2-  O246  1  0.95473947  0.41534549  0.27170739  1
  O2-  O247  1  0.96029828  0.41289025  0.60199337  1
  O2-  O248  1  0.95117335  0.41595011  0.93566236  1
  O2-  O249  1  0.96171460  0.91825655  0.26621902  1
  O2-  O250  1  0.95784408  0.91226471  0.60224606  1
  O2-  O251  1  0.95615765  0.91841173  0.92507542  1
  O2-  O252  1  0.32810907  0.30154334  0.26531307  1
  O2-  O253  1  0.32596344  0.30090922  0.60073714  1
  O2-  O254  1  0.32784653  0.30214270  0.93317016  1
  O2-  O255  1  0.33184373  0.79211368  0.26404474  1
  O2-  O256  1  0.33563584  0.78959849  0.60661916  1
  O2-  O257  1  0.33211993  0.80231348  0.93817011  1
  O2-  O258  1  0.83303524  0.30233167  0.27353926  1
  O2-  O259  1  0.83572756  0.30091936  0.60647595  1
  O2-  O260  1  0.83273903  0.29752620  0.93893964  1
  O2-  O261  1  0.83259794  0.79518515  0.26563592  1
  O2-  O262  1  0.83805398  0.79104935  0.60096629  1
  O2-  O263  1  0.83269669  0.78817276  0.92591086  1
  O2-  O264  1  0.41770900  0.04226019  0.06838119  1
  O2-  O265  1  0.42033613  0.05470035  0.38870171  1
  O2-  O266  1  0.41409183  0.03955401  0.73233181  1
  O2-  O267  1  0.41736230  0.53786947  0.07090054  1
  O2-  O268  1  0.41247960  0.53836825  0.39488144  1
  O2-  O269  1  0.41649095  0.54152628  0.73424253  1
  O2-  O270  1  0.91350241  0.04077973  0.05921830  1
  O2-  O271  1  0.91506390  0.03784677  0.40032793  1
  O2-  O272  1  0.91881282  0.03623228  0.73716140  1
  O2-  O273  1  0.91314493  0.54388130  0.06212510  1
  O2-  O274  1  0.91354912  0.54190806  0.39764541  1
  O2-  O275  1  0.91723939  0.54433581  0.72922206  1
  O2-  O276  1  0.28855431  0.17060897  0.06483949  1
  O2-  O277  1  0.29238760  0.16772368  0.39358098  1
  O2-  O278  1  0.28603512  0.16759332  0.73010873  1
  O2-  O279  1  0.29313338  0.67007925  0.06852443  1
  O2-  O280  1  0.29529884  0.66131987  0.39496751  1
  O2-  O281  1  0.28820638  0.66425873  0.73644259  1
  O2-  O282  1  0.79509853  0.16328450  0.06232534  1
  O2-  O283  1  0.79426046  0.16943196  0.39884455  1
  O2-  O284  1  0.80667814  0.17278713  0.73408500  1
  O2-  O285  1  0.79121628  0.66337906  0.06021408  1
  O2-  O286  1  0.79886042  0.66532063  0.39392295  1
  O2-  O287  1  0.80084257  0.66624146  0.72788353  1
