# generated using pymatgen
data_ZrScNbPdRh
_symmetry_space_group_name_H-M   'P 1'
_cell_length_a   16.55525697
_cell_length_b   16.55289046
_cell_length_c   16.55545658
_cell_angle_alpha   89.96416801
_cell_angle_beta   89.97678713
_cell_angle_gamma   89.98470113
_symmetry_Int_Tables_number   1
_chemical_formula_structural   ZrScNbPdRh
_chemical_formula_sum   'Zr50 Sc50 Nb50 Pd50 Rh50'
_cell_volume   4536.81211361
_cell_formula_units_Z   50
loop_
 _symmetry_equiv_pos_site_id
 _symmetry_equiv_pos_as_xyz
  1  'x, y, z'
loop_
 _atom_site_type_symbol
 _atom_site_label
 _atom_site_symmetry_multiplicity
 _atom_site_fract_x
 _atom_site_fract_y
 _atom_site_fract_z
 _atom_site_occupancy
  Zr  Zr0  1  0.29746634  0.70116525  0.30297463  1
  Zr  Zr1  1  0.10314676  0.09129566  0.89795379  1
  Zr  Zr2  1  0.70174827  0.29575251  0.89890812  1
  Zr  Zr3  1  0.89520068  0.30140173  0.69526244  1
  Zr  Zr4  1  0.09410344  0.69365832  0.70074018  1
  Zr  Zr5  1  0.49838902  0.28851519  0.10168661  1
  Zr  Zr6  1  0.10441627  0.10577986  0.11127370  1
  Zr  Zr7  1  0.70726074  0.30157767  0.10192889  1
  Zr  Zr8  1  0.49532445  0.10437808  0.90315127  1
  Zr  Zr9  1  0.09295104  0.90005215  0.89762514  1
  Zr  Zr10  1  0.30045789  0.30077183  0.31055539  1
  Zr  Zr11  1  0.10140356  0.10211328  0.49695856  1
  Zr  Zr12  1  0.30186004  0.49658767  0.70516272  1
  Zr  Zr13  1  0.90097511  0.69639728  0.10528501  1
  Zr  Zr14  1  0.50500601  0.70555208  0.49353963  1
  Zr  Zr15  1  0.10031970  0.90337498  0.70434458  1
  Zr  Zr16  1  0.69465989  0.70468597  0.10266501  1
  Zr  Zr17  1  0.10490818  0.29708935  0.70529482  1
  Zr  Zr18  1  0.90285050  0.70767368  0.89780731  1
  Zr  Zr19  1  0.50812368  0.90550852  0.10116822  1
  Zr  Zr20  1  0.31514807  0.90002194  0.70695503  1
  Zr  Zr21  1  0.09795523  0.69831134  0.10038575  1
  Zr  Zr22  1  0.69559161  0.30086702  0.30116923  1
  Zr  Zr23  1  0.29287266  0.89595458  0.90469920  1
  Zr  Zr24  1  0.29869327  0.29345381  0.69553502  1
  Zr  Zr25  1  0.90486250  0.30221654  0.49531526  1
  Zr  Zr26  1  0.70210592  0.29100670  0.69912991  1
  Zr  Zr27  1  0.30242711  0.50459197  0.29360813  1
  Zr  Zr28  1  0.90611003  0.49931217  0.69731252  1
  Zr  Zr29  1  0.08817946  0.30508233  0.90527307  1
  Zr  Zr30  1  0.70581082  0.69730269  0.30848989  1
  Zr  Zr31  1  0.51208228  0.49633077  0.30319645  1
  Zr  Zr32  1  0.09681420  0.30056800  0.09860720  1
  Zr  Zr33  1  0.50847967  0.51058124  0.10615485  1
  Zr  Zr34  1  0.49411457  0.89624502  0.90014704  1
  Zr  Zr35  1  0.30134542  0.09672806  0.89695734  1
  Zr  Zr36  1  0.10903150  0.29781968  0.49503157  1
  Zr  Zr37  1  0.10438214  0.70087733  0.49343738  1
  Zr  Zr38  1  0.29983397  0.70137340  0.10560037  1
  Zr  Zr39  1  0.09356466  0.29014320  0.30454548  1
  Zr  Zr40  1  0.88953058  0.10232481  0.09826800  1
  Zr  Zr41  1  0.30330391  0.09638380  0.09532012  1
  Zr  Zr42  1  0.70565877  0.10438651  0.30328589  1
  Zr  Zr43  1  0.89844390  0.30148608  0.08652548  1
  Zr  Zr44  1  0.29215130  0.09596659  0.29372723  1
  Zr  Zr45  1  0.50231827  0.70856438  0.10103711  1
  Zr  Zr46  1  0.49693504  0.49470332  0.69968805  1
  Zr  Zr47  1  0.70176833  0.49648460  0.30019087  1
  Zr  Zr48  1  0.50315332  0.10771216  0.29092491  1
  Zr  Zr49  1  0.50710439  0.49773693  0.50195920  1
  Sc  Sc50  1  0.49715073  0.29147320  0.89473892  1
  Sc  Sc51  1  0.70609023  0.29207998  0.50454660  1
  Sc  Sc52  1  0.89061183  0.50208834  0.30197364  1
  Sc  Sc53  1  0.10257315  0.50204747  0.09508523  1
  Sc  Sc54  1  0.69267722  0.89867840  0.89892626  1
  Sc  Sc55  1  0.89618966  0.90823110  0.10574940  1
  Sc  Sc56  1  0.09946655  0.49912974  0.70866095  1
  Sc  Sc57  1  0.89875407  0.70694348  0.29257606  1
  Sc  Sc58  1  0.89206539  0.29901680  0.30413427  1
  Sc  Sc59  1  0.10708034  0.70365144  0.90377327  1
  Sc  Sc60  1  0.49618819  0.29537559  0.69391342  1
  Sc  Sc61  1  0.50008396  0.90051082  0.50323256  1
  Sc  Sc62  1  0.90730871  0.49185335  0.90189058  1
  Sc  Sc63  1  0.49636344  0.50085536  0.89444382  1
  Sc  Sc64  1  0.89269802  0.10185650  0.49491056  1
  Sc  Sc65  1  0.29259373  0.50436944  0.10470714  1
  Sc  Sc66  1  0.10461501  0.49844848  0.89921198  1
  Sc  Sc67  1  0.89843651  0.09812347  0.69539268  1
  Sc  Sc68  1  0.49352785  0.90110856  0.29827092  1
  Sc  Sc69  1  0.70347238  0.50688556  0.49413687  1
  Sc  Sc70  1  0.69775808  0.89549762  0.49054667  1
  Sc  Sc71  1  0.68373303  0.10242474  0.69498647  1
  Sc  Sc72  1  0.30332627  0.29267635  0.89487853  1
  Sc  Sc73  1  0.10510589  0.09698556  0.70543905  1
  Sc  Sc74  1  0.29945959  0.10693179  0.49827385  1
  Sc  Sc75  1  0.69878702  0.10928523  0.89933099  1
  Sc  Sc76  1  0.50074720  0.71435153  0.69701524  1
  Sc  Sc77  1  0.09763364  0.90732995  0.09305920  1
  Sc  Sc78  1  0.70166154  0.50103020  0.11048829  1
  Sc  Sc79  1  0.30142022  0.70091317  0.71447597  1
  Sc  Sc80  1  0.89492642  0.10347907  0.29845163  1
  Sc  Sc81  1  0.70439030  0.50166189  0.68523381  1
  Sc  Sc82  1  0.89859830  0.69194486  0.70575921  1
  Sc  Sc83  1  0.49834233  0.70009417  0.29247747  1
  Sc  Sc84  1  0.30208785  0.50469039  0.89104675  1
  Sc  Sc85  1  0.90868132  0.89861430  0.70886674  1
  Sc  Sc86  1  0.31147172  0.89761252  0.49125928  1
  Sc  Sc87  1  0.29124561  0.29360392  0.09987129  1
  Sc  Sc88  1  0.09352349  0.49436158  0.49972445  1
  Sc  Sc89  1  0.69829403  0.50689375  0.90580553  1
  Sc  Sc90  1  0.69922250  0.70464465  0.89790022  1
  Sc  Sc91  1  0.30474724  0.90371820  0.29857836  1
  Sc  Sc92  1  0.50276699  0.10254761  0.50517969  1
  Sc  Sc93  1  0.89938734  0.49464059  0.49960291  1
  Sc  Sc94  1  0.29405977  0.48491126  0.49634647  1
  Sc  Sc95  1  0.30729709  0.89935669  0.09648349  1
  Sc  Sc96  1  0.09960479  0.89940912  0.49642113  1
  Sc  Sc97  1  0.71124931  0.90194149  0.29472114  1
  Sc  Sc98  1  0.89712329  0.69433964  0.49706085  1
  Sc  Sc99  1  0.10708978  0.49547036  0.29821878  1
  Nb  Nb100  1  0.29707952  0.29535905  0.50132914  1
  Nb  Nb101  1  0.89108492  0.29052755  0.89894978  1
  Nb  Nb102  1  0.90187975  0.90726391  0.89983927  1
  Nb  Nb103  1  0.48961912  0.29844593  0.48525868  1
  Nb  Nb104  1  0.69744097  0.69893914  0.50414129  1
  Nb  Nb105  1  0.69877054  0.09643872  0.49843946  1
  Nb  Nb106  1  0.70175241  0.90457058  0.10065727  1
  Nb  Nb107  1  0.29918878  0.10067199  0.70341343  1
  Nb  Nb108  1  0.69494422  0.08543942  0.10852627  1
  Nb  Nb109  1  0.50565136  0.69943906  0.90748184  1
  Nb  Nb110  1  0.09860900  0.09448263  0.30070913  1
  Nb  Nb111  1  0.50337561  0.30039191  0.30327883  1
  Nb  Nb112  1  0.69506861  0.90060307  0.70047549  1
  Nb  Nb113  1  0.89869546  0.90157033  0.30611202  1
  Nb  Nb114  1  0.89328729  0.10270103  0.89800572  1
  Nb  Nb115  1  0.30071371  0.69919527  0.49856608  1
  Nb  Nb116  1  0.49948728  0.09447765  0.09914267  1
  Nb  Nb117  1  0.09881684  0.70634761  0.30120808  1
  Nb  Nb118  1  0.89839706  0.90330404  0.50347322  1
  Nb  Nb119  1  0.50876239  0.91492561  0.70129621  1
  Nb  Nb120  1  0.49278266  0.08725147  0.70245991  1
  Nb  Nb121  1  0.70256483  0.70413915  0.69854314  1
  Nb  Nb122  1  0.89784641  0.49989524  0.10469347  1
  Nb  Nb123  1  0.09442292  0.89927771  0.29930835  1
  Nb  Nb124  1  0.31055200  0.70764883  0.90609563  1
  Nb  Nb125  1  0.19088123  0.80207986  0.20498848  1
  Nb  Nb126  1  0.40430981  0.40372165  0.00641398  1
  Nb  Nb127  1  0.59536031  0.39874814  -0.00082888  1
  Nb  Nb128  1  0.39949405  0.59930431  0.40598156  1
  Nb  Nb129  1  0.20673802  -0.00505521  0.60301448  1
  Nb  Nb130  1  0.79741867  0.39731492  0.80045973  1
  Nb  Nb131  1  0.60488300  0.40105668  0.79936356  1
  Nb  Nb132  1  0.80099988  0.80442117  0.00206066  1
  Nb  Nb133  1  0.39529512  0.60176392  0.59392147  1
  Nb  Nb134  1  0.79241034  -0.00852295  0.60188262  1
  Nb  Nb135  1  0.40651864  0.39645389  0.20057816  1
  Nb  Nb136  1  0.20601537  0.60378400  0.59909207  1
  Nb  Nb137  1  0.79722168  -0.00179839  0.79724584  1
  Nb  Nb138  1  -0.00669304  0.20048089  0.80210527  1
  Nb  Nb139  1  0.00359533  0.20153238  0.60107784  1
  Nb  Nb140  1  0.80458357  0.60583366  0.00438216  1
  Nb  Nb141  1  -0.00154845  -0.00381804  0.39392397  1
  Nb  Nb142  1  0.60181531  0.60253020  0.79368713  1
  Nb  Nb143  1  0.00448424  0.60503451  0.39370736  1
  Nb  Nb144  1  0.40359744  0.60367391  0.00005103  1
  Nb  Nb145  1  0.60418092  0.00726489  0.39742318  1
  Nb  Nb146  1  -0.00551221  0.39913388  0.19516728  1
  Nb  Nb147  1  0.20191351  0.79941520  0.60025570  1
  Nb  Nb148  1  -0.00150669  0.79942924  0.59805594  1
  Nb  Nb149  1  0.79795786  0.80171418  0.60398286  1
  Pd  Pd150  1  0.79310503  -0.00198909  -0.00942207  1
  Pd  Pd151  1  -0.00155181  0.00942171  0.00465074  1
  Pd  Pd152  1  0.60509503  0.19966328  0.00710009  1
  Pd  Pd153  1  0.39483558  0.00341258  0.59347400  1
  Pd  Pd154  1  0.19772789  -0.00523480  0.40534125  1
  Pd  Pd155  1  0.60477551  0.80719399  0.59814638  1
  Pd  Pd156  1  0.59402115  0.60527742  0.60594864  1
  Pd  Pd157  1  0.39639531  0.79656130  0.60125910  1
  Pd  Pd158  1  0.20128444  -0.01204386  0.19465044  1
  Pd  Pd159  1  0.59874460  0.80901002  0.39033755  1
  Pd  Pd160  1  0.20487075  0.39492803  0.80775261  1
  Pd  Pd161  1  0.19761681  0.79739896  0.79849404  1
  Pd  Pd162  1  0.79466015  0.41142346  -0.00509656  1
  Pd  Pd163  1  -0.00717098  0.00192803  0.20381261  1
  Pd  Pd164  1  0.00017161  0.00227016  0.59378285  1
  Pd  Pd165  1  0.21172494  0.40199301  -0.00668810  1
  Pd  Pd166  1  0.00115570  0.80900752  0.19432601  1
  Pd  Pd167  1  0.59113365  0.20316051  0.59503537  1
  Pd  Pd168  1  0.80420497  0.60479307  0.59664326  1
  Pd  Pd169  1  0.20453816  0.81192943  0.39734293  1
  Pd  Pd170  1  0.40345277  0.19625348  0.59994563  1
  Pd  Pd171  1  -0.00934226  0.79966644  0.40568616  1
  Pd  Pd172  1  0.19911866  0.59079175  0.40347076  1
  Pd  Pd173  1  0.60834657  0.19867405  0.19449318  1
  Pd  Pd174  1  0.20932471  0.60195198  -0.00713968  1
  Pd  Pd175  1  0.60156289  0.00222787  -0.00749620  1
  Pd  Pd176  1  0.59537819  0.79597533  0.79962124  1
  Pd  Pd177  1  -0.00698259  0.80604017  0.00574693  1
  Pd  Pd178  1  0.41034549  0.00999640  0.39984995  1
  Pd  Pd179  1  0.60973482  0.39154217  0.41388176  1
  Pd  Pd180  1  0.19853840  0.39257583  0.20072066  1
  Pd  Pd181  1  0.39888677  0.19072766  0.39784667  1
  Pd  Pd182  1  0.19922936  0.19892689  -0.00634498  1
  Pd  Pd183  1  0.00144887  0.18835491  -0.00480845  1
  Pd  Pd184  1  0.60524629  0.80680219  0.21035991  1
  Pd  Pd185  1  0.60280772  0.38967343  0.59690675  1
  Pd  Pd186  1  0.00877834  0.39524837  0.60163771  1
  Pd  Pd187  1  0.39933965  0.40697682  0.39640698  1
  Pd  Pd188  1  0.79467317  0.59141220  0.80556004  1
  Pd  Pd189  1  0.39140399  0.20322451  0.20077612  1
  Pd  Pd190  1  0.00472627  0.58905996  0.20953410  1
  Pd  Pd191  1  0.40972783  0.61121197  0.80011338  1
  Pd  Pd192  1  -0.01072459  0.20555595  0.20208868  1
  Pd  Pd193  1  -0.00329052  0.59527948  -0.00540489  1
  Pd  Pd194  1  0.80392962  0.79853376  0.40695313  1
  Pd  Pd195  1  0.60394720  0.00796264  0.80844840  1
  Pd  Pd196  1  0.80098066  0.80956048  0.80111178  1
  Pd  Pd197  1  0.19454676  0.40644287  0.60287590  1
  Pd  Pd198  1  0.39730272  0.39887535  0.59515022  1
  Pd  Pd199  1  0.00296814  0.59824575  0.81216798  1
  Rh  Rh200  1  0.78865810  0.19012323  0.00754884  1
  Rh  Rh201  1  -0.01191090  0.01066201  0.80244755  1
  Rh  Rh202  1  0.80537589  0.60287225  0.40108592  1
  Rh  Rh203  1  0.59840186  0.60452832  0.39828658  1
  Rh  Rh204  1  0.20341113  0.19573504  0.39459655  1
  Rh  Rh205  1  0.19870962  0.80009974  0.00817903  1
  Rh  Rh206  1  0.40411729  0.39010646  0.80463960  1
  Rh  Rh207  1  0.40377807  0.79895566  0.00391129  1
  Rh  Rh208  1  0.79752280  0.20094959  0.19571239  1
  Rh  Rh209  1  0.00616220  0.60485047  0.58821192  1
  Rh  Rh210  1  0.39261126  0.80446399  0.20062046  1
  Rh  Rh211  1  0.19098374  0.60985960  0.20161898  1
  Rh  Rh212  1  0.19715813  0.19038106  0.60224912  1
  Rh  Rh213  1  0.60792546  0.60779598  0.21027031  1
  Rh  Rh214  1  0.59295884  0.39085556  0.19263793  1
  Rh  Rh215  1  0.39516568  0.20109090  0.00287755  1
  Rh  Rh216  1  0.80314934  0.00060964  0.20480745  1
  Rh  Rh217  1  0.79859657  0.20287825  0.40332421  1
  Rh  Rh218  1  -0.00021253  0.40760733  0.00645972  1
  Rh  Rh219  1  0.80833450  0.39721675  0.20287562  1
  Rh  Rh220  1  0.20065742  0.60553997  0.80024957  1
  Rh  Rh221  1  0.40277122  -0.00239346  -0.00160129  1
  Rh  Rh222  1  0.19859805  0.39861906  0.39739108  1
  Rh  Rh223  1  0.60560661  0.80765199  0.00140390  1
  Rh  Rh224  1  0.79999399  -0.00093477  0.40407421  1
  Rh  Rh225  1  0.60334638  -0.00498320  0.59009412  1
  Rh  Rh226  1  0.80386948  0.19373624  0.78983959  1
  Rh  Rh227  1  0.40325884  0.00172911  0.19689428  1
  Rh  Rh228  1  0.79486518  0.60309900  0.19843627  1
  Rh  Rh229  1  0.79820226  0.40257714  0.59926350  1
  Rh  Rh230  1  0.20965765  -0.00413007  0.79540451  1
  Rh  Rh231  1  0.59842107  0.19920798  0.40632866  1
  Rh  Rh232  1  0.40428141  0.79370469  0.39509091  1
  Rh  Rh233  1  0.00234705  0.79685035  0.79775048  1
  Rh  Rh234  1  -0.00438136  0.18945160  0.40285856  1
  Rh  Rh235  1  0.79611984  0.39755949  0.40348467  1
  Rh  Rh236  1  0.19925104  -0.00034824  0.00344064  1
  Rh  Rh237  1  0.40414356  0.59549289  0.20181108  1
  Rh  Rh238  1  -0.00268234  0.41102447  0.38543647  1
  Rh  Rh239  1  0.80361526  0.18764453  0.59862123  1
  Rh  Rh240  1  0.39968481  -0.00057264  0.80725289  1
  Rh  Rh241  1  0.58915494  0.19907599  0.79274309  1
  Rh  Rh242  1  0.20079137  0.20291074  0.20680706  1
  Rh  Rh243  1  0.59960739  -0.00273062  0.20856514  1
  Rh  Rh244  1  -0.00965723  0.39192297  0.80089288  1
  Rh  Rh245  1  0.40242399  0.19594190  0.79013833  1
  Rh  Rh246  1  0.19487368  0.19978397  0.80572390  1
  Rh  Rh247  1  0.80038615  0.80483979  0.19379778  1
  Rh  Rh248  1  0.59927305  0.59664460  -0.00630900  1
  Rh  Rh249  1  0.41063682  0.80080619  0.80076340  1
