# generated using pymatgen
data_ZrScNbPdRh
_symmetry_space_group_name_H-M   'P 1'
_cell_length_a   16.55567423
_cell_length_b   16.55654722
_cell_length_c   16.55673093
_cell_angle_alpha   90.00585569
_cell_angle_beta   90.01151796
_cell_angle_gamma   89.98447753
_symmetry_Int_Tables_number   1
_chemical_formula_structural   ZrScNbPdRh
_chemical_formula_sum   'Zr50 Sc50 Nb50 Pd50 Rh50'
_cell_volume   4538.27917547
_cell_formula_units_Z   50
loop_
 _symmetry_equiv_pos_site_id
 _symmetry_equiv_pos_as_xyz
  1  'x, y, z'
loop_
 _atom_site_type_symbol
 _atom_site_label
 _atom_site_symmetry_multiplicity
 _atom_site_fract_x
 _atom_site_fract_y
 _atom_site_fract_z
 _atom_site_occupancy
  Zr  Zr0  1  0.09821295  0.30198840  0.89605087  1
  Zr  Zr1  1  0.49313771  0.50319837  0.69495417  1
  Zr  Zr2  1  0.09680346  0.30120782  0.69291372  1
  Zr  Zr3  1  0.49605487  0.29541609  0.89774488  1
  Zr  Zr4  1  0.69377200  0.70969591  0.29865664  1
  Zr  Zr5  1  0.70631888  0.09440886  0.70006413  1
  Zr  Zr6  1  0.29817136  0.09888523  0.49631820  1
  Zr  Zr7  1  0.70366958  0.70343635  0.90603613  1
  Zr  Zr8  1  0.50078547  0.09645062  0.29629820  1
  Zr  Zr9  1  0.71526640  0.10296596  0.29971044  1
  Zr  Zr10  1  0.89185161  0.69930894  0.30636168  1
  Zr  Zr11  1  0.71129603  0.29993832  0.90189812  1
  Zr  Zr12  1  0.29467758  0.29650196  0.90222744  1
  Zr  Zr13  1  0.11271053  0.70113219  0.30139683  1
  Zr  Zr14  1  0.89927954  0.89802366  0.89552843  1
  Zr  Zr15  1  0.88940108  0.89738621  0.30024690  1
  Zr  Zr16  1  0.10510362  0.90010080  0.30207647  1
  Zr  Zr17  1  0.30052011  0.90273028  0.70395982  1
  Zr  Zr18  1  0.09948244  0.90073383  0.10488826  1
  Zr  Zr19  1  0.90040246  0.50225116  0.30297571  1
  Zr  Zr20  1  0.70201236  0.50000672  0.49593896  1
  Zr  Zr21  1  0.29042510  0.50034560  0.68854716  1
  Zr  Zr22  1  0.08838683  0.10152767  0.70346232  1
  Zr  Zr23  1  0.29022095  0.50225042  0.89911142  1
  Zr  Zr24  1  0.70142545  0.09997371  0.89587628  1
  Zr  Zr25  1  0.70174787  0.50037148  0.69021193  1
  Zr  Zr26  1  0.10104933  0.50075124  0.51375881  1
  Zr  Zr27  1  0.70797653  0.30312439  0.49854001  1
  Zr  Zr28  1  0.90736980  0.49167191  0.90213432  1
  Zr  Zr29  1  0.29451678  0.90596657  0.49527348  1
  Zr  Zr30  1  0.50899995  0.10124972  0.50304295  1
  Zr  Zr31  1  0.29297363  0.89890067  0.30255680  1
  Zr  Zr32  1  0.29687579  0.70335995  0.90356969  1
  Zr  Zr33  1  0.70373170  0.30143024  0.70462730  1
  Zr  Zr34  1  0.29277995  0.69994513  0.10041319  1
  Zr  Zr35  1  0.89588968  0.30308059  0.90024786  1
  Zr  Zr36  1  0.30102317  0.49651172  0.09849721  1
  Zr  Zr37  1  0.09935783  0.49563465  0.09873995  1
  Zr  Zr38  1  0.29375147  0.09547471  0.30146497  1
  Zr  Zr39  1  0.30030216  0.09827654  0.89812556  1
  Zr  Zr40  1  0.69538105  0.70331424  0.10189402  1
  Zr  Zr41  1  0.90416402  0.10121035  0.89207539  1
  Zr  Zr42  1  0.89871734  0.30417112  0.09737158  1
  Zr  Zr43  1  0.50255189  0.09197314  0.90375957  1
  Zr  Zr44  1  0.09669650  0.49853018  0.29337316  1
  Zr  Zr45  1  0.09487506  0.90685617  0.69681428  1
  Zr  Zr46  1  0.89811364  0.89747173  0.50275003  1
  Zr  Zr47  1  0.51109106  0.70022300  0.10356155  1
  Zr  Zr48  1  0.70870080  0.49516962  0.90203199  1
  Zr  Zr49  1  0.50059318  0.50227115  0.49980461  1
  Sc  Sc50  1  0.90604085  0.49766680  0.10501494  1
  Sc  Sc51  1  0.30288830  0.69168022  0.70366869  1
  Sc  Sc52  1  0.89997231  0.50048938  0.49524106  1
  Sc  Sc53  1  0.90557888  0.30150455  0.70575764  1
  Sc  Sc54  1  0.70051874  0.09579711  0.10342702  1
  Sc  Sc55  1  0.91029420  0.89973009  0.10042715  1
  Sc  Sc56  1  0.10133158  0.10882428  0.29408696  1
  Sc  Sc57  1  0.90124092  0.10466515  0.10946298  1
  Sc  Sc58  1  0.29229281  0.89807269  0.09534245  1
  Sc  Sc59  1  0.51242693  0.49516142  0.29814050  1
  Sc  Sc60  1  0.90482938  0.30020417  0.30021520  1
  Sc  Sc61  1  0.51673184  0.30081604  0.49484524  1
  Sc  Sc62  1  0.89994851  0.10084738  0.49659616  1
  Sc  Sc63  1  0.09282102  0.91102481  0.90970492  1
  Sc  Sc64  1  0.09938832  0.68216026  0.69421326  1
  Sc  Sc65  1  0.10129711  0.70009749  0.09936584  1
  Sc  Sc66  1  0.90763013  0.49755715  0.69377951  1
  Sc  Sc67  1  0.71079980  0.89336180  0.69595112  1
  Sc  Sc68  1  0.49371465  0.90132850  0.89875437  1
  Sc  Sc69  1  0.09307887  0.10871784  0.49941004  1
  Sc  Sc70  1  0.69419987  0.89521623  0.10042158  1
  Sc  Sc71  1  0.89617281  0.70716171  0.69551459  1
  Sc  Sc72  1  0.10052890  0.49627933  0.70572807  1
  Sc  Sc73  1  0.50375757  0.70209235  0.49140231  1
  Sc  Sc74  1  0.70410860  0.30672907  0.30438955  1
  Sc  Sc75  1  0.70764892  0.50321234  0.30478052  1
  Sc  Sc76  1  0.50557251  0.09830252  0.70514959  1
  Sc  Sc77  1  0.30152250  0.68722470  0.48751747  1
  Sc  Sc78  1  0.89614462  0.70613831  0.10522154  1
  Sc  Sc79  1  0.69853585  0.89832690  0.90028299  1
  Sc  Sc80  1  0.28491302  0.29450988  0.70534842  1
  Sc  Sc81  1  0.69909372  0.50614700  0.10683544  1
  Sc  Sc82  1  0.09897472  0.10554168  0.90335875  1
  Sc  Sc83  1  0.48842838  0.50242535  0.91013288  1
  Sc  Sc84  1  0.49875140  0.89881842  0.70024786  1
  Sc  Sc85  1  0.90051797  0.69848227  0.90505147  1
  Sc  Sc86  1  0.89763051  0.90561902  0.69684050  1
  Sc  Sc87  1  0.28930840  0.30688071  0.10198058  1
  Sc  Sc88  1  0.90449783  0.69824827  0.49937538  1
  Sc  Sc89  1  0.48940569  0.31953829  0.10624133  1
  Sc  Sc90  1  0.29499442  0.09371346  0.70145113  1
  Sc  Sc91  1  0.09674668  0.90032272  0.49526716  1
  Sc  Sc92  1  0.49405739  0.69940186  0.69150919  1
  Sc  Sc93  1  0.49193948  0.70474478  0.90502156  1
  Sc  Sc94  1  0.50429518  0.89776533  0.30234008  1
  Sc  Sc95  1  0.50563309  0.90733782  0.09731870  1
  Sc  Sc96  1  0.29171166  0.09530954  0.10314953  1
  Sc  Sc97  1  0.09954430  0.10168824  0.09708062  1
  Sc  Sc98  1  0.70465618  0.89422979  0.50519904  1
  Sc  Sc99  1  0.50678946  0.89684099  0.50075276  1
  Nb  Nb100  1  0.89698116  0.09700788  0.30069707  1
  Nb  Nb101  1  0.69927489  0.70391000  0.50657425  1
  Nb  Nb102  1  0.50048304  0.10096791  0.10158313  1
  Nb  Nb103  1  0.29333175  0.50314441  0.30259892  1
  Nb  Nb104  1  0.10806569  0.29821432  0.29972265  1
  Nb  Nb105  1  0.49643490  0.30143155  0.70071383  1
  Nb  Nb106  1  0.90083685  0.09554831  0.69693126  1
  Nb  Nb107  1  0.70328756  0.10360547  0.49994969  1
  Nb  Nb108  1  0.49800612  0.70344254  0.29800916  1
  Nb  Nb109  1  0.30099249  0.69518024  0.29664780  1
  Nb  Nb110  1  0.29336696  0.29625538  0.49855688  1
  Nb  Nb111  1  0.70164037  0.29851369  0.09840209  1
  Nb  Nb112  1  0.70358727  0.90049225  0.30664593  1
  Nb  Nb113  1  0.91502997  0.29739698  0.50138210  1
  Nb  Nb114  1  0.10139692  0.70339568  0.50172595  1
  Nb  Nb115  1  0.09988098  0.29929085  0.10743727  1
  Nb  Nb116  1  0.10235407  0.68774402  0.89497589  1
  Nb  Nb117  1  0.49793851  0.50328951  0.10239804  1
  Nb  Nb118  1  0.09602719  0.50870690  0.89898796  1
  Nb  Nb119  1  0.69947707  0.70041971  0.69911693  1
  Nb  Nb120  1  0.09726745  0.29601974  0.49494660  1
  Nb  Nb121  1  0.30136028  0.49232961  0.49805286  1
  Nb  Nb122  1  0.30385435  0.89415339  0.89020329  1
  Nb  Nb123  1  0.49715636  0.29955760  0.30043555  1
  Nb  Nb124  1  0.29601536  0.29672866  0.30102309  1
  Nb  Nb125  1  0.80320828  0.19854698  0.59868397  1
  Nb  Nb126  1  0.40148428  0.60003339  0.20514035  1
  Nb  Nb127  1  0.60369349  0.78925096  0.79616443  1
  Nb  Nb128  1  0.59625188  0.20495779  0.00819831  1
  Nb  Nb129  1  0.40075338  0.20615692  0.59602361  1
  Nb  Nb130  1  0.01009349  0.79591661  0.80140124  1
  Nb  Nb131  1  0.40392251  0.19743958  0.01084243  1
  Nb  Nb132  1  0.39508294  0.38940968  0.59530543  1
  Nb  Nb133  1  0.79504285  0.60058188  0.79695631  1
  Nb  Nb134  1  0.39972707  0.20278894  0.20307053  1
  Nb  Nb135  1  0.80383439  0.00169828  -0.00336797  1
  Nb  Nb136  1  0.39324354  0.39540023  0.39959213  1
  Nb  Nb137  1  0.60092858  0.39809467  0.00099343  1
  Nb  Nb138  1  0.39820713  0.39852682  0.79329542  1
  Nb  Nb139  1  0.20200118  0.79701766  0.60100937  1
  Nb  Nb140  1  0.19395671  0.79952889  0.80020439  1
  Nb  Nb141  1  0.38924049  0.80165932  0.59478906  1
  Nb  Nb142  1  0.60325949  0.59933019  0.79998941  1
  Nb  Nb143  1  0.20003183  0.39582861  0.40104844  1
  Nb  Nb144  1  0.39866973  0.79382930  0.20460352  1
  Nb  Nb145  1  0.39927099  0.20515647  0.39976127  1
  Nb  Nb146  1  0.59515327  0.20624348  0.19614656  1
  Nb  Nb147  1  0.61425791  0.00407459  0.40043841  1
  Nb  Nb148  1  0.59402168  0.40382444  0.80204796  1
  Nb  Nb149  1  -0.00794356  0.00237798  0.39045850  1
  Pd  Pd150  1  -0.00397247  0.60422241  0.00836404  1
  Pd  Pd151  1  0.39494235  -0.00781111  0.19533226  1
  Pd  Pd152  1  0.00566856  0.40080932  0.40040639  1
  Pd  Pd153  1  0.18968312  0.00190778  0.59298880  1
  Pd  Pd154  1  0.19105072  0.39994855  -0.00419327  1
  Pd  Pd155  1  0.40508731  0.00182103  0.60237416  1
  Pd  Pd156  1  0.39575660  0.80264885  0.40074791  1
  Pd  Pd157  1  0.00329043  0.00367433  0.20466059  1
  Pd  Pd158  1  0.39480323  0.19729554  0.79352852  1
  Pd  Pd159  1  0.19171016  0.59277823  0.40505699  1
  Pd  Pd160  1  0.80235088  0.81002373  0.00732864  1
  Pd  Pd161  1  0.60416453  0.20328836  0.60668446  1
  Pd  Pd162  1  0.40191199  0.59784315  0.80347726  1
  Pd  Pd163  1  0.19368039  -0.00247960  0.80947641  1
  Pd  Pd164  1  0.60325081  -0.01474286  0.79642765  1
  Pd  Pd165  1  0.60844180  0.00070809  0.20631694  1
  Pd  Pd166  1  0.60185784  0.19696032  0.38894022  1
  Pd  Pd167  1  0.59596960  0.39652229  0.60228077  1
  Pd  Pd168  1  0.00670011  0.79309853  -0.00553256  1
  Pd  Pd169  1  0.60806307  -0.00831798  0.59819323  1
  Pd  Pd170  1  0.40697100  0.59074953  0.39171177  1
  Pd  Pd171  1  -0.01309750  0.60473754  0.79367621  1
  Pd  Pd172  1  0.81383921  0.39289646  0.59789651  1
  Pd  Pd173  1  0.59673862  0.60786046  0.59894982  1
  Pd  Pd174  1  0.79918680  -0.00827225  0.18830913  1
  Pd  Pd175  1  0.00053085  0.20248439  0.00200616  1
  Pd  Pd176  1  0.79801638  0.60285184  0.20050462  1
  Pd  Pd177  1  0.39235924  0.40497480  0.21021586  1
  Pd  Pd178  1  0.39168932  -0.00019687  0.00459324  1
  Pd  Pd179  1  0.20282295  -0.00108381  -0.00465176  1
  Pd  Pd180  1  0.00653377  0.79624649  0.60652576  1
  Pd  Pd181  1  0.41239584  -0.00041436  0.40273188  1
  Pd  Pd182  1  0.40401021  0.80612374  0.01152902  1
  Pd  Pd183  1  0.80745967  0.60361830  0.59825583  1
  Pd  Pd184  1  0.59848665  0.59296960  -0.00575753  1
  Pd  Pd185  1  0.81124544  0.20807989  0.40437426  1
  Pd  Pd186  1  0.39820208  0.60492111  0.00760075  1
  Pd  Pd187  1  0.60231031  0.20354407  0.80248979  1
  Pd  Pd188  1  -0.00048893  0.80299518  0.39526557  1
  Pd  Pd189  1  -0.00044140  0.20490053  0.20389838  1
  Pd  Pd190  1  0.18971538  0.80314089  -0.01009807  1
  Pd  Pd191  1  0.00115561  0.79287605  0.20799258  1
  Pd  Pd192  1  0.00045326  0.60932769  0.19927825  1
  Pd  Pd193  1  0.00788162  0.60158473  0.40359024  1
  Pd  Pd194  1  0.79953471  0.39971668  0.20205870  1
  Pd  Pd195  1  0.80835427  0.59545529  0.00221593  1
  Pd  Pd196  1  0.60758089  0.39907119  0.19793091  1
  Pd  Pd197  1  0.79870651  0.18869335  0.00712025  1
  Pd  Pd198  1  0.60450873  0.60290828  0.39547964  1
  Pd  Pd199  1  0.20084651  0.19364597  0.60262890  1
  Rh  Rh200  1  0.79630708  0.80439159  0.19607455  1
  Rh  Rh201  1  0.00621224  0.39554568  0.00018938  1
  Rh  Rh202  1  0.59516210  0.80876563  0.20323409  1
  Rh  Rh203  1  0.00445081  0.40007189  0.80173917  1
  Rh  Rh204  1  0.19807923  0.40365854  0.80304059  1
  Rh  Rh205  1  0.19507978  0.00034432  0.19846854  1
  Rh  Rh206  1  0.19770900  0.19898898  0.39965115  1
  Rh  Rh207  1  -0.00133826  -0.00470135  0.80079487  1
  Rh  Rh208  1  0.79817742  0.20717862  0.19991225  1
  Rh  Rh209  1  0.80152099  0.41125590  0.78998717  1
  Rh  Rh210  1  0.00121309  0.39952689  0.59795052  1
  Rh  Rh211  1  0.79317579  0.60748871  0.40630994  1
  Rh  Rh212  1  0.79737237  0.40896288  0.01445683  1
  Rh  Rh213  1  -0.00186516  0.19482065  0.39110002  1
  Rh  Rh214  1  -0.00318662  0.60039229  0.59825354  1
  Rh  Rh215  1  0.20263774  0.60073361  0.79909110  1
  Rh  Rh216  1  0.40100821  0.79772648  0.79107032  1
  Rh  Rh217  1  0.19596148  0.59708186  0.00395317  1
  Rh  Rh218  1  0.79563259  0.79294998  0.40763056  1
  Rh  Rh219  1  0.20363480  0.20081675  0.19318347  1
  Rh  Rh220  1  0.80245735  0.79404741  0.80000694  1
  Rh  Rh221  1  -0.00918764  0.01020596  0.00472336  1
  Rh  Rh222  1  0.80092111  0.00688290  0.59402370  1
  Rh  Rh223  1  0.80987568  0.39828436  0.40177514  1
  Rh  Rh224  1  0.19297195  0.19355439  0.79769786  1
  Rh  Rh225  1  0.60626038  0.80555443  0.40217661  1
  Rh  Rh226  1  0.20507572  0.79324554  0.40783856  1
  Rh  Rh227  1  0.40224060  0.00454986  0.79827986  1
  Rh  Rh228  1  -0.00747576  0.19856787  0.60267687  1
  Rh  Rh229  1  0.39841154  0.60341743  0.58794828  1
  Rh  Rh230  1  0.20440850  0.60758885  0.59191861  1
  Rh  Rh231  1  0.59232479  0.79810710  0.60527411  1
  Rh  Rh232  1  0.80099616  -0.00342033  0.80363020  1
  Rh  Rh233  1  0.80199548  0.79534832  0.59682888  1
  Rh  Rh234  1  0.19760656  0.39304058  0.59501391  1
  Rh  Rh235  1  -0.00252904  0.00332232  0.58738013  1
  Rh  Rh236  1  0.19837555  0.40127800  0.20573752  1
  Rh  Rh237  1  0.20438491  0.80214437  0.20018340  1
  Rh  Rh238  1  0.60911610  0.00505452  -0.00133229  1
  Rh  Rh239  1  0.00156668  0.39337314  0.20165850  1
  Rh  Rh240  1  0.80833451  0.19639208  0.78782008  1
  Rh  Rh241  1  0.59349966  0.80496707  -0.01030863  1
  Rh  Rh242  1  -0.00263141  0.20340453  0.79900527  1
  Rh  Rh243  1  0.59806511  0.59805830  0.20668282  1
  Rh  Rh244  1  0.20309259  0.20146069  0.00546504  1
  Rh  Rh245  1  0.60161300  0.40210451  0.39884147  1
  Rh  Rh246  1  0.80103316  -0.00212235  0.40697868  1
  Rh  Rh247  1  0.18185979  0.01039825  0.40144253  1
  Rh  Rh248  1  0.40081194  0.39467704  -0.00797565  1
  Rh  Rh249  1  0.20269500  0.59472562  0.19462128  1
