# generated using pymatgen
data_ZrScNbPdRh
_symmetry_space_group_name_H-M   'P 1'
_cell_length_a   16.55794953
_cell_length_b   16.55671039
_cell_length_c   16.55712318
_cell_angle_alpha   89.99918836
_cell_angle_beta   90.00007861
_cell_angle_gamma   89.98874644
_symmetry_Int_Tables_number   1
_chemical_formula_structural   ZrScNbPdRh
_chemical_formula_sum   'Zr50 Sc50 Nb50 Pd50 Rh50'
_cell_volume   4539.05534098
_cell_formula_units_Z   50
loop_
 _symmetry_equiv_pos_site_id
 _symmetry_equiv_pos_as_xyz
  1  'x, y, z'
loop_
 _atom_site_type_symbol
 _atom_site_label
 _atom_site_symmetry_multiplicity
 _atom_site_fract_x
 _atom_site_fract_y
 _atom_site_fract_z
 _atom_site_occupancy
  Zr  Zr0  1  0.49794249  0.49944561  0.68824628  1
  Zr  Zr1  1  0.90661662  0.49955557  0.30868667  1
  Zr  Zr2  1  0.69307104  0.09979541  0.49510715  1
  Zr  Zr3  1  0.90716346  0.50223536  0.90600955  1
  Zr  Zr4  1  0.10120163  0.70362912  0.69885716  1
  Zr  Zr5  1  0.10663178  0.50432604  0.70792296  1
  Zr  Zr6  1  0.29611115  0.89012659  0.09571332  1
  Zr  Zr7  1  0.69794476  0.50168301  0.10086566  1
  Zr  Zr8  1  0.29464462  0.11235880  0.49090795  1
  Zr  Zr9  1  0.29995026  0.49043009  0.49424036  1
  Zr  Zr10  1  0.69815610  0.50165302  0.69135480  1
  Zr  Zr11  1  0.69611325  0.51038847  0.30080958  1
  Zr  Zr12  1  0.70353827  0.70381377  0.29877977  1
  Zr  Zr13  1  0.49984462  0.30259824  0.10468907  1
  Zr  Zr14  1  0.48810197  0.69654038  0.69578588  1
  Zr  Zr15  1  0.90428115  0.09725625  0.29181721  1
  Zr  Zr16  1  0.30279725  0.69672619  0.29447080  1
  Zr  Zr17  1  0.50066679  0.91010492  0.28737559  1
  Zr  Zr18  1  0.89978074  0.09306632  0.09648237  1
  Zr  Zr19  1  0.90170679  0.90554565  0.89987758  1
  Zr  Zr20  1  0.10828074  0.69979004  0.09642503  1
  Zr  Zr21  1  0.30016797  0.30194429  0.30967798  1
  Zr  Zr22  1  0.70324854  0.89892048  0.89847596  1
  Zr  Zr23  1  0.69929435  0.90078798  0.30864777  1
  Zr  Zr24  1  0.69724392  0.29230388  0.30274542  1
  Zr  Zr25  1  0.50151827  0.69072931  0.29929176  1
  Zr  Zr26  1  0.90297618  0.90127395  0.70208316  1
  Zr  Zr27  1  0.10607226  0.29750807  0.70411787  1
  Zr  Zr28  1  0.09926442  0.89648493  0.10044616  1
  Zr  Zr29  1  0.70110122  0.70054398  0.49939250  1
  Zr  Zr30  1  0.49547592  0.70068271  0.89998006  1
  Zr  Zr31  1  0.29489904  0.50418151  0.10506753  1
  Zr  Zr32  1  0.09478153  0.10009163  0.11219483  1
  Zr  Zr33  1  0.89782081  0.30664192  0.49826206  1
  Zr  Zr34  1  0.90030208  0.50523269  0.50063907  1
  Zr  Zr35  1  0.30719606  0.70282136  0.49781078  1
  Zr  Zr36  1  0.49783200  0.08752200  0.10348826  1
  Zr  Zr37  1  0.29017245  0.49925003  0.89850034  1
  Zr  Zr38  1  0.29595335  0.90095178  0.29482889  1
  Zr  Zr39  1  0.70029419  0.10412481  0.69574490  1
  Zr  Zr40  1  0.70717996  0.10406446  0.09922027  1
  Zr  Zr41  1  0.10564560  0.09790109  0.89966918  1
  Zr  Zr42  1  0.50018324  0.30899360  0.29947886  1
  Zr  Zr43  1  0.69909483  0.90556873  0.50021592  1
  Zr  Zr44  1  0.69781861  0.69337010  0.90190300  1
  Zr  Zr45  1  0.29273591  0.88954326  0.69395796  1
  Zr  Zr46  1  0.70007161  0.69141831  0.10975596  1
  Zr  Zr47  1  0.09354435  0.69341744  0.89808461  1
  Zr  Zr48  1  0.91055011  0.90061207  0.50535587  1
  Zr  Zr49  1  0.10006250  0.89516353  0.89981820  1
  Sc  Sc50  1  0.28370220  0.09640320  0.10726644  1
  Sc  Sc51  1  0.09232122  0.89540861  0.69801171  1
  Sc  Sc52  1  0.71364909  0.09484631  0.90363449  1
  Sc  Sc53  1  0.50323255  0.49791632  0.11215719  1
  Sc  Sc54  1  0.89505174  0.70104289  0.30380786  1
  Sc  Sc55  1  0.49441049  0.09828067  0.69330580  1
  Sc  Sc56  1  0.09616885  0.49912955  0.08625602  1
  Sc  Sc57  1  0.10298351  0.09969773  0.70293844  1
  Sc  Sc58  1  0.10690527  0.30422435  0.89800721  1
  Sc  Sc59  1  0.89949400  0.10080593  0.70794414  1
  Sc  Sc60  1  0.89597211  0.50084478  0.69702165  1
  Sc  Sc61  1  0.90329677  0.49836178  0.09792781  1
  Sc  Sc62  1  0.90716212  0.69407433  0.49896162  1
  Sc  Sc63  1  0.70342134  0.29429949  0.50325439  1
  Sc  Sc64  1  0.29821285  0.70866037  0.89566804  1
  Sc  Sc65  1  0.70734008  0.30440223  0.90510762  1
  Sc  Sc66  1  0.30525996  0.49945537  0.70114378  1
  Sc  Sc67  1  0.50161112  0.90592267  0.69701408  1
  Sc  Sc68  1  0.69736972  0.30211166  0.10421889  1
  Sc  Sc69  1  0.70461929  0.49858824  0.90661096  1
  Sc  Sc70  1  0.69741365  0.90625094  0.10431739  1
  Sc  Sc71  1  0.29762467  0.30017036  0.70008850  1
  Sc  Sc72  1  0.49765287  0.89857556  0.89446958  1
  Sc  Sc73  1  0.90304332  0.30317971  0.89185283  1
  Sc  Sc74  1  0.49893820  0.69892350  0.50109818  1
  Sc  Sc75  1  0.50523909  0.10767585  0.30381661  1
  Sc  Sc76  1  0.31084691  0.49842201  0.29786273  1
  Sc  Sc77  1  0.69871198  0.69907149  0.69865345  1
  Sc  Sc78  1  0.09079685  0.70671428  0.49992735  1
  Sc  Sc79  1  0.69884015  0.50159301  0.50563752  1
  Sc  Sc80  1  0.90258978  0.69567449  0.69939230  1
  Sc  Sc81  1  0.69745437  0.90552671  0.70657613  1
  Sc  Sc82  1  0.49860228  0.10525165  0.50326583  1
  Sc  Sc83  1  0.90829687  0.30440255  0.10268465  1
  Sc  Sc84  1  0.48951053  0.09633002  0.88792639  1
  Sc  Sc85  1  0.89464001  0.09687873  0.50975318  1
  Sc  Sc86  1  0.09289700  0.50092857  0.49646585  1
  Sc  Sc87  1  0.71427840  0.30179920  0.69515789  1
  Sc  Sc88  1  0.48676039  0.29487913  0.69757374  1
  Sc  Sc89  1  0.10015430  0.50249620  0.90009564  1
  Sc  Sc90  1  0.89961378  0.89559682  0.29903637  1
  Sc  Sc91  1  0.09812181  0.70463761  0.29997642  1
  Sc  Sc92  1  0.49991509  0.49781220  0.90545055  1
  Sc  Sc93  1  0.29705750  0.89423908  0.49216000  1
  Sc  Sc94  1  0.50655936  0.90745723  0.49844691  1
  Sc  Sc95  1  0.49454652  0.29662244  0.49524522  1
  Sc  Sc96  1  0.10316473  0.89711779  0.30130031  1
  Sc  Sc97  1  0.90428081  0.90267463  0.10396737  1
  Sc  Sc98  1  0.90470299  0.30755673  0.30314330  1
  Sc  Sc99  1  0.30353246  0.10448159  0.70076237  1
  Nb  Nb100  1  0.89803275  0.69918972  0.10571062  1
  Nb  Nb101  1  0.29507186  0.09751466  0.29789066  1
  Nb  Nb102  1  0.49832367  0.50176809  0.49575201  1
  Nb  Nb103  1  0.11003244  0.10039438  0.30164979  1
  Nb  Nb104  1  0.30413269  0.29245748  0.90013939  1
  Nb  Nb105  1  0.29730177  0.10022069  0.89974637  1
  Nb  Nb106  1  0.10514146  0.10235859  0.49839104  1
  Nb  Nb107  1  0.90412106  0.09838223  0.90968339  1
  Nb  Nb108  1  0.10082501  0.29860695  0.10494199  1
  Nb  Nb109  1  0.49582527  0.29574470  0.89995158  1
  Nb  Nb110  1  0.89700390  0.70189602  0.90313851  1
  Nb  Nb111  1  0.09590552  0.49441972  0.30050618  1
  Nb  Nb112  1  0.29188814  0.29695791  0.49934210  1
  Nb  Nb113  1  0.50027578  0.69983329  0.09564066  1
  Nb  Nb114  1  0.09545756  0.30393185  0.29845949  1
  Nb  Nb115  1  0.11408980  0.29773487  0.50072613  1
  Nb  Nb116  1  0.90401805  0.29770566  0.69336284  1
  Nb  Nb117  1  0.29901474  0.69762800  0.69071135  1
  Nb  Nb118  1  0.30284099  0.69788422  0.09838837  1
  Nb  Nb119  1  0.70435639  0.10320526  0.30569272  1
  Nb  Nb120  1  0.49663080  0.89907633  0.09548966  1
  Nb  Nb121  1  0.29601152  0.29904823  0.10263771  1
  Nb  Nb122  1  0.49709317  0.49605085  0.30705743  1
  Nb  Nb123  1  0.09791608  0.90360012  0.50335450  1
  Nb  Nb124  1  0.29656706  0.90451329  0.90340680  1
  Nb  Nb125  1  0.19304645  0.39599665  0.20025923  1
  Nb  Nb126  1  0.39108517  -0.00104785  -0.00145831  1
  Nb  Nb127  1  0.00100148  0.60099135  0.19816645  1
  Nb  Nb128  1  0.59557146  0.59343664  0.79613136  1
  Nb  Nb129  1  0.59996601  0.79785174  0.00406175  1
  Nb  Nb130  1  0.80079815  0.80386890  0.59898736  1
  Nb  Nb131  1  0.39423013  0.19682255  0.00248765  1
  Nb  Nb132  1  0.00367694  0.19695756  -0.00000985  1
  Nb  Nb133  1  0.39333170  0.19929553  0.19900241  1
  Nb  Nb134  1  0.39602851  0.59973988  0.00584237  1
  Nb  Nb135  1  0.60015650  0.20630366  0.80491501  1
  Nb  Nb136  1  0.59719968  0.39662970  0.79747100  1
  Nb  Nb137  1  0.20445948  0.60432968  0.59501884  1
  Nb  Nb138  1  0.39353193  0.39510469  0.00210481  1
  Nb  Nb139  1  0.79983965  0.79378718  0.00250894  1
  Nb  Nb140  1  0.00987309  0.19887418  0.40266701  1
  Nb  Nb141  1  0.00618597  0.20503174  0.59551960  1
  Nb  Nb142  1  0.40437098  0.79714985  0.19065934  1
  Nb  Nb143  1  0.19982354  0.59775491  0.39986568  1
  Nb  Nb144  1  0.19633889  -0.00027601  0.59181127  1
  Nb  Nb145  1  0.59172839  0.19717039  -0.00521138  1
  Nb  Nb146  1  0.01021102  0.00772665  0.40350598  1
  Nb  Nb147  1  0.79803308  0.40543135  0.20616668  1
  Nb  Nb148  1  0.39362600  0.00606740  0.39252868  1
  Nb  Nb149  1  0.00400678  0.39264979  0.60245792  1
  Pd  Pd150  1  0.59733436  0.20670121  0.60727118  1
  Pd  Pd151  1  0.59501471  0.39499145  -0.00476160  1
  Pd  Pd152  1  0.59989836  0.60038208  0.40716291  1
  Pd  Pd153  1  0.19774828  -0.00047576  0.00532617  1
  Pd  Pd154  1  -0.00018106  0.40311755  0.79594310  1
  Pd  Pd155  1  0.59717578  0.38767618  0.60129061  1
  Pd  Pd156  1  0.60494086  0.39867113  0.40738766  1
  Pd  Pd157  1  0.60176528  0.01164570  0.80287730  1
  Pd  Pd158  1  0.00069124  0.19828101  0.80297790  1
  Pd  Pd159  1  -0.00368268  0.20311853  0.20217377  1
  Pd  Pd160  1  0.79677555  -0.00291980  0.60582993  1
  Pd  Pd161  1  0.39785871  0.39277792  0.59286263  1
  Pd  Pd162  1  0.41099945  0.81005600  0.38989124  1
  Pd  Pd163  1  0.59724440  0.80055612  0.19456208  1
  Pd  Pd164  1  0.80891332  0.21102238  0.19988791  1
  Pd  Pd165  1  0.59648568  0.79270948  0.79873034  1
  Pd  Pd166  1  0.79588027  -0.00545046  0.20337813  1
  Pd  Pd167  1  0.00213888  0.00293260  0.79940228  1
  Pd  Pd168  1  -0.00625895  0.59891993  0.79697164  1
  Pd  Pd169  1  0.79818945  0.19924720  0.80354294  1
  Pd  Pd170  1  0.40724470  0.80987815  0.59617476  1
  Pd  Pd171  1  0.80325310  0.79717805  0.79738303  1
  Pd  Pd172  1  0.78772371  0.40456103  0.39811013  1
  Pd  Pd173  1  0.80813542  0.79984491  0.40928969  1
  Pd  Pd174  1  0.59074048  0.80110745  0.39929433  1
  Pd  Pd175  1  -0.00716194  0.79627659  0.00128566  1
  Pd  Pd176  1  0.18941963  0.59245367  0.20751494  1
  Pd  Pd177  1  0.80755597  0.21049925  0.00090038  1
  Pd  Pd178  1  0.20364738  -0.00370402  0.78884733  1
  Pd  Pd179  1  0.59577574  0.19327308  0.19538591  1
  Pd  Pd180  1  0.61269682  0.00924154  0.20555077  1
  Pd  Pd181  1  0.81090358  0.19531719  0.40217516  1
  Pd  Pd182  1  0.39756479  0.80703106  0.79549200  1
  Pd  Pd183  1  0.60237522  0.80134815  0.60515243  1
  Pd  Pd184  1  0.40164235  0.40139678  0.80400437  1
  Pd  Pd185  1  0.80663881  0.60152134  0.00413378  1
  Pd  Pd186  1  0.39833744  0.59546220  0.80681527  1
  Pd  Pd187  1  -0.00204072  0.79499015  0.20368254  1
  Pd  Pd188  1  0.80665686  0.39460532  0.00892310  1
  Pd  Pd189  1  0.39090476  -0.00682636  0.79842016  1
  Pd  Pd190  1  0.81102187  0.00371366  0.39883847  1
  Pd  Pd191  1  0.20012302  0.39631377  0.00209230  1
  Pd  Pd192  1  0.19436150  0.79330758  0.40263519  1
  Pd  Pd193  1  0.19699820  0.40881451  0.60301859  1
  Pd  Pd194  1  0.79671001  0.59439426  0.79879910  1
  Pd  Pd195  1  0.38832487  -0.00098719  0.58729699  1
  Pd  Pd196  1  0.59267767  0.00091533  -0.01061595  1
  Pd  Pd197  1  0.19639050  0.19970897  0.00052603  1
  Pd  Pd198  1  0.19883872  0.79724274  0.80145038  1
  Pd  Pd199  1  0.79792335  0.40556702  0.79724673  1
  Rh  Rh200  1  0.60991512  0.40591568  0.20879616  1
  Rh  Rh201  1  0.40372115  0.80104178  0.00099020  1
  Rh  Rh202  1  0.59915930  0.20151997  0.40180319  1
  Rh  Rh203  1  0.19600736  0.40519699  0.39300187  1
  Rh  Rh204  1  0.80025509  0.60941541  0.59691775  1
  Rh  Rh205  1  0.19463486  0.20654471  0.38939237  1
  Rh  Rh206  1  0.80603564  0.40264340  0.59816504  1
  Rh  Rh207  1  0.00168364  0.41023151  0.19477272  1
  Rh  Rh208  1  0.39718166  0.59415063  0.40309213  1
  Rh  Rh209  1  0.40911812  0.60247671  0.19521127  1
  Rh  Rh210  1  0.20507721  0.79714203  0.20016948  1
  Rh  Rh211  1  0.00730880  0.00439375  0.00025269  1
  Rh  Rh212  1  0.39907107  0.19749609  0.80012893  1
  Rh  Rh213  1  0.40383504  0.39734989  0.40663402  1
  Rh  Rh214  1  0.39162978  0.00086330  0.19787870  1
  Rh  Rh215  1  0.80251110  -0.01181661  0.00324852  1
  Rh  Rh216  1  0.79882395  0.60182195  0.40327499  1
  Rh  Rh217  1  0.59012634  0.60172886  -0.00533237  1
  Rh  Rh218  1  -0.00620701  0.79676915  0.60322585  1
  Rh  Rh219  1  -0.00119626  0.80835622  0.39811079  1
  Rh  Rh220  1  0.39242071  0.20383117  0.59551848  1
  Rh  Rh221  1  0.59471779  0.60464361  0.60002246  1
  Rh  Rh222  1  0.19416199  -0.00759842  0.19859110  1
  Rh  Rh223  1  0.00951100  0.01211254  0.59871278  1
  Rh  Rh224  1  0.20679513  0.60709784  0.79405215  1
  Rh  Rh225  1  0.19781506  0.79420114  -0.00769438  1
  Rh  Rh226  1  0.81294991  0.59059253  0.20578502  1
  Rh  Rh227  1  0.60086955  0.00371484  0.60164700  1
  Rh  Rh228  1  0.00674057  -0.00646976  0.21095540  1
  Rh  Rh229  1  0.20076760  0.19358409  0.60843930  1
  Rh  Rh230  1  0.39161660  0.39530266  0.19757779  1
  Rh  Rh231  1  0.00254327  0.38934994  -0.00526538  1
  Rh  Rh232  1  0.80319693  0.00633767  0.80101005  1
  Rh  Rh233  1  -0.00384872  0.79674109  0.80200625  1
  Rh  Rh234  1  0.20594636  0.19975072  0.80009271  1
  Rh  Rh235  1  0.59294300  0.00658182  0.39618507  1
  Rh  Rh236  1  0.20251679  0.20946045  0.20861784  1
  Rh  Rh237  1  0.00790286  0.60541614  0.38939099  1
  Rh  Rh238  1  0.39422836  0.59431536  0.58955276  1
  Rh  Rh239  1  0.79721768  0.80453761  0.19530138  1
  Rh  Rh240  1  0.20626457  0.39590345  0.80187499  1
  Rh  Rh241  1  0.80647418  0.19694549  0.59885247  1
  Rh  Rh242  1  -0.00400313  0.60640988  0.00634794  1
  Rh  Rh243  1  0.20170795  -0.00308603  0.40405466  1
  Rh  Rh244  1  0.00947739  0.59108891  0.60541119  1
  Rh  Rh245  1  0.01077105  0.38983465  0.41286296  1
  Rh  Rh246  1  0.40059487  0.19742725  0.39305232  1
  Rh  Rh247  1  0.20601483  0.60742753  -0.00799838  1
  Rh  Rh248  1  0.19527272  0.79854236  0.59343925  1
  Rh  Rh249  1  0.59238936  0.59604886  0.20246416  1
