# generated using pymatgen
data_ZrScNbPdRh
_symmetry_space_group_name_H-M   'P 1'
_cell_length_a   16.55347279
_cell_length_b   16.55477608
_cell_length_c   16.55311237
_cell_angle_alpha   89.98711121
_cell_angle_beta   89.99174750
_cell_angle_gamma   90.01030302
_symmetry_Int_Tables_number   1
_chemical_formula_structural   ZrScNbPdRh
_chemical_formula_sum   'Zr50 Sc50 Nb50 Pd50 Rh50'
_cell_volume   4536.19871161
_cell_formula_units_Z   50
loop_
 _symmetry_equiv_pos_site_id
 _symmetry_equiv_pos_as_xyz
  1  'x, y, z'
loop_
 _atom_site_type_symbol
 _atom_site_label
 _atom_site_symmetry_multiplicity
 _atom_site_fract_x
 _atom_site_fract_y
 _atom_site_fract_z
 _atom_site_occupancy
  Zr  Zr0  1  0.49127142  0.70210535  0.11043564  1
  Zr  Zr1  1  0.69837816  0.90175943  0.30603062  1
  Zr  Zr2  1  0.30072928  0.09257340  0.70451654  1
  Zr  Zr3  1  0.90495613  0.50058614  0.29931427  1
  Zr  Zr4  1  0.09931362  0.11045186  0.29597983  1
  Zr  Zr5  1  0.10361811  0.69460303  0.29549713  1
  Zr  Zr6  1  0.29770037  0.30234432  0.09019215  1
  Zr  Zr7  1  0.89755265  0.29463335  0.50672497  1
  Zr  Zr8  1  0.49854935  0.10607165  0.49712974  1
  Zr  Zr9  1  0.10434925  0.90203249  0.30532310  1
  Zr  Zr10  1  0.90610454  0.10630691  0.90581256  1
  Zr  Zr11  1  0.09995806  0.89891869  0.70756106  1
  Zr  Zr12  1  0.90190417  0.10665050  0.69776451  1
  Zr  Zr13  1  0.70857180  0.29286748  0.69698111  1
  Zr  Zr14  1  0.90477688  0.29877829  0.69515705  1
  Zr  Zr15  1  0.69224855  0.89327946  0.69875421  1
  Zr  Zr16  1  0.70267686  0.29807342  0.09184972  1
  Zr  Zr17  1  0.69883348  0.70228295  0.09844712  1
  Zr  Zr18  1  0.69947489  0.90708945  0.10206932  1
  Zr  Zr19  1  0.69799376  0.50026225  0.30166249  1
  Zr  Zr20  1  0.10185465  0.69845857  0.50239980  1
  Zr  Zr21  1  0.49946419  0.30073640  0.69476185  1
  Zr  Zr22  1  0.89792973  0.10227883  0.29887413  1
  Zr  Zr23  1  0.89490699  0.88786131  0.48646573  1
  Zr  Zr24  1  0.11148332  0.89896565  0.10579866  1
  Zr  Zr25  1  0.90616876  0.89703444  0.89042105  1
  Zr  Zr26  1  0.70147988  0.09379599  0.29514803  1
  Zr  Zr27  1  0.90043856  0.70354057  0.31620486  1
  Zr  Zr28  1  0.10293781  0.49736151  0.50311165  1
  Zr  Zr29  1  0.10051363  0.10206851  0.70130393  1
  Zr  Zr30  1  0.29865526  0.50056619  0.29891430  1
  Zr  Zr31  1  0.50035920  0.29914848  0.09231089  1
  Zr  Zr32  1  0.70037018  0.49560377  0.10356168  1
  Zr  Zr33  1  0.10434666  0.09966709  0.89605444  1
  Zr  Zr34  1  0.30285801  0.69668319  0.69400343  1
  Zr  Zr35  1  0.30116348  0.69876953  0.90370342  1
  Zr  Zr36  1  0.50029995  0.09232412  0.30086447  1
  Zr  Zr37  1  0.50588589  0.70643241  0.70879768  1
  Zr  Zr38  1  0.91051791  0.29543273  0.29981119  1
  Zr  Zr39  1  0.90199927  0.50068263  0.90775773  1
  Zr  Zr40  1  0.50033434  0.29466302  0.30331789  1
  Zr  Zr41  1  0.70261004  0.09538078  0.71281668  1
  Zr  Zr42  1  0.10671737  0.89292475  0.49610682  1
  Zr  Zr43  1  0.49867169  0.29999600  0.50166871  1
  Zr  Zr44  1  0.89825731  0.49587168  0.09923416  1
  Zr  Zr45  1  0.10028710  0.48895457  0.29819111  1
  Zr  Zr46  1  0.69753997  0.09761601  0.09469106  1
  Zr  Zr47  1  0.69829297  0.70034440  0.70670118  1
  Zr  Zr48  1  0.29951090  0.89546698  0.09429486  1
  Zr  Zr49  1  0.30267036  0.30421464  0.90451884  1
  Sc  Sc50  1  0.10873723  0.70072717  0.09892872  1
  Sc  Sc51  1  0.29993803  0.09865701  0.30332195  1
  Sc  Sc52  1  0.70363667  0.90821564  0.89265524  1
  Sc  Sc53  1  0.29883903  0.69745255  0.50385013  1
  Sc  Sc54  1  0.70150477  0.70898022  0.50408407  1
  Sc  Sc55  1  0.68185961  0.70048464  0.31050162  1
  Sc  Sc56  1  0.89874751  0.70311164  0.09111833  1
  Sc  Sc57  1  0.28931754  0.30001906  0.30251004  1
  Sc  Sc58  1  0.09675939  0.70518925  0.90129211  1
  Sc  Sc59  1  0.48983000  0.29518811  0.89954467  1
  Sc  Sc60  1  0.49499569  0.90655899  0.10131515  1
  Sc  Sc61  1  0.10095658  0.30330397  0.49398636  1
  Sc  Sc62  1  0.29868186  0.09067717  0.09663983  1
  Sc  Sc63  1  0.29194203  0.49944057  0.09421676  1
  Sc  Sc64  1  0.29977784  0.10073042  0.89871298  1
  Sc  Sc65  1  0.09857195  0.50338840  0.69014284  1
  Sc  Sc66  1  0.89884920  0.10897143  0.49450821  1
  Sc  Sc67  1  0.10059417  0.49960650  0.10555112  1
  Sc  Sc68  1  0.90149783  0.50978115  0.50465555  1
  Sc  Sc69  1  0.10359005  0.29233087  0.91609941  1
  Sc  Sc70  1  0.49114962  0.49231897  0.88987220  1
  Sc  Sc71  1  0.49948739  0.51583146  0.30132248  1
  Sc  Sc72  1  0.09617166  0.30344608  0.68839353  1
  Sc  Sc73  1  0.30651426  0.29765663  0.70067203  1
  Sc  Sc74  1  0.70302772  0.29142584  0.29099182  1
  Sc  Sc75  1  0.49376642  0.09144968  0.69858510  1
  Sc  Sc76  1  0.29377955  0.70130879  0.10277887  1
  Sc  Sc77  1  0.49354383  0.50178964  0.49971263  1
  Sc  Sc78  1  0.90176986  0.50918293  0.69707649  1
  Sc  Sc79  1  0.30422613  0.29955314  0.49434890  1
  Sc  Sc80  1  0.89737704  0.70066504  0.70385714  1
  Sc  Sc81  1  0.49940798  0.69524718  0.49627990  1
  Sc  Sc82  1  0.10051881  0.10608344  0.09513436  1
  Sc  Sc83  1  0.50244214  0.90837238  0.51113580  1
  Sc  Sc84  1  0.48839260  0.89749599  0.90180966  1
  Sc  Sc85  1  0.10389499  0.50937464  0.91231187  1
  Sc  Sc86  1  0.70151547  0.50806379  0.50626761  1
  Sc  Sc87  1  0.30923992  0.10216255  0.49651974  1
  Sc  Sc88  1  0.90279722  0.29854028  0.09320797  1
  Sc  Sc89  1  0.30113297  0.50261885  0.50168277  1
  Sc  Sc90  1  0.30420878  0.69180182  0.29246916  1
  Sc  Sc91  1  0.49670417  0.09572998  0.90228167  1
  Sc  Sc92  1  0.70624936  0.50909260  0.89595061  1
  Sc  Sc93  1  0.10073794  0.69577571  0.69811680  1
  Sc  Sc94  1  0.09999008  0.90144314  0.90188030  1
  Sc  Sc95  1  0.49242427  0.49778051  0.69790045  1
  Sc  Sc96  1  0.70523233  0.50654498  0.70275379  1
  Sc  Sc97  1  0.89819126  0.69966653  0.89801021  1
  Sc  Sc98  1  0.09920950  0.10128175  0.49043867  1
  Sc  Sc99  1  0.89262339  0.90225260  0.08781147  1
  Nb  Nb100  1  0.29837684  0.50408472  0.70937572  1
  Nb  Nb101  1  0.10072693  0.29930885  0.29297688  1
  Nb  Nb102  1  0.70444890  0.10913812  0.89616210  1
  Nb  Nb103  1  0.50073139  0.49890302  0.09993215  1
  Nb  Nb104  1  0.89872911  0.70326081  0.50546339  1
  Nb  Nb105  1  0.49455386  0.70568545  0.30372486  1
  Nb  Nb106  1  0.70242474  0.90174383  0.50728676  1
  Nb  Nb107  1  0.68493159  0.69774013  0.89147559  1
  Nb  Nb108  1  0.90014979  0.09566873  0.10252763  1
  Nb  Nb109  1  0.70013180  0.09980800  0.49743047  1
  Nb  Nb110  1  0.70371707  0.29935537  0.50305414  1
  Nb  Nb111  1  0.30697993  0.89785052  0.69432340  1
  Nb  Nb112  1  0.29665046  0.90468370  0.29921168  1
  Nb  Nb113  1  0.50307358  0.69877073  0.90232500  1
  Nb  Nb114  1  0.29967402  0.89945315  0.89938771  1
  Nb  Nb115  1  0.29616463  0.89473324  0.50503882  1
  Nb  Nb116  1  0.29873882  0.49718239  0.89885507  1
  Nb  Nb117  1  0.49293495  0.90050560  0.69967904  1
  Nb  Nb118  1  0.10495835  0.29932779  0.11216509  1
  Nb  Nb119  1  0.49742156  0.89573717  0.29876186  1
  Nb  Nb120  1  0.89950175  0.89975458  0.29867261  1
  Nb  Nb121  1  0.89557945  0.90045217  0.69834816  1
  Nb  Nb122  1  0.89816269  0.30257469  0.90483247  1
  Nb  Nb123  1  0.70630451  0.29148859  0.89766182  1
  Nb  Nb124  1  0.49810277  0.09997721  0.09719816  1
  Nb  Nb125  1  0.60977028  0.39184335  0.80251689  1
  Nb  Nb126  1  0.80145761  0.79970679  0.20783990  1
  Nb  Nb127  1  -0.00252021  -0.00717410  0.59669999  1
  Nb  Nb128  1  0.59794216  0.60525692  0.60748068  1
  Nb  Nb129  1  -0.00513675  0.80589748  0.20406650  1
  Nb  Nb130  1  -0.00442829  0.80485685  0.59917177  1
  Nb  Nb131  1  0.60599939  0.39712701  0.40418503  1
  Nb  Nb132  1  -0.00415423  -0.00203700  0.20047914  1
  Nb  Nb133  1  0.19918150  0.40605792  0.80203020  1
  Nb  Nb134  1  0.20324745  0.19301521  0.60067600  1
  Nb  Nb135  1  0.39925214  0.80760220  0.39467472  1
  Nb  Nb136  1  0.40346581  0.20079339  0.19440058  1
  Nb  Nb137  1  0.60544806  0.19790049  0.59787067  1
  Nb  Nb138  1  0.59796855  0.79480322  -0.00367560  1
  Nb  Nb139  1  0.20154055  -0.00415024  0.59928029  1
  Nb  Nb140  1  0.79970402  0.60668959  0.20427303  1
  Nb  Nb141  1  0.40211652  0.39839441  0.19616833  1
  Nb  Nb142  1  0.59245421  0.59871802  -0.00199929  1
  Nb  Nb143  1  0.80046401  -0.00513824  0.59774997  1
  Nb  Nb144  1  0.21009010  0.80230113  0.79779541  1
  Nb  Nb145  1  0.80550484  0.39394804  0.80422884  1
  Nb  Nb146  1  0.79692351  0.39562457  0.40343824  1
  Nb  Nb147  1  0.60226275  0.40178322  -0.00747290  1
  Nb  Nb148  1  0.00123318  0.39991619  0.80686638  1
  Nb  Nb149  1  0.40404853  0.59808095  -0.00111517  1
  Pd  Pd150  1  0.59001186  -0.00484120  0.80579691  1
  Pd  Pd151  1  0.59676011  -0.00591007  -0.00918003  1
  Pd  Pd152  1  0.58915477  0.20112534  0.79715974  1
  Pd  Pd153  1  0.01080861  0.39635388  0.00333736  1
  Pd  Pd154  1  0.39707043  0.80098773  0.80177858  1
  Pd  Pd155  1  0.39017765  0.80460083  0.20489168  1
  Pd  Pd156  1  0.79752406  0.79692905  0.80491145  1
  Pd  Pd157  1  -0.00716211  0.61050158  0.19272059  1
  Pd  Pd158  1  0.80474700  0.40983745  0.60116130  1
  Pd  Pd159  1  -0.00458622  0.00325259  0.79672868  1
  Pd  Pd160  1  0.40884461  0.79575570  0.59033795  1
  Pd  Pd161  1  -0.00624162  0.39805021  0.40878886  1
  Pd  Pd162  1  0.78990804  0.80043514  -0.00997999  1
  Pd  Pd163  1  0.59133388  0.80863087  0.41246352  1
  Pd  Pd164  1  0.38947983  0.40446145  0.60130310  1
  Pd  Pd165  1  0.00549985  -0.00217192  0.00654094  1
  Pd  Pd166  1  -0.00383143  0.00358936  0.39949278  1
  Pd  Pd167  1  0.80175319  0.00356488  0.40555731  1
  Pd  Pd168  1  0.80642451  0.39764590  0.20727536  1
  Pd  Pd169  1  0.40344697  0.19571976  0.79868913  1
  Pd  Pd170  1  0.40587555  0.40428767  0.39164646  1
  Pd  Pd171  1  0.39820532  -0.00880299  0.40571672  1
  Pd  Pd172  1  0.60961360  0.20349257  0.40221377  1
  Pd  Pd173  1  0.79340313  0.60396352  0.00066640  1
  Pd  Pd174  1  0.40349291  0.60070789  0.80262174  1
  Pd  Pd175  1  0.39800923  0.00327549  0.19734829  1
  Pd  Pd176  1  0.60211751  0.80577731  0.19598597  1
  Pd  Pd177  1  0.60526813  0.40624790  0.60166971  1
  Pd  Pd178  1  0.80451699  0.20086645  0.19112738  1
  Pd  Pd179  1  0.20629586  0.00753672  0.40562028  1
  Pd  Pd180  1  0.21196982  0.19345728  0.19513335  1
  Pd  Pd181  1  0.59640964  0.19261101  0.19620600  1
  Pd  Pd182  1  0.59245434  0.39821264  0.20407731  1
  Pd  Pd183  1  0.60545298  0.00797701  0.60366491  1
  Pd  Pd184  1  0.20913936  0.39414044  0.60515902  1
  Pd  Pd185  1  0.00594699  0.21249311  0.80493621  1
  Pd  Pd186  1  0.19978826  0.00142003  -0.00420938  1
  Pd  Pd187  1  0.79381129  0.59969372  0.40134106  1
  Pd  Pd188  1  0.19567291  0.21568757  0.79384899  1
  Pd  Pd189  1  0.00318431  0.59555572  0.80097233  1
  Pd  Pd190  1  0.60152939  0.60421392  0.19919232  1
  Pd  Pd191  1  0.19216197  0.60154925  0.80180185  1
  Pd  Pd192  1  0.00471414  0.80191677  0.00725889  1
  Pd  Pd193  1  0.20398275  0.59924338  0.40092068  1
  Pd  Pd194  1  0.00505730  0.59861877  0.40603337  1
  Pd  Pd195  1  0.21277853  0.78882165  0.39152300  1
  Pd  Pd196  1  0.79910716  0.00436493  -0.01090240  1
  Pd  Pd197  1  0.59720974  0.20092949  -0.00959555  1
  Pd  Pd198  1  0.00413262  0.60702732  0.00734798  1
  Pd  Pd199  1  0.59700949  -0.00573558  0.40237343  1
  Rh  Rh200  1  0.00093564  0.20156698  0.00649372  1
  Rh  Rh201  1  0.01264337  0.19258543  0.59042040  1
  Rh  Rh202  1  0.39448094  0.20220269  0.38840440  1
  Rh  Rh203  1  0.39749982  -0.00057371  -0.00194854  1
  Rh  Rh204  1  0.40545794  0.41090416  0.00346153  1
  Rh  Rh205  1  0.39487090  0.39681494  0.79497167  1
  Rh  Rh206  1  0.20368330  0.59412143  0.60017238  1
  Rh  Rh207  1  0.40447411  0.60040484  0.60371130  1
  Rh  Rh208  1  0.19394093  0.80276572  0.61051251  1
  Rh  Rh209  1  0.80610666  -0.00600425  0.19770886  1
  Rh  Rh210  1  0.40234686  0.79520415  0.00322392  1
  Rh  Rh211  1  -0.00213502  0.19677581  0.19124005  1
  Rh  Rh212  1  0.39588459  0.18832311  0.00459130  1
  Rh  Rh213  1  0.20531432  0.60262192  0.00125146  1
  Rh  Rh214  1  0.78840968  0.79612472  0.39572343  1
  Rh  Rh215  1  0.59381726  0.79653089  0.59939492  1
  Rh  Rh216  1  0.19460595  0.00516586  0.20363612  1
  Rh  Rh217  1  0.20004851  0.59356035  0.19797659  1
  Rh  Rh218  1  -0.00485298  0.40661627  0.60098300  1
  Rh  Rh219  1  0.19795979  0.39918304  0.39953950  1
  Rh  Rh220  1  0.39925346  -0.00424812  0.80316830  1
  Rh  Rh221  1  0.39577153  0.59022507  0.19229565  1
  Rh  Rh222  1  0.79453699  0.61058478  0.60251953  1
  Rh  Rh223  1  0.20262835  0.19596963  0.00337501  1
  Rh  Rh224  1  0.79081043  0.40067953  -0.00867596  1
  Rh  Rh225  1  0.19984737  0.80031121  -0.00944931  1
  Rh  Rh226  1  0.00781344  0.79426804  0.40034102  1
  Rh  Rh227  1  0.79152775  0.18454973  0.59822090  1
  Rh  Rh228  1  0.19311811  0.40150980  -0.00333287  1
  Rh  Rh229  1  0.59223174  0.58640499  0.79688841  1
  Rh  Rh230  1  0.80383802  0.80242368  0.60263311  1
  Rh  Rh231  1  0.39694498  0.61012355  0.40074372  1
  Rh  Rh232  1  0.80355183  0.19250946  0.00370354  1
  Rh  Rh233  1  0.40050469  0.19640582  0.60090120  1
  Rh  Rh234  1  0.19946805  0.20235264  0.40515727  1
  Rh  Rh235  1  0.39398127  0.00042472  0.59581076  1
  Rh  Rh236  1  0.81215612  0.20127254  0.80516572  1
  Rh  Rh237  1  -0.00062402  0.39384083  0.19371368  1
  Rh  Rh238  1  0.00427369  0.20562505  0.40122277  1
  Rh  Rh239  1  0.20008467  0.80028581  0.20770570  1
  Rh  Rh240  1  0.20944524  -0.01124940  0.79745222  1
  Rh  Rh241  1  0.00367674  0.79596904  0.79447581  1
  Rh  Rh242  1  0.20510252  0.40089261  0.19936155  1
  Rh  Rh243  1  0.59425481  -0.00107423  0.19964355  1
  Rh  Rh244  1  0.79581083  0.20475765  0.39629696  1
  Rh  Rh245  1  0.80746712  0.59842817  0.80320031  1
  Rh  Rh246  1  -0.00164378  0.61017182  0.59736749  1
  Rh  Rh247  1  0.59388707  0.81416906  0.80767688  1
  Rh  Rh248  1  0.80998884  0.00537174  0.80071553  1
  Rh  Rh249  1  0.59651882  0.59378822  0.41303509  1
