# generated using pymatgen
data_ZrScNbPdRh
_symmetry_space_group_name_H-M   'P 1'
_cell_length_a   16.55795995
_cell_length_b   16.55521751
_cell_length_c   16.55291723
_cell_angle_alpha   90.01693484
_cell_angle_beta   90.01508407
_cell_angle_gamma   89.99513857
_symmetry_Int_Tables_number   1
_chemical_formula_structural   ZrScNbPdRh
_chemical_formula_sum   'Zr50 Sc50 Nb50 Pd50 Rh50'
_cell_volume   4537.49570321
_cell_formula_units_Z   50
loop_
 _symmetry_equiv_pos_site_id
 _symmetry_equiv_pos_as_xyz
  1  'x, y, z'
loop_
 _atom_site_type_symbol
 _atom_site_label
 _atom_site_symmetry_multiplicity
 _atom_site_fract_x
 _atom_site_fract_y
 _atom_site_fract_z
 _atom_site_occupancy
  Zr  Zr0  1  0.28644184  0.70730207  0.50652202  1
  Zr  Zr1  1  0.09711931  0.09532184  0.11189051  1
  Zr  Zr2  1  0.10568313  0.69948047  0.29893634  1
  Zr  Zr3  1  0.70826246  0.10654137  0.70425972  1
  Zr  Zr4  1  0.70064619  0.69923709  0.08384593  1
  Zr  Zr5  1  0.49535297  0.10188918  0.50137479  1
  Zr  Zr6  1  0.70521408  0.10490824  0.50116039  1
  Zr  Zr7  1  0.49479922  0.31222208  0.29945234  1
  Zr  Zr8  1  0.49341483  0.09560126  0.30665752  1
  Zr  Zr9  1  0.28967394  0.69138356  0.29345673  1
  Zr  Zr10  1  0.30384438  0.09766000  0.90005340  1
  Zr  Zr11  1  0.90235448  0.10299900  0.89499853  1
  Zr  Zr12  1  0.91203833  0.10088540  0.49288663  1
  Zr  Zr13  1  0.09840391  0.89650366  0.50067087  1
  Zr  Zr14  1  0.10726535  0.69632250  0.69896550  1
  Zr  Zr15  1  0.29645885  0.70090236  0.91037575  1
  Zr  Zr16  1  0.70014143  0.50276188  0.50586624  1
  Zr  Zr17  1  0.10445423  0.49750758  0.90220889  1
  Zr  Zr18  1  0.10525680  0.09335680  0.90077649  1
  Zr  Zr19  1  0.10833285  0.49936836  0.29963091  1
  Zr  Zr20  1  0.49813274  0.29788076  0.90406426  1
  Zr  Zr21  1  0.90620902  0.89798385  0.70150773  1
  Zr  Zr22  1  0.90719977  0.70005187  0.29379098  1
  Zr  Zr23  1  0.70520309  0.30782166  0.49935457  1
  Zr  Zr24  1  0.70050353  0.10643687  0.90364081  1
  Zr  Zr25  1  0.10334239  0.49967407  0.70837331  1
  Zr  Zr26  1  0.10009691  0.10858249  0.50246551  1
  Zr  Zr27  1  0.70443380  0.89537414  0.48727298  1
  Zr  Zr28  1  0.89866685  0.30441742  0.90216042  1
  Zr  Zr29  1  0.70257030  0.90336180  0.09969241  1
  Zr  Zr30  1  0.50045712  0.49687899  0.30095817  1
  Zr  Zr31  1  0.90664971  0.29961262  0.30042988  1
  Zr  Zr32  1  0.49257217  0.69324510  0.29864450  1
  Zr  Zr33  1  0.49493950  0.68839989  0.09196978  1
  Zr  Zr34  1  0.49588503  0.50980129  0.69656034  1
  Zr  Zr35  1  0.70181756  0.89405088  0.90584373  1
  Zr  Zr36  1  0.69263316  0.68794873  0.69728582  1
  Zr  Zr37  1  0.49073011  0.90584595  0.49876916  1
  Zr  Zr38  1  0.30023964  0.49829048  0.30091071  1
  Zr  Zr39  1  0.90417396  0.69235248  0.50493075  1
  Zr  Zr40  1  0.90468882  0.69333751  0.69951069  1
  Zr  Zr41  1  0.69500073  0.69731050  0.89720766  1
  Zr  Zr42  1  0.90347788  0.29815308  0.10462570  1
  Zr  Zr43  1  0.29683025  0.89113671  0.69718588  1
  Zr  Zr44  1  0.49606751  0.90573883  0.89828969  1
  Zr  Zr45  1  0.50035790  0.90283687  0.30104450  1
  Zr  Zr46  1  0.91006229  0.49689196  0.50386225  1
  Zr  Zr47  1  0.29490149  0.29561977  0.49997404  1
  Zr  Zr48  1  0.09798451  0.10428133  0.69937067  1
  Zr  Zr49  1  0.89440364  0.89932446  0.30261087  1
  Sc  Sc50  1  0.29716394  0.90048419  0.89740777  1
  Sc  Sc51  1  0.29841764  0.10641432  0.29627737  1
  Sc  Sc52  1  0.10273265  0.69624092  0.10367734  1
  Sc  Sc53  1  0.10169949  0.89486196  0.70831578  1
  Sc  Sc54  1  0.09413858  0.29820591  0.69549795  1
  Sc  Sc55  1  0.70181793  0.71532804  0.31097334  1
  Sc  Sc56  1  0.70578535  0.89530109  0.70809416  1
  Sc  Sc57  1  0.48950838  0.89373268  0.69808841  1
  Sc  Sc58  1  0.90454624  0.30056429  0.49888661  1
  Sc  Sc59  1  0.48833720  0.30479947  0.50020541  1
  Sc  Sc60  1  0.49802609  0.50177712  0.49571932  1
  Sc  Sc61  1  0.90497051  0.89761737  0.10629465  1
  Sc  Sc62  1  0.28782114  0.89431730  0.29759890  1
  Sc  Sc63  1  0.10486304  0.30621829  0.29624208  1
  Sc  Sc64  1  0.70128142  0.90532089  0.29460520  1
  Sc  Sc65  1  0.29896677  0.50537210  0.50111234  1
  Sc  Sc66  1  0.50322065  0.69557684  0.89267667  1
  Sc  Sc67  1  0.30755252  0.10702328  0.49531820  1
  Sc  Sc68  1  0.09664446  0.29900122  0.49712944  1
  Sc  Sc69  1  0.09566636  0.89911008  0.29225011  1
  Sc  Sc70  1  0.49427840  0.49598395  0.89987956  1
  Sc  Sc71  1  0.10041033  0.31306431  0.90227233  1
  Sc  Sc72  1  0.48498374  0.10271318  0.09666135  1
  Sc  Sc73  1  0.30295812  0.69439216  0.69713153  1
  Sc  Sc74  1  0.91604087  0.49926562  0.29841222  1
  Sc  Sc75  1  0.50012578  0.49098438  0.09883778  1
  Sc  Sc76  1  0.10619497  0.89768310  0.89664082  1
  Sc  Sc77  1  0.70294569  0.29871001  0.90153107  1
  Sc  Sc78  1  0.10046037  0.69991535  0.89529217  1
  Sc  Sc79  1  0.69524807  0.31165128  0.30352248  1
  Sc  Sc80  1  0.90844897  0.50470500  0.09593528  1
  Sc  Sc81  1  0.49547185  0.69454643  0.50318243  1
  Sc  Sc82  1  0.69961104  0.49618795  0.90466854  1
  Sc  Sc83  1  0.69670884  0.30161988  0.09138016  1
  Sc  Sc84  1  0.29919295  0.50586592  0.09546671  1
  Sc  Sc85  1  0.29604770  0.49604471  0.89472749  1
  Sc  Sc86  1  0.49263466  0.10913340  0.70519753  1
  Sc  Sc87  1  0.90612550  0.49203662  0.69890006  1
  Sc  Sc88  1  0.90563333  0.70122814  0.09837965  1
  Sc  Sc89  1  0.89805225  0.70114568  0.90546887  1
  Sc  Sc90  1  0.10020504  0.90074445  0.10238029  1
  Sc  Sc91  1  0.90464438  0.10158658  0.29247517  1
  Sc  Sc92  1  0.70066797  0.10732161  0.10094004  1
  Sc  Sc93  1  0.30054033  0.10676411  0.69823698  1
  Sc  Sc94  1  0.70502659  0.09689020  0.29453043  1
  Sc  Sc95  1  0.49596393  0.10500430  0.90481633  1
  Sc  Sc96  1  0.90541982  0.89412178  0.89869694  1
  Sc  Sc97  1  0.49699709  0.91212700  0.09607320  1
  Sc  Sc98  1  0.30719323  0.31003587  0.90077630  1
  Sc  Sc99  1  0.90541028  0.49278817  0.89806954  1
  Nb  Nb100  1  0.70079593  0.30637157  0.69690892  1
  Nb  Nb101  1  0.89894152  0.10456978  0.10115891  1
  Nb  Nb102  1  0.10172223  0.49771176  0.50264263  1
  Nb  Nb103  1  0.69856412  0.49727212  0.69743607  1
  Nb  Nb104  1  0.90350609  0.10494061  0.69913068  1
  Nb  Nb105  1  0.10355788  0.69234764  0.50010599  1
  Nb  Nb106  1  0.50243315  0.69799677  0.69546803  1
  Nb  Nb107  1  0.29964253  0.30667020  0.30420343  1
  Nb  Nb108  1  0.30160201  0.70195363  0.10443315  1
  Nb  Nb109  1  0.29746081  0.49619033  0.70400302  1
  Nb  Nb110  1  0.70521410  0.69875565  0.50384452  1
  Nb  Nb111  1  0.90231216  0.89980620  0.49918074  1
  Nb  Nb112  1  0.69617060  0.50262545  0.10400092  1
  Nb  Nb113  1  0.49425180  0.30222958  0.70169119  1
  Nb  Nb114  1  0.29956897  0.89692574  0.09808181  1
  Nb  Nb115  1  0.49620803  0.29874198  0.09932747  1
  Nb  Nb116  1  0.30450007  0.30266076  0.70184305  1
  Nb  Nb117  1  0.30522514  0.28815314  0.10589917  1
  Nb  Nb118  1  0.29690951  0.10126331  0.09656299  1
  Nb  Nb119  1  0.69283170  0.49860772  0.30312936  1
  Nb  Nb120  1  0.29800912  0.90067981  0.50080574  1
  Nb  Nb121  1  0.09602373  0.48799078  0.10138813  1
  Nb  Nb122  1  0.89927777  0.29893823  0.70478368  1
  Nb  Nb123  1  0.10032114  0.30079932  0.10055457  1
  Nb  Nb124  1  0.09307019  0.09574429  0.30526923  1
  Nb  Nb125  1  0.20195251  0.20452442  0.80578620  1
  Nb  Nb126  1  0.80644032  -0.00183510  0.59991867  1
  Nb  Nb127  1  0.59263540  0.79444441  0.19470232  1
  Nb  Nb128  1  0.60171217  0.20550514  0.60144920  1
  Nb  Nb129  1  0.59730957  0.20244063  0.40125435  1
  Nb  Nb130  1  0.79905389  0.59687280  0.39715539  1
  Nb  Nb131  1  0.80555031  0.00446737  0.00056797  1
  Nb  Nb132  1  0.59000958  0.20642513  0.20333834  1
  Nb  Nb133  1  0.79177275  0.59608205  0.20463450  1
  Nb  Nb134  1  0.60382887  0.80003051  0.59707018  1
  Nb  Nb135  1  0.39126326  0.80030574  0.39791337  1
  Nb  Nb136  1  0.60164664  0.00193122  0.79792324  1
  Nb  Nb137  1  0.79597960  0.41074626  0.19998285  1
  Nb  Nb138  1  0.79485629  0.59370770  0.79531993  1
  Nb  Nb139  1  0.19978720  0.20089996  0.00589995  1
  Nb  Nb140  1  0.39803831  0.79691776  0.19660292  1
  Nb  Nb141  1  0.60011847  0.39616098  0.78878800  1
  Nb  Nb142  1  0.00673449  0.19923459  0.00558282  1
  Nb  Nb143  1  0.60662695  0.00059424  0.60451918  1
  Nb  Nb144  1  0.20237738  0.40099226  0.60414609  1
  Nb  Nb145  1  0.00075499  0.79702961  0.40532970  1
  Nb  Nb146  1  0.20053124  0.00036281  0.59432158  1
  Nb  Nb147  1  0.79999763  0.80031133  0.59574286  1
  Nb  Nb148  1  0.19545984  0.00209724  0.40429587  1
  Nb  Nb149  1  0.60644943  0.60149214  0.20145748  1
  Pd  Pd150  1  0.59822905  0.40047830  -0.00519784  1
  Pd  Pd151  1  0.38922711  0.60708130  0.40708825  1
  Pd  Pd152  1  0.00336276  -0.00351562  0.79999176  1
  Pd  Pd153  1  0.00289330  0.60048941  0.39915772  1
  Pd  Pd154  1  0.60610363  0.00768361  0.40349958  1
  Pd  Pd155  1  0.59073705  0.39768386  0.59930450  1
  Pd  Pd156  1  0.79216890  0.79133052  0.19261459  1
  Pd  Pd157  1  0.39670583  0.79045426  0.80234052  1
  Pd  Pd158  1  0.80130625  0.20912175  0.80163568  1
  Pd  Pd159  1  0.80245311  0.40613372  0.00883112  1
  Pd  Pd160  1  0.59719396  0.20306456  0.79522943  1
  Pd  Pd161  1  0.39840206  0.59232681  -0.00682298  1
  Pd  Pd162  1  0.00610362  0.79942173  0.00072529  1
  Pd  Pd163  1  0.78694800  0.21307109  0.20373755  1
  Pd  Pd164  1  0.59838001  0.00858299  0.19359802  1
  Pd  Pd165  1  0.19415786  0.59876421  0.00367198  1
  Pd  Pd166  1  0.00892373  0.20796717  0.80882199  1
  Pd  Pd167  1  0.58707563  0.80265973  0.00347435  1
  Pd  Pd168  1  0.58724171  0.79501994  0.40240987  1
  Pd  Pd169  1  0.20870166  0.40114576  0.19103836  1
  Pd  Pd170  1  0.80326273  0.78777518  0.79596538  1
  Pd  Pd171  1  0.40312235  0.19992182  0.20730250  1
  Pd  Pd172  1  0.20275032  -0.00086631  0.00460299  1
  Pd  Pd173  1  0.38886176  -0.00566968  0.20195632  1
  Pd  Pd174  1  0.40175930  0.00136572  0.79284185  1
  Pd  Pd175  1  0.79724017  0.19997421  0.39035016  1
  Pd  Pd176  1  0.81009166  0.39931714  0.60353270  1
  Pd  Pd177  1  0.19606484  0.20100228  0.20335458  1
  Pd  Pd178  1  0.60604248  0.60603356  0.39976921  1
  Pd  Pd179  1  0.40466740  0.80526192  0.00197541  1
  Pd  Pd180  1  0.80664656  0.20054859  0.59846777  1
  Pd  Pd181  1  0.39418056  0.60339666  0.80332584  1
  Pd  Pd182  1  0.79963882  -0.00178837  0.80292879  1
  Pd  Pd183  1  0.39301501  0.40545944  0.59777976  1
  Pd  Pd184  1  0.60292127  0.01005213  -0.00232037  1
  Pd  Pd185  1  0.19271031  0.80012348  0.00350536  1
  Pd  Pd186  1  0.80920449  0.40999475  0.39278295  1
  Pd  Pd187  1  0.19572397  0.19795698  0.39055734  1
  Pd  Pd188  1  -0.00605097  0.59868329  0.80669579  1
  Pd  Pd189  1  0.39575607  0.00525548  0.60764238  1
  Pd  Pd190  1  0.80401302  0.59265024  -0.00414062  1
  Pd  Pd191  1  0.59398257  0.80652336  0.79228184  1
  Pd  Pd192  1  0.39122234  0.40500225  0.19169300  1
  Pd  Pd193  1  0.80481407  0.00819423  0.39955831  1
  Pd  Pd194  1  0.00249822  0.00158264  0.60410471  1
  Pd  Pd195  1  -0.00503189  0.00155371  0.00280320  1
  Pd  Pd196  1  0.20388341  -0.00012918  0.20553381  1
  Pd  Pd197  1  0.00714584  0.60086738  -0.00209914  1
  Pd  Pd198  1  0.00229151  0.79580569  0.59902800  1
  Pd  Pd199  1  0.21025822  0.39306198  0.00834974  1
  Rh  Rh200  1  0.19268083  0.80451010  0.60393305  1
  Rh  Rh201  1  0.00824977  0.20102662  0.20106788  1
  Rh  Rh202  1  0.00610569  0.20552132  0.39195886  1
  Rh  Rh203  1  0.80573558  0.00123386  0.19107774  1
  Rh  Rh204  1  0.39300067  0.20395073  -0.00308526  1
  Rh  Rh205  1  0.40622002  0.79425936  0.59259293  1
  Rh  Rh206  1  -0.00090840  0.39611923  0.00298184  1
  Rh  Rh207  1  0.59423467  0.60080132  0.59381492  1
  Rh  Rh208  1  0.81501289  0.78907150  0.40671084  1
  Rh  Rh209  1  0.80929857  0.19602706  -0.00150460  1
  Rh  Rh210  1  0.39194886  0.40244135  0.40424192  1
  Rh  Rh211  1  0.60350624  0.58543843  0.80421126  1
  Rh  Rh212  1  0.40812051  0.40220350  0.79780800  1
  Rh  Rh213  1  0.39096908  -0.00388561  -0.00025578  1
  Rh  Rh214  1  0.40169333  0.20903350  0.39261672  1
  Rh  Rh215  1  0.20553328  0.20515184  0.60978639  1
  Rh  Rh216  1  -0.00998022  0.20601278  0.60080188  1
  Rh  Rh217  1  0.80310372  0.59731507  0.60235398  1
  Rh  Rh218  1  0.00652082  0.39613034  0.60219097  1
  Rh  Rh219  1  0.79370482  0.40422335  0.79559347  1
  Rh  Rh220  1  0.00228150  0.79535255  0.80431585  1
  Rh  Rh221  1  0.20141424  0.40151043  0.40906466  1
  Rh  Rh222  1  0.00043114  0.39497655  0.79764882  1
  Rh  Rh223  1  0.19555664  0.59065292  0.18988711  1
  Rh  Rh224  1  0.39575034  0.60113795  0.60034859  1
  Rh  Rh225  1  0.20154576  0.80148838  0.19037108  1
  Rh  Rh226  1  0.01141069  0.59254188  0.60430334  1
  Rh  Rh227  1  0.59244221  0.19836424  0.01213509  1
  Rh  Rh228  1  -0.00204772  0.40057784  0.19879332  1
  Rh  Rh229  1  0.60513760  0.39699116  0.19315317  1
  Rh  Rh230  1  0.00658766  0.39806853  0.39945585  1
  Rh  Rh231  1  0.80892024  0.80977209  0.00379128  1
  Rh  Rh232  1  0.59542650  0.39657214  0.41165878  1
  Rh  Rh233  1  0.20278993  0.00724635  0.78675924  1
  Rh  Rh234  1  0.59529227  0.59112340  -0.00177161  1
  Rh  Rh235  1  0.00475277  0.79938497  0.20362801  1
  Rh  Rh236  1  -0.00700095  -0.00216755  0.20297845  1
  Rh  Rh237  1  0.40394485  0.59560258  0.19564768  1
  Rh  Rh238  1  0.39224634  0.20564791  0.80463744  1
  Rh  Rh239  1  0.40322414  0.20192978  0.60162077  1
  Rh  Rh240  1  0.20747079  0.79194410  0.80171578  1
  Rh  Rh241  1  0.39540915  0.39753864  0.00647561  1
  Rh  Rh242  1  0.20770548  0.60390167  0.80510615  1
  Rh  Rh243  1  0.00571108  0.59505646  0.19362937  1
  Rh  Rh244  1  0.19968361  0.39144830  0.79189670  1
  Rh  Rh245  1  0.00355870  -0.00837017  0.39316098  1
  Rh  Rh246  1  0.19981868  0.59459835  0.40409280  1
  Rh  Rh247  1  0.38205955  -0.00948936  0.38959617  1
  Rh  Rh248  1  0.19827860  0.58975100  0.60184390  1
  Rh  Rh249  1  0.19524612  0.80437243  0.40117137  1
