# generated using pymatgen
data_ZrScNbPdRh
_symmetry_space_group_name_H-M   'P 1'
_cell_length_a   16.55121645
_cell_length_b   16.55062503
_cell_length_c   16.54931655
_cell_angle_alpha   90.00477150
_cell_angle_beta   90.02495147
_cell_angle_gamma   89.97431598
_symmetry_Int_Tables_number   1
_chemical_formula_structural   ZrScNbPdRh
_chemical_formula_sum   'Zr50 Sc50 Nb50 Pd50 Rh50'
_cell_volume   4533.40265244
_cell_formula_units_Z   50
loop_
 _symmetry_equiv_pos_site_id
 _symmetry_equiv_pos_as_xyz
  1  'x, y, z'
loop_
 _atom_site_type_symbol
 _atom_site_label
 _atom_site_symmetry_multiplicity
 _atom_site_fract_x
 _atom_site_fract_y
 _atom_site_fract_z
 _atom_site_occupancy
  Zr  Zr0  1  0.90490604  0.90716250  0.30060107  1
  Zr  Zr1  1  0.10635983  0.90630087  0.09793085  1
  Zr  Zr2  1  0.69309883  0.09459628  0.29992223  1
  Zr  Zr3  1  0.90373046  0.90201610  0.89800873  1
  Zr  Zr4  1  0.70311913  0.90154929  0.90625276  1
  Zr  Zr5  1  0.10037126  0.09779811  0.69621266  1
  Zr  Zr6  1  0.90293761  0.50473116  0.29935212  1
  Zr  Zr7  1  0.89651659  0.50158929  0.49702207  1
  Zr  Zr8  1  0.49761954  0.68293379  0.09548089  1
  Zr  Zr9  1  0.09804253  0.70439859  0.90273144  1
  Zr  Zr10  1  0.49208263  0.70587992  0.70594462  1
  Zr  Zr11  1  0.69861679  0.70377377  0.30458715  1
  Zr  Zr12  1  0.89043370  0.29976234  0.90660207  1
  Zr  Zr13  1  0.50720638  0.68993607  0.50934969  1
  Zr  Zr14  1  0.71405309  0.70375660  0.10275341  1
  Zr  Zr15  1  0.68727606  0.70027125  0.70208971  1
  Zr  Zr16  1  0.89770374  0.90934480  0.70733393  1
  Zr  Zr17  1  0.70463934  0.90202084  0.09957696  1
  Zr  Zr18  1  0.29897153  0.29511806  0.70797450  1
  Zr  Zr19  1  0.09665320  0.31277346  0.29459161  1
  Zr  Zr20  1  0.90413791  0.70903631  0.90286217  1
  Zr  Zr21  1  0.69392827  0.49362443  0.09897793  1
  Zr  Zr22  1  0.30195582  0.29654390  0.50396615  1
  Zr  Zr23  1  0.91240096  0.70156416  0.10252136  1
  Zr  Zr24  1  0.30279760  0.10355684  0.89237272  1
  Zr  Zr25  1  0.90977480  0.50142764  0.89547428  1
  Zr  Zr26  1  0.09808500  0.50012816  0.10378614  1
  Zr  Zr27  1  0.51158415  0.50096763  0.29607057  1
  Zr  Zr28  1  0.10670226  0.70743283  0.50467036  1
  Zr  Zr29  1  0.70120915  0.49862516  0.29971092  1
  Zr  Zr30  1  0.30371133  0.70402623  0.89121095  1
  Zr  Zr31  1  0.09761514  0.29020367  0.69358564  1
  Zr  Zr32  1  0.30301531  0.10033541  0.69546445  1
  Zr  Zr33  1  0.89419599  0.10620997  0.29666677  1
  Zr  Zr34  1  0.90008677  0.70564796  0.49903809  1
  Zr  Zr35  1  0.70093312  0.48444946  0.90006355  1
  Zr  Zr36  1  0.69889340  0.89861279  0.29601348  1
  Zr  Zr37  1  0.10133725  0.50524901  0.89767488  1
  Zr  Zr38  1  0.09980351  0.31032019  0.89612648  1
  Zr  Zr39  1  0.68610559  0.49585370  0.49654575  1
  Zr  Zr40  1  0.10118981  0.50154398  0.70655669  1
  Zr  Zr41  1  0.49504087  0.70016654  0.29413306  1
  Zr  Zr42  1  0.31047929  0.70338887  0.10274289  1
  Zr  Zr43  1  0.90600554  0.29154072  0.10371746  1
  Zr  Zr44  1  0.50855373  0.69462623  0.89174522  1
  Zr  Zr45  1  0.29300516  0.89940533  0.90840711  1
  Zr  Zr46  1  0.50149553  0.29743151  0.89337354  1
  Zr  Zr47  1  0.69449493  0.29388659  0.70372824  1
  Zr  Zr48  1  0.50294916  0.90620603  0.31049567  1
  Zr  Zr49  1  0.30066566  0.69944294  0.68978294  1
  Sc  Sc50  1  0.28898364  0.09983705  0.10741475  1
  Sc  Sc51  1  0.50922400  0.29886751  0.10082565  1
  Sc  Sc52  1  0.10039160  0.09826140  0.50713497  1
  Sc  Sc53  1  0.10191421  0.90535013  0.30465206  1
  Sc  Sc54  1  0.90364027  0.71908829  0.69689280  1
  Sc  Sc55  1  0.90294711  0.10238812  0.09851800  1
  Sc  Sc56  1  0.70568121  0.29999822  0.08035797  1
  Sc  Sc57  1  0.89880933  0.09867128  0.69977161  1
  Sc  Sc58  1  0.09428627  0.49765966  0.30386139  1
  Sc  Sc59  1  0.29735016  0.50543416  0.70251640  1
  Sc  Sc60  1  0.89296980  0.28975931  0.70024109  1
  Sc  Sc61  1  0.89881332  0.50470597  0.10053219  1
  Sc  Sc62  1  0.49670845  0.90896524  0.50303325  1
  Sc  Sc63  1  0.89879089  0.89787728  0.09880123  1
  Sc  Sc64  1  0.08910007  0.70249740  0.29706548  1
  Sc  Sc65  1  0.69517835  0.29804292  0.51139701  1
  Sc  Sc66  1  0.29994619  0.48641931  0.89793616  1
  Sc  Sc67  1  0.89863791  0.09973979  0.50442811  1
  Sc  Sc68  1  0.88784497  0.29485930  0.50148136  1
  Sc  Sc69  1  0.50807899  0.89262078  0.09751621  1
  Sc  Sc70  1  0.49420402  0.09942628  0.49959071  1
  Sc  Sc71  1  0.69844695  0.10377905  0.50450364  1
  Sc  Sc72  1  0.50291263  0.29492126  0.50661747  1
  Sc  Sc73  1  0.49457309  0.50611112  0.69712787  1
  Sc  Sc74  1  0.89491288  0.90061906  0.51223137  1
  Sc  Sc75  1  0.50054252  0.89129331  0.90089169  1
  Sc  Sc76  1  0.29888455  0.09369684  0.50356527  1
  Sc  Sc77  1  0.31173665  0.50009537  0.09610146  1
  Sc  Sc78  1  0.29997070  0.50531401  0.50972611  1
  Sc  Sc79  1  0.50709155  0.10501488  0.10637521  1
  Sc  Sc80  1  0.69598097  0.48855437  0.70150827  1
  Sc  Sc81  1  0.49752488  0.29593822  0.69448117  1
  Sc  Sc82  1  0.09311252  0.09486820  0.90486834  1
  Sc  Sc83  1  0.30890432  0.10993641  0.30454581  1
  Sc  Sc84  1  0.70543597  0.10153442  0.70004861  1
  Sc  Sc85  1  0.69607837  0.89637144  0.49882082  1
  Sc  Sc86  1  0.10788089  0.90820827  0.49890697  1
  Sc  Sc87  1  0.29660630  0.29799411  0.29327346  1
  Sc  Sc88  1  0.09857254  0.30273279  0.10434467  1
  Sc  Sc89  1  0.69923866  0.09315478  0.09580930  1
  Sc  Sc90  1  0.70168909  0.28845961  0.31265358  1
  Sc  Sc91  1  0.09404210  0.09351652  0.29901452  1
  Sc  Sc92  1  0.89808790  0.70174706  0.29025459  1
  Sc  Sc93  1  0.70493275  0.90538282  0.69550477  1
  Sc  Sc94  1  0.09677160  0.89673554  0.69324394  1
  Sc  Sc95  1  0.29545381  0.49405863  0.29578986  1
  Sc  Sc96  1  0.90125580  0.09688939  0.89527024  1
  Sc  Sc97  1  0.11073412  0.70192433  0.70221202  1
  Sc  Sc98  1  0.09594422  0.10254313  0.09785706  1
  Sc  Sc99  1  0.09635463  0.90192807  0.90249226  1
  Nb  Nb100  1  0.29530460  0.89255711  0.49059721  1
  Nb  Nb101  1  0.30018111  0.90588928  0.10247136  1
  Nb  Nb102  1  0.09704037  0.30353344  0.49818165  1
  Nb  Nb103  1  0.89876673  0.29633114  0.29655290  1
  Nb  Nb104  1  0.30903382  0.90040464  0.69376066  1
  Nb  Nb105  1  0.30177302  0.29824378  0.89991082  1
  Nb  Nb106  1  0.29700928  0.70316531  0.49584565  1
  Nb  Nb107  1  0.30619409  0.89235497  0.31012099  1
  Nb  Nb108  1  0.90105050  0.50711626  0.69651385  1
  Nb  Nb109  1  0.10075050  0.70221640  0.10380181  1
  Nb  Nb110  1  0.69003186  0.10025654  0.89782802  1
  Nb  Nb111  1  0.70264854  0.69918200  0.50486559  1
  Nb  Nb112  1  0.70363406  0.69696329  0.89564364  1
  Nb  Nb113  1  0.49014948  0.08937040  0.69834593  1
  Nb  Nb114  1  0.09604530  0.50194302  0.49663408  1
  Nb  Nb115  1  0.49872546  0.49714275  0.49372424  1
  Nb  Nb116  1  0.50762042  0.50089010  0.91271608  1
  Nb  Nb117  1  0.48927080  0.28097592  0.29846939  1
  Nb  Nb118  1  0.49805499  0.09612793  0.90088242  1
  Nb  Nb119  1  0.30343942  0.29951666  0.10014824  1
  Nb  Nb120  1  0.50509540  0.49619256  0.10002267  1
  Nb  Nb121  1  0.70011571  0.29319713  0.88982168  1
  Nb  Nb122  1  0.30355876  0.70375458  0.30368967  1
  Nb  Nb123  1  0.49399624  0.90561575  0.69905103  1
  Nb  Nb124  1  0.49706241  0.10441847  0.30293010  1
  Nb  Nb125  1  0.79382267  0.60372379  0.40591013  1
  Nb  Nb126  1  -0.00052412  0.80522068  0.40364900  1
  Nb  Nb127  1  0.39832997  0.59890123  0.40038724  1
  Nb  Nb128  1  0.40617272  0.40118193  0.39727726  1
  Nb  Nb129  1  0.19094752  0.39844059  0.59808219  1
  Nb  Nb130  1  0.20493532  -0.00142981  0.79429665  1
  Nb  Nb131  1  0.79890121  0.60180485  0.60155737  1
  Nb  Nb132  1  0.80075194  0.60154773  -0.00937138  1
  Nb  Nb133  1  0.41006678  0.39630223  0.20118163  1
  Nb  Nb134  1  0.20353761  0.60696923  0.39835286  1
  Nb  Nb135  1  0.19109686  0.20731125  0.40245183  1
  Nb  Nb136  1  0.20876392  0.80143702  0.20339085  1
  Nb  Nb137  1  0.39965290  0.00410370  0.00640479  1
  Nb  Nb138  1  0.39623445  0.19881570  -0.00126601  1
  Nb  Nb139  1  0.59248868  0.00231457  0.79926163  1
  Nb  Nb140  1  -0.00022844  0.59789890  0.59831779  1
  Nb  Nb141  1  0.80146607  0.39369258  0.20276363  1
  Nb  Nb142  1  0.00123165  0.20560535  0.39842287  1
  Nb  Nb143  1  0.20387640  0.60804211  0.20004757  1
  Nb  Nb144  1  -0.00053902  0.40400040  0.59784756  1
  Nb  Nb145  1  0.39934014  -0.00400342  0.20266195  1
  Nb  Nb146  1  0.20023512  0.60564203  0.00398685  1
  Nb  Nb147  1  0.80038662  0.60130616  0.79806920  1
  Nb  Nb148  1  0.20627619  0.20917065  -0.00393936  1
  Nb  Nb149  1  0.79756384  0.00100594  0.39635435  1
  Pd  Pd150  1  0.79476313  0.79948451  0.79587719  1
  Pd  Pd151  1  0.58707911  0.40411158  0.79443834  1
  Pd  Pd152  1  0.59657329  0.79382798  0.19370407  1
  Pd  Pd153  1  -0.00420689  0.61597545  0.78885512  1
  Pd  Pd154  1  0.59260839  0.79824327  0.40807787  1
  Pd  Pd155  1  0.60249341  0.59068727  0.60817309  1
  Pd  Pd156  1  0.39859025  0.58974396  0.80662606  1
  Pd  Pd157  1  0.21069647  0.40390057  0.40699546  1
  Pd  Pd158  1  0.40556522  0.40474382  0.79795119  1
  Pd  Pd159  1  0.60305793  0.81459783  0.79637642  1
  Pd  Pd160  1  0.80050773  0.40138646  0.60512451  1
  Pd  Pd161  1  0.40977059  0.39216278  0.00428860  1
  Pd  Pd162  1  -0.01183169  0.39162559  0.40520735  1
  Pd  Pd163  1  -0.00247290  0.00120794  0.19244893  1
  Pd  Pd164  1  0.61187807  0.60196890  -0.00208257  1
  Pd  Pd165  1  0.60291650  0.00413800  0.60352621  1
  Pd  Pd166  1  0.41287396  0.79291429  0.41250585  1
  Pd  Pd167  1  0.20605847  0.01183138  0.39454189  1
  Pd  Pd168  1  0.78767657  0.20386611  0.19302665  1
  Pd  Pd169  1  -0.00208045  -0.00136044  0.59765452  1
  Pd  Pd170  1  0.40529477  0.80333584  -0.00059142  1
  Pd  Pd171  1  0.19275717  0.20104508  0.20225482  1
  Pd  Pd172  1  0.40047769  0.80323750  0.59104132  1
  Pd  Pd173  1  0.39875737  -0.01041191  0.80942140  1
  Pd  Pd174  1  0.60486871  0.38197388  0.20707129  1
  Pd  Pd175  1  -0.00356399  0.39982013  0.00607941  1
  Pd  Pd176  1  0.59674908  0.80789906  0.60139037  1
  Pd  Pd177  1  0.61124738  0.20455381  0.19656291  1
  Pd  Pd178  1  -0.00912110  0.39039478  0.78897857  1
  Pd  Pd179  1  0.79946251  0.39917992  0.39630936  1
  Pd  Pd180  1  0.19986143  0.81009984  0.79254852  1
  Pd  Pd181  1  0.20101849  0.40120271  0.00566901  1
  Pd  Pd182  1  0.60866474  0.60603203  0.19658693  1
  Pd  Pd183  1  0.40360617  0.81067207  0.19831540  1
  Pd  Pd184  1  0.80738035  0.40051599  0.79293155  1
  Pd  Pd185  1  0.60288223  0.78930271  0.00227364  1
  Pd  Pd186  1  0.59162772  0.38141814  0.39567138  1
  Pd  Pd187  1  -0.00233500  0.19906172  0.80565353  1
  Pd  Pd188  1  0.21022639  -0.00346177  0.21604317  1
  Pd  Pd189  1  0.39341538  0.59515221  -0.01265709  1
  Pd  Pd190  1  0.80629195  0.80439306  0.39789970  1
  Pd  Pd191  1  0.19880791  0.79517421  0.00850386  1
  Pd  Pd192  1  0.59108049  0.18808098  0.79017338  1
  Pd  Pd193  1  0.39635848  0.40252501  0.59771848  1
  Pd  Pd194  1  0.59683934  0.19689875  0.40895672  1
  Pd  Pd195  1  0.18950672  0.19367547  0.80717851  1
  Pd  Pd196  1  0.59644473  0.20107741  -0.00158159  1
  Pd  Pd197  1  0.80613869  0.00763184  -0.00247941  1
  Pd  Pd198  1  0.79841369  0.18780890  -0.00574274  1
  Pd  Pd199  1  0.59120875  -0.00141370  0.19791531  1
  Rh  Rh200  1  0.19005808  0.79614809  0.39196959  1
  Rh  Rh201  1  0.80482577  0.80548611  0.20140062  1
  Rh  Rh202  1  0.40737436  0.20190717  0.79796882  1
  Rh  Rh203  1  0.79655547  0.00033936  0.59264545  1
  Rh  Rh204  1  0.39927406  0.19680533  0.18855034  1
  Rh  Rh205  1  0.60390989  0.00574099  0.40468018  1
  Rh  Rh206  1  0.39849992  0.80510830  0.80005582  1
  Rh  Rh207  1  0.39220212  -0.00557973  0.58965482  1
  Rh  Rh208  1  0.79667226  0.59202758  0.19907080  1
  Rh  Rh209  1  0.59491516  0.19198738  0.60600991  1
  Rh  Rh210  1  0.40137837  0.19507106  0.60055943  1
  Rh  Rh211  1  0.19324969  0.59463839  0.59309195  1
  Rh  Rh212  1  0.79953559  0.19472982  0.80543746  1
  Rh  Rh213  1  0.21109912  0.40850142  0.18885286  1
  Rh  Rh214  1  0.39848021  0.60086191  0.59464069  1
  Rh  Rh215  1  -0.00414527  -0.00246847  0.00352531  1
  Rh  Rh216  1  0.79617191  0.19850877  0.60359736  1
  Rh  Rh217  1  0.78851836  0.00545685  0.80610947  1
  Rh  Rh218  1  0.59958274  0.60757693  0.39835393  1
  Rh  Rh219  1  0.39703254  0.58478372  0.20882253  1
  Rh  Rh220  1  0.59226233  0.40059796  0.60283591  1
  Rh  Rh221  1  0.20744409  0.80890395  0.60172052  1
  Rh  Rh222  1  0.00919778  0.81171425  0.20427180  1
  Rh  Rh223  1  0.59364063  -0.00026027  -0.00592831  1
  Rh  Rh224  1  0.60355799  0.58859779  0.80224340  1
  Rh  Rh225  1  0.00819005  0.20545228  -0.00487094  1
  Rh  Rh226  1  -0.00628689  0.20451508  0.59122584  1
  Rh  Rh227  1  0.20119561  0.20409762  0.59284034  1
  Rh  Rh228  1  0.20718639  0.60045973  0.81103450  1
  Rh  Rh229  1  0.20257424  0.39919963  0.79200870  1
  Rh  Rh230  1  0.00200445  0.61478908  0.40478899  1
  Rh  Rh231  1  -0.00987686  -0.00007363  0.40800432  1
  Rh  Rh232  1  0.80420890  0.19132262  0.40437557  1
  Rh  Rh233  1  0.00265831  0.60173831  0.00256254  1
  Rh  Rh234  1  0.39385933  0.20339641  0.40710975  1
  Rh  Rh235  1  0.00677022  0.80062719  0.59550986  1
  Rh  Rh236  1  0.20588556  0.01340651  -0.00835713  1
  Rh  Rh237  1  0.20685652  -0.00841498  0.60516726  1
  Rh  Rh238  1  0.39506009  0.00292645  0.39709791  1
  Rh  Rh239  1  0.80915780  0.40648772  0.00615471  1
  Rh  Rh240  1  0.59622681  0.39069336  -0.00625638  1
  Rh  Rh241  1  -0.01126791  0.40404220  0.19741059  1
  Rh  Rh242  1  0.00714534  0.80371834  0.79814509  1
  Rh  Rh243  1  0.00794398  0.19724248  0.20771399  1
  Rh  Rh244  1  0.79173979  0.79798568  0.60717515  1
  Rh  Rh245  1  0.80294265  0.79719922  -0.00081256  1
  Rh  Rh246  1  0.00471141  0.80842418  0.00638263  1
  Rh  Rh247  1  0.00676041  0.59604848  0.20160195  1
  Rh  Rh248  1  0.80149268  -0.00063851  0.20198998  1
  Rh  Rh249  1  0.00967769  -0.00108748  0.79600283  1
