# generated using pymatgen
data_ZrScNbPdRh
_symmetry_space_group_name_H-M   'P 1'
_cell_length_a   16.56152470
_cell_length_b   16.56296305
_cell_length_c   16.55991621
_cell_angle_alpha   89.98784260
_cell_angle_beta   90.02056462
_cell_angle_gamma   89.97788154
_symmetry_Int_Tables_number   1
_chemical_formula_structural   ZrScNbPdRh
_chemical_formula_sum   'Zr50 Sc50 Nb50 Pd50 Rh50'
_cell_volume   4542.51546312
_cell_formula_units_Z   50
loop_
 _symmetry_equiv_pos_site_id
 _symmetry_equiv_pos_as_xyz
  1  'x, y, z'
loop_
 _atom_site_type_symbol
 _atom_site_label
 _atom_site_symmetry_multiplicity
 _atom_site_fract_x
 _atom_site_fract_y
 _atom_site_fract_z
 _atom_site_occupancy
  Zr  Zr0  1  0.90802999  0.09812984  0.69374451  1
  Zr  Zr1  1  0.88978221  0.30096551  0.10098874  1
  Zr  Zr2  1  0.30023019  0.30687407  0.89866984  1
  Zr  Zr3  1  0.89650674  0.90243504  0.30008861  1
  Zr  Zr4  1  0.50156622  0.90927537  0.49611584  1
  Zr  Zr5  1  0.89827820  0.30817108  0.49049502  1
  Zr  Zr6  1  0.50623820  0.89739303  0.69590258  1
  Zr  Zr7  1  0.30865926  0.50238706  0.30640580  1
  Zr  Zr8  1  0.30359325  0.30312926  0.50171691  1
  Zr  Zr9  1  0.10575630  0.90406052  0.10199161  1
  Zr  Zr10  1  0.28993246  0.69249143  0.29402108  1
  Zr  Zr11  1  0.50376620  0.48784584  0.90029913  1
  Zr  Zr12  1  0.10121814  0.50829195  0.69718261  1
  Zr  Zr13  1  0.69944439  0.30411838  0.69612285  1
  Zr  Zr14  1  0.50437351  0.89988129  0.10339560  1
  Zr  Zr15  1  0.09902214  0.70049760  0.49963103  1
  Zr  Zr16  1  0.30318915  0.09217536  0.89789185  1
  Zr  Zr17  1  0.49871737  0.70093568  0.88981316  1
  Zr  Zr18  1  0.49936089  0.29982571  0.89899292  1
  Zr  Zr19  1  0.50448396  0.89874160  0.30061331  1
  Zr  Zr20  1  0.28712287  0.08983002  0.11134860  1
  Zr  Zr21  1  0.10298730  0.71268326  0.70066372  1
  Zr  Zr22  1  0.28928592  0.90432597  0.69910182  1
  Zr  Zr23  1  0.70323883  0.88763918  0.69319935  1
  Zr  Zr24  1  0.50646471  0.09877308  0.69725323  1
  Zr  Zr25  1  0.69816311  0.29590889  0.50485432  1
  Zr  Zr26  1  0.09894896  0.30553240  0.89558370  1
  Zr  Zr27  1  0.30522389  0.70443568  0.89395479  1
  Zr  Zr28  1  0.69988644  0.49226646  0.09567549  1
  Zr  Zr29  1  0.69823764  0.70407847  0.30196841  1
  Zr  Zr30  1  0.49343173  0.30140085  0.10408440  1
  Zr  Zr31  1  0.09227740  0.89076225  0.89307008  1
  Zr  Zr32  1  0.90377573  0.48919697  0.30374470  1
  Zr  Zr33  1  0.30376837  0.49848011  0.89631928  1
  Zr  Zr34  1  0.50335934  0.09274846  0.89960986  1
  Zr  Zr35  1  0.70237693  0.89386125  0.30889762  1
  Zr  Zr36  1  0.30075495  0.28769964  0.30302319  1
  Zr  Zr37  1  0.09679832  0.10349500  0.49813143  1
  Zr  Zr38  1  0.89513749  0.89937966  0.10206044  1
  Zr  Zr39  1  0.89740930  0.70287165  0.69299351  1
  Zr  Zr40  1  0.10851767  0.50492699  0.30399528  1
  Zr  Zr41  1  0.30009631  0.10020708  0.49922487  1
  Zr  Zr42  1  0.89300575  0.49810262  0.10664824  1
  Zr  Zr43  1  0.68673559  0.69209962  0.70017729  1
  Zr  Zr44  1  0.89970647  0.70512423  0.09668876  1
  Zr  Zr45  1  0.69551645  0.70561227  0.89485045  1
  Zr  Zr46  1  0.30087359  0.89304487  0.10253093  1
  Zr  Zr47  1  0.69409130  0.28959225  0.30362163  1
  Zr  Zr48  1  0.09800624  0.88770601  0.29983918  1
  Zr  Zr49  1  0.89985982  0.09942540  0.29304524  1
  Sc  Sc50  1  0.70154872  0.70560304  0.50618558  1
  Sc  Sc51  1  0.10316922  0.29897698  0.49629198  1
  Sc  Sc52  1  0.70058124  0.70316697  0.11084995  1
  Sc  Sc53  1  0.89835928  0.29210207  0.70224866  1
  Sc  Sc54  1  0.49684199  0.70251226  0.30280675  1
  Sc  Sc55  1  0.90044427  0.90283499  0.69455002  1
  Sc  Sc56  1  0.50292060  0.89470049  0.91164907  1
  Sc  Sc57  1  0.10376979  0.70849860  0.10483627  1
  Sc  Sc58  1  0.50885807  0.30532355  0.69879402  1
  Sc  Sc59  1  0.70452166  0.09922302  0.10186574  1
  Sc  Sc60  1  0.71090867  0.10859811  0.69701708  1
  Sc  Sc61  1  0.30108012  0.29953492  0.10538408  1
  Sc  Sc62  1  0.90815637  0.70763611  0.89951530  1
  Sc  Sc63  1  0.30159302  0.49934010  0.69469053  1
  Sc  Sc64  1  0.30972137  0.89379150  0.30038803  1
  Sc  Sc65  1  0.89753657  0.29947798  0.30090364  1
  Sc  Sc66  1  0.49895752  0.10071893  0.30055960  1
  Sc  Sc67  1  0.09900593  0.30081380  0.69436218  1
  Sc  Sc68  1  0.30703526  0.49814332  0.11028072  1
  Sc  Sc69  1  0.30262271  0.69781595  0.49247628  1
  Sc  Sc70  1  0.70906567  0.50638874  0.28498648  1
  Sc  Sc71  1  0.50110813  0.50844315  0.69281541  1
  Sc  Sc72  1  0.09230691  0.09467102  0.88926674  1
  Sc  Sc73  1  0.70228225  0.29826619  0.10164287  1
  Sc  Sc74  1  0.10205422  0.10318666  0.29179708  1
  Sc  Sc75  1  0.88896893  0.89571503  0.90616506  1
  Sc  Sc76  1  0.50494007  0.70875966  0.10397878  1
  Sc  Sc77  1  0.50160896  0.09370062  0.11160640  1
  Sc  Sc78  1  0.30667231  0.49917394  0.50241239  1
  Sc  Sc79  1  0.90326509  0.09827455  0.50002903  1
  Sc  Sc80  1  0.89863875  0.51664436  0.69553663  1
  Sc  Sc81  1  0.69713706  0.10412937  0.50074527  1
  Sc  Sc82  1  0.91109529  0.51255318  0.89453463  1
  Sc  Sc83  1  0.11128924  0.50079763  0.50163515  1
  Sc  Sc84  1  0.10249690  0.50307465  0.89265055  1
  Sc  Sc85  1  0.10104594  0.50214532  0.10030710  1
  Sc  Sc86  1  0.89309955  0.71495663  0.29504926  1
  Sc  Sc87  1  0.10385335  0.29828480  0.10613544  1
  Sc  Sc88  1  0.30185025  0.89769083  0.90539719  1
  Sc  Sc89  1  0.49562665  0.68839280  0.50587894  1
  Sc  Sc90  1  0.09394334  0.29654536  0.30799691  1
  Sc  Sc91  1  0.69721047  0.10213792  0.29854363  1
  Sc  Sc92  1  0.09551277  0.70153557  0.89665949  1
  Sc  Sc93  1  0.09949282  0.89503246  0.50388085  1
  Sc  Sc94  1  0.70552137  0.49611977  0.51724445  1
  Sc  Sc95  1  0.69621432  0.31211846  0.90709287  1
  Sc  Sc96  1  0.70378627  0.09380030  0.90370918  1
  Sc  Sc97  1  0.89543209  0.89975616  0.49803380  1
  Sc  Sc98  1  0.89157071  0.10288519  0.89136741  1
  Sc  Sc99  1  0.49059093  0.28811725  0.30239086  1
  Nb  Nb100  1  0.90124269  0.10049382  0.09876973  1
  Nb  Nb101  1  0.69759549  0.50328912  0.89932608  1
  Nb  Nb102  1  0.29773638  0.09930640  0.69942774  1
  Nb  Nb103  1  0.10087793  0.08951310  0.69539147  1
  Nb  Nb104  1  0.30142143  0.29729720  0.69543322  1
  Nb  Nb105  1  0.30621496  0.89992899  0.49755410  1
  Nb  Nb106  1  0.90071347  0.30562838  0.90140015  1
  Nb  Nb107  1  0.49396909  0.69926759  0.70084497  1
  Nb  Nb108  1  0.49932551  0.29905975  0.50023536  1
  Nb  Nb109  1  0.49805766  0.49597347  0.10268200  1
  Nb  Nb110  1  0.09932501  0.69641323  0.30047428  1
  Nb  Nb111  1  0.29677158  0.10027100  0.29977726  1
  Nb  Nb112  1  0.69637203  0.90042084  0.90492520  1
  Nb  Nb113  1  0.30058309  0.69741907  0.09665766  1
  Nb  Nb114  1  0.90198692  0.50448229  0.50106763  1
  Nb  Nb115  1  0.89877650  0.69020349  0.50511069  1
  Nb  Nb116  1  0.50009489  0.10527683  0.50282536  1
  Nb  Nb117  1  0.69906281  0.50406405  0.70915721  1
  Nb  Nb118  1  0.69784932  0.89885819  0.08208733  1
  Nb  Nb119  1  0.09701644  0.90625899  0.70144444  1
  Nb  Nb120  1  0.49655255  0.49873162  0.30165918  1
  Nb  Nb121  1  0.49321474  0.49645559  0.49452653  1
  Nb  Nb122  1  0.31317344  0.70063625  0.70369320  1
  Nb  Nb123  1  0.09789463  0.10115697  0.09758032  1
  Nb  Nb124  1  0.70040743  0.89637034  0.49623420  1
  Nb  Nb125  1  0.40393683  0.59934688  0.00294559  1
  Nb  Nb126  1  -0.00300558  0.39518133  -0.00129007  1
  Nb  Nb127  1  0.20948746  0.60306736  0.00138105  1
  Nb  Nb128  1  0.20372167  0.19448620  0.79340879  1
  Nb  Nb129  1  0.59218714  0.40168764  0.20675236  1
  Nb  Nb130  1  0.39591191  0.19475350  -0.00219772  1
  Nb  Nb131  1  0.60787815  -0.00769364  0.79840012  1
  Nb  Nb132  1  0.39763141  0.80226394  0.60200252  1
  Nb  Nb133  1  -0.00366325  0.40694327  0.59595341  1
  Nb  Nb134  1  0.39492265  0.19791266  0.79475331  1
  Nb  Nb135  1  -0.00001583  0.60446885  0.20769261  1
  Nb  Nb136  1  -0.00343008  0.00672125  0.00541761  1
  Nb  Nb137  1  -0.00142301  0.19981124  0.00033016  1
  Nb  Nb138  1  0.60254305  0.58823384  0.40093454  1
  Nb  Nb139  1  0.20540272  -0.00265700  0.40005387  1
  Nb  Nb140  1  0.80324826  0.60073910  0.40280108  1
  Nb  Nb141  1  0.79866198  0.40892525  0.80174803  1
  Nb  Nb142  1  0.39995521  0.19827616  0.60312033  1
  Nb  Nb143  1  -0.00427357  0.60232792  0.39878636  1
  Nb  Nb144  1  0.20340840  0.40134272  0.20943347  1
  Nb  Nb145  1  0.19720469  0.19495799  -0.00536132  1
  Nb  Nb146  1  0.59856844  0.59542562  0.00102516  1
  Nb  Nb147  1  0.79359362  0.60047601  -0.00270825  1
  Nb  Nb148  1  0.59246412  0.19941351  0.00107766  1
  Nb  Nb149  1  0.59432802  0.40452200  0.39923957  1
  Pd  Pd150  1  0.19792093  0.40329990  0.01111726  1
  Pd  Pd151  1  0.19635555  -0.00170312  0.80599596  1
  Pd  Pd152  1  0.39954543  0.79499435  0.20169037  1
  Pd  Pd153  1  0.78977502  -0.00344326  0.19713686  1
  Pd  Pd154  1  0.20982890  0.79553295  0.59859365  1
  Pd  Pd155  1  0.40183664  0.00145195  0.01168801  1
  Pd  Pd156  1  0.79025000  0.21266459  0.80886691  1
  Pd  Pd157  1  0.18886675  0.00155193  -0.01087050  1
  Pd  Pd158  1  0.80457959  0.19187989  0.40271607  1
  Pd  Pd159  1  0.61418242  0.00353027  0.60232116  1
  Pd  Pd160  1  0.58995476  0.79418105  0.58974248  1
  Pd  Pd161  1  -0.00199963  0.20961086  0.59593730  1
  Pd  Pd162  1  0.00583920  0.19906270  0.79975735  1
  Pd  Pd163  1  0.40828145  0.60717609  0.19651061  1
  Pd  Pd164  1  0.79584116  0.00078178  0.59386160  1
  Pd  Pd165  1  0.61009530  -0.00486674  0.20253354  1
  Pd  Pd166  1  -0.00540375  0.80623006  0.59767938  1
  Pd  Pd167  1  0.79666483  0.19710021  -0.00468243  1
  Pd  Pd168  1  0.00310080  0.59581129  0.00788819  1
  Pd  Pd169  1  0.59388588  0.59542323  0.20093366  1
  Pd  Pd170  1  0.20522608  0.39713323  0.39818225  1
  Pd  Pd171  1  0.60417615  0.00942060  0.39943616  1
  Pd  Pd172  1  0.79487769  0.00625225  0.40471793  1
  Pd  Pd173  1  0.20607922  0.80306192  0.39926101  1
  Pd  Pd174  1  0.19953021  0.39712434  0.78753425  1
  Pd  Pd175  1  0.19677056  0.79335045  -0.00438061  1
  Pd  Pd176  1  0.39956434  0.81528180  0.79621307  1
  Pd  Pd177  1  0.00365498  -0.00167486  0.19938315  1
  Pd  Pd178  1  -0.01335538  -0.00656342  0.80626097  1
  Pd  Pd179  1  0.39777940  0.00555453  0.39204641  1
  Pd  Pd180  1  0.20021574  0.20044053  0.60252350  1
  Pd  Pd181  1  -0.00944921  0.79374490  0.40424557  1
  Pd  Pd182  1  0.78358677  0.40920219  0.39728834  1
  Pd  Pd183  1  0.60666297  0.19442294  0.80665830  1
  Pd  Pd184  1  0.20994564  0.60743001  0.59958280  1
  Pd  Pd185  1  -0.00170058  0.20589787  0.19680303  1
  Pd  Pd186  1  0.00986024  0.40151501  0.19596872  1
  Pd  Pd187  1  0.59387173  0.40778774  0.59712524  1
  Pd  Pd188  1  0.40847786  -0.00590471  0.79667849  1
  Pd  Pd189  1  0.00871198  0.00033263  0.39665659  1
  Pd  Pd190  1  -0.01016992  0.40614551  0.79181340  1
  Pd  Pd191  1  0.79657960  -0.00671843  0.79595027  1
  Pd  Pd192  1  0.80418101  0.60301836  0.80581094  1
  Pd  Pd193  1  0.19446797  -0.00118676  0.59027507  1
  Pd  Pd194  1  0.40427027  0.40045326  0.78523511  1
  Pd  Pd195  1  0.80268349  0.80027006  0.79904826  1
  Pd  Pd196  1  0.39879468  -0.00035487  0.60213287  1
  Pd  Pd197  1  0.81145931  0.40212449  0.61349346  1
  Pd  Pd198  1  0.20146111  0.60690562  0.80247096  1
  Pd  Pd199  1  0.59166393  0.78824033  0.41035395  1
  Rh  Rh200  1  0.19956592  0.20681609  0.19748605  1
  Rh  Rh201  1  0.00404876  0.61125699  0.79177116  1
  Rh  Rh202  1  -0.00690220  0.80454710  0.79191027  1
  Rh  Rh203  1  0.40230525  0.19407159  0.40754574  1
  Rh  Rh204  1  0.60029512  0.79112065  0.00159459  1
  Rh  Rh205  1  0.78721326  0.38671989  0.21196255  1
  Rh  Rh206  1  0.80545977  0.00290577  0.00120956  1
  Rh  Rh207  1  0.59280445  0.20024928  0.40509311  1
  Rh  Rh208  1  0.20409087  0.79949502  0.20271415  1
  Rh  Rh209  1  0.00749786  0.40663998  0.41169559  1
  Rh  Rh210  1  0.00354371  0.81092372  0.00529470  1
  Rh  Rh211  1  0.40323391  0.79429985  0.00496116  1
  Rh  Rh212  1  0.19940949  -0.00931000  0.21636512  1
  Rh  Rh213  1  0.00458740  -0.00601464  0.59716696  1
  Rh  Rh214  1  0.39395592  0.18745398  0.19353003  1
  Rh  Rh215  1  0.40485438  0.60450453  0.39830806  1
  Rh  Rh216  1  0.39836555  -0.00217845  0.20425968  1
  Rh  Rh217  1  0.19911584  0.60344502  0.40755230  1
  Rh  Rh218  1  0.40253485  0.39335808  0.39888326  1
  Rh  Rh219  1  0.78991841  0.60350950  0.59894769  1
  Rh  Rh220  1  0.80398137  0.79453688  0.40890422  1
  Rh  Rh221  1  0.80094557  0.19813767  0.20221951  1
  Rh  Rh222  1  0.60314356  0.00667857  -0.00122495  1
  Rh  Rh223  1  0.60023982  0.59588340  0.59486931  1
  Rh  Rh224  1  0.59576843  0.20054259  0.59827078  1
  Rh  Rh225  1  0.00897592  0.59787202  0.59541345  1
  Rh  Rh226  1  0.19530081  0.39969515  0.60173013  1
  Rh  Rh227  1  0.20261936  0.80191953  0.79816050  1
  Rh  Rh228  1  0.79286719  0.79112083  -0.00045752  1
  Rh  Rh229  1  -0.00463226  0.19650593  0.39612535  1
  Rh  Rh230  1  0.39853189  0.39701891  0.21046617  1
  Rh  Rh231  1  0.59949222  0.20606218  0.19237300  1
  Rh  Rh232  1  0.40384973  0.39504981  0.60131993  1
  Rh  Rh233  1  0.59932527  0.80720030  0.80040774  1
  Rh  Rh234  1  0.81410831  0.41678277  -0.01612994  1
  Rh  Rh235  1  0.80739932  0.20119647  0.59357265  1
  Rh  Rh236  1  0.39535624  0.60308287  0.60037705  1
  Rh  Rh237  1  0.00092712  0.79725386  0.19736027  1
  Rh  Rh238  1  0.39334214  0.40141080  0.00495451  1
  Rh  Rh239  1  0.40553499  0.79867665  0.40940410  1
  Rh  Rh240  1  0.19658400  0.19051891  0.39728608  1
  Rh  Rh241  1  0.59022265  0.59423553  0.80284654  1
  Rh  Rh242  1  0.79150006  0.81009270  0.19548830  1
  Rh  Rh243  1  0.81216710  0.60796333  0.20094320  1
  Rh  Rh244  1  0.40473251  0.59067993  0.80151894  1
  Rh  Rh245  1  0.60668506  0.81003929  0.19935477  1
  Rh  Rh246  1  0.60598549  0.40361746  0.79247672  1
  Rh  Rh247  1  0.59549109  0.39556583  0.01119246  1
  Rh  Rh248  1  0.80292804  0.79902933  0.59441733  1
  Rh  Rh249  1  0.19344881  0.59618242  0.19054708  1
