# generated using pymatgen
data_ZrScNbPdRh
_symmetry_space_group_name_H-M   'P 1'
_cell_length_a   16.56424167
_cell_length_b   16.55603192
_cell_length_c   16.56450510
_cell_angle_alpha   89.98744567
_cell_angle_beta   89.98327341
_cell_angle_gamma   90.00756656
_symmetry_Int_Tables_number   1
_chemical_formula_structural   ZrScNbPdRh
_chemical_formula_sum   'Zr50 Sc50 Nb50 Pd50 Rh50'
_cell_volume   4542.61829008
_cell_formula_units_Z   50
loop_
 _symmetry_equiv_pos_site_id
 _symmetry_equiv_pos_as_xyz
  1  'x, y, z'
loop_
 _atom_site_type_symbol
 _atom_site_label
 _atom_site_symmetry_multiplicity
 _atom_site_fract_x
 _atom_site_fract_y
 _atom_site_fract_z
 _atom_site_occupancy
  Zr  Zr0  1  0.90279393  0.50853345  0.70302087  1
  Zr  Zr1  1  0.70701573  0.49869817  0.68851793  1
  Zr  Zr2  1  0.30828836  0.29809353  0.69982243  1
  Zr  Zr3  1  0.89606429  0.89727926  0.30689367  1
  Zr  Zr4  1  0.89682819  0.69790657  0.90354275  1
  Zr  Zr5  1  0.09236468  0.89660616  0.28834782  1
  Zr  Zr6  1  0.09814153  0.11501371  0.50483067  1
  Zr  Zr7  1  0.69402331  0.89130772  0.09379359  1
  Zr  Zr8  1  0.70261174  0.89657719  0.70344196  1
  Zr  Zr9  1  0.09682954  0.49690290  0.30371429  1
  Zr  Zr10  1  0.89917271  0.50131903  0.90722325  1
  Zr  Zr11  1  0.69504337  0.29528338  0.89695304  1
  Zr  Zr12  1  0.69803576  0.10127111  0.71556342  1
  Zr  Zr13  1  0.69926569  0.50811222  0.50209760  1
  Zr  Zr14  1  0.69513844  0.31024203  0.51030883  1
  Zr  Zr15  1  0.30269940  0.49900228  0.50540307  1
  Zr  Zr16  1  0.49061359  0.29809541  0.49987831  1
  Zr  Zr17  1  0.10455579  0.10115906  0.29483824  1
  Zr  Zr18  1  0.91090499  0.29800100  0.49951476  1
  Zr  Zr19  1  0.90308060  0.30418923  0.90418150  1
  Zr  Zr20  1  0.50058043  0.69971841  0.10006064  1
  Zr  Zr21  1  0.31285210  0.70060546  0.70538845  1
  Zr  Zr22  1  0.49939723  0.50204311  0.09826081  1
  Zr  Zr23  1  0.29896664  0.10540427  0.70146542  1
  Zr  Zr24  1  0.29951814  0.70206672  0.28793334  1
  Zr  Zr25  1  0.49179105  0.09405784  0.49762036  1
  Zr  Zr26  1  0.69447280  0.09969113  0.30178605  1
  Zr  Zr27  1  0.90234953  0.50166639  0.29203475  1
  Zr  Zr28  1  0.49627439  0.30579771  0.30040698  1
  Zr  Zr29  1  0.50036455  0.69709040  0.69701350  1
  Zr  Zr30  1  0.50998940  0.29667199  0.70117198  1
  Zr  Zr31  1  0.69572457  0.89936943  0.31388513  1
  Zr  Zr32  1  0.29774223  0.30413273  0.90248969  1
  Zr  Zr33  1  0.29486566  0.89226984  0.88652538  1
  Zr  Zr34  1  0.69136313  0.29795793  0.29816295  1
  Zr  Zr35  1  0.69544313  0.90301647  0.90353868  1
  Zr  Zr36  1  0.29729530  0.31282449  0.10221477  1
  Zr  Zr37  1  0.49465780  0.69365271  0.50199334  1
  Zr  Zr38  1  0.10057472  0.09765035  0.09758298  1
  Zr  Zr39  1  0.89818935  0.50015870  0.50419868  1
  Zr  Zr40  1  0.29717374  0.10173753  0.10538602  1
  Zr  Zr41  1  0.49678660  0.90219187  0.50056521  1
  Zr  Zr42  1  0.68951438  0.70125624  0.50260824  1
  Zr  Zr43  1  0.69407623  0.10503110  0.08938700  1
  Zr  Zr44  1  0.10203570  0.10082514  0.91048240  1
  Zr  Zr45  1  0.88893933  0.10089809  0.89932488  1
  Zr  Zr46  1  0.49897119  0.10026060  0.09644199  1
  Zr  Zr47  1  0.10029433  0.70289888  0.10064942  1
  Zr  Zr48  1  0.10952656  0.90263200  0.70350197  1
  Zr  Zr49  1  0.09963100  0.69339119  0.49936125  1
  Sc  Sc50  1  0.09752215  0.89891632  0.09425250  1
  Sc  Sc51  1  0.90311360  0.09591675  0.30079805  1
  Sc  Sc52  1  0.30436766  0.90351986  0.70063799  1
  Sc  Sc53  1  0.30613492  0.10318315  0.50217742  1
  Sc  Sc54  1  0.11548801  0.29811171  0.70574278  1
  Sc  Sc55  1  0.10864423  0.10240207  0.69845430  1
  Sc  Sc56  1  0.89774010  0.70645193  0.49525138  1
  Sc  Sc57  1  0.50836883  0.09334222  0.90014052  1
  Sc  Sc58  1  0.69198268  0.08710622  0.49309359  1
  Sc  Sc59  1  0.69280117  0.69323347  0.09640084  1
  Sc  Sc60  1  0.49878754  0.89782657  0.09509653  1
  Sc  Sc61  1  0.10846722  0.30594914  0.30769513  1
  Sc  Sc62  1  0.49777569  0.49878251  0.70552933  1
  Sc  Sc63  1  0.49668420  0.10188841  0.69589846  1
  Sc  Sc64  1  0.50092942  0.49704755  0.90401920  1
  Sc  Sc65  1  0.09946075  0.49891682  0.89232806  1
  Sc  Sc66  1  0.09974697  0.90571907  0.50623633  1
  Sc  Sc67  1  0.90811172  0.70197177  0.29850589  1
  Sc  Sc68  1  0.10428780  0.30162340  0.90632503  1
  Sc  Sc69  1  0.50418406  0.30661689  0.89768645  1
  Sc  Sc70  1  0.89665419  0.09622772  0.69794143  1
  Sc  Sc71  1  0.69475728  0.30369809  0.09407884  1
  Sc  Sc72  1  0.30328950  0.90212711  0.29214002  1
  Sc  Sc73  1  0.89897070  0.30322220  0.70025487  1
  Sc  Sc74  1  0.29723725  0.49940857  0.70679090  1
  Sc  Sc75  1  0.10122585  0.68487928  0.70155651  1
  Sc  Sc76  1  0.88980083  0.90510148  0.69712161  1
  Sc  Sc77  1  0.49244605  0.89782417  0.70011847  1
  Sc  Sc78  1  0.49534257  0.68717413  0.89933631  1
  Sc  Sc79  1  0.90295149  0.69612179  0.09559624  1
  Sc  Sc80  1  0.29780084  0.09623518  0.89742254  1
  Sc  Sc81  1  0.90657656  0.89400218  0.10145233  1
  Sc  Sc82  1  0.69113094  0.50337233  0.29051427  1
  Sc  Sc83  1  0.90565771  0.09633723  0.09333927  1
  Sc  Sc84  1  0.50342335  0.69298809  0.29988520  1
  Sc  Sc85  1  0.49755253  0.50727136  0.49328226  1
  Sc  Sc86  1  0.91068639  0.30892177  0.29910592  1
  Sc  Sc87  1  0.49549150  0.89366135  0.29666371  1
  Sc  Sc88  1  0.09587514  0.69855101  0.29262228  1
  Sc  Sc89  1  0.49377205  0.10927681  0.30399893  1
  Sc  Sc90  1  0.10442084  0.70073950  0.90736926  1
  Sc  Sc91  1  0.69930637  0.89647085  0.49725390  1
  Sc  Sc92  1  0.30326014  0.49157348  0.28526307  1
  Sc  Sc93  1  0.89973858  0.31175946  0.09552707  1
  Sc  Sc94  1  0.88926842  0.89088288  0.90619754  1
  Sc  Sc95  1  0.30307794  0.89702856  0.10496051  1
  Sc  Sc96  1  0.50468438  0.30120266  0.09993216  1
  Sc  Sc97  1  0.89786590  0.50431310  0.09869353  1
  Sc  Sc98  1  0.70053463  0.50168806  0.09429250  1
  Sc  Sc99  1  0.10480566  0.49907157  0.10303138  1
  Nb  Nb100  1  0.70590293  0.69840097  0.70055471  1
  Nb  Nb101  1  0.49777959  0.50320843  0.29944942  1
  Nb  Nb102  1  0.70398801  0.70312459  0.90143154  1
  Nb  Nb103  1  0.69810225  0.70340725  0.30640023  1
  Nb  Nb104  1  0.10613128  0.49806939  0.50368354  1
  Nb  Nb105  1  0.89810652  0.90915083  0.49862573  1
  Nb  Nb106  1  0.69908250  0.09874765  0.90142309  1
  Nb  Nb107  1  0.10112728  0.49786633  0.69246683  1
  Nb  Nb108  1  0.09912060  0.89896614  0.89416529  1
  Nb  Nb109  1  0.10442191  0.29244481  0.09277765  1
  Nb  Nb110  1  0.10688523  0.31022327  0.50097058  1
  Nb  Nb111  1  0.89332915  0.70633959  0.70463734  1
  Nb  Nb112  1  0.49835749  0.89119624  0.90299499  1
  Nb  Nb113  1  0.30279447  0.69356689  0.90174818  1
  Nb  Nb114  1  0.29466688  0.30363396  0.50090386  1
  Nb  Nb115  1  0.30281014  0.49877173  0.09154395  1
  Nb  Nb116  1  0.90102481  0.10252119  0.50235664  1
  Nb  Nb117  1  0.30102931  0.10219981  0.30224048  1
  Nb  Nb118  1  0.30572572  0.29420343  0.30006202  1
  Nb  Nb119  1  0.69885531  0.49937202  0.90129267  1
  Nb  Nb120  1  0.30310872  0.90038597  0.49733466  1
  Nb  Nb121  1  0.30493744  0.69694274  0.49955265  1
  Nb  Nb122  1  0.69669360  0.30343704  0.70062590  1
  Nb  Nb123  1  0.29710163  0.69421141  0.09312213  1
  Nb  Nb124  1  0.30695937  0.50400501  0.91381170  1
  Nb  Nb125  1  0.61349675  0.60211035  0.79872664  1
  Nb  Nb126  1  0.80111224  0.20460609  0.40261053  1
  Nb  Nb127  1  0.00016778  0.19481815  0.80592517  1
  Nb  Nb128  1  0.79445496  0.40105501  0.80007128  1
  Nb  Nb129  1  -0.00124836  0.80175872  0.79602901  1
  Nb  Nb130  1  0.00002234  0.80083289  0.60699224  1
  Nb  Nb131  1  0.20503023  0.60072521  0.40156008  1
  Nb  Nb132  1  0.00145412  -0.00270295  0.80517096  1
  Nb  Nb133  1  0.00338439  0.20275386  0.19360029  1
  Nb  Nb134  1  0.01253909  0.40328591  0.60026128  1
  Nb  Nb135  1  0.79795877  0.40191331  0.39919929  1
  Nb  Nb136  1  0.20355598  0.80078854  0.40355385  1
  Nb  Nb137  1  0.60320129  0.00078022  0.19853923  1
  Nb  Nb138  1  0.79302219  0.80137491  0.20517608  1
  Nb  Nb139  1  0.60361892  0.79230614  0.80275011  1
  Nb  Nb140  1  0.00278070  0.00356327  0.40665500  1
  Nb  Nb141  1  0.20396671  0.79514359  0.59518488  1
  Nb  Nb142  1  0.39732219  0.20145613  0.00183108  1
  Nb  Nb143  1  0.79597244  0.59956798  0.39547522  1
  Nb  Nb144  1  0.80284788  0.19852304  0.20224106  1
  Nb  Nb145  1  0.20028854  0.00046998  0.39793896  1
  Nb  Nb146  1  0.79547605  0.20008776  0.59579612  1
  Nb  Nb147  1  0.39257112  0.79478625  0.40374175  1
  Nb  Nb148  1  0.39264450  0.79177451  -0.00513924  1
  Nb  Nb149  1  0.79293441  -0.00188898  0.19945290  1
  Pd  Pd150  1  0.60124484  0.00015582  0.60658583  1
  Pd  Pd151  1  0.19776977  0.59444948  0.20228009  1
  Pd  Pd152  1  0.60043288  0.40793739  0.40102162  1
  Pd  Pd153  1  0.58553997  0.41044725  0.59794810  1
  Pd  Pd154  1  0.40434062  0.40341189  0.60335713  1
  Pd  Pd155  1  0.40884986  0.19754163  0.81139043  1
  Pd  Pd156  1  -0.00022324  -0.00269514  0.60463081  1
  Pd  Pd157  1  0.20845347  -0.01011558  -0.00066903  1
  Pd  Pd158  1  0.20832098  0.00007622  0.59273752  1
  Pd  Pd159  1  0.20408436  0.59742773  0.80442881  1
  Pd  Pd160  1  0.79671278  0.61047884  0.20241749  1
  Pd  Pd161  1  0.40913539  0.00202656  0.20442919  1
  Pd  Pd162  1  0.19253133  0.59227741  -0.00290764  1
  Pd  Pd163  1  0.19700444  0.20957750  0.20114963  1
  Pd  Pd164  1  0.80406961  0.80058791  0.59234109  1
  Pd  Pd165  1  -0.00669181  -0.00965758  -0.00746109  1
  Pd  Pd166  1  0.59747713  0.40471247  0.19453813  1
  Pd  Pd167  1  0.40040273  0.40390787  0.80464870  1
  Pd  Pd168  1  0.79734671  0.59446391  0.80471740  1
  Pd  Pd169  1  0.20936942  0.60332117  0.60163278  1
  Pd  Pd170  1  0.79570909  0.39381706  0.20289718  1
  Pd  Pd171  1  0.20428554  0.40542129  0.80387499  1
  Pd  Pd172  1  0.00954906  0.40670091  0.00507051  1
  Pd  Pd173  1  0.80180685  -0.00443038  0.00676587  1
  Pd  Pd174  1  0.79001508  0.00793584  0.59739971  1
  Pd  Pd175  1  0.19444725  0.78566359  0.79189625  1
  Pd  Pd176  1  0.40490266  0.00292399  0.80151210  1
  Pd  Pd177  1  0.20785333  0.19729721  0.40417040  1
  Pd  Pd178  1  0.00169137  0.60711834  0.80518983  1
  Pd  Pd179  1  0.60646857  0.18914765  0.59586704  1
  Pd  Pd180  1  0.00020905  0.39320235  0.79205780  1
  Pd  Pd181  1  0.60024599  0.20153607  0.40956740  1
  Pd  Pd182  1  0.80384249  0.20779866  0.79384380  1
  Pd  Pd183  1  0.59767387  0.80389688  0.60610053  1
  Pd  Pd184  1  -0.00192922  0.59584115  0.40023679  1
  Pd  Pd185  1  0.40100450  0.20564338  0.19430816  1
  Pd  Pd186  1  0.59182380  -0.00868985  0.79804019  1
  Pd  Pd187  1  0.39372637  0.40472316  0.39715733  1
  Pd  Pd188  1  0.00762729  0.80898428  0.41019120  1
  Pd  Pd189  1  0.40062450  0.59817702  0.19786449  1
  Pd  Pd190  1  0.20061417  -0.00668764  0.20055253  1
  Pd  Pd191  1  0.00083324  0.20847800  0.61447977  1
  Pd  Pd192  1  0.80305832  0.20712230  0.00857702  1
  Pd  Pd193  1  0.39483294  -0.00500851  -0.00668973  1
  Pd  Pd194  1  -0.00653538  0.60380470  0.59946160  1
  Pd  Pd195  1  0.60212088  0.80213769  0.20478412  1
  Pd  Pd196  1  0.21145559  0.40750893  0.39480198  1
  Pd  Pd197  1  0.20528731  0.80571528  0.00310078  1
  Pd  Pd198  1  -0.00079187  0.19845716  0.38937376  1
  Pd  Pd199  1  0.00963684  0.39337721  0.18976891  1
  Rh  Rh200  1  0.79880506  0.80315260  0.80309160  1
  Rh  Rh201  1  0.39265346  0.59991847  0.38750760  1
  Rh  Rh202  1  0.39515193  0.00197288  0.60507765  1
  Rh  Rh203  1  0.39354493  -0.00519675  0.39245190  1
  Rh  Rh204  1  0.59080294  0.20266033  -0.00820754  1
  Rh  Rh205  1  0.59884008  0.59910021  0.20040961  1
  Rh  Rh206  1  0.39483473  0.80332449  0.59450029  1
  Rh  Rh207  1  -0.00717906  0.79531049  0.19231775  1
  Rh  Rh208  1  -0.00538734  0.20416987  0.00144237  1
  Rh  Rh209  1  -0.00117280  0.40774302  0.40905669  1
  Rh  Rh210  1  0.19898459  0.80053818  0.19551087  1
  Rh  Rh211  1  0.60330413  0.59809240  0.39367340  1
  Rh  Rh212  1  0.00296511  0.60007252  0.19396915  1
  Rh  Rh213  1  0.79929386  0.79299167  0.01181826  1
  Rh  Rh214  1  0.80507009  0.61561801  0.59132557  1
  Rh  Rh215  1  0.19358678  0.19720441  0.80853169  1
  Rh  Rh216  1  0.39795705  0.20303640  0.59720894  1
  Rh  Rh217  1  0.39913749  0.59108811  0.60688560  1
  Rh  Rh218  1  0.59568995  0.19673903  0.80334877  1
  Rh  Rh219  1  0.00512500  0.59643891  0.00083018  1
  Rh  Rh220  1  0.40007125  0.79330352  0.19360444  1
  Rh  Rh221  1  0.59918927  0.40195984  0.00118399  1
  Rh  Rh222  1  0.59736153  -0.00212535  0.00230024  1
  Rh  Rh223  1  0.58477757  0.79789083  0.40280063  1
  Rh  Rh224  1  0.79678988  0.60132108  0.00254881  1
  Rh  Rh225  1  -0.00544930  0.00553578  0.20235175  1
  Rh  Rh226  1  0.20161757  0.39612858  0.60552762  1
  Rh  Rh227  1  0.40128830  0.60224760  0.00415768  1
  Rh  Rh228  1  0.40527457  0.39931531  0.19684097  1
  Rh  Rh229  1  0.39318418  0.20412901  0.40304766  1
  Rh  Rh230  1  0.81095334  0.39066953  0.60104212  1
  Rh  Rh231  1  0.20664992  0.20678635  0.59626865  1
  Rh  Rh232  1  0.80982644  0.00910703  0.40098940  1
  Rh  Rh233  1  0.40174590  0.59180158  0.80316758  1
  Rh  Rh234  1  0.60241714  0.59963583  -0.00853894  1
  Rh  Rh235  1  0.59581612  0.59671168  0.60847544  1
  Rh  Rh236  1  0.19656020  0.40800538  -0.00118931  1
  Rh  Rh237  1  0.21291508  0.20036404  0.00066445  1
  Rh  Rh238  1  0.00252166  0.79883807  -0.00809806  1
  Rh  Rh239  1  0.80231828  -0.00554920  0.80648931  1
  Rh  Rh240  1  0.60298922  0.19502570  0.19687809  1
  Rh  Rh241  1  0.79942055  0.79208644  0.40092508  1
  Rh  Rh242  1  0.79451747  0.40089708  -0.00647342  1
  Rh  Rh243  1  0.40401869  0.39494221  0.00084883  1
  Rh  Rh244  1  0.40847415  0.79656031  0.80825667  1
  Rh  Rh245  1  0.58096405  -0.00387817  0.39105125  1
  Rh  Rh246  1  0.19625907  0.00810161  0.80207129  1
  Rh  Rh247  1  0.19725006  0.39545807  0.20105399  1
  Rh  Rh248  1  0.60923817  0.40957974  0.79729212  1
  Rh  Rh249  1  0.58911643  0.78872225  -0.01059049  1
