# generated using pymatgen
data_ZrScNbPdRh
_symmetry_space_group_name_H-M   'P 1'
_cell_length_a   16.55654491
_cell_length_b   16.55520685
_cell_length_c   16.55581192
_cell_angle_alpha   89.97264044
_cell_angle_beta   90.05211699
_cell_angle_gamma   90.00886588
_symmetry_Int_Tables_number   1
_chemical_formula_structural   ZrScNbPdRh
_chemical_formula_sum   'Zr50 Sc50 Nb50 Pd50 Rh50'
_cell_volume   4537.89635632
_cell_formula_units_Z   50
loop_
 _symmetry_equiv_pos_site_id
 _symmetry_equiv_pos_as_xyz
  1  'x, y, z'
loop_
 _atom_site_type_symbol
 _atom_site_label
 _atom_site_symmetry_multiplicity
 _atom_site_fract_x
 _atom_site_fract_y
 _atom_site_fract_z
 _atom_site_occupancy
  Zr  Zr0  1  0.49470356  0.90658059  0.69810271  1
  Zr  Zr1  1  0.51000452  0.09639014  0.10319464  1
  Zr  Zr2  1  0.50087531  0.29896937  0.49305021  1
  Zr  Zr3  1  0.10687219  0.30284977  0.30436458  1
  Zr  Zr4  1  0.31722411  0.50592359  0.89856054  1
  Zr  Zr5  1  0.51643794  0.70825626  0.69699561  1
  Zr  Zr6  1  0.10307366  0.49928151  0.69400422  1
  Zr  Zr7  1  0.29977929  0.29811967  0.69894164  1
  Zr  Zr8  1  0.50316625  0.09776125  0.50380042  1
  Zr  Zr9  1  0.28507269  0.70341592  0.70213571  1
  Zr  Zr10  1  0.68891474  0.70129520  0.29802946  1
  Zr  Zr11  1  0.10120951  0.69847541  0.90072286  1
  Zr  Zr12  1  0.89950306  0.29696296  0.69864907  1
  Zr  Zr13  1  0.69932730  0.10075539  0.90336550  1
  Zr  Zr14  1  0.10091219  0.50233830  0.30352297  1
  Zr  Zr15  1  0.29425605  0.90358675  0.50346494  1
  Zr  Zr16  1  0.10489862  0.70139796  0.10052240  1
  Zr  Zr17  1  0.09463894  0.10626023  0.70280736  1
  Zr  Zr18  1  0.89802377  0.29894070  0.10286920  1
  Zr  Zr19  1  0.69411046  0.90133037  0.10414614  1
  Zr  Zr20  1  0.69879115  0.09789057  0.49335098  1
  Zr  Zr21  1  0.09244749  0.70160530  0.50486563  1
  Zr  Zr22  1  0.11053666  0.49431207  0.49474934  1
  Zr  Zr23  1  0.30371647  0.09817122  0.11139711  1
  Zr  Zr24  1  0.29790836  0.09774469  0.49554968  1
  Zr  Zr25  1  0.29601254  0.50370669  0.10228261  1
  Zr  Zr26  1  0.89242292  0.90440420  0.69898402  1
  Zr  Zr27  1  0.29308895  0.50136117  0.30880889  1
  Zr  Zr28  1  0.90778951  0.50576913  0.49389190  1
  Zr  Zr29  1  0.49271157  0.69471396  0.89888083  1
  Zr  Zr30  1  0.09131740  0.90966168  0.49589098  1
  Zr  Zr31  1  0.89605620  0.70243341  0.30691993  1
  Zr  Zr32  1  0.50351010  0.50321146  0.31322864  1
  Zr  Zr33  1  0.90870078  0.08292400  0.90137762  1
  Zr  Zr34  1  0.30870637  0.09545480  0.69870636  1
  Zr  Zr35  1  0.50591536  0.29400112  0.70128533  1
  Zr  Zr36  1  0.30314060  0.91239052  0.29750014  1
  Zr  Zr37  1  0.50160038  0.89700197  0.09908034  1
  Zr  Zr38  1  0.89341022  0.89909945  0.09440539  1
  Zr  Zr39  1  0.89859652  0.09795795  0.70102428  1
  Zr  Zr40  1  0.49402943  0.10442000  0.30285264  1
  Zr  Zr41  1  0.09551029  0.91312272  0.91775177  1
  Zr  Zr42  1  0.69229258  0.88205491  0.68898776  1
  Zr  Zr43  1  0.29887152  0.70179698  0.08853938  1
  Zr  Zr44  1  0.51225577  0.30881617  0.89913805  1
  Zr  Zr45  1  0.90247085  0.30169128  0.29973148  1
  Zr  Zr46  1  0.09404802  0.29486137  0.09255728  1
  Zr  Zr47  1  0.70950095  0.30665805  0.69997590  1
  Zr  Zr48  1  0.90477374  0.30708741  0.91009174  1
  Zr  Zr49  1  0.69360860  0.50674516  0.29828711  1
  Sc  Sc50  1  0.08483896  0.50279519  0.89795888  1
  Sc  Sc51  1  0.30182260  0.30853912  0.49800680  1
  Sc  Sc52  1  0.70260111  0.29587744  0.10197870  1
  Sc  Sc53  1  0.50326514  0.10828955  0.90331335  1
  Sc  Sc54  1  0.89719956  0.49141799  0.69801069  1
  Sc  Sc55  1  0.89860340  0.30330582  0.50940185  1
  Sc  Sc56  1  0.09611362  0.50778764  0.09991195  1
  Sc  Sc57  1  0.49425899  0.69676400  0.49092043  1
  Sc  Sc58  1  0.70150002  0.10976576  0.69732342  1
  Sc  Sc59  1  0.70165348  0.89833747  0.30026779  1
  Sc  Sc60  1  0.49938735  0.90669582  0.49565127  1
  Sc  Sc61  1  0.89120243  0.70836727  0.70159402  1
  Sc  Sc62  1  0.69341698  0.71090387  0.49835712  1
  Sc  Sc63  1  0.50146695  0.89814687  0.90441852  1
  Sc  Sc64  1  0.09981552  0.69681752  0.70107481  1
  Sc  Sc65  1  0.71223534  0.69302912  0.88777242  1
  Sc  Sc66  1  0.29562670  0.69409088  0.30620830  1
  Sc  Sc67  1  0.10551758  0.08954099  0.09209811  1
  Sc  Sc68  1  0.70590981  0.49608938  0.09420813  1
  Sc  Sc69  1  0.89819019  0.49476139  0.09393463  1
  Sc  Sc70  1  0.09324371  0.69949864  0.29488848  1
  Sc  Sc71  1  0.50561962  0.49402417  0.09523358  1
  Sc  Sc72  1  0.88923334  0.09449986  0.30750778  1
  Sc  Sc73  1  0.29659371  0.90661585  0.70013700  1
  Sc  Sc74  1  0.29709009  0.69281629  0.49972246  1
  Sc  Sc75  1  0.70057590  0.09543787  0.10525231  1
  Sc  Sc76  1  0.90052936  0.89501169  0.30787825  1
  Sc  Sc77  1  0.70291283  0.28553818  0.30078990  1
  Sc  Sc78  1  0.69532232  0.09692054  0.29816601  1
  Sc  Sc79  1  0.89181550  0.51010083  0.90848068  1
  Sc  Sc80  1  0.31755853  0.29772158  0.89844250  1
  Sc  Sc81  1  0.09117216  0.29500795  0.89405181  1
  Sc  Sc82  1  0.69870243  0.30125027  0.89529366  1
  Sc  Sc83  1  0.29930635  0.50407439  0.68789586  1
  Sc  Sc84  1  0.50090134  0.90491263  0.30389259  1
  Sc  Sc85  1  0.50829831  0.70508761  0.09709706  1
  Sc  Sc86  1  0.90919070  0.50121648  0.29857659  1
  Sc  Sc87  1  0.90222732  0.08616799  0.50518412  1
  Sc  Sc88  1  0.50465178  0.28948247  0.09112240  1
  Sc  Sc89  1  0.30694818  0.28930631  0.10055494  1
  Sc  Sc90  1  0.50128589  0.50669882  0.70434463  1
  Sc  Sc91  1  0.70554868  0.29422899  0.50438397  1
  Sc  Sc92  1  0.30873186  0.09981038  0.89776677  1
  Sc  Sc93  1  0.29994753  0.89905594  0.90376422  1
  Sc  Sc94  1  0.89683008  0.89815296  0.50100998  1
  Sc  Sc95  1  0.70521417  0.90449264  0.90871322  1
  Sc  Sc96  1  0.69684969  0.70435554  0.10549440  1
  Sc  Sc97  1  0.69206035  0.50515190  0.49229916  1
  Sc  Sc98  1  0.10720755  0.89388199  0.68955868  1
  Sc  Sc99  1  0.89658984  0.69929947  0.09358478  1
  Nb  Nb100  1  0.49979917  0.09325197  0.69980647  1
  Nb  Nb101  1  0.70057615  0.50173714  0.69734602  1
  Nb  Nb102  1  0.10189850  0.30334291  0.69554082  1
  Nb  Nb103  1  0.10059492  0.30381774  0.50354906  1
  Nb  Nb104  1  0.29889088  0.11415360  0.29771305  1
  Nb  Nb105  1  0.49172822  0.49758299  0.49961223  1
  Nb  Nb106  1  0.30355315  0.28704785  0.29369956  1
  Nb  Nb107  1  0.10844892  0.89856470  0.10999403  1
  Nb  Nb108  1  0.70028813  0.69568233  0.69199571  1
  Nb  Nb109  1  0.10250635  0.10267290  0.30624976  1
  Nb  Nb110  1  0.69501050  0.90626727  0.49997234  1
  Nb  Nb111  1  0.50873607  0.49418604  0.90069189  1
  Nb  Nb112  1  0.10067445  0.10022877  0.90173600  1
  Nb  Nb113  1  0.30281461  0.70152231  0.89796902  1
  Nb  Nb114  1  0.89900275  0.69933696  0.49921496  1
  Nb  Nb115  1  0.90341590  0.70341395  0.90316915  1
  Nb  Nb116  1  0.49977388  0.69758140  0.29053968  1
  Nb  Nb117  1  0.30519032  0.50472752  0.49662509  1
  Nb  Nb118  1  0.90192540  0.10081099  0.10391150  1
  Nb  Nb119  1  0.09580346  0.89909611  0.29889475  1
  Nb  Nb120  1  0.29544238  0.90305849  0.10252368  1
  Nb  Nb121  1  0.89936558  0.89821781  0.90171739  1
  Nb  Nb122  1  0.09961349  0.09868464  0.50040347  1
  Nb  Nb123  1  0.49870644  0.29731639  0.29988436  1
  Nb  Nb124  1  0.69531211  0.49454338  0.89815372  1
  Nb  Nb125  1  0.39581192  0.79499453  0.79846468  1
  Nb  Nb126  1  0.59782472  0.40454550  0.59850224  1
  Nb  Nb127  1  0.79794483  0.60183754  0.20363281  1
  Nb  Nb128  1  0.19503829  0.00707190  0.80485727  1
  Nb  Nb129  1  0.20535284  0.39503718  0.19773561  1
  Nb  Nb130  1  0.19228830  0.80762272  0.39766236  1
  Nb  Nb131  1  0.59796348  0.00148111  0.79363316  1
  Nb  Nb132  1  0.00322166  0.18949635  0.20645454  1
  Nb  Nb133  1  0.40138218  0.39894217  0.20689606  1
  Nb  Nb134  1  0.19981164  0.19860091  -0.00658845  1
  Nb  Nb135  1  -0.00492630  0.80481478  0.81083180  1
  Nb  Nb136  1  0.20065751  0.39833483  0.80226417  1
  Nb  Nb137  1  0.00497938  -0.00211070  0.20260391  1
  Nb  Nb138  1  0.80961805  0.19460881  0.00113384  1
  Nb  Nb139  1  0.60293511  0.59368041  -0.01079057  1
  Nb  Nb140  1  0.19271908  0.20259667  0.59867836  1
  Nb  Nb141  1  0.79506560  0.60413543  0.59853835  1
  Nb  Nb142  1  0.39959059  -0.00296931  0.00920449  1
  Nb  Nb143  1  0.40471402  0.60038342  0.20118853  1
  Nb  Nb144  1  0.39822210  0.79987068  0.60437460  1
  Nb  Nb145  1  0.20210427  0.39591360  -0.00503201  1
  Nb  Nb146  1  0.39627014  0.79774995  0.19893717  1
  Nb  Nb147  1  0.00727182  0.19788616  0.40396379  1
  Nb  Nb148  1  0.80125346  0.40295093  0.39797083  1
  Nb  Nb149  1  0.59472767  0.39506939  0.20705741  1
  Pd  Pd150  1  0.78540422  -0.00542341  0.79517545  1
  Pd  Pd151  1  0.39321843  0.39502398  0.39389746  1
  Pd  Pd152  1  0.81157423  0.20240131  0.40852406  1
  Pd  Pd153  1  0.00904099  0.39875932  0.19475294  1
  Pd  Pd154  1  0.80634069  0.59473506  0.79207080  1
  Pd  Pd155  1  0.61138691  0.38905062  0.40100901  1
  Pd  Pd156  1  0.59979910  0.59579197  0.59054440  1
  Pd  Pd157  1  0.40146752  0.60982943  0.60505507  1
  Pd  Pd158  1  0.78963066  0.00104026  0.60156405  1
  Pd  Pd159  1  0.61155431  0.78752295  -0.01240867  1
  Pd  Pd160  1  0.00006698  0.40311802  0.59819171  1
  Pd  Pd161  1  0.01030736  -0.01248312  0.79050399  1
  Pd  Pd162  1  0.80423040  0.40546958  0.80744426  1
  Pd  Pd163  1  0.80923241  0.19909318  0.81092912  1
  Pd  Pd164  1  0.19639122  0.58930747  -0.01205052  1
  Pd  Pd165  1  0.60415466  0.20358617  0.60115901  1
  Pd  Pd166  1  0.60367718  0.59808926  0.80368621  1
  Pd  Pd167  1  0.39923367  0.40374100  0.79049373  1
  Pd  Pd168  1  -0.01035711  0.60308242  0.19413544  1
  Pd  Pd169  1  0.19377844  0.81229334  0.80981575  1
  Pd  Pd170  1  0.39929688  0.39623214  0.00852390  1
  Pd  Pd171  1  0.41201713  0.59861485  0.00981743  1
  Pd  Pd172  1  0.79598772  0.59902816  0.40103273  1
  Pd  Pd173  1  0.39124873  0.79762060  0.39827880  1
  Pd  Pd174  1  0.39996565  0.60687353  0.78607079  1
  Pd  Pd175  1  0.20190379  0.20196653  0.80220833  1
  Pd  Pd176  1  0.40696572  0.40159304  0.60445183  1
  Pd  Pd177  1  0.19924300  -0.00148135  0.39296878  1
  Pd  Pd178  1  -0.00084538  0.19862626  0.59313088  1
  Pd  Pd179  1  0.00192927  0.39989834  0.79836738  1
  Pd  Pd180  1  0.80508924  -0.00469197  0.20452865  1
  Pd  Pd181  1  0.19976645  0.80346547  -0.00539289  1
  Pd  Pd182  1  -0.00705227  0.80288130  0.60739556  1
  Pd  Pd183  1  0.41024485  0.19857870  0.80177436  1
  Pd  Pd184  1  0.60040101  0.80557690  0.80987741  1
  Pd  Pd185  1  0.59344870  0.80319790  0.39914953  1
  Pd  Pd186  1  -0.00840804  0.80405747  0.19563655  1
  Pd  Pd187  1  0.20796597  0.79387284  0.21006887  1
  Pd  Pd188  1  0.79451006  0.80501869  0.40534382  1
  Pd  Pd189  1  0.79910562  0.80443240  0.80280122  1
  Pd  Pd190  1  -0.00807836  0.20220926  0.80301858  1
  Pd  Pd191  1  0.79168305  0.79298193  -0.00150473  1
  Pd  Pd192  1  0.20109814  0.58778165  0.80732304  1
  Pd  Pd193  1  0.39517308  0.20046382  0.59372409  1
  Pd  Pd194  1  0.00354597  0.80010228  0.00447484  1
  Pd  Pd195  1  0.19937052  0.20685722  0.41061140  1
  Pd  Pd196  1  0.79192651  0.40583085  0.20822324  1
  Pd  Pd197  1  -0.01010602  0.60310392  0.60995910  1
  Pd  Pd198  1  -0.01116781  0.60787495  0.79332251  1
  Pd  Pd199  1  0.19383485  0.00706212  0.20768712  1
  Rh  Rh200  1  0.19356244  0.01307245  0.61069185  1
  Rh  Rh201  1  0.80213340  0.79378000  0.20211982  1
  Rh  Rh202  1  0.79431513  0.39120748  -0.00427697  1
  Rh  Rh203  1  0.39953925  0.19821489  0.40567233  1
  Rh  Rh204  1  0.59348482  0.00265473  -0.00776100  1
  Rh  Rh205  1  0.40095940  -0.00363316  0.59152185  1
  Rh  Rh206  1  0.00497486  0.40857154  0.00127803  1
  Rh  Rh207  1  -0.00360595  -0.00248052  0.01489552  1
  Rh  Rh208  1  0.40640988  -0.00443125  0.19772081  1
  Rh  Rh209  1  -0.00734221  0.39147937  0.40704737  1
  Rh  Rh210  1  0.59862561  0.19372598  0.79663448  1
  Rh  Rh211  1  0.78866645  0.41603190  0.58571031  1
  Rh  Rh212  1  0.61541197  0.20260522  0.00081571  1
  Rh  Rh213  1  0.00181135  -0.00374276  0.60564124  1
  Rh  Rh214  1  0.20422108  0.79604975  0.58742125  1
  Rh  Rh215  1  0.59418130  0.60811447  0.40649559  1
  Rh  Rh216  1  0.19020878  0.61054665  0.40640264  1
  Rh  Rh217  1  0.19897443  0.59807501  0.59281323  1
  Rh  Rh218  1  0.00005369  0.18804080  0.00420326  1
  Rh  Rh219  1  -0.00141126  0.60466443  0.00349040  1
  Rh  Rh220  1  0.40432917  -0.00684362  0.81400585  1
  Rh  Rh221  1  0.19090444  0.20115900  0.19045696  1
  Rh  Rh222  1  0.41175971  0.20325756  0.19622683  1
  Rh  Rh223  1  0.20511251  0.39790940  0.60156262  1
  Rh  Rh224  1  0.60016628  0.59036787  0.18523116  1
  Rh  Rh225  1  0.39785305  0.00838527  0.39914212  1
  Rh  Rh226  1  0.20370766  0.59989905  0.20196509  1
  Rh  Rh227  1  0.58845162  0.80369567  0.58422821  1
  Rh  Rh228  1  0.00651158  0.60613883  0.39846224  1
  Rh  Rh229  1  0.39583893  0.18919271  0.00438998  1
  Rh  Rh230  1  0.80475971  0.19375559  0.19583016  1
  Rh  Rh231  1  0.60265995  0.40421044  0.78773863  1
  Rh  Rh232  1  0.80638928  0.19112103  0.59624932  1
  Rh  Rh233  1  0.60291725  0.00130165  0.39716563  1
  Rh  Rh234  1  0.20947956  0.39339365  0.39787006  1
  Rh  Rh235  1  0.59870962  -0.00379143  0.20750160  1
  Rh  Rh236  1  0.00319468  0.79671611  0.40224581  1
  Rh  Rh237  1  -0.00287650  0.00659743  0.39238333  1
  Rh  Rh238  1  0.21431422  0.00933785  -0.00514626  1
  Rh  Rh239  1  0.80082191  0.79438254  0.58983596  1
  Rh  Rh240  1  0.40143932  0.60187870  0.39604311  1
  Rh  Rh241  1  0.39370516  0.80697105  0.00223499  1
  Rh  Rh242  1  0.59847768  0.19880972  0.39843757  1
  Rh  Rh243  1  0.59876799  0.20365340  0.20190388  1
  Rh  Rh244  1  0.79518436  -0.00685179  0.40197218  1
  Rh  Rh245  1  0.80144230  0.00586561  0.00510617  1
  Rh  Rh246  1  0.59314023  0.80856323  0.20670587  1
  Rh  Rh247  1  0.60661235  0.39996217  0.00692740  1
  Rh  Rh248  1  0.60543946  0.00052997  0.60423920  1
  Rh  Rh249  1  0.79097146  0.60373060  0.00524918  1
