# generated using pymatgen
data_ZrScNbPdRh
_symmetry_space_group_name_H-M   'P 1'
_cell_length_a   16.55653720
_cell_length_b   16.56088835
_cell_length_c   16.55980751
_cell_angle_alpha   89.99017470
_cell_angle_beta   89.97991405
_cell_angle_gamma   90.01424144
_symmetry_Int_Tables_number   1
_chemical_formula_structural   ZrScNbPdRh
_chemical_formula_sum   'Zr50 Sc50 Nb50 Pd50 Rh50'
_cell_volume   4540.54909821
_cell_formula_units_Z   50
loop_
 _symmetry_equiv_pos_site_id
 _symmetry_equiv_pos_as_xyz
  1  'x, y, z'
loop_
 _atom_site_type_symbol
 _atom_site_label
 _atom_site_symmetry_multiplicity
 _atom_site_fract_x
 _atom_site_fract_y
 _atom_site_fract_z
 _atom_site_occupancy
  Zr  Zr0  1  0.90647262  0.29352795  0.50003600  1
  Zr  Zr1  1  0.10227739  0.28625974  0.50021711  1
  Zr  Zr2  1  0.89491912  0.30969236  0.29137277  1
  Zr  Zr3  1  0.30242756  0.09480701  0.09984030  1
  Zr  Zr4  1  0.10949035  0.70594958  0.69549165  1
  Zr  Zr5  1  0.90146786  0.70574024  0.69684452  1
  Zr  Zr6  1  0.30051453  0.70720536  0.28131509  1
  Zr  Zr7  1  0.09698300  0.49618067  0.29143366  1
  Zr  Zr8  1  0.70025518  0.90858770  0.10431968  1
  Zr  Zr9  1  0.29577029  0.90729116  0.29547851  1
  Zr  Zr10  1  0.08777074  0.69488564  0.30268408  1
  Zr  Zr11  1  0.49360554  0.69038795  0.10551254  1
  Zr  Zr12  1  0.50126774  0.71211871  0.90884218  1
  Zr  Zr13  1  0.68503167  0.90116667  0.90326055  1
  Zr  Zr14  1  0.10679237  0.69942910  0.10295295  1
  Zr  Zr15  1  0.50000254  0.49456512  0.09423622  1
  Zr  Zr16  1  0.29124169  0.30211781  0.90304292  1
  Zr  Zr17  1  0.90050880  0.90942357  0.10104141  1
  Zr  Zr18  1  0.90474043  0.90459912  0.69975528  1
  Zr  Zr19  1  0.49794319  0.70073892  0.50688389  1
  Zr  Zr20  1  0.69406093  0.50405834  0.50658639  1
  Zr  Zr21  1  0.89997797  0.69447814  0.10227204  1
  Zr  Zr22  1  0.30041630  0.70391361  0.08955631  1
  Zr  Zr23  1  0.69396262  0.70098940  0.09578619  1
  Zr  Zr24  1  0.30537157  0.50076259  0.09557094  1
  Zr  Zr25  1  0.10540838  0.48794958  0.90437192  1
  Zr  Zr26  1  0.30396336  0.09799481  0.29598099  1
  Zr  Zr27  1  0.50748710  0.30421913  0.10115635  1
  Zr  Zr28  1  0.89960145  0.89440582  0.29492996  1
  Zr  Zr29  1  0.30079084  0.49977066  0.90105566  1
  Zr  Zr30  1  0.69901535  0.70488384  0.30197972  1
  Zr  Zr31  1  0.69480221  0.09130280  0.29238295  1
  Zr  Zr32  1  0.90333459  0.50798457  0.29268695  1
  Zr  Zr33  1  0.49528568  0.90681592  0.89708232  1
  Zr  Zr34  1  0.50116254  0.49866273  0.70327886  1
  Zr  Zr35  1  0.30518666  0.50476397  0.70294156  1
  Zr  Zr36  1  0.50217488  0.50768696  0.50837499  1
  Zr  Zr37  1  0.10593741  0.29808249  0.30334337  1
  Zr  Zr38  1  0.70024032  0.09012497  0.50405853  1
  Zr  Zr39  1  0.29687642  0.09240132  0.90355806  1
  Zr  Zr40  1  0.89798400  0.49777315  0.90782345  1
  Zr  Zr41  1  0.49523385  0.50052846  0.28709280  1
  Zr  Zr42  1  0.29624184  0.90553393  0.70523972  1
  Zr  Zr43  1  0.11319917  0.70115333  0.90385405  1
  Zr  Zr44  1  0.69493767  0.89952075  0.29475277  1
  Zr  Zr45  1  0.10549212  0.49670922  0.70826076  1
  Zr  Zr46  1  0.29740739  0.89774480  0.90157867  1
  Zr  Zr47  1  0.69650493  0.29930129  0.28729672  1
  Zr  Zr48  1  0.69676337  0.69921486  0.50266513  1
  Zr  Zr49  1  0.90218679  0.49079926  0.09798495  1
  Sc  Sc50  1  0.89837815  0.10606189  0.90149966  1
  Sc  Sc51  1  0.30968687  0.29539411  0.10124332  1
  Sc  Sc52  1  0.69510553  0.49969782  0.09400669  1
  Sc  Sc53  1  0.49972842  0.49472584  0.89989216  1
  Sc  Sc54  1  0.10013190  0.90678453  0.29740782  1
  Sc  Sc55  1  0.49983596  0.90763641  0.50409087  1
  Sc  Sc56  1  0.09765464  0.90750179  0.10489956  1
  Sc  Sc57  1  0.70181842  0.30798459  0.50091530  1
  Sc  Sc58  1  0.90468315  0.71311101  0.49470999  1
  Sc  Sc59  1  0.09607048  0.10073471  0.09426828  1
  Sc  Sc60  1  0.70717710  0.50272383  0.30357559  1
  Sc  Sc61  1  0.91142388  0.09647004  0.29812505  1
  Sc  Sc62  1  0.11285117  0.50798640  0.48533807  1
  Sc  Sc63  1  0.30541902  0.09945729  0.50304784  1
  Sc  Sc64  1  0.10700386  0.10123905  0.69382071  1
  Sc  Sc65  1  0.90064384  0.09987539  0.09114589  1
  Sc  Sc66  1  0.29679132  0.29421942  0.29624491  1
  Sc  Sc67  1  0.10621337  0.09813966  0.30185657  1
  Sc  Sc68  1  0.69866743  0.29377662  0.90030306  1
  Sc  Sc69  1  0.29721735  0.28758395  0.49628261  1
  Sc  Sc70  1  0.70332932  0.90857291  0.70144093  1
  Sc  Sc71  1  0.30306456  0.70687608  0.69356475  1
  Sc  Sc72  1  0.50697298  0.29948961  0.90179638  1
  Sc  Sc73  1  0.90093611  0.09780943  0.70410064  1
  Sc  Sc74  1  0.29577956  0.28807557  0.69802535  1
  Sc  Sc75  1  0.69897393  0.10127080  0.09960339  1
  Sc  Sc76  1  0.69774944  0.49847438  0.90350921  1
  Sc  Sc77  1  0.50049070  0.29622328  0.70512749  1
  Sc  Sc78  1  0.69686300  0.29793038  0.71058430  1
  Sc  Sc79  1  0.88986051  0.49483511  0.49741972  1
  Sc  Sc80  1  0.89542569  0.49564950  0.70723661  1
  Sc  Sc81  1  0.50308285  0.90124104  0.09096344  1
  Sc  Sc82  1  0.49362711  0.29728848  0.28679784  1
  Sc  Sc83  1  0.89719244  0.29779150  0.70546649  1
  Sc  Sc84  1  0.70629411  0.89692064  0.50637583  1
  Sc  Sc85  1  0.89591070  0.29984888  0.90824386  1
  Sc  Sc86  1  0.28942962  0.49107775  0.29610364  1
  Sc  Sc87  1  0.90224994  0.90328884  0.50806744  1
  Sc  Sc88  1  0.69339144  0.49729771  0.70387384  1
  Sc  Sc89  1  0.90725057  0.91984366  0.89877983  1
  Sc  Sc90  1  0.69441405  0.69465914  0.90221729  1
  Sc  Sc91  1  0.49702180  0.69415444  0.70616866  1
  Sc  Sc92  1  0.49040073  0.29191950  0.50349017  1
  Sc  Sc93  1  0.50043951  0.09148324  0.70141320  1
  Sc  Sc94  1  0.09804407  0.30681946  0.08687230  1
  Sc  Sc95  1  0.89536907  0.68876436  0.90574732  1
  Sc  Sc96  1  0.70217878  0.09894577  0.70914923  1
  Sc  Sc97  1  0.30104528  0.89876762  0.50975432  1
  Sc  Sc98  1  0.10409417  0.90561067  0.50582915  1
  Sc  Sc99  1  0.09823755  0.10167113  0.49323100  1
  Nb  Nb100  1  0.68380176  0.10228369  0.89166184  1
  Nb  Nb101  1  0.89947680  0.69911427  0.29677054  1
  Nb  Nb102  1  0.29939679  0.69987267  0.49946714  1
  Nb  Nb103  1  0.49859767  0.08759462  0.30334375  1
  Nb  Nb104  1  0.70311936  0.70655524  0.70586791  1
  Nb  Nb105  1  0.50135784  0.10416487  0.49755940  1
  Nb  Nb106  1  0.09687577  0.49880626  0.09865800  1
  Nb  Nb107  1  0.30611330  0.10000867  0.70250827  1
  Nb  Nb108  1  0.10828085  0.70079552  0.49931281  1
  Nb  Nb109  1  0.09482691  0.10046474  0.90241279  1
  Nb  Nb110  1  0.89503341  0.29930417  0.09889852  1
  Nb  Nb111  1  0.50121652  0.90189015  0.30108619  1
  Nb  Nb112  1  0.30234446  0.50228142  0.49727030  1
  Nb  Nb113  1  0.10139435  0.90731490  0.88832348  1
  Nb  Nb114  1  0.10145804  0.29982239  0.69756129  1
  Nb  Nb115  1  0.30025785  0.70004785  0.91098501  1
  Nb  Nb116  1  0.49417503  0.10189713  0.09613708  1
  Nb  Nb117  1  0.49564706  0.88983170  0.70597811  1
  Nb  Nb118  1  0.70785477  0.30352495  0.10283384  1
  Nb  Nb119  1  0.29495574  0.89733345  0.10535666  1
  Nb  Nb120  1  0.10399292  0.90029478  0.70956344  1
  Nb  Nb121  1  0.49820376  0.70335929  0.30136530  1
  Nb  Nb122  1  0.50070125  0.09637863  0.90561961  1
  Nb  Nb123  1  0.90367345  0.10563562  0.49801607  1
  Nb  Nb124  1  0.10232412  0.29845005  0.89467490  1
  Nb  Nb125  1  0.20267450  0.79356492  0.40164363  1
  Nb  Nb126  1  -0.00122550  0.80417609  -0.00610819  1
  Nb  Nb127  1  0.79565372  0.19473581  0.39976026  1
  Nb  Nb128  1  0.39659287  0.60422421  0.39609275  1
  Nb  Nb129  1  0.00230135  0.59718040  0.60008755  1
  Nb  Nb130  1  0.00227447  0.79995742  0.80536519  1
  Nb  Nb131  1  0.79847121  0.19633796  0.59488512  1
  Nb  Nb132  1  0.59786939  0.80005515  0.60951345  1
  Nb  Nb133  1  0.59142947  0.39675221  0.39813860  1
  Nb  Nb134  1  0.00936509  0.40258699  0.59721162  1
  Nb  Nb135  1  0.01032789  0.20385200  0.80404828  1
  Nb  Nb136  1  0.80499251  0.80389994  0.80770714  1
  Nb  Nb137  1  0.00519398  0.60314474  0.79892769  1
  Nb  Nb138  1  0.20083566  0.39967528  0.59730037  1
  Nb  Nb139  1  0.40004435  0.40578211  0.40473396  1
  Nb  Nb140  1  0.80157773  0.60549978  0.60347982  1
  Nb  Nb141  1  0.59805636  0.19624530  0.39971322  1
  Nb  Nb142  1  0.40049132  0.79810548  0.39471398  1
  Nb  Nb143  1  0.39275981  0.40224999  0.59691221  1
  Nb  Nb144  1  0.00294933  0.39886304  0.40076510  1
  Nb  Nb145  1  0.39774981  0.18939367  0.80712922  1
  Nb  Nb146  1  -0.00253478  0.20955780  0.19349043  1
  Nb  Nb147  1  0.80420753  0.80588494  -0.00278422  1
  Nb  Nb148  1  0.60180333  0.19340894  0.59370398  1
  Nb  Nb149  1  0.80289320  0.00324715  0.39925884  1
  Pd  Pd150  1  0.59136079  0.38628406  0.59751171  1
  Pd  Pd151  1  0.79408669  0.39629751  0.80728120  1
  Pd  Pd152  1  0.40369270  0.20402905  0.39046287  1
  Pd  Pd153  1  0.60486749  0.20030981  0.00496731  1
  Pd  Pd154  1  -0.00453316  0.39617617  0.80069597  1
  Pd  Pd155  1  0.19960544  0.19313598  0.79923073  1
  Pd  Pd156  1  0.00446297  0.00708502  0.60285828  1
  Pd  Pd157  1  0.60716801  0.59686014  0.20382085  1
  Pd  Pd158  1  0.59106738  0.80195479  0.19497137  1
  Pd  Pd159  1  -0.00937679  0.59457938  0.41156868  1
  Pd  Pd160  1  0.79626539  0.39569068  0.39755444  1
  Pd  Pd161  1  0.60425083  -0.00512084  0.40367114  1
  Pd  Pd162  1  0.20952614  0.60779000  0.38657156  1
  Pd  Pd163  1  0.40724816  -0.00550951  0.19253487  1
  Pd  Pd164  1  0.19073242  0.81443046  0.00356834  1
  Pd  Pd165  1  0.20063297  0.00634840  0.59858413  1
  Pd  Pd166  1  0.80139206  0.80636527  0.40094938  1
  Pd  Pd167  1  0.79876404  0.79725184  0.19288173  1
  Pd  Pd168  1  0.20207579  0.59675374  0.19691806  1
  Pd  Pd169  1  0.40332009  0.00068089  0.60282327  1
  Pd  Pd170  1  0.00899576  0.80987087  0.40280955  1
  Pd  Pd171  1  0.59806343  0.60085451  0.80440499  1
  Pd  Pd172  1  0.80341853  0.39794646  0.60710645  1
  Pd  Pd173  1  0.00333992  0.80008281  0.19416451  1
  Pd  Pd174  1  0.19162502  0.19964603  0.18960634  1
  Pd  Pd175  1  0.80286503  0.60319655  0.79698397  1
  Pd  Pd176  1  0.79129661  0.00321792  -0.00897112  1
  Pd  Pd177  1  0.79569036  -0.00013575  0.80860956  1
  Pd  Pd178  1  0.40849131  0.81151615  0.19576187  1
  Pd  Pd179  1  0.40013261  0.61009720  0.81004891  1
  Pd  Pd180  1  0.39177295  0.79383282  0.80301661  1
  Pd  Pd181  1  0.19798412  0.19992969  0.00622287  1
  Pd  Pd182  1  0.79291980  0.59696461  0.19410783  1
  Pd  Pd183  1  0.59638595  -0.00343171  0.60794295  1
  Pd  Pd184  1  0.40235420  0.20444689  -0.00597208  1
  Pd  Pd185  1  0.39563330  0.38683235  0.79574555  1
  Pd  Pd186  1  0.20537390  0.60667244  0.80110238  1
  Pd  Pd187  1  0.19400119  -0.00543046  0.00288577  1
  Pd  Pd188  1  0.80776085  0.60788366  0.40777221  1
  Pd  Pd189  1  0.00807077  0.60218120  -0.00339770  1
  Pd  Pd190  1  0.20209313  0.39283875  0.18752168  1
  Pd  Pd191  1  0.20015432  0.59512009  0.60030962  1
  Pd  Pd192  1  0.79029064  0.19544914  -0.00327340  1
  Pd  Pd193  1  -0.00270775  -0.00742037  0.40084426  1
  Pd  Pd194  1  0.39453409  -0.00670093  0.40661599  1
  Pd  Pd195  1  0.59388410  0.80828820  0.41011308  1
  Pd  Pd196  1  0.59297714  0.59420138  0.39071819  1
  Pd  Pd197  1  0.59071592  0.18998086  0.20023994  1
  Pd  Pd198  1  0.01014365  0.80118875  0.60026610  1
  Pd  Pd199  1  0.80958756  0.18889639  0.20187535  1
  Rh  Rh200  1  0.39167141  0.39835284  0.20293033  1
  Rh  Rh201  1  0.39842211  0.80739924  0.00441788  1
  Rh  Rh202  1  0.59432352  -0.00133382  0.79619193  1
  Rh  Rh203  1  0.40200539  0.39354654  -0.00238321  1
  Rh  Rh204  1  0.79398305  0.39796619  0.00070756  1
  Rh  Rh205  1  0.39428147  0.59859329  0.59847442  1
  Rh  Rh206  1  0.79356390  0.60232193  0.00427681  1
  Rh  Rh207  1  0.60041979  0.01072949  0.00451195  1
  Rh  Rh208  1  0.59184466  0.59788674  -0.00412496  1
  Rh  Rh209  1  0.39320031  0.59651255  0.20090695  1
  Rh  Rh210  1  0.40588062  0.59866686  -0.00753036  1
  Rh  Rh211  1  0.00533599  -0.00224230  -0.00160672  1
  Rh  Rh212  1  0.19811291  0.00627995  0.19600888  1
  Rh  Rh213  1  0.60542873  0.39254889  0.00059392  1
  Rh  Rh214  1  -0.00810437  0.20869178  0.38192057  1
  Rh  Rh215  1  -0.00182205  0.39487681  -0.00305004  1
  Rh  Rh216  1  0.60151905  0.40020875  0.80403810  1
  Rh  Rh217  1  0.19888866  0.59099144  0.00400506  1
  Rh  Rh218  1  0.40073628  0.00305903  0.80003167  1
  Rh  Rh219  1  0.20562261  -0.00462933  0.40408352  1
  Rh  Rh220  1  0.81036832  0.00718606  0.59693614  1
  Rh  Rh221  1  0.58692845  0.00334960  0.19106614  1
  Rh  Rh222  1  0.60708220  0.40676128  0.20212965  1
  Rh  Rh223  1  0.40570439  0.80180543  0.59912420  1
  Rh  Rh224  1  0.80610725  0.19741537  0.79931523  1
  Rh  Rh225  1  0.18869456  0.80484612  0.20532325  1
  Rh  Rh226  1  0.20944856  0.39319458  0.79219120  1
  Rh  Rh227  1  0.00160368  0.01242043  0.19672692  1
  Rh  Rh228  1  0.39592501  -0.00586173  0.00483690  1
  Rh  Rh229  1  0.19799452  0.00884067  0.79829140  1
  Rh  Rh230  1  0.00028410  0.20557540  -0.00232639  1
  Rh  Rh231  1  0.40496415  0.19274457  0.20007549  1
  Rh  Rh232  1  0.19987907  0.80593765  0.59509189  1
  Rh  Rh233  1  0.20343727  0.19644547  0.59777831  1
  Rh  Rh234  1  0.00440536  0.39331014  0.19922080  1
  Rh  Rh235  1  0.80782810  0.00444195  0.20623625  1
  Rh  Rh236  1  0.61014567  0.61110617  0.61632679  1
  Rh  Rh237  1  0.00022495  0.60040261  0.19258567  1
  Rh  Rh238  1  0.79322121  0.41042891  0.19309912  1
  Rh  Rh239  1  -0.00719441  0.20224580  0.61509809  1
  Rh  Rh240  1  0.79159028  0.79931726  0.60664699  1
  Rh  Rh241  1  0.20427911  0.40057578  0.00665860  1
  Rh  Rh242  1  0.01018682  0.00971348  0.79440483  1
  Rh  Rh243  1  0.60617686  0.80461644  0.79435130  1
  Rh  Rh244  1  0.40657151  0.19958029  0.61213976  1
  Rh  Rh245  1  0.60191846  0.80042874  0.00661794  1
  Rh  Rh246  1  0.20515800  0.79741292  0.80118009  1
  Rh  Rh247  1  0.58953475  0.19355340  0.79483814  1
  Rh  Rh248  1  0.20951053  0.18685860  0.39900598  1
  Rh  Rh249  1  0.20030322  0.39219180  0.40740268  1
