# generated using pymatgen
data_ZrScNbPdRh
_symmetry_space_group_name_H-M   'P 1'
_cell_length_a   16.55018143
_cell_length_b   16.55107877
_cell_length_c   16.54913948
_cell_angle_alpha   90.02168849
_cell_angle_beta   89.97949239
_cell_angle_gamma   90.01745790
_symmetry_Int_Tables_number   1
_chemical_formula_structural   ZrScNbPdRh
_chemical_formula_sum   'Zr50 Sc50 Nb50 Pd50 Rh50'
_cell_volume   4533.19500891
_cell_formula_units_Z   50
loop_
 _symmetry_equiv_pos_site_id
 _symmetry_equiv_pos_as_xyz
  1  'x, y, z'
loop_
 _atom_site_type_symbol
 _atom_site_label
 _atom_site_symmetry_multiplicity
 _atom_site_fract_x
 _atom_site_fract_y
 _atom_site_fract_z
 _atom_site_occupancy
  Zr  Zr0  1  0.50221552  0.09377505  0.70220413  1
  Zr  Zr1  1  0.68938317  0.09988258  0.70744867  1
  Zr  Zr2  1  0.29870945  0.70158921  0.09541623  1
  Zr  Zr3  1  0.89865863  0.90370861  0.49672327  1
  Zr  Zr4  1  0.30365391  0.09404186  0.69345286  1
  Zr  Zr5  1  0.09510731  0.90103129  0.30247628  1
  Zr  Zr6  1  0.69873344  0.10020003  0.30015897  1
  Zr  Zr7  1  0.69413734  0.30103345  0.49214323  1
  Zr  Zr8  1  0.10481616  0.69107146  0.90548997  1
  Zr  Zr9  1  0.69755993  0.50195966  0.69961938  1
  Zr  Zr10  1  0.71104481  0.89841244  0.09698565  1
  Zr  Zr11  1  0.89133921  0.69721956  0.69747531  1
  Zr  Zr12  1  0.30696128  0.89955949  0.70243213  1
  Zr  Zr13  1  0.09948551  0.30335108  0.10413366  1
  Zr  Zr14  1  0.09933395  0.49816286  0.50327838  1
  Zr  Zr15  1  0.09494951  0.90208082  0.49981631  1
  Zr  Zr16  1  0.49940125  0.10101032  0.50326615  1
  Zr  Zr17  1  0.30208168  0.90305601  0.29880040  1
  Zr  Zr18  1  0.10111631  0.49268333  0.70675463  1
  Zr  Zr19  1  0.69407424  0.69892702  0.50893368  1
  Zr  Zr20  1  0.30390965  0.69485783  0.49976253  1
  Zr  Zr21  1  0.50507086  0.10619623  0.89591276  1
  Zr  Zr22  1  0.30630064  0.89688326  0.10339454  1
  Zr  Zr23  1  0.29798617  0.10326830  0.90574212  1
  Zr  Zr24  1  0.51102541  0.69207932  0.89715205  1
  Zr  Zr25  1  0.09391016  0.10022477  0.69814362  1
  Zr  Zr26  1  0.70502602  0.70093299  0.29454464  1
  Zr  Zr27  1  0.30710549  0.69766400  0.30510978  1
  Zr  Zr28  1  0.70107974  0.10456515  0.90238652  1
  Zr  Zr29  1  0.70347782  0.29463198  0.30419180  1
  Zr  Zr30  1  0.69633378  0.90269350  0.30040851  1
  Zr  Zr31  1  0.10118937  0.90225537  0.09872348  1
  Zr  Zr32  1  0.10429845  0.69842393  0.70264106  1
  Zr  Zr33  1  0.30948674  0.29565334  0.50755903  1
  Zr  Zr34  1  0.10363413  0.90784389  0.69592907  1
  Zr  Zr35  1  0.89944039  0.50050339  0.50134705  1
  Zr  Zr36  1  0.50554390  0.30210785  0.50022126  1
  Zr  Zr37  1  0.89809491  0.69692800  0.49572989  1
  Zr  Zr38  1  0.49610147  0.90048605  0.89103915  1
  Zr  Zr39  1  0.09977402  0.49790129  0.30572641  1
  Zr  Zr40  1  0.29948978  0.10277421  0.10225979  1
  Zr  Zr41  1  0.30194436  0.10019101  0.49418916  1
  Zr  Zr42  1  0.10126985  0.09462119  0.49549397  1
  Zr  Zr43  1  0.89251454  0.29648204  0.49797910  1
  Zr  Zr44  1  0.10060110  0.31110750  0.69880258  1
  Zr  Zr45  1  0.51142234  0.29986491  0.29742703  1
  Zr  Zr46  1  0.89898424  0.09806664  0.50081223  1
  Zr  Zr47  1  0.89872688  0.49107663  0.70304715  1
  Zr  Zr48  1  0.29866121  0.49090316  0.70758113  1
  Zr  Zr49  1  0.49164412  0.29279202  0.10024976  1
  Sc  Sc50  1  0.30716259  0.69765710  0.70125983  1
  Sc  Sc51  1  0.70808320  0.29804753  0.09492759  1
  Sc  Sc52  1  0.29859095  0.09148766  0.30780227  1
  Sc  Sc53  1  0.30626889  0.49996005  0.49962940  1
  Sc  Sc54  1  0.49634373  0.90144239  0.30125088  1
  Sc  Sc55  1  0.70079262  0.89502036  0.89937025  1
  Sc  Sc56  1  0.50300888  0.30350637  0.90746681  1
  Sc  Sc57  1  0.89234868  0.90476179  0.70050942  1
  Sc  Sc58  1  0.50160697  0.09351680  0.29298769  1
  Sc  Sc59  1  0.70276037  0.10139081  0.49583687  1
  Sc  Sc60  1  0.09838311  0.30560572  0.29901219  1
  Sc  Sc61  1  0.89098974  0.10688290  0.29362789  1
  Sc  Sc62  1  0.70442941  0.09898231  0.10586478  1
  Sc  Sc63  1  0.50320868  0.70074428  0.69709306  1
  Sc  Sc64  1  0.90101210  0.30650672  0.28577858  1
  Sc  Sc65  1  0.50481521  0.48522979  0.10052415  1
  Sc  Sc66  1  0.30276959  0.90068813  0.50479900  1
  Sc  Sc67  1  0.70237656  0.50035548  0.29450426  1
  Sc  Sc68  1  0.10258430  0.09713774  0.09253633  1
  Sc  Sc69  1  0.30015983  0.69563912  0.89873066  1
  Sc  Sc70  1  0.49874327  0.50217819  0.70686568  1
  Sc  Sc71  1  0.89110562  0.10398227  0.09620259  1
  Sc  Sc72  1  0.50319367  0.70167010  0.30741544  1
  Sc  Sc73  1  0.10235468  0.30805642  0.89581064  1
  Sc  Sc74  1  0.69999339  0.49791126  0.50079397  1
  Sc  Sc75  1  0.89638147  0.10381645  0.89460124  1
  Sc  Sc76  1  0.10201319  0.30553305  0.49742190  1
  Sc  Sc77  1  0.70456999  0.50963457  0.09339476  1
  Sc  Sc78  1  0.30245717  0.30226597  0.09834254  1
  Sc  Sc79  1  0.89978196  0.30100878  0.70172623  1
  Sc  Sc80  1  0.69998811  0.30317572  0.70283871  1
  Sc  Sc81  1  0.49723718  0.30600915  0.69183329  1
  Sc  Sc82  1  0.09656569  0.69626490  0.09292554  1
  Sc  Sc83  1  0.30102100  0.50073903  0.31059379  1
  Sc  Sc84  1  0.49977961  0.69915977  0.50111128  1
  Sc  Sc85  1  0.29846709  0.29427838  0.30533230  1
  Sc  Sc86  1  0.69526713  0.89745491  0.69585428  1
  Sc  Sc87  1  0.49869098  0.70713754  0.09564232  1
  Sc  Sc88  1  0.88976024  0.70346993  0.09628909  1
  Sc  Sc89  1  0.10370886  0.50171276  0.09600992  1
  Sc  Sc90  1  0.51022865  0.49888652  0.29647993  1
  Sc  Sc91  1  0.89530211  0.88331265  0.29989705  1
  Sc  Sc92  1  0.30181649  0.30416665  0.91112753  1
  Sc  Sc93  1  0.89053511  0.91044793  0.90193231  1
  Sc  Sc94  1  0.88744632  0.30235059  0.89146521  1
  Sc  Sc95  1  0.50716214  0.50273630  0.50688489  1
  Sc  Sc96  1  0.50278691  0.89901793  0.69848635  1
  Sc  Sc97  1  0.69764560  0.29827431  0.89600572  1
  Sc  Sc98  1  0.89730157  0.10629927  0.69823743  1
  Sc  Sc99  1  0.69834996  0.90229679  0.49785851  1
  Nb  Nb100  1  0.29835792  0.30045976  0.70041840  1
  Nb  Nb101  1  0.90280863  0.69676043  0.30000339  1
  Nb  Nb102  1  0.69649419  0.70553774  0.08913592  1
  Nb  Nb103  1  0.90541077  0.30364509  0.09558417  1
  Nb  Nb104  1  0.70078028  0.69779374  0.70369206  1
  Nb  Nb105  1  0.09971046  0.69787655  0.50047682  1
  Nb  Nb106  1  0.90133103  0.49738073  0.09973011  1
  Nb  Nb107  1  0.09976999  0.50459013  0.89839107  1
  Nb  Nb108  1  0.90000164  0.50630666  0.29256459  1
  Nb  Nb109  1  0.89551317  0.50549963  0.90537510  1
  Nb  Nb110  1  0.50979469  0.89278528  0.50136453  1
  Nb  Nb111  1  0.49651502  0.09490533  0.09884251  1
  Nb  Nb112  1  0.30372356  0.49850913  0.10093027  1
  Nb  Nb113  1  0.09589950  0.70026278  0.30521427  1
  Nb  Nb114  1  0.30004818  0.50267230  0.90046380  1
  Nb  Nb115  1  0.49801234  0.90307417  0.10554149  1
  Nb  Nb116  1  0.29969712  0.90215483  0.89881596  1
  Nb  Nb117  1  0.69308472  0.50945278  0.89947202  1
  Nb  Nb118  1  0.10498627  0.09588319  0.30035135  1
  Nb  Nb119  1  0.90170742  0.69945278  0.90140190  1
  Nb  Nb120  1  0.50220010  0.50266077  0.90202481  1
  Nb  Nb121  1  0.90091795  0.90022410  0.09719293  1
  Nb  Nb122  1  0.09728196  0.90907189  0.89873491  1
  Nb  Nb123  1  0.10080804  0.10237989  0.90051341  1
  Nb  Nb124  1  0.70170623  0.69313582  0.91113204  1
  Nb  Nb125  1  -0.00221010  0.60216582  0.20432056  1
  Nb  Nb126  1  0.20000906  0.60307463  0.20466159  1
  Nb  Nb127  1  0.19772783  0.59718635  0.59992182  1
  Nb  Nb128  1  0.19537467  0.19468904  0.20229766  1
  Nb  Nb129  1  -0.00141055  0.80627568  -0.00832289  1
  Nb  Nb130  1  0.00140008  0.19645128  0.39502740  1
  Nb  Nb131  1  0.59433108  -0.00108685  0.00563430  1
  Nb  Nb132  1  0.20143766  0.20126617  0.60480770  1
  Nb  Nb133  1  0.00231515  0.79993518  0.80348939  1
  Nb  Nb134  1  0.19638684  0.80907266  0.80713750  1
  Nb  Nb135  1  -0.00165648  -0.00233789  0.19761815  1
  Nb  Nb136  1  0.41033733  0.39525894  0.40172493  1
  Nb  Nb137  1  0.19462987  0.79496873  0.39923600  1
  Nb  Nb138  1  0.19591721  0.79387308  0.20599793  1
  Nb  Nb139  1  0.20165472  0.20005114  0.79691900  1
  Nb  Nb140  1  0.39681598  0.59739583  0.19456771  1
  Nb  Nb141  1  -0.00696621  0.40474698  -0.00261444  1
  Nb  Nb142  1  -0.00548410  0.59960005  0.80742866  1
  Nb  Nb143  1  0.39394468  0.20213204  0.79657352  1
  Nb  Nb144  1  0.79670838  0.60218643  0.80806508  1
  Nb  Nb145  1  0.00009512  0.79689212  0.60222782  1
  Nb  Nb146  1  0.60470138  0.80298358  0.19432662  1
  Nb  Nb147  1  0.40147941  0.59109952  0.00078202  1
  Nb  Nb148  1  0.40322324  -0.00231152  0.00013265  1
  Nb  Nb149  1  -0.00073782  0.20795465  -0.00150857  1
  Pd  Pd150  1  0.59706680  0.39772566  0.80013187  1
  Pd  Pd151  1  -0.00162493  0.59751792  0.39750341  1
  Pd  Pd152  1  0.19524272  0.40420962  -0.00251216  1
  Pd  Pd153  1  -0.01425509  0.00702366  0.38435694  1
  Pd  Pd154  1  0.19509784  0.80537000  -0.00357640  1
  Pd  Pd155  1  0.60769715  0.40060505  0.00264675  1
  Pd  Pd156  1  0.79327021  0.79711359  0.40386694  1
  Pd  Pd157  1  0.80934259  -0.00517857  0.20491439  1
  Pd  Pd158  1  -0.01010096  0.39303176  0.39779853  1
  Pd  Pd159  1  0.20710490  0.40011703  0.20411594  1
  Pd  Pd160  1  0.60423334  0.19983776  0.19163968  1
  Pd  Pd161  1  0.60620984  0.79732937  0.79829725  1
  Pd  Pd162  1  0.41019546  0.20045725  0.39058822  1
  Pd  Pd163  1  0.79246311  0.00392186  0.60194614  1
  Pd  Pd164  1  0.80419765  0.40515531  0.39209326  1
  Pd  Pd165  1  0.79525538  0.39985379  0.19736000  1
  Pd  Pd166  1  0.39223837  0.19481309  0.20910562  1
  Pd  Pd167  1  0.59257268  0.60929609  0.19153096  1
  Pd  Pd168  1  0.39795828  0.59458358  0.60555168  1
  Pd  Pd169  1  0.79796774  0.40096845  -0.00566490  1
  Pd  Pd170  1  0.40461099  0.79829772  -0.00874405  1
  Pd  Pd171  1  0.59529104  0.00215219  0.40299459  1
  Pd  Pd172  1  0.79272949  0.59769175  0.40019323  1
  Pd  Pd173  1  0.20663352  -0.00361435  0.00082589  1
  Pd  Pd174  1  0.40839483  -0.00921877  0.59361018  1
  Pd  Pd175  1  0.40286815  0.39267720  0.80784165  1
  Pd  Pd176  1  0.00490002  0.18959191  0.19775412  1
  Pd  Pd177  1  0.00090746  0.79635348  0.18945703  1
  Pd  Pd178  1  0.21023347  0.39545924  0.40542540  1
  Pd  Pd179  1  0.00594420  0.20741372  0.59120166  1
  Pd  Pd180  1  0.60390427  0.59872114  0.40052280  1
  Pd  Pd181  1  0.39843171  0.80597423  0.40696226  1
  Pd  Pd182  1  0.80082004  0.80408335  0.59555388  1
  Pd  Pd183  1  0.80326164  0.60476847  0.19195471  1
  Pd  Pd184  1  0.59600584  0.80947746  0.00130638  1
  Pd  Pd185  1  0.00311271  0.60038859  0.60804818  1
  Pd  Pd186  1  -0.00800640  0.00719297  0.00226638  1
  Pd  Pd187  1  0.00370260  0.20574047  0.80767879  1
  Pd  Pd188  1  0.79933549  0.79682764  0.80634056  1
  Pd  Pd189  1  0.79414915  0.00248832  0.79781703  1
  Pd  Pd190  1  0.60372553  0.20124324  0.60242282  1
  Pd  Pd191  1  0.60371473  0.19655459  0.00872480  1
  Pd  Pd192  1  0.39535726  0.40322209  0.21166036  1
  Pd  Pd193  1  0.79572132  0.39584473  0.59947643  1
  Pd  Pd194  1  -0.00708480  0.00005617  0.79788270  1
  Pd  Pd195  1  0.20179554  0.00356030  0.80127580  1
  Pd  Pd196  1  0.20040280  0.79383995  0.60035418  1
  Pd  Pd197  1  0.61372275  0.39589122  0.19179152  1
  Pd  Pd198  1  0.79052835  0.20029340  0.60460225  1
  Pd  Pd199  1  0.39640390  0.79076393  0.80257316  1
  Rh  Rh200  1  0.58918866  0.21204096  0.79286391  1
  Rh  Rh201  1  0.60171214  0.40364957  0.60330537  1
  Rh  Rh202  1  0.19586137  -0.00013172  0.19911203  1
  Rh  Rh203  1  -0.00754210  0.39459358  0.59527498  1
  Rh  Rh204  1  0.79530532  0.19930678  0.79422577  1
  Rh  Rh205  1  0.80124008  0.00004154  0.39407673  1
  Rh  Rh206  1  0.60067397  -0.00186744  0.59492273  1
  Rh  Rh207  1  0.40745717  0.80138777  0.59757732  1
  Rh  Rh208  1  0.39789746  0.00821407  0.80738729  1
  Rh  Rh209  1  0.40214896  0.59937856  0.80752651  1
  Rh  Rh210  1  0.00205146  0.41343859  0.19376249  1
  Rh  Rh211  1  0.20720342  0.40153234  0.59389593  1
  Rh  Rh212  1  0.20465566  -0.01135920  0.40445026  1
  Rh  Rh213  1  0.19682058  0.60379954  0.40637231  1
  Rh  Rh214  1  0.60136521  -0.00687014  0.19444888  1
  Rh  Rh215  1  0.80193472  0.60160636  0.00124360  1
  Rh  Rh216  1  0.79424576  0.00454153  -0.00158639  1
  Rh  Rh217  1  -0.00958802  -0.00570840  0.60703636  1
  Rh  Rh218  1  0.40166955  0.40709164  -0.00342116  1
  Rh  Rh219  1  0.60111059  0.60122909  0.60587657  1
  Rh  Rh220  1  0.80726372  0.20083889  0.39575054  1
  Rh  Rh221  1  0.40732749  -0.00470119  0.40588649  1
  Rh  Rh222  1  -0.00645087  0.40603823  0.81052510  1
  Rh  Rh223  1  0.00010060  0.79508518  0.41048724  1
  Rh  Rh224  1  0.20313671  0.00568821  0.59332440  1
  Rh  Rh225  1  0.60050843  0.79855232  0.60180634  1
  Rh  Rh226  1  -0.00735841  0.59779893  0.00442144  1
  Rh  Rh227  1  0.60682554  -0.00810502  0.80673173  1
  Rh  Rh228  1  0.80608364  0.20141538  -0.00211406  1
  Rh  Rh229  1  0.39781687  0.00502966  0.19836374  1
  Rh  Rh230  1  0.41415327  0.58599492  0.39402156  1
  Rh  Rh231  1  0.60342332  0.79845038  0.39552267  1
  Rh  Rh232  1  0.59712671  0.19016732  0.39823727  1
  Rh  Rh233  1  0.79682769  0.79572181  0.19777342  1
  Rh  Rh234  1  0.59899203  0.40756699  0.39956719  1
  Rh  Rh235  1  0.20994956  0.58993813  0.00560551  1
  Rh  Rh236  1  0.60444973  0.60210594  0.79583125  1
  Rh  Rh237  1  0.40451154  0.19677039  -0.00525313  1
  Rh  Rh238  1  0.79183217  0.40938456  0.80550526  1
  Rh  Rh239  1  0.40754864  0.79178141  0.20459377  1
  Rh  Rh240  1  0.39956486  0.19907790  0.60827682  1
  Rh  Rh241  1  0.18720091  0.20614194  0.00101547  1
  Rh  Rh242  1  0.79875015  0.20884151  0.19608170  1
  Rh  Rh243  1  0.79565736  0.59615468  0.60266847  1
  Rh  Rh244  1  0.40152791  0.40603172  0.59604673  1
  Rh  Rh245  1  0.19994346  0.60001067  0.79501177  1
  Rh  Rh246  1  0.20715716  0.39662343  0.81144355  1
  Rh  Rh247  1  0.80773669  0.80098953  -0.00628423  1
  Rh  Rh248  1  0.59059026  0.59433651  0.00890759  1
  Rh  Rh249  1  0.18799396  0.20231982  0.39919530  1
