# generated using pymatgen
data_ZrScNbPdRh
_symmetry_space_group_name_H-M   'P 1'
_cell_length_a   16.55775216
_cell_length_b   16.55822222
_cell_length_c   16.56203793
_cell_angle_alpha   90.01106257
_cell_angle_beta   90.03241750
_cell_angle_gamma   89.99079770
_symmetry_Int_Tables_number   1
_chemical_formula_structural   ZrScNbPdRh
_chemical_formula_sum   'Zr50 Sc50 Nb50 Pd50 Rh50'
_cell_volume   4540.76238418
_cell_formula_units_Z   50
loop_
 _symmetry_equiv_pos_site_id
 _symmetry_equiv_pos_as_xyz
  1  'x, y, z'
loop_
 _atom_site_type_symbol
 _atom_site_label
 _atom_site_symmetry_multiplicity
 _atom_site_fract_x
 _atom_site_fract_y
 _atom_site_fract_z
 _atom_site_occupancy
  Zr  Zr0  1  0.49473025  0.90231024  0.49657324  1
  Zr  Zr1  1  0.09713565  0.69866021  0.49927941  1
  Zr  Zr2  1  0.30594284  0.69672643  0.09694676  1
  Zr  Zr3  1  0.09816257  0.09957724  0.90242381  1
  Zr  Zr4  1  0.30054944  0.50012972  0.90338518  1
  Zr  Zr5  1  0.48981757  0.30056092  0.50274275  1
  Zr  Zr6  1  0.90216912  0.30005343  0.70392072  1
  Zr  Zr7  1  0.69360834  0.50193024  0.71069306  1
  Zr  Zr8  1  0.28038621  0.89620066  0.69931842  1
  Zr  Zr9  1  0.90343778  0.69936983  0.49917548  1
  Zr  Zr10  1  0.49725907  0.50425058  0.70337654  1
  Zr  Zr11  1  0.90041842  0.51015919  0.90017297  1
  Zr  Zr12  1  0.51290585  0.89844466  0.70619414  1
  Zr  Zr13  1  0.49600616  0.30017225  0.28701222  1
  Zr  Zr14  1  0.30305129  0.89242330  0.30263153  1
  Zr  Zr15  1  0.10163100  0.90389775  0.89454562  1
  Zr  Zr16  1  0.09658790  0.90471623  0.09518840  1
  Zr  Zr17  1  0.29929501  0.10931532  0.50513642  1
  Zr  Zr18  1  0.89422923  0.30227709  0.30712355  1
  Zr  Zr19  1  0.70115460  0.30114970  0.49477595  1
  Zr  Zr20  1  0.70318724  0.70410711  0.30306378  1
  Zr  Zr21  1  0.08819232  0.90421577  0.70429599  1
  Zr  Zr22  1  0.49768384  0.69692302  0.90389657  1
  Zr  Zr23  1  0.10534061  0.71544225  0.69728089  1
  Zr  Zr24  1  0.09719818  0.49952648  0.09832885  1
  Zr  Zr25  1  0.69676931  0.69731731  0.09976186  1
  Zr  Zr26  1  0.10469389  0.30049126  0.69908265  1
  Zr  Zr27  1  0.49328993  0.50038630  0.09885021  1
  Zr  Zr28  1  0.51752102  0.69479790  0.49997288  1
  Zr  Zr29  1  0.29477380  0.30168420  0.89841936  1
  Zr  Zr30  1  0.50204433  0.89394418  0.29199560  1
  Zr  Zr31  1  0.70037939  0.09957582  0.49826673  1
  Zr  Zr32  1  0.70939197  0.09114931  0.30324764  1
  Zr  Zr33  1  0.90134927  0.69930868  0.30213659  1
  Zr  Zr34  1  0.90589493  0.49665855  0.30111600  1
  Zr  Zr35  1  0.29595803  0.30146923  0.50279802  1
  Zr  Zr36  1  0.90552045  0.29935031  0.50046223  1
  Zr  Zr37  1  0.10552159  0.70000387  0.30478231  1
  Zr  Zr38  1  0.90306011  0.09813198  0.49791266  1
  Zr  Zr39  1  0.70258446  0.89993814  0.10434609  1
  Zr  Zr40  1  0.49633579  0.10058124  0.28898546  1
  Zr  Zr41  1  0.68584772  0.70398383  0.70475648  1
  Zr  Zr42  1  0.09609820  0.89719445  0.28386376  1
  Zr  Zr43  1  0.70328154  0.09483182  0.09738652  1
  Zr  Zr44  1  0.90904001  0.29162515  0.89892206  1
  Zr  Zr45  1  0.71279348  0.49696379  0.29098727  1
  Zr  Zr46  1  0.90552703  0.49868805  0.49815044  1
  Zr  Zr47  1  0.10116076  0.90322605  0.52107491  1
  Zr  Zr48  1  0.89154484  0.89779698  0.29667427  1
  Zr  Zr49  1  0.89955231  0.70097330  0.71180614  1
  Sc  Sc50  1  0.10243268  0.69358792  0.88839549  1
  Sc  Sc51  1  0.69452339  0.10181285  0.70409067  1
  Sc  Sc52  1  0.89405032  0.69932987  0.09944256  1
  Sc  Sc53  1  0.49754075  0.91506896  0.90338833  1
  Sc  Sc54  1  0.71256665  0.29128725  0.90437986  1
  Sc  Sc55  1  0.49578821  0.31384973  0.70043524  1
  Sc  Sc56  1  0.90481177  0.09509845  0.08599834  1
  Sc  Sc57  1  0.48322734  0.49974915  0.29784340  1
  Sc  Sc58  1  0.70705817  0.69478789  0.89977038  1
  Sc  Sc59  1  0.89343791  0.90267445  0.88802308  1
  Sc  Sc60  1  0.70838868  0.09514665  0.90374349  1
  Sc  Sc61  1  0.29448347  0.10924267  0.29519841  1
  Sc  Sc62  1  0.30655009  0.89751003  0.10244353  1
  Sc  Sc63  1  0.29421346  0.09770298  0.90309426  1
  Sc  Sc64  1  0.89951917  0.89915832  0.10213753  1
  Sc  Sc65  1  0.30031625  0.90924005  0.89965653  1
  Sc  Sc66  1  0.49621075  0.09610798  0.50493235  1
  Sc  Sc67  1  0.90459680  0.29964693  0.08808499  1
  Sc  Sc68  1  0.29782338  0.09795771  0.09783760  1
  Sc  Sc69  1  0.10408666  0.49269448  0.69688784  1
  Sc  Sc70  1  0.89890238  0.49776262  0.09671130  1
  Sc  Sc71  1  0.90843084  0.50144106  0.70011929  1
  Sc  Sc72  1  0.49744341  0.49654386  0.89476124  1
  Sc  Sc73  1  0.69302258  0.90217136  0.48940977  1
  Sc  Sc74  1  0.29412002  0.69579208  0.71219643  1
  Sc  Sc75  1  0.70273561  0.30138795  0.29322058  1
  Sc  Sc76  1  0.69090656  0.50700583  0.49782094  1
  Sc  Sc77  1  0.09998729  0.70763866  0.11171468  1
  Sc  Sc78  1  0.29703618  0.30057986  0.69553467  1
  Sc  Sc79  1  0.30084449  0.49241490  0.70656612  1
  Sc  Sc80  1  0.29476555  0.70724095  0.48476953  1
  Sc  Sc81  1  0.49418420  0.70258745  0.09915408  1
  Sc  Sc82  1  0.29816160  0.10309810  0.70164454  1
  Sc  Sc83  1  0.10694611  0.29997609  0.30624313  1
  Sc  Sc84  1  0.90896413  0.89998859  0.50067992  1
  Sc  Sc85  1  0.30167524  0.49341162  0.48837562  1
  Sc  Sc86  1  0.90202186  0.10247967  0.70994564  1
  Sc  Sc87  1  0.49480432  0.49867183  0.49777216  1
  Sc  Sc88  1  0.30110987  0.69813654  0.29358412  1
  Sc  Sc89  1  0.49795163  0.09764573  0.69458224  1
  Sc  Sc90  1  0.68902721  0.30179159  0.70323767  1
  Sc  Sc91  1  0.09581131  0.30276758  0.09037021  1
  Sc  Sc92  1  0.10227253  0.49455679  0.49566172  1
  Sc  Sc93  1  0.30184921  0.90431157  0.49843647  1
  Sc  Sc94  1  0.30591642  0.30467141  0.09398821  1
  Sc  Sc95  1  0.10329621  0.49655783  0.89970785  1
  Sc  Sc96  1  0.29858766  0.69198456  0.89891368  1
  Sc  Sc97  1  0.10203514  0.09329840  0.09905330  1
  Sc  Sc98  1  0.90160522  0.09332500  0.31158779  1
  Sc  Sc99  1  0.30165906  0.29954289  0.30474680  1
  Nb  Nb100  1  0.70378149  0.89977646  0.29227496  1
  Nb  Nb101  1  0.69667202  0.29966498  0.10268600  1
  Nb  Nb102  1  0.30272275  0.50586339  0.10511529  1
  Nb  Nb103  1  0.89654915  0.11366878  0.90390716  1
  Nb  Nb104  1  0.10643517  0.50081808  0.30126602  1
  Nb  Nb105  1  0.69376053  0.89563346  0.89372609  1
  Nb  Nb106  1  0.90522329  0.69909944  0.89884914  1
  Nb  Nb107  1  0.09838248  0.10190301  0.49920272  1
  Nb  Nb108  1  0.89621140  0.89742134  0.69777159  1
  Nb  Nb109  1  0.49544200  0.10088767  0.90769066  1
  Nb  Nb110  1  0.49477944  0.30404550  0.90726838  1
  Nb  Nb111  1  0.69754784  0.50007237  0.09571020  1
  Nb  Nb112  1  0.10838997  0.29429359  0.50747851  1
  Nb  Nb113  1  0.50564255  0.69881435  0.29334805  1
  Nb  Nb114  1  0.50151314  0.09194343  0.09273515  1
  Nb  Nb115  1  0.29515991  0.50056935  0.29725961  1
  Nb  Nb116  1  0.70229184  0.69750915  0.50510205  1
  Nb  Nb117  1  0.70635304  0.89584999  0.71445494  1
  Nb  Nb118  1  0.69866770  0.49630043  0.90664384  1
  Nb  Nb119  1  0.49902165  0.70079811  0.70084994  1
  Nb  Nb120  1  0.50257588  0.29984379  0.09907963  1
  Nb  Nb121  1  0.10282903  0.29799989  0.89707165  1
  Nb  Nb122  1  0.50375364  0.90419902  0.09802698  1
  Nb  Nb123  1  0.10185290  0.10080424  0.29981376  1
  Nb  Nb124  1  0.10673173  0.09226935  0.69313513  1
  Nb  Nb125  1  -0.00104413  0.19824169  0.20476543  1
  Nb  Nb126  1  0.58783921  0.20154370  0.81528042  1
  Nb  Nb127  1  0.79967651  -0.00545940  0.60703241  1
  Nb  Nb128  1  0.79991663  0.20099063  0.59953148  1
  Nb  Nb129  1  0.20230018  0.40834339  0.20007148  1
  Nb  Nb130  1  0.40386273  0.79383931  0.60561651  1
  Nb  Nb131  1  0.79936320  0.40279345  0.60332166  1
  Nb  Nb132  1  0.60125650  0.59797758  0.19878536  1
  Nb  Nb133  1  0.40573718  0.20169530  0.80889993  1
  Nb  Nb134  1  0.00227276  0.59573737  0.20674701  1
  Nb  Nb135  1  0.79543574  0.60379512  0.60369974  1
  Nb  Nb136  1  0.59313763  0.20085277  0.00480934  1
  Nb  Nb137  1  0.60256436  0.39450204  0.00445051  1
  Nb  Nb138  1  0.80026942  0.40367804  0.80209029  1
  Nb  Nb139  1  0.19073623  0.00649222  0.39884565  1
  Nb  Nb140  1  0.59615247  0.39515141  0.39287373  1
  Nb  Nb141  1  0.59641786  0.20243286  0.39487985  1
  Nb  Nb142  1  0.40423939  0.80226763  0.79491871  1
  Nb  Nb143  1  0.79434762  0.80012354  0.60443631  1
  Nb  Nb144  1  0.39710901  0.60838627  0.60079070  1
  Nb  Nb145  1  -0.00028688  0.79784251  -0.00861722  1
  Nb  Nb146  1  0.80616136  0.19806978  0.19605836  1
  Nb  Nb147  1  0.60000700  0.80895957  0.00073936  1
  Nb  Nb148  1  0.20580156  0.60098671  0.59681360  1
  Nb  Nb149  1  0.19622009  0.80076757  -0.00058312  1
  Pd  Pd150  1  0.39903589  0.80979249  -0.00958034  1
  Pd  Pd151  1  0.39365572  -0.00927626  0.60944387  1
  Pd  Pd152  1  0.40524514  0.19611166  0.39914425  1
  Pd  Pd153  1  0.59997690  0.40652950  0.59253196  1
  Pd  Pd154  1  -0.00119257  0.19447677  0.60622317  1
  Pd  Pd155  1  0.19599796  0.19992515  0.00525743  1
  Pd  Pd156  1  0.59877860  0.20131680  0.60061371  1
  Pd  Pd157  1  0.00743471  0.20515000  0.39515119  1
  Pd  Pd158  1  0.01151222  0.39265909  0.40352044  1
  Pd  Pd159  1  0.60105910  -0.00019823  0.20188628  1
  Pd  Pd160  1  -0.00915958  0.01056461  0.19946045  1
  Pd  Pd161  1  0.19300444  0.60786778  0.00264178  1
  Pd  Pd162  1  0.39022443  0.01057564  0.39429651  1
  Pd  Pd163  1  0.20154925  0.40216771  0.00527168  1
  Pd  Pd164  1  0.60907765  -0.00752852  0.60288329  1
  Pd  Pd165  1  0.39356652  0.00003766  0.19812410  1
  Pd  Pd166  1  0.60122120  0.01206957  0.80666321  1
  Pd  Pd167  1  0.79835771  0.80568406  0.40925192  1
  Pd  Pd168  1  0.60783286  0.19158487  0.19859557  1
  Pd  Pd169  1  0.00607081  0.39546597  0.20072689  1
  Pd  Pd170  1  0.80036688  0.39688243  -0.00299573  1
  Pd  Pd171  1  0.01361649  0.19345577  0.79465901  1
  Pd  Pd172  1  0.00796709  -0.01026939  0.39853335  1
  Pd  Pd173  1  0.80461917  -0.00909711  -0.00581968  1
  Pd  Pd174  1  -0.00586807  0.00740954  0.80337236  1
  Pd  Pd175  1  0.79841748  0.59570494  0.40624144  1
  Pd  Pd176  1  0.01168992  0.59652469  0.79211495  1
  Pd  Pd177  1  0.80080253  0.80458223  -0.00806718  1
  Pd  Pd178  1  0.80082904  0.60087739  0.00192401  1
  Pd  Pd179  1  0.00625473  0.61036201  0.00895338  1
  Pd  Pd180  1  0.39380125  0.20028923  0.18756916  1
  Pd  Pd181  1  0.59322879  0.00452512  0.39142304  1
  Pd  Pd182  1  0.59913527  0.58777881  0.38479322  1
  Pd  Pd183  1  0.00747119  0.81014197  0.40006787  1
  Pd  Pd184  1  0.80911244  0.39238197  0.18736515  1
  Pd  Pd185  1  0.39778797  0.60743637  0.40190262  1
  Pd  Pd186  1  0.20866233  -0.00298994  0.20364549  1
  Pd  Pd187  1  0.41074158  0.78942198  0.40200175  1
  Pd  Pd188  1  0.39750476  0.19638100  0.00182866  1
  Pd  Pd189  1  -0.00114497  0.40421779  0.80500846  1
  Pd  Pd190  1  0.19304779  0.21197338  0.19175870  1
  Pd  Pd191  1  0.80086979  0.00796715  0.79915309  1
  Pd  Pd192  1  0.59682273  0.41012917  0.20043841  1
  Pd  Pd193  1  0.18895953  0.81581123  0.40395083  1
  Pd  Pd194  1  0.59812669  0.60183721  0.81153807  1
  Pd  Pd195  1  0.60305599  0.80997675  0.59632016  1
  Pd  Pd196  1  0.19626545  0.59961827  0.19745735  1
  Pd  Pd197  1  0.00572246  0.60065780  0.60636735  1
  Pd  Pd198  1  0.60126079  0.80214106  0.39665970  1
  Pd  Pd199  1  0.39612959  0.00245090  0.79328807  1
  Rh  Rh200  1  0.40264886  0.20475685  0.61249850  1
  Rh  Rh201  1  0.59873643  0.79446504  0.19302015  1
  Rh  Rh202  1  0.79082277  0.20471213  0.79200753  1
  Rh  Rh203  1  0.19764394  0.19613840  0.40374372  1
  Rh  Rh204  1  0.80303533  -0.01152303  0.40845132  1
  Rh  Rh205  1  0.19785428  0.00775903  0.79895211  1
  Rh  Rh206  1  0.20966279  0.80065765  0.19180829  1
  Rh  Rh207  1  0.20184607  0.40672061  0.59421743  1
  Rh  Rh208  1  0.59752167  0.59689549  0.00367689  1
  Rh  Rh209  1  0.20144034  0.59592581  0.40591525  1
  Rh  Rh210  1  0.00018770  0.40055283  -0.01204431  1
  Rh  Rh211  1  0.39326962  0.39305076  0.80153660  1
  Rh  Rh212  1  0.80744351  0.00651101  0.19840738  1
  Rh  Rh213  1  0.40397055  0.60526723  0.20392944  1
  Rh  Rh214  1  -0.00307810  0.80139792  0.80523088  1
  Rh  Rh215  1  0.20038872  0.39692035  0.39677028  1
  Rh  Rh216  1  0.79320374  0.19894984  0.39790329  1
  Rh  Rh217  1  0.40116268  0.39570647  0.39481811  1
  Rh  Rh218  1  0.40126349  0.40634236  0.00167480  1
  Rh  Rh219  1  0.20584222  0.00777786  0.59327279  1
  Rh  Rh220  1  0.59804333  0.59346009  0.60354777  1
  Rh  Rh221  1  -0.01032754  0.79162966  0.19317490  1
  Rh  Rh222  1  0.39635652  0.41032633  0.60124392  1
  Rh  Rh223  1  0.79617938  0.20102611  0.01007716  1
  Rh  Rh224  1  0.80159530  0.60028871  0.19457695  1
  Rh  Rh225  1  0.20150281  0.19763175  0.79767511  1
  Rh  Rh226  1  0.19914552  0.39738178  0.80214225  1
  Rh  Rh227  1  0.79982997  0.79609958  0.20017573  1
  Rh  Rh228  1  0.39514043  -0.00036069  0.00659653  1
  Rh  Rh229  1  0.00188989  0.39657393  0.59572936  1
  Rh  Rh230  1  0.79742950  0.59513053  0.79999197  1
  Rh  Rh231  1  0.79162109  0.40987351  0.41061520  1
  Rh  Rh232  1  0.19652895  0.59111420  0.79053884  1
  Rh  Rh233  1  0.00595969  0.59656245  0.39348721  1
  Rh  Rh234  1  0.21019394  0.80167935  0.81479172  1
  Rh  Rh235  1  0.00870791  0.19561814  0.00422350  1
  Rh  Rh236  1  0.59166477  0.79733110  0.81516326  1
  Rh  Rh237  1  0.19728449  0.19620315  0.60517000  1
  Rh  Rh238  1  0.20412744  -0.00674719  0.00386113  1
  Rh  Rh239  1  0.61101633  0.38826650  0.81888532  1
  Rh  Rh240  1  0.60452876  -0.00154530  -0.00307321  1
  Rh  Rh241  1  -0.00967506  0.79601498  0.60435622  1
  Rh  Rh242  1  0.80024195  0.79356273  0.80301896  1
  Rh  Rh243  1  0.40144696  0.59350566  -0.00444950  1
  Rh  Rh244  1  0.38831041  0.39744117  0.19724144  1
  Rh  Rh245  1  0.40370236  0.79773279  0.19954113  1
  Rh  Rh246  1  0.39954387  0.60347905  0.79762583  1
  Rh  Rh247  1  0.21129942  0.79066491  0.59266041  1
  Rh  Rh248  1  -0.00842160  0.00941022  0.60724017  1
  Rh  Rh249  1  -0.00773760  -0.00500409  -0.01143915  1
