# generated using pymatgen
data_ZrScNbPdRh
_symmetry_space_group_name_H-M   'P 1'
_cell_length_a   16.55244438
_cell_length_b   16.55305930
_cell_length_c   16.54998960
_cell_angle_alpha   89.99688820
_cell_angle_beta   90.02651352
_cell_angle_gamma   90.00626333
_symmetry_Int_Tables_number   1
_chemical_formula_structural   ZrScNbPdRh
_chemical_formula_sum   'Zr50 Sc50 Nb50 Pd50 Rh50'
_cell_volume   4534.59060153
_cell_formula_units_Z   50
loop_
 _symmetry_equiv_pos_site_id
 _symmetry_equiv_pos_as_xyz
  1  'x, y, z'
loop_
 _atom_site_type_symbol
 _atom_site_label
 _atom_site_symmetry_multiplicity
 _atom_site_fract_x
 _atom_site_fract_y
 _atom_site_fract_z
 _atom_site_occupancy
  Zr  Zr0  1  0.30131288  0.70156801  0.10134308  1
  Zr  Zr1  1  0.29461741  0.90066278  0.48993918  1
  Zr  Zr2  1  0.69992490  0.30486339  0.30491299  1
  Zr  Zr3  1  0.49856205  0.09671648  0.09825083  1
  Zr  Zr4  1  0.89802280  0.30433057  0.70434301  1
  Zr  Zr5  1  0.10393570  0.50358067  0.69848725  1
  Zr  Zr6  1  0.69750625  0.10377884  0.89482406  1
  Zr  Zr7  1  0.49171195  0.89780875  0.11107462  1
  Zr  Zr8  1  0.30150368  0.49647210  0.89699048  1
  Zr  Zr9  1  0.49755922  0.09872419  0.89650084  1
  Zr  Zr10  1  0.69699712  0.10283472  0.70431320  1
  Zr  Zr11  1  0.89726210  0.10294984  0.90534851  1
  Zr  Zr12  1  0.29670241  0.89987560  0.89651852  1
  Zr  Zr13  1  0.29940238  0.50569445  0.30730766  1
  Zr  Zr14  1  0.90101781  0.90693252  0.90147179  1
  Zr  Zr15  1  0.69776779  0.49916964  0.29783740  1
  Zr  Zr16  1  0.90345649  0.69564516  0.29885452  1
  Zr  Zr17  1  0.29767460  0.29727185  0.50435010  1
  Zr  Zr18  1  0.09567973  0.09992043  0.29663595  1
  Zr  Zr19  1  0.90326067  0.88748632  0.49979412  1
  Zr  Zr20  1  0.90157669  0.50116499  0.50317070  1
  Zr  Zr21  1  0.10319139  0.69834408  0.10290473  1
  Zr  Zr22  1  0.30648591  0.30227154  0.89908026  1
  Zr  Zr23  1  0.10477718  0.69910857  0.69624949  1
  Zr  Zr24  1  0.49820106  0.30372715  0.90236044  1
  Zr  Zr25  1  0.10356237  0.89779585  0.89730591  1
  Zr  Zr26  1  0.09821749  0.50332812  0.89622608  1
  Zr  Zr27  1  0.09615688  0.89800458  0.69785720  1
  Zr  Zr28  1  0.30216202  0.50443662  0.10025036  1
  Zr  Zr29  1  0.10230185  0.50589982  0.50677668  1
  Zr  Zr30  1  0.49954304  0.69232398  0.89575092  1
  Zr  Zr31  1  0.70445264  0.71006363  0.50159967  1
  Zr  Zr32  1  0.49868308  0.30425231  0.70299399  1
  Zr  Zr33  1  0.69612350  0.89122679  0.30413446  1
  Zr  Zr34  1  0.09590090  0.89931486  0.10425289  1
  Zr  Zr35  1  0.90325316  0.11270878  0.49583498  1
  Zr  Zr36  1  0.90210179  0.30595494  0.89464122  1
  Zr  Zr37  1  0.89579517  0.30721094  0.49853074  1
  Zr  Zr38  1  0.69964072  0.09973502  0.50069589  1
  Zr  Zr39  1  0.90537046  0.49864907  0.69673632  1
  Zr  Zr40  1  0.30269581  0.09458797  0.09362861  1
  Zr  Zr41  1  0.90492267  0.10226161  0.70712197  1
  Zr  Zr42  1  0.09551251  0.49346855  0.09674050  1
  Zr  Zr43  1  0.70737392  0.69889809  0.89720539  1
  Zr  Zr44  1  0.30622490  0.89398117  0.29580978  1
  Zr  Zr45  1  0.09729829  0.09804353  0.69822653  1
  Zr  Zr46  1  0.69806514  0.89552794  0.49655974  1
  Zr  Zr47  1  0.29126636  0.29671745  0.09576849  1
  Zr  Zr48  1  0.88690763  0.69525393  0.69574372  1
  Zr  Zr49  1  0.90734671  0.30564780  0.10427649  1
  Sc  Sc50  1  0.49804083  0.49657323  0.90436568  1
  Sc  Sc51  1  0.49568861  0.09374780  0.50012087  1
  Sc  Sc52  1  0.50287619  0.70061850  0.29775021  1
  Sc  Sc53  1  0.48168600  0.90164706  0.70288771  1
  Sc  Sc54  1  0.71025183  0.90128814  0.89516576  1
  Sc  Sc55  1  0.30598927  0.30279939  0.29848196  1
  Sc  Sc56  1  0.49864662  0.89712784  0.30460418  1
  Sc  Sc57  1  0.90640463  0.50507888  0.89705041  1
  Sc  Sc58  1  0.29681123  0.70365822  0.69483177  1
  Sc  Sc59  1  0.69860733  0.29859473  0.50161073  1
  Sc  Sc60  1  0.49545398  0.50309325  0.49796030  1
  Sc  Sc61  1  0.10645293  0.88815050  0.30610007  1
  Sc  Sc62  1  0.29282570  0.70251728  0.89740737  1
  Sc  Sc63  1  0.69939103  0.10113728  0.31151191  1
  Sc  Sc64  1  0.69866986  0.49505559  0.49791240  1
  Sc  Sc65  1  0.49896546  0.89313542  0.49612323  1
  Sc  Sc66  1  0.89565017  0.50237365  0.30294198  1
  Sc  Sc67  1  0.08953466  0.30036716  0.50245964  1
  Sc  Sc68  1  0.70133785  0.29687895  0.89625386  1
  Sc  Sc69  1  0.69984511  0.69920131  0.29702582  1
  Sc  Sc70  1  0.09948800  0.09363853  0.90100574  1
  Sc  Sc71  1  0.48785653  0.70438670  0.69602738  1
  Sc  Sc72  1  0.70228402  0.50104642  0.70047478  1
  Sc  Sc73  1  0.70173758  0.50678119  0.10603605  1
  Sc  Sc74  1  0.49821184  0.50178886  0.09690831  1
  Sc  Sc75  1  0.30603327  0.09779325  0.49782043  1
  Sc  Sc76  1  0.90074673  0.69450504  0.49855127  1
  Sc  Sc77  1  0.91326956  0.89009926  0.29287820  1
  Sc  Sc78  1  0.30276837  0.69127654  0.50020498  1
  Sc  Sc79  1  0.09913605  0.50875923  0.29626423  1
  Sc  Sc80  1  0.50152615  0.29905623  0.49715006  1
  Sc  Sc81  1  0.90289765  0.50610316  0.10761548  1
  Sc  Sc82  1  0.69539356  0.30379940  0.69943262  1
  Sc  Sc83  1  0.29298070  0.69669692  0.29845834  1
  Sc  Sc84  1  0.70486695  0.10522215  0.08775488  1
  Sc  Sc85  1  0.10308978  0.30687928  0.90795058  1
  Sc  Sc86  1  0.69760181  0.30699491  0.09941926  1
  Sc  Sc87  1  0.49817749  0.09434902  0.31035935  1
  Sc  Sc88  1  0.10066818  0.30447446  0.69638177  1
  Sc  Sc89  1  0.90842331  0.29660252  0.30924745  1
  Sc  Sc90  1  0.30696280  0.09426704  0.30944864  1
  Sc  Sc91  1  0.10192032  0.10296249  0.10361847  1
  Sc  Sc92  1  0.50720690  0.49994015  0.70138794  1
  Sc  Sc93  1  0.50014519  0.49286585  0.29839251  1
  Sc  Sc94  1  0.10196604  0.69980509  0.29861605  1
  Sc  Sc95  1  0.30812220  0.09758041  0.69022453  1
  Sc  Sc96  1  0.49925056  0.09783249  0.70211966  1
  Sc  Sc97  1  0.69671056  0.50535342  0.89575730  1
  Sc  Sc98  1  0.10391158  0.69673904  0.89950568  1
  Sc  Sc99  1  0.88996222  0.69996663  0.10394209  1
  Nb  Nb100  1  0.10645629  0.29628528  0.29384556  1
  Nb  Nb101  1  0.89697848  0.70829082  0.89882378  1
  Nb  Nb102  1  0.90310730  0.90734691  0.09830472  1
  Nb  Nb103  1  0.90886682  0.09417868  0.10480744  1
  Nb  Nb104  1  0.10223705  0.09663168  0.49793061  1
  Nb  Nb105  1  0.69269142  0.70815936  0.10190136  1
  Nb  Nb106  1  0.50006982  0.70040265  0.09409902  1
  Nb  Nb107  1  0.29525665  0.50075943  0.69343080  1
  Nb  Nb108  1  0.90326956  0.09836563  0.29785158  1
  Nb  Nb109  1  0.10053697  0.89642213  0.49761922  1
  Nb  Nb110  1  0.29982863  0.89727976  0.10203382  1
  Nb  Nb111  1  0.70660609  0.89359579  0.69611074  1
  Nb  Nb112  1  0.49894020  0.89287433  0.89683071  1
  Nb  Nb113  1  0.10372526  0.70933897  0.50003531  1
  Nb  Nb114  1  0.29980300  0.30504206  0.70054114  1
  Nb  Nb115  1  0.29854643  0.50055265  0.50332067  1
  Nb  Nb116  1  0.89836428  0.90148486  0.70170318  1
  Nb  Nb117  1  0.29245130  0.89685991  0.69755784  1
  Nb  Nb118  1  0.10026275  0.29727581  0.10843598  1
  Nb  Nb119  1  0.29502225  0.10723576  0.90559582  1
  Nb  Nb120  1  0.50186214  0.30453526  0.10371024  1
  Nb  Nb121  1  0.50203464  0.29782703  0.29318584  1
  Nb  Nb122  1  0.69633479  0.70092058  0.69979143  1
  Nb  Nb123  1  0.50276481  0.69732569  0.50531962  1
  Nb  Nb124  1  0.69857748  0.89672691  0.10439229  1
  Nb  Nb125  1  0.60211256  0.80038796  0.79817638  1
  Nb  Nb126  1  -0.00884569  0.79935872  0.80037459  1
  Nb  Nb127  1  0.80219992  -0.00289786  0.59964371  1
  Nb  Nb128  1  -0.00010935  0.20227377  0.00838944  1
  Nb  Nb129  1  0.39422753  0.59504563  0.79500449  1
  Nb  Nb130  1  0.60846893  0.00205584  0.19628937  1
  Nb  Nb131  1  -0.00675765  0.80136156  -0.00154977  1
  Nb  Nb132  1  0.40764263  0.20246727  0.19788502  1
  Nb  Nb133  1  0.19869827  0.39875486  0.40217813  1
  Nb  Nb134  1  0.40322588  0.80002577  0.00096029  1
  Nb  Nb135  1  0.19487245  0.20336040  0.39926971  1
  Nb  Nb136  1  0.00181416  -0.00071926  0.40349454  1
  Nb  Nb137  1  0.20554071  -0.00495440  0.20072639  1
  Nb  Nb138  1  0.59788978  -0.01042560  -0.00030917  1
  Nb  Nb139  1  0.60720893  -0.00802321  0.60523481  1
  Nb  Nb140  1  0.80538949  0.40328067  -0.00048726  1
  Nb  Nb141  1  0.59937163  0.19911429  0.20070892  1
  Nb  Nb142  1  0.19530923  -0.00597829  0.59453918  1
  Nb  Nb143  1  0.80256703  0.00042152  0.20038263  1
  Nb  Nb144  1  0.20895549  0.19977820  0.79995243  1
  Nb  Nb145  1  0.59929658  0.80143038  -0.00018362  1
  Nb  Nb146  1  0.81014854  -0.00242327  0.39865418  1
  Nb  Nb147  1  0.39245039  0.40263597  0.60337200  1
  Nb  Nb148  1  0.60035084  0.60959455  0.59882020  1
  Nb  Nb149  1  0.80315407  0.19381477  0.20173007  1
  Pd  Pd150  1  -0.00044798  0.20599744  0.60159986  1
  Pd  Pd151  1  0.19598649  0.39465834  0.79814768  1
  Pd  Pd152  1  0.79470131  0.59998802  0.40273439  1
  Pd  Pd153  1  0.59520631  0.40053912  0.40413148  1
  Pd  Pd154  1  -0.00201495  0.60980650  0.79746844  1
  Pd  Pd155  1  0.01441276  0.20501546  0.81012542  1
  Pd  Pd156  1  0.60903749  0.40599538  0.00064504  1
  Pd  Pd157  1  0.40273271  -0.00873279  -0.00819276  1
  Pd  Pd158  1  0.39556310  0.19576615  0.79620950  1
  Pd  Pd159  1  0.00934099  0.40399614  0.39444032  1
  Pd  Pd160  1  0.80068498  0.19948433  0.60666336  1
  Pd  Pd161  1  0.39013192  0.00308799  0.80238474  1
  Pd  Pd162  1  -0.00705587  0.60984157  0.00411928  1
  Pd  Pd163  1  0.79982092  0.80338048  0.00551177  1
  Pd  Pd164  1  0.20194117  0.40710840  0.20668878  1
  Pd  Pd165  1  0.79345519  -0.00146567  0.00542059  1
  Pd  Pd166  1  0.19434167  -0.00165595  0.00612093  1
  Pd  Pd167  1  0.59488799  0.19948579  0.39831913  1
  Pd  Pd168  1  0.80439472  0.80373336  0.20235317  1
  Pd  Pd169  1  0.40614619  0.60215783  0.20535424  1
  Pd  Pd170  1  0.39884784  0.78888666  0.39982038  1
  Pd  Pd171  1  0.59729084  0.20002235  0.00123830  1
  Pd  Pd172  1  0.59935944  -0.01190718  0.79781814  1
  Pd  Pd173  1  0.80194798  0.39515035  0.19911548  1
  Pd  Pd174  1  0.60435701  0.40075964  0.80413872  1
  Pd  Pd175  1  -0.00232802  -0.00032553  0.59242721  1
  Pd  Pd176  1  0.40470043  0.20566045  0.00486115  1
  Pd  Pd177  1  0.40423541  0.60426670  0.39728746  1
  Pd  Pd178  1  0.59472882  0.59850501  0.19808637  1
  Pd  Pd179  1  0.40728789  0.20509183  0.60003318  1
  Pd  Pd180  1  0.20210058  0.59870786  -0.00073501  1
  Pd  Pd181  1  -0.00022969  0.40395875  0.21225886  1
  Pd  Pd182  1  0.80840859  0.20950510  0.00815869  1
  Pd  Pd183  1  0.79282928  0.40224433  0.60086391  1
  Pd  Pd184  1  0.20026529  0.40209788  0.00007486  1
  Pd  Pd185  1  0.60557452  0.60061715  0.00319883  1
  Pd  Pd186  1  0.80195188  0.59318920  0.80006864  1
  Pd  Pd187  1  0.20813599  0.00950893  0.79071311  1
  Pd  Pd188  1  0.80046560  0.00291673  0.79533847  1
  Pd  Pd189  1  0.00650794  0.60410193  0.40261290  1
  Pd  Pd190  1  0.59081719  0.80301259  0.60934151  1
  Pd  Pd191  1  0.39619747  0.39859718  0.19530556  1
  Pd  Pd192  1  0.21442184  0.18872412  0.20875569  1
  Pd  Pd193  1  0.59195167  0.19332307  0.60067360  1
  Pd  Pd194  1  -0.00510625  0.79045882  0.60530248  1
  Pd  Pd195  1  0.80175826  0.59509494  0.00293879  1
  Pd  Pd196  1  0.19856017  0.19307789  0.60051199  1
  Pd  Pd197  1  0.39766235  0.39550845  0.40599697  1
  Pd  Pd198  1  0.39189099  0.80409786  0.59212347  1
  Pd  Pd199  1  0.60061385  0.60319369  0.40524271  1
  Rh  Rh200  1  0.00713508  0.40264005  0.79746000  1
  Rh  Rh201  1  0.40631440  -0.00731146  0.40378589  1
  Rh  Rh202  1  0.60320357  -0.00309940  0.40314943  1
  Rh  Rh203  1  0.59175547  0.40848133  0.59564616  1
  Rh  Rh204  1  0.20549247  0.80360908  0.59256863  1
  Rh  Rh205  1  0.80054610  0.40106151  0.40007244  1
  Rh  Rh206  1  -0.00347422  0.39788004  0.00056182  1
  Rh  Rh207  1  0.00310327  0.79592876  0.39991553  1
  Rh  Rh208  1  0.59477557  0.20637132  0.80070577  1
  Rh  Rh209  1  0.79746525  0.40410887  0.80646021  1
  Rh  Rh210  1  0.00526812  0.00268889  -0.00074617  1
  Rh  Rh211  1  0.39793179  0.00685639  0.20739246  1
  Rh  Rh212  1  -0.00114312  0.79262614  0.19088807  1
  Rh  Rh213  1  0.39737833  -0.00793315  0.59568852  1
  Rh  Rh214  1  0.40022705  0.78976043  0.19897746  1
  Rh  Rh215  1  -0.00066790  0.39903730  0.60277925  1
  Rh  Rh216  1  0.78912732  0.59562444  0.59523999  1
  Rh  Rh217  1  0.00023212  0.60245113  0.19770773  1
  Rh  Rh218  1  0.20186520  0.39970457  0.59372942  1
  Rh  Rh219  1  0.20037306  0.60750443  0.59561972  1
  Rh  Rh220  1  0.19602736  0.59806379  0.40577456  1
  Rh  Rh221  1  0.19377839  0.79745497  0.79688699  1
  Rh  Rh222  1  0.20706448  0.60048232  0.79746353  1
  Rh  Rh223  1  0.60047486  0.40038496  0.19818357  1
  Rh  Rh224  1  0.80065823  0.80011120  0.79562841  1
  Rh  Rh225  1  0.40097936  0.40993972  0.79100667  1
  Rh  Rh226  1  0.39682891  0.79179126  0.80658081  1
  Rh  Rh227  1  0.18882475  0.20030056  -0.00650272  1
  Rh  Rh228  1  0.19899792  0.59546764  0.19668022  1
  Rh  Rh229  1  0.59364684  0.79066464  0.39802643  1
  Rh  Rh230  1  -0.00189412  -0.00377755  0.80259690  1
  Rh  Rh231  1  0.19223443  0.00622966  0.39814779  1
  Rh  Rh232  1  -0.00493968  0.20403801  0.19691568  1
  Rh  Rh233  1  0.40630249  0.59137010  0.60557957  1
  Rh  Rh234  1  0.39385818  0.60523751  -0.00919321  1
  Rh  Rh235  1  0.00626865  -0.00613357  0.20797648  1
  Rh  Rh236  1  0.19985772  0.80147654  0.00341457  1
  Rh  Rh237  1  0.80808243  0.79913706  0.39091117  1
  Rh  Rh238  1  0.20311352  0.79035781  0.40070149  1
  Rh  Rh239  1  0.39897027  0.39763145  0.00840709  1
  Rh  Rh240  1  0.80001454  0.20148162  0.39328637  1
  Rh  Rh241  1  0.80494204  0.80143021  0.60193637  1
  Rh  Rh242  1  0.00781986  0.19854379  0.39867445  1
  Rh  Rh243  1  0.79656593  0.20385598  0.79500856  1
  Rh  Rh244  1  0.00207510  0.60596391  0.59771047  1
  Rh  Rh245  1  0.59546071  0.80102233  0.19902953  1
  Rh  Rh246  1  0.79319997  0.60456670  0.20184195  1
  Rh  Rh247  1  0.39658551  0.20372004  0.39375927  1
  Rh  Rh248  1  0.59174213  0.60882232  0.78807190  1
  Rh  Rh249  1  0.20186684  0.80387570  0.20058741  1
