# generated using pymatgen
data_ZrScNbPdRh
_symmetry_space_group_name_H-M   'P 1'
_cell_length_a   16.55433490
_cell_length_b   16.55712918
_cell_length_c   16.56194920
_cell_angle_alpha   89.95541467
_cell_angle_beta   90.00728980
_cell_angle_gamma   89.97982215
_symmetry_Int_Tables_number   1
_chemical_formula_structural   ZrScNbPdRh
_chemical_formula_sum   'Zr50 Sc50 Nb50 Pd50 Rh50'
_cell_volume   4539.50041609
_cell_formula_units_Z   50
loop_
 _symmetry_equiv_pos_site_id
 _symmetry_equiv_pos_as_xyz
  1  'x, y, z'
loop_
 _atom_site_type_symbol
 _atom_site_label
 _atom_site_symmetry_multiplicity
 _atom_site_fract_x
 _atom_site_fract_y
 _atom_site_fract_z
 _atom_site_occupancy
  Zr  Zr0  1  0.09749354  0.49506385  0.30557176  1
  Zr  Zr1  1  0.70421635  0.50637677  0.69207143  1
  Zr  Zr2  1  0.30180043  0.90804460  0.69477477  1
  Zr  Zr3  1  0.50669824  0.90206475  0.09795989  1
  Zr  Zr4  1  0.09168720  0.09942842  0.08801807  1
  Zr  Zr5  1  0.90839183  0.49182715  0.90498351  1
  Zr  Zr6  1  0.69976114  0.09909563  0.10512954  1
  Zr  Zr7  1  0.70008606  0.70311407  0.30147097  1
  Zr  Zr8  1  0.69379932  0.89447695  0.90642771  1
  Zr  Zr9  1  0.89824664  0.50183951  0.29898333  1
  Zr  Zr10  1  0.30179725  0.90879452  0.89755157  1
  Zr  Zr11  1  0.29151607  0.90236689  0.30701001  1
  Zr  Zr12  1  0.29945637  0.68745624  0.10160283  1
  Zr  Zr13  1  0.70069506  0.90282457  0.49533779  1
  Zr  Zr14  1  0.09650401  0.90336601  0.48450325  1
  Zr  Zr15  1  0.30424087  0.09577030  0.29653684  1
  Zr  Zr16  1  0.50344485  0.90182228  0.89615767  1
  Zr  Zr17  1  0.49719039  0.69470387  0.70324800  1
  Zr  Zr18  1  0.49438330  0.90363848  0.69941339  1
  Zr  Zr19  1  0.69728096  0.69744805  0.70550582  1
  Zr  Zr20  1  0.50499104  0.30621370  0.10182132  1
  Zr  Zr21  1  0.09237887  0.70940638  0.49639707  1
  Zr  Zr22  1  0.49888691  0.49988772  0.90415702  1
  Zr  Zr23  1  0.49480066  0.49851026  0.09803603  1
  Zr  Zr24  1  0.70713638  0.49199301  0.30562292  1
  Zr  Zr25  1  0.10134557  0.50185986  0.09987659  1
  Zr  Zr26  1  0.49797269  0.69744531  0.10939857  1
  Zr  Zr27  1  0.89021661  0.30149351  0.30295559  1
  Zr  Zr28  1  0.89819598  0.50537331  0.50167045  1
  Zr  Zr29  1  0.70593384  0.70771211  0.89314938  1
  Zr  Zr30  1  0.30199796  0.50712155  0.70417063  1
  Zr  Zr31  1  0.10278429  0.09805583  0.89779640  1
  Zr  Zr32  1  0.49809138  0.50071753  0.70914262  1
  Zr  Zr33  1  0.70227472  0.69287182  0.50476371  1
  Zr  Zr34  1  0.50316300  0.30700481  0.90311108  1
  Zr  Zr35  1  0.50884727  0.70282400  0.90022548  1
  Zr  Zr36  1  0.10568790  0.29822350  0.10395572  1
  Zr  Zr37  1  0.10324643  0.50322365  0.70403549  1
  Zr  Zr38  1  0.90314592  0.50052648  0.09992963  1
  Zr  Zr39  1  0.28966920  0.30384552  0.29253843  1
  Zr  Zr40  1  0.88880319  0.89480049  0.90149315  1
  Zr  Zr41  1  0.28060070  0.70553465  0.90234451  1
  Zr  Zr42  1  0.10184598  0.70430595  0.28995665  1
  Zr  Zr43  1  0.90035007  0.70102403  0.69689146  1
  Zr  Zr44  1  0.29411033  0.09898998  0.89582223  1
  Zr  Zr45  1  0.90689886  0.10079292  0.90637221  1
  Zr  Zr46  1  0.89429264  0.09488380  0.10215587  1
  Zr  Zr47  1  0.49464336  0.89824863  0.49115930  1
  Zr  Zr48  1  0.30083854  0.70137987  0.29522001  1
  Zr  Zr49  1  0.70267881  0.49621524  0.49487005  1
  Sc  Sc50  1  0.89582163  0.08891900  0.50117432  1
  Sc  Sc51  1  0.29631339  0.50199106  0.50315532  1
  Sc  Sc52  1  0.10447724  0.70361520  0.09385841  1
  Sc  Sc53  1  0.50390855  0.29555890  0.29904979  1
  Sc  Sc54  1  0.50296063  0.28674805  0.69528243  1
  Sc  Sc55  1  0.29335795  0.10040381  0.69572490  1
  Sc  Sc56  1  0.70145029  0.71445766  0.10915083  1
  Sc  Sc57  1  0.69923646  0.09995718  0.69124289  1
  Sc  Sc58  1  0.89788607  0.29885560  0.51382602  1
  Sc  Sc59  1  0.90025759  0.10058557  0.69053588  1
  Sc  Sc60  1  0.50319271  0.10323844  0.30476218  1
  Sc  Sc61  1  0.50110500  0.10314352  0.11026895  1
  Sc  Sc62  1  0.50913032  0.49425368  0.29580358  1
  Sc  Sc63  1  0.50109621  0.09338967  0.89517446  1
  Sc  Sc64  1  0.30139529  0.90399039  0.10587184  1
  Sc  Sc65  1  0.49731195  0.70108763  0.48770227  1
  Sc  Sc66  1  0.70298161  0.50088013  0.89950314  1
  Sc  Sc67  1  0.10180077  0.10354766  0.69482283  1
  Sc  Sc68  1  0.31061717  0.49804542  0.91243363  1
  Sc  Sc69  1  0.69251581  0.90300322  0.30243220  1
  Sc  Sc70  1  0.29636350  0.28890306  0.50610314  1
  Sc  Sc71  1  0.29878750  0.09881710  0.50246906  1
  Sc  Sc72  1  0.49922512  0.10080654  0.69685340  1
  Sc  Sc73  1  0.90874299  0.70803043  0.10558369  1
  Sc  Sc74  1  0.91086416  0.90511911  0.29802485  1
  Sc  Sc75  1  0.49427677  0.90345593  0.30241247  1
  Sc  Sc76  1  0.09824771  0.07410498  0.30364638  1
  Sc  Sc77  1  0.29825377  0.10179592  0.10214643  1
  Sc  Sc78  1  0.09299351  0.49849858  0.50452569  1
  Sc  Sc79  1  0.70248286  0.10003251  0.49350825  1
  Sc  Sc80  1  0.70339796  0.10775728  0.30256116  1
  Sc  Sc81  1  0.89728423  0.90082072  0.68860984  1
  Sc  Sc82  1  0.69610969  0.08893229  0.89350464  1
  Sc  Sc83  1  0.90234719  0.69991909  0.29258582  1
  Sc  Sc84  1  0.89992481  0.30472195  0.08835421  1
  Sc  Sc85  1  0.09289200  0.29882807  0.69616084  1
  Sc  Sc86  1  0.10937864  0.89288818  0.91310259  1
  Sc  Sc87  1  0.70048699  0.49317438  0.10433767  1
  Sc  Sc88  1  0.09611544  0.30325364  0.50760540  1
  Sc  Sc89  1  0.90844701  0.49780765  0.69810382  1
  Sc  Sc90  1  0.30905795  0.69833094  0.49588808  1
  Sc  Sc91  1  0.50422843  0.50308245  0.49087507  1
  Sc  Sc92  1  0.29686791  0.30734508  0.10385527  1
  Sc  Sc93  1  0.69255143  0.30115557  0.09791125  1
  Sc  Sc94  1  0.70307763  0.90259856  0.71109488  1
  Sc  Sc95  1  0.10010614  0.90324839  0.69204110  1
  Sc  Sc96  1  0.09183393  0.29569345  0.90162185  1
  Sc  Sc97  1  0.09441357  0.50325717  0.89680223  1
  Sc  Sc98  1  0.89522763  0.89972902  0.10072644  1
  Sc  Sc99  1  0.70192565  0.29508428  0.49839092  1
  Nb  Nb100  1  0.90274906  0.71224054  0.50535205  1
  Nb  Nb101  1  0.29272615  0.69838237  0.70212144  1
  Nb  Nb102  1  0.09820338  0.29944354  0.30223700  1
  Nb  Nb103  1  0.30211520  0.49852414  0.11013795  1
  Nb  Nb104  1  0.69973061  0.30107341  0.89991396  1
  Nb  Nb105  1  0.09663750  0.89165775  0.10825891  1
  Nb  Nb106  1  0.90098369  0.10493863  0.29753641  1
  Nb  Nb107  1  0.29845107  0.89351942  0.49940293  1
  Nb  Nb108  1  0.30520297  0.30386195  0.89733983  1
  Nb  Nb109  1  0.90500040  0.69927881  0.89875914  1
  Nb  Nb110  1  0.89769323  0.29974045  0.70030492  1
  Nb  Nb111  1  0.70519026  0.29943170  0.69454378  1
  Nb  Nb112  1  0.10649006  0.88980078  0.30108649  1
  Nb  Nb113  1  0.09668235  0.10489764  0.49763016  1
  Nb  Nb114  1  0.30128394  0.30106187  0.69944210  1
  Nb  Nb115  1  0.29403159  0.49543559  0.29850580  1
  Nb  Nb116  1  0.49829325  0.29477871  0.49996476  1
  Nb  Nb117  1  0.89957026  0.30219408  0.89643072  1
  Nb  Nb118  1  0.09486987  0.70112003  0.89327417  1
  Nb  Nb119  1  0.11081981  0.69586047  0.71050429  1
  Nb  Nb120  1  0.70338841  0.90381558  0.09887337  1
  Nb  Nb121  1  0.50083227  0.70574771  0.30080054  1
  Nb  Nb122  1  0.69624354  0.30625820  0.30453201  1
  Nb  Nb123  1  0.50479211  0.11500155  0.50009389  1
  Nb  Nb124  1  0.90545076  0.88849098  0.50200587  1
  Nb  Nb125  1  0.59687469  0.80215647  0.59881110  1
  Nb  Nb126  1  0.39971286  0.79889143  -0.00316674  1
  Nb  Nb127  1  0.00073995  0.19512733  0.39535106  1
  Nb  Nb128  1  0.80658770  0.80065329  0.40557553  1
  Nb  Nb129  1  0.00184354  0.39381484  0.20492629  1
  Nb  Nb130  1  0.80236564  0.60607848  -0.00055052  1
  Nb  Nb131  1  0.39202768  0.79700574  0.80054219  1
  Nb  Nb132  1  0.80019911  0.20658523  0.80125086  1
  Nb  Nb133  1  0.60780513  0.39457156  0.79352198  1
  Nb  Nb134  1  0.00024604  -0.00593958  0.80395172  1
  Nb  Nb135  1  0.20789375  0.39644987  0.80008378  1
  Nb  Nb136  1  0.18924424  0.19631635  0.39562979  1
  Nb  Nb137  1  -0.00136925  0.19871235  0.20722632  1
  Nb  Nb138  1  0.20442394  0.79733925  0.59912827  1
  Nb  Nb139  1  0.60632704  0.60525916  0.00328014  1
  Nb  Nb140  1  0.39414671  0.20464931  0.80397032  1
  Nb  Nb141  1  0.39935946  0.20515604  -0.00577226  1
  Nb  Nb142  1  0.40538381  0.39554283  0.59779152  1
  Nb  Nb143  1  0.59777786  0.39629896  0.60021549  1
  Nb  Nb144  1  0.00263119  0.79825680  0.80168113  1
  Nb  Nb145  1  0.59553587  -0.00443337  0.59098443  1
  Nb  Nb146  1  0.39719440  0.39457701  0.40208108  1
  Nb  Nb147  1  0.19832269  0.59945975  0.39426008  1
  Nb  Nb148  1  0.79634306  0.20233701  -0.01019340  1
  Nb  Nb149  1  0.80117770  0.39231742  0.79813848  1
  Pd  Pd150  1  0.19398766  0.00022574  0.19219844  1
  Pd  Pd151  1  0.00251358  -0.00128328  0.19633551  1
  Pd  Pd152  1  0.38984386  0.61006394  0.81412922  1
  Pd  Pd153  1  0.19692105  0.59132086  -0.00522973  1
  Pd  Pd154  1  0.39982174  0.00722718  0.40601429  1
  Pd  Pd155  1  0.79992471  0.20991524  0.19020013  1
  Pd  Pd156  1  0.39638574  0.58987089  0.39068094  1
  Pd  Pd157  1  0.19933225  -0.00481690  0.00896283  1
  Pd  Pd158  1  0.78791268  0.80440125  0.60236229  1
  Pd  Pd159  1  -0.00028353  -0.01566869  -0.00329440  1
  Pd  Pd160  1  0.40563747  0.01101501  0.58975812  1
  Pd  Pd161  1  0.81053281  0.59008170  0.80467834  1
  Pd  Pd162  1  0.59865712  0.60210685  0.39234174  1
  Pd  Pd163  1  0.20809672  0.20584740  -0.00085678  1
  Pd  Pd164  1  -0.00886610  0.39114400  0.40429473  1
  Pd  Pd165  1  0.00216732  0.00118607  0.59976366  1
  Pd  Pd166  1  0.60117841  0.19920653  0.79780585  1
  Pd  Pd167  1  0.19760302  0.81386540  0.79227369  1
  Pd  Pd168  1  0.60034760  0.00210229  0.20754407  1
  Pd  Pd169  1  0.18640433  0.18201474  0.20791137  1
  Pd  Pd170  1  0.19804816  0.40253506  -0.00816759  1
  Pd  Pd171  1  0.59892452  0.19091717  -0.00196792  1
  Pd  Pd172  1  -0.00003418  0.60867329  0.39770113  1
  Pd  Pd173  1  0.59807103  0.80809448  0.20477467  1
  Pd  Pd174  1  0.20422670  0.39885305  0.60330204  1
  Pd  Pd175  1  0.00445061  0.60397177  0.60388920  1
  Pd  Pd176  1  0.80928015  0.61065106  0.40064774  1
  Pd  Pd177  1  0.39684671  0.80745756  0.19863515  1
  Pd  Pd178  1  0.79578876  -0.00635499  0.21014978  1
  Pd  Pd179  1  0.40354969  0.59037298  0.21333811  1
  Pd  Pd180  1  0.40484642  0.59498923  0.59370258  1
  Pd  Pd181  1  -0.00115406  0.60914458  0.00408198  1
  Pd  Pd182  1  0.80283474  0.79356755  0.00771660  1
  Pd  Pd183  1  0.19613048  0.60933698  0.58767405  1
  Pd  Pd184  1  0.80803119  0.00827378  0.79560796  1
  Pd  Pd185  1  0.79640365  0.60366616  0.19092981  1
  Pd  Pd186  1  0.39901022  0.79161881  0.60370261  1
  Pd  Pd187  1  0.58940292  0.60005997  0.59491119  1
  Pd  Pd188  1  0.40125640  0.20480922  0.19454210  1
  Pd  Pd189  1  0.40298595  0.00626896  0.00628260  1
  Pd  Pd190  1  0.38910479  0.20559157  0.39564125  1
  Pd  Pd191  1  0.80237569  0.39226881  0.19153028  1
  Pd  Pd192  1  0.60772205  0.59633812  0.19925234  1
  Pd  Pd193  1  0.80588613  0.20216726  0.40805969  1
  Pd  Pd194  1  0.19432730  -0.00339405  0.58985794  1
  Pd  Pd195  1  0.20408723  0.39629499  0.41216123  1
  Pd  Pd196  1  0.80752002  -0.00753568  0.39500613  1
  Pd  Pd197  1  0.60051363  0.00739363  0.00269913  1
  Pd  Pd198  1  -0.00487772  0.19281956  0.79341075  1
  Pd  Pd199  1  0.19997672  0.20894173  0.79547144  1
  Rh  Rh200  1  0.01417244  0.79553151  0.61283859  1
  Rh  Rh201  1  0.40341172  0.39112793  0.78784995  1
  Rh  Rh202  1  0.80827124  0.60106631  0.59963636  1
  Rh  Rh203  1  -0.00764947  0.79776335  0.38758060  1
  Rh  Rh204  1  0.60553396  0.79413544  0.40302281  1
  Rh  Rh205  1  0.01057164  0.39398770  0.00575096  1
  Rh  Rh206  1  0.59272829  0.80459204  0.78702500  1
  Rh  Rh207  1  0.00375097  0.39720721  0.79555026  1
  Rh  Rh208  1  0.60434766  0.59124763  0.80989061  1
  Rh  Rh209  1  0.39540534  0.80011268  0.39021680  1
  Rh  Rh210  1  0.19250946  0.40811264  0.19771521  1
  Rh  Rh211  1  0.20725788  0.80462174  0.01305115  1
  Rh  Rh212  1  0.19688689  0.59403659  0.20545220  1
  Rh  Rh213  1  0.20519841  0.80222280  0.19382888  1
  Rh  Rh214  1  0.59880009  0.00150394  0.78799426  1
  Rh  Rh215  1  0.00128994  0.80405079  0.20116730  1
  Rh  Rh216  1  -0.00773598  0.20513804  0.00643589  1
  Rh  Rh217  1  0.20501330  0.58727504  0.81218021  1
  Rh  Rh218  1  0.20438052  0.00480726  0.40592866  1
  Rh  Rh219  1  0.18968493  -0.00219896  0.79746442  1
  Rh  Rh220  1  0.20668873  0.79115183  0.40673828  1
  Rh  Rh221  1  -0.00775476  0.00208965  0.40319319  1
  Rh  Rh222  1  0.40106567  0.40115090  0.20778216  1
  Rh  Rh223  1  0.39576665  0.19890029  0.60744039  1
  Rh  Rh224  1  -0.00272172  0.60585660  0.79621142  1
  Rh  Rh225  1  -0.00341102  0.19737887  0.59439484  1
  Rh  Rh226  1  0.79074012  0.00525641  0.00076954  1
  Rh  Rh227  1  0.60592371  0.20390425  0.20704282  1
  Rh  Rh228  1  0.79321001  -0.00391493  0.59733997  1
  Rh  Rh229  1  -0.00015864  0.80088667  -0.00412057  1
  Rh  Rh230  1  0.59741409  0.79522943  0.01081233  1
  Rh  Rh231  1  0.00524908  0.59515207  0.19727540  1
  Rh  Rh232  1  0.79505695  0.40136950  -0.00541225  1
  Rh  Rh233  1  0.40659784  0.61013146  -0.00077571  1
  Rh  Rh234  1  0.80910903  0.80079380  0.79297221  1
  Rh  Rh235  1  0.59358302  0.01070868  0.40493003  1
  Rh  Rh236  1  0.39529741  0.39408176  0.01261189  1
  Rh  Rh237  1  0.59489619  0.39169940  0.40667467  1
  Rh  Rh238  1  0.79720749  0.40325911  0.60079029  1
  Rh  Rh239  1  0.39691772  0.00727840  0.79610154  1
  Rh  Rh240  1  0.19487778  0.20171906  0.59630849  1
  Rh  Rh241  1  0.40367484  0.00049929  0.20139413  1
  Rh  Rh242  1  -0.00193608  0.40218961  0.60339769  1
  Rh  Rh243  1  0.60353093  0.39857106  0.20355045  1
  Rh  Rh244  1  0.60516305  0.20444910  0.39718798  1
  Rh  Rh245  1  0.80011010  0.19446403  0.60209596  1
  Rh  Rh246  1  0.80437911  0.39521867  0.40996490  1
  Rh  Rh247  1  0.60668873  0.41223575  -0.00444384  1
  Rh  Rh248  1  0.60713262  0.19752911  0.59463876  1
  Rh  Rh249  1  0.80074346  0.81018774  0.20988348  1
