# generated using pymatgen
data_ZrScNbPdRh
_symmetry_space_group_name_H-M   'P 1'
_cell_length_a   16.55495977
_cell_length_b   16.55671015
_cell_length_c   16.55163479
_cell_angle_alpha   89.99961180
_cell_angle_beta   89.98376852
_cell_angle_gamma   90.01514470
_symmetry_Int_Tables_number   1
_chemical_formula_structural   ZrScNbPdRh
_chemical_formula_sum   'Zr50 Sc50 Nb50 Pd50 Rh50'
_cell_volume   4536.73109236
_cell_formula_units_Z   50
loop_
 _symmetry_equiv_pos_site_id
 _symmetry_equiv_pos_as_xyz
  1  'x, y, z'
loop_
 _atom_site_type_symbol
 _atom_site_label
 _atom_site_symmetry_multiplicity
 _atom_site_fract_x
 _atom_site_fract_y
 _atom_site_fract_z
 _atom_site_occupancy
  Zr  Zr0  1  0.70062879  0.89411835  0.49069750  1
  Zr  Zr1  1  0.90154784  0.49824682  0.90535012  1
  Zr  Zr2  1  0.10633414  0.89569446  0.50050143  1
  Zr  Zr3  1  0.49664116  0.90825196  0.09968586  1
  Zr  Zr4  1  0.30555609  0.70089992  0.10812738  1
  Zr  Zr5  1  0.10337312  0.70223402  0.10506297  1
  Zr  Zr6  1  0.89678267  0.69737948  0.69854109  1
  Zr  Zr7  1  0.69981189  0.50114529  0.90158407  1
  Zr  Zr8  1  0.49416092  0.10555407  0.49583505  1
  Zr  Zr9  1  0.70131502  0.10466001  0.69543169  1
  Zr  Zr10  1  0.70587192  0.49777216  0.10663288  1
  Zr  Zr11  1  0.09856808  0.70201428  0.90553712  1
  Zr  Zr12  1  0.09673724  0.89700088  0.29303878  1
  Zr  Zr13  1  0.69354888  0.70729239  0.29565591  1
  Zr  Zr14  1  0.89732845  0.49653821  0.30585795  1
  Zr  Zr15  1  0.29938162  0.50832173  0.49549323  1
  Zr  Zr16  1  0.09877223  0.09926398  0.09817196  1
  Zr  Zr17  1  0.88944917  0.89812914  0.91328732  1
  Zr  Zr18  1  0.29642069  0.90013645  0.69816027  1
  Zr  Zr19  1  0.29279853  0.10284283  0.88753044  1
  Zr  Zr20  1  0.69812562  0.10553566  0.29728903  1
  Zr  Zr21  1  0.50223268  0.50984532  0.09209274  1
  Zr  Zr22  1  0.30465953  0.30131237  0.89310120  1
  Zr  Zr23  1  0.29959761  0.30324735  0.10406702  1
  Zr  Zr24  1  0.29541823  0.90362441  0.10077973  1
  Zr  Zr25  1  0.29817265  0.89707284  0.90310572  1
  Zr  Zr26  1  0.50654696  0.29934039  0.30707859  1
  Zr  Zr27  1  0.49095237  0.50209932  0.70045861  1
  Zr  Zr28  1  0.49947410  0.50101857  0.89426102  1
  Zr  Zr29  1  0.70263326  0.70855743  0.90450923  1
  Zr  Zr30  1  0.10020452  0.49298229  0.29343337  1
  Zr  Zr31  1  0.50499236  0.09936771  0.69410678  1
  Zr  Zr32  1  0.50447488  0.30554905  0.89256786  1
  Zr  Zr33  1  0.70424416  0.50029800  0.49255323  1
  Zr  Zr34  1  0.69536305  0.69651735  0.09981436  1
  Zr  Zr35  1  0.50343472  0.70938044  0.10465137  1
  Zr  Zr36  1  0.89616675  0.89580931  0.48909743  1
  Zr  Zr37  1  0.69986707  0.89308511  0.09343392  1
  Zr  Zr38  1  0.49040651  0.70171640  0.49694940  1
  Zr  Zr39  1  0.09609596  0.50476546  0.89119048  1
  Zr  Zr40  1  0.50676355  0.30335137  0.10552676  1
  Zr  Zr41  1  0.50400996  0.09823453  0.90440064  1
  Zr  Zr42  1  0.90721492  0.09907847  0.69436895  1
  Zr  Zr43  1  0.69844016  0.29330088  0.70009920  1
  Zr  Zr44  1  0.10393611  0.49349488  0.49978732  1
  Zr  Zr45  1  0.29876162  0.50467888  0.10926999  1
  Zr  Zr46  1  0.69826857  0.70285067  0.70069539  1
  Zr  Zr47  1  0.10198066  0.89757895  0.10272290  1
  Zr  Zr48  1  0.69714743  0.11016562  0.89753441  1
  Zr  Zr49  1  0.69269961  0.89944909  0.69755142  1
  Sc  Sc50  1  0.90959809  0.49669774  0.70459290  1
  Sc  Sc51  1  0.30005371  0.89908749  0.50096153  1
  Sc  Sc52  1  0.28858915  0.29979702  0.30644471  1
  Sc  Sc53  1  0.49379050  0.70264037  0.90811793  1
  Sc  Sc54  1  0.10157010  0.90791402  0.69737576  1
  Sc  Sc55  1  0.10612303  0.09871011  0.70265797  1
  Sc  Sc56  1  0.09669628  0.09951823  0.50590147  1
  Sc  Sc57  1  0.90781789  0.29694632  0.49896794  1
  Sc  Sc58  1  0.50731803  0.49709245  0.30906428  1
  Sc  Sc59  1  0.10980119  0.10068864  0.30296709  1
  Sc  Sc60  1  0.91370650  0.89709023  0.70704942  1
  Sc  Sc61  1  0.90142757  0.49788697  0.11095908  1
  Sc  Sc62  1  0.10170683  0.69820683  0.30262770  1
  Sc  Sc63  1  0.89495857  0.30003175  0.09953516  1
  Sc  Sc64  1  0.09660900  0.10263278  0.89729017  1
  Sc  Sc65  1  0.69775210  0.10282919  0.50228333  1
  Sc  Sc66  1  0.89150224  0.09813795  0.09822479  1
  Sc  Sc67  1  0.90419447  0.10553549  0.90755046  1
  Sc  Sc68  1  0.70342609  0.49859003  0.29968117  1
  Sc  Sc69  1  0.10152293  0.30575482  0.11404094  1
  Sc  Sc70  1  0.09945710  0.30109473  0.31251487  1
  Sc  Sc71  1  0.49831252  0.70528160  0.30243234  1
  Sc  Sc72  1  0.69652527  0.50412183  0.69358900  1
  Sc  Sc73  1  0.90456535  0.70426761  0.89619253  1
  Sc  Sc74  1  0.69921117  0.30732085  0.29743492  1
  Sc  Sc75  1  0.69161439  0.89865212  0.90045026  1
  Sc  Sc76  1  0.09595605  0.89920089  0.90146992  1
  Sc  Sc77  1  0.31483840  0.50391540  0.89559415  1
  Sc  Sc78  1  0.70477346  0.29678224  0.10875869  1
  Sc  Sc79  1  0.90634684  0.69799414  0.30494077  1
  Sc  Sc80  1  0.29536222  0.29206867  0.49543034  1
  Sc  Sc81  1  0.30952878  0.69406658  0.69267667  1
  Sc  Sc82  1  0.69902731  0.90749450  0.30533636  1
  Sc  Sc83  1  0.50435011  0.09394284  0.30089953  1
  Sc  Sc84  1  0.90745748  0.69591254  0.10123634  1
  Sc  Sc85  1  0.49979853  0.89011976  0.69095707  1
  Sc  Sc86  1  0.89077272  0.09298457  0.29458545  1
  Sc  Sc87  1  0.90409386  0.10356589  0.50563235  1
  Sc  Sc88  1  0.90235041  0.29481332  0.90531959  1
  Sc  Sc89  1  0.69417051  0.29752879  0.49987195  1
  Sc  Sc90  1  0.30741204  0.70306585  0.90232559  1
  Sc  Sc91  1  0.50427064  0.30265184  0.70061406  1
  Sc  Sc92  1  0.90766124  0.29352828  0.69529845  1
  Sc  Sc93  1  0.29700464  0.28543387  0.69827821  1
  Sc  Sc94  1  0.10425768  0.69369619  0.70502848  1
  Sc  Sc95  1  0.50279347  0.90081398  0.30195275  1
  Sc  Sc96  1  0.89900005  0.30379427  0.29902686  1
  Sc  Sc97  1  0.29742414  0.90963070  0.30288166  1
  Sc  Sc98  1  0.50702651  0.50159604  0.49716708  1
  Sc  Sc99  1  0.69978625  0.69258014  0.49571095  1
  Nb  Nb100  1  0.90192196  0.69360224  0.49770255  1
  Nb  Nb101  1  0.29981963  0.10147415  0.30414727  1
  Nb  Nb102  1  0.49801755  0.89951789  0.49173595  1
  Nb  Nb103  1  0.29946838  0.10077542  0.10402830  1
  Nb  Nb104  1  0.29880119  0.50087431  0.69542658  1
  Nb  Nb105  1  0.29306168  0.69438608  0.48793079  1
  Nb  Nb106  1  0.10145941  0.30018766  0.89836340  1
  Nb  Nb107  1  0.48801626  0.89955692  0.89885561  1
  Nb  Nb108  1  0.68522339  0.10212734  0.10570636  1
  Nb  Nb109  1  0.49852639  0.30370085  0.49719444  1
  Nb  Nb110  1  0.30157540  0.68060875  0.30810969  1
  Nb  Nb111  1  0.89392521  0.50723128  0.49836282  1
  Nb  Nb112  1  0.29762955  0.50200988  0.30222087  1
  Nb  Nb113  1  0.09940383  0.50138680  0.09879739  1
  Nb  Nb114  1  0.09840219  0.30976339  0.69800682  1
  Nb  Nb115  1  0.49715764  0.69765193  0.69920007  1
  Nb  Nb116  1  0.09973944  0.69626035  0.49397775  1
  Nb  Nb117  1  0.30078059  0.09636309  0.49775224  1
  Nb  Nb118  1  0.89470998  0.90051256  0.29850625  1
  Nb  Nb119  1  0.90104159  0.90093878  0.11016164  1
  Nb  Nb120  1  0.70181825  0.30519551  0.89752648  1
  Nb  Nb121  1  0.30122705  0.09290390  0.69653676  1
  Nb  Nb122  1  0.50078162  0.10278304  0.10188293  1
  Nb  Nb123  1  0.10468915  0.49473102  0.69771637  1
  Nb  Nb124  1  0.10175827  0.29673005  0.50533067  1
  Nb  Nb125  1  0.19752670  0.40348189  -0.00558782  1
  Nb  Nb126  1  0.79926190  0.20008590  0.39827148  1
  Nb  Nb127  1  -0.00228748  -0.00611243  0.39557095  1
  Nb  Nb128  1  0.00278748  0.59836986  0.59253876  1
  Nb  Nb129  1  0.00012637  0.78948967  0.59114929  1
  Nb  Nb130  1  0.19740007  0.40280476  0.79431896  1
  Nb  Nb131  1  0.79885252  0.39501930  0.79790472  1
  Nb  Nb132  1  -0.00053763  0.19717396  0.20109089  1
  Nb  Nb133  1  0.79927953  0.00380340  0.79658229  1
  Nb  Nb134  1  0.39928224  0.19634790  0.00618853  1
  Nb  Nb135  1  0.80049292  -0.00801351  0.60395875  1
  Nb  Nb136  1  0.19797454  0.59559024  0.00333389  1
  Nb  Nb137  1  0.20398277  0.79978985  0.80018240  1
  Nb  Nb138  1  0.39683150  0.39988207  0.59535034  1
  Nb  Nb139  1  0.80043522  0.59987727  0.00212051  1
  Nb  Nb140  1  0.80489818  0.80456720  0.20074477  1
  Nb  Nb141  1  0.60502607  0.39991457  -0.00124616  1
  Nb  Nb142  1  0.39812218  0.19694682  0.20022419  1
  Nb  Nb143  1  0.80299382  0.40171087  0.59955415  1
  Nb  Nb144  1  0.59600774  0.60682020  0.79849192  1
  Nb  Nb145  1  0.40098534  -0.00106229  0.79695868  1
  Nb  Nb146  1  0.39948773  0.39998260  0.20623759  1
  Nb  Nb147  1  0.80445952  0.79852520  0.59634813  1
  Nb  Nb148  1  0.20307600  0.20658003  0.00078919  1
  Nb  Nb149  1  0.00959652  0.40083803  0.00081713  1
  Pd  Pd150  1  0.19721746  0.19906659  0.20087185  1
  Pd  Pd151  1  0.19595142  0.60698631  0.59851333  1
  Pd  Pd152  1  0.58734304  0.79501759  0.80612339  1
  Pd  Pd153  1  0.79284679  0.19886107  0.00615962  1
  Pd  Pd154  1  0.00157953  0.80131009  0.39749724  1
  Pd  Pd155  1  0.39427877  0.80520082  0.21158217  1
  Pd  Pd156  1  0.59458358  0.59567458  0.20791445  1
  Pd  Pd157  1  0.59991010  0.39968983  0.59735964  1
  Pd  Pd158  1  0.59630983  -0.00266112  0.80085142  1
  Pd  Pd159  1  -0.00399302  0.80367427  0.00644469  1
  Pd  Pd160  1  0.19683344  0.00764170  -0.00488551  1
  Pd  Pd161  1  0.21183153  0.60109357  0.80487719  1
  Pd  Pd162  1  0.39105225  0.80419213  0.39328613  1
  Pd  Pd163  1  0.39413770  0.79717406  0.59392621  1
  Pd  Pd164  1  0.21099439  0.79517292  0.21286756  1
  Pd  Pd165  1  0.40909792  0.19290102  0.79825729  1
  Pd  Pd166  1  0.79014127  0.00914285  -0.00295765  1
  Pd  Pd167  1  -0.00620827  0.18854583  0.39092492  1
  Pd  Pd168  1  0.39334513  0.00780630  -0.00486042  1
  Pd  Pd169  1  0.60049062  -0.00281427  0.58813942  1
  Pd  Pd170  1  0.40257316  0.39771349  0.00665745  1
  Pd  Pd171  1  0.39867067  0.00523983  0.20736314  1
  Pd  Pd172  1  -0.00739384  0.40504952  0.59332172  1
  Pd  Pd173  1  0.40199500  0.20704422  0.59866229  1
  Pd  Pd174  1  0.19498460  0.00355571  0.40447809  1
  Pd  Pd175  1  0.60346618  -0.00303411  -0.00080907  1
  Pd  Pd176  1  -0.00119214  0.40039931  0.40556781  1
  Pd  Pd177  1  0.79676301  0.59313357  0.80244460  1
  Pd  Pd178  1  0.19689176  0.78890818  0.60600501  1
  Pd  Pd179  1  0.60079558  0.21094683  0.00142413  1
  Pd  Pd180  1  0.80147003  0.81189334  0.79419316  1
  Pd  Pd181  1  0.20765335  0.79811586  0.39142751  1
  Pd  Pd182  1  -0.00019140  0.59991232  0.20518459  1
  Pd  Pd183  1  0.40159797  -0.00538139  0.59903876  1
  Pd  Pd184  1  -0.00139366  -0.00303244  -0.00023244  1
  Pd  Pd185  1  0.79568674  0.60640086  0.38867291  1
  Pd  Pd186  1  0.60211295  0.79300430  0.58889176  1
  Pd  Pd187  1  0.21095357  0.39356383  0.60050512  1
  Pd  Pd188  1  0.41233379  0.59334170  0.21086246  1
  Pd  Pd189  1  0.59445592  0.60355563  0.60011615  1
  Pd  Pd190  1  0.00427231  0.20129088  0.79640007  1
  Pd  Pd191  1  -0.00165238  0.60376598  0.79441851  1
  Pd  Pd192  1  0.78780836  -0.00359512  0.19334268  1
  Pd  Pd193  1  0.39419047  0.40176182  0.40114751  1
  Pd  Pd194  1  0.39764921  0.20026290  0.39248774  1
  Pd  Pd195  1  0.59873306  0.00440519  0.40495333  1
  Pd  Pd196  1  0.19534098  0.19369060  0.60065263  1
  Pd  Pd197  1  -0.00570603  0.00000077  0.81117539  1
  Pd  Pd198  1  0.00243270  0.00803350  0.20494304  1
  Pd  Pd199  1  0.80977754  0.20071727  0.80008413  1
  Rh  Rh200  1  0.80339767  0.19987994  0.20399289  1
  Rh  Rh201  1  0.19747552  0.19322098  0.41093660  1
  Rh  Rh202  1  -0.00427451  0.39213960  0.19623631  1
  Rh  Rh203  1  0.18989740  0.59363080  0.39279433  1
  Rh  Rh204  1  0.60395133  0.81157978  0.20181393  1
  Rh  Rh205  1  -0.00186685  0.59339067  0.00353934  1
  Rh  Rh206  1  0.59962485  0.60476566  0.39665294  1
  Rh  Rh207  1  0.20422192  0.00768248  0.59429612  1
  Rh  Rh208  1  0.59520240  0.79903518  0.40243200  1
  Rh  Rh209  1  0.19533969  0.60162411  0.20141931  1
  Rh  Rh210  1  0.20349161  0.79106310  -0.00411060  1
  Rh  Rh211  1  0.20426314  0.40306147  0.20409448  1
  Rh  Rh212  1  0.39726857  0.80437718  0.79584543  1
  Rh  Rh213  1  0.80238792  0.20416400  0.59013383  1
  Rh  Rh214  1  0.80654133  0.59626788  0.60354924  1
  Rh  Rh215  1  0.80349966  0.39909245  0.20495196  1
  Rh  Rh216  1  0.40008307  0.80169971  0.00993289  1
  Rh  Rh217  1  0.81010400  0.78945448  0.01288921  1
  Rh  Rh218  1  0.60680122  0.39905167  0.40309593  1
  Rh  Rh219  1  0.58646955  0.80814204  -0.00352632  1
  Rh  Rh220  1  0.59612222  0.40816375  0.19479510  1
  Rh  Rh221  1  0.80198441  0.60997398  0.19827474  1
  Rh  Rh222  1  -0.00474454  -0.01509825  0.58672672  1
  Rh  Rh223  1  0.61050172  0.40799335  0.80023148  1
  Rh  Rh224  1  0.01201747  0.21096264  0.01409599  1
  Rh  Rh225  1  0.20256927  -0.00781027  0.80078262  1
  Rh  Rh226  1  0.80167526  0.40300590  -0.00371976  1
  Rh  Rh227  1  0.80666915  0.01378678  0.41058944  1
  Rh  Rh228  1  0.20030688  0.39958662  0.40383938  1
  Rh  Rh229  1  0.60612492  0.59890314  -0.00731520  1
  Rh  Rh230  1  0.19100274  0.20639410  0.79645299  1
  Rh  Rh231  1  -0.00624481  0.79712421  0.20160679  1
  Rh  Rh232  1  0.60478861  0.20091395  0.40080200  1
  Rh  Rh233  1  0.00603005  0.59129259  0.40269186  1
  Rh  Rh234  1  0.01442864  0.79723090  0.79183500  1
  Rh  Rh235  1  0.39970697  0.00065559  0.40311728  1
  Rh  Rh236  1  0.80059143  0.39097278  0.40923468  1
  Rh  Rh237  1  0.79772380  0.78913351  0.39375011  1
  Rh  Rh238  1  0.40305814  0.60780573  0.79850397  1
  Rh  Rh239  1  -0.00114690  0.39282513  0.80551646  1
  Rh  Rh240  1  0.60193905  -0.00354058  0.19755449  1
  Rh  Rh241  1  0.40066466  0.59658608  0.59139889  1
  Rh  Rh242  1  0.59394856  0.19796438  0.20584364  1
  Rh  Rh243  1  0.01122600  0.20272004  0.60397022  1
  Rh  Rh244  1  0.40723118  0.59615428  0.39990580  1
  Rh  Rh245  1  0.59018690  0.20495398  0.59505368  1
  Rh  Rh246  1  0.20161497  0.00260381  0.20072845  1
  Rh  Rh247  1  0.59618713  0.20090699  0.79887449  1
  Rh  Rh248  1  0.38756164  0.39520536  0.78024787  1
  Rh  Rh249  1  0.39392731  0.60676626  0.00371229  1
