# generated using pymatgen
data_ZrScNbPdRh
_symmetry_space_group_name_H-M   'P 1'
_cell_length_a   16.55234071
_cell_length_b   16.55740889
_cell_length_c   16.55123230
_cell_angle_alpha   90.04606853
_cell_angle_beta   89.98294065
_cell_angle_gamma   89.99823472
_symmetry_Int_Tables_number   1
_chemical_formula_structural   ZrScNbPdRh
_chemical_formula_sum   'Zr50 Sc50 Nb50 Pd50 Rh50'
_cell_volume   4536.09316061
_cell_formula_units_Z   50
loop_
 _symmetry_equiv_pos_site_id
 _symmetry_equiv_pos_as_xyz
  1  'x, y, z'
loop_
 _atom_site_type_symbol
 _atom_site_label
 _atom_site_symmetry_multiplicity
 _atom_site_fract_x
 _atom_site_fract_y
 _atom_site_fract_z
 _atom_site_occupancy
  Zr  Zr0  1  0.89664342  0.10202970  0.30014091  1
  Zr  Zr1  1  0.29533773  0.30246408  0.29683354  1
  Zr  Zr2  1  0.50116343  0.29531886  0.09416841  1
  Zr  Zr3  1  0.10526308  0.49582797  0.30644092  1
  Zr  Zr4  1  0.70786360  0.49610198  0.29674788  1
  Zr  Zr5  1  0.70361697  0.69815807  0.70153045  1
  Zr  Zr6  1  0.89878859  0.50429982  0.69632259  1
  Zr  Zr7  1  0.89411643  0.09699166  0.89288927  1
  Zr  Zr8  1  0.49198724  0.70509927  0.71080585  1
  Zr  Zr9  1  0.90197215  0.69904286  0.10218356  1
  Zr  Zr10  1  0.90895125  0.29377898  0.89839498  1
  Zr  Zr11  1  0.70090097  0.29768026  0.30352073  1
  Zr  Zr12  1  0.28617125  0.29961466  0.51119553  1
  Zr  Zr13  1  0.28632743  0.51213269  0.48660198  1
  Zr  Zr14  1  0.09998656  0.30263007  0.29387041  1
  Zr  Zr15  1  0.90223296  0.30540177  0.30417258  1
  Zr  Zr16  1  0.89388948  0.50842958  0.09918906  1
  Zr  Zr17  1  0.10526614  0.89700757  0.10299672  1
  Zr  Zr18  1  0.29579412  0.29745926  0.10612858  1
  Zr  Zr19  1  0.90554034  0.49883781  0.29699977  1
  Zr  Zr20  1  0.10140056  0.70507931  0.69980874  1
  Zr  Zr21  1  0.49232330  0.09590994  0.69382114  1
  Zr  Zr22  1  0.10631278  0.29999665  0.68682552  1
  Zr  Zr23  1  0.49885823  0.89794028  0.89175587  1
  Zr  Zr24  1  0.30155066  0.30369384  0.70489808  1
  Zr  Zr25  1  0.29379692  0.50354924  0.71115024  1
  Zr  Zr26  1  0.69445109  0.30586606  0.69085685  1
  Zr  Zr27  1  0.70845609  0.69544996  0.09816451  1
  Zr  Zr28  1  0.70553146  0.90413144  0.49953757  1
  Zr  Zr29  1  0.90916680  0.30542860  0.09388519  1
  Zr  Zr30  1  0.30218812  0.69325948  0.88908377  1
  Zr  Zr31  1  0.70744058  0.10063840  0.69423844  1
  Zr  Zr32  1  0.29996660  0.10186565  0.69426391  1
  Zr  Zr33  1  0.69444291  0.30001902  0.09792642  1
  Zr  Zr34  1  0.10648758  0.09718827  0.09879382  1
  Zr  Zr35  1  0.10041717  0.30747430  0.90361319  1
  Zr  Zr36  1  0.49879872  0.30156397  0.70521020  1
  Zr  Zr37  1  0.09383684  0.30655328  0.49838114  1
  Zr  Zr38  1  0.90425817  0.70151809  0.70249106  1
  Zr  Zr39  1  0.50244741  0.69409146  0.08920503  1
  Zr  Zr40  1  0.70204336  0.09872186  0.09581317  1
  Zr  Zr41  1  0.49033695  0.50421633  0.29451605  1
  Zr  Zr42  1  0.89917106  0.09715033  0.09530350  1
  Zr  Zr43  1  0.49911717  0.70211351  0.90275219  1
  Zr  Zr44  1  0.29142391  0.49757030  0.90545844  1
  Zr  Zr45  1  0.50030002  0.50568039  0.90838706  1
  Zr  Zr46  1  0.90725453  0.89720123  0.69823901  1
  Zr  Zr47  1  0.90096548  0.49625240  0.90111589  1
  Zr  Zr48  1  0.69532570  0.49524401  0.09375956  1
  Zr  Zr49  1  0.49166480  0.70405817  0.49250284  1
  Sc  Sc50  1  0.09231075  0.70894027  0.29846103  1
  Sc  Sc51  1  0.10332794  0.50507047  0.89892250  1
  Sc  Sc52  1  0.70398704  0.89888304  0.10785137  1
  Sc  Sc53  1  0.49775783  0.10731629  0.09710909  1
  Sc  Sc54  1  0.71079796  0.90021085  0.89519892  1
  Sc  Sc55  1  0.69464782  0.30792932  0.90144496  1
  Sc  Sc56  1  0.09311794  0.10002922  0.69942816  1
  Sc  Sc57  1  0.10000235  0.88982051  0.49545919  1
  Sc  Sc58  1  0.30966045  0.09104305  0.90608182  1
  Sc  Sc59  1  0.30357968  0.70799644  0.09503274  1
  Sc  Sc60  1  0.90236987  0.30110267  0.69811785  1
  Sc  Sc61  1  0.48994390  0.90330399  0.49874809  1
  Sc  Sc62  1  0.49345060  0.71234620  0.29785707  1
  Sc  Sc63  1  0.50479641  0.88772305  0.10260723  1
  Sc  Sc64  1  0.90183049  0.09950858  0.69841978  1
  Sc  Sc65  1  0.30631967  0.09171538  0.49682415  1
  Sc  Sc66  1  0.29418345  0.90105795  0.90101194  1
  Sc  Sc67  1  0.29331558  0.90188040  0.09475296  1
  Sc  Sc68  1  0.70590598  0.70582210  0.30043805  1
  Sc  Sc69  1  0.70497722  0.10288249  0.29913956  1
  Sc  Sc70  1  0.90039204  0.69752440  0.29513849  1
  Sc  Sc71  1  0.90217334  0.69690066  0.90343046  1
  Sc  Sc72  1  0.89968993  0.30121374  0.49768478  1
  Sc  Sc73  1  0.70253390  0.49232496  0.70074603  1
  Sc  Sc74  1  0.09065336  0.10626357  0.89513063  1
  Sc  Sc75  1  0.89671788  0.89645158  0.50380191  1
  Sc  Sc76  1  0.49957426  0.29011587  0.29956895  1
  Sc  Sc77  1  0.70173124  0.49662102  0.90243466  1
  Sc  Sc78  1  0.70892057  0.69918556  0.49843906  1
  Sc  Sc79  1  0.90630583  0.69760598  0.50561918  1
  Sc  Sc80  1  0.09915715  0.70616350  0.09815785  1
  Sc  Sc81  1  0.10161866  0.70267062  0.90460409  1
  Sc  Sc82  1  0.89973434  0.49833873  0.49897323  1
  Sc  Sc83  1  0.29787422  0.90150280  0.71260842  1
  Sc  Sc84  1  0.49883351  0.10523220  0.30832290  1
  Sc  Sc85  1  0.70827574  0.49369262  0.50911250  1
  Sc  Sc86  1  0.10729266  0.09389868  0.29873135  1
  Sc  Sc87  1  0.70550372  0.89589250  0.70203019  1
  Sc  Sc88  1  0.89993586  0.89619526  0.89318949  1
  Sc  Sc89  1  0.70202588  0.70661323  0.90089030  1
  Sc  Sc90  1  0.09507160  0.10032943  0.50240335  1
  Sc  Sc91  1  0.49373675  0.90249247  0.70051477  1
  Sc  Sc92  1  0.10225129  0.49859019  0.09715194  1
  Sc  Sc93  1  0.50417725  0.49208642  0.70345418  1
  Sc  Sc94  1  0.29205471  0.90019998  0.30987992  1
  Sc  Sc95  1  0.89868269  0.89643347  0.10579801  1
  Sc  Sc96  1  0.30211178  0.10190208  0.30188066  1
  Sc  Sc97  1  0.30445314  0.09842491  0.10051892  1
  Sc  Sc98  1  0.50666244  0.29116422  0.50116367  1
  Sc  Sc99  1  0.09732052  0.50084639  0.50116595  1
  Nb  Nb100  1  0.29150759  0.70746406  0.49896206  1
  Nb  Nb101  1  0.09104733  0.90456464  0.29792354  1
  Nb  Nb102  1  0.70052016  0.09975355  0.50063226  1
  Nb  Nb103  1  0.49714104  0.50257862  0.09713601  1
  Nb  Nb104  1  0.09776636  0.49685102  0.69924713  1
  Nb  Nb105  1  0.88947803  0.08941609  0.49662806  1
  Nb  Nb106  1  0.30006230  0.30468637  0.90066232  1
  Nb  Nb107  1  0.49886774  0.50119096  0.50056039  1
  Nb  Nb108  1  0.30174916  0.69390681  0.31175168  1
  Nb  Nb109  1  0.29702560  0.49932713  0.29577653  1
  Nb  Nb110  1  0.69713075  0.30007005  0.50001817  1
  Nb  Nb111  1  0.70413714  0.09823577  0.89694015  1
  Nb  Nb112  1  0.11305313  0.70168915  0.50440589  1
  Nb  Nb113  1  0.10542447  0.90056305  0.89982169  1
  Nb  Nb114  1  0.10164137  0.29519867  0.09988588  1
  Nb  Nb115  1  0.49596156  0.29485208  0.90322125  1
  Nb  Nb116  1  0.89737174  0.89885736  0.30020041  1
  Nb  Nb117  1  0.29201781  0.89691239  0.50198656  1
  Nb  Nb118  1  0.29772670  0.69965899  0.69909226  1
  Nb  Nb119  1  0.30707106  0.49712180  0.10876338  1
  Nb  Nb120  1  0.10198261  0.89631404  0.70639179  1
  Nb  Nb121  1  0.50352530  0.10275109  0.90500919  1
  Nb  Nb122  1  0.50791988  0.09352163  0.50046754  1
  Nb  Nb123  1  0.69835431  0.89991076  0.30302014  1
  Nb  Nb124  1  0.50788293  0.90060907  0.29962244  1
  Nb  Nb125  1  0.19786646  -0.00919783  0.60145252  1
  Nb  Nb126  1  0.60246004  0.00283646  -0.00682688  1
  Nb  Nb127  1  0.19729308  0.20314283  0.40275983  1
  Nb  Nb128  1  0.39548871  0.60256753  0.59903518  1
  Nb  Nb129  1  0.00264919  0.20039465  0.19681611  1
  Nb  Nb130  1  0.59680775  0.40408904  0.40182138  1
  Nb  Nb131  1  0.39818017  0.39955025  0.00403500  1
  Nb  Nb132  1  0.59876604  0.60257384  0.79842591  1
  Nb  Nb133  1  0.80006395  0.19994483  -0.00445703  1
  Nb  Nb134  1  0.59869126  0.59512885  0.39914395  1
  Nb  Nb135  1  0.39692395  0.40802694  0.59199288  1
  Nb  Nb136  1  0.38837945  0.79595335  0.59873569  1
  Nb  Nb137  1  0.00371383  -0.00470254  -0.00168085  1
  Nb  Nb138  1  0.21042615  0.59984573  0.20549236  1
  Nb  Nb139  1  0.60312710  0.00038169  0.40187120  1
  Nb  Nb140  1  0.40827226  -0.00759223  0.20641912  1
  Nb  Nb141  1  0.59727593  0.59760183  0.19991479  1
  Nb  Nb142  1  0.20055085  0.20445255  -0.00468886  1
  Nb  Nb143  1  0.60083843  0.00838923  0.80292120  1
  Nb  Nb144  1  0.59319120  0.79499321  0.59914499  1
  Nb  Nb145  1  -0.00545822  -0.00524420  0.39481237  1
  Nb  Nb146  1  0.20494287  0.20568452  0.80413032  1
  Nb  Nb147  1  0.39844555  0.40245810  0.40331124  1
  Nb  Nb148  1  0.59343327  0.60342580  0.59904602  1
  Nb  Nb149  1  0.59661228  0.19548465  0.80343701  1
  Pd  Pd150  1  0.00531363  -0.00778062  0.58998856  1
  Pd  Pd151  1  0.19793949  0.01213728  0.79899467  1
  Pd  Pd152  1  0.39287514  0.20683662  0.40931294  1
  Pd  Pd153  1  0.80281464  0.39470182  0.19358615  1
  Pd  Pd154  1  0.00428104  0.60101350  0.59662909  1
  Pd  Pd155  1  0.40478539  0.40725900  0.80753274  1
  Pd  Pd156  1  0.19444111  0.79868929  0.39024735  1
  Pd  Pd157  1  0.00431032  0.39877086  0.79331372  1
  Pd  Pd158  1  0.80775483  0.20856354  0.19131319  1
  Pd  Pd159  1  0.80375253  0.80551831  0.00005192  1
  Pd  Pd160  1  0.59432075  0.00694601  0.20004677  1
  Pd  Pd161  1  0.00449663  0.41047298  0.00181744  1
  Pd  Pd162  1  0.40251598  0.20485555  0.59040956  1
  Pd  Pd163  1  0.19917664  0.59710157  0.60511132  1
  Pd  Pd164  1  -0.00571360  0.80051137  0.40272284  1
  Pd  Pd165  1  0.79429163  0.59942759  0.80570304  1
  Pd  Pd166  1  0.39432228  0.80648117  -0.00567297  1
  Pd  Pd167  1  0.40488197  -0.00496207  0.39461657  1
  Pd  Pd168  1  0.80700436  0.20302531  0.59305529  1
  Pd  Pd169  1  0.00522925  0.60457811  0.40416483  1
  Pd  Pd170  1  0.21273809  -0.00081575  0.20331160  1
  Pd  Pd171  1  0.39808984  0.19288522  0.80742565  1
  Pd  Pd172  1  0.00127073  -0.00457430  0.80457443  1
  Pd  Pd173  1  0.79788923  0.79760759  0.60028093  1
  Pd  Pd174  1  0.59180886  0.40138462  0.20605576  1
  Pd  Pd175  1  0.59753503  0.19148398  0.20401088  1
  Pd  Pd176  1  0.79108244  0.21098871  0.80237826  1
  Pd  Pd177  1  0.00525313  0.60344056  0.80446352  1
  Pd  Pd178  1  0.59706367  0.19787539  0.60377287  1
  Pd  Pd179  1  0.20395975  0.60560215  0.01189139  1
  Pd  Pd180  1  0.80888068  0.79725652  0.39829601  1
  Pd  Pd181  1  -0.00047122  0.80737091  -0.00158632  1
  Pd  Pd182  1  -0.00237331  0.00274115  0.19799238  1
  Pd  Pd183  1  0.60266192  0.80168291  0.40702861  1
  Pd  Pd184  1  0.80092661  0.39449753  0.79961803  1
  Pd  Pd185  1  0.60564899  0.78994026  0.19891150  1
  Pd  Pd186  1  0.39825466  0.61319485  0.19560915  1
  Pd  Pd187  1  0.39015081  0.80690177  0.20602478  1
  Pd  Pd188  1  0.40163802  0.59837295  0.40145191  1
  Pd  Pd189  1  0.60134643  -0.01044880  0.60211834  1
  Pd  Pd190  1  0.79782086  0.20183978  0.40796299  1
  Pd  Pd191  1  0.20587416  0.79389258  0.20736613  1
  Pd  Pd192  1  0.79842748  -0.00435890  0.20403442  1
  Pd  Pd193  1  -0.00958907  0.19753747  0.59619078  1
  Pd  Pd194  1  0.40766256  0.39027639  0.20063929  1
  Pd  Pd195  1  0.00499155  0.18959341  0.39542722  1
  Pd  Pd196  1  0.41230163  -0.00903726  0.01140961  1
  Pd  Pd197  1  0.79908907  0.59743101  0.40198467  1
  Pd  Pd198  1  0.61101860  0.81031281  -0.00206433  1
  Pd  Pd199  1  0.01433131  0.60000201  0.19706053  1
  Rh  Rh200  1  0.59568902  0.39999234  0.80798927  1
  Rh  Rh201  1  0.58955480  0.39952322  -0.00324238  1
  Rh  Rh202  1  0.00695683  0.79987369  0.59901914  1
  Rh  Rh203  1  0.60966091  0.60168466  -0.00202771  1
  Rh  Rh204  1  0.61093503  0.19627316  -0.00787036  1
  Rh  Rh205  1  0.40399597  0.00267916  0.80186549  1
  Rh  Rh206  1  0.18960802  0.60334031  0.79680404  1
  Rh  Rh207  1  0.20319105  0.79738784  -0.00672028  1
  Rh  Rh208  1  0.79876795  -0.00429756  0.79035066  1
  Rh  Rh209  1  0.00181053  0.18982078  0.00632047  1
  Rh  Rh210  1  0.80026251  0.80075265  0.20500462  1
  Rh  Rh211  1  0.80844871  0.79673199  0.79864387  1
  Rh  Rh212  1  0.80412305  -0.00050898  0.60455150  1
  Rh  Rh213  1  0.18712723  0.00317013  0.40969363  1
  Rh  Rh214  1  0.59576224  0.40336960  0.59236585  1
  Rh  Rh215  1  0.80283067  -0.00011578  -0.00093099  1
  Rh  Rh216  1  0.20140056  0.80804410  0.60764941  1
  Rh  Rh217  1  0.19057586  0.39620495  0.79579156  1
  Rh  Rh218  1  0.19110147  0.00808292  -0.00936534  1
  Rh  Rh219  1  0.40102493  0.19056361  0.20011721  1
  Rh  Rh220  1  0.79508280  0.39743761  0.40582022  1
  Rh  Rh221  1  -0.00042129  0.59936599  0.00117641  1
  Rh  Rh222  1  0.39269661  0.80960946  0.39975853  1
  Rh  Rh223  1  0.20331519  0.41522403  0.60111683  1
  Rh  Rh224  1  0.38853343  -0.01049321  0.59795592  1
  Rh  Rh225  1  0.60759398  0.19647800  0.40396553  1
  Rh  Rh226  1  0.20614065  0.39601156  0.00992052  1
  Rh  Rh227  1  0.19688403  0.18382476  0.59835333  1
  Rh  Rh228  1  0.20294225  0.39228450  0.40147773  1
  Rh  Rh229  1  0.40543129  0.59244701  0.79788853  1
  Rh  Rh230  1  0.00346594  0.39997131  0.19599164  1
  Rh  Rh231  1  0.19647111  0.19356259  0.20115084  1
  Rh  Rh232  1  0.00362006  0.79844487  0.80449832  1
  Rh  Rh233  1  -0.00455025  0.40507270  0.60112937  1
  Rh  Rh234  1  0.79803652  -0.00207852  0.39586619  1
  Rh  Rh235  1  -0.00348898  0.80291948  0.19940986  1
  Rh  Rh236  1  0.80565486  0.39630116  0.59946083  1
  Rh  Rh237  1  0.79866178  0.59873859  0.60044294  1
  Rh  Rh238  1  0.80050151  0.59831535  -0.00712508  1
  Rh  Rh239  1  0.38936286  0.20698400  -0.00148171  1
  Rh  Rh240  1  0.00994488  0.21004212  0.78824465  1
  Rh  Rh241  1  0.79479883  0.60132872  0.20244744  1
  Rh  Rh242  1  0.38775756  0.59421256  0.00189550  1
  Rh  Rh243  1  0.18804136  0.61207921  0.39041404  1
  Rh  Rh244  1  0.19387806  0.40994908  0.19363299  1
  Rh  Rh245  1  0.80393282  0.39402141  -0.00061468  1
  Rh  Rh246  1  0.19927580  0.79631506  0.80339798  1
  Rh  Rh247  1  -0.00310901  0.40605762  0.40198083  1
  Rh  Rh248  1  0.38944720  0.80504510  0.80088834  1
  Rh  Rh249  1  0.60458938  0.80354425  0.79480392  1
