# generated using pymatgen
data_ZrScNbPdRh
_symmetry_space_group_name_H-M   'P 1'
_cell_length_a   16.56218425
_cell_length_b   16.56365552
_cell_length_c   16.56002904
_cell_angle_alpha   89.94880609
_cell_angle_beta   90.02133697
_cell_angle_gamma   89.98498564
_symmetry_Int_Tables_number   1
_chemical_formula_structural   ZrScNbPdRh
_chemical_formula_sum   'Zr50 Sc50 Nb50 Pd50 Rh50'
_cell_volume   4542.91569085
_cell_formula_units_Z   50
loop_
 _symmetry_equiv_pos_site_id
 _symmetry_equiv_pos_as_xyz
  1  'x, y, z'
loop_
 _atom_site_type_symbol
 _atom_site_label
 _atom_site_symmetry_multiplicity
 _atom_site_fract_x
 _atom_site_fract_y
 _atom_site_fract_z
 _atom_site_occupancy
  Zr  Zr0  1  0.10558015  0.30241670  0.10392177  1
  Zr  Zr1  1  0.69870194  0.30234680  0.50145953  1
  Zr  Zr2  1  0.49652800  0.29193311  0.29322455  1
  Zr  Zr3  1  0.69977747  0.90143882  0.89664792  1
  Zr  Zr4  1  0.10469335  0.10223899  0.30187944  1
  Zr  Zr5  1  0.50191459  0.49585159  0.49834702  1
  Zr  Zr6  1  0.49743005  0.70081533  0.28630347  1
  Zr  Zr7  1  0.90165282  0.68896290  0.69759817  1
  Zr  Zr8  1  0.29689959  0.30702016  0.29879280  1
  Zr  Zr9  1  0.69410462  0.50364621  0.30448869  1
  Zr  Zr10  1  0.29354703  0.09786974  0.09782010  1
  Zr  Zr11  1  0.30471775  0.89219975  0.49932016  1
  Zr  Zr12  1  0.30070044  0.70428189  0.70020274  1
  Zr  Zr13  1  0.90524640  0.50756495  0.29919664  1
  Zr  Zr14  1  0.70470255  0.70180107  0.50261418  1
  Zr  Zr15  1  0.10334857  0.70181780  0.08590746  1
  Zr  Zr16  1  0.50527943  0.90103955  0.49616556  1
  Zr  Zr17  1  0.10373507  0.49000870  0.30409347  1
  Zr  Zr18  1  0.90048310  0.90457596  0.90908273  1
  Zr  Zr19  1  0.89856292  0.29697090  0.89202457  1
  Zr  Zr20  1  0.30438441  0.49249805  0.90043319  1
  Zr  Zr21  1  0.50573987  0.69380936  0.89149853  1
  Zr  Zr22  1  0.09549575  0.90442890  0.30170437  1
  Zr  Zr23  1  0.30766163  0.08488216  0.89339986  1
  Zr  Zr24  1  0.50136812  0.49558967  0.90194512  1
  Zr  Zr25  1  0.10779868  0.10551904  0.50204495  1
  Zr  Zr26  1  0.09887101  0.29830699  0.50046243  1
  Zr  Zr27  1  0.30000098  0.69640160  0.10685881  1
  Zr  Zr28  1  0.50006306  0.10021654  0.30126454  1
  Zr  Zr29  1  0.69851042  0.29146556  0.69597586  1
  Zr  Zr30  1  0.70426915  0.89545637  0.09674073  1
  Zr  Zr31  1  0.90217167  0.90155727  0.10546318  1
  Zr  Zr32  1  0.91250657  0.70570046  0.49562581  1
  Zr  Zr33  1  0.70245295  0.30165412  0.89843835  1
  Zr  Zr34  1  0.49824166  0.88625882  0.10414180  1
  Zr  Zr35  1  0.30094592  0.29343835  0.49860901  1
  Zr  Zr36  1  0.29558415  0.89815276  0.09202527  1
  Zr  Zr37  1  0.09171573  0.70192496  0.89491211  1
  Zr  Zr38  1  0.50272362  0.30271102  0.69238438  1
  Zr  Zr39  1  0.30586409  0.10416068  0.70234734  1
  Zr  Zr40  1  0.10378167  0.69739984  0.69037383  1
  Zr  Zr41  1  0.09667179  0.30075725  0.69231834  1
  Zr  Zr42  1  0.10208778  0.49816068  0.90505565  1
  Zr  Zr43  1  0.89607124  0.50338431  0.10050843  1
  Zr  Zr44  1  0.50485428  0.10972240  0.70714868  1
  Zr  Zr45  1  0.69267070  0.69963910  0.09915890  1
  Zr  Zr46  1  0.49795452  0.50397401  0.70345904  1
  Zr  Zr47  1  0.90037703  0.29961376  0.51082305  1
  Zr  Zr48  1  0.69934192  0.10542180  0.88603563  1
  Zr  Zr49  1  0.90196595  0.09235746  0.29891297  1
  Sc  Sc50  1  0.70616574  0.89971672  0.30265872  1
  Sc  Sc51  1  0.10959850  0.50590159  0.49965157  1
  Sc  Sc52  1  0.70500186  0.50260142  0.90200461  1
  Sc  Sc53  1  0.10163527  0.49638951  0.69557651  1
  Sc  Sc54  1  0.30435941  0.89709434  0.30211103  1
  Sc  Sc55  1  0.49556002  0.30345967  0.09653918  1
  Sc  Sc56  1  0.29748740  0.69078908  0.50448545  1
  Sc  Sc57  1  0.09722311  0.89181772  0.90132213  1
  Sc  Sc58  1  0.10372166  0.89717539  0.70142491  1
  Sc  Sc59  1  0.89327099  0.89450205  0.30375673  1
  Sc  Sc60  1  0.09616172  0.49759378  0.10180163  1
  Sc  Sc61  1  0.30229238  0.30260782  0.69328695  1
  Sc  Sc62  1  0.09626376  0.90664946  0.09229479  1
  Sc  Sc63  1  0.08641266  0.68605458  0.31147951  1
  Sc  Sc64  1  0.09543741  0.10287701  0.90515408  1
  Sc  Sc65  1  0.49538569  0.90196784  0.89406731  1
  Sc  Sc66  1  0.49502556  0.71000553  0.49585271  1
  Sc  Sc67  1  0.89673317  0.49993924  0.89913300  1
  Sc  Sc68  1  0.69361650  0.70525343  0.70341496  1
  Sc  Sc69  1  0.69832820  0.49496621  0.49865713  1
  Sc  Sc70  1  0.89551007  0.69987596  0.30253684  1
  Sc  Sc71  1  0.09807657  0.10314040  0.69568952  1
  Sc  Sc72  1  0.30507348  0.68721827  0.30306335  1
  Sc  Sc73  1  0.50082386  0.30308616  0.50295799  1
  Sc  Sc74  1  0.71228275  0.49912438  0.69359817  1
  Sc  Sc75  1  0.50707245  0.88783020  0.70044527  1
  Sc  Sc76  1  0.49869361  0.11495503  0.10350899  1
  Sc  Sc77  1  0.09614073  0.30628319  0.90700906  1
  Sc  Sc78  1  0.89525344  0.09796038  0.51524615  1
  Sc  Sc79  1  0.49972804  0.69924540  0.70141740  1
  Sc  Sc80  1  0.69656099  0.11111018  0.09948654  1
  Sc  Sc81  1  0.70470336  0.69698749  0.29595196  1
  Sc  Sc82  1  0.89146775  0.69656501  0.09982088  1
  Sc  Sc83  1  0.89349193  0.50200190  0.50869970  1
  Sc  Sc84  1  0.10074089  0.09600692  0.10512980  1
  Sc  Sc85  1  0.90432210  0.30567479  0.08770905  1
  Sc  Sc86  1  0.30023045  0.10895390  0.30650369  1
  Sc  Sc87  1  0.09494768  0.89375814  0.51083407  1
  Sc  Sc88  1  0.90614476  0.30646303  0.31877176  1
  Sc  Sc89  1  0.90466344  0.09236287  0.09410256  1
  Sc  Sc90  1  0.69965989  0.90005245  0.49360740  1
  Sc  Sc91  1  0.49940266  0.89367077  0.30792909  1
  Sc  Sc92  1  0.30263737  0.50336539  0.69350389  1
  Sc  Sc93  1  0.69162303  0.29943432  0.09359625  1
  Sc  Sc94  1  0.70069559  0.51020421  0.09670737  1
  Sc  Sc95  1  0.49835561  0.30539314  0.90243430  1
  Sc  Sc96  1  0.29827272  0.30282795  0.10423371  1
  Sc  Sc97  1  0.49426429  0.50093531  0.30828070  1
  Sc  Sc98  1  0.90034724  0.49012888  0.69977298  1
  Sc  Sc99  1  0.70166746  0.09680646  0.30342744  1
  Nb  Nb100  1  0.29583909  0.69926119  0.90426403  1
  Nb  Nb101  1  0.50390704  0.49870688  0.09492758  1
  Nb  Nb102  1  0.30527499  0.10117177  0.50213082  1
  Nb  Nb103  1  0.90434402  0.90058561  0.50380526  1
  Nb  Nb104  1  0.29435484  0.30321427  0.90428481  1
  Nb  Nb105  1  0.49742984  0.09815995  0.89813265  1
  Nb  Nb106  1  0.89747779  0.10216124  0.89298297  1
  Nb  Nb107  1  0.90121590  0.70406525  0.89308081  1
  Nb  Nb108  1  0.29702332  0.49702003  0.30820505  1
  Nb  Nb109  1  0.90142729  0.29688791  0.69865645  1
  Nb  Nb110  1  0.49811892  0.69573488  0.09896322  1
  Nb  Nb111  1  0.89566847  0.91913835  0.68957496  1
  Nb  Nb112  1  0.10362855  0.70300853  0.50206594  1
  Nb  Nb113  1  0.70729299  0.70449409  0.89929324  1
  Nb  Nb114  1  0.30388875  0.50060954  0.47919176  1
  Nb  Nb115  1  0.70538955  0.09498433  0.69433491  1
  Nb  Nb116  1  0.10024911  0.29809125  0.30235065  1
  Nb  Nb117  1  0.30081607  0.89667658  0.89190992  1
  Nb  Nb118  1  0.70413366  0.90410725  0.69945074  1
  Nb  Nb119  1  0.69548605  0.10445672  0.50425383  1
  Nb  Nb120  1  0.30055662  0.90608634  0.70551509  1
  Nb  Nb121  1  0.29969737  0.49712038  0.10683803  1
  Nb  Nb122  1  0.49936359  0.09911086  0.49739582  1
  Nb  Nb123  1  0.69874197  0.30155786  0.30274485  1
  Nb  Nb124  1  0.89166136  0.09922715  0.70274621  1
  Nb  Nb125  1  0.40413275  0.00195027  0.60002275  1
  Nb  Nb126  1  0.59901159  0.60135941  0.59731206  1
  Nb  Nb127  1  -0.01029629  0.00390060  0.79730281  1
  Nb  Nb128  1  0.40394039  0.00049508  0.19740103  1
  Nb  Nb129  1  0.19347272  0.79337310  0.40029362  1
  Nb  Nb130  1  0.80672342  0.21011640  0.20470795  1
  Nb  Nb131  1  -0.00183674  0.20462847  0.20608726  1
  Nb  Nb132  1  0.80538480  0.80730698  0.60478007  1
  Nb  Nb133  1  0.79541498  0.39633841  0.20496362  1
  Nb  Nb134  1  0.39152409  0.19700736  -0.00889068  1
  Nb  Nb135  1  0.60153619  0.40307121  0.20121999  1
  Nb  Nb136  1  0.00479524  0.79851480  0.19879146  1
  Nb  Nb137  1  0.80696439  0.80536856  0.79566668  1
  Nb  Nb138  1  0.20396219  0.20499990  0.80510536  1
  Nb  Nb139  1  0.60173842  0.00482564  0.60052323  1
  Nb  Nb140  1  0.19229648  0.79583919  0.20538882  1
  Nb  Nb141  1  0.60124048  0.19816248  0.40347611  1
  Nb  Nb142  1  0.20169576  0.60279262  0.80380160  1
  Nb  Nb143  1  -0.00158062  -0.00144663  0.40915752  1
  Nb  Nb144  1  0.59542990  -0.00205625  0.19500942  1
  Nb  Nb145  1  0.39677824  0.79151049  -0.00394581  1
  Nb  Nb146  1  0.60277418  0.40059562  0.79666863  1
  Nb  Nb147  1  0.59503169  0.00393477  0.00057000  1
  Nb  Nb148  1  0.21259660  -0.00039780  0.60076515  1
  Nb  Nb149  1  0.40152453  0.59978141  0.00526904  1
  Pd  Pd150  1  0.40909670  -0.00236891  0.00699703  1
  Pd  Pd151  1  -0.00907942  0.81200910  0.78852902  1
  Pd  Pd152  1  0.60506012  0.79347213  0.39137698  1
  Pd  Pd153  1  0.78950793  0.01256266  0.00125936  1
  Pd  Pd154  1  0.59185229  0.80288476  -0.00968075  1
  Pd  Pd155  1  0.00331109  0.59039604  0.59568348  1
  Pd  Pd156  1  0.39805016  0.00045923  0.39672124  1
  Pd  Pd157  1  0.00702430  0.19615639  0.79651072  1
  Pd  Pd158  1  0.00040825  0.40236672  0.80101259  1
  Pd  Pd159  1  0.00571805  0.58965609  0.79785904  1
  Pd  Pd160  1  0.20868758  -0.00663755  0.20441771  1
  Pd  Pd161  1  0.00171253  0.40914389  0.41337958  1
  Pd  Pd162  1  0.20667665  0.40646541  0.59167904  1
  Pd  Pd163  1  0.40037929  0.80286067  0.60325029  1
  Pd  Pd164  1  0.40477330  0.58586934  0.19829004  1
  Pd  Pd165  1  0.80558576  0.79432651  -0.00154550  1
  Pd  Pd166  1  0.20347539  0.19730617  -0.00586720  1
  Pd  Pd167  1  0.39349305  0.40544099  0.59353469  1
  Pd  Pd168  1  0.80436154  0.59948221  0.40485600  1
  Pd  Pd169  1  0.59495475  -0.00306166  0.79626749  1
  Pd  Pd170  1  0.59030939  0.19865030  -0.00905336  1
  Pd  Pd171  1  0.79499731  0.40236623  0.00611931  1
  Pd  Pd172  1  0.80464946  0.00138498  0.40993078  1
  Pd  Pd173  1  0.00406636  0.60813233  0.19335405  1
  Pd  Pd174  1  0.40051881  0.79803931  0.80300989  1
  Pd  Pd175  1  0.19625445  -0.00947720  0.41150151  1
  Pd  Pd176  1  0.39589359  0.21354288  0.80682532  1
  Pd  Pd177  1  -0.00506352  0.80243673  0.61169075  1
  Pd  Pd178  1  0.60060688  0.60038477  -0.00345896  1
  Pd  Pd179  1  0.19847539  0.79573161  0.80073375  1
  Pd  Pd180  1  0.40244467  0.39396524  0.79636524  1
  Pd  Pd181  1  0.60879829  0.80416429  0.20814721  1
  Pd  Pd182  1  0.40606019  0.40643282  0.20018346  1
  Pd  Pd183  1  -0.00055767  0.19713998  0.00784196  1
  Pd  Pd184  1  0.79671810  0.60359014  0.80003551  1
  Pd  Pd185  1  0.80594819  0.19668895  0.00588492  1
  Pd  Pd186  1  0.80312324  0.40623295  0.39957657  1
  Pd  Pd187  1  0.79788882  0.19645342  0.39915773  1
  Pd  Pd188  1  0.59398854  0.61036092  0.40527708  1
  Pd  Pd189  1  -0.00917710  0.39186458  0.20086921  1
  Pd  Pd190  1  0.61301067  0.59214937  0.79294886  1
  Pd  Pd191  1  0.19254501  -0.00330682  -0.01199803  1
  Pd  Pd192  1  0.18621582  0.00614027  0.79869845  1
  Pd  Pd193  1  0.20624531  0.59138612  -0.00218703  1
  Pd  Pd194  1  0.40526939  0.60065421  0.59260819  1
  Pd  Pd195  1  0.19925849  0.39884787  0.79488560  1
  Pd  Pd196  1  -0.00944747  0.60062243  -0.00238246  1
  Pd  Pd197  1  -0.00510994  0.19047109  0.40214194  1
  Pd  Pd198  1  0.19092460  0.60043990  0.20743975  1
  Pd  Pd199  1  0.79021625  0.00855019  0.19264930  1
  Rh  Rh200  1  0.60224234  0.41270022  0.60859064  1
  Rh  Rh201  1  0.19918732  0.40406938  0.20046909  1
  Rh  Rh202  1  0.80474453  -0.00244849  0.80513972  1
  Rh  Rh203  1  0.20564015  0.80571936  0.59605802  1
  Rh  Rh204  1  0.00227609  0.00453618  -0.00843962  1
  Rh  Rh205  1  0.20362631  0.80382111  -0.00234057  1
  Rh  Rh206  1  0.60959717  0.80011492  0.59899894  1
  Rh  Rh207  1  -0.00079656  -0.00130684  0.20698638  1
  Rh  Rh208  1  0.79650764  0.59486738  0.20152744  1
  Rh  Rh209  1  0.80254538  0.79895479  0.40757924  1
  Rh  Rh210  1  0.38577279  0.19439584  0.19022591  1
  Rh  Rh211  1  0.78756554  -0.00363726  0.58976113  1
  Rh  Rh212  1  0.00395409  0.80577650  0.39480187  1
  Rh  Rh213  1  0.20461833  0.59653274  0.60170848  1
  Rh  Rh214  1  0.60542186  0.40199800  -0.00104618  1
  Rh  Rh215  1  0.79429371  0.60876789  0.59962677  1
  Rh  Rh216  1  0.40591253  0.19658966  0.59530372  1
  Rh  Rh217  1  0.80382010  0.79634020  0.20018068  1
  Rh  Rh218  1  0.80213241  0.60698081  -0.00698583  1
  Rh  Rh219  1  0.80240043  0.20149912  0.60412964  1
  Rh  Rh220  1  0.61279624  0.20137143  0.21036349  1
  Rh  Rh221  1  0.59003094  0.38773704  0.39208323  1
  Rh  Rh222  1  0.19578867  0.20257346  0.20421734  1
  Rh  Rh223  1  0.79628313  0.39301951  0.79639280  1
  Rh  Rh224  1  0.38953485  0.79012754  0.39605230  1
  Rh  Rh225  1  0.40201171  0.39370440  0.39893909  1
  Rh  Rh226  1  0.19893145  0.60466012  0.39720809  1
  Rh  Rh227  1  -0.00814786  0.79598511  0.00902039  1
  Rh  Rh228  1  0.59783030  0.20912400  0.80495648  1
  Rh  Rh229  1  0.39245413  0.39906324  0.00850640  1
  Rh  Rh230  1  0.40503009  0.20491390  0.40409184  1
  Rh  Rh231  1  0.59507923  0.19339207  0.59330752  1
  Rh  Rh232  1  0.80135373  0.20381329  0.79123372  1
  Rh  Rh233  1  0.20173966  0.40416685  0.01001417  1
  Rh  Rh234  1  0.40546581  0.60403693  0.40073592  1
  Rh  Rh235  1  -0.00642198  0.19558089  0.60390420  1
  Rh  Rh236  1  0.41112380  -0.00848070  0.78846505  1
  Rh  Rh237  1  0.01072884  0.00640457  0.60086033  1
  Rh  Rh238  1  -0.00144902  0.40385140  -0.00352437  1
  Rh  Rh239  1  0.19782987  0.39318171  0.40487397  1
  Rh  Rh240  1  0.60736754  0.80020421  0.80329180  1
  Rh  Rh241  1  0.20387958  0.20626893  0.39829781  1
  Rh  Rh242  1  0.80011018  0.39332524  0.60209849  1
  Rh  Rh243  1  0.60307236  0.00627769  0.39862011  1
  Rh  Rh244  1  0.00048566  0.40258660  0.59727994  1
  Rh  Rh245  1  0.38848279  0.60325198  0.80789816  1
  Rh  Rh246  1  -0.00093494  0.59241238  0.41013463  1
  Rh  Rh247  1  0.20526556  0.19581908  0.60828495  1
  Rh  Rh248  1  0.38861432  0.80405642  0.19781781  1
  Rh  Rh249  1  0.59455049  0.59270974  0.20061426  1
