# generated using pymatgen
data_ZrScNbPdRh
_symmetry_space_group_name_H-M   'P 1'
_cell_length_a   16.55193790
_cell_length_b   16.55139981
_cell_length_c   16.55344212
_cell_angle_alpha   89.99201569
_cell_angle_beta   89.98600455
_cell_angle_gamma   90.00783095
_symmetry_Int_Tables_number   1
_chemical_formula_structural   ZrScNbPdRh
_chemical_formula_sum   'Zr50 Sc50 Nb50 Pd50 Rh50'
_cell_volume   4534.94340093
_cell_formula_units_Z   50
loop_
 _symmetry_equiv_pos_site_id
 _symmetry_equiv_pos_as_xyz
  1  'x, y, z'
loop_
 _atom_site_type_symbol
 _atom_site_label
 _atom_site_symmetry_multiplicity
 _atom_site_fract_x
 _atom_site_fract_y
 _atom_site_fract_z
 _atom_site_occupancy
  Zr  Zr0  1  0.30658638  0.90224769  0.70726142  1
  Zr  Zr1  1  0.29789543  0.29858820  0.10096767  1
  Zr  Zr2  1  0.30618049  0.50023247  0.70446954  1
  Zr  Zr3  1  0.69602721  0.49675665  0.49592353  1
  Zr  Zr4  1  0.09887776  0.30497191  0.10815165  1
  Zr  Zr5  1  0.50296251  0.30323340  0.49111520  1
  Zr  Zr6  1  0.90232223  0.29360255  0.31080562  1
  Zr  Zr7  1  0.90201495  0.29268530  0.09489462  1
  Zr  Zr8  1  0.30303135  0.50172695  0.09893362  1
  Zr  Zr9  1  0.90390234  0.50633642  0.69104625  1
  Zr  Zr10  1  0.89035068  0.89803355  0.29998694  1
  Zr  Zr11  1  0.49886902  0.29630288  0.08824321  1
  Zr  Zr12  1  0.29861065  0.89483748  0.29532737  1
  Zr  Zr13  1  0.50912129  0.09266560  0.70271106  1
  Zr  Zr14  1  0.30222401  0.70228455  0.09990987  1
  Zr  Zr15  1  0.49878411  0.70475108  0.89678678  1
  Zr  Zr16  1  0.50023889  0.10097558  0.49561345  1
  Zr  Zr17  1  0.50356879  0.88915637  0.69868420  1
  Zr  Zr18  1  0.89030121  0.69561472  0.49972466  1
  Zr  Zr19  1  0.50810735  0.69724725  0.29704482  1
  Zr  Zr20  1  0.30403528  0.89255079  0.49564139  1
  Zr  Zr21  1  0.29062668  0.30329154  0.30669977  1
  Zr  Zr22  1  0.50879420  0.51239409  0.09390849  1
  Zr  Zr23  1  0.49868251  0.10209620  0.30680634  1
  Zr  Zr24  1  0.09593472  0.09844313  0.50029481  1
  Zr  Zr25  1  0.69620765  0.50365920  0.89973403  1
  Zr  Zr26  1  0.09489390  0.90149208  0.89314119  1
  Zr  Zr27  1  0.50097265  0.89955163  0.50307052  1
  Zr  Zr28  1  0.50924839  0.29827709  0.89571931  1
  Zr  Zr29  1  0.49935588  0.90739411  0.89027531  1
  Zr  Zr30  1  0.69439447  0.69550736  0.10300175  1
  Zr  Zr31  1  0.91486879  0.09897876  0.89779587  1
  Zr  Zr32  1  0.09576548  0.69386137  0.09396095  1
  Zr  Zr33  1  0.89461233  0.69498393  0.70568733  1
  Zr  Zr34  1  0.30878865  0.29868310  0.89576631  1
  Zr  Zr35  1  0.70795121  0.49879591  0.10414810  1
  Zr  Zr36  1  0.69965431  0.89182930  0.29775620  1
  Zr  Zr37  1  0.30046882  0.50008918  0.30777723  1
  Zr  Zr38  1  0.50185277  0.10017777  0.09738758  1
  Zr  Zr39  1  0.49530808  0.90450536  0.30486099  1
  Zr  Zr40  1  0.09690328  0.69720524  0.71021830  1
  Zr  Zr41  1  0.30230969  0.69866216  0.30437070  1
  Zr  Zr42  1  0.88779964  0.29868011  0.69374119  1
  Zr  Zr43  1  0.09975468  0.48776607  0.29894100  1
  Zr  Zr44  1  0.90800433  0.70136163  0.89917442  1
  Zr  Zr45  1  0.09713027  0.09655463  0.70891782  1
  Zr  Zr46  1  0.29108235  0.10723474  0.70411577  1
  Zr  Zr47  1  0.70743648  0.09833495  0.30753935  1
  Zr  Zr48  1  0.89746445  0.70047617  0.09979841  1
  Zr  Zr49  1  0.49596324  0.90643379  0.09873620  1
  Sc  Sc50  1  0.50021642  0.30669669  0.69894891  1
  Sc  Sc51  1  0.69416770  0.10002039  0.50597805  1
  Sc  Sc52  1  0.30280018  0.69858265  0.49336687  1
  Sc  Sc53  1  0.30881367  0.50529616  0.89595265  1
  Sc  Sc54  1  0.30189249  0.50421259  0.49720463  1
  Sc  Sc55  1  0.29969100  0.29169693  0.50228420  1
  Sc  Sc56  1  0.50213587  0.49989107  0.50502039  1
  Sc  Sc57  1  0.71562819  0.70108193  0.90342251  1
  Sc  Sc58  1  0.89490765  0.09878738  0.48959972  1
  Sc  Sc59  1  0.29369101  0.10025147  0.30750872  1
  Sc  Sc60  1  0.71103119  0.69856836  0.29886850  1
  Sc  Sc61  1  0.30698673  0.69776071  0.70424635  1
  Sc  Sc62  1  0.50190431  0.49763904  0.31858492  1
  Sc  Sc63  1  0.70371469  0.49774456  0.69536370  1
  Sc  Sc64  1  0.50030041  0.49496180  0.89578430  1
  Sc  Sc65  1  0.70644867  0.90428944  0.89811531  1
  Sc  Sc66  1  0.10498173  0.90609938  0.30113121  1
  Sc  Sc67  1  0.90286885  0.90535321  0.70386748  1
  Sc  Sc68  1  0.29928034  0.90478986  0.89919652  1
  Sc  Sc69  1  0.10339505  0.28954163  0.69682061  1
  Sc  Sc70  1  0.10916303  0.69710661  0.29976882  1
  Sc  Sc71  1  0.70139546  0.10826253  0.09483461  1
  Sc  Sc72  1  0.50128388  0.10153655  0.90229136  1
  Sc  Sc73  1  0.08595125  0.29529384  0.90582812  1
  Sc  Sc74  1  0.08903443  0.09551914  0.10477399  1
  Sc  Sc75  1  0.71100206  0.30764285  0.30954301  1
  Sc  Sc76  1  0.10261389  0.89857189  0.10405311  1
  Sc  Sc77  1  0.70612605  0.89337711  0.10174038  1
  Sc  Sc78  1  0.90026647  0.89274252  0.89968533  1
  Sc  Sc79  1  0.69871626  0.90245453  0.50155911  1
  Sc  Sc80  1  0.89996694  0.29703566  0.89818594  1
  Sc  Sc81  1  0.29691578  0.90254528  0.10094896  1
  Sc  Sc82  1  0.09796716  0.49805925  0.49949659  1
  Sc  Sc83  1  0.70299253  0.49705297  0.30209012  1
  Sc  Sc84  1  0.09511252  0.51441445  0.90397964  1
  Sc  Sc85  1  0.29546549  0.70541948  0.89882665  1
  Sc  Sc86  1  0.89230178  0.49487762  0.29355101  1
  Sc  Sc87  1  0.30090056  0.09123475  0.10169791  1
  Sc  Sc88  1  0.90466538  0.90106586  0.10274308  1
  Sc  Sc89  1  0.69409079  0.10382891  0.89184115  1
  Sc  Sc90  1  0.09412817  0.10556006  0.30449811  1
  Sc  Sc91  1  0.69570572  0.69203841  0.49745783  1
  Sc  Sc92  1  0.10636045  0.69507735  0.50108417  1
  Sc  Sc93  1  0.09435011  0.30167467  0.48886683  1
  Sc  Sc94  1  0.90489382  0.90309048  0.50831092  1
  Sc  Sc95  1  0.70431703  0.29761163  0.09155726  1
  Sc  Sc96  1  0.30334702  0.29394529  0.69998843  1
  Sc  Sc97  1  0.69685016  0.91127544  0.70193161  1
  Sc  Sc98  1  0.50154605  0.69964229  0.50840798  1
  Sc  Sc99  1  0.90731579  0.49951700  0.10662651  1
  Nb  Nb100  1  0.50639040  0.70313230  0.69752410  1
  Nb  Nb101  1  0.50413415  0.70279515  0.10105222  1
  Nb  Nb102  1  0.49466667  0.30010174  0.30363509  1
  Nb  Nb103  1  0.10539601  0.10022052  0.89680927  1
  Nb  Nb104  1  0.28489646  0.09991810  0.88820461  1
  Nb  Nb105  1  0.10129751  0.49741412  0.10435581  1
  Nb  Nb106  1  0.70959469  0.29751035  0.50759039  1
  Nb  Nb107  1  0.10446059  0.30129581  0.30558145  1
  Nb  Nb108  1  0.09180851  0.70841061  0.90259233  1
  Nb  Nb109  1  0.89733120  0.30198275  0.49933099  1
  Nb  Nb110  1  0.89358679  0.50454375  0.88688319  1
  Nb  Nb111  1  0.29599920  0.10337174  0.50982483  1
  Nb  Nb112  1  0.49541963  0.51167269  0.70009420  1
  Nb  Nb113  1  0.89496445  0.09842029  0.69806413  1
  Nb  Nb114  1  0.90276145  0.49478160  0.50113123  1
  Nb  Nb115  1  0.10290267  0.50068961  0.69985490  1
  Nb  Nb116  1  0.89937707  0.09780192  0.29068429  1
  Nb  Nb117  1  0.70734623  0.10597054  0.69928190  1
  Nb  Nb118  1  0.09457020  0.89965350  0.69063811  1
  Nb  Nb119  1  0.90174078  0.70009177  0.30050460  1
  Nb  Nb120  1  0.09486006  0.90041754  0.50819722  1
  Nb  Nb121  1  0.89896454  0.10009772  0.10417782  1
  Nb  Nb122  1  0.69465413  0.70098676  0.69185712  1
  Nb  Nb123  1  0.69784966  0.30552174  0.88728523  1
  Nb  Nb124  1  0.70120098  0.28724552  0.70084995  1
  Nb  Nb125  1  0.40410398  0.79663183  0.19798317  1
  Nb  Nb126  1  0.59655699  0.20449319  0.20650636  1
  Nb  Nb127  1  0.59634978  0.79940071  0.00317721  1
  Nb  Nb128  1  -0.00022573  0.79414588  0.20796126  1
  Nb  Nb129  1  0.80856149  0.00862311  0.00057600  1
  Nb  Nb130  1  0.40718107  0.39786877  0.20142060  1
  Nb  Nb131  1  0.40264791  0.20481874  0.20418395  1
  Nb  Nb132  1  0.80276795  0.40275601  -0.00995744  1
  Nb  Nb133  1  0.59930787  0.60640075  0.79189130  1
  Nb  Nb134  1  -0.00212011  0.79650952  0.39955136  1
  Nb  Nb135  1  0.19291432  0.40247028  0.80199449  1
  Nb  Nb136  1  0.60077185  0.00612627  0.20250548  1
  Nb  Nb137  1  0.39503523  0.00346456  0.60028754  1
  Nb  Nb138  1  0.19643614  0.80568250  0.60380653  1
  Nb  Nb139  1  0.19880742  0.59342375  0.19560233  1
  Nb  Nb140  1  0.59249238  0.39239791  0.20127998  1
  Nb  Nb141  1  -0.00624939  0.60022042  0.39659355  1
  Nb  Nb142  1  -0.01071228  0.19864119  0.59776082  1
  Nb  Nb143  1  0.79683806  0.79604768  0.60460408  1
  Nb  Nb144  1  0.19873355  0.40289521  0.60779466  1
  Nb  Nb145  1  0.00147231  0.40697360  0.79306603  1
  Nb  Nb146  1  0.59970914  0.80098799  0.39880784  1
  Nb  Nb147  1  0.19718409  0.19760991  -0.00357499  1
  Nb  Nb148  1  0.19636642  0.40003046  -0.00248981  1
  Nb  Nb149  1  0.19971529  -0.00405049  0.59913883  1
  Pd  Pd150  1  0.19967274  0.59862058  0.80833926  1
  Pd  Pd151  1  -0.00420387  -0.00597544  0.39335548  1
  Pd  Pd152  1  0.80056130  -0.00314371  0.59882028  1
  Pd  Pd153  1  0.79434097  0.20540264  0.20321519  1
  Pd  Pd154  1  0.19895927  0.80384597  0.79613231  1
  Pd  Pd155  1  0.39303726  0.39811492  0.59571371  1
  Pd  Pd156  1  0.19573654  0.80555633  -0.00040782  1
  Pd  Pd157  1  0.79309824  0.00251391  0.19040839  1
  Pd  Pd158  1  0.80362123  0.59056207  0.39742272  1
  Pd  Pd159  1  0.60430018  0.58823417  0.21030016  1
  Pd  Pd160  1  -0.00930046  0.39196927  0.20601742  1
  Pd  Pd161  1  -0.00339418  0.41047789  -0.01005839  1
  Pd  Pd162  1  0.61373934  -0.00628543  0.00412298  1
  Pd  Pd163  1  0.20180559  0.19081534  0.19613869  1
  Pd  Pd164  1  0.79722964  0.19923504  -0.01267310  1
  Pd  Pd165  1  -0.00415712  0.78782952  0.59698369  1
  Pd  Pd166  1  0.40337663  0.60336131  -0.00744356  1
  Pd  Pd167  1  0.39163722  0.00660637  -0.00988502  1
  Pd  Pd168  1  0.61136198  0.20932951  0.39824108  1
  Pd  Pd169  1  0.60841039  0.39802079  0.00345420  1
  Pd  Pd170  1  0.40110775  0.59665393  0.20506034  1
  Pd  Pd171  1  0.79537244  0.80427088  0.79185334  1
  Pd  Pd172  1  0.00467064  0.60554915  0.59237521  1
  Pd  Pd173  1  0.20510724  0.60165183  0.60082488  1
  Pd  Pd174  1  0.79513118  0.40372984  0.59827835  1
  Pd  Pd175  1  0.80930928  0.59302210  0.00271710  1
  Pd  Pd176  1  0.60170166  0.39879061  0.60524636  1
  Pd  Pd177  1  0.00873335  0.38998140  0.60409578  1
  Pd  Pd178  1  0.20178753  0.59696962  -0.00279796  1
  Pd  Pd179  1  0.80246510  0.19456444  0.80734048  1
  Pd  Pd180  1  0.39932945  0.40604699  -0.00059025  1
  Pd  Pd181  1  -0.00358651  0.20870262  0.79122180  1
  Pd  Pd182  1  0.18940351  0.80163671  0.40641314  1
  Pd  Pd183  1  0.20002609  -0.00035619  0.40613955  1
  Pd  Pd184  1  0.00163129  0.20302861  0.20432703  1
  Pd  Pd185  1  0.38892643  0.00632493  0.40574697  1
  Pd  Pd186  1  0.61260386  0.79627110  0.80868900  1
  Pd  Pd187  1  0.41089499  0.19747611  0.60258099  1
  Pd  Pd188  1  -0.00074263  -0.00366187  0.00196401  1
  Pd  Pd189  1  0.19545825  0.00720437  0.20165650  1
  Pd  Pd190  1  0.39650937  0.60616017  0.59625610  1
  Pd  Pd191  1  0.38840204  0.18652426  -0.00168752  1
  Pd  Pd192  1  0.79875243  -0.00519263  0.40643832  1
  Pd  Pd193  1  0.59864846  0.40806027  0.78639211  1
  Pd  Pd194  1  0.40265843  0.80455333  0.00020904  1
  Pd  Pd195  1  0.59641449  0.20427475  0.60131246  1
  Pd  Pd196  1  0.40876273  0.19545858  0.79697176  1
  Pd  Pd197  1  -0.00854885  0.59225691  -0.00073709  1
  Pd  Pd198  1  0.19598510  0.00297207  0.00037000  1
  Pd  Pd199  1  0.80256277  0.40159700  0.79776192  1
  Rh  Rh200  1  0.60900609  -0.00777466  0.39586119  1
  Rh  Rh201  1  0.60053442  0.60645220  0.39948180  1
  Rh  Rh202  1  -0.00057784  0.01250612  0.60440555  1
  Rh  Rh203  1  -0.00194335  -0.00583118  0.20759384  1
  Rh  Rh204  1  0.79431126  0.59986128  0.59845591  1
  Rh  Rh205  1  -0.00133623  0.80297827  0.79575445  1
  Rh  Rh206  1  0.00664380  0.19175550  0.00657435  1
  Rh  Rh207  1  0.20766117  0.40536706  0.19569793  1
  Rh  Rh208  1  0.00208090  0.59693933  0.80248542  1
  Rh  Rh209  1  0.40114174  0.39929675  0.79695551  1
  Rh  Rh210  1  0.18554079  0.20189080  0.59054915  1
  Rh  Rh211  1  0.39536427  0.39790601  0.40527746  1
  Rh  Rh212  1  0.79994322  0.19805843  0.40634314  1
  Rh  Rh213  1  0.39746769  0.79690367  0.80064765  1
  Rh  Rh214  1  0.19304180  0.21601803  0.81221589  1
  Rh  Rh215  1  0.59070635  0.81090869  0.19875812  1
  Rh  Rh216  1  0.19719718  0.20028805  0.40507787  1
  Rh  Rh217  1  0.40976322  0.60165726  0.40799862  1
  Rh  Rh218  1  0.60677961  0.39424074  0.40003746  1
  Rh  Rh219  1  -0.00373448  0.19657313  0.40162675  1
  Rh  Rh220  1  0.79885548  0.80300055  0.41253118  1
  Rh  Rh221  1  0.80357696  0.00745465  0.80668285  1
  Rh  Rh222  1  0.41220676  0.78949949  0.39223575  1
  Rh  Rh223  1  0.39991727  0.00862116  0.79831000  1
  Rh  Rh224  1  0.78958984  0.60023981  0.79323125  1
  Rh  Rh225  1  -0.00785111  0.40572245  0.39588941  1
  Rh  Rh226  1  0.59901440  0.20015621  0.79487933  1
  Rh  Rh227  1  0.40823465  0.60699704  0.80157789  1
  Rh  Rh228  1  0.40060790  0.00098033  0.20518447  1
  Rh  Rh229  1  0.59980584  0.59337867  0.60443050  1
  Rh  Rh230  1  0.20262037  0.39907047  0.41608511  1
  Rh  Rh231  1  0.19010944  0.59204072  0.39389068  1
  Rh  Rh232  1  0.80425568  0.40326346  0.40820301  1
  Rh  Rh233  1  0.60476590  0.00198368  0.79874106  1
  Rh  Rh234  1  0.80215471  0.19276398  0.59301690  1
  Rh  Rh235  1  0.59752456  0.00138718  0.60242109  1
  Rh  Rh236  1  0.79723825  0.80759241  0.00258075  1
  Rh  Rh237  1  0.60842972  0.20459373  -0.00652071  1
  Rh  Rh238  1  0.79992999  0.60140997  0.19997069  1
  Rh  Rh239  1  0.60871227  0.80208208  0.59181578  1
  Rh  Rh240  1  0.80767899  0.79417173  0.19444709  1
  Rh  Rh241  1  0.59888027  0.61156507  -0.01364854  1
  Rh  Rh242  1  0.79919851  0.39046928  0.18853848  1
  Rh  Rh243  1  -0.00151874  -0.00350832  0.79777840  1
  Rh  Rh244  1  0.39024646  0.19890787  0.39944297  1
  Rh  Rh245  1  0.19335008  -0.01088675  0.79419319  1
  Rh  Rh246  1  0.20104927  0.79191126  0.19559115  1
  Rh  Rh247  1  0.00964235  0.60385065  0.20839651  1
  Rh  Rh248  1  0.39276376  0.79920827  0.60508725  1
  Rh  Rh249  1  0.00344399  0.80558498  0.00809278  1
