# generated using pymatgen
data_ZrScNbPdRh
_symmetry_space_group_name_H-M   'P 1'
_cell_length_a   16.55833656
_cell_length_b   16.55508958
_cell_length_c   16.56309566
_cell_angle_alpha   89.99008147
_cell_angle_beta   90.04466213
_cell_angle_gamma   89.97357329
_symmetry_Int_Tables_number   1
_chemical_formula_structural   ZrScNbPdRh
_chemical_formula_sum   'Zr50 Sc50 Nb50 Pd50 Rh50'
_cell_volume   4540.35244344
_cell_formula_units_Z   50
loop_
 _symmetry_equiv_pos_site_id
 _symmetry_equiv_pos_as_xyz
  1  'x, y, z'
loop_
 _atom_site_type_symbol
 _atom_site_label
 _atom_site_symmetry_multiplicity
 _atom_site_fract_x
 _atom_site_fract_y
 _atom_site_fract_z
 _atom_site_occupancy
  Zr  Zr0  1  0.69190430  0.29450749  0.89847906  1
  Zr  Zr1  1  0.29455883  0.29698797  0.69923589  1
  Zr  Zr2  1  0.29782474  0.10746703  0.30226231  1
  Zr  Zr3  1  0.08617424  0.50253552  0.90375100  1
  Zr  Zr4  1  0.29917030  0.69557452  0.29609125  1
  Zr  Zr5  1  0.89829320  0.89365469  0.90315888  1
  Zr  Zr6  1  0.49841528  0.90196220  0.09556073  1
  Zr  Zr7  1  0.29865108  0.29573337  0.09821276  1
  Zr  Zr8  1  0.70002290  0.09942284  0.10198866  1
  Zr  Zr9  1  0.29491452  0.89594358  0.50333679  1
  Zr  Zr10  1  0.50862313  0.09582295  0.90014521  1
  Zr  Zr11  1  0.50194176  0.49897845  0.70808820  1
  Zr  Zr12  1  0.70255392  0.90034047  0.29903354  1
  Zr  Zr13  1  0.89935223  0.89784899  0.30028449  1
  Zr  Zr14  1  0.49818879  0.29319754  0.30657997  1
  Zr  Zr15  1  0.09737372  0.30258677  0.68644721  1
  Zr  Zr16  1  0.69909846  0.30753043  0.09428850  1
  Zr  Zr17  1  0.30674295  0.70917660  0.90509940  1
  Zr  Zr18  1  0.70121126  0.89228918  0.49868341  1
  Zr  Zr19  1  0.30689099  0.50524287  0.89937558  1
  Zr  Zr20  1  0.09948574  0.50075189  0.10099903  1
  Zr  Zr21  1  0.90394223  0.09849623  0.49647494  1
  Zr  Zr22  1  0.90367506  0.30192875  0.50682975  1
  Zr  Zr23  1  0.90757587  0.90243655  0.10281306  1
  Zr  Zr24  1  0.29848020  0.70319621  0.49475794  1
  Zr  Zr25  1  0.69610611  0.49960348  0.30389992  1
  Zr  Zr26  1  0.50753850  0.29920980  0.09300219  1
  Zr  Zr27  1  0.69794005  0.09809880  0.71176241  1
  Zr  Zr28  1  0.90454864  0.30039054  0.90789166  1
  Zr  Zr29  1  0.50306055  0.49735709  0.09579187  1
  Zr  Zr30  1  0.69776019  0.09733506  0.30665598  1
  Zr  Zr31  1  0.49966246  0.50880866  0.30785058  1
  Zr  Zr32  1  0.90707159  0.90003597  0.69386442  1
  Zr  Zr33  1  0.89976308  0.88878187  0.49379857  1
  Zr  Zr34  1  0.29832410  0.50521031  0.30339888  1
  Zr  Zr35  1  0.90129375  0.29435040  0.30501576  1
  Zr  Zr36  1  0.49907632  0.09098641  0.10342992  1
  Zr  Zr37  1  0.70305913  0.29066498  0.69797928  1
  Zr  Zr38  1  0.71514980  0.71318382  0.89792507  1
  Zr  Zr39  1  0.10416723  0.09903119  0.69310113  1
  Zr  Zr40  1  0.70060916  0.89198385  0.70510779  1
  Zr  Zr41  1  0.49761539  0.09822170  0.70515164  1
  Zr  Zr42  1  0.49996641  0.91245128  0.29564260  1
  Zr  Zr43  1  0.91175734  0.69192163  0.89424285  1
  Zr  Zr44  1  0.69291992  0.69682371  0.29709438  1
  Zr  Zr45  1  0.29864379  0.90414397  0.70555933  1
  Zr  Zr46  1  0.49759158  0.69804517  0.49613795  1
  Zr  Zr47  1  0.49619322  0.50676521  0.89461567  1
  Zr  Zr48  1  0.70588964  0.29308335  0.29799759  1
  Zr  Zr49  1  0.09987477  0.90847442  0.10171476  1
  Sc  Sc50  1  0.29258912  0.71180101  0.69098350  1
  Sc  Sc51  1  0.70695856  0.69708324  0.51030341  1
  Sc  Sc52  1  0.29277331  0.09405783  0.49932748  1
  Sc  Sc53  1  0.49357483  0.89498357  0.90161242  1
  Sc  Sc54  1  0.10623128  0.71081758  0.10574351  1
  Sc  Sc55  1  0.09622837  0.89661810  0.29815072  1
  Sc  Sc56  1  0.09853427  0.49896772  0.30211815  1
  Sc  Sc57  1  0.48762044  0.90393066  0.49925985  1
  Sc  Sc58  1  0.29307604  0.89548148  0.08978168  1
  Sc  Sc59  1  0.29611525  0.09727500  0.89585448  1
  Sc  Sc60  1  0.90114370  0.69933727  0.31639894  1
  Sc  Sc61  1  0.89040200  0.09630958  0.29481052  1
  Sc  Sc62  1  0.10766539  0.70927570  0.49787684  1
  Sc  Sc63  1  0.10706679  0.89585768  0.90511909  1
  Sc  Sc64  1  0.90207431  0.09466324  0.10198553  1
  Sc  Sc65  1  0.10160073  0.30229092  0.31524572  1
  Sc  Sc66  1  0.29804199  0.29689810  0.90031994  1
  Sc  Sc67  1  0.09912123  0.29678900  0.09245514  1
  Sc  Sc68  1  0.10827960  0.49107448  0.49864675  1
  Sc  Sc69  1  0.30063268  0.49497985  0.69424616  1
  Sc  Sc70  1  0.90056158  0.50166129  0.31618108  1
  Sc  Sc71  1  0.29600174  0.09730882  0.70476578  1
  Sc  Sc72  1  0.10040302  0.10182196  0.91418478  1
  Sc  Sc73  1  0.09530849  0.90733318  0.49793802  1
  Sc  Sc74  1  0.10166821  0.10496194  0.49433355  1
  Sc  Sc75  1  0.89755756  0.09072412  0.90321902  1
  Sc  Sc76  1  0.29382280  0.90343424  0.30967322  1
  Sc  Sc77  1  0.50019425  0.30075893  0.49685727  1
  Sc  Sc78  1  0.10629855  0.70290025  0.29841711  1
  Sc  Sc79  1  0.69361192  0.89856751  0.09432178  1
  Sc  Sc80  1  0.70376396  0.50932500  0.69920508  1
  Sc  Sc81  1  0.50113073  0.70363584  0.09874540  1
  Sc  Sc82  1  0.90245672  0.49567662  0.07940539  1
  Sc  Sc83  1  0.90201802  0.29793242  0.10151851  1
  Sc  Sc84  1  0.50235756  0.30439939  0.70777377  1
  Sc  Sc85  1  0.70460127  0.29025473  0.49697172  1
  Sc  Sc86  1  0.30650001  0.51192427  0.10305573  1
  Sc  Sc87  1  0.49435580  0.89960476  0.70671271  1
  Sc  Sc88  1  0.89297427  0.10112005  0.69810978  1
  Sc  Sc89  1  0.70607241  0.49616628  0.89936210  1
  Sc  Sc90  1  0.89908624  0.70727935  0.70274648  1
  Sc  Sc91  1  0.50362725  0.31038669  0.89656079  1
  Sc  Sc92  1  0.89949681  0.70364286  0.08184307  1
  Sc  Sc93  1  0.90281516  0.49529635  0.69318273  1
  Sc  Sc94  1  0.29272096  0.30674026  0.49540957  1
  Sc  Sc95  1  0.10133895  0.29732075  0.90967103  1
  Sc  Sc96  1  0.50089092  0.10334731  0.48856417  1
  Sc  Sc97  1  0.50909277  0.70021369  0.70775494  1
  Sc  Sc98  1  0.09831661  0.49697166  0.69024336  1
  Sc  Sc99  1  0.28907562  0.09645037  0.10311640  1
  Nb  Nb100  1  0.49614735  0.69494231  0.90359792  1
  Nb  Nb101  1  0.29966574  0.30145649  0.29657722  1
  Nb  Nb102  1  0.69939508  0.09341677  0.89821915  1
  Nb  Nb103  1  0.10378128  0.10099316  0.29847813  1
  Nb  Nb104  1  0.49601515  0.70030455  0.30035080  1
  Nb  Nb105  1  0.30223933  0.89667028  0.89980015  1
  Nb  Nb106  1  0.90211753  0.29812146  0.69929880  1
  Nb  Nb107  1  0.70003626  0.10022938  0.50720339  1
  Nb  Nb108  1  0.70438428  0.70637559  0.70015417  1
  Nb  Nb109  1  0.70776152  0.50201260  0.50337131  1
  Nb  Nb110  1  0.90239180  0.49607697  0.89557496  1
  Nb  Nb111  1  0.70183199  0.69831330  0.09749640  1
  Nb  Nb112  1  0.50181432  0.49898659  0.50227092  1
  Nb  Nb113  1  0.09635806  0.70601558  0.70330052  1
  Nb  Nb114  1  0.69942867  0.49987776  0.10022463  1
  Nb  Nb115  1  0.10078317  0.29687326  0.50087060  1
  Nb  Nb116  1  0.89738176  0.69528036  0.49952949  1
  Nb  Nb117  1  0.10067692  0.69673497  0.89450103  1
  Nb  Nb118  1  0.49726511  0.09920578  0.29769590  1
  Nb  Nb119  1  0.29877804  0.70025308  0.10593328  1
  Nb  Nb120  1  0.30522187  0.50204166  0.50108991  1
  Nb  Nb121  1  0.70416330  0.91274940  0.89424657  1
  Nb  Nb122  1  0.09598990  0.09772564  0.10249243  1
  Nb  Nb123  1  0.88897499  0.51218570  0.50365524  1
  Nb  Nb124  1  0.09659592  0.89727737  0.70013664  1
  Nb  Nb125  1  -0.00068884  0.19869360  0.79691615  1
  Nb  Nb126  1  0.60428296  0.40782331  0.59448348  1
  Nb  Nb127  1  0.39922655  0.39691806  0.20498133  1
  Nb  Nb128  1  0.59773613  0.19575144  0.20363780  1
  Nb  Nb129  1  0.39728333  0.20083498  0.60218005  1
  Nb  Nb130  1  0.60607546  0.60593727  -0.00280461  1
  Nb  Nb131  1  0.79233819  0.19627596  -0.00243347  1
  Nb  Nb132  1  0.80169545  0.59830262  0.19356001  1
  Nb  Nb133  1  -0.00915624  0.59911659  0.19749316  1
  Nb  Nb134  1  0.60423208  0.00204289  0.60082144  1
  Nb  Nb135  1  0.00652190  0.19501437  0.20367075  1
  Nb  Nb136  1  0.19616107  0.40566075  0.80240439  1
  Nb  Nb137  1  0.40430549  0.19645841  0.00108884  1
  Nb  Nb138  1  0.00494678  0.00018956  0.79701859  1
  Nb  Nb139  1  -0.00196641  0.60550534  0.59204499  1
  Nb  Nb140  1  0.80934031  0.39312034  0.79972053  1
  Nb  Nb141  1  0.59431463  0.79802011  0.39650913  1
  Nb  Nb142  1  0.40225059  0.59593847  0.59415193  1
  Nb  Nb143  1  0.80032405  0.40894466  0.19881943  1
  Nb  Nb144  1  0.20013284  0.60771410  -0.00477404  1
  Nb  Nb145  1  0.20660742  0.39840099  0.20200191  1
  Nb  Nb146  1  0.39833865  0.79759301  0.20207973  1
  Nb  Nb147  1  0.79842172  0.79127132  0.19567296  1
  Nb  Nb148  1  0.19530425  0.60307446  0.80087216  1
  Nb  Nb149  1  0.79441824  -0.00198255  0.59768238  1
  Pd  Pd150  1  0.40176955  0.80546422  0.39142931  1
  Pd  Pd151  1  0.80005518  0.39825084  0.39941339  1
  Pd  Pd152  1  0.00392350  0.79313005  0.59223907  1
  Pd  Pd153  1  0.38361746  -0.00842512  0.20018937  1
  Pd  Pd154  1  -0.00255847  0.19334258  0.60219940  1
  Pd  Pd155  1  0.59777394  0.39400366  0.20716644  1
  Pd  Pd156  1  -0.01102945  0.78596709  0.20366314  1
  Pd  Pd157  1  0.59058066  0.80644295  0.59523688  1
  Pd  Pd158  1  0.59631361  0.80156172  0.20180229  1
  Pd  Pd159  1  0.40402126  0.20386877  0.80406879  1
  Pd  Pd160  1  0.01106019  0.60219200  0.40325557  1
  Pd  Pd161  1  0.79470163  0.39830331  0.60592035  1
  Pd  Pd162  1  0.18773291  0.20567515  0.80394810  1
  Pd  Pd163  1  0.40755246  0.79326364  0.60806831  1
  Pd  Pd164  1  0.80983888  0.20125717  0.81003292  1
  Pd  Pd165  1  0.00293714  0.39284508  0.79873389  1
  Pd  Pd166  1  -0.00120188  0.39933058  0.19892546  1
  Pd  Pd167  1  0.20253255  -0.00582567  0.20445870  1
  Pd  Pd168  1  0.01025538  0.79793740  -0.00242267  1
  Pd  Pd169  1  0.39137058  0.00510373  -0.00511883  1
  Pd  Pd170  1  0.39678723  0.39401829  0.00117249  1
  Pd  Pd171  1  0.40377130  0.00963183  0.59769270  1
  Pd  Pd172  1  0.00255872  0.00260857  0.39164038  1
  Pd  Pd173  1  0.59858826  0.59816705  0.60039827  1
  Pd  Pd174  1  0.59762156  0.80130276  0.80992428  1
  Pd  Pd175  1  0.40656841  0.39659328  0.60171323  1
  Pd  Pd176  1  0.80532628  0.59453767  0.79484735  1
  Pd  Pd177  1  0.19381971  0.59862018  0.40314702  1
  Pd  Pd178  1  0.60676178  0.39605171  0.40833422  1
  Pd  Pd179  1  0.60738140  0.60552331  0.41102594  1
  Pd  Pd180  1  0.19669863  -0.00417969  0.59760993  1
  Pd  Pd181  1  0.40573104  0.20217823  0.19316485  1
  Pd  Pd182  1  0.79918287  -0.00028208  0.00669735  1
  Pd  Pd183  1  0.58972643  0.20069714  0.59970166  1
  Pd  Pd184  1  0.39025309  0.19821400  0.41105855  1
  Pd  Pd185  1  0.19882570  0.60086446  0.60362102  1
  Pd  Pd186  1  0.20025927  0.79901638  0.80082042  1
  Pd  Pd187  1  0.19182394  -0.00173029  0.80721185  1
  Pd  Pd188  1  0.00178479  0.59528922  0.78344465  1
  Pd  Pd189  1  0.20453221  0.41107525  0.00064085  1
  Pd  Pd190  1  0.59717688  -0.00449237  0.40872359  1
  Pd  Pd191  1  0.61259022  0.60643247  0.81021040  1
  Pd  Pd192  1  0.80017845  0.00209199  0.40584250  1
  Pd  Pd193  1  0.79711271  0.59572270  -0.00259327  1
  Pd  Pd194  1  0.38707352  0.61172985  0.78270006  1
  Pd  Pd195  1  0.39684188  0.40149230  0.39754484  1
  Pd  Pd196  1  0.60193374  0.79844313  -0.01030923  1
  Pd  Pd197  1  0.18882463  0.20893176  0.20095740  1
  Pd  Pd198  1  -0.00292338  0.40382910  0.40998996  1
  Pd  Pd199  1  0.59710638  0.60096117  0.19133901  1
  Rh  Rh200  1  0.60240868  0.19670915  0.39655725  1
  Rh  Rh201  1  0.00186762  0.39515442  0.00218936  1
  Rh  Rh202  1  0.00287416  0.00957385  0.20785790  1
  Rh  Rh203  1  0.80531265  0.19364421  0.59528545  1
  Rh  Rh204  1  0.40295558  0.60851428  0.00867272  1
  Rh  Rh205  1  0.80466007  0.19587535  0.40739186  1
  Rh  Rh206  1  0.19639651  0.80585678  0.39925006  1
  Rh  Rh207  1  0.59517718  -0.00863710  0.79832784  1
  Rh  Rh208  1  0.80619084  0.60832413  0.60907468  1
  Rh  Rh209  1  0.39760835  0.59853614  0.40639285  1
  Rh  Rh210  1  0.00436637  0.79774352  0.40196061  1
  Rh  Rh211  1  0.20994590  0.80766042  0.20284770  1
  Rh  Rh212  1  0.20084491  0.20228903  0.40226379  1
  Rh  Rh213  1  0.39696345  -0.00412442  0.80650890  1
  Rh  Rh214  1  0.19853877  0.79529378  -0.00070465  1
  Rh  Rh215  1  0.00336941  -0.00166856  -0.00597660  1
  Rh  Rh216  1  0.80965830  -0.00720823  0.79305446  1
  Rh  Rh217  1  0.00975801  0.60941920  0.00986466  1
  Rh  Rh218  1  0.80719951  0.80504019  0.79864571  1
  Rh  Rh219  1  -0.00260462  0.00453693  0.60410423  1
  Rh  Rh220  1  0.79650302  0.81051951  0.00532477  1
  Rh  Rh221  1  0.60598972  0.00533897  0.20011124  1
  Rh  Rh222  1  0.20749449  0.20108089  0.59101377  1
  Rh  Rh223  1  0.59945188  0.41612202  -0.01291861  1
  Rh  Rh224  1  0.20124355  -0.00069899  -0.00313394  1
  Rh  Rh225  1  0.59979175  0.18903233  0.00342335  1
  Rh  Rh226  1  0.39427260  0.00694423  0.39791603  1
  Rh  Rh227  1  0.20428210  0.40020525  0.39736602  1
  Rh  Rh228  1  0.40037298  0.79700533  0.79849498  1
  Rh  Rh229  1  0.79007298  0.78891100  0.39418958  1
  Rh  Rh230  1  0.20158605  0.39919112  0.59957395  1
  Rh  Rh231  1  0.38723708  0.39603511  0.80143933  1
  Rh  Rh232  1  0.19461091  0.00184676  0.39776889  1
  Rh  Rh233  1  0.59384398  0.20029247  0.80245741  1
  Rh  Rh234  1  0.80065217  0.20854069  0.19017012  1
  Rh  Rh235  1  0.19274331  0.80951426  0.60001310  1
  Rh  Rh236  1  -0.00940267  0.19328283  0.00496306  1
  Rh  Rh237  1  0.20825857  0.19219242  0.00192635  1
  Rh  Rh238  1  0.80065481  0.39585172  -0.00362222  1
  Rh  Rh239  1  0.79155317  0.60349124  0.39663372  1
  Rh  Rh240  1  0.39985905  0.79836405  0.00811437  1
  Rh  Rh241  1  0.40993927  0.60181037  0.19630798  1
  Rh  Rh242  1  0.18790765  0.59619436  0.19550174  1
  Rh  Rh243  1  0.00106617  0.19596980  0.39290997  1
  Rh  Rh244  1  0.80534452  0.79936778  0.60302457  1
  Rh  Rh245  1  0.79782583  -0.01381722  0.19462727  1
  Rh  Rh246  1  -0.00347855  0.40874923  0.58834255  1
  Rh  Rh247  1  0.60214998  -0.00564891  -0.00586084  1
  Rh  Rh248  1  0.00286357  0.80828982  0.80478450  1
  Rh  Rh249  1  0.61650930  0.40149127  0.78952360  1
