# generated using pymatgen
data_ZrScNbPdRh
_symmetry_space_group_name_H-M   'P 1'
_cell_length_a   16.55380003
_cell_length_b   16.55375667
_cell_length_c   16.55709151
_cell_angle_alpha   90.00426450
_cell_angle_beta   90.00451867
_cell_angle_gamma   90.00313144
_symmetry_Int_Tables_number   1
_chemical_formula_structural   ZrScNbPdRh
_chemical_formula_sum   'Zr50 Sc50 Nb50 Pd50 Rh50'
_cell_volume   4537.09964754
_cell_formula_units_Z   50
loop_
 _symmetry_equiv_pos_site_id
 _symmetry_equiv_pos_as_xyz
  1  'x, y, z'
loop_
 _atom_site_type_symbol
 _atom_site_label
 _atom_site_symmetry_multiplicity
 _atom_site_fract_x
 _atom_site_fract_y
 _atom_site_fract_z
 _atom_site_occupancy
  Zr  Zr0  1  0.89871209  0.10179053  0.90695786  1
  Zr  Zr1  1  0.29715144  0.09781079  0.91177710  1
  Zr  Zr2  1  0.89587830  0.30518699  0.29677893  1
  Zr  Zr3  1  0.30495409  0.49975909  0.70348907  1
  Zr  Zr4  1  0.69921655  0.50552626  0.69729146  1
  Zr  Zr5  1  0.09766685  0.89025313  0.10064021  1
  Zr  Zr6  1  0.30443074  0.29658313  0.09889619  1
  Zr  Zr7  1  0.29894162  0.69760294  0.69148593  1
  Zr  Zr8  1  0.89715562  0.89791339  0.30259733  1
  Zr  Zr9  1  0.69498628  0.49928756  0.10349829  1
  Zr  Zr10  1  0.10036475  0.29722526  0.49675094  1
  Zr  Zr11  1  0.10015572  0.30475062  0.29846364  1
  Zr  Zr12  1  0.49876070  0.90195440  0.49461129  1
  Zr  Zr13  1  0.50187665  0.09600278  0.29497525  1
  Zr  Zr14  1  0.09918030  0.70015511  0.10191404  1
  Zr  Zr15  1  0.10120559  0.09827075  0.50419040  1
  Zr  Zr16  1  0.89178154  0.09278858  0.29948116  1
  Zr  Zr17  1  0.89244802  0.29602774  0.09370357  1
  Zr  Zr18  1  0.30131791  0.09955871  0.49226938  1
  Zr  Zr19  1  0.29232859  0.29564957  0.29469480  1
  Zr  Zr20  1  0.30343397  0.90139787  0.90619100  1
  Zr  Zr21  1  0.70314068  0.90150157  0.29524270  1
  Zr  Zr22  1  0.29853397  0.89956896  0.30193088  1
  Zr  Zr23  1  0.90166602  0.29821079  0.70875122  1
  Zr  Zr24  1  0.69485184  0.30755854  0.09376792  1
  Zr  Zr25  1  0.49955143  0.29799162  0.29384113  1
  Zr  Zr26  1  0.49660070  0.10397730  0.09942827  1
  Zr  Zr27  1  0.88767592  0.69900701  0.31063415  1
  Zr  Zr28  1  0.31012800  0.70388698  0.89955792  1
  Zr  Zr29  1  0.09506583  0.49230342  0.30209018  1
  Zr  Zr30  1  0.49802556  0.29780997  0.50035054  1
  Zr  Zr31  1  0.69694872  0.69470493  0.09475497  1
  Zr  Zr32  1  0.50349379  0.69641032  0.90711819  1
  Zr  Zr33  1  0.69022968  0.69825092  0.30397710  1
  Zr  Zr34  1  0.89882415  0.09855381  0.49692299  1
  Zr  Zr35  1  0.89414490  0.90180422  0.89899497  1
  Zr  Zr36  1  0.50274730  0.90706775  0.09794764  1
  Zr  Zr37  1  0.09754464  0.30142925  0.70088495  1
  Zr  Zr38  1  0.89403388  0.49240904  0.69940575  1
  Zr  Zr39  1  0.30201561  0.69873826  0.10584980  1
  Zr  Zr40  1  0.50036537  0.30007510  0.09771489  1
  Zr  Zr41  1  0.69339713  0.50870827  0.91006585  1
  Zr  Zr42  1  0.69910966  0.30093542  0.30112082  1
  Zr  Zr43  1  0.10703644  0.70543269  0.69292076  1
  Zr  Zr44  1  0.70637473  0.70491718  0.90833768  1
  Zr  Zr45  1  0.09558573  0.70427611  0.91091119  1
  Zr  Zr46  1  0.70951907  0.30401635  0.70416175  1
  Zr  Zr47  1  0.09599833  0.50117566  0.49421369  1
  Zr  Zr48  1  0.11038087  0.09995812  0.29997439  1
  Zr  Zr49  1  0.69662906  0.09324101  0.09362147  1
  Sc  Sc50  1  0.10164537  0.08926297  0.90302553  1
  Sc  Sc51  1  0.11088619  0.49955900  0.70487239  1
  Sc  Sc52  1  0.49941314  0.70128938  0.70045925  1
  Sc  Sc53  1  0.50760681  0.10535444  0.89968429  1
  Sc  Sc54  1  0.90558207  0.69615193  0.09115137  1
  Sc  Sc55  1  0.30610565  0.30292665  0.90661500  1
  Sc  Sc56  1  0.10438650  0.70825838  0.29572175  1
  Sc  Sc57  1  0.70349039  0.10533389  0.30279280  1
  Sc  Sc58  1  0.49124607  0.89990671  0.29804727  1
  Sc  Sc59  1  0.10566328  0.29491392  0.10548966  1
  Sc  Sc60  1  0.69282805  0.89054521  0.50298621  1
  Sc  Sc61  1  0.89564806  0.49889895  0.10643573  1
  Sc  Sc62  1  0.30073709  0.29997732  0.50699477  1
  Sc  Sc63  1  0.30580987  0.49826002  0.51253589  1
  Sc  Sc64  1  0.30023587  0.49659061  0.29394374  1
  Sc  Sc65  1  0.50129161  0.10373681  0.50726705  1
  Sc  Sc66  1  0.49951967  0.49553412  0.09933046  1
  Sc  Sc67  1  0.29952808  0.89503407  0.50101988  1
  Sc  Sc68  1  0.50206256  0.89553798  0.69318425  1
  Sc  Sc69  1  0.10061927  0.91065409  0.69722293  1
  Sc  Sc70  1  0.10385289  0.09597817  0.09293171  1
  Sc  Sc71  1  0.89545499  0.50828113  0.49172357  1
  Sc  Sc72  1  0.90570017  0.10189932  0.70715688  1
  Sc  Sc73  1  0.30762549  0.90104445  0.10008235  1
  Sc  Sc74  1  0.09052145  0.50113014  0.11360373  1
  Sc  Sc75  1  0.50114717  0.29878865  0.90550635  1
  Sc  Sc76  1  0.10071284  0.49714953  0.89000519  1
  Sc  Sc77  1  0.69807838  0.10068908  0.89045917  1
  Sc  Sc78  1  0.89091928  0.71663207  0.69313985  1
  Sc  Sc79  1  0.49243435  0.69396088  0.10491424  1
  Sc  Sc80  1  0.29943583  0.10071736  0.09745574  1
  Sc  Sc81  1  0.50961921  0.09837588  0.69826821  1
  Sc  Sc82  1  0.30905520  0.49679805  0.89240627  1
  Sc  Sc83  1  0.10222934  0.29819141  0.89511397  1
  Sc  Sc84  1  0.89474851  0.30535488  0.49691159  1
  Sc  Sc85  1  0.29925929  0.09345177  0.29549723  1
  Sc  Sc86  1  0.29684441  0.09146990  0.68658250  1
  Sc  Sc87  1  0.90147292  0.49893794  0.30166534  1
  Sc  Sc88  1  0.89659085  0.90831167  0.10339968  1
  Sc  Sc89  1  0.89870348  0.90331659  0.69956888  1
  Sc  Sc90  1  0.50236988  0.29343413  0.69661932  1
  Sc  Sc91  1  0.70259644  0.90144943  0.70526258  1
  Sc  Sc92  1  0.30493521  0.70546561  0.29347703  1
  Sc  Sc93  1  0.50469554  0.50350592  0.29441450  1
  Sc  Sc94  1  0.89780473  0.49842762  0.89834186  1
  Sc  Sc95  1  0.70143036  0.50060867  0.50831125  1
  Sc  Sc96  1  0.70253245  0.50788105  0.29999378  1
  Sc  Sc97  1  0.51266033  0.71022773  0.49655735  1
  Sc  Sc98  1  0.70430594  0.69890486  0.50586658  1
  Sc  Sc99  1  0.09411199  0.09969110  0.69655056  1
  Nb  Nb100  1  0.50286868  0.49954531  0.69755712  1
  Nb  Nb101  1  0.50063772  0.49836853  0.89450363  1
  Nb  Nb102  1  0.69755529  0.29198825  0.49403184  1
  Nb  Nb103  1  0.70013340  0.30243456  0.89394700  1
  Nb  Nb104  1  0.70055424  0.10379707  0.69730802  1
  Nb  Nb105  1  0.69754230  0.89657366  0.90965189  1
  Nb  Nb106  1  0.89991831  0.10406951  0.09746421  1
  Nb  Nb107  1  0.09522805  0.88398678  0.49791548  1
  Nb  Nb108  1  0.69350908  0.89627471  0.09251074  1
  Nb  Nb109  1  0.91098392  0.71246954  0.50417632  1
  Nb  Nb110  1  0.28816364  0.69790750  0.50142188  1
  Nb  Nb111  1  0.10137196  0.89888452  0.89968063  1
  Nb  Nb112  1  0.10726787  0.70641901  0.50460895  1
  Nb  Nb113  1  0.50045355  0.69956726  0.29871395  1
  Nb  Nb114  1  0.70065602  0.10381557  0.49319075  1
  Nb  Nb115  1  0.89504670  0.30185662  0.89308450  1
  Nb  Nb116  1  0.49587566  0.89296566  0.90052219  1
  Nb  Nb117  1  0.70004307  0.70629649  0.70324997  1
  Nb  Nb118  1  0.90072868  0.70065750  0.89765236  1
  Nb  Nb119  1  0.89972674  0.89429001  0.50018206  1
  Nb  Nb120  1  0.29852136  0.49975604  0.09988074  1
  Nb  Nb121  1  0.10066368  0.90034768  0.29800271  1
  Nb  Nb122  1  0.30540830  0.89259102  0.70623999  1
  Nb  Nb123  1  0.29583546  0.29884225  0.70502139  1
  Nb  Nb124  1  0.49821673  0.49394164  0.50497735  1
  Nb  Nb125  1  0.40157414  0.60264578  0.40439754  1
  Nb  Nb126  1  0.80052665  0.60940911  0.79975198  1
  Nb  Nb127  1  0.40037632  -0.00241576  0.80086195  1
  Nb  Nb128  1  0.19929741  0.40759583  0.00487048  1
  Nb  Nb129  1  -0.00123249  0.40506591  0.59990870  1
  Nb  Nb130  1  0.39295136  0.19351461  0.79558059  1
  Nb  Nb131  1  0.59695027  0.39787416  0.40650556  1
  Nb  Nb132  1  0.00029008  0.60543060  0.60001073  1
  Nb  Nb133  1  0.79530707  0.00691981  0.59452822  1
  Nb  Nb134  1  0.60100729  0.80068035  0.19687720  1
  Nb  Nb135  1  0.00530622  -0.00817841  0.40037806  1
  Nb  Nb136  1  0.79535216  0.19678874  0.59811603  1
  Nb  Nb137  1  0.60435665  0.80110763  0.81006424  1
  Nb  Nb138  1  0.60346863  0.00289109  0.40149303  1
  Nb  Nb139  1  0.20071730  0.80520770  0.80217534  1
  Nb  Nb140  1  -0.00039480  0.39357748  -0.00260563  1
  Nb  Nb141  1  0.20801399  0.19699048  0.79822818  1
  Nb  Nb142  1  0.00392661  0.80061215  0.80476131  1
  Nb  Nb143  1  0.20276176  0.59504064  0.00345569  1
  Nb  Nb144  1  0.59681513  0.40754730  0.79891823  1
  Nb  Nb145  1  -0.00088567  0.19410205  0.39313004  1
  Nb  Nb146  1  -0.00642933  0.60998956  0.79393122  1
  Nb  Nb147  1  0.40012772  0.20190286  0.39546467  1
  Nb  Nb148  1  -0.00661220  0.19240012  0.19939491  1
  Nb  Nb149  1  0.20396849  0.60405673  0.40384570  1
  Pd  Pd150  1  0.00010096  -0.00495956  0.00104012  1
  Pd  Pd151  1  0.60394704  0.60495273  0.79790282  1
  Pd  Pd152  1  0.00778050  0.20594437  0.00017772  1
  Pd  Pd153  1  0.59437417  0.60615676  0.59717965  1
  Pd  Pd154  1  -0.01114729  0.79411574  0.20266201  1
  Pd  Pd155  1  0.80444819  0.40477284  -0.00474958  1
  Pd  Pd156  1  0.20212319  0.19857763  0.60483562  1
  Pd  Pd157  1  0.80273713  0.60281957  0.19899440  1
  Pd  Pd158  1  0.40094322  0.39306553  0.61158795  1
  Pd  Pd159  1  0.39876524  0.59067835  0.00095970  1
  Pd  Pd160  1  0.19437296  -0.01118204  0.40809698  1
  Pd  Pd161  1  0.79163612  0.79933558  0.40839370  1
  Pd  Pd162  1  0.20305806  -0.00453647  0.19067419  1
  Pd  Pd163  1  0.00439654  0.79726241  0.39080144  1
  Pd  Pd164  1  0.20702854  0.79741588  0.00138299  1
  Pd  Pd165  1  0.60697857  0.20360371  0.60270758  1
  Pd  Pd166  1  0.80916392  0.80264444  0.00996590  1
  Pd  Pd167  1  0.20143886  -0.01063717  0.59363061  1
  Pd  Pd168  1  -0.00618256  -0.00763240  0.59514072  1
  Pd  Pd169  1  0.79389453  0.00163106  0.19205077  1
  Pd  Pd170  1  0.19973594  0.59706472  0.20505336  1
  Pd  Pd171  1  0.21288546  0.40820315  0.40597554  1
  Pd  Pd172  1  0.80839046  0.60800949  0.60120702  1
  Pd  Pd173  1  0.39614712  0.79064156  0.40367247  1
  Pd  Pd174  1  0.00387468  0.58492889  -0.00602697  1
  Pd  Pd175  1  0.00321693  0.00487884  0.20212885  1
  Pd  Pd176  1  0.59429732  -0.00964437  0.80258541  1
  Pd  Pd177  1  0.20629525  0.00128572  0.79738950  1
  Pd  Pd178  1  0.79913637  0.00396388  0.79575321  1
  Pd  Pd179  1  0.78880286  0.19816279  -0.00867424  1
  Pd  Pd180  1  0.40903541  0.38935619  0.79543079  1
  Pd  Pd181  1  0.79575786  0.19854695  0.19510937  1
  Pd  Pd182  1  0.60347680  0.39517902  0.60056386  1
  Pd  Pd183  1  0.60826360  0.19834738  0.19529166  1
  Pd  Pd184  1  0.19803580  0.60955240  0.80979925  1
  Pd  Pd185  1  0.60780570  -0.00222996  0.59461484  1
  Pd  Pd186  1  0.40097350  0.40319643  0.19833096  1
  Pd  Pd187  1  0.00962495  0.19216192  0.81003817  1
  Pd  Pd188  1  0.40088189  0.79365647  0.59198759  1
  Pd  Pd189  1  0.19553102  0.40347218  0.60048272  1
  Pd  Pd190  1  0.41167561  0.60886048  0.59112592  1
  Pd  Pd191  1  0.79064421  0.40832820  0.40188076  1
  Pd  Pd192  1  0.40228424  -0.00057101  0.60401715  1
  Pd  Pd193  1  -0.00640525  0.60814194  0.21103160  1
  Pd  Pd194  1  0.59707448  0.00293896  -0.01034227  1
  Pd  Pd195  1  0.00690223  0.61287443  0.40092055  1
  Pd  Pd196  1  0.40149474  0.40281254  0.39695849  1
  Pd  Pd197  1  0.79745502  0.79360427  0.18968750  1
  Pd  Pd198  1  0.59436879  0.59020557  0.40920100  1
  Pd  Pd199  1  0.40525251  0.60256093  0.79538127  1
  Rh  Rh200  1  0.80240358  0.39167451  0.59362817  1
  Rh  Rh201  1  0.79704337  0.00154919  -0.00006273  1
  Rh  Rh202  1  -0.00900342  0.81038699  -0.00234214  1
  Rh  Rh203  1  0.40927945  0.00458520  -0.00498304  1
  Rh  Rh204  1  0.40938621  0.01051780  0.40267770  1
  Rh  Rh205  1  0.20713858  0.39069687  0.80876687  1
  Rh  Rh206  1  0.40464852  0.79802393  0.00890709  1
  Rh  Rh207  1  0.19557606  -0.01137974  0.00806447  1
  Rh  Rh208  1  0.20455152  0.20214989  0.40080021  1
  Rh  Rh209  1  -0.00495320  0.39218544  0.40497907  1
  Rh  Rh210  1  0.60383459  0.40313382  0.20878688  1
  Rh  Rh211  1  0.58904808  0.19745298  0.39789235  1
  Rh  Rh212  1  0.19799798  0.20870013  -0.00591906  1
  Rh  Rh213  1  0.39814439  0.40449583  0.00177833  1
  Rh  Rh214  1  0.79483854  -0.01338392  0.40908482  1
  Rh  Rh215  1  -0.01042370  0.21342745  0.59215137  1
  Rh  Rh216  1  0.39484252  0.19413988  0.20432148  1
  Rh  Rh217  1  0.19976927  0.40161340  0.19193098  1
  Rh  Rh218  1  0.79663079  0.80935206  0.59750013  1
  Rh  Rh219  1  0.80753481  0.20437053  0.40294383  1
  Rh  Rh220  1  0.40752518  0.80324087  0.19739751  1
  Rh  Rh221  1  0.20410225  0.80677319  0.19971926  1
  Rh  Rh222  1  0.59818060  0.21069324  0.79919028  1
  Rh  Rh223  1  0.40384893  0.80141670  0.79936351  1
  Rh  Rh224  1  0.19347609  0.58904396  0.59309549  1
  Rh  Rh225  1  0.39530994  0.00138805  0.19621024  1
  Rh  Rh226  1  0.58822594  0.59598044  0.00802904  1
  Rh  Rh227  1  0.00019243  0.40561225  0.79995045  1
  Rh  Rh228  1  0.80803133  0.59559517  -0.00284300  1
  Rh  Rh229  1  0.59533471  0.39970768  -0.00875194  1
  Rh  Rh230  1  -0.00165016  -0.00361931  0.80537586  1
  Rh  Rh231  1  0.39975799  0.59527761  0.20840664  1
  Rh  Rh232  1  0.78659823  0.41403524  0.81163006  1
  Rh  Rh233  1  0.60494507  -0.00486946  0.20576629  1
  Rh  Rh234  1  0.79982065  0.19293850  0.79888139  1
  Rh  Rh235  1  0.60532458  0.20236322  -0.00166082  1
  Rh  Rh236  1  0.00188492  0.80300002  0.60927678  1
  Rh  Rh237  1  0.79677061  0.80039268  0.80225167  1
  Rh  Rh238  1  0.59809501  0.81070749  0.38594570  1
  Rh  Rh239  1  0.79788827  0.60504160  0.40780417  1
  Rh  Rh240  1  0.59209835  0.79848851  0.00412039  1
  Rh  Rh241  1  0.79512809  0.40363884  0.20139461  1
  Rh  Rh242  1  0.39430761  0.19870039  0.60075611  1
  Rh  Rh243  1  0.20329125  0.81221980  0.60659566  1
  Rh  Rh244  1  0.60364434  0.79879864  0.61219661  1
  Rh  Rh245  1  0.40469514  0.19751273  -0.00518045  1
  Rh  Rh246  1  0.59701749  0.60526702  0.19589753  1
  Rh  Rh247  1  0.20211872  0.79710935  0.39491315  1
  Rh  Rh248  1  -0.00652305  0.38808758  0.18902480  1
  Rh  Rh249  1  0.19732621  0.19362638  0.19506686  1
