# generated using pymatgen
data_ZrScNbPdRh
_symmetry_space_group_name_H-M   'P 1'
_cell_length_a   16.56655913
_cell_length_b   16.55892744
_cell_length_c   16.55870755
_cell_angle_alpha   89.97882967
_cell_angle_beta   89.99102635
_cell_angle_gamma   89.99543386
_symmetry_Int_Tables_number   1
_chemical_formula_structural   ZrScNbPdRh
_chemical_formula_sum   'Zr50 Sc50 Nb50 Pd50 Rh50'
_cell_volume   4542.45797082
_cell_formula_units_Z   50
loop_
 _symmetry_equiv_pos_site_id
 _symmetry_equiv_pos_as_xyz
  1  'x, y, z'
loop_
 _atom_site_type_symbol
 _atom_site_label
 _atom_site_symmetry_multiplicity
 _atom_site_fract_x
 _atom_site_fract_y
 _atom_site_fract_z
 _atom_site_occupancy
  Zr  Zr0  1  0.89932808  0.70224249  0.10358582  1
  Zr  Zr1  1  0.49976650  0.29687211  0.30207963  1
  Zr  Zr2  1  0.70202669  0.29346450  0.50226414  1
  Zr  Zr3  1  0.29519070  0.09879639  0.50214358  1
  Zr  Zr4  1  0.49409914  0.49701945  0.70642546  1
  Zr  Zr5  1  0.69821057  0.91160524  0.29629022  1
  Zr  Zr6  1  0.69397787  0.29105876  0.30225267  1
  Zr  Zr7  1  0.10706037  0.69635157  0.30641448  1
  Zr  Zr8  1  0.49225845  0.30021395  0.11326847  1
  Zr  Zr9  1  0.50383143  0.29394530  0.69690158  1
  Zr  Zr10  1  0.28267739  0.50568374  0.30115153  1
  Zr  Zr11  1  0.09588343  0.10417330  0.30376075  1
  Zr  Zr12  1  0.29811541  0.49542548  0.09786947  1
  Zr  Zr13  1  0.69740689  0.10076748  0.69472450  1
  Zr  Zr14  1  0.50625981  0.90375638  0.70382721  1
  Zr  Zr15  1  0.69793629  0.09548141  0.10708348  1
  Zr  Zr16  1  0.29660460  0.49981443  0.50229308  1
  Zr  Zr17  1  0.30069916  0.70592175  0.89577204  1
  Zr  Zr18  1  0.49691056  0.10156135  0.70639283  1
  Zr  Zr19  1  0.49563182  0.89375348  0.50494662  1
  Zr  Zr20  1  0.08935938  0.51237349  0.69153788  1
  Zr  Zr21  1  0.29424030  0.30108163  0.89685727  1
  Zr  Zr22  1  0.30056365  0.70168130  0.10351838  1
  Zr  Zr23  1  0.69323561  0.69383547  0.49648239  1
  Zr  Zr24  1  0.90745560  0.50026959  0.50761791  1
  Zr  Zr25  1  0.30889810  0.29773327  0.69840346  1
  Zr  Zr26  1  0.69846197  0.70778586  0.10185294  1
  Zr  Zr27  1  0.49863719  0.71343126  0.29781337  1
  Zr  Zr28  1  0.30686642  0.50533608  0.89623092  1
  Zr  Zr29  1  0.29387535  0.69814249  0.70581639  1
  Zr  Zr30  1  0.49933132  0.90189002  0.30248890  1
  Zr  Zr31  1  0.69820117  0.70605785  0.29758734  1
  Zr  Zr32  1  0.30295683  0.29334361  0.09917945  1
  Zr  Zr33  1  0.70025237  0.70610500  0.69194472  1
  Zr  Zr34  1  0.90473080  0.09802173  0.49744643  1
  Zr  Zr35  1  0.89915982  0.29978024  0.50768199  1
  Zr  Zr36  1  0.09804455  0.49710523  0.88855167  1
  Zr  Zr37  1  0.90183173  0.49088014  0.89906245  1
  Zr  Zr38  1  0.49844184  0.09220085  0.90278515  1
  Zr  Zr39  1  0.49533876  0.29951177  0.89017578  1
  Zr  Zr40  1  0.70265458  0.89896028  0.69826302  1
  Zr  Zr41  1  0.49821638  0.50410592  0.50272521  1
  Zr  Zr42  1  0.49967223  0.50753248  0.90268909  1
  Zr  Zr43  1  0.29992859  0.70143775  0.50078920  1
  Zr  Zr44  1  0.09553292  0.29477130  0.89131166  1
  Zr  Zr45  1  0.70463311  0.29947156  0.90061571  1
  Zr  Zr46  1  0.09441322  0.71350546  0.10093823  1
  Zr  Zr47  1  0.09586024  0.10491346  0.70088775  1
  Zr  Zr48  1  0.49396175  0.30008907  0.50056443  1
  Zr  Zr49  1  0.69157901  0.90110526  0.90151362  1
  Sc  Sc50  1  0.11061036  0.09520361  0.88919993  1
  Sc  Sc51  1  0.28536905  0.09806880  0.29018732  1
  Sc  Sc52  1  0.29147861  0.90443305  0.10191924  1
  Sc  Sc53  1  0.10268390  0.91484809  0.70614192  1
  Sc  Sc54  1  0.50600265  0.09990776  0.51413690  1
  Sc  Sc55  1  0.69723835  0.51102785  0.30404788  1
  Sc  Sc56  1  0.89687139  0.89067067  0.09964559  1
  Sc  Sc57  1  0.29744068  0.09912732  0.70317630  1
  Sc  Sc58  1  0.10013327  0.89142361  0.29658438  1
  Sc  Sc59  1  0.49823165  0.89660961  0.89773375  1
  Sc  Sc60  1  0.49380959  0.90652416  0.09769590  1
  Sc  Sc61  1  0.70726594  0.29406845  0.10357174  1
  Sc  Sc62  1  0.89728252  0.10434031  0.89426126  1
  Sc  Sc63  1  0.70481118  0.89422925  0.50635101  1
  Sc  Sc64  1  0.89960797  0.70483722  0.49372512  1
  Sc  Sc65  1  0.89765131  0.29675933  0.89857881  1
  Sc  Sc66  1  0.90988490  0.70258226  0.90352753  1
  Sc  Sc67  1  0.50031370  0.48790036  0.29510645  1
  Sc  Sc68  1  0.90154179  0.89561657  0.30753523  1
  Sc  Sc69  1  0.69275863  0.49816320  0.90023192  1
  Sc  Sc70  1  0.89851765  0.30001999  0.70478549  1
  Sc  Sc71  1  0.91053599  0.69280424  0.69489902  1
  Sc  Sc72  1  0.30225741  0.88857317  0.29256578  1
  Sc  Sc73  1  0.88076339  0.09637005  0.09559154  1
  Sc  Sc74  1  0.91437916  0.29689633  0.29731042  1
  Sc  Sc75  1  0.10278179  0.30527791  0.70302681  1
  Sc  Sc76  1  0.90091433  0.30466969  0.09258408  1
  Sc  Sc77  1  0.09926260  0.90808966  0.49198040  1
  Sc  Sc78  1  0.90296277  0.70139432  0.30496446  1
  Sc  Sc79  1  0.70582902  0.09505413  0.90571013  1
  Sc  Sc80  1  0.10302927  0.09997421  0.49485052  1
  Sc  Sc81  1  0.69253652  0.51131415  0.10595636  1
  Sc  Sc82  1  0.29587778  0.30590869  0.50247626  1
  Sc  Sc83  1  0.10503638  0.29902471  0.29949867  1
  Sc  Sc84  1  0.50391972  0.70105646  0.09219904  1
  Sc  Sc85  1  0.68609535  0.70050021  0.90822165  1
  Sc  Sc86  1  0.30155766  0.30350626  0.29775364  1
  Sc  Sc87  1  0.89727010  0.90491000  0.90497762  1
  Sc  Sc88  1  0.70254860  0.29372133  0.70260635  1
  Sc  Sc89  1  0.89024338  0.09345698  0.30146925  1
  Sc  Sc90  1  0.89886914  0.09276427  0.70094517  1
  Sc  Sc91  1  0.12968523  0.09224908  0.10397438  1
  Sc  Sc92  1  0.30782467  0.90080905  0.70429938  1
  Sc  Sc93  1  0.49697717  0.69960726  0.69787567  1
  Sc  Sc94  1  0.30047483  0.50594002  0.69515631  1
  Sc  Sc95  1  0.10515129  0.30776774  0.09928815  1
  Sc  Sc96  1  0.31085415  0.09878722  0.09391868  1
  Sc  Sc97  1  0.69302317  0.49632614  0.70735274  1
  Sc  Sc98  1  0.51462048  0.09631237  0.29097769  1
  Sc  Sc99  1  0.30262512  0.09951373  0.89947517  1
  Nb  Nb100  1  0.70309124  0.09732628  0.30028572  1
  Nb  Nb101  1  0.90106772  0.89706151  0.69364336  1
  Nb  Nb102  1  0.09721825  0.50072880  0.30050814  1
  Nb  Nb103  1  0.70146890  0.49861602  0.50118563  1
  Nb  Nb104  1  0.70476342  0.90252457  0.09023116  1
  Nb  Nb105  1  0.90624564  0.49740327  0.10299493  1
  Nb  Nb106  1  0.49853649  0.69810121  0.49903438  1
  Nb  Nb107  1  0.90412013  0.50349416  0.70117595  1
  Nb  Nb108  1  0.09944680  0.69754192  0.50388438  1
  Nb  Nb109  1  0.49907797  0.10481259  0.09201734  1
  Nb  Nb110  1  0.10678574  0.89592707  0.90508909  1
  Nb  Nb111  1  0.90574008  0.89813856  0.51172562  1
  Nb  Nb112  1  0.10172434  0.50270419  0.49607909  1
  Nb  Nb113  1  0.10406352  0.70229052  0.89359241  1
  Nb  Nb114  1  0.49297497  0.49952070  0.09790101  1
  Nb  Nb115  1  0.09522920  0.90077373  0.09781887  1
  Nb  Nb116  1  0.49193564  0.69714095  0.90540901  1
  Nb  Nb117  1  0.09987897  0.50263438  0.10495124  1
  Nb  Nb118  1  0.30168509  0.90261072  0.50299003  1
  Nb  Nb119  1  0.10262099  0.70020731  0.70313262  1
  Nb  Nb120  1  0.09529275  0.30399990  0.49913170  1
  Nb  Nb121  1  0.90496720  0.50016701  0.30191590  1
  Nb  Nb122  1  0.29278324  0.89686108  0.89141447  1
  Nb  Nb123  1  0.70949511  0.10689434  0.49123811  1
  Nb  Nb124  1  0.29930207  0.69734471  0.29663787  1
  Nb  Nb125  1  0.39937882  0.18897340  0.40002639  1
  Nb  Nb126  1  0.00407946  0.59555663  0.00437103  1
  Nb  Nb127  1  0.80331872  0.60314479  0.80093110  1
  Nb  Nb128  1  0.59992342  0.39984513  0.59582859  1
  Nb  Nb129  1  0.80720110  0.59724772  0.00058570  1
  Nb  Nb130  1  0.00179568  0.00193338  0.19104495  1
  Nb  Nb131  1  0.80647717  0.40705795  0.20770011  1
  Nb  Nb132  1  0.00806241  0.00319814  0.00579001  1
  Nb  Nb133  1  0.59215166  0.39614200  0.00586720  1
  Nb  Nb134  1  0.00262444  0.59327526  0.20039364  1
  Nb  Nb135  1  0.00151069  0.20085166  0.59762263  1
  Nb  Nb136  1  0.00401021  0.18695706  0.18686403  1
  Nb  Nb137  1  0.39765044  0.60019284  0.20235385  1
  Nb  Nb138  1  0.19483723  0.80111392  0.60015447  1
  Nb  Nb139  1  0.80574972  0.79717155  0.79524682  1
  Nb  Nb140  1  0.00292069  0.40632533  0.40191800  1
  Nb  Nb141  1  0.39895827  0.60629086  0.39505872  1
  Nb  Nb142  1  0.00744729  0.80336993  0.60255381  1
  Nb  Nb143  1  0.39778205  0.00085598  0.40304943  1
  Nb  Nb144  1  0.59421355  0.20202682  0.00450942  1
  Nb  Nb145  1  0.00658094  0.18805500  0.00646753  1
  Nb  Nb146  1  0.00451593  0.80330201  0.79711142  1
  Nb  Nb147  1  0.79939869  0.59431417  0.60274137  1
  Nb  Nb148  1  0.19234567  0.60205874  -0.00132414  1
  Nb  Nb149  1  0.80415316  0.40331302  0.39787625  1
  Pd  Pd150  1  0.60726060  0.40213187  0.40405357  1
  Pd  Pd151  1  0.61184888  0.39941296  0.19503865  1
  Pd  Pd152  1  0.20777063  -0.01028518  0.39011285  1
  Pd  Pd153  1  0.19349920  0.20457006  0.60071769  1
  Pd  Pd154  1  0.40388803  0.39399535  -0.00300088  1
  Pd  Pd155  1  0.80391775  0.59645206  0.40547392  1
  Pd  Pd156  1  0.19396740  0.40482590  -0.00517193  1
  Pd  Pd157  1  0.80957611  0.20645537  0.39112949  1
  Pd  Pd158  1  0.79945312  -0.00634537  0.80030786  1
  Pd  Pd159  1  0.19562745  0.40262132  0.60525054  1
  Pd  Pd160  1  0.80153032  0.80746404  0.20769640  1
  Pd  Pd161  1  0.59742268  0.00391483  0.41123115  1
  Pd  Pd162  1  0.39637423  0.79670296  0.60804392  1
  Pd  Pd163  1  0.59752493  0.81298128  0.18965107  1
  Pd  Pd164  1  0.39779461  0.80725571  0.00101819  1
  Pd  Pd165  1  0.80588482  0.59750337  0.19785853  1
  Pd  Pd166  1  0.58835434  0.59920361  0.39057365  1
  Pd  Pd167  1  0.39867225  0.00587845  0.20657039  1
  Pd  Pd168  1  0.80993836  0.20654397  0.20540725  1
  Pd  Pd169  1  0.58720246  0.60213596  0.20373529  1
  Pd  Pd170  1  0.39843538  0.00394033  0.60166808  1
  Pd  Pd171  1  0.20030327  0.39446790  0.20148404  1
  Pd  Pd172  1  0.60753608  0.19181095  0.81084664  1
  Pd  Pd173  1  0.39374903  0.80158058  0.40076382  1
  Pd  Pd174  1  0.20070387  0.80424352  0.40575186  1
  Pd  Pd175  1  0.79821323  0.00512827  0.59353557  1
  Pd  Pd176  1  0.59836581  0.79301119  0.80167627  1
  Pd  Pd177  1  0.79952874  0.40493318  0.79394000  1
  Pd  Pd178  1  0.59179610  0.18783056  0.40482749  1
  Pd  Pd179  1  0.59781401  -0.00554408  0.18999624  1
  Pd  Pd180  1  0.19799363  -0.00504000  0.60265832  1
  Pd  Pd181  1  0.60266711  0.59413598  0.60539465  1
  Pd  Pd182  1  0.79907463  0.79323878  -0.01197168  1
  Pd  Pd183  1  0.79631413  0.80503290  0.40071035  1
  Pd  Pd184  1  0.60609917  0.80653293  0.40497815  1
  Pd  Pd185  1  0.19647528  0.19725102  -0.00376314  1
  Pd  Pd186  1  0.78656490  0.41037942  0.01228137  1
  Pd  Pd187  1  0.20701559  0.20833182  0.40041332  1
  Pd  Pd188  1  -0.00204521  -0.00467091  0.81078846  1
  Pd  Pd189  1  0.20444984  0.79910207  0.00307167  1
  Pd  Pd190  1  0.79278350  0.40511926  0.60557466  1
  Pd  Pd191  1  0.80069879  -0.00865975  0.40931624  1
  Pd  Pd192  1  0.39812016  0.18686905  0.21106175  1
  Pd  Pd193  1  -0.00208264  -0.00414390  0.39229521  1
  Pd  Pd194  1  0.39321468  0.40388885  0.39523443  1
  Pd  Pd195  1  0.20410601  0.40857410  0.78748417  1
  Pd  Pd196  1  0.60193117  0.60825047  0.79967311  1
  Pd  Pd197  1  0.00700571  0.39471317  -0.00101767  1
  Pd  Pd198  1  0.60825101  -0.00068476  0.59301771  1
  Pd  Pd199  1  0.39081899  -0.00990643  -0.00632110  1
  Rh  Rh200  1  0.39541617  0.40117573  0.79770041  1
  Rh  Rh201  1  0.19174141  0.39687738  0.40175035  1
  Rh  Rh202  1  0.00400925  0.00313913  0.59719910  1
  Rh  Rh203  1  0.20121827  0.60258368  0.40802196  1
  Rh  Rh204  1  0.19577787  0.60574185  0.19131137  1
  Rh  Rh205  1  0.59873916  0.39484827  0.79882886  1
  Rh  Rh206  1  0.19723365  0.80061878  0.19890314  1
  Rh  Rh207  1  0.00400118  0.59941752  0.39874716  1
  Rh  Rh208  1  0.60499935  0.20233795  0.59729639  1
  Rh  Rh209  1  0.81268876  0.78923703  0.60363144  1
  Rh  Rh210  1  -0.00447231  0.60591213  0.80883172  1
  Rh  Rh211  1  0.00042911  0.80620178  -0.01047387  1
  Rh  Rh212  1  0.00350144  0.80018097  0.40867172  1
  Rh  Rh213  1  0.79853460  0.19568080  0.79725574  1
  Rh  Rh214  1  0.40555226  0.79889110  0.80046298  1
  Rh  Rh215  1  0.40359307  0.20449784  -0.00589033  1
  Rh  Rh216  1  0.60107923  0.59468885  0.00149956  1
  Rh  Rh217  1  0.39511925  0.19538879  0.80198168  1
  Rh  Rh218  1  0.39826879  -0.00343979  0.80379705  1
  Rh  Rh219  1  -0.00145583  0.19919112  0.79734659  1
  Rh  Rh220  1  0.40272388  0.60712900  0.79836683  1
  Rh  Rh221  1  -0.00230723  0.60955547  0.59089872  1
  Rh  Rh222  1  0.40179314  0.79711125  0.19249930  1
  Rh  Rh223  1  0.79856197  0.19927122  -0.00351796  1
  Rh  Rh224  1  0.80240276  -0.00240565  -0.00090350  1
  Rh  Rh225  1  0.60224797  0.00320902  0.80056598  1
  Rh  Rh226  1  0.59973438  0.00221777  0.00396424  1
  Rh  Rh227  1  0.39042352  0.40878505  0.20461269  1
  Rh  Rh228  1  0.80824567  0.19006049  0.60447034  1
  Rh  Rh229  1  0.40521548  0.39986156  0.60324594  1
  Rh  Rh230  1  0.00645597  0.39401869  0.60185200  1
  Rh  Rh231  1  0.20552224  0.20088366  0.79701747  1
  Rh  Rh232  1  0.39844355  0.60454914  0.59573232  1
  Rh  Rh233  1  0.19774279  0.20736951  0.19588509  1
  Rh  Rh234  1  0.60194993  0.19750393  0.19525686  1
  Rh  Rh235  1  0.39344470  0.19643280  0.59393716  1
  Rh  Rh236  1  0.59223390  0.80620221  0.00284622  1
  Rh  Rh237  1  0.39271278  0.60450294  0.00636177  1
  Rh  Rh238  1  -0.00180292  0.79987725  0.20857734  1
  Rh  Rh239  1  0.59263835  0.79830284  0.59577759  1
  Rh  Rh240  1  0.20581875  -0.00070547  0.80022656  1
  Rh  Rh241  1  -0.00042668  0.20642583  0.40394746  1
  Rh  Rh242  1  0.20024890  0.59460197  0.80420875  1
  Rh  Rh243  1  0.19463813  -0.01139923  0.20710237  1
  Rh  Rh244  1  0.80511510  -0.00881207  0.19951824  1
  Rh  Rh245  1  -0.00029509  0.39896235  0.20555091  1
  Rh  Rh246  1  0.19282743  0.80910630  0.79025492  1
  Rh  Rh247  1  -0.00309364  0.39563860  0.79201732  1
  Rh  Rh248  1  0.20387129  -0.00535929  -0.00693328  1
  Rh  Rh249  1  0.19930373  0.60408934  0.59716013  1
