# generated using pymatgen
data_ZrScNbPdRh
_symmetry_space_group_name_H-M   'P 1'
_cell_length_a   16.56405679
_cell_length_b   16.56044644
_cell_length_c   16.56420823
_cell_angle_alpha   90.01985603
_cell_angle_beta   89.97268582
_cell_angle_gamma   90.02094601
_symmetry_Int_Tables_number   1
_chemical_formula_structural   ZrScNbPdRh
_chemical_formula_sum   'Zr50 Sc50 Nb50 Pd50 Rh50'
_cell_volume   4543.69664234
_cell_formula_units_Z   50
loop_
 _symmetry_equiv_pos_site_id
 _symmetry_equiv_pos_as_xyz
  1  'x, y, z'
loop_
 _atom_site_type_symbol
 _atom_site_label
 _atom_site_symmetry_multiplicity
 _atom_site_fract_x
 _atom_site_fract_y
 _atom_site_fract_z
 _atom_site_occupancy
  Zr  Zr0  1  0.89883987  0.69717035  0.69379121  1
  Zr  Zr1  1  0.30232003  0.30496239  0.90436969  1
  Zr  Zr2  1  0.49353293  0.09835745  0.90771297  1
  Zr  Zr3  1  0.11007919  0.70703819  0.49920906  1
  Zr  Zr4  1  0.89509510  0.68935698  0.09534315  1
  Zr  Zr5  1  0.49306092  0.49947734  0.90254767  1
  Zr  Zr6  1  0.70168439  0.49526026  0.70427267  1
  Zr  Zr7  1  0.10131473  0.29959989  0.10567317  1
  Zr  Zr8  1  0.69632633  0.10032619  0.90322029  1
  Zr  Zr9  1  0.69904764  0.69616412  0.30121261  1
  Zr  Zr10  1  0.49817814  0.50722242  0.09673880  1
  Zr  Zr11  1  0.28672131  0.29792889  0.70004156  1
  Zr  Zr12  1  0.29993768  0.09559984  0.70418342  1
  Zr  Zr13  1  0.69686157  0.09654616  0.69743388  1
  Zr  Zr14  1  0.29458554  0.90008453  0.10482167  1
  Zr  Zr15  1  0.69670660  0.69704712  0.09469639  1
  Zr  Zr16  1  0.29308460  0.10050704  0.49183811  1
  Zr  Zr17  1  0.09324649  0.50093980  0.89834490  1
  Zr  Zr18  1  0.89629102  0.90017860  0.69733845  1
  Zr  Zr19  1  0.10469516  0.89947802  0.10443697  1
  Zr  Zr20  1  0.49715566  0.90365401  0.10442201  1
  Zr  Zr21  1  0.10004981  0.10779667  0.30077800  1
  Zr  Zr22  1  0.30275359  0.70672023  0.69264307  1
  Zr  Zr23  1  0.71311243  0.49921573  0.09992867  1
  Zr  Zr24  1  0.90448330  0.09846471  0.49627394  1
  Zr  Zr25  1  0.88978833  0.89914472  0.90690166  1
  Zr  Zr26  1  0.10055973  0.30155150  0.88811923  1
  Zr  Zr27  1  0.91027509  0.91339754  0.49332445  1
  Zr  Zr28  1  0.10152740  0.10323984  0.90275806  1
  Zr  Zr29  1  0.49593604  0.09855988  0.10222151  1
  Zr  Zr30  1  0.30504056  0.89220651  0.70494982  1
  Zr  Zr31  1  0.70559984  0.30748879  0.89592838  1
  Zr  Zr32  1  0.70146624  0.69703511  0.49614870  1
  Zr  Zr33  1  0.90274408  0.89520411  0.10156806  1
  Zr  Zr34  1  0.90649295  0.09959192  0.10979242  1
  Zr  Zr35  1  0.49774111  0.90205644  0.70415383  1
  Zr  Zr36  1  0.89773313  0.69523391  0.90308535  1
  Zr  Zr37  1  0.50440949  0.09948030  0.48693027  1
  Zr  Zr38  1  0.49405459  0.29892750  0.90206381  1
  Zr  Zr39  1  0.30560857  0.90594800  0.30111394  1
  Zr  Zr40  1  0.29166815  0.30589084  0.49652214  1
  Zr  Zr41  1  0.89937215  0.09959866  0.89998954  1
  Zr  Zr42  1  0.49828756  0.89758129  0.90103150  1
  Zr  Zr43  1  0.91164389  0.50612307  0.69535555  1
  Zr  Zr44  1  0.70406469  0.09741220  0.49606927  1
  Zr  Zr45  1  0.11144908  0.30518067  0.29966433  1
  Zr  Zr46  1  0.10559322  0.09757523  0.10487238  1
  Zr  Zr47  1  0.90288067  0.09836496  0.30842993  1
  Zr  Zr48  1  0.69275237  0.89696891  0.90602816  1
  Zr  Zr49  1  0.50552025  0.30181027  0.49847343  1
  Sc  Sc50  1  0.50111768  0.28130807  0.30374376  1
  Sc  Sc51  1  0.69569115  0.89380231  0.70300310  1
  Sc  Sc52  1  0.89905876  0.90059863  0.29908821  1
  Sc  Sc53  1  0.50090903  0.50258232  0.70757842  1
  Sc  Sc54  1  0.90239583  0.29481792  0.49032956  1
  Sc  Sc55  1  0.11373177  0.49811997  0.50549941  1
  Sc  Sc56  1  0.10750868  0.89743461  0.70111917  1
  Sc  Sc57  1  0.49614414  0.70761204  0.70649326  1
  Sc  Sc58  1  0.89524468  0.69462565  0.50253617  1
  Sc  Sc59  1  0.68840856  0.09828641  0.10199569  1
  Sc  Sc60  1  0.09899914  0.69973031  0.90102271  1
  Sc  Sc61  1  0.49862981  0.69495086  0.10737785  1
  Sc  Sc62  1  0.69935850  0.89682225  0.29622569  1
  Sc  Sc63  1  0.49722432  0.89772051  0.48919171  1
  Sc  Sc64  1  0.28746047  0.50470243  0.29977578  1
  Sc  Sc65  1  0.50045999  0.70564735  0.50172752  1
  Sc  Sc66  1  0.50767411  0.69868633  0.90487841  1
  Sc  Sc67  1  0.11148433  0.30002197  0.50232184  1
  Sc  Sc68  1  0.10053185  0.89456729  0.30236782  1
  Sc  Sc69  1  0.49507784  0.28755507  0.09451387  1
  Sc  Sc70  1  0.10148783  0.69072798  0.70405243  1
  Sc  Sc71  1  0.89329312  0.49840856  0.28339321  1
  Sc  Sc72  1  0.69801981  0.89780701  0.49674399  1
  Sc  Sc73  1  0.29876243  0.70300432  0.29238452  1
  Sc  Sc74  1  0.69560586  0.09848998  0.29822642  1
  Sc  Sc75  1  0.10489952  0.10867692  0.70782148  1
  Sc  Sc76  1  0.31147222  0.50687967  0.10193000  1
  Sc  Sc77  1  0.09715917  0.70598785  0.10257231  1
  Sc  Sc78  1  0.10244659  0.70099019  0.29460908  1
  Sc  Sc79  1  0.29704505  0.90246013  0.89893284  1
  Sc  Sc80  1  0.70618271  0.50059414  0.49260986  1
  Sc  Sc81  1  0.29325896  0.70663375  0.89169954  1
  Sc  Sc82  1  0.51389365  0.50138202  0.49753425  1
  Sc  Sc83  1  0.69840720  0.29583926  0.10299522  1
  Sc  Sc84  1  0.69945398  0.30401344  0.49368016  1
  Sc  Sc85  1  0.89962738  0.49602656  0.90873731  1
  Sc  Sc86  1  0.70797363  0.30193936  0.70134756  1
  Sc  Sc87  1  0.90344541  0.30818356  0.89131154  1
  Sc  Sc88  1  0.89907555  0.70533463  0.29487701  1
  Sc  Sc89  1  0.69444883  0.89919087  0.10146957  1
  Sc  Sc90  1  0.90313224  0.29211350  0.29339080  1
  Sc  Sc91  1  0.29850506  0.09997248  0.10134000  1
  Sc  Sc92  1  0.10671784  0.89563814  0.90933518  1
  Sc  Sc93  1  0.29964702  0.50710625  0.70404208  1
  Sc  Sc94  1  0.69949453  0.50242173  0.30185787  1
  Sc  Sc95  1  0.70527039  0.30328379  0.29907236  1
  Sc  Sc96  1  0.09912011  0.49425238  0.70078884  1
  Sc  Sc97  1  0.29910347  0.09749736  0.90480734  1
  Sc  Sc98  1  0.69640764  0.70414163  0.90446250  1
  Sc  Sc99  1  0.89306010  0.10212737  0.69679709  1
  Nb  Nb100  1  0.49096887  0.89784427  0.29370673  1
  Nb  Nb101  1  0.29888507  0.49491061  0.90716463  1
  Nb  Nb102  1  0.70677580  0.69851556  0.69326504  1
  Nb  Nb103  1  0.29817162  0.70441639  0.10020000  1
  Nb  Nb104  1  0.30550362  0.10541079  0.30002321  1
  Nb  Nb105  1  0.49421226  0.50874215  0.29727422  1
  Nb  Nb106  1  0.30628353  0.50226775  0.50175679  1
  Nb  Nb107  1  0.08873071  0.49893210  0.10069008  1
  Nb  Nb108  1  0.09650386  0.50159257  0.29733290  1
  Nb  Nb109  1  0.69809236  0.49829632  0.89816309  1
  Nb  Nb110  1  0.09779905  0.29928121  0.70238815  1
  Nb  Nb111  1  0.30019714  0.30106927  0.10785832  1
  Nb  Nb112  1  0.29497011  0.89275381  0.50453239  1
  Nb  Nb113  1  0.49631593  0.09953223  0.69752969  1
  Nb  Nb114  1  0.09500213  0.09899380  0.49808806  1
  Nb  Nb115  1  0.90966379  0.30309346  0.70094726  1
  Nb  Nb116  1  0.29856264  0.30036483  0.29794662  1
  Nb  Nb117  1  0.49471862  0.29694683  0.69743786  1
  Nb  Nb118  1  0.90490590  0.49300526  0.09341308  1
  Nb  Nb119  1  0.10243521  0.90205337  0.49988351  1
  Nb  Nb120  1  0.49782132  0.69600147  0.30222387  1
  Nb  Nb121  1  0.48975770  0.08733327  0.29952212  1
  Nb  Nb122  1  0.89901768  0.30777286  0.09515989  1
  Nb  Nb123  1  0.30349556  0.69983172  0.50733039  1
  Nb  Nb124  1  0.90997098  0.50298317  0.50248233  1
  Nb  Nb125  1  0.80736331  0.20213385  0.00218283  1
  Nb  Nb126  1  0.58928135  0.40288592  0.19734663  1
  Nb  Nb127  1  0.40078530  0.39780981  0.59621858  1
  Nb  Nb128  1  0.20048909  -0.00278510  0.59252510  1
  Nb  Nb129  1  0.39842856  0.40505130  0.39631090  1
  Nb  Nb130  1  -0.00286217  -0.00565990  0.80301823  1
  Nb  Nb131  1  0.20083709  0.40611126  0.00540149  1
  Nb  Nb132  1  0.19979072  0.59436483  0.00338577  1
  Nb  Nb133  1  0.00344409  0.80494328  0.59855058  1
  Nb  Nb134  1  0.00484541  0.40906762  0.39661077  1
  Nb  Nb135  1  0.39583982  0.00205549  0.59498648  1
  Nb  Nb136  1  0.81393894  0.40202150  0.59872357  1
  Nb  Nb137  1  0.00410084  0.20255602  0.60244330  1
  Nb  Nb138  1  0.60787923  0.60495117  0.60533369  1
  Nb  Nb139  1  -0.00356083  0.20414675  0.00361622  1
  Nb  Nb140  1  0.40200192  0.39633352  0.20804100  1
  Nb  Nb141  1  0.00439755  0.59270971  0.39804198  1
  Nb  Nb142  1  0.40186816  0.19945232  0.59892224  1
  Nb  Nb143  1  -0.00567322  0.80379135  0.79761081  1
  Nb  Nb144  1  0.59196245  0.19920116  0.79385119  1
  Nb  Nb145  1  0.59954367  0.40370366  0.00086347  1
  Nb  Nb146  1  0.39671915  0.59984364  0.40351367  1
  Nb  Nb147  1  0.59551059  0.19831342  0.60389078  1
  Nb  Nb148  1  0.39639064  0.79983140  0.00671552  1
  Nb  Nb149  1  0.79552277  0.59832498  0.79882784  1
  Pd  Pd150  1  0.59591192  0.79692884  0.60171442  1
  Pd  Pd151  1  0.39619489  0.60594257  0.80767808  1
  Pd  Pd152  1  0.00454665  0.00193483  -0.00237958  1
  Pd  Pd153  1  0.79879536  -0.00166423  0.79799959  1
  Pd  Pd154  1  0.81252525  0.59522261  0.39275463  1
  Pd  Pd155  1  0.39670710  0.19841036  0.79937903  1
  Pd  Pd156  1  0.60373509  0.40054342  0.60456248  1
  Pd  Pd157  1  0.00124446  0.79587394  -0.00267648  1
  Pd  Pd158  1  0.80537811  0.80865006  0.58747909  1
  Pd  Pd159  1  0.80191469  0.21045789  0.59648728  1
  Pd  Pd160  1  0.79886083  0.20136559  0.80181391  1
  Pd  Pd161  1  0.39029448  0.61482520  -0.00934622  1
  Pd  Pd162  1  0.41462073  0.59418015  0.59539839  1
  Pd  Pd163  1  0.59753248  0.80112946  0.39228167  1
  Pd  Pd164  1  0.59477709  0.79676914  0.20347848  1
  Pd  Pd165  1  0.59637881  0.00357440  0.80385843  1
  Pd  Pd166  1  0.79414416  -0.00734276  0.59677693  1
  Pd  Pd167  1  0.79357644  0.00562578  0.01287440  1
  Pd  Pd168  1  0.81268810  0.40413591  0.40019798  1
  Pd  Pd169  1  0.20238673  0.59693312  0.80527696  1
  Pd  Pd170  1  0.79588977  0.20083224  0.39655962  1
  Pd  Pd171  1  0.19949298  0.59708052  0.60456609  1
  Pd  Pd172  1  -0.00457549  0.79061381  0.40506378  1
  Pd  Pd173  1  0.01235247  0.00500888  0.61308924  1
  Pd  Pd174  1  0.60177848  -0.00795876  0.38968945  1
  Pd  Pd175  1  0.59223941  0.39245200  0.80220825  1
  Pd  Pd176  1  0.39393085  0.79187787  0.40030620  1
  Pd  Pd177  1  0.19978382  0.20809927  0.00073639  1
  Pd  Pd178  1  0.19601856  -0.00136939  0.39758620  1
  Pd  Pd179  1  0.00407898  -0.00658879  0.20881722  1
  Pd  Pd180  1  0.19311580  -0.00313388  0.80010592  1
  Pd  Pd181  1  0.79851262  0.79737032  0.19553540  1
  Pd  Pd182  1  0.00301488  0.38999059  0.58917556  1
  Pd  Pd183  1  0.79869494  0.19847355  0.19548658  1
  Pd  Pd184  1  0.20878655  0.79830540  0.39362757  1
  Pd  Pd185  1  0.39525345  0.20649599  0.40299572  1
  Pd  Pd186  1  -0.00351266  0.60427271  0.20221889  1
  Pd  Pd187  1  0.79587730  0.00173444  0.19993536  1
  Pd  Pd188  1  0.39457325  0.40208344  0.78992431  1
  Pd  Pd189  1  0.59716704  0.20020956  0.20537575  1
  Pd  Pd190  1  0.60484053  0.60870105  0.79717703  1
  Pd  Pd191  1  0.80630578  0.80436048  0.40341420  1
  Pd  Pd192  1  0.60579609  0.59480878  0.20058626  1
  Pd  Pd193  1  0.59427723  0.40061819  0.38331543  1
  Pd  Pd194  1  -0.00483200  0.39549771  0.20595099  1
  Pd  Pd195  1  0.59266812  -0.00068927  0.59509794  1
  Pd  Pd196  1  0.79785293  0.79274143  0.80367432  1
  Pd  Pd197  1  0.20144249  0.60271035  0.40085234  1
  Pd  Pd198  1  0.19818870  0.59853633  0.18903951  1
  Pd  Pd199  1  0.20737399  0.41191916  0.19194303  1
  Rh  Rh200  1  0.59768656  -0.00207108  0.00303421  1
  Rh  Rh201  1  0.39322720  0.60195048  0.20880950  1
  Rh  Rh202  1  0.00605779  0.60088777  0.00373064  1
  Rh  Rh203  1  0.19770071  0.19906694  0.39536362  1
  Rh  Rh204  1  0.00888228  0.39184441  -0.00126064  1
  Rh  Rh205  1  0.20151516  0.40508014  0.80177780  1
  Rh  Rh206  1  0.40242912  0.79506582  0.19630575  1
  Rh  Rh207  1  0.20676934  0.20073872  0.80689244  1
  Rh  Rh208  1  0.79539930  -0.00302820  0.39416362  1
  Rh  Rh209  1  0.20585034  0.79297032  0.00142566  1
  Rh  Rh210  1  0.80012254  0.60240063  0.19961984  1
  Rh  Rh211  1  0.79138659  0.58630251  0.60287918  1
  Rh  Rh212  1  0.39718430  -0.00435572  0.40338646  1
  Rh  Rh213  1  0.61060441  0.21077181  -0.01149505  1
  Rh  Rh214  1  0.60990381  0.19678874  0.39974261  1
  Rh  Rh215  1  0.00903648  -0.00104310  0.39065754  1
  Rh  Rh216  1  0.40589043  0.80832610  0.59466557  1
  Rh  Rh217  1  0.39949076  0.39440926  0.01306263  1
  Rh  Rh218  1  0.20768693  0.19402022  0.20473608  1
  Rh  Rh219  1  0.20277052  0.00417051  0.20938554  1
  Rh  Rh220  1  0.59265533  0.60628670  0.40543966  1
  Rh  Rh221  1  0.60367770  0.79589089  0.79656251  1
  Rh  Rh222  1  0.79694942  0.39650064  0.19769147  1
  Rh  Rh223  1  0.79526525  0.80049222  0.00759294  1
  Rh  Rh224  1  0.20657794  0.40746501  0.60930672  1
  Rh  Rh225  1  0.19516764  0.19038932  0.59988243  1
  Rh  Rh226  1  0.00051637  0.20537978  0.19636426  1
  Rh  Rh227  1  0.40347060  0.79642021  0.81324639  1
  Rh  Rh228  1  0.19885340  0.80221953  0.20454136  1
  Rh  Rh229  1  0.38893147  0.19806616  0.00540546  1
  Rh  Rh230  1  0.20106225  -0.00096500  0.00266817  1
  Rh  Rh231  1  0.79603577  0.59425000  -0.00893000  1
  Rh  Rh232  1  -0.00219177  0.79994529  0.19852070  1
  Rh  Rh233  1  -0.00530183  0.19132416  0.79612215  1
  Rh  Rh234  1  0.20032264  0.40832509  0.39728654  1
  Rh  Rh235  1  0.81389146  0.41186410  0.79118542  1
  Rh  Rh236  1  0.39733328  0.19900068  0.20037752  1
  Rh  Rh237  1  0.79484032  0.39558992  0.00172809  1
  Rh  Rh238  1  0.60583259  0.59251262  -0.00169693  1
  Rh  Rh239  1  0.19138351  0.79833758  0.79761906  1
  Rh  Rh240  1  0.01414844  0.61183914  0.58664760  1
  Rh  Rh241  1  0.01089931  0.21057377  0.40693566  1
  Rh  Rh242  1  -0.00156622  0.40611663  0.79944808  1
  Rh  Rh243  1  0.39489717  -0.00706056  0.00265451  1
  Rh  Rh244  1  0.58960248  0.79965381  0.00755682  1
  Rh  Rh245  1  0.39340869  0.00527776  0.19798160  1
  Rh  Rh246  1  0.59394852  -0.00169258  0.20661698  1
  Rh  Rh247  1  -0.00778722  0.60376370  0.80478845  1
  Rh  Rh248  1  0.19589612  0.80135137  0.60521699  1
  Rh  Rh249  1  0.40057753  -0.00045481  0.80105910  1
