# generated using pymatgen
data_ZrScNbPdRh
_symmetry_space_group_name_H-M   'P 1'
_cell_length_a   16.55134650
_cell_length_b   16.55048092
_cell_length_c   16.55325231
_cell_angle_alpha   89.97232741
_cell_angle_beta   89.98387771
_cell_angle_gamma   90.01336477
_symmetry_Int_Tables_number   1
_chemical_formula_structural   ZrScNbPdRh
_chemical_formula_sum   'Zr50 Sc50 Nb50 Pd50 Rh50'
_cell_volume   4534.47700582
_cell_formula_units_Z   50
loop_
 _symmetry_equiv_pos_site_id
 _symmetry_equiv_pos_as_xyz
  1  'x, y, z'
loop_
 _atom_site_type_symbol
 _atom_site_label
 _atom_site_symmetry_multiplicity
 _atom_site_fract_x
 _atom_site_fract_y
 _atom_site_fract_z
 _atom_site_occupancy
  Zr  Zr0  1  0.09691020  0.49843073  0.69929785  1
  Zr  Zr1  1  0.30062296  0.29783637  0.10166736  1
  Zr  Zr2  1  0.70843205  0.29919011  0.29464574  1
  Zr  Zr3  1  0.49383075  0.30702546  0.50192483  1
  Zr  Zr4  1  0.50098821  0.70572047  0.10259042  1
  Zr  Zr5  1  0.50036422  0.30063482  0.29923683  1
  Zr  Zr6  1  0.89451094  0.89489855  0.29962369  1
  Zr  Zr7  1  0.10429167  0.10767961  0.89672679  1
  Zr  Zr8  1  0.90059150  0.90815679  0.09129431  1
  Zr  Zr9  1  0.70333153  0.09881095  0.51038039  1
  Zr  Zr10  1  0.30027600  0.70249873  0.90133545  1
  Zr  Zr11  1  0.90415217  0.71003871  0.49830972  1
  Zr  Zr12  1  0.50328409  0.70695701  0.89117744  1
  Zr  Zr13  1  0.09699085  0.49987007  0.50206690  1
  Zr  Zr14  1  0.50329305  0.90208010  0.09186287  1
  Zr  Zr15  1  0.68937535  0.49980988  0.51097508  1
  Zr  Zr16  1  0.70388015  0.30261022  0.69387972  1
  Zr  Zr17  1  0.30251429  0.29558015  0.49837260  1
  Zr  Zr18  1  0.90599015  0.50563415  0.69916788  1
  Zr  Zr19  1  0.30356575  0.28044218  0.29730976  1
  Zr  Zr20  1  0.49302762  0.89128945  0.69695508  1
  Zr  Zr21  1  0.28928894  0.70585869  0.10310396  1
  Zr  Zr22  1  0.49915779  0.29363792  0.69880800  1
  Zr  Zr23  1  0.89895458  0.70244896  0.69852350  1
  Zr  Zr24  1  0.70733525  0.50227796  0.70343461  1
  Zr  Zr25  1  0.09421540  0.90162414  0.29424587  1
  Zr  Zr26  1  0.10201083  0.49488925  0.90170738  1
  Zr  Zr27  1  0.69766306  0.90272978  0.69940796  1
  Zr  Zr28  1  0.50875820  0.69783577  0.30062094  1
  Zr  Zr29  1  0.29791785  0.49440229  0.69958529  1
  Zr  Zr30  1  0.89391638  0.30051634  0.10702122  1
  Zr  Zr31  1  0.10017390  0.89905316  0.49519110  1
  Zr  Zr32  1  0.09477868  0.29590969  0.89876410  1
  Zr  Zr33  1  0.09699739  0.30722490  0.09210251  1
  Zr  Zr34  1  0.90715987  0.49994680  0.10082589  1
  Zr  Zr35  1  0.49869753  0.10187732  0.69942927  1
  Zr  Zr36  1  0.30530668  0.29734706  0.69012520  1
  Zr  Zr37  1  0.50476198  0.29024972  0.90060000  1
  Zr  Zr38  1  0.29964777  0.49486721  0.10038988  1
  Zr  Zr39  1  0.31492007  0.70268809  0.70820073  1
  Zr  Zr40  1  0.09557843  0.69628833  0.70452850  1
  Zr  Zr41  1  0.90228625  0.49886328  0.29710570  1
  Zr  Zr42  1  0.89100784  0.49858027  0.90224167  1
  Zr  Zr43  1  0.71177466  0.30091534  0.49807119  1
  Zr  Zr44  1  0.10645041  0.70138351  0.29929262  1
  Zr  Zr45  1  0.89731329  0.29855459  0.90886877  1
  Zr  Zr46  1  0.70084980  0.70659047  0.49995005  1
  Zr  Zr47  1  0.29580115  0.09951928  0.10298440  1
  Zr  Zr48  1  0.51327509  0.50432426  0.69472197  1
  Zr  Zr49  1  0.10151236  0.70518437  0.90845042  1
  Sc  Sc50  1  0.69171153  0.10583100  0.90634512  1
  Sc  Sc51  1  0.89981401  0.70987459  0.89972295  1
  Sc  Sc52  1  0.89061007  0.09665912  0.69571454  1
  Sc  Sc53  1  0.50424972  0.49801210  0.90369298  1
  Sc  Sc54  1  0.69899007  0.90492623  0.10004175  1
  Sc  Sc55  1  0.49518817  0.09078561  0.49772049  1
  Sc  Sc56  1  0.28539759  0.30110024  0.90392150  1
  Sc  Sc57  1  0.49610965  0.10008741  0.30066420  1
  Sc  Sc58  1  0.30863035  0.49457261  0.49875122  1
  Sc  Sc59  1  0.69661922  0.71040141  0.10525165  1
  Sc  Sc60  1  0.50461020  0.90214301  0.30461097  1
  Sc  Sc61  1  0.70185720  0.09358516  0.29298171  1
  Sc  Sc62  1  0.70312127  0.89792474  0.29722333  1
  Sc  Sc63  1  0.09970905  0.91483528  0.69127721  1
  Sc  Sc64  1  0.29559681  0.89564617  0.09238867  1
  Sc  Sc65  1  0.70100336  0.29382931  0.10143111  1
  Sc  Sc66  1  0.30914223  0.90425237  0.49827463  1
  Sc  Sc67  1  0.09080101  0.50951951  0.30246026  1
  Sc  Sc68  1  0.70101198  0.50026404  0.10403693  1
  Sc  Sc69  1  0.70278823  0.50212417  0.90183742  1
  Sc  Sc70  1  0.09570372  0.70197543  0.49448915  1
  Sc  Sc71  1  0.49672274  0.30066999  0.10556375  1
  Sc  Sc72  1  0.89587277  0.89890953  0.70087896  1
  Sc  Sc73  1  0.08945459  0.09067075  0.49561169  1
  Sc  Sc74  1  0.89799326  0.30089249  0.30843573  1
  Sc  Sc75  1  0.09540121  0.28909320  0.30774824  1
  Sc  Sc76  1  0.09928431  0.30455796  0.70982030  1
  Sc  Sc77  1  0.50416276  0.90266163  0.50191152  1
  Sc  Sc78  1  0.30007137  0.08896193  0.70441914  1
  Sc  Sc79  1  0.69945280  0.70467005  0.89460620  1
  Sc  Sc80  1  0.90015880  0.10475083  0.91028458  1
  Sc  Sc81  1  0.50587193  0.09034421  0.09805030  1
  Sc  Sc82  1  0.90170524  0.30719959  0.70341106  1
  Sc  Sc83  1  0.69499877  0.89912911  0.50056128  1
  Sc  Sc84  1  0.69501077  0.70125827  0.69952147  1
  Sc  Sc85  1  0.09382159  0.30112841  0.49412560  1
  Sc  Sc86  1  0.50817955  0.70428659  0.49601746  1
  Sc  Sc87  1  0.50334788  0.49401909  0.11127173  1
  Sc  Sc88  1  0.70377984  0.09698042  0.10371869  1
  Sc  Sc89  1  0.30158505  0.70361975  0.48312239  1
  Sc  Sc90  1  0.89931849  0.08890781  0.30205768  1
  Sc  Sc91  1  0.49720521  0.09432451  0.90123073  1
  Sc  Sc92  1  0.30802086  0.09957454  0.49414466  1
  Sc  Sc93  1  0.29677568  0.49843887  0.89910489  1
  Sc  Sc94  1  0.90964373  0.49717825  0.49920190  1
  Sc  Sc95  1  0.89747882  0.09606717  0.49676193  1
  Sc  Sc96  1  0.70590125  0.89482477  0.90142578  1
  Sc  Sc97  1  0.09515882  0.90136469  0.91114638  1
  Sc  Sc98  1  0.69079793  0.49964550  0.30049756  1
  Sc  Sc99  1  0.09849564  0.08450738  0.09784170  1
  Nb  Nb100  1  0.50433843  0.90258920  0.90284589  1
  Nb  Nb101  1  0.09556940  0.70190612  0.09713134  1
  Nb  Nb102  1  0.30533659  0.90901129  0.89497058  1
  Nb  Nb103  1  0.09988944  0.09648747  0.29548130  1
  Nb  Nb104  1  0.91352157  0.90169594  0.49494186  1
  Nb  Nb105  1  0.09580731  0.50468814  0.10262458  1
  Nb  Nb106  1  0.89643474  0.10075313  0.10424181  1
  Nb  Nb107  1  0.49507788  0.50585834  0.30724786  1
  Nb  Nb108  1  0.29826627  0.89756887  0.69859129  1
  Nb  Nb109  1  0.29842444  0.09404047  0.90751284  1
  Nb  Nb110  1  0.29613828  0.89039389  0.29998199  1
  Nb  Nb111  1  0.90534648  0.29313733  0.49834688  1
  Nb  Nb112  1  0.69981052  0.09962883  0.69828151  1
  Nb  Nb113  1  0.70820720  0.70542066  0.30058240  1
  Nb  Nb114  1  0.09406271  0.10354191  0.69967667  1
  Nb  Nb115  1  0.69983499  0.29801107  0.89740849  1
  Nb  Nb116  1  0.09387959  0.88764496  0.09848864  1
  Nb  Nb117  1  0.49849800  0.50375271  0.49439653  1
  Nb  Nb118  1  0.50361151  0.69993752  0.70366408  1
  Nb  Nb119  1  0.90266428  0.69778678  0.10233676  1
  Nb  Nb120  1  0.29898634  0.51061663  0.30276773  1
  Nb  Nb121  1  0.29779168  0.09732370  0.29612679  1
  Nb  Nb122  1  0.90164797  0.90328843  0.89577107  1
  Nb  Nb123  1  0.30020294  0.70306335  0.29783748  1
  Nb  Nb124  1  0.89858960  0.70232760  0.30042929  1
  Nb  Nb125  1  0.59446834  0.60618023  0.00419314  1
  Nb  Nb126  1  0.60273839  0.39245591  0.80024676  1
  Nb  Nb127  1  0.60031306  -0.00106020  0.79681409  1
  Nb  Nb128  1  0.20313165  0.00155898  0.38766462  1
  Nb  Nb129  1  0.20494491  0.40112714  0.38988750  1
  Nb  Nb130  1  0.79460237  0.20237342  0.80095583  1
  Nb  Nb131  1  0.39312779  0.19448131  -0.00062751  1
  Nb  Nb132  1  0.00023058  0.19900271  0.60251763  1
  Nb  Nb133  1  0.60376719  0.20260809  0.40498055  1
  Nb  Nb134  1  0.80269879  0.60824001  0.20492494  1
  Nb  Nb135  1  0.60232229  0.19949655  0.59591148  1
  Nb  Nb136  1  0.19859251  0.40303970  0.20682839  1
  Nb  Nb137  1  -0.00304191  0.00491796  0.80410548  1
  Nb  Nb138  1  0.39127391  -0.00506934  0.20404839  1
  Nb  Nb139  1  0.19190101  0.19353365  0.60104909  1
  Nb  Nb140  1  0.20414807  0.80984690  0.79752837  1
  Nb  Nb141  1  0.39659393  0.60302472  0.20606290  1
  Nb  Nb142  1  0.20720312  0.60638015  0.60162075  1
  Nb  Nb143  1  0.40643395  0.39502428  0.79782682  1
  Nb  Nb144  1  0.79994983  0.60521237  0.39667236  1
  Nb  Nb145  1  0.20608504  0.79815525  0.60538442  1
  Nb  Nb146  1  -0.00269949  0.79490119  0.19355506  1
  Nb  Nb147  1  0.40299824  0.60276795  0.00741639  1
  Nb  Nb148  1  -0.00225476  0.19180939  0.19956111  1
  Nb  Nb149  1  0.40492036  0.60287198  0.59823979  1
  Pd  Pd150  1  0.80060976  0.79852199  0.00281301  1
  Pd  Pd151  1  0.20129660  0.59525544  0.40958672  1
  Pd  Pd152  1  0.20584089  0.00318998  0.58800461  1
  Pd  Pd153  1  0.19594817  -0.00633034  0.00044090  1
  Pd  Pd154  1  0.00776808  0.80518403  0.60642934  1
  Pd  Pd155  1  -0.00452513  0.60133054  0.81275745  1
  Pd  Pd156  1  0.40824471  0.80281683  0.39994848  1
  Pd  Pd157  1  0.60342872  0.40010076  0.20224127  1
  Pd  Pd158  1  0.20312986  0.59523480  0.00309757  1
  Pd  Pd159  1  0.79998357  0.19058201  0.39335298  1
  Pd  Pd160  1  0.20876796  0.19984260  0.79198301  1
  Pd  Pd161  1  0.18444914  0.20406073  0.19282315  1
  Pd  Pd162  1  0.80117968  0.41238481  0.40458409  1
  Pd  Pd163  1  0.60182663  0.39537264  0.39841178  1
  Pd  Pd164  1  0.19348003  0.19220397  0.40961582  1
  Pd  Pd165  1  0.79427111  -0.00663577  0.40467486  1
  Pd  Pd166  1  0.40143799  0.39640427  -0.00931316  1
  Pd  Pd167  1  0.80541532  0.59936705  0.59021192  1
  Pd  Pd168  1  0.79801246  0.00933203  0.81052831  1
  Pd  Pd169  1  0.60881280  0.60230084  0.40111882  1
  Pd  Pd170  1  0.00243264  0.19312649  0.01187633  1
  Pd  Pd171  1  0.19056051  -0.00493033  0.80359749  1
  Pd  Pd172  1  -0.00535347  0.40108217  0.80608602  1
  Pd  Pd173  1  0.79220488  0.39785779  0.00836382  1
  Pd  Pd174  1  0.20315131  -0.01160023  0.19831048  1
  Pd  Pd175  1  0.39795668  0.80076087  -0.00527727  1
  Pd  Pd176  1  0.00889477  0.81431537  0.79600603  1
  Pd  Pd177  1  0.19969953  0.60421825  0.79765483  1
  Pd  Pd178  1  0.40704722  -0.00289281  0.79841886  1
  Pd  Pd179  1  -0.00212711  0.60020858  -0.00778979  1
  Pd  Pd180  1  0.80043777  0.60958197  0.80183762  1
  Pd  Pd181  1  0.19330054  0.39394702  0.59136344  1
  Pd  Pd182  1  0.60425930  0.40364416  -0.00098067  1
  Pd  Pd183  1  0.39771906  0.79265992  0.58809398  1
  Pd  Pd184  1  0.79990604  0.80893178  0.59803243  1
  Pd  Pd185  1  0.60197190  0.80883177  0.20394185  1
  Pd  Pd186  1  0.79462371  0.00551166  -0.00623505  1
  Pd  Pd187  1  0.81300769  0.40376909  0.59463507  1
  Pd  Pd188  1  0.38610369  0.20143800  0.81108286  1
  Pd  Pd189  1  0.39385820  0.40576732  0.21200505  1
  Pd  Pd190  1  0.40776811  0.58748587  0.80339864  1
  Pd  Pd191  1  0.59508262  0.19757678  0.01010387  1
  Pd  Pd192  1  0.59788976  0.19403414  0.20373861  1
  Pd  Pd193  1  0.60471075  0.00627205  0.39773413  1
  Pd  Pd194  1  0.00802496  0.38957964  0.20947126  1
  Pd  Pd195  1  0.19905567  0.59622108  0.19727135  1
  Pd  Pd196  1  0.40215812  0.80360937  0.20343622  1
  Pd  Pd197  1  0.39203327  0.39815230  0.38991029  1
  Pd  Pd198  1  0.80739554  -0.01131821  0.59209378  1
  Pd  Pd199  1  0.79001271  0.60917501  0.00918020  1
  Rh  Rh200  1  0.80706686  0.20464115  0.60684118  1
  Rh  Rh201  1  0.41057746  0.19676838  0.40049653  1
  Rh  Rh202  1  0.59461775  0.61012898  0.59670843  1
  Rh  Rh203  1  0.19216120  0.80133553  0.19785448  1
  Rh  Rh204  1  0.80078081  0.79864882  0.79654724  1
  Rh  Rh205  1  0.59421743  0.00362765  0.60611987  1
  Rh  Rh206  1  0.61020287  0.19679121  0.79129248  1
  Rh  Rh207  1  -0.00929743  0.00449804  0.60538259  1
  Rh  Rh208  1  0.60361776  0.59378902  0.80824224  1
  Rh  Rh209  1  0.39687368  0.18843651  0.59518405  1
  Rh  Rh210  1  0.00472394  0.60504808  0.59547898  1
  Rh  Rh211  1  -0.00684930  0.60523119  0.40102550  1
  Rh  Rh212  1  0.80932028  0.19517504  0.20525063  1
  Rh  Rh213  1  -0.00085052  0.00393918  -0.00435328  1
  Rh  Rh214  1  -0.00218469  0.40551701  -0.00435915  1
  Rh  Rh215  1  -0.01558527  0.19152092  0.79102262  1
  Rh  Rh216  1  0.60127961  0.60043718  0.19883326  1
  Rh  Rh217  1  0.80638026  0.79991161  0.19074058  1
  Rh  Rh218  1  0.20091155  0.19635987  0.00478095  1
  Rh  Rh219  1  0.60336867  0.80388416  0.39655298  1
  Rh  Rh220  1  0.59528552  0.39386872  0.60041964  1
  Rh  Rh221  1  0.39693805  0.00273537  0.00596431  1
  Rh  Rh222  1  0.60565948  0.79821657  -0.00391859  1
  Rh  Rh223  1  0.19530068  0.40539076  0.00520830  1
  Rh  Rh224  1  0.40898224  0.18532592  0.18970676  1
  Rh  Rh225  1  -0.00916925  0.79865235  0.00383985  1
  Rh  Rh226  1  0.39943448  0.81030872  0.80819316  1
  Rh  Rh227  1  0.79770298  0.40776962  0.19909974  1
  Rh  Rh228  1  0.39842013  -0.00060136  0.60323097  1
  Rh  Rh229  1  0.60658817  -0.00337198  -0.00825848  1
  Rh  Rh230  1  0.40964638  0.41369801  0.60562486  1
  Rh  Rh231  1  0.79517914  0.19926341  -0.00004577  1
  Rh  Rh232  1  0.00220774  -0.00054553  0.39383111  1
  Rh  Rh233  1  0.40235755  0.60580161  0.39943109  1
  Rh  Rh234  1  0.59340483  -0.00321299  0.20108347  1
  Rh  Rh235  1  0.80083410  0.80419832  0.40691734  1
  Rh  Rh236  1  0.20287469  0.80719835  -0.00917325  1
  Rh  Rh237  1  0.59887282  0.79688298  0.60308491  1
  Rh  Rh238  1  0.20035116  0.80752971  0.40349177  1
  Rh  Rh239  1  -0.00532741  0.19052456  0.39892523  1
  Rh  Rh240  1  0.20483882  0.39640054  0.80016668  1
  Rh  Rh241  1  0.80146181  -0.00383622  0.19744845  1
  Rh  Rh242  1  -0.00012254  0.38938433  0.59945830  1
  Rh  Rh243  1  0.60092255  0.81061661  0.79843827  1
  Rh  Rh244  1  -0.00155030  0.60849295  0.20002926  1
  Rh  Rh245  1  0.00460942  0.39918111  0.39766862  1
  Rh  Rh246  1  0.79707080  0.39524983  0.80362868  1
  Rh  Rh247  1  0.00281587  0.79863979  0.39014907  1
  Rh  Rh248  1  -0.00535910  -0.00201786  0.19562401  1
  Rh  Rh249  1  0.39281231  -0.00609445  0.38892886  1
