# generated using pymatgen
data_ZrScNbPdRh
_symmetry_space_group_name_H-M   'P 1'
_cell_length_a   16.55100682
_cell_length_b   16.55210126
_cell_length_c   16.55123245
_cell_angle_alpha   90.01874528
_cell_angle_beta   89.99006195
_cell_angle_gamma   89.99563440
_symmetry_Int_Tables_number   1
_chemical_formula_structural   ZrScNbPdRh
_chemical_formula_sum   'Zr50 Sc50 Nb50 Pd50 Rh50'
_cell_volume   4534.27503376
_cell_formula_units_Z   50
loop_
 _symmetry_equiv_pos_site_id
 _symmetry_equiv_pos_as_xyz
  1  'x, y, z'
loop_
 _atom_site_type_symbol
 _atom_site_label
 _atom_site_symmetry_multiplicity
 _atom_site_fract_x
 _atom_site_fract_y
 _atom_site_fract_z
 _atom_site_occupancy
  Zr  Zr0  1  0.10589993  0.09852308  0.69355904  1
  Zr  Zr1  1  0.49965180  0.90010669  0.89930087  1
  Zr  Zr2  1  0.09385546  0.30121111  0.89791596  1
  Zr  Zr3  1  0.70257093  0.10155849  0.90095400  1
  Zr  Zr4  1  0.09684927  0.70623577  0.89900453  1
  Zr  Zr5  1  0.30239857  0.29094607  0.90074591  1
  Zr  Zr6  1  0.09264338  0.50108379  0.29424555  1
  Zr  Zr7  1  0.49609668  0.49569390  0.70029665  1
  Zr  Zr8  1  0.09890555  0.30517296  0.69453497  1
  Zr  Zr9  1  0.70226499  0.89615666  0.10160968  1
  Zr  Zr10  1  0.09766379  0.70811672  0.10097528  1
  Zr  Zr11  1  0.50190038  0.29541097  0.69371748  1
  Zr  Zr12  1  0.50173869  0.69859781  0.69577999  1
  Zr  Zr13  1  0.89974935  0.09072101  0.89025569  1
  Zr  Zr14  1  0.69478126  0.29950772  0.70032270  1
  Zr  Zr15  1  0.89895446  0.29538479  0.49870047  1
  Zr  Zr16  1  0.09493583  0.50670635  0.70305333  1
  Zr  Zr17  1  0.10159749  0.30096218  0.50458473  1
  Zr  Zr18  1  0.09407057  0.90866088  0.29624425  1
  Zr  Zr19  1  0.09874424  0.31069759  0.30597108  1
  Zr  Zr20  1  0.89598968  0.29686724  0.29724740  1
  Zr  Zr21  1  0.29985133  0.70290300  0.11198430  1
  Zr  Zr22  1  0.30149321  0.10237392  0.09277984  1
  Zr  Zr23  1  0.69456284  0.50694439  0.10509727  1
  Zr  Zr24  1  0.90039676  0.30247188  0.70023492  1
  Zr  Zr25  1  0.50273097  0.09378816  0.11285592  1
  Zr  Zr26  1  0.09285785  0.30745912  0.10375492  1
  Zr  Zr27  1  0.49892093  0.29818168  0.09718904  1
  Zr  Zr28  1  0.70664825  0.89390490  0.69345661  1
  Zr  Zr29  1  0.29740671  0.09957625  0.50440486  1
  Zr  Zr30  1  0.10104515  0.49569422  0.49750197  1
  Zr  Zr31  1  0.30209800  0.29850222  0.10206255  1
  Zr  Zr32  1  0.69698958  0.70358119  0.51029899  1
  Zr  Zr33  1  0.71120619  0.49954685  0.89458482  1
  Zr  Zr34  1  0.90298849  0.09059835  0.30491621  1
  Zr  Zr35  1  0.70208933  0.50002763  0.30463156  1
  Zr  Zr36  1  0.09647822  0.70158057  0.29469274  1
  Zr  Zr37  1  0.50237022  0.89175646  0.09695011  1
  Zr  Zr38  1  0.49098008  0.69741023  0.49899747  1
  Zr  Zr39  1  0.70305332  0.29981770  0.30101059  1
  Zr  Zr40  1  0.90011433  0.10066787  0.49896173  1
  Zr  Zr41  1  0.90012229  0.90569093  0.70057041  1
  Zr  Zr42  1  0.50934104  0.90346321  0.29767744  1
  Zr  Zr43  1  0.90239851  0.70608831  0.30536825  1
  Zr  Zr44  1  0.91248118  0.50175115  0.90145316  1
  Zr  Zr45  1  0.48942009  0.70358686  0.30244441  1
  Zr  Zr46  1  0.30221025  0.50180876  0.09645687  1
  Zr  Zr47  1  0.29152347  0.70518294  0.69063391  1
  Zr  Zr48  1  0.50303761  0.69373467  0.10120961  1
  Zr  Zr49  1  0.70701265  0.69833067  0.70443210  1
  Sc  Sc50  1  0.30233462  0.29558834  0.70094757  1
  Sc  Sc51  1  0.29379949  0.90621468  0.69504825  1
  Sc  Sc52  1  0.50230366  0.09738626  0.88550768  1
  Sc  Sc53  1  0.48679107  0.29947730  0.30245206  1
  Sc  Sc54  1  0.49813209  0.49591836  0.30388801  1
  Sc  Sc55  1  0.30081916  0.89905466  0.50445108  1
  Sc  Sc56  1  0.89978419  0.89655991  0.89208886  1
  Sc  Sc57  1  0.10819398  0.08797519  0.10215617  1
  Sc  Sc58  1  0.09427638  0.69989229  0.51305949  1
  Sc  Sc59  1  0.30582304  0.49648939  0.50152974  1
  Sc  Sc60  1  0.70434117  0.10321330  0.70258742  1
  Sc  Sc61  1  0.69329733  0.30407630  0.49831751  1
  Sc  Sc62  1  0.49692401  0.90869684  0.69806765  1
  Sc  Sc63  1  0.48860454  0.50264107  0.90217894  1
  Sc  Sc64  1  0.49828143  0.69991469  0.91132374  1
  Sc  Sc65  1  0.30505835  0.89231523  0.29423910  1
  Sc  Sc66  1  0.30463112  0.09864379  0.69840285  1
  Sc  Sc67  1  0.10269650  0.90285273  0.50327149  1
  Sc  Sc68  1  0.11564993  0.09300247  0.89480264  1
  Sc  Sc69  1  0.89800321  0.89678927  0.10888635  1
  Sc  Sc70  1  0.30357043  0.50739831  0.70584726  1
  Sc  Sc71  1  0.51039272  0.88589163  0.49219255  1
  Sc  Sc72  1  0.89455113  0.29854647  0.09922021  1
  Sc  Sc73  1  0.29069164  0.89488901  0.09788186  1
  Sc  Sc74  1  0.70457656  0.09526468  0.10305025  1
  Sc  Sc75  1  0.89748633  0.51254747  0.49056951  1
  Sc  Sc76  1  0.49937168  0.50492494  0.09470086  1
  Sc  Sc77  1  0.50295853  0.10572824  0.69876800  1
  Sc  Sc78  1  0.70333234  0.70393404  0.90121364  1
  Sc  Sc79  1  0.70336734  0.30201063  0.90355030  1
  Sc  Sc80  1  0.69953864  0.51161027  0.69957875  1
  Sc  Sc81  1  0.30685947  0.29981673  0.49811608  1
  Sc  Sc82  1  0.70138247  0.90042313  0.90269117  1
  Sc  Sc83  1  0.70840922  0.29325890  0.09966331  1
  Sc  Sc84  1  0.70676242  0.10598439  0.49923306  1
  Sc  Sc85  1  0.29840449  0.49088673  0.30102773  1
  Sc  Sc86  1  0.89541292  0.50660304  0.71200869  1
  Sc  Sc87  1  0.90379464  0.70555570  0.49777655  1
  Sc  Sc88  1  0.89289859  0.30706272  0.90091495  1
  Sc  Sc89  1  0.69852263  0.09491261  0.29308253  1
  Sc  Sc90  1  0.70804830  0.69092536  0.29643238  1
  Sc  Sc91  1  0.90316332  0.70257139  0.89723814  1
  Sc  Sc92  1  0.29502673  0.69998014  0.90016924  1
  Sc  Sc93  1  0.30607401  0.09674519  0.29787745  1
  Sc  Sc94  1  0.90412229  0.70911662  0.10623764  1
  Sc  Sc95  1  0.49595530  0.29909129  0.89201886  1
  Sc  Sc96  1  0.89856823  0.50778206  0.29776620  1
  Sc  Sc97  1  0.88956191  0.09591714  0.10183936  1
  Sc  Sc98  1  0.10321864  0.89518393  0.70289631  1
  Sc  Sc99  1  0.49549098  0.11031559  0.50643010  1
  Nb  Nb100  1  0.29462211  0.49941196  0.89963397  1
  Nb  Nb101  1  0.90092084  0.09510683  0.70075168  1
  Nb  Nb102  1  0.09496740  0.50202551  0.90446820  1
  Nb  Nb103  1  0.69695908  0.69908535  0.10236645  1
  Nb  Nb104  1  0.50316156  0.30378473  0.49985969  1
  Nb  Nb105  1  0.91347256  0.50209806  0.09689004  1
  Nb  Nb106  1  0.09971524  0.89440533  0.09318425  1
  Nb  Nb107  1  0.90940239  0.70660922  0.70285388  1
  Nb  Nb108  1  0.08906563  0.50275159  0.09616989  1
  Nb  Nb109  1  0.50172833  0.09741259  0.30195124  1
  Nb  Nb110  1  0.10010702  0.09758974  0.49422679  1
  Nb  Nb111  1  0.29187177  0.90286981  0.89422707  1
  Nb  Nb112  1  0.09484700  0.70494115  0.69738796  1
  Nb  Nb113  1  0.89201045  0.90435776  0.49659515  1
  Nb  Nb114  1  0.69626193  0.49896404  0.49761897  1
  Nb  Nb115  1  0.50767558  0.48287459  0.50005198  1
  Nb  Nb116  1  0.30186161  0.09362731  0.89671831  1
  Nb  Nb117  1  0.30231549  0.70384927  0.49335440  1
  Nb  Nb118  1  0.29391207  0.29837602  0.30453733  1
  Nb  Nb119  1  0.10997693  0.89910060  0.90534706  1
  Nb  Nb120  1  0.70433492  0.89850121  0.50067417  1
  Nb  Nb121  1  0.29907279  0.69933219  0.30404122  1
  Nb  Nb122  1  0.89345212  0.89572681  0.30905238  1
  Nb  Nb123  1  0.10027185  0.09647103  0.30494843  1
  Nb  Nb124  1  0.70493614  0.89451165  0.30639759  1
  Nb  Nb125  1  0.80362813  0.60021319  0.00766465  1
  Nb  Nb126  1  0.20272429  0.60636202  0.39940186  1
  Nb  Nb127  1  0.19594029  0.40554408  -0.00263218  1
  Nb  Nb128  1  -0.00043193  0.18982017  -0.00200379  1
  Nb  Nb129  1  0.19861097  0.40585575  0.80765841  1
  Nb  Nb130  1  0.59836368  0.40348276  0.79772507  1
  Nb  Nb131  1  0.59827979  0.19603266  0.00138607  1
  Nb  Nb132  1  0.39845875  0.80304518  0.79941100  1
  Nb  Nb133  1  0.19248615  0.59467329  0.00169803  1
  Nb  Nb134  1  0.19549321  0.20092315  0.20839615  1
  Nb  Nb135  1  0.00646736  -0.00544470  -0.00301754  1
  Nb  Nb136  1  0.19705674  0.19702263  0.39656027  1
  Nb  Nb137  1  0.60549991  0.79610088  0.20008333  1
  Nb  Nb138  1  0.59187503  0.20065273  0.39623981  1
  Nb  Nb139  1  -0.00048094  0.19410125  0.79885824  1
  Nb  Nb140  1  0.59425375  0.79966303  0.79753345  1
  Nb  Nb141  1  0.59773705  0.59510726  0.40798741  1
  Nb  Nb142  1  0.40903466  0.00141427  0.39823044  1
  Nb  Nb143  1  -0.00519474  0.00376958  0.59709983  1
  Nb  Nb144  1  0.60846953  -0.00427219  0.59214682  1
  Nb  Nb145  1  0.79616630  0.40571446  0.59687497  1
  Nb  Nb146  1  0.00616713  0.19340729  0.20128784  1
  Nb  Nb147  1  0.20194929  0.79286949  0.39851592  1
  Nb  Nb148  1  0.60197330  0.39882965  0.19906322  1
  Nb  Nb149  1  0.39562820  -0.00134804  -0.00605342  1
  Pd  Pd150  1  0.60119917  0.20730314  0.20143169  1
  Pd  Pd151  1  0.40177811  0.80794370  0.60414204  1
  Pd  Pd152  1  0.81175735  0.79558339  0.59846373  1
  Pd  Pd153  1  -0.00406973  0.00033992  0.19148256  1
  Pd  Pd154  1  0.59528296  0.00801497  0.00071195  1
  Pd  Pd155  1  0.00394759  0.80717638  0.80015519  1
  Pd  Pd156  1  0.80032661  0.40600020  0.19295429  1
  Pd  Pd157  1  0.81109890  0.60201676  0.19304540  1
  Pd  Pd158  1  -0.01514953  0.41471843  0.59832489  1
  Pd  Pd159  1  0.39895087  0.59489248  0.59606715  1
  Pd  Pd160  1  0.40194554  0.59137445  0.20491942  1
  Pd  Pd161  1  0.41300806  0.18719631  -0.00816576  1
  Pd  Pd162  1  0.00026273  0.19352425  0.60364378  1
  Pd  Pd163  1  0.20208906  0.59839861  0.59241730  1
  Pd  Pd164  1  0.80552629  0.79481658  -0.00044062  1
  Pd  Pd165  1  0.80320037  0.40925387  0.00891479  1
  Pd  Pd166  1  0.61019153  0.78519889  0.39139857  1
  Pd  Pd167  1  0.39938555  0.58743260  0.40222753  1
  Pd  Pd168  1  0.79132986  0.00403367  0.39860713  1
  Pd  Pd169  1  0.59500881  0.59426751  0.59553822  1
  Pd  Pd170  1  0.59891924  0.39420712  -0.00285303  1
  Pd  Pd171  1  0.80525563  0.20430500  0.80257903  1
  Pd  Pd172  1  0.39363467  0.39618350  0.60375709  1
  Pd  Pd173  1  0.39873900  0.61061001  0.80375588  1
  Pd  Pd174  1  0.80838231  0.59879356  0.59874831  1
  Pd  Pd175  1  0.59924761  0.01022158  0.40981506  1
  Pd  Pd176  1  0.79565085  0.20535795  0.60109495  1
  Pd  Pd177  1  0.19395275  0.60247630  0.80345247  1
  Pd  Pd178  1  0.39708656  0.39953298  -0.00538381  1
  Pd  Pd179  1  0.60784258  0.59934951  -0.01028793  1
  Pd  Pd180  1  0.00898966  0.80636119  0.40739947  1
  Pd  Pd181  1  0.19823408  0.20333812  0.79473573  1
  Pd  Pd182  1  0.39466181  0.20018911  0.20640445  1
  Pd  Pd183  1  0.59364590  0.60142132  0.80992127  1
  Pd  Pd184  1  0.39474874  -0.00748570  0.19702219  1
  Pd  Pd185  1  0.20050169  0.40176690  0.19451409  1
  Pd  Pd186  1  0.80894559  -0.00740752  -0.00177691  1
  Pd  Pd187  1  -0.01175986  0.40536024  0.40023718  1
  Pd  Pd188  1  0.00483955  0.20066270  0.39532344  1
  Pd  Pd189  1  0.19868439  0.59399224  0.20070024  1
  Pd  Pd190  1  0.20995141  0.40493371  0.60845938  1
  Pd  Pd191  1  0.40576211  0.40291298  0.20076602  1
  Pd  Pd192  1  0.60835027  -0.00549737  0.78857973  1
  Pd  Pd193  1  0.18980869  0.20317145  0.00719966  1
  Pd  Pd194  1  0.20667779  -0.00118714  0.20123621  1
  Pd  Pd195  1  -0.00927071  0.59715851  0.60214488  1
  Pd  Pd196  1  0.80527144  0.40119025  0.40703475  1
  Pd  Pd197  1  0.21211798  -0.00466043  0.39769374  1
  Pd  Pd198  1  0.38833660  0.80261555  -0.00436179  1
  Pd  Pd199  1  0.41184209  -0.00509343  0.58846956  1
  Rh  Rh200  1  0.19678210  0.79915511  0.59376445  1
  Rh  Rh201  1  0.39878790  0.19492219  0.79605066  1
  Rh  Rh202  1  -0.01132749  0.39737680  0.20147394  1
  Rh  Rh203  1  0.79075899  0.40086341  0.78826889  1
  Rh  Rh204  1  0.39364501  -0.00389313  0.80225283  1
  Rh  Rh205  1  0.79085361  0.19691109  0.39423759  1
  Rh  Rh206  1  0.79963937  -0.00833599  0.20872712  1
  Rh  Rh207  1  0.39883756  0.19628624  0.39999141  1
  Rh  Rh208  1  0.00240298  0.60718759  0.79754476  1
  Rh  Rh209  1  0.59691282  0.39591195  0.38985555  1
  Rh  Rh210  1  0.79041417  0.61018321  0.40882961  1
  Rh  Rh211  1  0.38820920  0.60626893  0.00027160  1
  Rh  Rh212  1  0.60613274  0.79489434  0.00034746  1
  Rh  Rh213  1  0.01254768  0.00311726  0.79940515  1
  Rh  Rh214  1  0.80820590  0.19117233  0.20512848  1
  Rh  Rh215  1  0.60367171  0.19240862  0.59006256  1
  Rh  Rh216  1  0.01068176  0.60186311  0.40019908  1
  Rh  Rh217  1  0.39722943  0.39851462  0.80021133  1
  Rh  Rh218  1  0.79593611  0.79931406  0.79949374  1
  Rh  Rh219  1  0.59483413  0.80800877  0.60901798  1
  Rh  Rh220  1  0.39880593  0.20525328  0.60131390  1
  Rh  Rh221  1  -0.00129552  0.80961301  0.20397073  1
  Rh  Rh222  1  0.20404232  0.79212434  -0.00051061  1
  Rh  Rh223  1  0.60952422  -0.00984843  0.20015604  1
  Rh  Rh224  1  0.80060593  0.00246815  0.59878102  1
  Rh  Rh225  1  -0.00187844  0.61290862  0.00489527  1
  Rh  Rh226  1  0.79117120  -0.00415261  0.79830563  1
  Rh  Rh227  1  0.39772826  0.39703636  0.40194862  1
  Rh  Rh228  1  0.20336165  -0.00261876  0.00040721  1
  Rh  Rh229  1  0.39205877  0.81168192  0.40128242  1
  Rh  Rh230  1  -0.00497957  0.60519449  0.19787560  1
  Rh  Rh231  1  -0.00401743  0.39021498  0.00057884  1
  Rh  Rh232  1  0.19449671  0.80631139  0.20839880  1
  Rh  Rh233  1  0.00383901  0.39666243  0.79714454  1
  Rh  Rh234  1  0.79626768  0.79431762  0.40382541  1
  Rh  Rh235  1  0.60716840  0.40519681  0.60938520  1
  Rh  Rh236  1  -0.00170981  -0.00781442  0.40911513  1
  Rh  Rh237  1  0.20161285  -0.00198603  0.79271122  1
  Rh  Rh238  1  -0.00396782  0.81205229  0.60009842  1
  Rh  Rh239  1  0.20421278  0.40173592  0.40611121  1
  Rh  Rh240  1  -0.00473209  0.80947303  -0.00279340  1
  Rh  Rh241  1  0.19303179  -0.00060697  0.59940262  1
  Rh  Rh242  1  0.79510530  0.80062266  0.20629725  1
  Rh  Rh243  1  0.80917636  0.60831530  0.80748006  1
  Rh  Rh244  1  0.20294695  0.20062701  0.59160253  1
  Rh  Rh245  1  0.40629942  0.80211479  0.19850079  1
  Rh  Rh246  1  0.79981805  0.19549287  -0.00399884  1
  Rh  Rh247  1  0.59239943  0.59991896  0.21231112  1
  Rh  Rh248  1  0.60235499  0.20895806  0.80895435  1
  Rh  Rh249  1  0.20384752  0.79868557  0.79683854  1
