# generated using pymatgen
data_ZrScNbPdRh
_symmetry_space_group_name_H-M   'P 1'
_cell_length_a   16.55759770
_cell_length_b   16.55777871
_cell_length_c   16.56061027
_cell_angle_alpha   89.95228332
_cell_angle_beta   89.98336348
_cell_angle_gamma   90.04204906
_symmetry_Int_Tables_number   1
_chemical_formula_structural   ZrScNbPdRh
_chemical_formula_sum   'Zr50 Sc50 Nb50 Pd50 Rh50'
_cell_volume   4540.20487935
_cell_formula_units_Z   50
loop_
 _symmetry_equiv_pos_site_id
 _symmetry_equiv_pos_as_xyz
  1  'x, y, z'
loop_
 _atom_site_type_symbol
 _atom_site_label
 _atom_site_symmetry_multiplicity
 _atom_site_fract_x
 _atom_site_fract_y
 _atom_site_fract_z
 _atom_site_occupancy
  Zr  Zr0  1  0.49885945  0.69875101  0.08819909  1
  Zr  Zr1  1  0.29636642  0.90298867  0.69345689  1
  Zr  Zr2  1  0.89757312  0.90037668  0.30673789  1
  Zr  Zr3  1  0.49779146  0.49882353  0.89353003  1
  Zr  Zr4  1  0.49922184  0.09578820  0.69754705  1
  Zr  Zr5  1  0.90148725  0.90585747  0.89925750  1
  Zr  Zr6  1  0.10907015  0.49869775  0.70145248  1
  Zr  Zr7  1  0.90515826  0.10730470  0.08975718  1
  Zr  Zr8  1  0.90376870  0.49383752  0.90574050  1
  Zr  Zr9  1  0.50537949  0.90283631  0.29895121  1
  Zr  Zr10  1  0.30124555  0.89688542  0.89754443  1
  Zr  Zr11  1  0.29443047  0.29889484  0.49723139  1
  Zr  Zr12  1  0.10628451  0.30175208  0.50738172  1
  Zr  Zr13  1  0.68690576  0.90250957  0.89825501  1
  Zr  Zr14  1  0.89857679  0.30045959  0.29404932  1
  Zr  Zr15  1  0.50849030  0.89029162  0.71447445  1
  Zr  Zr16  1  0.30379590  0.49461109  0.50150288  1
  Zr  Zr17  1  0.70988095  0.29922225  0.88845890  1
  Zr  Zr18  1  0.30149778  0.50096360  0.09296737  1
  Zr  Zr19  1  0.29663011  0.48706539  0.29219605  1
  Zr  Zr20  1  0.49991226  0.29900355  0.10429675  1
  Zr  Zr21  1  0.70029943  0.69109615  0.09395209  1
  Zr  Zr22  1  0.30197754  0.90079091  0.30255336  1
  Zr  Zr23  1  0.70437645  0.89540600  0.69988271  1
  Zr  Zr24  1  0.30057366  0.30346412  0.90025463  1
  Zr  Zr25  1  0.90115866  0.49832081  0.30070543  1
  Zr  Zr26  1  0.90078539  0.09085980  0.50329471  1
  Zr  Zr27  1  0.08830426  0.28910688  0.09662838  1
  Zr  Zr28  1  0.90496923  0.29544771  0.90667336  1
  Zr  Zr29  1  0.09882025  0.31102359  0.88914251  1
  Zr  Zr30  1  0.70257188  0.70745442  0.69733625  1
  Zr  Zr31  1  0.28950509  0.49970391  0.89578883  1
  Zr  Zr32  1  0.50380617  0.10059113  0.49720933  1
  Zr  Zr33  1  0.89580154  0.30165047  0.50097663  1
  Zr  Zr34  1  0.70170294  0.50118104  0.09724116  1
  Zr  Zr35  1  0.90153330  0.90960161  0.09561220  1
  Zr  Zr36  1  0.50503728  0.09758577  0.90391397  1
  Zr  Zr37  1  0.10647380  0.09756216  0.10597347  1
  Zr  Zr38  1  0.70407789  0.30322951  0.69626142  1
  Zr  Zr39  1  0.70080696  0.90392654  0.10305845  1
  Zr  Zr40  1  0.09599567  0.69901859  0.49548417  1
  Zr  Zr41  1  0.71012335  0.89855276  0.50441637  1
  Zr  Zr42  1  0.50247507  0.10707087  0.09844631  1
  Zr  Zr43  1  0.50891863  0.49668281  0.09395540  1
  Zr  Zr44  1  0.89235304  0.30119544  0.70554473  1
  Zr  Zr45  1  0.10160280  0.10011524  0.50324494  1
  Zr  Zr46  1  0.49923302  0.69468025  0.30331707  1
  Zr  Zr47  1  0.69409700  0.29737256  0.50614452  1
  Zr  Zr48  1  0.70122770  0.49688198  0.90497437  1
  Zr  Zr49  1  0.30218920  0.69632721  0.90297377  1
  Sc  Sc50  1  0.09525053  0.89074789  0.30644394  1
  Sc  Sc51  1  0.29493909  0.91255175  0.10951518  1
  Sc  Sc52  1  0.91285208  0.69709677  0.30725056  1
  Sc  Sc53  1  0.89716878  0.70431444  0.70280635  1
  Sc  Sc54  1  0.49437368  0.49599337  0.49979764  1
  Sc  Sc55  1  0.89700462  0.10587984  0.30483611  1
  Sc  Sc56  1  0.69863411  0.10138314  0.49713008  1
  Sc  Sc57  1  0.70537027  0.68895181  0.30324640  1
  Sc  Sc58  1  0.09283980  0.50100757  0.51019066  1
  Sc  Sc59  1  0.28828054  0.30624890  0.69739661  1
  Sc  Sc60  1  0.09295227  0.09855751  0.88482809  1
  Sc  Sc61  1  0.49883722  0.49506510  0.30722976  1
  Sc  Sc62  1  0.30610757  0.10474448  0.10379851  1
  Sc  Sc63  1  0.28413954  0.09141029  0.69803442  1
  Sc  Sc64  1  0.69909546  0.30253750  0.10406505  1
  Sc  Sc65  1  0.50348836  0.30302267  0.49795134  1
  Sc  Sc66  1  0.50702807  0.09794851  0.29966030  1
  Sc  Sc67  1  0.89683823  0.50443776  0.69087468  1
  Sc  Sc68  1  0.30227132  0.69281801  0.30661024  1
  Sc  Sc69  1  0.89953401  0.50564354  0.50412322  1
  Sc  Sc70  1  0.10043289  0.10638428  0.29701907  1
  Sc  Sc71  1  0.50399091  0.29998700  0.90462573  1
  Sc  Sc72  1  0.70288415  0.49759818  0.29744586  1
  Sc  Sc73  1  0.89787347  0.69585269  0.50284942  1
  Sc  Sc74  1  0.90413140  0.70605374  0.89612223  1
  Sc  Sc75  1  0.69570541  0.09836788  0.30226771  1
  Sc  Sc76  1  0.69941541  0.10966480  0.69895626  1
  Sc  Sc77  1  0.10090232  0.50679040  0.09867968  1
  Sc  Sc78  1  0.49060805  0.90598372  0.49848500  1
  Sc  Sc79  1  0.70176458  0.50302114  0.70870946  1
  Sc  Sc80  1  0.70210254  0.29801336  0.30264242  1
  Sc  Sc81  1  0.90321429  0.90153415  0.50009790  1
  Sc  Sc82  1  0.10800092  0.29662193  0.29420598  1
  Sc  Sc83  1  0.09857294  0.89885136  0.09656374  1
  Sc  Sc84  1  0.09278160  0.89949568  0.89485969  1
  Sc  Sc85  1  0.30561643  0.30244346  0.10571443  1
  Sc  Sc86  1  0.50738067  0.30385496  0.69378944  1
  Sc  Sc87  1  0.10316109  0.70191718  0.91059818  1
  Sc  Sc88  1  0.70705757  0.10388557  0.10078997  1
  Sc  Sc89  1  0.70575949  0.69380542  0.89549223  1
  Sc  Sc90  1  0.70284815  0.50117308  0.50331827  1
  Sc  Sc91  1  0.70210072  0.90991738  0.30315891  1
  Sc  Sc92  1  0.29273195  0.69061221  0.08953718  1
  Sc  Sc93  1  0.48906623  0.69111547  0.49589697  1
  Sc  Sc94  1  0.89742856  0.29681312  0.10179682  1
  Sc  Sc95  1  0.90207684  0.89856188  0.69934076  1
  Sc  Sc96  1  0.89788848  0.49783775  0.09859466  1
  Sc  Sc97  1  0.29364239  0.70278276  0.50070195  1
  Sc  Sc98  1  0.50521656  0.90295504  0.08933778  1
  Sc  Sc99  1  0.09934632  0.91211235  0.70343477  1
  Nb  Nb100  1  0.69820904  0.70462722  0.50790019  1
  Nb  Nb101  1  0.70567692  0.10377406  0.89719596  1
  Nb  Nb102  1  0.30306509  0.09334272  0.50381557  1
  Nb  Nb103  1  0.30678711  0.51078275  0.70208219  1
  Nb  Nb104  1  0.29591178  0.90405680  0.50435631  1
  Nb  Nb105  1  0.49144332  0.29921158  0.30252876  1
  Nb  Nb106  1  0.90283736  0.09310452  0.69977925  1
  Nb  Nb107  1  0.48982381  0.51126420  0.69619831  1
  Nb  Nb108  1  0.10643365  0.89482613  0.50333917  1
  Nb  Nb109  1  0.29933061  0.69483781  0.70128610  1
  Nb  Nb110  1  0.30328852  0.10196771  0.89902836  1
  Nb  Nb111  1  0.09902312  0.29617749  0.69692212  1
  Nb  Nb112  1  0.09863269  0.49965604  0.89816007  1
  Nb  Nb113  1  0.09734887  0.50600066  0.29529973  1
  Nb  Nb114  1  0.10643534  0.69648073  0.69550118  1
  Nb  Nb115  1  0.90061152  0.70582014  0.09740711  1
  Nb  Nb116  1  0.30499015  0.30026042  0.30017560  1
  Nb  Nb117  1  0.09943144  0.69002791  0.29678251  1
  Nb  Nb118  1  0.09396881  0.10171864  0.69747041  1
  Nb  Nb119  1  0.49401714  0.70036364  0.70389714  1
  Nb  Nb120  1  0.29020687  0.09782608  0.29479379  1
  Nb  Nb121  1  0.89329495  0.09912034  0.90361064  1
  Nb  Nb122  1  0.49222026  0.72214632  0.89551931  1
  Nb  Nb123  1  0.09935940  0.70017284  0.10954630  1
  Nb  Nb124  1  0.50005745  0.89593020  0.89918415  1
  Nb  Nb125  1  0.20087529  0.19772358  -0.00723525  1
  Nb  Nb126  1  0.39303815  0.19478042  0.59786957  1
  Nb  Nb127  1  0.39673538  0.19520613  0.79560900  1
  Nb  Nb128  1  0.01141804  0.79984500  0.59970680  1
  Nb  Nb129  1  0.20129371  0.79335895  0.79254993  1
  Nb  Nb130  1  0.79910303  0.00707937  0.80239330  1
  Nb  Nb131  1  0.39615911  0.79772535  0.60617048  1
  Nb  Nb132  1  0.80212658  0.79689821  0.19601618  1
  Nb  Nb133  1  0.59232118  0.60619758  0.60766719  1
  Nb  Nb134  1  0.60200274  0.79560283  0.20219188  1
  Nb  Nb135  1  0.40209407  0.59879936  0.19572838  1
  Nb  Nb136  1  0.19812749  0.78983384  0.20193321  1
  Nb  Nb137  1  0.60251427  0.79699021  0.40114627  1
  Nb  Nb138  1  0.00262976  0.40150345  0.39572940  1
  Nb  Nb139  1  0.00941714  0.59795591  0.80011504  1
  Nb  Nb140  1  0.40107098  0.79425292  0.19860200  1
  Nb  Nb141  1  0.20223424  0.00877241  -0.00880274  1
  Nb  Nb142  1  -0.00036896  0.19947830  0.60707809  1
  Nb  Nb143  1  0.19226805  0.59267138  0.39394481  1
  Nb  Nb144  1  0.20430875  -0.00125636  0.40458955  1
  Nb  Nb145  1  0.60123918  -0.00574000  0.60324678  1
  Nb  Nb146  1  0.39029899  0.19720738  0.39771454  1
  Nb  Nb147  1  0.40237717  -0.00003663  0.80474879  1
  Nb  Nb148  1  0.80014658  0.80302048  0.00455740  1
  Nb  Nb149  1  -0.00271658  0.00001129  0.20006711  1
  Pd  Pd150  1  -0.00616239  0.19821959  0.79820309  1
  Pd  Pd151  1  0.39518573  -0.00279718  -0.00065675  1
  Pd  Pd152  1  0.40347949  0.39897928  -0.00044950  1
  Pd  Pd153  1  0.19182809  0.39473458  0.18970365  1
  Pd  Pd154  1  0.40206138  0.60320129  0.80976042  1
  Pd  Pd155  1  0.18892025  0.40611629  0.39857708  1
  Pd  Pd156  1  0.00373025  0.40024412  0.19882146  1
  Pd  Pd157  1  0.20125795  0.80756611  0.00401257  1
  Pd  Pd158  1  0.80942631  0.60322589  0.20049214  1
  Pd  Pd159  1  0.59234005  0.60642560  -0.01890444  1
  Pd  Pd160  1  0.20077536  0.79687206  0.39340673  1
  Pd  Pd161  1  0.80721839  0.00510811  0.20497246  1
  Pd  Pd162  1  -0.00038732  0.80515351  0.20201899  1
  Pd  Pd163  1  0.20497770  0.59534724  0.59022498  1
  Pd  Pd164  1  0.80253213  0.40274056  0.40313026  1
  Pd  Pd165  1  0.81303802  0.59634498  0.80367841  1
  Pd  Pd166  1  0.39779027  0.39179091  0.60595924  1
  Pd  Pd167  1  0.60621668  0.00803651  0.00498230  1
  Pd  Pd168  1  0.19123483  0.39367425  0.00779816  1
  Pd  Pd169  1  0.59404911  0.20337188  0.79885976  1
  Pd  Pd170  1  0.60441031  0.20189988  0.20670599  1
  Pd  Pd171  1  0.00244480  0.20916146  0.40510028  1
  Pd  Pd172  1  0.38903041  0.80922594  0.01362313  1
  Pd  Pd173  1  0.58404871  0.79875681  0.58840428  1
  Pd  Pd174  1  0.20371986  0.19934914  0.79882406  1
  Pd  Pd175  1  0.79964797  0.39193365  0.00504120  1
  Pd  Pd176  1  0.40837754  0.00003072  0.19889023  1
  Pd  Pd177  1  0.60164349  0.41677565  0.60554479  1
  Pd  Pd178  1  0.80462957  0.19327339  0.59850899  1
  Pd  Pd179  1  0.00020528  0.60362692  -0.00105822  1
  Pd  Pd180  1  0.79676586  0.79307600  0.39608424  1
  Pd  Pd181  1  0.40261908  0.80100288  0.40483375  1
  Pd  Pd182  1  -0.00945549  0.59951602  0.19282802  1
  Pd  Pd183  1  0.60516634  0.60073582  0.41207634  1
  Pd  Pd184  1  -0.00324342  0.39510341  0.60047886  1
  Pd  Pd185  1  0.39840085  0.19452451  0.20886205  1
  Pd  Pd186  1  0.59563516  0.60769841  0.79966257  1
  Pd  Pd187  1  0.79537066  0.19711899  0.40093174  1
  Pd  Pd188  1  0.39515356  0.00826434  0.39313654  1
  Pd  Pd189  1  0.20296463  0.19368183  0.39817922  1
  Pd  Pd190  1  0.79975066  0.59989848  0.40507250  1
  Pd  Pd191  1  0.59509563  0.59894153  0.20297571  1
  Pd  Pd192  1  0.59655303  0.40138653  0.79487312  1
  Pd  Pd193  1  0.60302219  0.39847869  0.39873931  1
  Pd  Pd194  1  0.61084399  0.20651045  -0.00164971  1
  Pd  Pd195  1  -0.00599399  0.40861949  0.78862192  1
  Pd  Pd196  1  0.40053706  0.39234390  0.79061386  1
  Pd  Pd197  1  0.59846776  0.39759045  0.20946253  1
  Pd  Pd198  1  0.00922709  -0.00046603  0.39519816  1
  Pd  Pd199  1  -0.00162902  0.79905666  -0.00083711  1
  Rh  Rh200  1  -0.00393460  0.60987877  0.61055736  1
  Rh  Rh201  1  0.00392757  0.40069598  0.00620737  1
  Rh  Rh202  1  0.40668012  0.59448608  -0.00572069  1
  Rh  Rh203  1  0.19499555  0.60513851  0.80607275  1
  Rh  Rh204  1  0.79137177  -0.00310630  -0.01043265  1
  Rh  Rh205  1  0.20262552  0.40304358  0.79346252  1
  Rh  Rh206  1  0.01466388  0.78870325  0.78829330  1
  Rh  Rh207  1  0.00376098  0.58939761  0.40299741  1
  Rh  Rh208  1  0.80748492  0.19255017  0.79858587  1
  Rh  Rh209  1  0.60672722  -0.01079889  0.41256265  1
  Rh  Rh210  1  -0.00991162  0.00328440  0.79865746  1
  Rh  Rh211  1  0.80562904  0.40830506  0.80056860  1
  Rh  Rh212  1  0.01010904  0.19459654  -0.01302752  1
  Rh  Rh213  1  0.20463971  0.40776010  0.60585407  1
  Rh  Rh214  1  0.79904545  0.19850393  0.20058629  1
  Rh  Rh215  1  0.79493237  0.20638531  0.00042010  1
  Rh  Rh216  1  0.59419152  0.19434845  0.59815395  1
  Rh  Rh217  1  0.20966968  0.60427586  0.20450285  1
  Rh  Rh218  1  0.20766358  0.20853621  0.19221538  1
  Rh  Rh219  1  0.60803564  0.79235536  -0.00250105  1
  Rh  Rh220  1  0.79711072  0.40050574  0.19790817  1
  Rh  Rh221  1  0.18607409  -0.01340235  0.21007633  1
  Rh  Rh222  1  0.81218012  0.60678943  -0.00369113  1
  Rh  Rh223  1  0.59286057  0.20688010  0.39562594  1
  Rh  Rh224  1  0.60593337  0.39473268  -0.00542206  1
  Rh  Rh225  1  0.81675913  0.79904018  0.59722698  1
  Rh  Rh226  1  0.39901666  0.60644498  0.59778687  1
  Rh  Rh227  1  0.19904216  0.19364415  0.60562002  1
  Rh  Rh228  1  0.79204529  0.00351850  0.60874403  1
  Rh  Rh229  1  0.60829195  0.78800109  0.80717887  1
  Rh  Rh230  1  0.19012785  0.59736625  -0.00240394  1
  Rh  Rh231  1  0.18990927  0.00126288  0.59472806  1
  Rh  Rh232  1  0.19965974  0.80065031  0.60652474  1
  Rh  Rh233  1  0.79905119  0.00657228  0.40132731  1
  Rh  Rh234  1  0.40814299  0.40722871  0.19676597  1
  Rh  Rh235  1  0.00570691  -0.00352882  0.59990239  1
  Rh  Rh236  1  0.59677734  0.00048389  0.19203374  1
  Rh  Rh237  1  0.79420014  0.40431885  0.59866559  1
  Rh  Rh238  1  0.38865451  0.80403936  0.79316213  1
  Rh  Rh239  1  0.40753572  -0.00551769  0.60895253  1
  Rh  Rh240  1  0.40078957  0.39304484  0.40161135  1
  Rh  Rh241  1  0.39533470  0.20691861  -0.00532847  1
  Rh  Rh242  1  0.60279969  0.00787155  0.79660005  1
  Rh  Rh243  1  0.78989685  0.60330123  0.60115820  1
  Rh  Rh244  1  0.20343174  -0.00696152  0.80747462  1
  Rh  Rh245  1  0.38641957  0.58592962  0.39411447  1
  Rh  Rh246  1  0.79615397  0.81148681  0.81132512  1
  Rh  Rh247  1  -0.00716475  0.19245460  0.20545418  1
  Rh  Rh248  1  0.01351740  0.00993971  0.00139424  1
  Rh  Rh249  1  -0.00243873  0.79860437  0.40926008  1
