# generated using pymatgen
data_ZrScNbPdRh
_symmetry_space_group_name_H-M   'P 1'
_cell_length_a   16.55669837
_cell_length_b   16.55712159
_cell_length_c   16.56103859
_cell_angle_alpha   90.02520901
_cell_angle_beta   89.98312170
_cell_angle_gamma   89.99406056
_symmetry_Int_Tables_number   1
_chemical_formula_structural   ZrScNbPdRh
_chemical_formula_sum   'Zr50 Sc50 Nb50 Pd50 Rh50'
_cell_volume   4539.89784629
_cell_formula_units_Z   50
loop_
 _symmetry_equiv_pos_site_id
 _symmetry_equiv_pos_as_xyz
  1  'x, y, z'
loop_
 _atom_site_type_symbol
 _atom_site_label
 _atom_site_symmetry_multiplicity
 _atom_site_fract_x
 _atom_site_fract_y
 _atom_site_fract_z
 _atom_site_occupancy
  Zr  Zr0  1  0.49341703  0.29911451  0.69249773  1
  Zr  Zr1  1  0.89946874  0.50212255  0.09032974  1
  Zr  Zr2  1  0.70577663  0.50347318  0.90016273  1
  Zr  Zr3  1  0.29583885  0.30096484  0.50271405  1
  Zr  Zr4  1  0.70768692  0.50020977  0.49951382  1
  Zr  Zr5  1  0.10473457  0.49455339  0.49516510  1
  Zr  Zr6  1  0.88592541  0.10190746  0.69497997  1
  Zr  Zr7  1  0.90067023  0.50403616  0.49944923  1
  Zr  Zr8  1  0.29122430  0.50401817  0.50001179  1
  Zr  Zr9  1  0.69913061  0.90574659  0.68550227  1
  Zr  Zr10  1  0.49973161  0.89977342  0.70291880  1
  Zr  Zr11  1  0.09925631  0.88773129  0.30379718  1
  Zr  Zr12  1  0.09128613  0.50089813  0.10140436  1
  Zr  Zr13  1  0.50228411  0.50138001  0.89967665  1
  Zr  Zr14  1  0.90034373  0.10261377  0.49069792  1
  Zr  Zr15  1  0.70183146  0.69704566  0.09946912  1
  Zr  Zr16  1  0.09165833  0.89953594  0.90043117  1
  Zr  Zr17  1  0.70984984  0.29800822  0.69870699  1
  Zr  Zr18  1  0.70382311  0.49996106  0.09568442  1
  Zr  Zr19  1  0.50670385  0.89219202  0.90027132  1
  Zr  Zr20  1  0.10281401  0.30573453  0.30666495  1
  Zr  Zr21  1  0.29467661  0.09389416  0.90589696  1
  Zr  Zr22  1  0.29797840  0.50497566  0.30470687  1
  Zr  Zr23  1  0.49865027  0.09597415  0.10548658  1
  Zr  Zr24  1  0.51366623  0.70302701  0.70507337  1
  Zr  Zr25  1  0.69098719  0.09870453  0.31186152  1
  Zr  Zr26  1  0.11263807  0.09549113  0.09499540  1
  Zr  Zr27  1  0.29537914  0.70761161  0.71428802  1
  Zr  Zr28  1  0.09478257  0.30108301  0.09932400  1
  Zr  Zr29  1  0.09536882  0.89739850  0.10064093  1
  Zr  Zr30  1  0.50677830  0.89860407  0.30909397  1
  Zr  Zr31  1  0.09499265  0.69242564  0.49477908  1
  Zr  Zr32  1  0.50578248  0.89789771  0.09198441  1
  Zr  Zr33  1  0.90015479  0.29663653  0.31036506  1
  Zr  Zr34  1  0.30138664  0.29555080  0.69696533  1
  Zr  Zr35  1  0.29571518  0.50467627  0.90307152  1
  Zr  Zr36  1  0.90162567  0.89945200  0.70111307  1
  Zr  Zr37  1  0.09973959  0.50734410  0.69439461  1
  Zr  Zr38  1  0.70429004  0.70349570  0.29837933  1
  Zr  Zr39  1  0.30044652  0.30102872  0.10595280  1
  Zr  Zr40  1  0.50309232  0.70351969  0.49900624  1
  Zr  Zr41  1  0.30451866  0.69763888  0.91250319  1
  Zr  Zr42  1  0.49091875  0.69960809  0.09142752  1
  Zr  Zr43  1  0.09890681  0.89638937  0.70665901  1
  Zr  Zr44  1  0.50038715  0.11094530  0.30089740  1
  Zr  Zr45  1  0.29144299  0.91339476  0.10377825  1
  Zr  Zr46  1  0.49591946  0.29602414  0.49829007  1
  Zr  Zr47  1  0.90032020  0.90100896  0.90015571  1
  Zr  Zr48  1  0.29455384  0.90264837  0.50107707  1
  Zr  Zr49  1  0.90093632  0.30256160  0.09635952  1
  Sc  Sc50  1  0.90019852  0.50176608  0.89742564  1
  Sc  Sc51  1  0.10801612  0.10353997  0.69825847  1
  Sc  Sc52  1  0.48874857  0.50052468  0.29734923  1
  Sc  Sc53  1  0.89172656  0.89901916  0.09510246  1
  Sc  Sc54  1  0.09416127  0.50952906  0.89934178  1
  Sc  Sc55  1  0.71021244  0.30775869  0.49886619  1
  Sc  Sc56  1  0.90081188  0.69989407  0.10619037  1
  Sc  Sc57  1  0.49872761  0.29708549  0.89172559  1
  Sc  Sc58  1  0.10543140  0.70087582  0.89843308  1
  Sc  Sc59  1  0.50107180  0.30420046  0.11491316  1
  Sc  Sc60  1  0.69323389  0.89801712  0.49537899  1
  Sc  Sc61  1  0.90406761  0.50693957  0.30090291  1
  Sc  Sc62  1  0.10553684  0.30044228  0.71126572  1
  Sc  Sc63  1  0.69786180  0.69717100  0.89363979  1
  Sc  Sc64  1  0.70389126  0.09413364  0.11396566  1
  Sc  Sc65  1  0.29941970  0.51064647  0.10730186  1
  Sc  Sc66  1  0.10109151  0.50304867  0.30036159  1
  Sc  Sc67  1  0.89829715  0.09558619  0.89685503  1
  Sc  Sc68  1  0.70744399  0.49911880  0.29221898  1
  Sc  Sc69  1  0.50308720  0.08756105  0.89339084  1
  Sc  Sc70  1  0.49675285  0.49974983  0.10684085  1
  Sc  Sc71  1  0.30778153  0.90539238  0.70002465  1
  Sc  Sc72  1  0.50188999  0.89597016  0.50600149  1
  Sc  Sc73  1  0.30584933  0.89177742  0.89615341  1
  Sc  Sc74  1  0.49029927  0.69449957  0.30503905  1
  Sc  Sc75  1  0.10008870  0.69781571  0.09767126  1
  Sc  Sc76  1  0.90312756  0.69265674  0.89886413  1
  Sc  Sc77  1  0.30453571  0.10224633  0.69555199  1
  Sc  Sc78  1  0.70674132  0.89833465  0.09644215  1
  Sc  Sc79  1  0.09760787  0.10709041  0.90095652  1
  Sc  Sc80  1  0.29468361  0.29475076  0.88749338  1
  Sc  Sc81  1  0.89044252  0.09348240  0.10229500  1
  Sc  Sc82  1  0.30214879  0.69719591  0.49056063  1
  Sc  Sc83  1  0.90750948  0.30247743  0.89275663  1
  Sc  Sc84  1  0.70236822  0.29459950  0.29674060  1
  Sc  Sc85  1  0.70466300  0.89896078  0.30193322  1
  Sc  Sc86  1  0.50248625  0.10067741  0.49329740  1
  Sc  Sc87  1  0.70081550  0.30839726  0.90046324  1
  Sc  Sc88  1  0.89021718  0.89464666  0.49231717  1
  Sc  Sc89  1  0.90170858  0.69190472  0.69411276  1
  Sc  Sc90  1  0.50115025  0.09402014  0.70157362  1
  Sc  Sc91  1  0.09518367  0.69719616  0.70916172  1
  Sc  Sc92  1  0.09718619  0.10095323  0.31929255  1
  Sc  Sc93  1  0.70208244  0.31171728  0.10269557  1
  Sc  Sc94  1  0.88568261  0.09878909  0.29826431  1
  Sc  Sc95  1  0.70968866  0.70642820  0.50662120  1
  Sc  Sc96  1  0.49961988  0.49872901  0.50738654  1
  Sc  Sc97  1  0.70675017  0.51219631  0.69616308  1
  Sc  Sc98  1  0.29081408  0.49203157  0.70173566  1
  Sc  Sc99  1  0.69743718  0.09771385  0.88500687  1
  Nb  Nb100  1  0.31419094  0.29968715  0.30079102  1
  Nb  Nb101  1  0.50460477  0.50275503  0.70003358  1
  Nb  Nb102  1  0.90203416  0.88936438  0.29328646  1
  Nb  Nb103  1  0.09452028  0.29506078  0.49290101  1
  Nb  Nb104  1  0.10236088  0.09767951  0.50324261  1
  Nb  Nb105  1  0.70264124  0.89974539  0.90467968  1
  Nb  Nb106  1  0.30304681  0.70084243  0.09923961  1
  Nb  Nb107  1  0.30552461  0.09853255  0.29235708  1
  Nb  Nb108  1  0.69816665  0.09786174  0.69037469  1
  Nb  Nb109  1  0.90503022  0.50004155  0.70035597  1
  Nb  Nb110  1  0.30395176  0.10031582  0.10615642  1
  Nb  Nb111  1  0.29819475  0.89579005  0.29912167  1
  Nb  Nb112  1  0.29495165  0.70010800  0.29682973  1
  Nb  Nb113  1  0.90170068  0.30279657  0.69199499  1
  Nb  Nb114  1  0.08690948  0.70143496  0.29755208  1
  Nb  Nb115  1  0.49628801  0.29768548  0.30907216  1
  Nb  Nb116  1  0.90292726  0.69991352  0.49531219  1
  Nb  Nb117  1  0.09906750  0.29715477  0.90773212  1
  Nb  Nb118  1  0.28460566  0.09528156  0.50298846  1
  Nb  Nb119  1  0.49925145  0.70235337  0.90232939  1
  Nb  Nb120  1  0.90393936  0.30791848  0.49911731  1
  Nb  Nb121  1  0.10267520  0.90805397  0.50218969  1
  Nb  Nb122  1  0.91058121  0.71256781  0.30816637  1
  Nb  Nb123  1  0.69845001  0.09165487  0.50649578  1
  Nb  Nb124  1  0.70700346  0.70303363  0.69988729  1
  Nb  Nb125  1  0.00030610  -0.00161449  0.20502189  1
  Nb  Nb126  1  0.59758928  0.60160133  -0.00085405  1
  Nb  Nb127  1  0.79307859  0.20021925  -0.00094611  1
  Nb  Nb128  1  0.00484825  0.19443681  0.20132403  1
  Nb  Nb129  1  0.00259726  0.00214702  0.59348132  1
  Nb  Nb130  1  0.60811681  0.19684026  0.60014461  1
  Nb  Nb131  1  0.19913381  -0.00168323  0.80251246  1
  Nb  Nb132  1  0.19340278  0.80231550  0.59730006  1
  Nb  Nb133  1  0.38860039  0.00163668  0.39557753  1
  Nb  Nb134  1  0.40268124  0.19806119  0.00505552  1
  Nb  Nb135  1  0.59725525  0.40030545  0.39757912  1
  Nb  Nb136  1  0.20428216  0.19738506  0.20597736  1
  Nb  Nb137  1  -0.00077415  0.39410246  0.59961162  1
  Nb  Nb138  1  0.79733766  0.80159441  0.79603903  1
  Nb  Nb139  1  0.19727174  0.39852926  0.00042568  1
  Nb  Nb140  1  0.40675330  0.60156055  0.79859174  1
  Nb  Nb141  1  0.60353862  0.59521493  0.40071789  1
  Nb  Nb142  1  0.39342177  0.80204327  0.20084486  1
  Nb  Nb143  1  0.40153898  0.60203359  0.61112980  1
  Nb  Nb144  1  0.39373710  0.39495422  -0.00046330  1
  Nb  Nb145  1  0.59984436  0.19882833  0.00229189  1
  Nb  Nb146  1  -0.00081180  0.20331513  0.59369416  1
  Nb  Nb147  1  0.59355133  0.79604183  0.19728399  1
  Nb  Nb148  1  0.00340328  0.80318597  0.59348124  1
  Nb  Nb149  1  0.59859564  0.40488734  0.78937867  1
  Pd  Pd150  1  0.18976491  0.40310375  0.80857896  1
  Pd  Pd151  1  0.00621562  0.40248097  0.79750740  1
  Pd  Pd152  1  0.38700292  0.18881418  0.40984370  1
  Pd  Pd153  1  0.40404205  0.00691197  0.58933246  1
  Pd  Pd154  1  0.79266357  0.20188845  0.40680515  1
  Pd  Pd155  1  0.40740589  -0.00932385  0.20732308  1
  Pd  Pd156  1  0.59313995  0.60356955  0.20241632  1
  Pd  Pd157  1  0.40104921  -0.00126285  -0.00375245  1
  Pd  Pd158  1  0.20972561  0.20194717  0.39458517  1
  Pd  Pd159  1  0.80910683  0.39927418  0.20419178  1
  Pd  Pd160  1  0.60092854  0.20575943  0.79569081  1
  Pd  Pd161  1  0.79854175  0.60665360  0.39677135  1
  Pd  Pd162  1  0.39627522  0.80409289  0.39667702  1
  Pd  Pd163  1  0.79864668  0.40427451  0.79583876  1
  Pd  Pd164  1  0.60531110  0.20502418  0.19522445  1
  Pd  Pd165  1  0.60425908  -0.00927400  0.20297439  1
  Pd  Pd166  1  -0.00568694  0.79092206  0.00092071  1
  Pd  Pd167  1  0.19246488  0.20633166  0.60095282  1
  Pd  Pd168  1  -0.00350436  0.00678684  0.00821822  1
  Pd  Pd169  1  0.80225804  0.20342008  0.80818627  1
  Pd  Pd170  1  0.00556424  0.01431806  0.79148642  1
  Pd  Pd171  1  -0.00135926  0.19643883  0.79141800  1
  Pd  Pd172  1  0.58975141  0.39624001  -0.00466073  1
  Pd  Pd173  1  0.39233172  0.79174357  0.60208669  1
  Pd  Pd174  1  0.20178987  0.80483724  0.00050771  1
  Pd  Pd175  1  0.19331413  0.60634971  0.20159613  1
  Pd  Pd176  1  -0.00625687  -0.00743980  0.39732659  1
  Pd  Pd177  1  -0.01140334  0.18985296  0.00550834  1
  Pd  Pd178  1  0.60596734  0.39351826  0.59934647  1
  Pd  Pd179  1  0.61177034  0.80595322  0.80005555  1
  Pd  Pd180  1  0.18836618  0.00687713  0.21522696  1
  Pd  Pd181  1  0.19676604  0.79297995  0.40470634  1
  Pd  Pd182  1  0.20799088  0.61309416  0.60396322  1
  Pd  Pd183  1  0.60213750  0.60500195  0.59311955  1
  Pd  Pd184  1  0.20123786  0.79210081  0.19567677  1
  Pd  Pd185  1  0.81200342  0.60416429  0.20375446  1
  Pd  Pd186  1  0.80014280  0.79087367  -0.00989716  1
  Pd  Pd187  1  0.79872520  -0.00611987  0.39875073  1
  Pd  Pd188  1  0.20354005  0.00009029  0.39059626  1
  Pd  Pd189  1  0.59649115  0.40184956  0.21289450  1
  Pd  Pd190  1  0.40274177  0.40567454  0.80181864  1
  Pd  Pd191  1  0.61135251  0.00957586  -0.00086206  1
  Pd  Pd192  1  0.80017262  0.20096512  0.58795329  1
  Pd  Pd193  1  0.40126632  0.18946263  0.80454706  1
  Pd  Pd194  1  0.39379147  0.40964428  0.60031443  1
  Pd  Pd195  1  0.20788181  0.20661328  0.00316282  1
  Pd  Pd196  1  0.79245545  -0.00691072  0.80011295  1
  Pd  Pd197  1  -0.00690032  0.39690326  0.20872439  1
  Pd  Pd198  1  0.20406602  0.39919593  0.20154313  1
  Pd  Pd199  1  0.40140046  0.40785275  0.40506586  1
  Rh  Rh200  1  -0.00248454  0.19780476  0.39940170  1
  Rh  Rh201  1  0.40542643  0.59401537  0.41183952  1
  Rh  Rh202  1  0.60468521  0.79916897  0.60027453  1
  Rh  Rh203  1  0.80544449  -0.01045271  0.20772157  1
  Rh  Rh204  1  -0.01197982  0.78953070  0.79729321  1
  Rh  Rh205  1  0.00423586  0.40456904  -0.01065804  1
  Rh  Rh206  1  0.80830207  0.40899450  0.60546044  1
  Rh  Rh207  1  0.80574019  0.20661449  0.18998891  1
  Rh  Rh208  1  0.81003341  0.39314565  -0.00682994  1
  Rh  Rh209  1  0.79302102  0.00986248  -0.00675093  1
  Rh  Rh210  1  0.20656714  0.39530047  0.39820370  1
  Rh  Rh211  1  0.19290376  0.60801557  0.38835784  1
  Rh  Rh212  1  0.39968142  0.20351797  0.19720456  1
  Rh  Rh213  1  0.40445610  0.18966725  0.59401813  1
  Rh  Rh214  1  0.39383262  0.00050662  0.80366672  1
  Rh  Rh215  1  0.80474854  0.60492522  0.79532753  1
  Rh  Rh216  1  0.80944588  0.79875907  0.60432428  1
  Rh  Rh217  1  0.19574102  0.59515545  0.00817346  1
  Rh  Rh218  1  -0.00167372  0.60020810  0.80001531  1
  Rh  Rh219  1  0.19556691  -0.00574728  0.61299827  1
  Rh  Rh220  1  0.20426584  0.59927989  0.80159119  1
  Rh  Rh221  1  0.60886729  0.79170518  0.00297670  1
  Rh  Rh222  1  0.79705461  0.60331173  -0.00155305  1
  Rh  Rh223  1  0.60564028  -0.00903496  0.79482539  1
  Rh  Rh224  1  0.59435535  -0.00013298  0.40392088  1
  Rh  Rh225  1  0.79745132  0.40159691  0.39250747  1
  Rh  Rh226  1  0.61006784  0.20983653  0.41099691  1
  Rh  Rh227  1  0.18920745  0.38992505  0.59864475  1
  Rh  Rh228  1  0.59163181  0.00451473  0.59600323  1
  Rh  Rh229  1  0.80567213  -0.00292854  0.59116529  1
  Rh  Rh230  1  0.60074106  0.59620105  0.80577382  1
  Rh  Rh231  1  0.60452991  0.78895372  0.39578921  1
  Rh  Rh232  1  0.39896076  0.40192227  0.20067519  1
  Rh  Rh233  1  0.39047936  0.81107987  0.00876914  1
  Rh  Rh234  1  0.39517806  0.60867177  0.20181579  1
  Rh  Rh235  1  -0.00137262  0.40686475  0.40146876  1
  Rh  Rh236  1  0.79907573  0.79810367  0.39800134  1
  Rh  Rh237  1  0.19731722  -0.00904507  -0.01103155  1
  Rh  Rh238  1  0.40544817  0.79551246  0.80183045  1
  Rh  Rh239  1  0.79736700  0.79954487  0.20050134  1
  Rh  Rh240  1  0.40513287  0.59066212  -0.00240541  1
  Rh  Rh241  1  -0.00023246  0.60299017  0.00090968  1
  Rh  Rh242  1  0.00178252  0.59672679  0.39577516  1
  Rh  Rh243  1  -0.00220471  0.59792924  0.59742544  1
  Rh  Rh244  1  -0.00214087  0.60371779  0.20163445  1
  Rh  Rh245  1  -0.00358510  0.80333745  0.19112012  1
  Rh  Rh246  1  0.00258996  0.80557111  0.41031332  1
  Rh  Rh247  1  0.19861261  0.80770483  0.80188361  1
  Rh  Rh248  1  0.19995157  0.19230068  0.80196256  1
  Rh  Rh249  1  0.80599310  0.60165368  0.60025994  1
