# generated using pymatgen
data_ZrScNbPdRh
_symmetry_space_group_name_H-M   'P 1'
_cell_length_a   16.55681188
_cell_length_b   16.56441956
_cell_length_c   16.56304072
_cell_angle_alpha   90.00134151
_cell_angle_beta   89.99077164
_cell_angle_gamma   89.98116330
_symmetry_Int_Tables_number   1
_chemical_formula_structural   ZrScNbPdRh
_chemical_formula_sum   'Zr50 Sc50 Nb50 Pd50 Rh50'
_cell_volume   4542.47950861
_cell_formula_units_Z   50
loop_
 _symmetry_equiv_pos_site_id
 _symmetry_equiv_pos_as_xyz
  1  'x, y, z'
loop_
 _atom_site_type_symbol
 _atom_site_label
 _atom_site_symmetry_multiplicity
 _atom_site_fract_x
 _atom_site_fract_y
 _atom_site_fract_z
 _atom_site_occupancy
  Zr  Zr0  1  0.70180435  0.69885460  0.50129729  1
  Zr  Zr1  1  0.90040955  0.89843278  0.30376733  1
  Zr  Zr2  1  0.70151630  0.50124600  0.70443853  1
  Zr  Zr3  1  0.68804982  0.69693175  0.29679729  1
  Zr  Zr4  1  0.90389982  0.09788728  0.09978399  1
  Zr  Zr5  1  0.90380121  0.69759579  0.10070872  1
  Zr  Zr6  1  0.49532503  0.30220958  0.10954899  1
  Zr  Zr7  1  0.10776381  0.29196013  0.30108547  1
  Zr  Zr8  1  0.30489310  0.29665088  0.29847289  1
  Zr  Zr9  1  0.89821654  0.10542553  0.70539221  1
  Zr  Zr10  1  0.10204648  0.10153581  0.48765136  1
  Zr  Zr11  1  0.89463109  0.49771504  0.29824966  1
  Zr  Zr12  1  0.48660688  0.11082092  0.69197601  1
  Zr  Zr13  1  0.90321497  0.89555620  0.70264295  1
  Zr  Zr14  1  0.50061484  0.69532679  0.89272132  1
  Zr  Zr15  1  0.51414034  0.30457599  0.70063402  1
  Zr  Zr16  1  0.09972331  0.50465043  0.69825484  1
  Zr  Zr17  1  0.70551241  0.11873102  0.70269642  1
  Zr  Zr18  1  0.89883011  0.29834657  0.09581138  1
  Zr  Zr19  1  0.49358284  0.09816518  0.49269400  1
  Zr  Zr20  1  0.90404779  0.31187468  0.29914014  1
  Zr  Zr21  1  0.10266337  0.69982620  0.89895890  1
  Zr  Zr22  1  0.49516045  0.29682010  0.29756583  1
  Zr  Zr23  1  0.90238153  0.89922338  0.49635045  1
  Zr  Zr24  1  0.69933345  0.68681514  0.09834071  1
  Zr  Zr25  1  0.30012668  0.30441899  0.49272272  1
  Zr  Zr26  1  0.30033514  0.70107674  0.88933227  1
  Zr  Zr27  1  0.29362504  0.90283935  0.90788510  1
  Zr  Zr28  1  0.48585100  0.68996586  0.50181057  1
  Zr  Zr29  1  0.30018219  0.29526247  0.89842847  1
  Zr  Zr30  1  0.29710020  0.49872867  0.29520622  1
  Zr  Zr31  1  0.69493983  0.50588551  0.90533362  1
  Zr  Zr32  1  0.90855232  0.90004874  0.10263319  1
  Zr  Zr33  1  0.90246877  0.69966361  0.90295457  1
  Zr  Zr34  1  0.91258833  0.09622374  0.30164007  1
  Zr  Zr35  1  0.10714522  0.09637657  0.70163127  1
  Zr  Zr36  1  0.11070774  0.50398912  0.09513193  1
  Zr  Zr37  1  0.70024318  0.10068830  0.90502324  1
  Zr  Zr38  1  0.09960671  0.09933667  0.11077016  1
  Zr  Zr39  1  0.69980006  0.90762252  0.90331165  1
  Zr  Zr40  1  0.30380927  0.70024943  0.68762428  1
  Zr  Zr41  1  0.09666021  0.30625665  0.10132126  1
  Zr  Zr42  1  0.50216208  0.70579537  0.70445669  1
  Zr  Zr43  1  0.09925401  0.09074995  0.90276062  1
  Zr  Zr44  1  0.90747406  0.90246489  0.90119243  1
  Zr  Zr45  1  0.70005556  0.29506218  0.89629898  1
  Zr  Zr46  1  0.30564546  0.50200127  0.10313066  1
  Zr  Zr47  1  0.31020710  0.28667004  0.70384830  1
  Zr  Zr48  1  0.49657282  0.89626443  0.89511653  1
  Zr  Zr49  1  0.09031081  0.30912128  0.70216419  1
  Sc  Sc50  1  0.29494644  0.69429365  0.11060854  1
  Sc  Sc51  1  0.70518492  0.31247304  0.28381720  1
  Sc  Sc52  1  0.29933568  0.51132238  0.50163175  1
  Sc  Sc53  1  0.29479929  0.89847923  0.10567307  1
  Sc  Sc54  1  0.69981327  0.29794886  0.51187635  1
  Sc  Sc55  1  0.69637668  0.29600223  0.09934550  1
  Sc  Sc56  1  0.29244098  0.50960848  0.69746044  1
  Sc  Sc57  1  0.50424237  0.50083527  0.29535128  1
  Sc  Sc58  1  0.09926399  0.30621206  0.49441493  1
  Sc  Sc59  1  0.90478097  0.70458259  0.49864998  1
  Sc  Sc60  1  0.50023204  0.69155718  0.10780812  1
  Sc  Sc61  1  0.70823969  0.09890694  0.09195683  1
  Sc  Sc62  1  0.70916695  0.09440607  0.29440063  1
  Sc  Sc63  1  0.29559844  0.08962184  0.10355792  1
  Sc  Sc64  1  0.49858106  0.09722218  0.10149362  1
  Sc  Sc65  1  0.30345004  0.09070416  0.49979252  1
  Sc  Sc66  1  0.29229761  0.09977889  0.89321943  1
  Sc  Sc67  1  0.89884526  0.10477318  0.49270823  1
  Sc  Sc68  1  0.49921048  0.91197450  0.49962457  1
  Sc  Sc69  1  0.90394792  0.69683762  0.69660400  1
  Sc  Sc70  1  0.49611708  0.70031425  0.30379950  1
  Sc  Sc71  1  0.29784529  0.89908812  0.49856848  1
  Sc  Sc72  1  0.29614181  0.90223659  0.68975903  1
  Sc  Sc73  1  0.49666259  0.29649378  0.50057687  1
  Sc  Sc74  1  0.69812558  0.68963314  0.89472328  1
  Sc  Sc75  1  0.10459929  0.89558782  0.49819052  1
  Sc  Sc76  1  0.91024257  0.50354707  0.69796038  1
  Sc  Sc77  1  0.49251951  0.90789457  0.09437004  1
  Sc  Sc78  1  0.09569091  0.70339429  0.30668250  1
  Sc  Sc79  1  0.50510028  0.29946958  0.90367785  1
  Sc  Sc80  1  0.09990592  0.89908779  0.09836232  1
  Sc  Sc81  1  0.50744111  0.50269061  0.70400291  1
  Sc  Sc82  1  0.68949119  0.89327523  0.69313973  1
  Sc  Sc83  1  0.89975071  0.50951242  0.10457762  1
  Sc  Sc84  1  0.48875278  0.10020873  0.29668365  1
  Sc  Sc85  1  0.90513726  0.49592108  0.49605998  1
  Sc  Sc86  1  0.49631233  0.89461332  0.69466452  1
  Sc  Sc87  1  0.69794462  0.09884810  0.50153267  1
  Sc  Sc88  1  0.29875249  0.30667075  0.11107301  1
  Sc  Sc89  1  0.10150717  0.89320835  0.70083260  1
  Sc  Sc90  1  0.69690751  0.89940842  0.49215011  1
  Sc  Sc91  1  0.09079270  0.49401440  0.29709756  1
  Sc  Sc92  1  0.09664358  0.70400233  0.10166479  1
  Sc  Sc93  1  0.90726377  0.51081999  0.90026781  1
  Sc  Sc94  1  0.10029277  0.49933254  0.50456170  1
  Sc  Sc95  1  0.09534009  0.89944922  0.30245570  1
  Sc  Sc96  1  0.29901365  0.51010346  0.90942511  1
  Sc  Sc97  1  0.49824731  0.89708084  0.30351790  1
  Sc  Sc98  1  0.89582377  0.09987778  0.90325856  1
  Sc  Sc99  1  0.90290685  0.30417538  0.49692215  1
  Nb  Nb100  1  0.11087157  0.70464658  0.49721785  1
  Nb  Nb101  1  0.10806144  0.69911180  0.69839162  1
  Nb  Nb102  1  0.70437783  0.30260029  0.70427668  1
  Nb  Nb103  1  0.50652560  0.49644020  0.50712429  1
  Nb  Nb104  1  0.10586280  0.10474752  0.30290162  1
  Nb  Nb105  1  0.89543157  0.29815511  0.70213809  1
  Nb  Nb106  1  0.70449224  0.49759149  0.29815034  1
  Nb  Nb107  1  0.69599360  0.49882735  0.10659618  1
  Nb  Nb108  1  0.90783666  0.30673603  0.89783279  1
  Nb  Nb109  1  0.09457906  0.31026233  0.90444534  1
  Nb  Nb110  1  0.49563433  0.09071958  0.90814859  1
  Nb  Nb111  1  0.29052731  0.69924171  0.48967644  1
  Nb  Nb112  1  0.70028490  0.69765570  0.70241592  1
  Nb  Nb113  1  0.69882689  0.89392919  0.29563241  1
  Nb  Nb114  1  0.10376645  0.49794674  0.89870743  1
  Nb  Nb115  1  0.89721078  0.69815892  0.29668509  1
  Nb  Nb116  1  0.29061738  0.10177719  0.30040554  1
  Nb  Nb117  1  0.49993462  0.49798179  0.90394174  1
  Nb  Nb118  1  0.70195900  0.49655590  0.49907115  1
  Nb  Nb119  1  0.09761719  0.89337099  0.90397517  1
  Nb  Nb120  1  0.50428821  0.49719084  0.09165158  1
  Nb  Nb121  1  0.70080333  0.89617642  0.09831797  1
  Nb  Nb122  1  0.30108163  0.70432877  0.31472003  1
  Nb  Nb123  1  0.30323837  0.89309262  0.30123967  1
  Nb  Nb124  1  0.29922285  0.10148246  0.69839829  1
  Nb  Nb125  1  0.19928805  0.40068618  0.80487887  1
  Nb  Nb126  1  0.80529959  0.00037595  0.60225299  1
  Nb  Nb127  1  0.79535934  0.79922564  0.19968135  1
  Nb  Nb128  1  0.59981925  0.79854575  0.00084275  1
  Nb  Nb129  1  0.80058726  0.40212795  -0.00404183  1
  Nb  Nb130  1  0.79644989  0.59654587  0.39532076  1
  Nb  Nb131  1  0.39461113  0.19659457  0.00121377  1
  Nb  Nb132  1  -0.00154209  0.00509999  0.59853387  1
  Nb  Nb133  1  0.60757357  -0.00941159  0.19840666  1
  Nb  Nb134  1  0.80471458  0.39817157  0.80129079  1
  Nb  Nb135  1  0.59244383  0.00753145  0.79946420  1
  Nb  Nb136  1  0.60509679  0.39992484  0.40116565  1
  Nb  Nb137  1  0.79668314  0.79929620  0.00168624  1
  Nb  Nb138  1  0.19567816  0.20382884  0.00027573  1
  Nb  Nb139  1  0.60462523  0.20562385  0.39224699  1
  Nb  Nb140  1  0.79793345  0.79687807  0.80190474  1
  Nb  Nb141  1  0.19893667  0.19904234  0.60099100  1
  Nb  Nb142  1  0.39939750  0.00501771  0.79710772  1
  Nb  Nb143  1  0.60496131  0.60113726  0.59878648  1
  Nb  Nb144  1  0.40057531  0.79540211  -0.00246604  1
  Nb  Nb145  1  0.40269839  0.40204436  0.60494262  1
  Nb  Nb146  1  0.00224478  0.19869731  0.60220772  1
  Nb  Nb147  1  0.79602053  0.20801396  0.39466220  1
  Nb  Nb148  1  0.39897975  0.40249774  0.80116738  1
  Nb  Nb149  1  0.79894443  0.39785767  0.60798305  1
  Pd  Pd150  1  -0.00158724  0.20493488  0.20435612  1
  Pd  Pd151  1  0.00474204  0.60582858  0.79878938  1
  Pd  Pd152  1  0.20351652  -0.01062060  0.79756921  1
  Pd  Pd153  1  0.18656789  0.20805223  0.80257973  1
  Pd  Pd154  1  0.20354068  -0.00835865  0.39481021  1
  Pd  Pd155  1  0.59381982  0.79294451  0.58877656  1
  Pd  Pd156  1  0.40082525  0.79922738  0.19453830  1
  Pd  Pd157  1  0.39675940  0.39451833  -0.00396161  1
  Pd  Pd158  1  0.60398863  0.00863000  0.60887416  1
  Pd  Pd159  1  0.19353632  0.60737619  0.21169366  1
  Pd  Pd160  1  0.80185020  0.20003383  0.20401736  1
  Pd  Pd161  1  0.00897041  0.80036707  0.59796875  1
  Pd  Pd162  1  0.00533810  -0.00324689  0.79649031  1
  Pd  Pd163  1  0.21110835  0.39286940  0.60840677  1
  Pd  Pd164  1  0.20936499  0.39746461  -0.00213625  1
  Pd  Pd165  1  0.40182146  0.60845729  0.00268883  1
  Pd  Pd166  1  0.60216074  0.59295062  0.40370136  1
  Pd  Pd167  1  0.19599673  0.40924077  0.39699487  1
  Pd  Pd168  1  0.20498151  0.79300662  0.00721177  1
  Pd  Pd169  1  0.80162973  0.59364082  0.59460223  1
  Pd  Pd170  1  0.40010281  0.59039295  0.79365389  1
  Pd  Pd171  1  0.79870136  0.79111821  0.39355009  1
  Pd  Pd172  1  0.78758505  -0.00773382  0.78814624  1
  Pd  Pd173  1  0.58979044  0.80030855  0.40767554  1
  Pd  Pd174  1  -0.00378292  0.60205621  0.40344965  1
  Pd  Pd175  1  0.79899664  0.80470094  0.60525945  1
  Pd  Pd176  1  0.59769948  0.19628138  0.59089029  1
  Pd  Pd177  1  0.40497074  0.80650771  0.40850759  1
  Pd  Pd178  1  0.60454695  0.18610301  0.20243831  1
  Pd  Pd179  1  0.79960341  -0.00611156  0.19555411  1
  Pd  Pd180  1  0.00440132  0.19589239  -0.00487005  1
  Pd  Pd181  1  0.20340592  0.80393923  0.79318546  1
  Pd  Pd182  1  0.00836350  0.59983886  0.20075707  1
  Pd  Pd183  1  0.40298863  0.60081951  0.20745068  1
  Pd  Pd184  1  0.40770635  0.40937134  0.40604918  1
  Pd  Pd185  1  0.40158797  -0.00259257  0.20483586  1
  Pd  Pd186  1  0.39787271  0.80466842  0.59066440  1
  Pd  Pd187  1  0.19641006  -0.00887565  0.20986660  1
  Pd  Pd188  1  0.59118752  0.19249667  0.80581552  1
  Pd  Pd189  1  0.00233249  0.19922131  0.80300678  1
  Pd  Pd190  1  0.60091009  0.00847937  0.38671432  1
  Pd  Pd191  1  -0.00781426  0.41409552  0.00602022  1
  Pd  Pd192  1  0.59383394  0.80443422  0.19151723  1
  Pd  Pd193  1  0.19120979  0.59224676  0.39462439  1
  Pd  Pd194  1  0.79535407  0.00485679  0.40507915  1
  Pd  Pd195  1  0.00588172  0.60677415  0.58986660  1
  Pd  Pd196  1  0.59135098  0.19758932  0.00746051  1
  Pd  Pd197  1  0.40023136  0.58950248  0.39559995  1
  Pd  Pd198  1  0.60543261  0.39603368  0.00313953  1
  Pd  Pd199  1  0.19708509  0.79637959  0.20821964  1
  Rh  Rh200  1  0.60358363  0.40356376  0.59624212  1
  Rh  Rh201  1  0.00547058  -0.00238326  0.40237505  1
  Rh  Rh202  1  0.80587559  0.60124665  0.79742188  1
  Rh  Rh203  1  0.61249601  0.80539967  0.80719125  1
  Rh  Rh204  1  0.80561116  0.20675286  -0.00442549  1
  Rh  Rh205  1  0.39856281  -0.00281640  0.60482582  1
  Rh  Rh206  1  0.80870227  0.20265291  0.59071343  1
  Rh  Rh207  1  -0.00652431  0.20685659  0.39844133  1
  Rh  Rh208  1  0.59142197  0.60218405  0.00282235  1
  Rh  Rh209  1  0.38642885  0.81185697  0.80201007  1
  Rh  Rh210  1  0.80839548  -0.00405298  0.00666342  1
  Rh  Rh211  1  0.60110800  -0.00317050  0.00467533  1
  Rh  Rh212  1  0.40746316  0.59136968  0.60511006  1
  Rh  Rh213  1  0.19695323  0.59610331  0.80128756  1
  Rh  Rh214  1  0.79560623  0.60332121  0.20744985  1
  Rh  Rh215  1  0.19882498  0.60704326  -0.00091187  1
  Rh  Rh216  1  0.00383796  0.00030075  0.00196404  1
  Rh  Rh217  1  -0.00933038  0.39566888  0.59858447  1
  Rh  Rh218  1  0.59592965  0.40536486  0.20052738  1
  Rh  Rh219  1  0.00645656  0.40040402  0.39941749  1
  Rh  Rh220  1  0.38887680  0.00099311  -0.00330868  1
  Rh  Rh221  1  0.01056652  0.59844414  0.00165262  1
  Rh  Rh222  1  0.40539769  0.41055499  0.20039121  1
  Rh  Rh223  1  0.60013308  0.40534167  0.80823810  1
  Rh  Rh224  1  0.00826932  -0.00149432  0.20605241  1
  Rh  Rh225  1  -0.00118069  0.79293207  0.79936875  1
  Rh  Rh226  1  0.80802238  0.20768147  0.81227259  1
  Rh  Rh227  1  0.39107504  -0.00335856  0.39060656  1
  Rh  Rh228  1  0.80247165  0.40347533  0.18299417  1
  Rh  Rh229  1  0.79177278  0.39792835  0.40999551  1
  Rh  Rh230  1  0.80024661  0.59556330  0.00165468  1
  Rh  Rh231  1  0.38834100  0.19133220  0.19190890  1
  Rh  Rh232  1  0.19383253  0.00380494  0.00451926  1
  Rh  Rh233  1  0.39051843  0.20447785  0.58579132  1
  Rh  Rh234  1  0.20334531  0.20119483  0.19374358  1
  Rh  Rh235  1  0.00038328  0.79925216  -0.00161169  1
  Rh  Rh236  1  -0.00125741  0.40790945  0.80073596  1
  Rh  Rh237  1  0.00030893  0.79603085  0.40054941  1
  Rh  Rh238  1  0.19379988  0.00590682  0.59636930  1
  Rh  Rh239  1  0.20092768  0.80448564  0.39455097  1
  Rh  Rh240  1  -0.00507100  0.79859245  0.20568725  1
  Rh  Rh241  1  -0.00034078  0.40473094  0.19313316  1
  Rh  Rh242  1  0.59696968  0.59654013  0.79557367  1
  Rh  Rh243  1  0.41101249  0.19627895  0.81337585  1
  Rh  Rh244  1  0.21008655  0.19857371  0.40609382  1
  Rh  Rh245  1  0.20086465  0.79538982  0.59803160  1
  Rh  Rh246  1  0.59450290  0.59125476  0.19938395  1
  Rh  Rh247  1  0.39789540  0.19398258  0.39915603  1
  Rh  Rh248  1  0.19492725  0.60728348  0.59463016  1
  Rh  Rh249  1  0.19750617  0.40021509  0.20414334  1
