# generated using pymatgen
data_ZrScNbPdRh
_symmetry_space_group_name_H-M   'P 1'
_cell_length_a   16.55689065
_cell_length_b   16.56163958
_cell_length_c   16.56161772
_cell_angle_alpha   89.96512843
_cell_angle_beta   89.95406107
_cell_angle_gamma   89.98521148
_symmetry_Int_Tables_number   1
_chemical_formula_structural   ZrScNbPdRh
_chemical_formula_sum   'Zr50 Sc50 Nb50 Pd50 Rh50'
_cell_volume   4541.34641355
_cell_formula_units_Z   50
loop_
 _symmetry_equiv_pos_site_id
 _symmetry_equiv_pos_as_xyz
  1  'x, y, z'
loop_
 _atom_site_type_symbol
 _atom_site_label
 _atom_site_symmetry_multiplicity
 _atom_site_fract_x
 _atom_site_fract_y
 _atom_site_fract_z
 _atom_site_occupancy
  Zr  Zr0  1  0.49870602  0.49972971  0.50301527  1
  Zr  Zr1  1  0.70401292  0.69916473  0.49724348  1
  Zr  Zr2  1  0.49645025  0.09410930  0.70261321  1
  Zr  Zr3  1  0.10300787  0.70661381  0.50076031  1
  Zr  Zr4  1  0.09342444  0.69774069  0.30047656  1
  Zr  Zr5  1  0.89696896  0.49698366  0.71152540  1
  Zr  Zr6  1  0.49936884  0.90132863  0.89880653  1
  Zr  Zr7  1  0.09720890  0.69892288  0.09699798  1
  Zr  Zr8  1  0.69333368  0.49675428  0.50347310  1
  Zr  Zr9  1  0.29639313  0.70833510  0.50741785  1
  Zr  Zr10  1  0.50204579  0.89928561  0.70694882  1
  Zr  Zr11  1  0.90301682  0.49913344  0.10351068  1
  Zr  Zr12  1  0.48903749  0.90151859  0.49963416  1
  Zr  Zr13  1  0.29625829  0.70614109  0.89968718  1
  Zr  Zr14  1  0.50463147  0.69381364  0.10567751  1
  Zr  Zr15  1  0.90010655  0.69972965  0.49967629  1
  Zr  Zr16  1  0.10377059  0.29639927  0.29602890  1
  Zr  Zr17  1  0.69628243  0.90909370  0.90211190  1
  Zr  Zr18  1  0.71298097  0.49730592  0.30373718  1
  Zr  Zr19  1  0.10814274  0.69785469  0.70161416  1
  Zr  Zr20  1  0.30745812  0.49781158  0.89734518  1
  Zr  Zr21  1  0.49740315  0.50412933  0.30633996  1
  Zr  Zr22  1  0.49639302  0.30401055  0.30019070  1
  Zr  Zr23  1  0.70236130  0.30453763  0.50872665  1
  Zr  Zr24  1  0.10278883  0.89306410  0.29668561  1
  Zr  Zr25  1  0.89651028  0.68412624  0.29801984  1
  Zr  Zr26  1  0.70468529  0.89729773  0.49980843  1
  Zr  Zr27  1  0.30028272  0.10150210  0.69995790  1
  Zr  Zr28  1  0.08183660  0.50038177  0.29649976  1
  Zr  Zr29  1  0.10546227  0.10748123  0.70150163  1
  Zr  Zr30  1  0.29709557  0.09350897  0.89614777  1
  Zr  Zr31  1  0.49624279  0.69769886  0.49527911  1
  Zr  Zr32  1  0.50358481  0.09476754  0.29586798  1
  Zr  Zr33  1  0.29620433  0.89710701  0.10019573  1
  Zr  Zr34  1  0.70173107  0.69915803  0.70377412  1
  Zr  Zr35  1  0.49025370  0.89715801  0.30524684  1
  Zr  Zr36  1  0.70463833  0.29918512  0.29514123  1
  Zr  Zr37  1  0.90422158  0.09958696  0.70209684  1
  Zr  Zr38  1  0.30139846  0.70437834  0.09387445  1
  Zr  Zr39  1  0.30044442  0.10041206  0.30572506  1
  Zr  Zr40  1  0.88942208  0.29534221  0.69106940  1
  Zr  Zr41  1  0.89178956  0.91187072  0.89997964  1
  Zr  Zr42  1  0.09916267  0.90986858  0.09994209  1
  Zr  Zr43  1  0.90487059  0.89722536  0.50990775  1
  Zr  Zr44  1  0.89890523  0.31937289  0.29877920  1
  Zr  Zr45  1  0.50187546  0.30772760  0.49741200  1
  Zr  Zr46  1  0.70031204  0.69541493  0.29692782  1
  Zr  Zr47  1  0.70637231  0.89667495  0.71020235  1
  Zr  Zr48  1  0.49587433  0.70605812  0.89329681  1
  Zr  Zr49  1  0.08689133  0.50388057  0.89459647  1
  Sc  Sc50  1  0.10456032  0.69682765  0.89900965  1
  Sc  Sc51  1  0.29935996  0.29815577  0.49872183  1
  Sc  Sc52  1  0.50023987  0.30835439  0.90274581  1
  Sc  Sc53  1  0.90042409  0.29649603  0.09757729  1
  Sc  Sc54  1  0.69520564  0.10205508  0.10364390  1
  Sc  Sc55  1  0.70947070  0.69509175  0.90596244  1
  Sc  Sc56  1  0.90193948  0.48921684  0.48588152  1
  Sc  Sc57  1  0.30245522  0.30777845  0.70074913  1
  Sc  Sc58  1  0.30556853  0.90393742  0.68826945  1
  Sc  Sc59  1  0.10018974  0.90652701  0.69090597  1
  Sc  Sc60  1  0.30651549  0.30954189  0.10932228  1
  Sc  Sc61  1  0.29998308  0.69556527  0.70054737  1
  Sc  Sc62  1  0.09740108  0.09752117  0.89778545  1
  Sc  Sc63  1  0.90083117  0.10034916  0.29591987  1
  Sc  Sc64  1  0.69338647  0.50794110  0.08953194  1
  Sc  Sc65  1  0.70628194  0.29878551  0.09748603  1
  Sc  Sc66  1  0.49405916  0.90929009  0.09530387  1
  Sc  Sc67  1  0.89750567  0.90088485  0.09726190  1
  Sc  Sc68  1  0.30059710  0.09991501  0.50132407  1
  Sc  Sc69  1  0.69600542  0.11438602  0.71067186  1
  Sc  Sc70  1  0.09984058  0.30474618  0.69724970  1
  Sc  Sc71  1  0.10217629  0.29953559  0.50680874  1
  Sc  Sc72  1  0.10974073  0.11003867  0.50846768  1
  Sc  Sc73  1  0.89980543  0.68608519  0.89838687  1
  Sc  Sc74  1  0.89148034  0.29678707  0.90463145  1
  Sc  Sc75  1  0.30453670  0.29893434  0.30006529  1
  Sc  Sc76  1  0.29707352  0.08699872  0.10330191  1
  Sc  Sc77  1  0.30406735  0.49956582  0.69970552  1
  Sc  Sc78  1  0.89522660  0.70506780  0.70305469  1
  Sc  Sc79  1  0.69894794  0.30148054  0.89719775  1
  Sc  Sc80  1  0.09570355  0.50353781  0.10155012  1
  Sc  Sc81  1  0.09416933  0.49770635  0.49994919  1
  Sc  Sc82  1  0.89454582  0.10265161  0.90097930  1
  Sc  Sc83  1  0.10432110  0.10262789  0.28796557  1
  Sc  Sc84  1  0.89599468  0.49861965  0.90450379  1
  Sc  Sc85  1  0.29954723  0.50052318  0.10513437  1
  Sc  Sc86  1  0.50196700  0.49197960  0.90380729  1
  Sc  Sc87  1  0.11106555  0.90411194  0.90421144  1
  Sc  Sc88  1  0.70070176  0.09111487  0.49193279  1
  Sc  Sc89  1  0.90279525  0.89586326  0.29957094  1
  Sc  Sc90  1  0.51017388  0.29520373  0.70648314  1
  Sc  Sc91  1  0.69308186  0.90707991  0.30938801  1
  Sc  Sc92  1  0.49155555  0.70140353  0.70012167  1
  Sc  Sc93  1  0.49887422  0.30707515  0.10035790  1
  Sc  Sc94  1  0.50211507  0.08719899  0.89286302  1
  Sc  Sc95  1  0.30761785  0.30588654  0.89345300  1
  Sc  Sc96  1  0.09277609  0.29919985  0.89461379  1
  Sc  Sc97  1  0.50144870  0.49669495  0.09687491  1
  Sc  Sc98  1  0.31187955  0.49839593  0.50665210  1
  Sc  Sc99  1  0.30903943  0.70535709  0.29130262  1
  Nb  Nb100  1  0.49406900  0.50483886  0.69739247  1
  Nb  Nb101  1  0.70216239  0.89377320  0.09791786  1
  Nb  Nb102  1  0.89842350  0.90320340  0.70351686  1
  Nb  Nb103  1  0.30405134  0.89634384  0.91611247  1
  Nb  Nb104  1  0.70695027  0.30762235  0.70271673  1
  Nb  Nb105  1  0.90038503  0.29150841  0.50061922  1
  Nb  Nb106  1  0.88514650  0.70293007  0.09123910  1
  Nb  Nb107  1  0.69998414  0.49797905  0.89316836  1
  Nb  Nb108  1  0.30013883  0.90155275  0.30208256  1
  Nb  Nb109  1  0.70293071  0.49231346  0.70119754  1
  Nb  Nb110  1  0.69929241  0.10128422  0.29986962  1
  Nb  Nb111  1  0.90313907  0.10320977  0.50347428  1
  Nb  Nb112  1  0.10511555  0.89325128  0.49441315  1
  Nb  Nb113  1  0.09565237  0.10321848  0.09738565  1
  Nb  Nb114  1  0.09265481  0.50172017  0.70104782  1
  Nb  Nb115  1  0.50365061  0.09929247  0.50044739  1
  Nb  Nb116  1  0.69865503  0.10379367  0.90328285  1
  Nb  Nb117  1  0.29612200  0.49838023  0.30145802  1
  Nb  Nb118  1  0.49956477  0.10060903  0.09445717  1
  Nb  Nb119  1  0.90284143  0.49797423  0.29823003  1
  Nb  Nb120  1  0.29899323  0.89579501  0.49060122  1
  Nb  Nb121  1  0.10324034  0.29316462  0.09845276  1
  Nb  Nb122  1  0.90794481  0.09675268  0.09548945  1
  Nb  Nb123  1  0.70203087  0.70499225  0.09935929  1
  Nb  Nb124  1  0.50208671  0.70289634  0.29464104  1
  Nb  Nb125  1  0.80263939  0.00005950  0.60486344  1
  Nb  Nb126  1  0.39997953  0.19430140  0.00108602  1
  Nb  Nb127  1  0.80192453  0.19997001  0.40050709  1
  Nb  Nb128  1  0.79567308  0.00224982  0.19915985  1
  Nb  Nb129  1  0.60457172  0.80029682  0.00546995  1
  Nb  Nb130  1  0.39968414  0.60473820  -0.00265894  1
  Nb  Nb131  1  0.59970787  0.80295668  0.59981112  1
  Nb  Nb132  1  0.60080568  0.79945710  0.19763224  1
  Nb  Nb133  1  -0.00485023  0.80085276  -0.00551768  1
  Nb  Nb134  1  0.80146543  0.59243845  0.60145720  1
  Nb  Nb135  1  0.20196095  0.59679911  0.39645333  1
  Nb  Nb136  1  -0.00275884  0.59706998  0.60528209  1
  Nb  Nb137  1  0.20219520  0.20404259  0.00335456  1
  Nb  Nb138  1  0.60241434  0.59154635  0.79690201  1
  Nb  Nb139  1  -0.00113202  0.80646236  0.80296876  1
  Nb  Nb140  1  0.19450273  0.39513439  0.00051022  1
  Nb  Nb141  1  0.60362781  0.40394584  0.20500573  1
  Nb  Nb142  1  0.59409995  0.19463030  -0.00087573  1
  Nb  Nb143  1  -0.00514634  0.19893440  0.40346075  1
  Nb  Nb144  1  0.40749181  0.19790624  0.60079584  1
  Nb  Nb145  1  0.60331092  -0.00387845  0.60140132  1
  Nb  Nb146  1  0.60405321  0.19785883  0.39628390  1
  Nb  Nb147  1  0.20001605  0.40682043  0.39444032  1
  Nb  Nb148  1  0.00783415  0.00267484  0.40744828  1
  Nb  Nb149  1  0.19753054  -0.00827456  0.39976311  1
  Pd  Pd150  1  -0.00593136  0.00066664  0.20463730  1
  Pd  Pd151  1  0.60115605  0.60608285  0.60796351  1
  Pd  Pd152  1  0.60261561  0.19415357  0.59532364  1
  Pd  Pd153  1  0.80487747  0.80105023  0.39126586  1
  Pd  Pd154  1  -0.00666002  0.40311337  0.59988674  1
  Pd  Pd155  1  -0.01045832  0.79351384  0.18822890  1
  Pd  Pd156  1  0.19416114  0.40339571  0.19893667  1
  Pd  Pd157  1  0.39951273  0.59405527  0.19568610  1
  Pd  Pd158  1  -0.00953625  0.38892802  0.80040656  1
  Pd  Pd159  1  0.00238113  0.19689298  -0.00529736  1
  Pd  Pd160  1  0.59664132  0.40295902  0.79568288  1
  Pd  Pd161  1  0.79607478  0.59403834  0.18977340  1
  Pd  Pd162  1  0.40577421  0.20277924  0.80304604  1
  Pd  Pd163  1  0.39712571  0.19574398  0.19182649  1
  Pd  Pd164  1  0.20160326  0.21015120  0.80526168  1
  Pd  Pd165  1  0.00393800  0.00558693  0.59547530  1
  Pd  Pd166  1  0.19967301  0.81115841  0.79412495  1
  Pd  Pd167  1  0.20139860  0.79625176  0.19908215  1
  Pd  Pd168  1  -0.00857591  0.20480950  0.20447949  1
  Pd  Pd169  1  0.20405766  0.58821018  -0.00325809  1
  Pd  Pd170  1  0.79517435  0.00908364  0.01119199  1
  Pd  Pd171  1  0.39784746  -0.00144106  0.19988572  1
  Pd  Pd172  1  0.39026405  0.60592766  0.39973701  1
  Pd  Pd173  1  0.81346355  0.00432032  0.39822846  1
  Pd  Pd174  1  0.19888363  0.60216640  0.20573158  1
  Pd  Pd175  1  0.78796529  0.18761717  0.59565707  1
  Pd  Pd176  1  0.38529328  0.80730469  0.79549489  1
  Pd  Pd177  1  0.79475548  0.40365813  0.00083683  1
  Pd  Pd178  1  0.20435427  -0.01074592  0.79710461  1
  Pd  Pd179  1  0.19694918  0.58864861  0.59394488  1
  Pd  Pd180  1  -0.00558161  0.20549857  0.79877064  1
  Pd  Pd181  1  0.00371794  0.79437920  0.61167921  1
  Pd  Pd182  1  0.59590076  0.20783091  0.19624007  1
  Pd  Pd183  1  0.20160588  0.40553789  0.59381951  1
  Pd  Pd184  1  0.79525378  0.80868394  0.20864733  1
  Pd  Pd185  1  0.80863036  0.19313502  0.19767806  1
  Pd  Pd186  1  0.19591157  0.40376752  0.80493517  1
  Pd  Pd187  1  0.60445878  -0.00867317  0.19467084  1
  Pd  Pd188  1  0.00575386  -0.00487047  0.80446600  1
  Pd  Pd189  1  0.00439475  0.39589397  0.00298692  1
  Pd  Pd190  1  0.59326470  0.39957265  0.61221591  1
  Pd  Pd191  1  -0.00637154  0.80105196  0.39834517  1
  Pd  Pd192  1  0.20275771  0.59023595  0.80064807  1
  Pd  Pd193  1  0.80650553  0.79613129  0.81260481  1
  Pd  Pd194  1  0.21260040  0.19789126  0.19087915  1
  Pd  Pd195  1  0.60126670  0.59949016  0.39647958  1
  Pd  Pd196  1  0.20175892  -0.00317334  0.59035451  1
  Pd  Pd197  1  0.59744438  0.79898324  0.39920214  1
  Pd  Pd198  1  0.59495940  0.60580369  -0.01247098  1
  Pd  Pd199  1  0.40682674  0.19786726  0.40714055  1
  Rh  Rh200  1  0.80193284  0.39377072  0.80562341  1
  Rh  Rh201  1  0.60799823  0.00504038  0.79386478  1
  Rh  Rh202  1  0.40768774  0.39054887  0.60611056  1
  Rh  Rh203  1  0.40850088  0.40896126  0.20514493  1
  Rh  Rh204  1  0.39433580  0.79133984  0.39823951  1
  Rh  Rh205  1  0.80371749  0.59327251  0.40840898  1
  Rh  Rh206  1  0.20301643  0.80785767  0.60637498  1
  Rh  Rh207  1  0.40614191  0.59585275  0.80587583  1
  Rh  Rh208  1  0.21243902  0.20769342  0.60812799  1
  Rh  Rh209  1  0.59336287  0.00406062  0.40299443  1
  Rh  Rh210  1  0.79299861  0.59411100  0.79664355  1
  Rh  Rh211  1  0.39950852  0.60379018  0.60125547  1
  Rh  Rh212  1  0.41129515  0.79631403  0.00696107  1
  Rh  Rh213  1  0.38914269  0.40084992  0.39944673  1
  Rh  Rh214  1  0.80159328  0.80053558  -0.00792152  1
  Rh  Rh215  1  0.00345597  0.60256512  0.40959504  1
  Rh  Rh216  1  0.79553668  0.80057061  0.60324885  1
  Rh  Rh217  1  0.79533777  0.01303667  0.79384195  1
  Rh  Rh218  1  0.19290688  0.20213503  0.39848180  1
  Rh  Rh219  1  0.79989399  0.59253513  0.00161325  1
  Rh  Rh220  1  0.01044948  0.38667552  0.40142613  1
  Rh  Rh221  1  0.80789601  0.40693314  0.59604093  1
  Rh  Rh222  1  0.19719066  0.00931518  0.00243470  1
  Rh  Rh223  1  0.79357942  0.19301680  0.00302872  1
  Rh  Rh224  1  0.00163402  -0.00076254  -0.00400583  1
  Rh  Rh225  1  0.20729692  0.79553598  0.39154774  1
  Rh  Rh226  1  0.19910531  0.00069621  0.20567627  1
  Rh  Rh227  1  0.00234089  0.39336835  0.18959303  1
  Rh  Rh228  1  0.39369653  0.00512263  0.40301092  1
  Rh  Rh229  1  0.40289215  0.79842949  0.60047244  1
  Rh  Rh230  1  0.60683086  0.39068613  0.00721394  1
  Rh  Rh231  1  0.59931974  0.20209827  0.81346443  1
  Rh  Rh232  1  0.38931772  0.40140174  0.00333080  1
  Rh  Rh233  1  0.60401159  0.00146887  0.00420869  1
  Rh  Rh234  1  0.39625973  0.00540909  -0.00390407  1
  Rh  Rh235  1  0.60683186  0.39499608  0.39204596  1
  Rh  Rh236  1  0.79745110  0.39528010  0.40742678  1
  Rh  Rh237  1  -0.00889064  0.60768805  0.18985508  1
  Rh  Rh238  1  0.79952795  0.20364089  0.80352037  1
  Rh  Rh239  1  0.18815087  0.80218659  0.00355841  1
  Rh  Rh240  1  -0.00666555  0.60801761  0.00485320  1
  Rh  Rh241  1  0.00170425  0.61127890  0.79210423  1
  Rh  Rh242  1  0.79416432  0.40968948  0.18721124  1
  Rh  Rh243  1  0.60630141  0.78798416  0.80448981  1
  Rh  Rh244  1  0.40927022  0.40172814  0.79133525  1
  Rh  Rh245  1  0.40717058  0.80702280  0.19460581  1
  Rh  Rh246  1  0.40238129  0.00687577  0.59302432  1
  Rh  Rh247  1  0.00711201  0.20070818  0.60167779  1
  Rh  Rh248  1  0.38912749  -0.01115235  0.80623775  1
  Rh  Rh249  1  0.60520399  0.59651831  0.20666701  1
