# generated using pymatgen
data_ZrScNbPdRh
_symmetry_space_group_name_H-M   'P 1'
_cell_length_a   16.54874084
_cell_length_b   16.55494787
_cell_length_c   16.55332328
_cell_angle_alpha   89.95397482
_cell_angle_beta   89.98813156
_cell_angle_gamma   90.00000186
_symmetry_Int_Tables_number   1
_chemical_formula_structural   ZrScNbPdRh
_chemical_formula_sum   'Zr50 Sc50 Nb50 Pd50 Rh50'
_cell_volume   4535.00551700
_cell_formula_units_Z   50
loop_
 _symmetry_equiv_pos_site_id
 _symmetry_equiv_pos_as_xyz
  1  'x, y, z'
loop_
 _atom_site_type_symbol
 _atom_site_label
 _atom_site_symmetry_multiplicity
 _atom_site_fract_x
 _atom_site_fract_y
 _atom_site_fract_z
 _atom_site_occupancy
  Zr  Zr0  1  0.29077293  0.30670344  0.50420412  1
  Zr  Zr1  1  0.09927051  0.10221639  0.48709470  1
  Zr  Zr2  1  0.09952235  0.89721981  0.49652408  1
  Zr  Zr3  1  0.49286242  0.09630621  0.29086607  1
  Zr  Zr4  1  0.70236261  0.89590823  0.29371160  1
  Zr  Zr5  1  0.09443265  0.10243392  0.70393310  1
  Zr  Zr6  1  0.89823011  0.70506279  0.50024086  1
  Zr  Zr7  1  0.30157497  0.69617100  0.30470448  1
  Zr  Zr8  1  0.30147918  0.30578982  0.89702588  1
  Zr  Zr9  1  0.29706351  0.69992893  0.90261305  1
  Zr  Zr10  1  0.09739363  0.50192649  0.09884215  1
  Zr  Zr11  1  0.50173302  0.50693094  0.50565571  1
  Zr  Zr12  1  0.09329792  0.11035070  0.89759983  1
  Zr  Zr13  1  0.09839287  0.69333524  0.10032027  1
  Zr  Zr14  1  0.49464753  0.90449757  0.10014691  1
  Zr  Zr15  1  0.70214767  0.89321854  0.09838165  1
  Zr  Zr16  1  0.11098277  0.69550195  0.49927764  1
  Zr  Zr17  1  0.69414492  0.09283003  0.30461658  1
  Zr  Zr18  1  0.30801958  0.89590575  0.89940504  1
  Zr  Zr19  1  0.30386617  0.09933864  0.11281137  1
  Zr  Zr20  1  0.10464011  0.48922687  0.50556682  1
  Zr  Zr21  1  0.90422325  0.29863386  0.50086619  1
  Zr  Zr22  1  0.69878130  0.70880552  0.90384198  1
  Zr  Zr23  1  0.49476524  0.29893874  0.10630967  1
  Zr  Zr24  1  0.30270958  0.68827668  0.10017900  1
  Zr  Zr25  1  0.29985042  0.10744768  0.50484214  1
  Zr  Zr26  1  0.69660598  0.89769786  0.49611151  1
  Zr  Zr27  1  0.69479753  0.69469895  0.50891780  1
  Zr  Zr28  1  0.10384112  0.29855785  0.70382227  1
  Zr  Zr29  1  0.09700956  0.30627265  0.10017531  1
  Zr  Zr30  1  0.69902552  0.09999357  0.08815168  1
  Zr  Zr31  1  0.49822158  0.89151070  0.49889124  1
  Zr  Zr32  1  0.29850649  0.50278399  0.89764634  1
  Zr  Zr33  1  0.30838730  0.50362038  0.50000960  1
  Zr  Zr34  1  0.90095176  0.89168730  0.30292429  1
  Zr  Zr35  1  0.69591015  0.31036002  0.30075877  1
  Zr  Zr36  1  0.50352355  0.49585799  0.69972314  1
  Zr  Zr37  1  0.90271817  0.50340843  0.09463176  1
  Zr  Zr38  1  0.90175161  0.90146605  0.49958622  1
  Zr  Zr39  1  0.10224968  0.89956909  0.69834597  1
  Zr  Zr40  1  0.09923146  0.29873200  0.31347699  1
  Zr  Zr41  1  0.90284078  0.49860058  0.70198451  1
  Zr  Zr42  1  0.69462491  0.50390283  0.50158961  1
  Zr  Zr43  1  0.69786982  0.90263677  0.90204634  1
  Zr  Zr44  1  0.50039333  0.09903772  0.49977686  1
  Zr  Zr45  1  0.69889637  0.50261231  0.90351648  1
  Zr  Zr46  1  0.89645640  0.89574492  0.10579159  1
  Zr  Zr47  1  0.10627162  0.09601290  0.10425755  1
  Zr  Zr48  1  0.29548417  0.90964902  0.09097598  1
  Zr  Zr49  1  0.69807184  0.10594642  0.89506558  1
  Sc  Sc50  1  0.49611231  0.30305377  0.70586683  1
  Sc  Sc51  1  0.89693019  0.69597124  0.10521446  1
  Sc  Sc52  1  0.70618478  0.70346682  0.30039294  1
  Sc  Sc53  1  0.49953405  0.70141645  0.09622388  1
  Sc  Sc54  1  0.90461982  0.90117152  0.69094457  1
  Sc  Sc55  1  0.71295071  0.49950483  0.10126747  1
  Sc  Sc56  1  0.69928460  0.29266703  0.89595330  1
  Sc  Sc57  1  0.49954030  0.70671590  0.69997927  1
  Sc  Sc58  1  0.51000481  0.89947375  0.29879237  1
  Sc  Sc59  1  0.88948621  0.89496737  0.89970694  1
  Sc  Sc60  1  0.90169454  0.70260040  0.29837139  1
  Sc  Sc61  1  0.10575097  0.69589234  0.70171207  1
  Sc  Sc62  1  0.30230134  0.70227013  0.70618699  1
  Sc  Sc63  1  0.70391992  0.50011463  0.30440623  1
  Sc  Sc64  1  0.09666065  0.50125544  0.29502992  1
  Sc  Sc65  1  0.89232492  0.49472720  0.50334702  1
  Sc  Sc66  1  0.89669374  0.30549800  0.31112959  1
  Sc  Sc67  1  0.49199246  0.50290880  0.10324836  1
  Sc  Sc68  1  0.49041022  0.31634981  0.49859689  1
  Sc  Sc69  1  0.49527416  0.09787153  0.09291159  1
  Sc  Sc70  1  0.49952460  0.70304988  0.29740946  1
  Sc  Sc71  1  0.89824402  0.10574536  0.09099559  1
  Sc  Sc72  1  0.90304569  0.10976559  0.89365838  1
  Sc  Sc73  1  0.09218087  0.69588471  0.30078485  1
  Sc  Sc74  1  0.50550627  0.89559585  0.89521049  1
  Sc  Sc75  1  0.10087602  0.90380941  0.10805959  1
  Sc  Sc76  1  0.29916431  0.88922961  0.49737194  1
  Sc  Sc77  1  0.89702974  0.69268695  0.90580212  1
  Sc  Sc78  1  0.90625541  0.49692881  0.90009878  1
  Sc  Sc79  1  0.51067585  0.10161602  0.90115973  1
  Sc  Sc80  1  0.50549495  0.48743276  0.30534316  1
  Sc  Sc81  1  0.90630079  0.09936510  0.31239771  1
  Sc  Sc82  1  0.29419934  0.49660678  0.09983202  1
  Sc  Sc83  1  0.09316522  0.90930729  0.30167603  1
  Sc  Sc84  1  0.50426738  0.29786673  0.89532667  1
  Sc  Sc85  1  0.90043450  0.30387948  0.09042429  1
  Sc  Sc86  1  0.29546538  0.90303435  0.30598156  1
  Sc  Sc87  1  0.69867439  0.49259192  0.69037909  1
  Sc  Sc88  1  0.90721064  0.29847413  0.89955724  1
  Sc  Sc89  1  0.09747080  0.49772118  0.70938881  1
  Sc  Sc90  1  0.11165497  0.90368843  0.90169851  1
  Sc  Sc91  1  0.30661152  0.09660517  0.91248091  1
  Sc  Sc92  1  0.49275233  0.70260311  0.90011996  1
  Sc  Sc93  1  0.89697739  0.30764452  0.70047780  1
  Sc  Sc94  1  0.30806278  0.50060972  0.70402296  1
  Sc  Sc95  1  0.30263826  0.50307437  0.29411865  1
  Sc  Sc96  1  0.69274639  0.88698301  0.70562910  1
  Sc  Sc97  1  0.71325608  0.30463408  0.50020610  1
  Sc  Sc98  1  0.49399701  0.49252501  0.89170480  1
  Sc  Sc99  1  0.89695047  0.50702098  0.29656070  1
  Nb  Nb100  1  0.29290813  0.10057499  0.30242333  1
  Nb  Nb101  1  0.69577812  0.29602526  0.70312073  1
  Nb  Nb102  1  0.88986238  0.10066519  0.50993059  1
  Nb  Nb103  1  0.49507318  0.90234696  0.69991280  1
  Nb  Nb104  1  0.30768372  0.29636624  0.29361557  1
  Nb  Nb105  1  0.69905833  0.69573196  0.09864149  1
  Nb  Nb106  1  0.49769036  0.10375754  0.69275040  1
  Nb  Nb107  1  0.30475436  0.10779392  0.69288668  1
  Nb  Nb108  1  0.70416415  0.10008654  0.50704406  1
  Nb  Nb109  1  0.31104036  0.69628470  0.49151547  1
  Nb  Nb110  1  0.09625832  0.50415947  0.89976612  1
  Nb  Nb111  1  0.89975056  0.69546893  0.69993457  1
  Nb  Nb112  1  0.48823225  0.70078251  0.49628319  1
  Nb  Nb113  1  0.30132331  0.28628421  0.69506350  1
  Nb  Nb114  1  0.70267381  0.69231763  0.70067942  1
  Nb  Nb115  1  0.89472528  0.09739772  0.68923880  1
  Nb  Nb116  1  0.09664913  0.69260237  0.90012797  1
  Nb  Nb117  1  0.70267363  0.10404086  0.69374005  1
  Nb  Nb118  1  0.09641337  0.30127888  0.50644666  1
  Nb  Nb119  1  0.69979418  0.29711571  0.09917972  1
  Nb  Nb120  1  0.30146520  0.90376420  0.70100596  1
  Nb  Nb121  1  0.50157995  0.29869954  0.30243117  1
  Nb  Nb122  1  0.10413891  0.09805505  0.30046022  1
  Nb  Nb123  1  0.29850598  0.29802420  0.10125891  1
  Nb  Nb124  1  0.09790633  0.30121493  0.89911185  1
  Nb  Nb125  1  0.39123553  0.80153649  0.19731313  1
  Nb  Nb126  1  0.00198015  0.79368903  0.80531587  1
  Nb  Nb127  1  0.59656909  0.20292845  0.40119365  1
  Nb  Nb128  1  0.79578171  0.60171243  0.79615046  1
  Nb  Nb129  1  -0.00014902  0.60037342  0.59955409  1
  Nb  Nb130  1  0.00393061  0.80001237  -0.00252814  1
  Nb  Nb131  1  0.39763404  0.00616298  0.40055306  1
  Nb  Nb132  1  0.00062585  0.20021372  0.20590278  1
  Nb  Nb133  1  0.60223360  0.20357298  0.20239171  1
  Nb  Nb134  1  0.21166418  0.00576413  0.79260554  1
  Nb  Nb135  1  0.60249922  0.19857853  0.59883269  1
  Nb  Nb136  1  0.60224888  0.39652103  0.00587817  1
  Nb  Nb137  1  -0.00051588  -0.00408687  -0.00133206  1
  Nb  Nb138  1  0.40174694  0.00409979  0.78706279  1
  Nb  Nb139  1  0.39828504  0.20216407  0.39468090  1
  Nb  Nb140  1  0.20415301  0.79649903  0.19916953  1
  Nb  Nb141  1  0.60504489  0.60145952  0.19581914  1
  Nb  Nb142  1  0.60587285  0.60272311  0.79794735  1
  Nb  Nb143  1  0.79804840  0.00052846  0.40801615  1
  Nb  Nb144  1  0.20487324  0.00235488  0.60381595  1
  Nb  Nb145  1  0.79663438  0.00617994  0.78882861  1
  Nb  Nb146  1  0.59847115  0.00253272  0.60637203  1
  Nb  Nb147  1  0.79654648  0.20236717  0.20078429  1
  Nb  Nb148  1  -0.00236112  0.19823628  0.59659057  1
  Nb  Nb149  1  0.20236404  0.20913902  0.00436233  1
  Pd  Pd150  1  0.40381531  0.59360811  -0.00461858  1
  Pd  Pd151  1  0.39830023  -0.00570535  0.59484792  1
  Pd  Pd152  1  0.60056043  0.78890658  0.39722149  1
  Pd  Pd153  1  0.60024444  0.00384433  0.79218369  1
  Pd  Pd154  1  0.20607022  0.40562094  0.61317486  1
  Pd  Pd155  1  0.80627613  0.19886900  0.79413190  1
  Pd  Pd156  1  0.60125868  0.00470036  0.18888337  1
  Pd  Pd157  1  -0.00895165  0.39405645  0.20460432  1
  Pd  Pd158  1  0.80749568  0.79992365  0.79349995  1
  Pd  Pd159  1  0.40328808  0.19384910  0.80670382  1
  Pd  Pd160  1  0.20332085  0.40116420  0.79547260  1
  Pd  Pd161  1  0.00528470  0.78879885  0.60535210  1
  Pd  Pd162  1  -0.00300954  0.41074186  0.40036007  1
  Pd  Pd163  1  0.79744456  0.80342465  0.60517133  1
  Pd  Pd164  1  -0.01023814  0.00989940  0.19618739  1
  Pd  Pd165  1  0.59268923  0.59124481  0.00036138  1
  Pd  Pd166  1  0.20571817  0.20601980  0.39959085  1
  Pd  Pd167  1  0.19476469  0.79530101  0.00675982  1
  Pd  Pd168  1  0.20170176  0.59588491  0.60615244  1
  Pd  Pd169  1  -0.00809976  -0.01082682  0.80842451  1
  Pd  Pd170  1  0.40561450  0.40033283  0.00056592  1
  Pd  Pd171  1  0.20165715  0.39838748  0.20761027  1
  Pd  Pd172  1  0.60130029  0.40723728  0.19124234  1
  Pd  Pd173  1  0.80835219  0.39596478  0.19972851  1
  Pd  Pd174  1  0.60237587  0.38761279  0.59532556  1
  Pd  Pd175  1  0.80215431  0.60344215  0.40100911  1
  Pd  Pd176  1  0.19641069  0.80170376  0.80137759  1
  Pd  Pd177  1  0.39824078  0.20270448  -0.00155037  1
  Pd  Pd178  1  0.19836444  0.59128572  0.39596854  1
  Pd  Pd179  1  0.59605378  0.60531092  0.39054926  1
  Pd  Pd180  1  0.80800543  0.00668835  -0.01254276  1
  Pd  Pd181  1  0.19547134  0.40095397  -0.00346900  1
  Pd  Pd182  1  0.79422105  0.19499463  0.39463194  1
  Pd  Pd183  1  0.59666309  0.79775718  0.60260964  1
  Pd  Pd184  1  0.20934633  0.79772228  0.59971993  1
  Pd  Pd185  1  0.20066435  0.59833623  0.79765956  1
  Pd  Pd186  1  0.79590463  0.39312853  -0.00832243  1
  Pd  Pd187  1  0.79460236  0.40385925  0.80387530  1
  Pd  Pd188  1  0.80839708  0.01114950  0.20779070  1
  Pd  Pd189  1  0.39241666  0.79421200  0.60234010  1
  Pd  Pd190  1  0.20624931  0.40593985  0.39118092  1
  Pd  Pd191  1  0.39790103  0.40503702  0.20249217  1
  Pd  Pd192  1  0.59390721  0.80221012  0.00280663  1
  Pd  Pd193  1  0.00850883  0.00747256  0.59197534  1
  Pd  Pd194  1  0.40181077  0.60674051  0.60832265  1
  Pd  Pd195  1  0.19276614  0.20693538  0.19990410  1
  Pd  Pd196  1  0.21007021  0.19426933  0.80968502  1
  Pd  Pd197  1  0.41064972  0.59243604  0.39022022  1
  Pd  Pd198  1  0.19339204  0.79843467  0.39007842  1
  Pd  Pd199  1  -0.00203250  0.59425633  0.40958422  1
  Rh  Rh200  1  0.20414406  -0.00767358  0.20906192  1
  Rh  Rh201  1  0.40218836  0.20024570  0.20211513  1
  Rh  Rh202  1  0.59595555  0.19949446  0.78920780  1
  Rh  Rh203  1  0.60554599  0.40409393  0.80756174  1
  Rh  Rh204  1  0.59524886  0.20910546  0.00713433  1
  Rh  Rh205  1  0.39283085  0.39750214  0.60803810  1
  Rh  Rh206  1  0.79836299  0.80195944  0.40204464  1
  Rh  Rh207  1  0.39151421  -0.01096460  0.20936867  1
  Rh  Rh208  1  0.39957293  0.80175096  0.00559851  1
  Rh  Rh209  1  0.20521107  -0.00102746  0.40603853  1
  Rh  Rh210  1  0.40376226  0.80735534  0.39065270  1
  Rh  Rh211  1  0.59701729  0.79125801  0.19410889  1
  Rh  Rh212  1  0.39328217  0.39354704  0.79441684  1
  Rh  Rh213  1  0.41314111  -0.00396360  -0.01536118  1
  Rh  Rh214  1  0.18682647  0.19585249  0.59927986  1
  Rh  Rh215  1  0.60358344  0.39713893  0.41063737  1
  Rh  Rh216  1  0.00554041  0.79716660  0.39993220  1
  Rh  Rh217  1  0.39073455  0.39817177  0.39553239  1
  Rh  Rh218  1  0.80137210  0.20472515  0.00017435  1
  Rh  Rh219  1  0.00211183  0.39993675  0.60319682  1
  Rh  Rh220  1  -0.00161239  0.60222408  -0.00061396  1
  Rh  Rh221  1  0.40987974  0.60224647  0.79937600  1
  Rh  Rh222  1  0.80837762  0.59597543  0.60398500  1
  Rh  Rh223  1  0.00473718  0.40389791  -0.00719603  1
  Rh  Rh224  1  0.19612995  0.60350049  0.20323628  1
  Rh  Rh225  1  0.40198400  0.80456017  0.79833913  1
  Rh  Rh226  1  -0.00787628  0.00157137  0.40443884  1
  Rh  Rh227  1  -0.00966234  0.20869143  0.78606480  1
  Rh  Rh228  1  0.80216506  0.60081624  -0.00394308  1
  Rh  Rh229  1  0.00392358  0.39604608  0.80530199  1
  Rh  Rh230  1  -0.00563051  0.60485744  0.79677362  1
  Rh  Rh231  1  0.58947765  0.60822898  0.60557310  1
  Rh  Rh232  1  0.59986709  0.00205213  0.40893164  1
  Rh  Rh233  1  0.00989519  0.19652276  0.01034066  1
  Rh  Rh234  1  0.79766081  0.79191831  0.19673205  1
  Rh  Rh235  1  0.80048323  0.40880756  0.40151566  1
  Rh  Rh236  1  0.79439360  0.60313174  0.20063573  1
  Rh  Rh237  1  0.78942508  -0.01267124  0.60168376  1
  Rh  Rh238  1  -0.00387449  0.59879948  0.20005545  1
  Rh  Rh239  1  0.80564655  0.79398993  0.00743388  1
  Rh  Rh240  1  0.80090184  0.21230978  0.60682736  1
  Rh  Rh241  1  -0.00186491  0.19798219  0.40272572  1
  Rh  Rh242  1  0.79688692  0.39811957  0.60192920  1
  Rh  Rh243  1  0.20024386  0.59336168  -0.00368740  1
  Rh  Rh244  1  0.59632880  0.79183680  0.79894167  1
  Rh  Rh245  1  0.41227097  0.60403259  0.20454016  1
  Rh  Rh246  1  0.00823943  0.79695518  0.19456565  1
  Rh  Rh247  1  0.59852100  -0.00482289  0.00086945  1
  Rh  Rh248  1  0.40841973  0.21492638  0.59320882  1
  Rh  Rh249  1  0.19050982  0.01536975  -0.01092648  1
