# generated using pymatgen
data_ZrScNbPdRh
_symmetry_space_group_name_H-M   'P 1'
_cell_length_a   16.56260043
_cell_length_b   16.56024505
_cell_length_c   16.55608050
_cell_angle_alpha   90.00438387
_cell_angle_beta   89.95011161
_cell_angle_gamma   89.98406104
_symmetry_Int_Tables_number   1
_chemical_formula_structural   ZrScNbPdRh
_chemical_formula_sum   'Zr50 Sc50 Nb50 Pd50 Rh50'
_cell_volume   4541.01180061
_cell_formula_units_Z   50
loop_
 _symmetry_equiv_pos_site_id
 _symmetry_equiv_pos_as_xyz
  1  'x, y, z'
loop_
 _atom_site_type_symbol
 _atom_site_label
 _atom_site_symmetry_multiplicity
 _atom_site_fract_x
 _atom_site_fract_y
 _atom_site_fract_z
 _atom_site_occupancy
  Zr  Zr0  1  0.29917857  0.30328466  0.29761277  1
  Zr  Zr1  1  0.50033773  0.10154930  0.09649505  1
  Zr  Zr2  1  0.49748285  0.50435669  0.89517210  1
  Zr  Zr3  1  0.50127678  0.88918296  0.09732323  1
  Zr  Zr4  1  0.89633920  0.10354331  0.90636432  1
  Zr  Zr5  1  0.70313844  0.48939321  0.91164831  1
  Zr  Zr6  1  0.69231274  0.30837065  0.09539545  1
  Zr  Zr7  1  0.69609518  0.48792595  0.70661521  1
  Zr  Zr8  1  0.10374049  0.49828962  0.49838430  1
  Zr  Zr9  1  0.50268571  0.29470102  0.29343195  1
  Zr  Zr10  1  0.89491306  0.31092172  0.49838536  1
  Zr  Zr11  1  0.70553317  0.10593675  0.69305881  1
  Zr  Zr12  1  0.10760933  0.30639336  0.89995903  1
  Zr  Zr13  1  0.50079856  0.70545729  0.50384411  1
  Zr  Zr14  1  0.69863773  0.10302139  0.88679569  1
  Zr  Zr15  1  0.90618683  0.09944916  0.27498116  1
  Zr  Zr16  1  0.10539169  0.70195913  0.91102794  1
  Zr  Zr17  1  0.68846646  0.70754261  0.10495100  1
  Zr  Zr18  1  0.09881792  0.31416580  0.09921444  1
  Zr  Zr19  1  0.29411932  0.50178483  0.50066026  1
  Zr  Zr20  1  0.50043325  0.89779533  0.69769495  1
  Zr  Zr21  1  0.90261168  0.91029143  0.90093008  1
  Zr  Zr22  1  0.09720094  0.89862359  0.29191897  1
  Zr  Zr23  1  0.70200375  0.70390970  0.70517109  1
  Zr  Zr24  1  0.50445258  0.10064665  0.70352063  1
  Zr  Zr25  1  0.29310826  0.30764813  0.70246605  1
  Zr  Zr26  1  0.29638706  0.09366549  0.29372742  1
  Zr  Zr27  1  0.29440075  0.09191104  0.10090866  1
  Zr  Zr28  1  0.90203563  0.49684117  0.70439959  1
  Zr  Zr29  1  0.69800444  0.29945303  0.29934262  1
  Zr  Zr30  1  0.49948215  0.89788402  0.50094603  1
  Zr  Zr31  1  0.30549544  0.89907854  0.50435712  1
  Zr  Zr32  1  0.90379734  0.30688469  0.89507271  1
  Zr  Zr33  1  0.50623336  0.68545030  0.30874584  1
  Zr  Zr34  1  0.69742488  0.50872434  0.10743661  1
  Zr  Zr35  1  0.90373804  0.69732764  0.90630148  1
  Zr  Zr36  1  0.10070346  0.09689758  0.10798506  1
  Zr  Zr37  1  0.90154479  0.90046802  0.29195880  1
  Zr  Zr38  1  0.30498180  0.50290675  0.30297697  1
  Zr  Zr39  1  0.09845329  0.29911952  0.50913381  1
  Zr  Zr40  1  0.90143036  0.30014506  0.29817236  1
  Zr  Zr41  1  0.89999543  0.70242955  0.30083164  1
  Zr  Zr42  1  0.90031627  0.89479743  0.49939672  1
  Zr  Zr43  1  0.31062630  0.50253950  0.70340258  1
  Zr  Zr44  1  0.70416184  0.89680819  0.28939775  1
  Zr  Zr45  1  0.90360447  0.69566830  0.69360429  1
  Zr  Zr46  1  0.89861557  0.90566612  0.69793672  1
  Zr  Zr47  1  0.49535446  0.09689379  0.29608793  1
  Zr  Zr48  1  0.90235898  0.29075794  0.10357237  1
  Zr  Zr49  1  0.70511746  0.69321506  0.49553840  1
  Sc  Sc50  1  0.30023441  0.89443280  0.10088497  1
  Sc  Sc51  1  0.29903462  0.10387021  0.70371964  1
  Sc  Sc52  1  0.69108155  0.10262619  0.29648005  1
  Sc  Sc53  1  0.70555621  0.90164989  0.70458791  1
  Sc  Sc54  1  0.29861462  0.30427542  0.08765128  1
  Sc  Sc55  1  0.29953826  0.69699080  0.09399223  1
  Sc  Sc56  1  0.89605606  0.69409828  0.10046630  1
  Sc  Sc57  1  0.10494493  0.70723845  0.29807066  1
  Sc  Sc58  1  0.30202837  0.50311156  0.09967387  1
  Sc  Sc59  1  0.90117124  0.10446412  0.70997886  1
  Sc  Sc60  1  0.30237404  0.49624161  0.89975529  1
  Sc  Sc61  1  0.29901670  0.69672587  0.30043472  1
  Sc  Sc62  1  0.49864740  0.30493478  0.10015899  1
  Sc  Sc63  1  0.30143926  0.69469169  0.49851071  1
  Sc  Sc64  1  0.09938209  0.89469759  0.69612804  1
  Sc  Sc65  1  0.29860253  0.69487136  0.70518533  1
  Sc  Sc66  1  0.90250580  0.09526191  0.52837798  1
  Sc  Sc67  1  0.70009386  0.89713662  0.49724346  1
  Sc  Sc68  1  0.09683234  0.10133955  0.90246609  1
  Sc  Sc69  1  0.70546269  0.10013050  0.08846464  1
  Sc  Sc70  1  0.10650033  0.70033240  0.51111976  1
  Sc  Sc71  1  0.49726874  0.69783066  0.09256880  1
  Sc  Sc72  1  0.10785637  0.49440195  0.30100779  1
  Sc  Sc73  1  0.50031629  0.51519497  0.49600664  1
  Sc  Sc74  1  0.30070113  0.89660192  0.29097762  1
  Sc  Sc75  1  0.50033757  0.30644508  0.90556632  1
  Sc  Sc76  1  0.09954431  0.51083446  0.70410441  1
  Sc  Sc77  1  0.29812188  0.89559435  0.90350649  1
  Sc  Sc78  1  0.31206931  0.90399113  0.70676068  1
  Sc  Sc79  1  0.09413489  0.50183773  0.90692181  1
  Sc  Sc80  1  0.29229497  0.10412087  0.90428757  1
  Sc  Sc81  1  0.69620983  0.90609991  0.89705913  1
  Sc  Sc82  1  0.49731087  0.89498805  0.30268333  1
  Sc  Sc83  1  0.10380367  0.29373699  0.70564596  1
  Sc  Sc84  1  0.51610598  0.30560817  0.70086799  1
  Sc  Sc85  1  0.49633538  0.90091169  0.89156468  1
  Sc  Sc86  1  0.50383348  0.09783533  0.89442872  1
  Sc  Sc87  1  0.09900972  0.89387261  0.50342099  1
  Sc  Sc88  1  0.90317111  0.48952971  0.30576344  1
  Sc  Sc89  1  0.69929530  0.30274573  0.89486346  1
  Sc  Sc90  1  0.70231525  0.29481104  0.69732831  1
  Sc  Sc91  1  0.09266154  0.30812681  0.29495984  1
  Sc  Sc92  1  0.30304045  0.69761854  0.90561269  1
  Sc  Sc93  1  0.89379770  0.50165690  0.09156011  1
  Sc  Sc94  1  0.49797718  0.09957456  0.48855238  1
  Sc  Sc95  1  0.69013189  0.70341572  0.90459379  1
  Sc  Sc96  1  0.70196704  0.69154169  0.29332941  1
  Sc  Sc97  1  0.28777840  0.30580265  0.50382854  1
  Sc  Sc98  1  0.71048485  0.49288446  0.50120947  1
  Sc  Sc99  1  0.89845970  0.50273413  0.50448845  1
  Nb  Nb100  1  0.50255640  0.29951100  0.49945377  1
  Nb  Nb101  1  0.90027698  0.09460297  0.09497047  1
  Nb  Nb102  1  0.09669802  0.69229559  0.09352398  1
  Nb  Nb103  1  0.89106075  0.91880307  0.10220497  1
  Nb  Nb104  1  0.09817120  0.10212959  0.68917711  1
  Nb  Nb105  1  0.49706908  0.70065240  0.90127512  1
  Nb  Nb106  1  0.90190983  0.69403666  0.49926470  1
  Nb  Nb107  1  0.69274201  0.50116427  0.29916971  1
  Nb  Nb108  1  0.29839233  0.30100627  0.89067491  1
  Nb  Nb109  1  0.10067238  0.09703165  0.30017236  1
  Nb  Nb110  1  0.89374928  0.49835319  0.89658243  1
  Nb  Nb111  1  0.10139850  0.89300078  0.08890795  1
  Nb  Nb112  1  0.70497076  0.10180805  0.50427921  1
  Nb  Nb113  1  0.49777234  0.49494832  0.10816381  1
  Nb  Nb114  1  0.09594439  0.70088702  0.70864068  1
  Nb  Nb115  1  0.10131673  0.50658523  0.09865693  1
  Nb  Nb116  1  0.50125579  0.69133790  0.70659409  1
  Nb  Nb117  1  0.09831068  0.10270893  0.50604418  1
  Nb  Nb118  1  0.69869628  0.29456783  0.50497009  1
  Nb  Nb119  1  0.49874516  0.50478955  0.70248381  1
  Nb  Nb120  1  0.29717355  0.10270414  0.49855805  1
  Nb  Nb121  1  0.90249303  0.30175666  0.70188233  1
  Nb  Nb122  1  0.50101787  0.49461339  0.29742985  1
  Nb  Nb123  1  0.69885478  0.89875690  0.09920826  1
  Nb  Nb124  1  0.10281603  0.89725233  0.90276890  1
  Nb  Nb125  1  0.60098550  0.00235236  0.59588122  1
  Nb  Nb126  1  0.00082447  0.60533889  0.40020172  1
  Nb  Nb127  1  0.20050053  0.00527976  0.59904171  1
  Nb  Nb128  1  0.40818930  0.40082349  0.59640366  1
  Nb  Nb129  1  0.39718769  0.20911992  0.79862182  1
  Nb  Nb130  1  0.79916552  0.81040084  0.00602764  1
  Nb  Nb131  1  0.39968962  -0.00032115  0.00185369  1
  Nb  Nb132  1  0.39497960  0.19746907  0.19706492  1
  Nb  Nb133  1  0.40699283  0.39854707  0.40291042  1
  Nb  Nb134  1  0.19223760  -0.00042344  0.79704920  1
  Nb  Nb135  1  0.80456828  0.19231581  0.40521236  1
  Nb  Nb136  1  0.19206054  0.19320588  0.39983782  1
  Nb  Nb137  1  0.40147462  0.20760031  0.59848800  1
  Nb  Nb138  1  0.80085908  0.59627045  0.80547555  1
  Nb  Nb139  1  0.79482472  0.40011646  0.20041416  1
  Nb  Nb140  1  0.59911534  0.60259752  0.60857176  1
  Nb  Nb141  1  0.00411073  0.79911023  0.80437714  1
  Nb  Nb142  1  0.59959044  -0.00555944  0.19282740  1
  Nb  Nb143  1  0.00008282  0.40025413  0.60621722  1
  Nb  Nb144  1  0.19496043  0.00448122  0.40454127  1
  Nb  Nb145  1  -0.00001128  0.00712780  0.40088690  1
  Nb  Nb146  1  0.80790594  0.00890650  0.39833155  1
  Nb  Nb147  1  0.59681013  0.39875283  0.40106571  1
  Nb  Nb148  1  -0.00253316  0.19010646  0.40206739  1
  Nb  Nb149  1  0.00477620  0.59758883  0.19972239  1
  Pd  Pd150  1  0.40495093  0.78674495  0.20349808  1
  Pd  Pd151  1  0.39925069  0.79269550  0.80229082  1
  Pd  Pd152  1  0.20625513  0.40503916  0.19489745  1
  Pd  Pd153  1  0.00645488  0.79573009  0.40503086  1
  Pd  Pd154  1  0.21001441  0.80280541  0.61009020  1
  Pd  Pd155  1  0.19252226  0.41368526  0.79978172  1
  Pd  Pd156  1  0.79671166  0.80232085  0.39827958  1
  Pd  Pd157  1  0.79140398  0.61045054  -0.00331320  1
  Pd  Pd158  1  0.60549068  0.79956856  0.60331391  1
  Pd  Pd159  1  0.60680693  0.79711328  0.39344858  1
  Pd  Pd160  1  0.39466856  0.79687132  0.39410504  1
  Pd  Pd161  1  0.00782066  0.20158936  0.00227525  1
  Pd  Pd162  1  -0.00313466  0.79592010  0.18365882  1
  Pd  Pd163  1  0.19537812  0.60198608  0.20056282  1
  Pd  Pd164  1  0.39167403  -0.00656059  0.39595266  1
  Pd  Pd165  1  0.79194747  0.59497152  0.60889330  1
  Pd  Pd166  1  0.59583482  -0.00514800  0.00003085  1
  Pd  Pd167  1  -0.00566093  0.40507120  0.00202410  1
  Pd  Pd168  1  0.20335653  0.80489716  0.40198616  1
  Pd  Pd169  1  0.80790065  0.79562449  0.81119419  1
  Pd  Pd170  1  0.60054159  0.20445963  -0.00580032  1
  Pd  Pd171  1  -0.01071456  0.80563036  0.00475152  1
  Pd  Pd172  1  0.19961176  0.60127723  0.60671229  1
  Pd  Pd173  1  0.19812961  0.80498946  0.79705444  1
  Pd  Pd174  1  0.20263374  0.59758086  0.80950726  1
  Pd  Pd175  1  0.40246344  0.60487403  0.19642388  1
  Pd  Pd176  1  0.60805268  0.59724398  0.80278619  1
  Pd  Pd177  1  0.00430404  0.19984091  0.80223108  1
  Pd  Pd178  1  0.80653445  0.79653224  0.19091741  1
  Pd  Pd179  1  0.20057459  0.79537711  0.19054091  1
  Pd  Pd180  1  0.00757258  0.00172230  0.00418955  1
  Pd  Pd181  1  0.39862472  0.19593643  -0.00395651  1
  Pd  Pd182  1  0.79802243  0.80066485  0.59695653  1
  Pd  Pd183  1  0.39886745  0.40449916  -0.00084483  1
  Pd  Pd184  1  0.60542795  0.20055292  0.40502151  1
  Pd  Pd185  1  0.59528743  0.41146595  0.58916509  1
  Pd  Pd186  1  0.60959411  -0.00240999  0.39837228  1
  Pd  Pd187  1  0.00795221  -0.00236273  0.79553351  1
  Pd  Pd188  1  0.39420424  0.78909746  0.60878725  1
  Pd  Pd189  1  0.59413054  0.59580705  0.00309960  1
  Pd  Pd190  1  0.78947026  0.19942398  0.19653071  1
  Pd  Pd191  1  0.00001558  0.79704878  0.60291873  1
  Pd  Pd192  1  0.38873541  0.20704013  0.40086969  1
  Pd  Pd193  1  0.79642035  0.20669741  -0.00487468  1
  Pd  Pd194  1  0.19497769  0.20340418  0.00112942  1
  Pd  Pd195  1  0.40243029  0.01276556  0.59946703  1
  Pd  Pd196  1  0.59646394  0.80350615  0.80342803  1
  Pd  Pd197  1  0.19823528  0.20898608  0.20132769  1
  Pd  Pd198  1  -0.00104005  0.60267608  0.80819303  1
  Pd  Pd199  1  0.80646895  0.59271352  0.39277185  1
  Rh  Rh200  1  0.20423528  0.40609047  -0.00245001  1
  Rh  Rh201  1  0.19556298  0.41151077  0.61257744  1
  Rh  Rh202  1  0.59432598  0.20621367  0.80478255  1
  Rh  Rh203  1  0.39738188  0.60648566  0.80699825  1
  Rh  Rh204  1  0.79902450  0.39739024  0.79905748  1
  Rh  Rh205  1  0.79314744  -0.00089759  -0.00589633  1
  Rh  Rh206  1  0.80066926  0.00590308  0.80082572  1
  Rh  Rh207  1  0.00545284  0.40006524  0.79621490  1
  Rh  Rh208  1  0.60808738  0.59258344  0.40775986  1
  Rh  Rh209  1  0.20420559  0.59480442  -0.00168531  1
  Rh  Rh210  1  0.20959225  0.19449496  0.60001298  1
  Rh  Rh211  1  0.60083699  0.80467372  -0.00835065  1
  Rh  Rh212  1  0.00753189  -0.00914285  0.60100574  1
  Rh  Rh213  1  0.40826379  0.39252539  0.79272526  1
  Rh  Rh214  1  0.20161382  -0.00644539  -0.00445884  1
  Rh  Rh215  1  0.59262061  0.79977507  0.20644751  1
  Rh  Rh216  1  0.40121072  0.80314752  -0.00563252  1
  Rh  Rh217  1  0.00840278  -0.00758359  0.19182193  1
  Rh  Rh218  1  0.00721478  0.40109403  0.41036057  1
  Rh  Rh219  1  0.20149424  0.39075937  0.39518815  1
  Rh  Rh220  1  0.01154261  0.20300105  0.19638601  1
  Rh  Rh221  1  0.39702165  0.39498004  0.20188654  1
  Rh  Rh222  1  0.40958390  0.00003831  0.18984140  1
  Rh  Rh223  1  0.59673418  0.19128605  0.19091388  1
  Rh  Rh224  1  0.80444979  0.39452834  0.60880239  1
  Rh  Rh225  1  0.80426180  0.20647267  0.80040374  1
  Rh  Rh226  1  -0.00801859  0.21133504  0.60132829  1
  Rh  Rh227  1  0.78710102  0.39516477  0.39359872  1
  Rh  Rh228  1  0.19225498  0.60703918  0.39663291  1
  Rh  Rh229  1  0.40396216  0.59450682  -0.00045002  1
  Rh  Rh230  1  0.79094133  -0.00787194  0.59559251  1
  Rh  Rh231  1  0.19977830  0.19087155  0.80056933  1
  Rh  Rh232  1  -0.00893448  0.41203610  0.18962182  1
  Rh  Rh233  1  -0.00120630  0.59237567  0.00440254  1
  Rh  Rh234  1  0.59063132  0.40771110  0.00237316  1
  Rh  Rh235  1  0.39769997  0.59699763  0.40050552  1
  Rh  Rh236  1  0.40581991  0.60008254  0.60144959  1
  Rh  Rh237  1  0.59169128  0.18830102  0.59234945  1
  Rh  Rh238  1  0.80653100  0.39084366  0.00659852  1
  Rh  Rh239  1  0.60344038  0.40449047  0.20181008  1
  Rh  Rh240  1  0.38693618  0.01220872  0.81412482  1
  Rh  Rh241  1  0.58919001  0.60058065  0.19603673  1
  Rh  Rh242  1  0.20358507  0.79773691  0.00538291  1
  Rh  Rh243  1  0.60354706  -0.00291147  0.78741135  1
  Rh  Rh244  1  0.78678356  0.01037411  0.20010124  1
  Rh  Rh245  1  0.81067864  0.58732027  0.20999386  1
  Rh  Rh246  1  0.59707097  0.39924637  0.80607272  1
  Rh  Rh247  1  0.00562633  0.59599138  0.59128866  1
  Rh  Rh248  1  0.80731455  0.20861979  0.59916015  1
  Rh  Rh249  1  0.19346729  -0.01313403  0.19806953  1
