# generated using pymatgen
data_ZrScNbPdRh
_symmetry_space_group_name_H-M   'P 1'
_cell_length_a   16.55864458
_cell_length_b   16.56059598
_cell_length_c   16.55913632
_cell_angle_alpha   90.00831377
_cell_angle_beta   89.98416033
_cell_angle_gamma   90.02153286
_symmetry_Int_Tables_number   1
_chemical_formula_structural   ZrScNbPdRh
_chemical_formula_sum   'Zr50 Sc50 Nb50 Pd50 Rh50'
_cell_volume   4540.86276072
_cell_formula_units_Z   50
loop_
 _symmetry_equiv_pos_site_id
 _symmetry_equiv_pos_as_xyz
  1  'x, y, z'
loop_
 _atom_site_type_symbol
 _atom_site_label
 _atom_site_symmetry_multiplicity
 _atom_site_fract_x
 _atom_site_fract_y
 _atom_site_fract_z
 _atom_site_occupancy
  Zr  Zr0  1  0.30011799  0.49499622  0.30219898  1
  Zr  Zr1  1  0.90155207  0.10209153  0.50219661  1
  Zr  Zr2  1  0.10292539  0.09666857  0.30140137  1
  Zr  Zr3  1  0.50120216  0.10351412  0.09758025  1
  Zr  Zr4  1  0.09156335  0.09334843  0.69595319  1
  Zr  Zr5  1  0.49727172  0.50266995  0.49978883  1
  Zr  Zr6  1  0.49939879  0.30483448  0.50442195  1
  Zr  Zr7  1  0.70495480  0.49358998  0.70651943  1
  Zr  Zr8  1  0.09817237  0.69457496  0.09366488  1
  Zr  Zr9  1  0.30028185  0.69551604  0.09844203  1
  Zr  Zr10  1  0.50080882  0.50124226  0.90462435  1
  Zr  Zr11  1  0.49333621  0.69775431  0.30152682  1
  Zr  Zr12  1  0.50064343  0.29979065  0.29823179  1
  Zr  Zr13  1  0.69672592  0.09724730  0.10091523  1
  Zr  Zr14  1  0.70423676  0.30432971  0.30683724  1
  Zr  Zr15  1  0.90482006  0.90067440  0.29852323  1
  Zr  Zr16  1  0.11034824  0.09626707  0.49827848  1
  Zr  Zr17  1  0.89042836  0.70008300  0.69664856  1
  Zr  Zr18  1  0.31046513  0.89989132  0.29839126  1
  Zr  Zr19  1  0.89722745  0.70323649  0.09876528  1
  Zr  Zr20  1  0.10602868  0.70617678  0.30787664  1
  Zr  Zr21  1  0.30355859  0.89225765  0.69874274  1
  Zr  Zr22  1  0.09764841  0.70167328  0.89678893  1
  Zr  Zr23  1  0.91223608  0.09251400  0.10416848  1
  Zr  Zr24  1  0.70516107  0.70755994  0.50986353  1
  Zr  Zr25  1  0.10650871  0.49704628  0.30442461  1
  Zr  Zr26  1  0.89354482  0.49851554  0.29525669  1
  Zr  Zr27  1  0.29680795  0.29240929  0.50203278  1
  Zr  Zr28  1  0.69601379  0.49735934  0.29476250  1
  Zr  Zr29  1  0.49728958  0.70503610  0.69239762  1
  Zr  Zr30  1  0.90040344  0.70059957  0.50028790  1
  Zr  Zr31  1  0.49982098  0.09697765  0.30064243  1
  Zr  Zr32  1  0.10548316  0.30202297  0.69571734  1
  Zr  Zr33  1  0.09513180  0.90852891  0.09362174  1
  Zr  Zr34  1  0.70180008  0.10232696  0.30836507  1
  Zr  Zr35  1  0.69912042  0.30003501  0.49412627  1
  Zr  Zr36  1  0.88793297  0.30105885  0.70295408  1
  Zr  Zr37  1  0.89535254  0.30165031  0.49685312  1
  Zr  Zr38  1  0.30288984  0.69970603  0.30362987  1
  Zr  Zr39  1  0.69912152  0.49710103  0.49504223  1
  Zr  Zr40  1  0.29728328  0.29875554  0.09757723  1
  Zr  Zr41  1  0.29531164  0.49952969  0.69752410  1
  Zr  Zr42  1  0.49892979  0.29728883  0.88856432  1
  Zr  Zr43  1  0.69626015  0.30162978  0.09578852  1
  Zr  Zr44  1  0.29881524  0.69882057  0.69460410  1
  Zr  Zr45  1  0.70266534  0.09634166  0.69519999  1
  Zr  Zr46  1  0.49654981  0.69649095  0.10145140  1
  Zr  Zr47  1  0.10065974  0.70249211  0.69894967  1
  Zr  Zr48  1  0.29296946  0.89498686  0.89965309  1
  Zr  Zr49  1  0.10844365  0.90162854  0.30539989  1
  Sc  Sc50  1  0.29572585  0.50103064  0.50377782  1
  Sc  Sc51  1  0.29362333  0.90489811  0.10920583  1
  Sc  Sc52  1  0.90405985  0.09431237  0.30424259  1
  Sc  Sc53  1  0.50342479  0.50256064  0.10559911  1
  Sc  Sc54  1  0.28901035  0.50186164  0.90133668  1
  Sc  Sc55  1  0.49679952  0.69589677  0.90480618  1
  Sc  Sc56  1  0.91204356  0.30684678  0.10243598  1
  Sc  Sc57  1  0.70077978  0.30834954  0.89358454  1
  Sc  Sc58  1  0.10474681  0.29891745  0.30015064  1
  Sc  Sc59  1  0.49758518  0.29627530  0.10537978  1
  Sc  Sc60  1  0.10451616  0.30120356  0.91396506  1
  Sc  Sc61  1  0.30766014  0.29958520  0.69693168  1
  Sc  Sc62  1  0.10125206  0.10365769  0.09683770  1
  Sc  Sc63  1  0.89854128  0.50070782  0.09397320  1
  Sc  Sc64  1  0.69895621  0.90848002  0.50844671  1
  Sc  Sc65  1  0.29937857  0.10490411  0.68589421  1
  Sc  Sc66  1  0.49932830  0.48354620  0.69501608  1
  Sc  Sc67  1  0.29753802  0.09888954  0.30133999  1
  Sc  Sc68  1  0.89991716  0.50491636  0.69322205  1
  Sc  Sc69  1  0.29773174  0.29573996  0.29259381  1
  Sc  Sc70  1  0.50484181  0.90152891  0.89356295  1
  Sc  Sc71  1  0.50460460  0.90046340  0.69062983  1
  Sc  Sc72  1  0.69576189  0.89910068  0.89569773  1
  Sc  Sc73  1  0.29796829  0.30034517  0.89642224  1
  Sc  Sc74  1  0.70983971  0.69257331  0.09835252  1
  Sc  Sc75  1  0.50121394  0.10669301  0.89803214  1
  Sc  Sc76  1  0.70870462  0.68943684  0.30220591  1
  Sc  Sc77  1  0.90298792  0.90266143  0.70023213  1
  Sc  Sc78  1  0.29972632  0.11192020  0.90567225  1
  Sc  Sc79  1  0.49648987  0.10594374  0.70240322  1
  Sc  Sc80  1  0.69595410  0.89443219  0.69552207  1
  Sc  Sc81  1  0.29812235  0.50099327  0.10039156  1
  Sc  Sc82  1  0.09507221  0.89576607  0.69882445  1
  Sc  Sc83  1  0.29707266  0.10411090  0.10776567  1
  Sc  Sc84  1  0.89989681  0.09934840  0.69482961  1
  Sc  Sc85  1  0.89374151  0.30231632  0.90625409  1
  Sc  Sc86  1  0.89457608  0.89592915  0.49929144  1
  Sc  Sc87  1  0.29104006  0.69659044  0.89641241  1
  Sc  Sc88  1  0.10378777  0.50223189  0.69445535  1
  Sc  Sc89  1  0.90205605  0.69664968  0.89704472  1
  Sc  Sc90  1  0.10140698  0.29682749  0.10267519  1
  Sc  Sc91  1  0.68875577  0.10288429  0.90390099  1
  Sc  Sc92  1  0.49179457  0.69924578  0.49820619  1
  Sc  Sc93  1  0.49104735  0.90151887  0.10971799  1
  Sc  Sc94  1  0.70033395  0.09674307  0.49638612  1
  Sc  Sc95  1  0.10394616  0.29741576  0.49798418  1
  Sc  Sc96  1  0.50069588  0.09765533  0.49818081  1
  Sc  Sc97  1  0.09811072  0.49458442  0.09281036  1
  Sc  Sc98  1  0.71340845  0.90987254  0.30741670  1
  Sc  Sc99  1  0.91227901  0.89437110  0.89845563  1
  Nb  Nb100  1  0.90525228  0.50200487  0.50051120  1
  Nb  Nb101  1  0.69900341  0.69870889  0.70205184  1
  Nb  Nb102  1  0.10429825  0.89240567  0.49283341  1
  Nb  Nb103  1  0.90311407  0.10001437  0.90335265  1
  Nb  Nb104  1  0.09740900  0.49493848  0.49789951  1
  Nb  Nb105  1  0.89890592  0.30441972  0.30022350  1
  Nb  Nb106  1  0.70598699  0.89757913  0.10346006  1
  Nb  Nb107  1  0.49876778  0.89782765  0.30097745  1
  Nb  Nb108  1  0.10056525  0.90366633  0.89383592  1
  Nb  Nb109  1  0.90155155  0.49492595  0.89786352  1
  Nb  Nb110  1  0.89239349  0.90063024  0.10617734  1
  Nb  Nb111  1  0.49882747  0.50169056  0.30583301  1
  Nb  Nb112  1  0.90533519  0.69793350  0.30025944  1
  Nb  Nb113  1  0.70286090  0.49763800  0.09186353  1
  Nb  Nb114  1  0.69479654  0.30455687  0.69973639  1
  Nb  Nb115  1  0.70323439  0.49759612  0.90831661  1
  Nb  Nb116  1  0.29806010  0.10006987  0.50163241  1
  Nb  Nb117  1  0.50385398  0.90157960  0.49330085  1
  Nb  Nb118  1  0.30708803  0.70194613  0.50458440  1
  Nb  Nb119  1  0.50119825  0.30087541  0.69965331  1
  Nb  Nb120  1  0.69816800  0.69947538  0.89413996  1
  Nb  Nb121  1  0.10140900  0.70650891  0.49706868  1
  Nb  Nb122  1  0.09059890  0.09595408  0.90308579  1
  Nb  Nb123  1  0.09584282  0.50634118  0.89781784  1
  Nb  Nb124  1  0.30786454  0.90650151  0.50248979  1
  Nb  Nb125  1  -0.00345549  0.40495645  0.40163214  1
  Nb  Nb126  1  0.59741039  0.80519950  0.39527429  1
  Nb  Nb127  1  0.19784737  0.00325589  0.80204363  1
  Nb  Nb128  1  0.80333316  0.00471468  0.80781699  1
  Nb  Nb129  1  0.80320670  0.19337912  0.00675754  1
  Nb  Nb130  1  0.40340550  0.59801377  0.79440359  1
  Nb  Nb131  1  0.80422451  0.20263779  0.20004949  1
  Nb  Nb132  1  -0.00207716  0.79912871  0.19984373  1
  Nb  Nb133  1  0.60110300  0.20862348  0.60453920  1
  Nb  Nb134  1  0.00014026  0.60445961  0.20640142  1
  Nb  Nb135  1  0.60418390  0.60034216  0.60748856  1
  Nb  Nb136  1  0.60411921  0.80393961  0.20322259  1
  Nb  Nb137  1  0.18894249  0.19259122  0.79906026  1
  Nb  Nb138  1  0.40049585  0.40086561  0.39717970  1
  Nb  Nb139  1  0.40018877  0.39973875  -0.00050313  1
  Nb  Nb140  1  0.39988260  0.80332967  0.00191559  1
  Nb  Nb141  1  0.60324792  0.59953844  0.79952926  1
  Nb  Nb142  1  0.39796152  -0.00297723  -0.00398850  1
  Nb  Nb143  1  0.60168040  -0.00711219  0.20333157  1
  Nb  Nb144  1  0.39052677  0.00040064  0.80213378  1
  Nb  Nb145  1  0.60120560  0.79936814  0.00786117  1
  Nb  Nb146  1  0.00054399  0.20235160  0.80469754  1
  Nb  Nb147  1  0.00013613  0.39997349  0.80277488  1
  Nb  Nb148  1  0.80353829  -0.00227902  0.00040428  1
  Nb  Nb149  1  0.00307048  0.59926549  0.40320704  1
  Pd  Pd150  1  0.39924261  0.20291182  0.39927342  1
  Pd  Pd151  1  0.79769941  0.59553934  0.80656065  1
  Pd  Pd152  1  -0.00056714  -0.00460852  0.40867557  1
  Pd  Pd153  1  0.19242249  0.39526433  0.80438292  1
  Pd  Pd154  1  0.59737939  0.40214182  0.19774770  1
  Pd  Pd155  1  0.79516874  0.80507803  -0.01124556  1
  Pd  Pd156  1  0.79145173  0.19984943  0.59600077  1
  Pd  Pd157  1  0.60604565  0.60433438  0.19789654  1
  Pd  Pd158  1  0.60607307  0.19932018  0.79455937  1
  Pd  Pd159  1  0.80042111  0.19487537  0.80894066  1
  Pd  Pd160  1  0.39741899  0.59222075  0.20136075  1
  Pd  Pd161  1  0.59849543  0.00251680  0.79313693  1
  Pd  Pd162  1  0.00161251  0.40072984  -0.00541268  1
  Pd  Pd163  1  0.40143922  0.20323551  0.00125659  1
  Pd  Pd164  1  -0.00120766  0.80318721  0.00264292  1
  Pd  Pd165  1  0.39600057  0.00386988  0.40138757  1
  Pd  Pd166  1  0.80242335  0.80968510  0.80097486  1
  Pd  Pd167  1  0.60729359  0.60622037  -0.00163957  1
  Pd  Pd168  1  0.40609656  0.79752868  0.80788312  1
  Pd  Pd169  1  0.59018173  0.39389741  -0.00012969  1
  Pd  Pd170  1  0.79937734  0.40441653  0.59691518  1
  Pd  Pd171  1  0.60622110  0.19712283  0.20576152  1
  Pd  Pd172  1  -0.00160233  0.20187965  0.20654093  1
  Pd  Pd173  1  0.00746498  0.60426702  0.59543409  1
  Pd  Pd174  1  0.40733350  0.00236529  0.60457536  1
  Pd  Pd175  1  0.39550457  0.40644694  0.80549160  1
  Pd  Pd176  1  0.20180091  0.80392559  0.59462659  1
  Pd  Pd177  1  0.80510678  0.59957674  -0.00739831  1
  Pd  Pd178  1  0.21772992  0.80492562  0.40836075  1
  Pd  Pd179  1  0.00130467  0.20727240  0.39656378  1
  Pd  Pd180  1  0.00056272  -0.01109473  0.58866166  1
  Pd  Pd181  1  0.19373831  0.60233646  0.59109040  1
  Pd  Pd182  1  -0.00176839  0.59503662  0.79437955  1
  Pd  Pd183  1  -0.00426594  0.80401606  0.59937586  1
  Pd  Pd184  1  -0.00016408  0.20643502  0.60300783  1
  Pd  Pd185  1  0.60148706  0.61116241  0.40818573  1
  Pd  Pd186  1  0.80006665  0.39672040  0.18867083  1
  Pd  Pd187  1  0.19881353  -0.00934385  0.60326141  1
  Pd  Pd188  1  0.59575925  -0.01269310  0.00695583  1
  Pd  Pd189  1  0.20599671  0.00945089  -0.00425696  1
  Pd  Pd190  1  0.20247268  0.60165989  0.41118020  1
  Pd  Pd191  1  0.79432357  0.80092461  0.39708508  1
  Pd  Pd192  1  0.79815545  0.79570722  0.21055241  1
  Pd  Pd193  1  0.20174597  0.79949940  0.00445471  1
  Pd  Pd194  1  0.19492859  0.80185225  0.19408665  1
  Pd  Pd195  1  0.59471511  0.79367818  0.80407116  1
  Pd  Pd196  1  0.19653676  0.39877524  0.19424568  1
  Pd  Pd197  1  0.19408228  0.59677228  0.19608366  1
  Pd  Pd198  1  0.80378200  0.59790738  0.40520106  1
  Pd  Pd199  1  -0.00025960  0.39537539  0.60157766  1
  Rh  Rh200  1  -0.00349742  0.59765049  0.00138880  1
  Rh  Rh201  1  0.80589980  0.40684116  0.40299854  1
  Rh  Rh202  1  -0.00206605  0.79800889  0.39919062  1
  Rh  Rh203  1  0.38874497  0.19398854  0.79283406  1
  Rh  Rh204  1  0.59543240  0.79562505  0.58930582  1
  Rh  Rh205  1  0.19161214  0.80340053  0.79604093  1
  Rh  Rh206  1  0.39286402  0.39771933  0.59356810  1
  Rh  Rh207  1  0.40084378  0.80268969  0.40771037  1
  Rh  Rh208  1  0.59191219  0.40065996  0.39480425  1
  Rh  Rh209  1  0.39994539  0.79522462  0.19466071  1
  Rh  Rh210  1  0.59586648  0.00990417  0.60021165  1
  Rh  Rh211  1  0.00510283  0.40778791  0.20952726  1
  Rh  Rh212  1  0.60363494  0.21121034  -0.00751481  1
  Rh  Rh213  1  0.79975068  0.39643463  0.00225576  1
  Rh  Rh214  1  0.80740113  0.00270670  0.40957455  1
  Rh  Rh215  1  0.19502209  0.59684874  -0.00291931  1
  Rh  Rh216  1  0.39084454  0.59379028  0.40180399  1
  Rh  Rh217  1  0.59507988  0.20155242  0.40846386  1
  Rh  Rh218  1  0.19670821  0.00186526  0.20282047  1
  Rh  Rh219  1  -0.00352714  0.20406503  -0.00284703  1
  Rh  Rh220  1  0.40496535  0.59465133  0.60740331  1
  Rh  Rh221  1  0.80140312  -0.00257681  0.60688362  1
  Rh  Rh222  1  0.40397097  0.40310065  0.20113744  1
  Rh  Rh223  1  0.40513800  0.00924726  0.19580968  1
  Rh  Rh224  1  0.80848654  0.19586390  0.39444345  1
  Rh  Rh225  1  0.20495506  0.40145556  0.00172592  1
  Rh  Rh226  1  0.79610562  0.00980065  0.19646627  1
  Rh  Rh227  1  0.40953725  0.19916422  0.59736705  1
  Rh  Rh228  1  -0.00670777  -0.00765619  -0.00161865  1
  Rh  Rh229  1  0.20280027  0.19581663  0.39828754  1
  Rh  Rh230  1  -0.00040582  0.79472209  0.79601312  1
  Rh  Rh231  1  0.20972861  -0.00343816  0.40347075  1
  Rh  Rh232  1  0.40316895  0.80680410  0.59011254  1
  Rh  Rh233  1  0.60538615  0.39972038  0.60052022  1
  Rh  Rh234  1  0.00749480  -0.00714569  0.20331687  1
  Rh  Rh235  1  0.39674147  0.19690702  0.20178247  1
  Rh  Rh236  1  0.80251816  0.59504317  0.19431003  1
  Rh  Rh237  1  0.60100884  -0.00687144  0.39481596  1
  Rh  Rh238  1  0.80152806  0.80588834  0.60745959  1
  Rh  Rh239  1  0.20252277  0.39344737  0.40454760  1
  Rh  Rh240  1  0.19633648  0.19750896  -0.00175008  1
  Rh  Rh241  1  0.20315008  0.39903616  0.59522240  1
  Rh  Rh242  1  0.80585995  0.40404149  0.80284698  1
  Rh  Rh243  1  0.20080725  0.60180686  0.79706373  1
  Rh  Rh244  1  0.79291250  0.59541092  0.59666654  1
  Rh  Rh245  1  0.38946758  0.59730087  -0.00808335  1
  Rh  Rh246  1  0.60057812  0.40558466  0.80332603  1
  Rh  Rh247  1  -0.00207393  0.00371779  0.80211635  1
  Rh  Rh248  1  0.19695581  0.19904655  0.60296070  1
  Rh  Rh249  1  0.19671572  0.19738534  0.20080486  1
