# generated using pymatgen
data_ZrScNbPdRh
_symmetry_space_group_name_H-M   'P 1'
_cell_length_a   16.56012355
_cell_length_b   16.55760241
_cell_length_c   16.55601522
_cell_angle_alpha   89.97775815
_cell_angle_beta   89.96588669
_cell_angle_gamma   90.00095275
_symmetry_Int_Tables_number   1
_chemical_formula_structural   ZrScNbPdRh
_chemical_formula_sum   'Zr50 Sc50 Nb50 Pd50 Rh50'
_cell_volume   4539.59103498
_cell_formula_units_Z   50
loop_
 _symmetry_equiv_pos_site_id
 _symmetry_equiv_pos_as_xyz
  1  'x, y, z'
loop_
 _atom_site_type_symbol
 _atom_site_label
 _atom_site_symmetry_multiplicity
 _atom_site_fract_x
 _atom_site_fract_y
 _atom_site_fract_z
 _atom_site_occupancy
  Zr  Zr0  1  0.50275949  0.89181319  0.50391364  1
  Zr  Zr1  1  0.70394816  0.69499504  0.29855482  1
  Zr  Zr2  1  0.70008528  0.50612559  0.69757835  1
  Zr  Zr3  1  0.50076125  0.30122171  0.09900758  1
  Zr  Zr4  1  0.88640088  0.49928581  0.29540590  1
  Zr  Zr5  1  0.29555547  0.69928251  0.29302169  1
  Zr  Zr6  1  0.29624776  0.69995759  0.69789113  1
  Zr  Zr7  1  0.90104685  0.10018755  0.69394137  1
  Zr  Zr8  1  0.29479969  0.50318149  0.09099782  1
  Zr  Zr9  1  0.09403884  0.89290233  0.09963743  1
  Zr  Zr10  1  0.30609344  0.09309019  0.89649717  1
  Zr  Zr11  1  0.30171575  0.29411970  0.50740112  1
  Zr  Zr12  1  0.70589546  0.30210283  0.30187664  1
  Zr  Zr13  1  0.89926932  0.90228763  0.10336135  1
  Zr  Zr14  1  0.49767693  0.09343122  0.11224720  1
  Zr  Zr15  1  0.90532160  0.89877497  0.29853800  1
  Zr  Zr16  1  0.49192252  0.91580593  0.89494225  1
  Zr  Zr17  1  0.89458028  0.70728785  0.70082292  1
  Zr  Zr18  1  0.50072692  0.69016314  0.30062816  1
  Zr  Zr19  1  0.70292856  0.28868374  0.09770902  1
  Zr  Zr20  1  0.09841573  0.50411857  0.09721855  1
  Zr  Zr21  1  0.49440953  0.49582051  0.10172417  1
  Zr  Zr22  1  0.50880187  0.89661001  0.09827274  1
  Zr  Zr23  1  0.70150056  0.69346746  0.69964518  1
  Zr  Zr24  1  0.10596874  0.69807414  0.68253383  1
  Zr  Zr25  1  0.90706248  0.70540711  0.49425567  1
  Zr  Zr26  1  0.49850918  0.49686648  0.69829983  1
  Zr  Zr27  1  0.30333994  0.10712209  0.69220870  1
  Zr  Zr28  1  0.10798974  0.49403614  0.90513207  1
  Zr  Zr29  1  0.70610512  0.49121787  0.89200590  1
  Zr  Zr30  1  0.10698397  0.10924311  0.10671917  1
  Zr  Zr31  1  0.10300247  0.90324217  0.70137073  1
  Zr  Zr32  1  0.50339603  0.09440194  0.51511266  1
  Zr  Zr33  1  0.69739311  0.71206933  0.09613919  1
  Zr  Zr34  1  0.49790284  0.69742240  0.10318250  1
  Zr  Zr35  1  0.30325338  0.09860586  0.29377933  1
  Zr  Zr36  1  0.90576731  0.89482843  0.90130472  1
  Zr  Zr37  1  0.71901013  0.50465921  0.10608726  1
  Zr  Zr38  1  0.10163317  0.30706446  0.09826438  1
  Zr  Zr39  1  0.70323691  0.89123913  0.70332130  1
  Zr  Zr40  1  0.10489268  0.50320947  0.70015117  1
  Zr  Zr41  1  0.90089222  0.09801100  0.30371937  1
  Zr  Zr42  1  0.89490704  0.90558929  0.50087690  1
  Zr  Zr43  1  0.69956680  0.50312193  0.49872693  1
  Zr  Zr44  1  0.89257855  0.50586559  0.70572963  1
  Zr  Zr45  1  0.50914098  0.91113212  0.29570901  1
  Zr  Zr46  1  0.49712009  0.09702502  0.71207035  1
  Zr  Zr47  1  0.09591876  0.29390554  0.29732381  1
  Zr  Zr48  1  0.69105197  0.10039838  0.69916600  1
  Zr  Zr49  1  0.09467523  0.90427213  0.90259397  1
  Sc  Sc50  1  0.29760950  0.90051335  0.10019220  1
  Sc  Sc51  1  0.50080326  0.30637646  0.50658404  1
  Sc  Sc52  1  0.29631454  0.89594749  0.29785248  1
  Sc  Sc53  1  0.91183856  0.09832852  0.89691677  1
  Sc  Sc54  1  0.69532250  0.29685778  0.50024323  1
  Sc  Sc55  1  0.48893451  0.49841354  0.89978269  1
  Sc  Sc56  1  0.50711783  0.30770921  0.29101305  1
  Sc  Sc57  1  0.70922385  0.09355194  0.50230975  1
  Sc  Sc58  1  0.50041243  0.90408697  0.69502618  1
  Sc  Sc59  1  0.29770000  0.50206261  0.70649787  1
  Sc  Sc60  1  0.89509874  0.30292700  0.90233356  1
  Sc  Sc61  1  0.69987894  0.89939984  0.49129591  1
  Sc  Sc62  1  0.68857400  0.89601055  0.90476762  1
  Sc  Sc63  1  0.29465215  0.70896841  0.50832495  1
  Sc  Sc64  1  0.10482968  0.09912615  0.89221991  1
  Sc  Sc65  1  0.90102768  0.30662144  0.11316179  1
  Sc  Sc66  1  0.89611222  0.51220501  0.49555389  1
  Sc  Sc67  1  0.09620997  0.89888087  0.49032598  1
  Sc  Sc68  1  0.28460341  0.90199860  0.89850922  1
  Sc  Sc69  1  0.49819647  0.29720841  0.69677454  1
  Sc  Sc70  1  0.28978771  0.30392590  0.89620711  1
  Sc  Sc71  1  0.90421329  0.09573838  0.50657861  1
  Sc  Sc72  1  0.69396053  0.69870062  0.50143886  1
  Sc  Sc73  1  0.30364622  0.48869775  0.49364548  1
  Sc  Sc74  1  0.70563051  0.70360292  0.89351030  1
  Sc  Sc75  1  0.09749620  0.71767377  0.29935809  1
  Sc  Sc76  1  0.30493474  0.89708120  0.50680877  1
  Sc  Sc77  1  0.10042075  0.49983178  0.30137700  1
  Sc  Sc78  1  0.30023728  0.50738995  0.89730792  1
  Sc  Sc79  1  0.10380182  0.70890462  0.91395000  1
  Sc  Sc80  1  0.89479007  0.70561138  0.09055428  1
  Sc  Sc81  1  0.68695261  0.30561051  0.70742631  1
  Sc  Sc82  1  0.09754586  0.50570401  0.50177696  1
  Sc  Sc83  1  0.29488530  0.30526029  0.30736591  1
  Sc  Sc84  1  0.10446655  0.28658878  0.70556010  1
  Sc  Sc85  1  0.29182164  0.69746865  0.10090740  1
  Sc  Sc86  1  0.69912177  0.49810543  0.30683889  1
  Sc  Sc87  1  0.50262101  0.49907644  0.49111376  1
  Sc  Sc88  1  0.89716735  0.50465577  0.91113729  1
  Sc  Sc89  1  0.50863711  0.70082435  0.69590102  1
  Sc  Sc90  1  0.50604221  0.29685445  0.89337822  1
  Sc  Sc91  1  0.89764758  0.10226453  0.10570490  1
  Sc  Sc92  1  0.30262456  0.50029775  0.30303081  1
  Sc  Sc93  1  0.30180255  0.29951998  0.70037890  1
  Sc  Sc94  1  0.89741837  0.27964160  0.49951228  1
  Sc  Sc95  1  0.49740104  0.68891991  0.89524500  1
  Sc  Sc96  1  0.29733234  0.29540435  0.10128386  1
  Sc  Sc97  1  0.10349602  0.29027042  0.49307681  1
  Sc  Sc98  1  0.09105528  0.10368732  0.70076397  1
  Sc  Sc99  1  0.90423589  0.90150779  0.69840809  1
  Nb  Nb100  1  0.69344856  0.08752315  0.29882298  1
  Nb  Nb101  1  0.10681182  0.10051587  0.49753520  1
  Nb  Nb102  1  0.30671103  0.70017506  0.90123357  1
  Nb  Nb103  1  0.09525716  0.90717111  0.29211937  1
  Nb  Nb104  1  0.30253004  0.10049192  0.49908758  1
  Nb  Nb105  1  0.30054577  0.10192238  0.10244517  1
  Nb  Nb106  1  0.09803363  0.30014833  0.89806889  1
  Nb  Nb107  1  0.10119019  0.69704743  0.49763582  1
  Nb  Nb108  1  0.90381548  0.70573383  0.89435626  1
  Nb  Nb109  1  0.69755007  0.29630442  0.90248159  1
  Nb  Nb110  1  0.70527817  0.89981426  0.10052690  1
  Nb  Nb111  1  0.90731366  0.29286213  0.69891795  1
  Nb  Nb112  1  0.50109555  0.09697919  0.89969248  1
  Nb  Nb113  1  0.50336864  0.50151893  0.30181966  1
  Nb  Nb114  1  0.90333568  0.30187867  0.30561310  1
  Nb  Nb115  1  0.10470781  0.69862059  0.10742909  1
  Nb  Nb116  1  0.90546346  0.50345925  0.10751720  1
  Nb  Nb117  1  0.50098206  0.09571742  0.29985312  1
  Nb  Nb118  1  0.69430281  0.10695470  0.90117733  1
  Nb  Nb119  1  0.70662738  0.91014881  0.29670847  1
  Nb  Nb120  1  0.90268662  0.69880664  0.30228253  1
  Nb  Nb121  1  0.10089739  0.09607603  0.30603719  1
  Nb  Nb122  1  0.50015434  0.70000098  0.49955779  1
  Nb  Nb123  1  0.29869111  0.89354895  0.69354596  1
  Nb  Nb124  1  0.70249808  0.09894629  0.09899823  1
  Nb  Nb125  1  0.39862269  0.79911749  -0.00648489  1
  Nb  Nb126  1  0.60478028  0.59182582  0.00311796  1
  Nb  Nb127  1  0.40147842  0.18947056  0.00005693  1
  Nb  Nb128  1  -0.00665605  0.39596218  0.40179138  1
  Nb  Nb129  1  0.19588893  0.40260289  0.19775547  1
  Nb  Nb130  1  0.19392834  0.00386588  0.20328123  1
  Nb  Nb131  1  0.60802330  0.40128551  0.00025058  1
  Nb  Nb132  1  0.40354257  0.00114159  0.40207891  1
  Nb  Nb133  1  0.40775550  0.19234821  0.39906225  1
  Nb  Nb134  1  0.00644561  0.20634486  0.00027133  1
  Nb  Nb135  1  0.79288411  0.00349880  -0.00078708  1
  Nb  Nb136  1  0.40696654  0.79896973  0.39801364  1
  Nb  Nb137  1  0.59521496  0.18965433  0.39539940  1
  Nb  Nb138  1  0.80759990  0.39697350  0.60409764  1
  Nb  Nb139  1  0.00033891  0.40183562  0.79638288  1
  Nb  Nb140  1  0.79506504  0.19825516  0.80350089  1
  Nb  Nb141  1  0.20078453  0.00610683  0.59358523  1
  Nb  Nb142  1  0.19714911  0.60794951  0.40226002  1
  Nb  Nb143  1  0.19281475  0.39774903  0.59987608  1
  Nb  Nb144  1  -0.00352496  0.39514289  0.60124485  1
  Nb  Nb145  1  0.00155369  0.60274388  0.80315984  1
  Nb  Nb146  1  0.79451373  0.00528716  0.80691274  1
  Nb  Nb147  1  0.40224829  0.60108187  0.59637170  1
  Nb  Nb148  1  0.39335282  0.80052828  0.79969672  1
  Nb  Nb149  1  -0.00363198  0.60397955  0.19707165  1
  Pd  Pd150  1  0.38965965  0.60755288  0.40843928  1
  Pd  Pd151  1  0.60494132  0.59200483  0.19604770  1
  Pd  Pd152  1  0.60606083  0.40199236  0.59805585  1
  Pd  Pd153  1  0.00335286  0.80664871  0.59591788  1
  Pd  Pd154  1  -0.00138202  0.00200594  0.40446689  1
  Pd  Pd155  1  0.39722064  0.20681031  0.80831085  1
  Pd  Pd156  1  0.80012739  0.19608901  0.20940906  1
  Pd  Pd157  1  0.20853833  -0.00675624  0.40045896  1
  Pd  Pd158  1  0.60348729  0.19631029  0.20623117  1
  Pd  Pd159  1  0.78758862  0.20844090  0.61094709  1
  Pd  Pd160  1  -0.00384145  0.19768538  0.19849518  1
  Pd  Pd161  1  0.80686926  0.39411342  0.41535430  1
  Pd  Pd162  1  0.39867598  0.38804224  -0.00892732  1
  Pd  Pd163  1  0.80233439  0.39485988  0.00745886  1
  Pd  Pd164  1  0.20224572  0.19883268  -0.00969931  1
  Pd  Pd165  1  0.39428271  0.59235279  0.19820431  1
  Pd  Pd166  1  0.20402449  0.00671158  0.78678540  1
  Pd  Pd167  1  0.19585920  0.00188298  0.00905867  1
  Pd  Pd168  1  0.59942799  0.79867732  0.39143021  1
  Pd  Pd169  1  0.20333033  0.80267753  0.40145386  1
  Pd  Pd170  1  0.01237190  0.79199313  0.79470650  1
  Pd  Pd171  1  0.40958611  0.38930789  0.39479214  1
  Pd  Pd172  1  0.19838335  0.79371585  0.80307362  1
  Pd  Pd173  1  0.60937677  -0.00966430  0.59946633  1
  Pd  Pd174  1  0.81274690  0.19305354  -0.00603841  1
  Pd  Pd175  1  0.79518541  0.79806420  0.59213914  1
  Pd  Pd176  1  -0.00790681  0.39605226  -0.00521889  1
  Pd  Pd177  1  0.00528629  0.59783452  0.38957323  1
  Pd  Pd178  1  0.58764799  0.80197547  0.80340770  1
  Pd  Pd179  1  0.58954751  0.19845203  0.00117423  1
  Pd  Pd180  1  0.79657895  0.60773065  -0.00498147  1
  Pd  Pd181  1  0.58852389  0.79080436  -0.01208352  1
  Pd  Pd182  1  0.61107620  0.40729927  0.19429369  1
  Pd  Pd183  1  0.60416088  0.00432332  0.00401231  1
  Pd  Pd184  1  -0.00859012  0.59735732  0.60438477  1
  Pd  Pd185  1  -0.00140192  0.01174447  0.00752522  1
  Pd  Pd186  1  0.79272971  0.19112628  0.39662142  1
  Pd  Pd187  1  0.80548378  0.38762987  0.79296700  1
  Pd  Pd188  1  0.60459403  0.80264402  0.21001341  1
  Pd  Pd189  1  0.39601209  -0.00217328  0.00796692  1
  Pd  Pd190  1  0.59750830  0.59245619  0.80730598  1
  Pd  Pd191  1  0.79824397  0.79861117  0.39772992  1
  Pd  Pd192  1  0.20767668  0.19791284  0.39568161  1
  Pd  Pd193  1  0.19154165  0.61154124  0.81042049  1
  Pd  Pd194  1  0.38947483  0.40157731  0.20419502  1
  Pd  Pd195  1  0.80350669  0.79794749  0.20434726  1
  Pd  Pd196  1  0.40030445  0.80475438  0.19890278  1
  Pd  Pd197  1  0.39867324  0.39519715  0.80102555  1
  Pd  Pd198  1  0.39831775  0.20850385  0.20318072  1
  Pd  Pd199  1  0.00041228  0.60845619  0.00019387  1
  Rh  Rh200  1  -0.00047655  0.79499914  0.00603964  1
  Rh  Rh201  1  0.80875126  0.61399129  0.19744474  1
  Rh  Rh202  1  0.79706194  0.61000222  0.40398512  1
  Rh  Rh203  1  0.19748129  0.80985444  0.19648974  1
  Rh  Rh204  1  -0.00681512  0.20745094  0.81139430  1
  Rh  Rh205  1  -0.00057871  0.19657698  0.40193869  1
  Rh  Rh206  1  0.40752461  0.20236862  0.59632550  1
  Rh  Rh207  1  0.20185295  0.60602430  -0.00458624  1
  Rh  Rh208  1  0.79816707  0.39408532  0.19968781  1
  Rh  Rh209  1  0.60709482  -0.00185305  0.80126394  1
  Rh  Rh210  1  0.80758293  0.60703481  0.80893307  1
  Rh  Rh211  1  0.40732638  0.79103433  0.60418816  1
  Rh  Rh212  1  0.79743704  -0.00643968  0.60880083  1
  Rh  Rh213  1  0.39106520  -0.00911901  0.20178963  1
  Rh  Rh214  1  0.59709812  0.39367578  0.39679819  1
  Rh  Rh215  1  0.80132761  0.80826187  -0.00727200  1
  Rh  Rh216  1  0.19296398  0.39578538  0.79224201  1
  Rh  Rh217  1  0.00066303  0.80462951  0.39896372  1
  Rh  Rh218  1  0.20380070  0.20196673  0.20874080  1
  Rh  Rh219  1  0.00237790  0.40998475  0.21128211  1
  Rh  Rh220  1  0.59960350  0.20100543  0.59588561  1
  Rh  Rh221  1  -0.00640259  0.79125926  0.19717044  1
  Rh  Rh222  1  0.61078689  -0.00121010  0.18951416  1
  Rh  Rh223  1  0.60013234  0.19968711  0.80036397  1
  Rh  Rh224  1  0.21422015  0.58794486  0.58401591  1
  Rh  Rh225  1  0.60489794  0.79910785  0.60094740  1
  Rh  Rh226  1  0.40103261  0.60668776  0.78724790  1
  Rh  Rh227  1  0.19644236  0.19894640  0.60051471  1
  Rh  Rh228  1  0.20304363  0.19579745  0.80188274  1
  Rh  Rh229  1  -0.00614904  -0.00077173  0.79599557  1
  Rh  Rh230  1  0.60147525  0.59764688  0.39967917  1
  Rh  Rh231  1  0.80183076  0.60298940  0.59365115  1
  Rh  Rh232  1  0.40319457  0.60708279  0.00432646  1
  Rh  Rh233  1  0.39049272  0.40754753  0.60676469  1
  Rh  Rh234  1  0.38915652  -0.00908252  0.78871880  1
  Rh  Rh235  1  0.59911805  0.00322236  0.40740665  1
  Rh  Rh236  1  0.00567627  0.00851719  0.19761566  1
  Rh  Rh237  1  0.80061633  0.80802708  0.80558908  1
  Rh  Rh238  1  0.18662308  0.40823356  0.40197651  1
  Rh  Rh239  1  0.01158924  -0.00004948  0.59583567  1
  Rh  Rh240  1  0.79701783  0.00326379  0.19612444  1
  Rh  Rh241  1  0.39196725  -0.00116689  0.60133777  1
  Rh  Rh242  1  0.18857295  0.81313807  0.59132443  1
  Rh  Rh243  1  0.00959975  0.19972376  0.59207041  1
  Rh  Rh244  1  0.20619955  0.39756057  0.00237298  1
  Rh  Rh245  1  0.19076764  0.59621824  0.20906333  1
  Rh  Rh246  1  0.59354657  0.40323816  0.80647220  1
  Rh  Rh247  1  0.80379241  0.00157175  0.39731562  1
  Rh  Rh248  1  0.59090881  0.59698934  0.59366749  1
  Rh  Rh249  1  0.20639300  0.79854694  0.00473997  1
