# generated using pymatgen
data_ZrScNbPdRh
_symmetry_space_group_name_H-M   'P 1'
_cell_length_a   16.55211909
_cell_length_b   16.54924980
_cell_length_c   16.54828112
_cell_angle_alpha   89.98129885
_cell_angle_beta   89.99148590
_cell_angle_gamma   90.04809465
_symmetry_Int_Tables_number   1
_chemical_formula_structural   ZrScNbPdRh
_chemical_formula_sum   'Zr50 Sc50 Nb50 Pd50 Rh50'
_cell_volume   4532.98855619
_cell_formula_units_Z   50
loop_
 _symmetry_equiv_pos_site_id
 _symmetry_equiv_pos_as_xyz
  1  'x, y, z'
loop_
 _atom_site_type_symbol
 _atom_site_label
 _atom_site_symmetry_multiplicity
 _atom_site_fract_x
 _atom_site_fract_y
 _atom_site_fract_z
 _atom_site_occupancy
  Zr  Zr0  1  0.10665070  0.90580744  0.70580446  1
  Zr  Zr1  1  0.50386724  0.50093231  0.50656169  1
  Zr  Zr2  1  0.30112355  0.30181158  0.09497498  1
  Zr  Zr3  1  0.69341298  0.70179535  0.09379734  1
  Zr  Zr4  1  0.69943751  0.29592138  0.89759890  1
  Zr  Zr5  1  0.90494009  0.51155820  0.69793434  1
  Zr  Zr6  1  0.70058923  0.29596819  0.09380316  1
  Zr  Zr7  1  0.89239779  0.50351310  0.49356456  1
  Zr  Zr8  1  0.29699794  0.69875858  0.70557475  1
  Zr  Zr9  1  0.49011123  0.50772691  0.09518462  1
  Zr  Zr10  1  0.70462560  0.70352210  0.29669237  1
  Zr  Zr11  1  0.29551720  0.49604953  0.89575297  1
  Zr  Zr12  1  0.70245461  0.50393206  0.10291942  1
  Zr  Zr13  1  0.30110054  0.69579869  0.10462232  1
  Zr  Zr14  1  0.29439096  0.89523220  0.11065081  1
  Zr  Zr15  1  0.30184846  0.30558175  0.90074899  1
  Zr  Zr16  1  0.29559781  0.49646242  0.09631828  1
  Zr  Zr17  1  0.49908998  0.91050502  0.09928714  1
  Zr  Zr18  1  0.89906223  0.30346613  0.91451033  1
  Zr  Zr19  1  0.90012909  0.70206819  0.30653183  1
  Zr  Zr20  1  0.70517461  0.50517220  0.90180845  1
  Zr  Zr21  1  0.50119569  0.09743733  0.90863660  1
  Zr  Zr22  1  0.90211436  0.30463827  0.49919070  1
  Zr  Zr23  1  0.69445280  0.30504258  0.70744364  1
  Zr  Zr24  1  0.49469332  0.89986511  0.30078324  1
  Zr  Zr25  1  0.90302796  0.50341737  0.29145286  1
  Zr  Zr26  1  0.10824722  0.91000770  0.28871627  1
  Zr  Zr27  1  0.69877669  0.50530700  0.51220381  1
  Zr  Zr28  1  0.70315617  0.31071729  0.50167942  1
  Zr  Zr29  1  0.30340990  0.89852809  0.69953111  1
  Zr  Zr30  1  0.09415712  0.09814067  0.70162062  1
  Zr  Zr31  1  0.29733309  0.09513989  0.49899561  1
  Zr  Zr32  1  0.70544693  0.91346102  0.48838670  1
  Zr  Zr33  1  0.29901453  0.29010128  0.50277357  1
  Zr  Zr34  1  0.69740487  0.89765093  0.29990669  1
  Zr  Zr35  1  0.71034476  0.50673399  0.30932983  1
  Zr  Zr36  1  0.89847112  0.90351229  0.68998567  1
  Zr  Zr37  1  0.29837296  0.10149715  0.68992615  1
  Zr  Zr38  1  0.49663292  0.89327114  0.70063838  1
  Zr  Zr39  1  0.70475464  0.69696935  0.70527134  1
  Zr  Zr40  1  0.90956882  0.71200786  0.50261291  1
  Zr  Zr41  1  0.50007880  0.69886555  0.90269231  1
  Zr  Zr42  1  0.90488414  0.09278364  0.08897373  1
  Zr  Zr43  1  0.09129611  0.50247623  0.90895816  1
  Zr  Zr44  1  0.49714562  0.70460214  0.29845985  1
  Zr  Zr45  1  0.49939960  0.29644230  0.69947434  1
  Zr  Zr46  1  0.10117021  0.50607949  0.70470842  1
  Zr  Zr47  1  0.90187292  0.29570827  0.70403243  1
  Zr  Zr48  1  0.49815326  0.70101768  0.70290162  1
  Zr  Zr49  1  0.49294118  0.90345501  0.89800587  1
  Sc  Sc50  1  0.09005137  0.30060391  0.69821977  1
  Sc  Sc51  1  0.70239533  0.70382893  0.90124724  1
  Sc  Sc52  1  0.29290807  0.30113113  0.29135298  1
  Sc  Sc53  1  0.69504355  0.08849028  0.30359941  1
  Sc  Sc54  1  0.90996876  0.09925637  0.29721748  1
  Sc  Sc55  1  0.30958097  0.10426283  0.09468163  1
  Sc  Sc56  1  0.70408518  0.30310199  0.29702734  1
  Sc  Sc57  1  0.49975711  0.09274601  0.50522456  1
  Sc  Sc58  1  0.28132089  0.49759123  0.29492707  1
  Sc  Sc59  1  0.29785406  0.69887068  0.89811046  1
  Sc  Sc60  1  0.49186970  0.28826551  0.10563575  1
  Sc  Sc61  1  0.50341320  0.09400849  0.28462084  1
  Sc  Sc62  1  0.09320975  0.09318144  0.89878672  1
  Sc  Sc63  1  0.10237164  0.28982419  0.29591104  1
  Sc  Sc64  1  0.49957818  0.50590710  0.29596541  1
  Sc  Sc65  1  0.31045633  0.09830247  0.90381651  1
  Sc  Sc66  1  0.09685668  0.09040416  0.10717768  1
  Sc  Sc67  1  0.09257886  0.89600691  0.50224284  1
  Sc  Sc68  1  0.09415924  0.69633458  0.49377244  1
  Sc  Sc69  1  0.50481094  0.70373512  0.50674075  1
  Sc  Sc70  1  0.28529781  0.49892712  0.48989043  1
  Sc  Sc71  1  0.10107562  0.30568921  0.90157415  1
  Sc  Sc72  1  0.70384030  0.89635271  0.08979172  1
  Sc  Sc73  1  0.70388316  0.89717760  0.70304274  1
  Sc  Sc74  1  0.50216337  0.29660921  0.89597768  1
  Sc  Sc75  1  0.70411898  0.09721377  0.71213012  1
  Sc  Sc76  1  0.89710698  0.08895264  0.50180613  1
  Sc  Sc77  1  0.50307024  0.89631708  0.50219317  1
  Sc  Sc78  1  0.29654731  0.89210705  0.89198683  1
  Sc  Sc79  1  0.09086305  0.89350424  0.09821625  1
  Sc  Sc80  1  0.10197116  0.50530711  0.48929739  1
  Sc  Sc81  1  0.29592049  0.69769169  0.50124151  1
  Sc  Sc82  1  0.11017184  0.10351044  0.49611321  1
  Sc  Sc83  1  0.90131471  0.69742059  0.90118497  1
  Sc  Sc84  1  0.09224696  0.69176091  0.29746019  1
  Sc  Sc85  1  0.90571050  0.71430111  0.10701607  1
  Sc  Sc86  1  0.89489078  0.09834238  0.89445774  1
  Sc  Sc87  1  0.10127648  0.70751079  0.90904949  1
  Sc  Sc88  1  0.90314287  0.49266253  0.09583002  1
  Sc  Sc89  1  0.89550734  0.88974797  0.29888528  1
  Sc  Sc90  1  0.49814579  0.09365075  0.70589763  1
  Sc  Sc91  1  0.49369147  0.50285033  0.89792940  1
  Sc  Sc92  1  0.51410601  0.50199189  0.70617528  1
  Sc  Sc93  1  0.09977451  0.70377712  0.09903349  1
  Sc  Sc94  1  0.70841284  0.89726138  0.89582946  1
  Sc  Sc95  1  0.89813049  0.90364492  0.90774695  1
  Sc  Sc96  1  0.69704511  0.70378997  0.49592107  1
  Sc  Sc97  1  0.10355333  0.29012642  0.09973220  1
  Sc  Sc98  1  0.70090661  0.10055403  0.90167268  1
  Sc  Sc99  1  0.10214309  0.29939891  0.49356105  1
  Nb  Nb100  1  0.89935118  0.10373459  0.70146677  1
  Nb  Nb101  1  0.70129952  0.50156933  0.70332841  1
  Nb  Nb102  1  0.70093632  0.10372770  0.49497956  1
  Nb  Nb103  1  0.68917495  0.09813576  0.10281620  1
  Nb  Nb104  1  0.10308996  0.51013100  0.11737768  1
  Nb  Nb105  1  0.89670363  0.29459559  0.10448897  1
  Nb  Nb106  1  0.30064468  0.30147595  0.70394922  1
  Nb  Nb107  1  0.30434445  0.70853509  0.30067438  1
  Nb  Nb108  1  0.90064845  0.89966729  0.49213906  1
  Nb  Nb109  1  0.49852314  0.29958199  0.50066046  1
  Nb  Nb110  1  0.28424715  0.08254021  0.31083039  1
  Nb  Nb111  1  0.10567800  0.09484949  0.30332133  1
  Nb  Nb112  1  0.09828312  0.49817931  0.29667426  1
  Nb  Nb113  1  0.90812314  0.70676044  0.69757296  1
  Nb  Nb114  1  0.50777037  0.09823977  0.09412942  1
  Nb  Nb115  1  0.49618748  0.70041388  0.09893372  1
  Nb  Nb116  1  0.09294973  0.70154775  0.69166982  1
  Nb  Nb117  1  0.29633700  0.49912243  0.70710916  1
  Nb  Nb118  1  0.90046620  0.29896934  0.29669651  1
  Nb  Nb119  1  0.90258763  0.49603015  0.90172728  1
  Nb  Nb120  1  0.10444047  0.89539636  0.90105997  1
  Nb  Nb121  1  0.30117948  0.89848813  0.30567694  1
  Nb  Nb122  1  0.49781001  0.29990675  0.30151597  1
  Nb  Nb123  1  0.90305550  0.90482212  0.10282598  1
  Nb  Nb124  1  0.29918161  0.90127181  0.50038292  1
  Nb  Nb125  1  0.59555885  0.39868032  0.39724953  1
  Nb  Nb126  1  0.79799602  0.19778825  0.59952237  1
  Nb  Nb127  1  0.40159186  0.39814077  0.40162514  1
  Nb  Nb128  1  0.59799418  0.20371081  0.40254984  1
  Nb  Nb129  1  0.39600591  0.59797265  0.40183733  1
  Nb  Nb130  1  0.80057247  0.00240045  0.19217267  1
  Nb  Nb131  1  0.39346654  0.40217569  0.60137344  1
  Nb  Nb132  1  0.60578426  0.19987248  0.59589934  1
  Nb  Nb133  1  0.40312762  0.19983821  0.39551840  1
  Nb  Nb134  1  0.80596045  0.40896600  0.80294080  1
  Nb  Nb135  1  0.59437544  0.79839758  0.19331350  1
  Nb  Nb136  1  0.59779689  0.40133701  0.19966144  1
  Nb  Nb137  1  0.20484355  0.80480570  0.39761453  1
  Nb  Nb138  1  0.00254188  -0.00311884  0.39635962  1
  Nb  Nb139  1  0.00133187  0.80175640  0.79462495  1
  Nb  Nb140  1  0.19955875  0.80052746  0.59974762  1
  Nb  Nb141  1  0.19907635  -0.00851858  -0.00103692  1
  Nb  Nb142  1  0.80281172  0.19550294  0.19722148  1
  Nb  Nb143  1  -0.00302730  0.40018520  0.38772476  1
  Nb  Nb144  1  0.40145874  0.79905066  0.00661089  1
  Nb  Nb145  1  0.20553793  0.40115943  0.60845858  1
  Nb  Nb146  1  0.20385442  0.20316523  0.79728137  1
  Nb  Nb147  1  0.79940219  0.19911461  0.39937980  1
  Nb  Nb148  1  0.39295174  0.59066715  0.60249626  1
  Nb  Nb149  1  0.59962991  0.40060868  0.00639796  1
  Pd  Pd150  1  0.00514957  0.00470851  0.59193138  1
  Pd  Pd151  1  0.80970406  0.60740594  0.18956083  1
  Pd  Pd152  1  0.39682086  0.19431378  0.80116745  1
  Pd  Pd153  1  -0.00517056  0.60462121  0.01066188  1
  Pd  Pd154  1  0.79834936  0.18966167  0.00304910  1
  Pd  Pd155  1  0.00399419  0.20255332  0.81155101  1
  Pd  Pd156  1  0.19995188  0.60061999  -0.00122047  1
  Pd  Pd157  1  0.00885515  0.39891449  0.01593013  1
  Pd  Pd158  1  0.79652853  0.39652294  0.19876492  1
  Pd  Pd159  1  0.39827926  0.79395332  0.41309145  1
  Pd  Pd160  1  0.18876272  0.40338306  0.00669256  1
  Pd  Pd161  1  -0.00933155  -0.00858844  0.80435191  1
  Pd  Pd162  1  0.39207804  0.00854369  0.19992198  1
  Pd  Pd163  1  0.20017323  0.59993998  0.59766747  1
  Pd  Pd164  1  -0.00152073  0.19556230  0.19710631  1
  Pd  Pd165  1  0.60324898  0.80097228  0.80520976  1
  Pd  Pd166  1  0.60616081  0.20408167  0.20745901  1
  Pd  Pd167  1  0.00538409  0.19593630  -0.00225502  1
  Pd  Pd168  1  0.60660280  0.00322599  0.60438869  1
  Pd  Pd169  1  -0.00374558  0.19621103  0.40337446  1
  Pd  Pd170  1  0.80832699  0.79731829  -0.00032644  1
  Pd  Pd171  1  0.40294225  -0.00342764  0.59937963  1
  Pd  Pd172  1  0.60013782  0.60144713  0.20250006  1
  Pd  Pd173  1  0.19023669  0.20730317  0.60824681  1
  Pd  Pd174  1  0.81109505  0.60589900  0.00656487  1
  Pd  Pd175  1  0.79407205  0.80056804  0.59443249  1
  Pd  Pd176  1  0.39061113  0.18880360  0.20992435  1
  Pd  Pd177  1  0.60266611  -0.00250092  0.80331515  1
  Pd  Pd178  1  0.20811115  0.18872000  0.19971912  1
  Pd  Pd179  1  0.00813097  0.39260101  0.19774416  1
  Pd  Pd180  1  0.59507353  0.59897446  0.39908153  1
  Pd  Pd181  1  0.01077004  0.41053603  0.58853887  1
  Pd  Pd182  1  0.61098928  0.80440367  0.59913250  1
  Pd  Pd183  1  -0.00408160  0.19124052  0.58952551  1
  Pd  Pd184  1  0.40794918  0.40456303  0.79540719  1
  Pd  Pd185  1  0.18890149  0.60680973  0.80843932  1
  Pd  Pd186  1  0.20873768  0.01160008  0.80853010  1
  Pd  Pd187  1  0.19614498  0.18702063  -0.00969019  1
  Pd  Pd188  1  -0.00260945  0.39927494  0.80128059  1
  Pd  Pd189  1  0.80439710  0.39909191  0.61383671  1
  Pd  Pd190  1  0.40104182  0.40545271  0.20526858  1
  Pd  Pd191  1  0.00544252  0.61081579  0.80654425  1
  Pd  Pd192  1  0.79364882  0.00583183  0.60345848  1
  Pd  Pd193  1  0.61007321  -0.00635469  -0.00728681  1
  Pd  Pd194  1  0.38942101  0.59357487  0.20980363  1
  Pd  Pd195  1  0.80627850  0.60205853  0.80196502  1
  Pd  Pd196  1  0.19178280  0.79099016  0.20704320  1
  Pd  Pd197  1  0.59743417  0.59458702  -0.00537526  1
  Pd  Pd198  1  0.40815074  0.00647751  0.39979357  1
  Pd  Pd199  1  0.80286670  0.61282970  0.59636437  1
  Rh  Rh200  1  -0.00370102  0.60354281  0.19551508  1
  Rh  Rh201  1  0.59923148  0.80284749  0.39542452  1
  Rh  Rh202  1  0.39126418  0.60629501  -0.00598707  1
  Rh  Rh203  1  -0.00426009  0.59160365  0.39909621  1
  Rh  Rh204  1  0.59017042  0.00377968  0.40048826  1
  Rh  Rh205  1  0.59029170  0.80546448  0.00034651  1
  Rh  Rh206  1  0.38815387  -0.01125800  0.00356021  1
  Rh  Rh207  1  0.79865704  0.79889596  0.40785906  1
  Rh  Rh208  1  0.00199289  0.80202568  0.20528224  1
  Rh  Rh209  1  0.00600007  0.80723422  0.60417867  1
  Rh  Rh210  1  0.59445270  0.20353773  -0.00111794  1
  Rh  Rh211  1  0.40676566  0.80351380  0.19422253  1
  Rh  Rh212  1  0.79516154  0.00331826  0.00443394  1
  Rh  Rh213  1  0.80402337  -0.00170321  0.79867146  1
  Rh  Rh214  1  0.19711170  -0.00647902  0.59493885  1
  Rh  Rh215  1  0.80223397  0.61239624  0.40782279  1
  Rh  Rh216  1  0.19344031  0.39228467  0.39911432  1
  Rh  Rh217  1  0.20661283  0.00748672  0.18872737  1
  Rh  Rh218  1  -0.00389285  0.80399487  -0.00691357  1
  Rh  Rh219  1  0.59600502  0.39683558  0.60141354  1
  Rh  Rh220  1  0.40922549  0.39413586  -0.00033681  1
  Rh  Rh221  1  0.40117257  0.59702416  0.79634761  1
  Rh  Rh222  1  0.60247854  0.60342736  0.80290152  1
  Rh  Rh223  1  0.81237417  0.00582583  0.38736661  1
  Rh  Rh224  1  0.40711456  0.20498941  -0.00203040  1
  Rh  Rh225  1  0.40103100  0.79594711  0.80812257  1
  Rh  Rh226  1  0.79557181  0.40185909  -0.00254310  1
  Rh  Rh227  1  0.40847322  0.19986408  0.59803306  1
  Rh  Rh228  1  0.59634111  0.19001816  0.79625977  1
  Rh  Rh229  1  0.20408023  0.61310188  0.38755651  1
  Rh  Rh230  1  0.60687016  0.40811061  0.81245389  1
  Rh  Rh231  1  -0.00010376  0.59649792  0.59136767  1
  Rh  Rh232  1  0.20141971  0.60702724  0.20450551  1
  Rh  Rh233  1  -0.00776154  -0.00449906  0.20697929  1
  Rh  Rh234  1  0.79202760  0.80663775  0.19257484  1
  Rh  Rh235  1  0.19087676  -0.01160800  0.41066885  1
  Rh  Rh236  1  0.20938594  0.80516355  0.00313052  1
  Rh  Rh237  1  0.39552373  0.00153758  0.79738543  1
  Rh  Rh238  1  0.81325911  0.80024807  0.79872435  1
  Rh  Rh239  1  0.18942013  0.39310224  0.79486608  1
  Rh  Rh240  1  0.60730721  -0.01008955  0.19511882  1
  Rh  Rh241  1  0.20859309  0.20331570  0.39083090  1
  Rh  Rh242  1  0.39160406  0.79145217  0.59716481  1
  Rh  Rh243  1  0.00796039  -0.00640989  -0.00505990  1
  Rh  Rh244  1  0.80412465  0.39567701  0.39077598  1
  Rh  Rh245  1  0.19104577  0.39514437  0.19276909  1
  Rh  Rh246  1  0.01154128  0.81120610  0.38862727  1
  Rh  Rh247  1  0.60054550  0.60821174  0.60980887  1
  Rh  Rh248  1  0.18923552  0.79074846  0.79191490  1
  Rh  Rh249  1  0.80297787  0.20531967  0.79766452  1
