# generated using pymatgen
data_ZrScNbPdRh
_symmetry_space_group_name_H-M   'P 1'
_cell_length_a   16.56508396
_cell_length_b   16.55895998
_cell_length_c   16.56351862
_cell_angle_alpha   89.98253022
_cell_angle_beta   90.00091023
_cell_angle_gamma   89.98217685
_symmetry_Int_Tables_number   1
_chemical_formula_structural   ZrScNbPdRh
_chemical_formula_sum   'Zr50 Sc50 Nb50 Pd50 Rh50'
_cell_volume   4543.38204024
_cell_formula_units_Z   50
loop_
 _symmetry_equiv_pos_site_id
 _symmetry_equiv_pos_as_xyz
  1  'x, y, z'
loop_
 _atom_site_type_symbol
 _atom_site_label
 _atom_site_symmetry_multiplicity
 _atom_site_fract_x
 _atom_site_fract_y
 _atom_site_fract_z
 _atom_site_occupancy
  Zr  Zr0  1  0.70107536  0.30253571  0.51096569  1
  Zr  Zr1  1  0.50069079  0.50609470  0.09589222  1
  Zr  Zr2  1  0.29025099  0.31029566  0.89846863  1
  Zr  Zr3  1  0.10968288  0.49580941  0.90526463  1
  Zr  Zr4  1  0.90639555  0.10637031  0.30392506  1
  Zr  Zr5  1  0.50090386  0.10935223  0.10245375  1
  Zr  Zr6  1  0.50439638  0.29658858  0.09841294  1
  Zr  Zr7  1  0.90936741  0.10118831  0.70176983  1
  Zr  Zr8  1  0.70120558  0.30032785  0.70127157  1
  Zr  Zr9  1  0.10557057  0.31332297  0.50450610  1
  Zr  Zr10  1  0.89747301  0.29532092  0.90503314  1
  Zr  Zr11  1  0.90277195  0.51250583  0.49914808  1
  Zr  Zr12  1  0.90060220  0.89753335  0.50146933  1
  Zr  Zr13  1  0.30200042  0.50111517  0.29578783  1
  Zr  Zr14  1  0.09560947  0.29278535  0.70230587  1
  Zr  Zr15  1  0.69399812  0.49340965  0.68815658  1
  Zr  Zr16  1  0.90863284  0.49845927  0.29598426  1
  Zr  Zr17  1  0.11490582  0.09431124  0.30067285  1
  Zr  Zr18  1  0.49664232  0.90041718  0.10233525  1
  Zr  Zr19  1  0.49708744  0.90257328  0.89699883  1
  Zr  Zr20  1  0.70334072  0.10226643  0.69299615  1
  Zr  Zr21  1  0.89627409  0.90005224  0.09713153  1
  Zr  Zr22  1  0.29783697  0.09754248  0.48927414  1
  Zr  Zr23  1  0.49835447  0.69426550  0.90660313  1
  Zr  Zr24  1  0.70754050  0.90417930  0.49949441  1
  Zr  Zr25  1  0.29566777  0.49985447  0.09826275  1
  Zr  Zr26  1  0.09680431  0.50299079  0.11101002  1
  Zr  Zr27  1  0.89758941  0.29288758  0.70092685  1
  Zr  Zr28  1  0.89184456  0.50517869  0.90182870  1
  Zr  Zr29  1  0.49808038  0.50440582  0.69610921  1
  Zr  Zr30  1  0.49696589  0.89971303  0.50157240  1
  Zr  Zr31  1  0.10161761  0.09692089  0.50798353  1
  Zr  Zr32  1  0.69968877  0.50205608  0.09710383  1
  Zr  Zr33  1  0.90407774  0.89573641  0.30215706  1
  Zr  Zr34  1  0.30377085  0.10727398  0.89463751  1
  Zr  Zr35  1  0.70092151  0.30068250  0.10605210  1
  Zr  Zr36  1  0.89771381  0.30180009  0.29869440  1
  Zr  Zr37  1  0.89703407  0.50459953  0.70184778  1
  Zr  Zr38  1  0.70292865  0.49974392  0.29185848  1
  Zr  Zr39  1  0.30438837  0.69377734  0.69272874  1
  Zr  Zr40  1  0.50312417  0.69958907  0.69377735  1
  Zr  Zr41  1  0.10028217  0.89123485  0.50429465  1
  Zr  Zr42  1  0.30244190  0.29312173  0.10551505  1
  Zr  Zr43  1  0.90258941  0.29667553  0.10233409  1
  Zr  Zr44  1  0.10349511  0.70622249  0.69217930  1
  Zr  Zr45  1  0.50247610  0.30142512  0.90005560  1
  Zr  Zr46  1  0.69867258  0.69469677  0.10383973  1
  Zr  Zr47  1  0.49705565  0.69939476  0.29962139  1
  Zr  Zr48  1  0.09556829  0.90921249  0.89871775  1
  Zr  Zr49  1  0.10387651  0.10516586  0.09785056  1
  Sc  Sc50  1  0.09143473  0.90338305  0.69084103  1
  Sc  Sc51  1  0.90602861  0.09335175  0.90128794  1
  Sc  Sc52  1  0.89085619  0.50087710  0.10847233  1
  Sc  Sc53  1  0.70593179  0.09572819  0.30062233  1
  Sc  Sc54  1  0.28524873  0.30062375  0.70547488  1
  Sc  Sc55  1  0.89937680  0.10335560  0.09350008  1
  Sc  Sc56  1  0.08733545  0.30362198  0.29993635  1
  Sc  Sc57  1  0.49570837  0.09918906  0.89555481  1
  Sc  Sc58  1  0.49500574  0.49469350  0.90275349  1
  Sc  Sc59  1  0.49385220  0.69677368  0.50491988  1
  Sc  Sc60  1  0.10303287  0.29234169  0.10078474  1
  Sc  Sc61  1  0.70066884  0.71086447  0.70026682  1
  Sc  Sc62  1  0.50649902  0.30797695  0.69902186  1
  Sc  Sc63  1  0.27925312  0.50348166  0.49744154  1
  Sc  Sc64  1  0.10182489  0.49887770  0.68949050  1
  Sc  Sc65  1  0.29962356  0.49784226  0.70152942  1
  Sc  Sc66  1  0.30280508  0.90292571  0.68647920  1
  Sc  Sc67  1  0.10393673  0.89144747  0.10889793  1
  Sc  Sc68  1  0.69857293  0.90196933  0.70129692  1
  Sc  Sc69  1  0.10256017  0.70159729  0.11234473  1
  Sc  Sc70  1  0.49645398  0.90004728  0.30223222  1
  Sc  Sc71  1  0.69469394  0.49762178  0.90472541  1
  Sc  Sc72  1  0.30483192  0.88974757  0.10064768  1
  Sc  Sc73  1  0.89529604  0.09925706  0.50158233  1
  Sc  Sc74  1  0.49664500  0.09032174  0.70094934  1
  Sc  Sc75  1  0.69996068  0.89897573  0.88674148  1
  Sc  Sc76  1  0.90211771  0.69843935  0.29932170  1
  Sc  Sc77  1  0.70765703  0.70144686  0.89690523  1
  Sc  Sc78  1  0.30446513  0.90274571  0.49392029  1
  Sc  Sc79  1  0.50967960  0.50249701  0.50570045  1
  Sc  Sc80  1  0.09285276  0.69954263  0.89096714  1
  Sc  Sc81  1  0.09537204  0.50587909  0.30392659  1
  Sc  Sc82  1  0.70508928  0.90248994  0.10587525  1
  Sc  Sc83  1  0.50468321  0.49806912  0.30096447  1
  Sc  Sc84  1  0.49703131  0.08989283  0.49859185  1
  Sc  Sc85  1  0.30767837  0.70147250  0.30043063  1
  Sc  Sc86  1  0.70623553  0.08795100  0.89457198  1
  Sc  Sc87  1  0.70062900  0.30789442  0.90731539  1
  Sc  Sc88  1  0.89291670  0.90662428  0.89531878  1
  Sc  Sc89  1  0.91034851  0.29539282  0.49864900  1
  Sc  Sc90  1  0.50494624  0.29802397  0.29644780  1
  Sc  Sc91  1  0.29941519  0.29013948  0.29962869  1
  Sc  Sc92  1  0.50493846  0.09955353  0.29985981  1
  Sc  Sc93  1  0.50621388  0.29939132  0.49644152  1
  Sc  Sc94  1  0.29933501  0.69671320  0.49910965  1
  Sc  Sc95  1  0.49571079  0.69801508  0.10465223  1
  Sc  Sc96  1  0.69796581  0.09790358  0.10475507  1
  Sc  Sc97  1  0.70264046  0.90529362  0.29567263  1
  Sc  Sc98  1  0.29704502  0.89945533  0.30255065  1
  Sc  Sc99  1  0.30516655  0.69720199  0.10368635  1
  Nb  Nb100  1  0.29737992  0.10392363  0.69570067  1
  Nb  Nb101  1  0.69773810  0.30462294  0.30716992  1
  Nb  Nb102  1  0.29704906  0.50519543  0.90154732  1
  Nb  Nb103  1  0.09514783  0.50566502  0.49803224  1
  Nb  Nb104  1  0.29546831  0.10666501  0.10668829  1
  Nb  Nb105  1  0.90047109  0.90102932  0.69957353  1
  Nb  Nb106  1  0.89639730  0.70118793  0.49803763  1
  Nb  Nb107  1  0.30075054  0.29979442  0.49812940  1
  Nb  Nb108  1  0.69476358  0.69783117  0.29829335  1
  Nb  Nb109  1  0.08999381  0.71279346  0.29872140  1
  Nb  Nb110  1  0.89500855  0.69958379  0.09193790  1
  Nb  Nb111  1  0.10150253  0.10115726  0.70655385  1
  Nb  Nb112  1  0.30211038  0.90076375  0.90242254  1
  Nb  Nb113  1  0.30036257  0.09754801  0.29895650  1
  Nb  Nb114  1  0.30215423  0.70054208  0.90155487  1
  Nb  Nb115  1  0.89888254  0.69787858  0.89534718  1
  Nb  Nb116  1  0.69902267  0.10013870  0.50019314  1
  Nb  Nb117  1  0.09675721  0.89154524  0.29990429  1
  Nb  Nb118  1  0.90296640  0.70171964  0.71551773  1
  Nb  Nb119  1  0.50498966  0.89346227  0.70420705  1
  Nb  Nb120  1  0.10017478  0.29745166  0.89841909  1
  Nb  Nb121  1  0.09944582  0.10517409  0.89910831  1
  Nb  Nb122  1  0.09795496  0.69086975  0.49778901  1
  Nb  Nb123  1  0.70998738  0.69808824  0.49616193  1
  Nb  Nb124  1  0.70285790  0.50166023  0.49907006  1
  Nb  Nb125  1  0.00442330  -0.00116645  0.20535556  1
  Nb  Nb126  1  0.39606094  0.39812314  0.40596061  1
  Nb  Nb127  1  0.20553671  0.60398630  0.80415549  1
  Nb  Nb128  1  0.00126910  0.40267277  -0.00186632  1
  Nb  Nb129  1  0.61057994  0.19782438  0.40523020  1
  Nb  Nb130  1  0.39252792  0.00913613  0.19878661  1
  Nb  Nb131  1  0.59945800  0.80319995  0.00061932  1
  Nb  Nb132  1  0.00659620  -0.00567467  0.39789034  1
  Nb  Nb133  1  0.39174322  0.20223403  0.59784119  1
  Nb  Nb134  1  0.39260057  0.39464343  0.59118934  1
  Nb  Nb135  1  0.59679876  0.59927160  0.79553887  1
  Nb  Nb136  1  0.20197446  0.00323414  0.79972177  1
  Nb  Nb137  1  0.39682320  0.80029365  0.80027606  1
  Nb  Nb138  1  0.60370049  0.20064588  0.79744605  1
  Nb  Nb139  1  0.60697623  0.79288136  0.40199386  1
  Nb  Nb140  1  0.20561412  0.00132140  -0.00256542  1
  Nb  Nb141  1  0.00026953  0.39806066  0.80620091  1
  Nb  Nb142  1  0.61143880  0.60437913  0.40299253  1
  Nb  Nb143  1  0.79667863  0.40406569  0.40203704  1
  Nb  Nb144  1  0.18928405  0.79523429  0.39949317  1
  Nb  Nb145  1  0.59581724  -0.00581566  0.00001085  1
  Nb  Nb146  1  -0.00486455  0.60276425  0.00073758  1
  Nb  Nb147  1  -0.00444619  0.79385590  -0.00220948  1
  Nb  Nb148  1  0.19933511  0.80084023  -0.01101522  1
  Nb  Nb149  1  0.20689107  0.80360922  0.80159862  1
  Pd  Pd150  1  0.79257672  0.19223033  -0.00246945  1
  Pd  Pd151  1  0.60443180  0.79954341  0.58903390  1
  Pd  Pd152  1  0.41104967  0.20159524  0.40105681  1
  Pd  Pd153  1  0.81165881  0.00769962  0.20142943  1
  Pd  Pd154  1  0.19511832  0.39329155  0.20702394  1
  Pd  Pd155  1  0.39727493  0.80257128  0.59951636  1
  Pd  Pd156  1  0.40085551  0.60110987  0.80282504  1
  Pd  Pd157  1  0.59511755  0.40117242  0.19636382  1
  Pd  Pd158  1  0.80485081  0.00217677  0.60341138  1
  Pd  Pd159  1  0.79558862  0.19775516  0.20171917  1
  Pd  Pd160  1  0.80076991  0.59619944  0.38998186  1
  Pd  Pd161  1  0.79494491  0.20621041  0.40649159  1
  Pd  Pd162  1  0.59850083  -0.00443439  0.60355539  1
  Pd  Pd163  1  0.40446994  0.39810938  0.20666264  1
  Pd  Pd164  1  0.80065810  0.40200798  0.80191464  1
  Pd  Pd165  1  -0.00438573  0.60903855  0.60422817  1
  Pd  Pd166  1  0.79853973  0.60949934  0.61019496  1
  Pd  Pd167  1  0.39719124  0.00793162  0.01048254  1
  Pd  Pd168  1  0.39769535  0.39922662  0.00137449  1
  Pd  Pd169  1  0.01053089  0.58913330  0.80107983  1
  Pd  Pd170  1  0.20034468  0.60912702  0.21050965  1
  Pd  Pd171  1  0.40664871  0.21043881  0.78749201  1
  Pd  Pd172  1  0.60947611  0.18903423  -0.01278858  1
  Pd  Pd173  1  0.79553773  0.80123135  0.39088783  1
  Pd  Pd174  1  0.80276490  0.79359724  0.20491785  1
  Pd  Pd175  1  0.58631724  0.19537968  0.60092744  1
  Pd  Pd176  1  0.20214047  -0.00150403  0.60318952  1
  Pd  Pd177  1  0.81478839  0.39919561  0.59109166  1
  Pd  Pd178  1  0.59839927  0.80391324  0.20104049  1
  Pd  Pd179  1  0.01104772  0.19484030  0.40606636  1
  Pd  Pd180  1  0.80712651  0.79617969  0.60842199  1
  Pd  Pd181  1  0.19565408  0.39460561  0.01110068  1
  Pd  Pd182  1  0.78420763  0.59871660  0.79315500  1
  Pd  Pd183  1  0.39576679  0.20422890  -0.00374928  1
  Pd  Pd184  1  0.00706980  -0.00516496  0.01192439  1
  Pd  Pd185  1  -0.00510178  0.40135382  0.60431457  1
  Pd  Pd186  1  0.40811860  0.58901152  0.40647650  1
  Pd  Pd187  1  0.19371279  0.60963934  0.38917458  1
  Pd  Pd188  1  -0.00000145  0.80942060  0.80294852  1
  Pd  Pd189  1  -0.00965875  0.78964644  0.59895817  1
  Pd  Pd190  1  0.20146673  0.39857703  0.38980571  1
  Pd  Pd191  1  0.39311263  -0.00669982  0.78965673  1
  Pd  Pd192  1  0.39717919  0.39647162  0.79277371  1
  Pd  Pd193  1  0.19191274  0.20882528  0.39773979  1
  Pd  Pd194  1  0.79535587  0.19555264  0.80776245  1
  Pd  Pd195  1  0.79602542  0.80514015  -0.00808896  1
  Pd  Pd196  1  0.20208216  0.20116319  0.59789020  1
  Pd  Pd197  1  0.60227419  -0.00210758  0.39678900  1
  Pd  Pd198  1  0.19249185  0.61339040  -0.00121928  1
  Pd  Pd199  1  0.20425660  -0.00908472  0.19270436  1
  Rh  Rh200  1  0.19755156  0.19496163  0.80351494  1
  Rh  Rh201  1  0.80571086  0.19689706  0.59662989  1
  Rh  Rh202  1  0.19624579  0.20596842  0.20854156  1
  Rh  Rh203  1  0.20497115  0.79574632  0.59270383  1
  Rh  Rh204  1  0.80397236  0.40088601  0.00838712  1
  Rh  Rh205  1  0.78936517  -0.00130995  0.00103730  1
  Rh  Rh206  1  0.00338682  0.00020582  0.79393470  1
  Rh  Rh207  1  -0.00531651  0.60889886  0.19491978  1
  Rh  Rh208  1  0.59855622  0.00787286  0.80001186  1
  Rh  Rh209  1  0.40100421  0.00397537  0.60202656  1
  Rh  Rh210  1  -0.00350486  0.00367770  0.59763642  1
  Rh  Rh211  1  0.40106863  0.79292612  -0.00239172  1
  Rh  Rh212  1  0.80382016  0.60608965  0.20187983  1
  Rh  Rh213  1  0.39351615  0.59595452  0.00447299  1
  Rh  Rh214  1  0.40020525  0.80044601  0.40233301  1
  Rh  Rh215  1  0.00433094  0.19729487  0.59683729  1
  Rh  Rh216  1  -0.00077789  0.20155169  0.80819666  1
  Rh  Rh217  1  0.00139278  0.79510306  0.41140666  1
  Rh  Rh218  1  0.80667709  0.00024583  0.40116831  1
  Rh  Rh219  1  0.79957518  0.39595662  0.20383144  1
  Rh  Rh220  1  0.40174548  0.59530237  0.19837708  1
  Rh  Rh221  1  0.39964369  0.00049107  0.38940704  1
  Rh  Rh222  1  -0.00943024  0.80144633  0.18762902  1
  Rh  Rh223  1  0.60921769  0.19989405  0.21314237  1
  Rh  Rh224  1  0.80569149  -0.00073268  0.78973798  1
  Rh  Rh225  1  0.59225303  0.39871046  0.59470479  1
  Rh  Rh226  1  0.58879748  0.78973950  0.80770346  1
  Rh  Rh227  1  -0.00555944  0.40683872  0.40748820  1
  Rh  Rh228  1  0.60248362  0.40166966  0.80340584  1
  Rh  Rh229  1  0.20343715  0.19868243  -0.00661667  1
  Rh  Rh230  1  0.40107399  0.19527153  0.20707020  1
  Rh  Rh231  1  0.38914201  0.58293456  0.58889955  1
  Rh  Rh232  1  0.19566423  -0.01353389  0.40312587  1
  Rh  Rh233  1  0.80787091  0.80507541  0.79633798  1
  Rh  Rh234  1  0.59079820  0.00184415  0.19446445  1
  Rh  Rh235  1  0.59501544  0.59691884  0.20533858  1
  Rh  Rh236  1  0.19799433  0.59935965  0.60407102  1
  Rh  Rh237  1  0.20963478  0.79529547  0.20636125  1
  Rh  Rh238  1  0.39876266  0.80739499  0.20522593  1
  Rh  Rh239  1  0.59800475  0.40002262  0.00479727  1
  Rh  Rh240  1  0.60391735  0.40109685  0.40524828  1
  Rh  Rh241  1  0.79879440  0.60078795  -0.00046880  1
  Rh  Rh242  1  0.60732533  0.60833566  -0.00735679  1
  Rh  Rh243  1  0.00132857  0.39666264  0.19127225  1
  Rh  Rh244  1  0.19307973  0.40950457  0.79506141  1
  Rh  Rh245  1  0.00392387  0.19162314  0.19952060  1
  Rh  Rh246  1  0.00225468  0.20429580  -0.00325491  1
  Rh  Rh247  1  0.00097837  0.60654698  0.39769394  1
  Rh  Rh248  1  0.61309292  0.60886377  0.59906173  1
  Rh  Rh249  1  0.20207746  0.40230474  0.60092740  1
