# generated using pymatgen
data_ZrScNbPdRh
_symmetry_space_group_name_H-M   'P 1'
_cell_length_a   16.56344389
_cell_length_b   16.55271195
_cell_length_c   16.56040688
_cell_angle_alpha   89.98516838
_cell_angle_beta   90.02591820
_cell_angle_gamma   89.96899779
_symmetry_Int_Tables_number   1
_chemical_formula_structural   ZrScNbPdRh
_chemical_formula_sum   'Zr50 Sc50 Nb50 Pd50 Rh50'
_cell_volume   4540.36407657
_cell_formula_units_Z   50
loop_
 _symmetry_equiv_pos_site_id
 _symmetry_equiv_pos_as_xyz
  1  'x, y, z'
loop_
 _atom_site_type_symbol
 _atom_site_label
 _atom_site_symmetry_multiplicity
 _atom_site_fract_x
 _atom_site_fract_y
 _atom_site_fract_z
 _atom_site_occupancy
  Zr  Zr0  1  0.10033437  0.30333373  0.70024063  1
  Zr  Zr1  1  0.90940197  0.89117663  0.49919190  1
  Zr  Zr2  1  0.29267365  0.89940517  0.29654292  1
  Zr  Zr3  1  0.70479150  0.69195511  0.69443792  1
  Zr  Zr4  1  0.49141305  0.49974200  0.30320190  1
  Zr  Zr5  1  0.30066259  0.50269190  0.69146118  1
  Zr  Zr6  1  0.70452875  0.90732381  0.69703200  1
  Zr  Zr7  1  0.90339704  0.70206095  0.90218049  1
  Zr  Zr8  1  0.29445822  0.90662971  0.49202323  1
  Zr  Zr9  1  0.50161179  0.10296000  0.30026078  1
  Zr  Zr10  1  0.71075909  0.49822649  0.10371394  1
  Zr  Zr11  1  0.89440798  0.10571475  0.10864763  1
  Zr  Zr12  1  0.29417823  0.49453065  0.29167618  1
  Zr  Zr13  1  0.49785464  0.49238337  0.88962671  1
  Zr  Zr14  1  0.50677166  0.10575445  0.69843943  1
  Zr  Zr15  1  0.09433905  0.49187119  0.89831698  1
  Zr  Zr16  1  0.09440427  0.30024066  0.90283491  1
  Zr  Zr17  1  0.70344085  0.69388790  0.30844266  1
  Zr  Zr18  1  0.09855741  0.70285481  0.49449323  1
  Zr  Zr19  1  0.71219322  0.50176949  0.31003635  1
  Zr  Zr20  1  0.70399196  0.10366357  0.09577330  1
  Zr  Zr21  1  0.89513922  0.10490295  0.89952161  1
  Zr  Zr22  1  0.09646767  0.08938595  0.89714712  1
  Zr  Zr23  1  0.70563723  0.30078329  0.09676053  1
  Zr  Zr24  1  0.09897151  0.30848647  0.49395954  1
  Zr  Zr25  1  0.09863004  0.50019397  0.69854700  1
  Zr  Zr26  1  0.31046071  0.89589187  0.09627267  1
  Zr  Zr27  1  0.10335029  0.88772109  0.90823770  1
  Zr  Zr28  1  0.10540638  0.89889976  0.11068339  1
  Zr  Zr29  1  0.89757268  0.09670264  0.50272062  1
  Zr  Zr30  1  0.29696047  0.10115167  0.69076094  1
  Zr  Zr31  1  0.49902018  0.69161050  0.49151651  1
  Zr  Zr32  1  0.10381711  0.30530524  0.29704972  1
  Zr  Zr33  1  0.69834244  0.30728733  0.50438227  1
  Zr  Zr34  1  0.49648307  0.90111458  0.29937260  1
  Zr  Zr35  1  0.70861224  0.09767442  0.29670732  1
  Zr  Zr36  1  0.89946519  0.30791038  0.90066168  1
  Zr  Zr37  1  0.89876889  0.30050379  0.09790324  1
  Zr  Zr38  1  0.10246292  0.10435101  0.29042720  1
  Zr  Zr39  1  0.49251707  0.69935479  0.10484284  1
  Zr  Zr40  1  0.70079459  0.10776177  0.50144362  1
  Zr  Zr41  1  0.90969134  0.90354143  0.88910018  1
  Zr  Zr42  1  0.69300110  0.90253657  0.89773651  1
  Zr  Zr43  1  0.70160829  0.49995484  0.90372840  1
  Zr  Zr44  1  0.29596173  0.89988356  0.70112348  1
  Zr  Zr45  1  0.10665243  0.09950411  0.70063844  1
  Zr  Zr46  1  0.49537353  0.09565953  0.09511380  1
  Zr  Zr47  1  0.10159751  0.89117189  0.30701035  1
  Zr  Zr48  1  0.70084727  0.69812230  0.89887732  1
  Zr  Zr49  1  0.50448101  0.88960453  0.09919311  1
  Sc  Sc50  1  0.09835175  0.50545032  0.49450102  1
  Sc  Sc51  1  0.70442408  0.89913923  0.49752581  1
  Sc  Sc52  1  0.88664811  0.30370134  0.70464201  1
  Sc  Sc53  1  0.09839631  0.10351727  0.10049472  1
  Sc  Sc54  1  0.88410598  0.09111088  0.70483893  1
  Sc  Sc55  1  0.50755865  0.90625620  0.68886132  1
  Sc  Sc56  1  0.10101031  0.69777239  0.29834516  1
  Sc  Sc57  1  0.49978745  0.70057244  0.30580932  1
  Sc  Sc58  1  0.29028348  0.09638084  0.90411115  1
  Sc  Sc59  1  0.10727521  0.09743516  0.50166870  1
  Sc  Sc60  1  0.89116796  0.50208546  0.70044211  1
  Sc  Sc61  1  0.29114843  0.30227841  0.10662332  1
  Sc  Sc62  1  0.49358173  0.90251233  0.91059050  1
  Sc  Sc63  1  0.70840760  0.30000778  0.31189463  1
  Sc  Sc64  1  0.50185628  0.70140711  0.91522747  1
  Sc  Sc65  1  0.10188851  0.29608125  0.10107431  1
  Sc  Sc66  1  0.90320231  0.29720827  0.30684786  1
  Sc  Sc67  1  0.49908090  0.49798215  0.49924876  1
  Sc  Sc68  1  0.50586023  0.30569713  0.70117287  1
  Sc  Sc69  1  0.09235710  0.70507359  0.10201672  1
  Sc  Sc70  1  0.29426037  0.09958538  0.10180510  1
  Sc  Sc71  1  0.50195237  0.89547333  0.49659829  1
  Sc  Sc72  1  0.69537541  0.29903186  0.89720881  1
  Sc  Sc73  1  0.70465439  0.89864376  0.30527948  1
  Sc  Sc74  1  0.29557211  0.89809795  0.90311399  1
  Sc  Sc75  1  0.29832464  0.30475800  0.69343852  1
  Sc  Sc76  1  0.30200793  0.30514630  0.50474758  1
  Sc  Sc77  1  0.30131346  0.50161576  0.49916144  1
  Sc  Sc78  1  0.50562324  0.70381673  0.67157374  1
  Sc  Sc79  1  0.09940988  0.89921778  0.71258430  1
  Sc  Sc80  1  0.10119252  0.69693719  0.69637700  1
  Sc  Sc81  1  0.30792343  0.09851533  0.29768775  1
  Sc  Sc82  1  0.91112002  0.89980496  0.10698810  1
  Sc  Sc83  1  0.50064582  0.30359650  0.10033895  1
  Sc  Sc84  1  0.91535392  0.69483072  0.50185701  1
  Sc  Sc85  1  0.89251583  0.29648531  0.49317990  1
  Sc  Sc86  1  0.28694696  0.30225697  0.90086960  1
  Sc  Sc87  1  0.90229327  0.90051339  0.30545439  1
  Sc  Sc88  1  0.49838568  0.10737148  0.50029118  1
  Sc  Sc89  1  0.90951450  0.68929495  0.10216632  1
  Sc  Sc90  1  0.09754809  0.50180975  0.10152981  1
  Sc  Sc91  1  0.68726699  0.70018562  0.09464166  1
  Sc  Sc92  1  0.49032836  0.50438235  0.10295376  1
  Sc  Sc93  1  0.69603359  0.10412133  0.70668492  1
  Sc  Sc94  1  0.48753814  0.30134962  0.30600600  1
  Sc  Sc95  1  0.29328394  0.70867999  0.89791921  1
  Sc  Sc96  1  0.49562308  0.48837142  0.69486590  1
  Sc  Sc97  1  0.90059134  0.10314723  0.30019519  1
  Sc  Sc98  1  0.29679542  0.50021556  0.88876557  1
  Sc  Sc99  1  0.51618282  0.09832940  0.89710965  1
  Nb  Nb100  1  0.90489778  0.50051045  0.91127652  1
  Nb  Nb101  1  0.09591089  0.49572582  0.30499067  1
  Nb  Nb102  1  0.68942257  0.69244777  0.50652900  1
  Nb  Nb103  1  0.09836018  0.69594781  0.90601833  1
  Nb  Nb104  1  0.90284848  0.70221438  0.70157181  1
  Nb  Nb105  1  0.69453356  0.49711630  0.69247068  1
  Nb  Nb106  1  0.70384750  0.89966399  0.10308579  1
  Nb  Nb107  1  0.70269792  0.50682337  0.50512080  1
  Nb  Nb108  1  0.09636707  0.89076371  0.49698447  1
  Nb  Nb109  1  0.90656785  0.49942585  0.49266326  1
  Nb  Nb110  1  0.50409642  0.30168181  0.50534088  1
  Nb  Nb111  1  0.30446648  0.50505527  0.10307542  1
  Nb  Nb112  1  0.89999731  0.50011220  0.10292242  1
  Nb  Nb113  1  0.29434690  0.10633848  0.50538349  1
  Nb  Nb114  1  0.30504118  0.69958764  0.50414623  1
  Nb  Nb115  1  0.89965523  0.69314483  0.29284097  1
  Nb  Nb116  1  0.90071917  0.89515218  0.69702723  1
  Nb  Nb117  1  0.89983113  0.51135319  0.29694053  1
  Nb  Nb118  1  0.69482173  0.30741708  0.70051101  1
  Nb  Nb119  1  0.70258122  0.09922580  0.89443666  1
  Nb  Nb120  1  0.29349510  0.30290741  0.29710207  1
  Nb  Nb121  1  0.29819253  0.69341863  0.30593618  1
  Nb  Nb122  1  0.30186682  0.70092137  0.69408738  1
  Nb  Nb123  1  0.30710813  0.68553424  0.10344826  1
  Nb  Nb124  1  0.49495936  0.30412162  0.89490675  1
  Nb  Nb125  1  0.60350480  0.40124476  0.20545306  1
  Nb  Nb126  1  0.80195126  0.80630614  0.00334545  1
  Nb  Nb127  1  -0.00216907  0.19930673  0.60509420  1
  Nb  Nb128  1  0.40111153  0.20579747  -0.00843443  1
  Nb  Nb129  1  0.20166061  0.79973495  0.59409792  1
  Nb  Nb130  1  0.40456431  0.61361045  0.78989743  1
  Nb  Nb131  1  0.59549409  0.79396806  0.79574780  1
  Nb  Nb132  1  -0.00432347  0.60068151  0.80544542  1
  Nb  Nb133  1  0.60220612  0.59276221  0.20627085  1
  Nb  Nb134  1  -0.00550160  0.40875621  0.20468666  1
  Nb  Nb135  1  0.80057668  0.79458229  0.19710561  1
  Nb  Nb136  1  0.60201714  0.20065429  0.20108840  1
  Nb  Nb137  1  0.59698948  0.60052409  0.79261925  1
  Nb  Nb138  1  -0.00559797  0.39921867  0.59652999  1
  Nb  Nb139  1  0.20208274  0.60079838  0.00237243  1
  Nb  Nb140  1  -0.00158310  0.20036599  0.79610839  1
  Nb  Nb141  1  0.60258224  0.00090107  0.19793126  1
  Nb  Nb142  1  0.40049184  0.19935449  0.80400714  1
  Nb  Nb143  1  0.39960835  0.00304576  0.79626870  1
  Nb  Nb144  1  0.79958315  -0.00344394  -0.00016547  1
  Nb  Nb145  1  0.20743746  0.20265607  0.39828292  1
  Nb  Nb146  1  0.40595856  0.79844648  0.79205263  1
  Nb  Nb147  1  0.39562697  0.39906716  -0.00225500  1
  Nb  Nb148  1  0.80533507  0.79274560  0.60220419  1
  Nb  Nb149  1  -0.00017861  -0.00377782  0.60186603  1
  Pd  Pd150  1  0.59638985  0.20410315  -0.00104539  1
  Pd  Pd151  1  0.80265035  0.60840092  0.00736793  1
  Pd  Pd152  1  0.80709006  0.60736282  0.41502076  1
  Pd  Pd153  1  0.39114611  0.59561007  -0.01605066  1
  Pd  Pd154  1  0.60504449  -0.00164169  0.00552394  1
  Pd  Pd155  1  0.00900109  0.19367460  0.40558389  1
  Pd  Pd156  1  -0.00016422  0.00012802  0.20604583  1
  Pd  Pd157  1  0.20762107  0.78884150  0.19536488  1
  Pd  Pd158  1  0.20454869  0.40911229  0.00827117  1
  Pd  Pd159  1  0.19206448  0.60040492  0.19546546  1
  Pd  Pd160  1  0.60057383  0.40270752  0.39887314  1
  Pd  Pd161  1  0.60280154  0.80142749  0.40191486  1
  Pd  Pd162  1  0.20398872  0.39867049  0.79568306  1
  Pd  Pd163  1  0.40221919  -0.00173644  0.19746593  1
  Pd  Pd164  1  0.79646555  0.40755864  0.80471269  1
  Pd  Pd165  1  0.19737316  0.60405412  0.59160687  1
  Pd  Pd166  1  0.18919933  -0.01192754  0.59816993  1
  Pd  Pd167  1  0.20134588  0.20025483  0.80400732  1
  Pd  Pd168  1  0.80158796  0.59173889  0.80184024  1
  Pd  Pd169  1  0.60042311  0.20565683  0.39609906  1
  Pd  Pd170  1  0.19893733  0.60734008  0.80452886  1
  Pd  Pd171  1  0.39199168  0.20303878  0.40573387  1
  Pd  Pd172  1  0.59358090  0.58902750  0.00402526  1
  Pd  Pd173  1  0.40437997  0.20907212  0.60586928  1
  Pd  Pd174  1  0.00163224  0.19671610  -0.00242218  1
  Pd  Pd175  1  0.40055117  0.20724832  0.19107171  1
  Pd  Pd176  1  0.80576944  0.40339506  0.59300955  1
  Pd  Pd177  1  0.39440442  0.79849385  0.39665118  1
  Pd  Pd178  1  0.60071012  0.00018005  0.39901792  1
  Pd  Pd179  1  0.40141270  0.00722486  0.40709175  1
  Pd  Pd180  1  0.00751775  0.00634040  0.40285787  1
  Pd  Pd181  1  0.39267713  0.79213238  0.20878801  1
  Pd  Pd182  1  0.80714203  0.78774338  0.40480240  1
  Pd  Pd183  1  0.19883342  -0.00126089  0.00701688  1
  Pd  Pd184  1  0.39357968  0.39909376  0.40541107  1
  Pd  Pd185  1  0.59230218  0.40624721  0.00777561  1
  Pd  Pd186  1  0.79462143  0.80436020  0.79887601  1
  Pd  Pd187  1  0.80454894  0.39295865  0.20976432  1
  Pd  Pd188  1  0.20239010  0.59769864  0.40178531  1
  Pd  Pd189  1  0.60176190  0.00383676  0.58965993  1
  Pd  Pd190  1  -0.00419920  -0.00118662  0.00642290  1
  Pd  Pd191  1  0.80215395  -0.00153993  0.40302511  1
  Pd  Pd192  1  0.60911075  0.79766724  0.20872475  1
  Pd  Pd193  1  0.79972844  0.20154089  0.60759476  1
  Pd  Pd194  1  0.20470925  0.78970331  0.01340653  1
  Pd  Pd195  1  0.39561929  0.80814795  0.59653938  1
  Pd  Pd196  1  0.00987343  0.79081129  0.79643603  1
  Pd  Pd197  1  0.40317249  -0.00037591  0.59663166  1
  Pd  Pd198  1  0.19617869  0.01009228  0.39459606  1
  Pd  Pd199  1  0.81056882  0.60292318  0.59206866  1
  Rh  Rh200  1  0.20585920  -0.00577136  0.80650705  1
  Rh  Rh201  1  0.79639439  0.20572060  0.80088739  1
  Rh  Rh202  1  0.20202683  -0.00007713  0.19927636  1
  Rh  Rh203  1  0.60387693  0.20714250  0.60173084  1
  Rh  Rh204  1  0.00732029  0.59461676  -0.00328305  1
  Rh  Rh205  1  0.00765559  0.59310222  0.20475583  1
  Rh  Rh206  1  -0.00502572  0.59033223  0.61020037  1
  Rh  Rh207  1  0.19292283  0.40596940  0.59457691  1
  Rh  Rh208  1  0.59275699  -0.00781424  0.79916419  1
  Rh  Rh209  1  -0.00747810  0.79792416  0.20577735  1
  Rh  Rh210  1  0.59987451  0.59216323  0.39887072  1
  Rh  Rh211  1  0.79546999  0.19799462  -0.00954495  1
  Rh  Rh212  1  0.20728674  0.79189380  0.40471970  1
  Rh  Rh213  1  -0.00855584  0.40312779  0.79054076  1
  Rh  Rh214  1  0.80004986  -0.01000517  0.19744253  1
  Rh  Rh215  1  0.60763875  0.40482067  0.79799208  1
  Rh  Rh216  1  0.38957867  0.39430898  0.80088407  1
  Rh  Rh217  1  0.40426101  0.59452786  0.60099809  1
  Rh  Rh218  1  0.61378177  0.80455723  0.59788476  1
  Rh  Rh219  1  -0.00329417  0.21021243  0.19950027  1
  Rh  Rh220  1  0.39236734  0.59785073  0.39926735  1
  Rh  Rh221  1  -0.00097498  0.40169601  0.01476920  1
  Rh  Rh222  1  0.19294631  0.20977867  0.58749559  1
  Rh  Rh223  1  0.40088583  0.39516579  0.19320509  1
  Rh  Rh224  1  -0.00385064  0.79044593  0.38817095  1
  Rh  Rh225  1  0.79944959  0.19520386  0.40088453  1
  Rh  Rh226  1  0.39352881  0.79312645  -0.00435103  1
  Rh  Rh227  1  0.79896549  -0.00499158  0.80619762  1
  Rh  Rh228  1  0.39712610  0.01056664  -0.00913219  1
  Rh  Rh229  1  0.20699532  0.39921768  0.40043471  1
  Rh  Rh230  1  0.80708549  -0.01119552  0.59159615  1
  Rh  Rh231  1  0.20097869  0.79425237  0.79356206  1
  Rh  Rh232  1  0.80714677  0.40635584  0.40538486  1
  Rh  Rh233  1  0.00146437  0.60224772  0.39028290  1
  Rh  Rh234  1  -0.00367515  0.80346204  0.00358365  1
  Rh  Rh235  1  0.20019528  0.19726301  0.00096975  1
  Rh  Rh236  1  0.60376156  0.80289988  -0.00474399  1
  Rh  Rh237  1  0.19195190  0.40704323  0.19643572  1
  Rh  Rh238  1  0.80226020  0.40134767  -0.00442646  1
  Rh  Rh239  1  0.20637903  0.19682206  0.20494210  1
  Rh  Rh240  1  -0.00280342  0.00946070  0.78836839  1
  Rh  Rh241  1  -0.00794968  0.40520244  0.39609679  1
  Rh  Rh242  1  0.00558939  0.80486054  0.60861249  1
  Rh  Rh243  1  0.40350921  0.60459528  0.21293986  1
  Rh  Rh244  1  0.59344491  0.58726961  0.59973108  1
  Rh  Rh245  1  0.59860117  0.40238064  0.59563258  1
  Rh  Rh246  1  0.79824164  0.20829642  0.20778568  1
  Rh  Rh247  1  0.40356599  0.39677861  0.59497699  1
  Rh  Rh248  1  0.60074532  0.20729058  0.79922971  1
  Rh  Rh249  1  0.79234070  0.61116554  0.19075379  1
