# generated using pymatgen
data_ZrScNbPdRh
_symmetry_space_group_name_H-M   'P 1'
_cell_length_a   16.55224370
_cell_length_b   16.55736379
_cell_length_c   16.55634770
_cell_angle_alpha   89.98906254
_cell_angle_beta   90.01858156
_cell_angle_gamma   90.00759643
_symmetry_Int_Tables_number   1
_chemical_formula_structural   ZrScNbPdRh
_chemical_formula_sum   'Zr50 Sc50 Nb50 Pd50 Rh50'
_cell_volume   4537.45746480
_cell_formula_units_Z   50
loop_
 _symmetry_equiv_pos_site_id
 _symmetry_equiv_pos_as_xyz
  1  'x, y, z'
loop_
 _atom_site_type_symbol
 _atom_site_label
 _atom_site_symmetry_multiplicity
 _atom_site_fract_x
 _atom_site_fract_y
 _atom_site_fract_z
 _atom_site_occupancy
  Zr  Zr0  1  0.29507011  0.49175359  0.69516539  1
  Zr  Zr1  1  0.69996781  0.89924636  0.70679848  1
  Zr  Zr2  1  0.10584842  0.10437607  0.10044982  1
  Zr  Zr3  1  0.70000645  0.29577165  0.50583395  1
  Zr  Zr4  1  0.10519869  0.49704340  0.49488833  1
  Zr  Zr5  1  0.50171485  0.09799934  0.28969348  1
  Zr  Zr6  1  0.10003993  0.89897974  0.30311107  1
  Zr  Zr7  1  0.09154038  0.29964648  0.10163780  1
  Zr  Zr8  1  0.90567998  0.89097189  0.09866607  1
  Zr  Zr9  1  0.90756344  0.09810631  0.69597967  1
  Zr  Zr10  1  0.70212055  0.49491950  0.29311608  1
  Zr  Zr11  1  0.29774376  0.30647325  0.49563941  1
  Zr  Zr12  1  0.70057643  0.70272990  0.49085183  1
  Zr  Zr13  1  0.49472914  0.50393526  0.69842984  1
  Zr  Zr14  1  0.90006182  0.69482831  0.29741914  1
  Zr  Zr15  1  0.50538498  0.28872042  0.09915017  1
  Zr  Zr16  1  0.29736903  0.69629687  0.50274051  1
  Zr  Zr17  1  0.89065008  0.90107992  0.90101601  1
  Zr  Zr18  1  0.29055712  0.30250089  0.10416029  1
  Zr  Zr19  1  0.10037653  0.30335151  0.29628762  1
  Zr  Zr20  1  0.69936461  0.49770077  0.50193237  1
  Zr  Zr21  1  0.50340176  0.90110186  0.10220832  1
  Zr  Zr22  1  0.50945249  0.50221770  0.89343314  1
  Zr  Zr23  1  0.09730904  0.90619739  0.69921620  1
  Zr  Zr24  1  0.50118096  0.69837933  0.89818992  1
  Zr  Zr25  1  0.90028988  0.09471787  0.30040444  1
  Zr  Zr26  1  0.89815218  0.10179905  0.90504127  1
  Zr  Zr27  1  0.70058189  0.50130100  0.90287071  1
  Zr  Zr28  1  0.89732289  0.69751473  0.10054830  1
  Zr  Zr29  1  0.10330585  0.50041052  0.10136137  1
  Zr  Zr30  1  0.70573254  0.29931798  0.69451727  1
  Zr  Zr31  1  0.08917840  0.70179610  0.69639501  1
  Zr  Zr32  1  0.09770505  0.90436230  0.90722065  1
  Zr  Zr33  1  0.29780018  0.69975891  0.30762805  1
  Zr  Zr34  1  0.29789502  0.69915314  0.90780821  1
  Zr  Zr35  1  0.49479494  0.30879978  0.49591924  1
  Zr  Zr36  1  0.30017434  0.10022887  0.50742499  1
  Zr  Zr37  1  0.90247555  0.70267393  0.70533654  1
  Zr  Zr38  1  0.30280476  0.90729785  0.30547471  1
  Zr  Zr39  1  0.90438029  0.49641978  0.69953421  1
  Zr  Zr40  1  0.90422840  0.30041597  0.28870928  1
  Zr  Zr41  1  0.30479406  0.10077019  0.88607969  1
  Zr  Zr42  1  0.30571560  0.69143827  0.70103962  1
  Zr  Zr43  1  0.50334781  0.11120527  0.90160593  1
  Zr  Zr44  1  0.09804309  0.69831490  0.30583028  1
  Zr  Zr45  1  0.30716693  0.90278905  0.50457411  1
  Zr  Zr46  1  0.49037327  0.10177095  0.70385548  1
  Zr  Zr47  1  0.09492376  0.89610216  0.50143323  1
  Zr  Zr48  1  0.10136224  0.90128708  0.10094550  1
  Zr  Zr49  1  0.89771925  0.70032888  0.90269802  1
  Sc  Sc50  1  0.90439697  0.70124334  0.49210035  1
  Sc  Sc51  1  0.09347221  0.30349462  0.49020510  1
  Sc  Sc52  1  0.90926412  0.49231976  0.50224072  1
  Sc  Sc53  1  0.50799838  0.09371592  0.51101684  1
  Sc  Sc54  1  0.90161590  0.09894248  0.50269948  1
  Sc  Sc55  1  0.70348442  0.90294454  0.10976907  1
  Sc  Sc56  1  0.10220251  0.29722870  0.70241974  1
  Sc  Sc57  1  0.70597495  0.49912843  0.09961319  1
  Sc  Sc58  1  0.50048906  0.90197003  0.70075020  1
  Sc  Sc59  1  0.29803031  0.90798341  0.90322346  1
  Sc  Sc60  1  0.09859689  0.10140776  0.49795180  1
  Sc  Sc61  1  0.10449486  0.10523151  0.30694556  1
  Sc  Sc62  1  0.09531708  0.69414242  0.90004027  1
  Sc  Sc63  1  0.29778593  0.90408607  0.09194210  1
  Sc  Sc64  1  0.69871075  0.30643174  0.89478326  1
  Sc  Sc65  1  0.49813025  0.49201015  0.29580746  1
  Sc  Sc66  1  0.50027601  0.91140449  0.89705733  1
  Sc  Sc67  1  0.50075051  0.69227756  0.70057914  1
  Sc  Sc68  1  0.30239780  0.10319366  0.10412383  1
  Sc  Sc69  1  0.89437047  0.49790935  0.10173910  1
  Sc  Sc70  1  0.50529839  0.30365892  0.29101672  1
  Sc  Sc71  1  0.90014892  0.29919955  0.68767953  1
  Sc  Sc72  1  0.70624091  0.09051278  0.28634434  1
  Sc  Sc73  1  0.70186515  0.09366854  0.51095103  1
  Sc  Sc74  1  0.10181227  0.69741767  0.49145884  1
  Sc  Sc75  1  0.09027357  0.70253207  0.09534235  1
  Sc  Sc76  1  0.50583630  0.29419041  0.70380341  1
  Sc  Sc77  1  0.70590680  0.70242936  0.30003965  1
  Sc  Sc78  1  0.90609838  0.90239547  0.69675527  1
  Sc  Sc79  1  0.29855693  0.30652348  0.30042826  1
  Sc  Sc80  1  0.09663969  0.49789871  0.69949245  1
  Sc  Sc81  1  0.69852083  0.49648287  0.71192359  1
  Sc  Sc82  1  0.88944720  0.49841270  0.90864497  1
  Sc  Sc83  1  0.50824545  0.10011885  0.09785819  1
  Sc  Sc84  1  0.29172563  0.29239258  0.89631198  1
  Sc  Sc85  1  0.88542433  0.10532308  0.09936906  1
  Sc  Sc86  1  0.09454317  0.49533990  0.30211686  1
  Sc  Sc87  1  0.51041164  0.70140173  0.29193176  1
  Sc  Sc88  1  0.30050244  0.91904703  0.70199610  1
  Sc  Sc89  1  0.69470968  0.10066202  0.69524034  1
  Sc  Sc90  1  0.10264380  0.50353552  0.89625495  1
  Sc  Sc91  1  0.89805116  0.90949918  0.49880826  1
  Sc  Sc92  1  0.51067891  0.90479416  0.29956079  1
  Sc  Sc93  1  0.09747207  0.10976920  0.89942468  1
  Sc  Sc94  1  0.49824577  0.51300570  0.10424617  1
  Sc  Sc95  1  0.69829080  0.69849450  0.10719207  1
  Sc  Sc96  1  0.89251967  0.89880030  0.30095604  1
  Sc  Sc97  1  0.29223596  0.50746910  0.89422687  1
  Sc  Sc98  1  0.70241971  0.70077226  0.88764067  1
  Sc  Sc99  1  0.29828700  0.29342053  0.69654612  1
  Nb  Nb100  1  0.09682551  0.30092130  0.90711658  1
  Nb  Nb101  1  0.49676561  0.30152592  0.89968636  1
  Nb  Nb102  1  0.69853537  0.30119367  0.29576421  1
  Nb  Nb103  1  0.69592841  0.89405069  0.31014398  1
  Nb  Nb104  1  0.29344383  0.09853337  0.69569456  1
  Nb  Nb105  1  0.49507104  0.70514068  0.09819056  1
  Nb  Nb106  1  0.50973572  0.89395756  0.49952723  1
  Nb  Nb107  1  0.70566766  0.09060492  0.90269913  1
  Nb  Nb108  1  0.30511326  0.49340404  0.49458312  1
  Nb  Nb109  1  0.30846739  0.69479668  0.09979522  1
  Nb  Nb110  1  0.30626258  0.09957906  0.31250556  1
  Nb  Nb111  1  0.70427179  0.30140702  0.11299857  1
  Nb  Nb112  1  0.90049077  0.49869644  0.30107056  1
  Nb  Nb113  1  0.90723263  0.29467093  0.91230051  1
  Nb  Nb114  1  0.30245704  0.49996632  0.29418262  1
  Nb  Nb115  1  0.69548706  0.89678826  0.89524620  1
  Nb  Nb116  1  0.30199465  0.50316318  0.10221317  1
  Nb  Nb117  1  0.69493304  0.89842281  0.49831567  1
  Nb  Nb118  1  0.49418341  0.49950849  0.50256089  1
  Nb  Nb119  1  0.11089492  0.09458117  0.69619719  1
  Nb  Nb120  1  0.49741925  0.69584571  0.50435201  1
  Nb  Nb121  1  0.89227878  0.30167150  0.50140972  1
  Nb  Nb122  1  0.69897876  0.10608630  0.09901607  1
  Nb  Nb123  1  0.89330811  0.30259810  0.09172462  1
  Nb  Nb124  1  0.70150099  0.70559285  0.69778040  1
  Nb  Nb125  1  0.20690905  0.60287019  0.19837554  1
  Nb  Nb126  1  0.59283624  0.59615559  0.40518708  1
  Nb  Nb127  1  0.39935027  0.40015683  -0.00220182  1
  Nb  Nb128  1  0.00110983  -0.00034402  0.19863239  1
  Nb  Nb129  1  0.20219984  0.40023006  0.00226899  1
  Nb  Nb130  1  0.60154383  0.79698287  0.59595024  1
  Nb  Nb131  1  0.39666144  0.79737388  0.19914870  1
  Nb  Nb132  1  0.40928121  0.79642224  0.40266994  1
  Nb  Nb133  1  0.79611825  0.20528665  0.39697279  1
  Nb  Nb134  1  0.79877996  0.60489033  0.60256529  1
  Nb  Nb135  1  0.40459383  0.19615544  0.39854532  1
  Nb  Nb136  1  0.80473493  0.19635042  0.80512489  1
  Nb  Nb137  1  0.79481989  0.79856491  0.59787876  1
  Nb  Nb138  1  0.80143299  0.39325812  0.39688521  1
  Nb  Nb139  1  0.20578630  0.79469715  0.19891118  1
  Nb  Nb140  1  0.60367405  0.19996360  0.39579448  1
  Nb  Nb141  1  0.59990678  0.80140435  -0.00265045  1
  Nb  Nb142  1  0.59417754  0.39583608  0.00289597  1
  Nb  Nb143  1  0.39313718  0.79927030  0.80155759  1
  Nb  Nb144  1  0.20180849  0.80132630  0.79606202  1
  Nb  Nb145  1  -0.00232269  0.38987970  0.81064893  1
  Nb  Nb146  1  0.40058792  0.39728891  0.80584093  1
  Nb  Nb147  1  0.59592527  0.40313512  0.59940562  1
  Nb  Nb148  1  0.20105913  0.80108899  0.60695858  1
  Nb  Nb149  1  0.40298006  0.59764321  0.40264890  1
  Pd  Pd150  1  0.00364021  0.59473778  0.20145711  1
  Pd  Pd151  1  0.19291988  0.60462370  0.79325828  1
  Pd  Pd152  1  0.60709636  0.60516650  0.00398760  1
  Pd  Pd153  1  0.00713342  0.20306782  0.59591778  1
  Pd  Pd154  1  0.40151669  0.00932752  0.00321553  1
  Pd  Pd155  1  0.61125413  0.19708563  0.80384982  1
  Pd  Pd156  1  0.20726801  0.19489804  0.21192469  1
  Pd  Pd157  1  0.41531334  0.00114844  0.40825608  1
  Pd  Pd158  1  0.60839673  -0.00478868  0.00253167  1
  Pd  Pd159  1  0.00372080  0.40990733  -0.00168449  1
  Pd  Pd160  1  -0.00671366  0.19114259  0.19324585  1
  Pd  Pd161  1  0.60325442  0.40072611  0.40161069  1
  Pd  Pd162  1  0.19584974  0.00141152  0.40799169  1
  Pd  Pd163  1  0.80078975  0.58962261  0.40360531  1
  Pd  Pd164  1  0.39397624  0.20354226  0.20726345  1
  Pd  Pd165  1  0.00309554  0.80585880  0.80792539  1
  Pd  Pd166  1  0.20358754  0.01403669  -0.00656872  1
  Pd  Pd167  1  0.79768447  0.80135847  0.20429097  1
  Pd  Pd168  1  -0.00446160  0.59276877  -0.00337125  1
  Pd  Pd169  1  0.61356811  0.20697414  -0.00471395  1
  Pd  Pd170  1  0.78717653  0.20843600  -0.00563556  1
  Pd  Pd171  1  0.19984591  0.00035343  0.20442051  1
  Pd  Pd172  1  0.39214624  0.20214087  0.00006834  1
  Pd  Pd173  1  0.79207938  0.00464794  0.40271186  1
  Pd  Pd174  1  0.19592300  0.19997502  0.79787752  1
  Pd  Pd175  1  0.19093131  0.20618470  0.59224523  1
  Pd  Pd176  1  0.19306094  0.39271073  0.59879408  1
  Pd  Pd177  1  0.00380105  0.00397717  0.80473190  1
  Pd  Pd178  1  0.19572424  0.60091731  0.60033664  1
  Pd  Pd179  1  0.40321973  0.20415524  0.59576419  1
  Pd  Pd180  1  0.40167140  0.80524192  0.60631554  1
  Pd  Pd181  1  0.40110535  0.59023854  -0.00701688  1
  Pd  Pd182  1  0.80176453  0.59912935  0.79580726  1
  Pd  Pd183  1  0.78579791  0.79610475  -0.00017709  1
  Pd  Pd184  1  0.79410268  -0.00647672  0.00796637  1
  Pd  Pd185  1  0.60750159  0.59907014  0.60113926  1
  Pd  Pd186  1  0.40631470  0.80789679  -0.00379096  1
  Pd  Pd187  1  -0.00348504  0.60190425  0.58955217  1
  Pd  Pd188  1  -0.00400557  0.00903044  0.00878716  1
  Pd  Pd189  1  0.59745551  0.00831047  0.79860221  1
  Pd  Pd190  1  0.81310845  0.38772567  0.80456426  1
  Pd  Pd191  1  -0.00940353  0.80450227  0.39886404  1
  Pd  Pd192  1  0.80097138  0.00575786  0.79263973  1
  Pd  Pd193  1  0.19594974  0.79414080  0.00215858  1
  Pd  Pd194  1  0.40614660  0.39661525  0.19136370  1
  Pd  Pd195  1  -0.00400185  0.20455779  0.79568895  1
  Pd  Pd196  1  0.39743686  -0.00351967  0.19442903  1
  Pd  Pd197  1  0.60458311  0.01062737  0.39827733  1
  Pd  Pd198  1  -0.00876876  0.20272496  0.40366168  1
  Pd  Pd199  1  0.60220521  0.59792647  0.20376510  1
  Rh  Rh200  1  -0.00014619  0.79774107  -0.00712218  1
  Rh  Rh201  1  0.78937867  0.39203459  0.00265485  1
  Rh  Rh202  1  0.58916163  0.79834609  0.80060281  1
  Rh  Rh203  1  -0.00775054  0.39726160  0.39770709  1
  Rh  Rh204  1  0.40745784  -0.00054400  0.59998235  1
  Rh  Rh205  1  0.59283367  0.20695526  0.59492420  1
  Rh  Rh206  1  0.79868074  0.20184789  0.20244582  1
  Rh  Rh207  1  0.80455237  -0.00623407  0.19601104  1
  Rh  Rh208  1  0.59559116  0.40443959  0.18569617  1
  Rh  Rh209  1  0.79844078  -0.00806887  0.60298282  1
  Rh  Rh210  1  0.00483270  0.00587358  0.59643485  1
  Rh  Rh211  1  -0.00062277  0.19422817  0.00902124  1
  Rh  Rh212  1  0.20165677  0.20266034  -0.00042714  1
  Rh  Rh213  1  0.59328128  0.39781699  0.79640816  1
  Rh  Rh214  1  0.39797898  0.40117324  0.39065266  1
  Rh  Rh215  1  0.60855668  0.19441281  0.20432919  1
  Rh  Rh216  1  0.19464745  -0.00313431  0.59365294  1
  Rh  Rh217  1  0.00629757  0.39418145  0.60489558  1
  Rh  Rh218  1  0.00617890  0.80473009  0.20501285  1
  Rh  Rh219  1  -0.00240943  0.59381624  0.40040743  1
  Rh  Rh220  1  0.79634829  0.41113560  0.59775826  1
  Rh  Rh221  1  0.40218665  0.00013714  0.79927974  1
  Rh  Rh222  1  -0.00259156  0.79815090  0.59238174  1
  Rh  Rh223  1  0.80659612  0.40076202  0.20159723  1
  Rh  Rh224  1  0.20005933  0.40165839  0.39266993  1
  Rh  Rh225  1  0.00102626  0.00038802  0.39302259  1
  Rh  Rh226  1  0.59826971  0.80305681  0.19575122  1
  Rh  Rh227  1  0.39773390  0.59711453  0.80543023  1
  Rh  Rh228  1  0.20534368  0.58442540  0.39385347  1
  Rh  Rh229  1  0.39825056  0.60751521  0.20895978  1
  Rh  Rh230  1  0.80660440  0.80505001  0.79527627  1
  Rh  Rh231  1  0.60591358  0.60486390  0.79411777  1
  Rh  Rh232  1  0.19353770  0.00186205  0.80502652  1
  Rh  Rh233  1  0.19945131  0.59767117  0.00839628  1
  Rh  Rh234  1  0.19787266  0.40828062  0.19964385  1
  Rh  Rh235  1  0.20894627  0.20180122  0.40101187  1
  Rh  Rh236  1  0.80307051  0.80646036  0.40231805  1
  Rh  Rh237  1  0.80170127  0.59916783  0.20007780  1
  Rh  Rh238  1  0.59470240  0.79185983  0.40035759  1
  Rh  Rh239  1  0.80487542  0.18820049  0.60236921  1
  Rh  Rh240  1  0.60789921  -0.00149785  0.19808288  1
  Rh  Rh241  1  0.79505160  0.60707817  0.00315687  1
  Rh  Rh242  1  -0.00604358  0.40338711  0.19426946  1
  Rh  Rh243  1  0.19711506  0.39494974  0.80815685  1
  Rh  Rh244  1  -0.00766270  0.58555510  0.80866561  1
  Rh  Rh245  1  0.39538322  0.20588491  0.79449841  1
  Rh  Rh246  1  0.39135336  0.59145157  0.59418384  1
  Rh  Rh247  1  0.59974639  -0.01084900  0.60639760  1
  Rh  Rh248  1  0.40356527  0.39694498  0.61203376  1
  Rh  Rh249  1  0.20751914  0.81124229  0.40708478  1
