# generated using pymatgen
data_ZrScNbPdRh
_symmetry_space_group_name_H-M   'P 1'
_cell_length_a   16.55762513
_cell_length_b   16.56525786
_cell_length_c   16.56081534
_cell_angle_alpha   89.99841304
_cell_angle_beta   89.97062109
_cell_angle_gamma   90.01600116
_symmetry_Int_Tables_number   1
_chemical_formula_structural   ZrScNbPdRh
_chemical_formula_sum   'Zr50 Sc50 Nb50 Pd50 Rh50'
_cell_volume   4542.32167921
_cell_formula_units_Z   50
loop_
 _symmetry_equiv_pos_site_id
 _symmetry_equiv_pos_as_xyz
  1  'x, y, z'
loop_
 _atom_site_type_symbol
 _atom_site_label
 _atom_site_symmetry_multiplicity
 _atom_site_fract_x
 _atom_site_fract_y
 _atom_site_fract_z
 _atom_site_occupancy
  Zr  Zr0  1  0.68929762  0.49455618  0.50007437  1
  Zr  Zr1  1  0.49016069  0.28998314  0.69901006  1
  Zr  Zr2  1  0.69866537  0.68912790  0.29584178  1
  Zr  Zr3  1  0.89784174  0.10314561  0.09725951  1
  Zr  Zr4  1  0.30115596  0.10355923  0.10502228  1
  Zr  Zr5  1  0.70070424  0.70050403  0.10163297  1
  Zr  Zr6  1  0.69268898  0.90578780  0.30318260  1
  Zr  Zr7  1  0.30720456  0.70076878  0.29748449  1
  Zr  Zr8  1  0.30884057  0.30036650  0.10131214  1
  Zr  Zr9  1  0.89892497  0.50340876  0.70113911  1
  Zr  Zr10  1  0.89367648  0.50242680  0.29931836  1
  Zr  Zr11  1  0.09730630  0.49535436  0.29801574  1
  Zr  Zr12  1  0.69515296  0.10252219  0.49619803  1
  Zr  Zr13  1  0.50145049  0.90225060  0.68568595  1
  Zr  Zr14  1  0.10409915  0.69816960  0.69612663  1
  Zr  Zr15  1  0.69491234  0.30323947  0.90890328  1
  Zr  Zr16  1  0.10490909  0.89908732  0.29702842  1
  Zr  Zr17  1  0.30293140  0.48665097  0.31267282  1
  Zr  Zr18  1  0.70041368  0.49499107  0.30299354  1
  Zr  Zr19  1  0.70284404  0.50134797  0.89702081  1
  Zr  Zr20  1  0.30206128  0.69568047  0.89610936  1
  Zr  Zr21  1  0.10446303  0.70185853  0.28960466  1
  Zr  Zr22  1  0.49762920  0.49909500  0.89919782  1
  Zr  Zr23  1  0.90726753  0.50199999  0.89723939  1
  Zr  Zr24  1  0.71003764  0.10473236  0.88255214  1
  Zr  Zr25  1  0.90369171  0.10182746  0.49827323  1
  Zr  Zr26  1  0.09683791  0.68604018  0.90405792  1
  Zr  Zr27  1  0.09284856  0.29898660  0.89540704  1
  Zr  Zr28  1  0.50293910  0.29560423  0.10000237  1
  Zr  Zr29  1  0.70140615  0.30709569  0.50112641  1
  Zr  Zr30  1  0.11144114  0.90190497  0.69617343  1
  Zr  Zr31  1  0.50049560  0.50266034  0.69118669  1
  Zr  Zr32  1  0.88652282  0.10708240  0.70795508  1
  Zr  Zr33  1  0.10539250  0.90568278  0.49871188  1
  Zr  Zr34  1  0.09972230  0.09993772  0.49467067  1
  Zr  Zr35  1  0.89583878  0.10189585  0.30168127  1
  Zr  Zr36  1  0.50036745  0.90017795  0.90121836  1
  Zr  Zr37  1  0.90495817  0.70665824  0.89718189  1
  Zr  Zr38  1  0.90354147  0.30272540  0.90417799  1
  Zr  Zr39  1  0.10556247  0.29886768  0.10042129  1
  Zr  Zr40  1  0.49363749  0.69534623  0.70249938  1
  Zr  Zr41  1  0.29682828  0.30427261  0.49759206  1
  Zr  Zr42  1  0.70458189  0.29286346  0.69945910  1
  Zr  Zr43  1  0.89631109  0.49960105  0.10643931  1
  Zr  Zr44  1  0.90175101  0.90270088  0.48885532  1
  Zr  Zr45  1  0.31145714  0.10557016  0.69341693  1
  Zr  Zr46  1  0.29742284  0.69990248  0.70490139  1
  Zr  Zr47  1  0.89530941  0.48882407  0.50148643  1
  Zr  Zr48  1  0.29140709  0.28718340  0.69870671  1
  Zr  Zr49  1  0.69242881  0.89859966  0.50009874  1
  Sc  Sc50  1  0.90158326  0.70415317  0.29966748  1
  Sc  Sc51  1  0.30191326  0.69344409  0.50566546  1
  Sc  Sc52  1  0.30193029  0.68930277  0.10793352  1
  Sc  Sc53  1  0.10714137  0.10649790  0.70194797  1
  Sc  Sc54  1  0.90032008  0.89486643  0.70096234  1
  Sc  Sc55  1  0.91277653  0.70301428  0.09559107  1
  Sc  Sc56  1  0.70150929  0.70694444  0.89614389  1
  Sc  Sc57  1  0.10514824  0.29839121  0.30884785  1
  Sc  Sc58  1  0.70085421  0.89836469  0.69254166  1
  Sc  Sc59  1  0.30049562  0.91149922  0.10594838  1
  Sc  Sc60  1  0.89218700  0.30012097  0.09719269  1
  Sc  Sc61  1  0.49450362  0.09546310  0.49765869  1
  Sc  Sc62  1  0.11002709  0.10123754  0.30130040  1
  Sc  Sc63  1  0.49819898  0.10613243  0.90557617  1
  Sc  Sc64  1  0.30182575  0.10022147  0.30006196  1
  Sc  Sc65  1  0.69445267  0.90830669  0.09229768  1
  Sc  Sc66  1  0.50317294  0.48959208  0.10257322  1
  Sc  Sc67  1  0.49961596  0.91385554  0.09782124  1
  Sc  Sc68  1  0.70280121  0.50210856  0.69573775  1
  Sc  Sc69  1  0.50102223  0.09915579  0.30350971  1
  Sc  Sc70  1  0.69472486  0.10446752  0.10701581  1
  Sc  Sc71  1  0.30232763  0.09844095  0.49480537  1
  Sc  Sc72  1  0.90228431  0.30720853  0.70435443  1
  Sc  Sc73  1  0.10263489  0.90419942  0.90399643  1
  Sc  Sc74  1  0.49589999  0.69912673  0.10924536  1
  Sc  Sc75  1  0.49315721  0.69459430  0.89406580  1
  Sc  Sc76  1  0.29842984  0.10387666  0.89602839  1
  Sc  Sc77  1  0.69009355  0.10273661  0.29684307  1
  Sc  Sc78  1  0.69528464  0.70226390  0.49860210  1
  Sc  Sc79  1  0.89675525  0.70180558  0.49870431  1
  Sc  Sc80  1  0.10547807  0.90262997  0.10008202  1
  Sc  Sc81  1  0.50104610  0.90219825  0.49177402  1
  Sc  Sc82  1  0.70743102  0.90225300  0.90075091  1
  Sc  Sc83  1  0.09788340  0.10377039  0.90280287  1
  Sc  Sc84  1  0.10400529  0.48826499  0.50900735  1
  Sc  Sc85  1  0.09410322  0.49908039  0.69769563  1
  Sc  Sc86  1  0.49451535  0.69755399  0.30248768  1
  Sc  Sc87  1  0.29442110  0.90166071  0.89227805  1
  Sc  Sc88  1  0.69845030  0.49892319  0.11612104  1
  Sc  Sc89  1  0.49605653  0.29709799  0.91240420  1
  Sc  Sc90  1  0.50064797  0.29589626  0.30161344  1
  Sc  Sc91  1  0.10249148  0.50620115  0.09651610  1
  Sc  Sc92  1  0.50360866  0.49924933  0.30661134  1
  Sc  Sc93  1  0.29720141  0.50197905  0.91012383  1
  Sc  Sc94  1  0.90164009  0.10807620  0.90470588  1
  Sc  Sc95  1  0.70069470  0.69820452  0.69306726  1
  Sc  Sc96  1  0.30028274  0.49079973  0.09866194  1
  Sc  Sc97  1  0.90425293  0.30961936  0.30309533  1
  Sc  Sc98  1  0.11037438  0.09315323  0.10087869  1
  Sc  Sc99  1  0.90128794  0.69662268  0.70257650  1
  Nb  Nb100  1  0.49396779  0.89569164  0.29730250  1
  Nb  Nb101  1  0.10049208  0.29935595  0.69678421  1
  Nb  Nb102  1  0.69014710  0.30560823  0.11064208  1
  Nb  Nb103  1  0.69897820  0.10077632  0.69624167  1
  Nb  Nb104  1  0.10711153  0.69960633  0.09815848  1
  Nb  Nb105  1  0.29994971  0.90043911  0.50100071  1
  Nb  Nb106  1  0.49338866  0.49390157  0.50456472  1
  Nb  Nb107  1  0.89585890  0.90579206  0.09372972  1
  Nb  Nb108  1  0.30988292  0.89628190  0.30680999  1
  Nb  Nb109  1  0.49956047  0.09890458  0.69303011  1
  Nb  Nb110  1  0.50711411  0.30558924  0.50062655  1
  Nb  Nb111  1  0.30493100  0.49380643  0.50253079  1
  Nb  Nb112  1  0.49476563  0.10508666  0.10375063  1
  Nb  Nb113  1  0.89941940  0.29811482  0.50246038  1
  Nb  Nb114  1  0.49875334  0.69183442  0.51133704  1
  Nb  Nb115  1  0.89825531  0.90081651  0.29510596  1
  Nb  Nb116  1  0.69412060  0.29848593  0.30081434  1
  Nb  Nb117  1  0.10105766  0.49568846  0.90192633  1
  Nb  Nb118  1  0.90117941  0.90648810  0.90071810  1
  Nb  Nb119  1  0.29969971  0.29809555  0.29711223  1
  Nb  Nb120  1  0.29976069  0.30161332  0.90035309  1
  Nb  Nb121  1  0.09474431  0.29651160  0.50674927  1
  Nb  Nb122  1  0.10520311  0.70060407  0.49708392  1
  Nb  Nb123  1  0.29926944  0.49461132  0.69319898  1
  Nb  Nb124  1  0.30134494  0.89608501  0.69808503  1
  Nb  Nb125  1  -0.00056567  0.20335818  0.59890516  1
  Nb  Nb126  1  0.79811117  0.20708719  0.40038565  1
  Nb  Nb127  1  0.20064855  0.39671127  0.79927396  1
  Nb  Nb128  1  0.19858767  0.59862708  0.40170440  1
  Nb  Nb129  1  0.00810366  0.59940489  0.40278817  1
  Nb  Nb130  1  0.59316728  0.39655043  0.79770609  1
  Nb  Nb131  1  -0.00540712  -0.00159093  0.80158794  1
  Nb  Nb132  1  0.79927509  0.00375731  0.59685579  1
  Nb  Nb133  1  0.20449910  0.20786185  -0.00051281  1
  Nb  Nb134  1  0.60071996  0.80517425  0.20321821  1
  Nb  Nb135  1  0.20638615  0.79728651  0.40058266  1
  Nb  Nb136  1  0.59407348  0.80636547  0.79590323  1
  Nb  Nb137  1  0.39553601  0.80148174  0.59986721  1
  Nb  Nb138  1  0.00899043  0.80118017  0.59387043  1
  Nb  Nb139  1  0.59774009  0.19866347  0.60046670  1
  Nb  Nb140  1  0.00037771  0.19521312  0.20064581  1
  Nb  Nb141  1  0.80058860  0.60078327  -0.00030134  1
  Nb  Nb142  1  0.80033951  0.81027656  0.19788367  1
  Nb  Nb143  1  0.20354454  0.79103315  0.00366678  1
  Nb  Nb144  1  0.39378276  0.39756717  0.79783501  1
  Nb  Nb145  1  0.39293779  0.80011816  -0.00000403  1
  Nb  Nb146  1  -0.00890358  -0.00153738  0.19950418  1
  Nb  Nb147  1  0.59731160  0.00335231  0.79208240  1
  Nb  Nb148  1  0.60471762  0.59935090  0.00131625  1
  Nb  Nb149  1  0.40530950  0.00006895  0.79067256  1
  Pd  Pd150  1  0.00094079  0.39154253  0.19418301  1
  Pd  Pd151  1  0.40126363  0.20422083  0.40008120  1
  Pd  Pd152  1  0.79369313  0.00545183  0.40107023  1
  Pd  Pd153  1  0.00281342  0.00183782  -0.00000354  1
  Pd  Pd154  1  0.80464795  0.60051850  0.40673446  1
  Pd  Pd155  1  0.59174214  0.79277172  0.39589367  1
  Pd  Pd156  1  0.79237295  0.40752123  0.00858033  1
  Pd  Pd157  1  0.78981293  0.20092076  0.00269940  1
  Pd  Pd158  1  0.80883796  0.80465310  0.59748614  1
  Pd  Pd159  1  -0.00238031  0.60321392  0.20271008  1
  Pd  Pd160  1  0.40669849  0.60131726  0.00837622  1
  Pd  Pd161  1  -0.00146366  0.60565672  0.59106635  1
  Pd  Pd162  1  0.39640217  0.39172454  0.60332602  1
  Pd  Pd163  1  0.20841388  0.58768035  0.20444261  1
  Pd  Pd164  1  0.60549198  0.60340296  0.80166011  1
  Pd  Pd165  1  0.79672415  0.59993168  0.59271766  1
  Pd  Pd166  1  0.20316731  0.59198651  0.59525112  1
  Pd  Pd167  1  0.79277371  0.00962257  -0.00303129  1
  Pd  Pd168  1  0.80355883  0.79702681  0.00470832  1
  Pd  Pd169  1  0.40044373  0.79486015  0.41265580  1
  Pd  Pd170  1  0.20780593  0.00980049  0.60028405  1
  Pd  Pd171  1  0.00494998  0.00162320  0.38634217  1
  Pd  Pd172  1  0.00986566  0.80668225  0.00292154  1
  Pd  Pd173  1  0.00641520  0.79506758  0.40188293  1
  Pd  Pd174  1  0.58683070  0.79120122  0.00114994  1
  Pd  Pd175  1  0.79660249  -0.00264453  0.19745725  1
  Pd  Pd176  1  -0.00724563  0.00294329  0.61226489  1
  Pd  Pd177  1  0.19102488  0.79790851  0.81074886  1
  Pd  Pd178  1  0.40229094  0.00375160  0.20739387  1
  Pd  Pd179  1  0.60638711  0.19205937  0.00301077  1
  Pd  Pd180  1  0.20054730  0.40054403  0.20116661  1
  Pd  Pd181  1  0.21307065  0.80430799  0.19563533  1
  Pd  Pd182  1  0.39102594  -0.00055768  -0.00948363  1
  Pd  Pd183  1  0.79521456  0.79738440  0.39227653  1
  Pd  Pd184  1  0.40705419  0.39918865  0.20658038  1
  Pd  Pd185  1  0.00318056  0.40367619  0.00889008  1
  Pd  Pd186  1  0.60676745  0.01369329  -0.01010490  1
  Pd  Pd187  1  0.79375621  0.80291684  0.79565867  1
  Pd  Pd188  1  0.00446162  0.40302796  0.40495423  1
  Pd  Pd189  1  -0.00414354  0.80889615  0.18951250  1
  Pd  Pd190  1  0.00936097  0.80637037  0.79461406  1
  Pd  Pd191  1  0.20398140  0.20192485  0.40178900  1
  Pd  Pd192  1  0.79484356  0.39751176  0.79812730  1
  Pd  Pd193  1  0.59207722  0.60039241  0.40604749  1
  Pd  Pd194  1  0.39781922  0.59661925  0.40694649  1
  Pd  Pd195  1  0.20060407  0.58573857  0.79959036  1
  Pd  Pd196  1  0.59165968  0.20036162  0.79817483  1
  Pd  Pd197  1  0.20159267  0.00885170  0.79875711  1
  Pd  Pd198  1  0.40184694  0.58330063  0.20156183  1
  Pd  Pd199  1  0.80203898  0.20958619  0.20761408  1
  Rh  Rh200  1  0.59091698  -0.00205419  0.20120913  1
  Rh  Rh201  1  0.20197805  0.60121687  0.00370535  1
  Rh  Rh202  1  0.80615660  0.21525887  0.80818497  1
  Rh  Rh203  1  0.38865536  0.58385375  0.79529362  1
  Rh  Rh204  1  0.19582903  0.20390522  0.80884359  1
  Rh  Rh205  1  0.59329664  0.19839571  0.19905634  1
  Rh  Rh206  1  0.40328025  0.19714557  0.80830397  1
  Rh  Rh207  1  -0.00428281  0.39269205  0.60372244  1
  Rh  Rh208  1  0.39303050  0.19673769  0.00134361  1
  Rh  Rh209  1  0.40644151  0.20342530  0.58289965  1
  Rh  Rh210  1  0.80104626  0.40245035  0.60579838  1
  Rh  Rh211  1  0.20558791  0.00462069  -0.00242746  1
  Rh  Rh212  1  0.19322235  0.19547238  0.58996200  1
  Rh  Rh213  1  0.40650565  0.39166353  0.40145172  1
  Rh  Rh214  1  0.59036580  0.78992573  0.60282920  1
  Rh  Rh215  1  0.20390196  0.80073478  0.59180870  1
  Rh  Rh216  1  0.40656172  0.81188341  0.79726632  1
  Rh  Rh217  1  0.00767496  0.40498929  0.79684298  1
  Rh  Rh218  1  0.80430164  0.60795492  0.80572951  1
  Rh  Rh219  1  0.80083030  0.19621279  0.59017633  1
  Rh  Rh220  1  -0.00308879  0.59451491  0.00338553  1
  Rh  Rh221  1  0.59883615  0.39321308  0.60891807  1
  Rh  Rh222  1  0.00281588  0.59667465  0.79746167  1
  Rh  Rh223  1  0.19983077  0.20317308  0.19817578  1
  Rh  Rh224  1  0.40670179  0.80942505  0.18933004  1
  Rh  Rh225  1  0.79636549  0.39145066  0.20432389  1
  Rh  Rh226  1  0.21016759  -0.00715527  0.39514619  1
  Rh  Rh227  1  0.20014930  0.39644097  0.60405810  1
  Rh  Rh228  1  0.80070413  -0.01003242  0.79182902  1
  Rh  Rh229  1  0.40012897  -0.00171366  0.39733281  1
  Rh  Rh230  1  -0.00133293  0.19330280  0.78996520  1
  Rh  Rh231  1  0.20221333  -0.00283089  0.20884466  1
  Rh  Rh232  1  0.40335102  0.19948253  0.20633500  1
  Rh  Rh233  1  0.79703289  0.39393258  0.39574565  1
  Rh  Rh234  1  0.00953093  0.19828426  0.01280270  1
  Rh  Rh235  1  0.19618036  0.39580286  -0.00666074  1
  Rh  Rh236  1  -0.00455089  0.20438638  0.39927121  1
  Rh  Rh237  1  0.59278017  0.60379119  0.19739203  1
  Rh  Rh238  1  0.59369339  0.40015506  0.39678281  1
  Rh  Rh239  1  0.40177641  0.40109183  -0.00363946  1
  Rh  Rh240  1  0.39243823  -0.00594674  0.59833475  1
  Rh  Rh241  1  0.59645387  0.39734210  0.20860878  1
  Rh  Rh242  1  0.60243729  0.20544217  0.40718839  1
  Rh  Rh243  1  0.60357193  0.40837854  -0.00222408  1
  Rh  Rh244  1  0.60731897  0.00826390  0.59750341  1
  Rh  Rh245  1  0.39345822  0.60163395  0.60098611  1
  Rh  Rh246  1  0.60344997  0.59981756  0.59544611  1
  Rh  Rh247  1  0.59207374  -0.00041341  0.39717131  1
  Rh  Rh248  1  0.19635666  0.39826155  0.40555333  1
  Rh  Rh249  1  0.81109962  0.61416882  0.19201656  1
