# generated using pymatgen
data_ZrScNbPdRh
_symmetry_space_group_name_H-M   'P 1'
_cell_length_a   16.56282438
_cell_length_b   16.56643185
_cell_length_c   16.56421027
_cell_angle_alpha   89.99270595
_cell_angle_beta   90.04490046
_cell_angle_gamma   89.96872662
_symmetry_Int_Tables_number   1
_chemical_formula_structural   ZrScNbPdRh
_chemical_formula_sum   'Zr50 Sc50 Nb50 Pd50 Rh50'
_cell_volume   4545.00022006
_cell_formula_units_Z   50
loop_
 _symmetry_equiv_pos_site_id
 _symmetry_equiv_pos_as_xyz
  1  'x, y, z'
loop_
 _atom_site_type_symbol
 _atom_site_label
 _atom_site_symmetry_multiplicity
 _atom_site_fract_x
 _atom_site_fract_y
 _atom_site_fract_z
 _atom_site_occupancy
  Zr  Zr0  1  0.08743418  0.49976676  0.10119262  1
  Zr  Zr1  1  0.10315987  0.10278716  0.90053209  1
  Zr  Zr2  1  0.89795942  0.90274904  0.29435575  1
  Zr  Zr3  1  0.28976500  0.90223328  0.10237176  1
  Zr  Zr4  1  0.30285677  0.10737575  0.50444306  1
  Zr  Zr5  1  0.29802855  0.90466654  0.69724763  1
  Zr  Zr6  1  0.69807038  0.29736841  0.09724985  1
  Zr  Zr7  1  0.50078113  0.09948520  0.49972587  1
  Zr  Zr8  1  0.29055837  0.69080370  0.30161654  1
  Zr  Zr9  1  0.10029808  0.09754123  0.30342218  1
  Zr  Zr10  1  0.29947443  0.10271880  0.29887689  1
  Zr  Zr11  1  0.90645676  0.49929596  0.50361113  1
  Zr  Zr12  1  0.90174412  0.90102866  0.90841804  1
  Zr  Zr13  1  0.29928636  0.30367026  0.49553284  1
  Zr  Zr14  1  0.70046157  0.49100956  0.71228920  1
  Zr  Zr15  1  0.10241106  0.50404127  0.30130470  1
  Zr  Zr16  1  0.70056864  0.70350509  0.29736320  1
  Zr  Zr17  1  0.09714048  0.69434019  0.29212620  1
  Zr  Zr18  1  0.90239545  0.50575450  0.29670074  1
  Zr  Zr19  1  0.50291036  0.09865529  0.30363642  1
  Zr  Zr20  1  0.11022640  0.09811810  0.70247417  1
  Zr  Zr21  1  0.49552470  0.10630763  0.10254642  1
  Zr  Zr22  1  0.08857659  0.88974174  0.10084104  1
  Zr  Zr23  1  0.49844106  0.70204817  0.50506561  1
  Zr  Zr24  1  0.50590313  0.89734670  0.10836464  1
  Zr  Zr25  1  0.29762798  0.29936328  0.29855235  1
  Zr  Zr26  1  0.90502376  0.09187682  0.90116274  1
  Zr  Zr27  1  0.49715504  0.69574339  0.90451214  1
  Zr  Zr28  1  0.70662433  0.09888788  0.29729638  1
  Zr  Zr29  1  0.69728801  0.50849845  0.10464910  1
  Zr  Zr30  1  0.49778681  0.10221202  0.88992420  1
  Zr  Zr31  1  0.69990900  0.29630220  0.68812995  1
  Zr  Zr32  1  0.09919777  0.09685692  0.49606498  1
  Zr  Zr33  1  0.30086454  0.29511833  0.69379648  1
  Zr  Zr34  1  0.11301905  0.30551295  0.09284977  1
  Zr  Zr35  1  0.09867765  0.70043252  0.69990996  1
  Zr  Zr36  1  0.89857963  0.30355582  0.69062960  1
  Zr  Zr37  1  0.29772405  0.10535618  0.88618623  1
  Zr  Zr38  1  0.90750516  0.90232675  0.50410433  1
  Zr  Zr39  1  0.50947422  0.30313285  0.50072778  1
  Zr  Zr40  1  0.49966115  0.69299198  0.69753631  1
  Zr  Zr41  1  0.51024151  0.90247154  0.30839572  1
  Zr  Zr42  1  0.90688726  0.49738990  0.70483084  1
  Zr  Zr43  1  0.29994267  0.90056988  0.30511011  1
  Zr  Zr44  1  0.29955499  0.89737501  0.50174274  1
  Zr  Zr45  1  0.88457412  0.09764020  0.10065248  1
  Zr  Zr46  1  0.30280670  0.49730563  0.50440628  1
  Zr  Zr47  1  0.49615070  0.49923113  0.68970281  1
  Zr  Zr48  1  0.09767219  0.69909744  0.50226120  1
  Zr  Zr49  1  0.69845714  0.30005439  0.30866137  1
  Sc  Sc50  1  0.28884291  0.69844884  0.89978962  1
  Sc  Sc51  1  0.89848523  0.70401913  0.69426380  1
  Sc  Sc52  1  0.90516073  0.69904265  0.09853836  1
  Sc  Sc53  1  0.70251838  0.70249462  0.09952282  1
  Sc  Sc54  1  0.89653076  0.30665009  0.89719345  1
  Sc  Sc55  1  0.90122000  0.09386075  0.30028866  1
  Sc  Sc56  1  0.29930135  0.50302864  0.89917363  1
  Sc  Sc57  1  0.10780780  0.30076597  0.30033600  1
  Sc  Sc58  1  0.90719203  0.10459757  0.49716203  1
  Sc  Sc59  1  0.69435812  0.31025675  0.88801939  1
  Sc  Sc60  1  0.09921466  0.90178646  0.68579916  1
  Sc  Sc61  1  0.70877907  0.88977882  0.91027382  1
  Sc  Sc62  1  0.50154339  0.30060205  0.89957822  1
  Sc  Sc63  1  0.69897801  0.70079517  0.49898927  1
  Sc  Sc64  1  0.49604713  0.49924796  0.49853044  1
  Sc  Sc65  1  0.91220420  0.09715120  0.68922578  1
  Sc  Sc66  1  0.50190247  0.50233685  0.90083475  1
  Sc  Sc67  1  0.70487968  0.10678548  0.90872880  1
  Sc  Sc68  1  0.09996725  0.91130653  0.29292652  1
  Sc  Sc69  1  0.29596202  0.70145152  0.49748853  1
  Sc  Sc70  1  0.69508540  0.50709207  0.30100702  1
  Sc  Sc71  1  0.90371620  0.50886619  0.89924582  1
  Sc  Sc72  1  0.28998882  0.89835606  0.90148972  1
  Sc  Sc73  1  0.90179222  0.30395200  0.09884263  1
  Sc  Sc74  1  0.09496854  0.70469802  0.90062731  1
  Sc  Sc75  1  0.10738493  0.08559669  0.10268007  1
  Sc  Sc76  1  0.50816001  0.29536659  0.70028797  1
  Sc  Sc77  1  0.69700850  0.11219803  0.49404965  1
  Sc  Sc78  1  0.50286925  0.90062394  0.90492301  1
  Sc  Sc79  1  0.10976452  0.30353446  0.89909629  1
  Sc  Sc80  1  0.89047352  0.69974192  0.90648446  1
  Sc  Sc81  1  0.29925981  0.48871385  0.09700893  1
  Sc  Sc82  1  0.10184468  0.30916805  0.69945272  1
  Sc  Sc83  1  0.29532816  0.29709256  0.90637049  1
  Sc  Sc84  1  0.50854588  0.69851782  0.30702027  1
  Sc  Sc85  1  0.29355975  0.69780151  0.70400977  1
  Sc  Sc86  1  0.70238912  0.69199070  0.70212554  1
  Sc  Sc87  1  0.89468031  0.29413187  0.30006449  1
  Sc  Sc88  1  0.49619922  0.30885867  0.30155087  1
  Sc  Sc89  1  0.90563523  0.69517166  0.49998932  1
  Sc  Sc90  1  0.49246581  0.89928733  0.69228853  1
  Sc  Sc91  1  0.28542174  0.69971353  0.10361351  1
  Sc  Sc92  1  0.29524313  0.49479188  0.31098029  1
  Sc  Sc93  1  0.51009242  0.69368056  0.10193170  1
  Sc  Sc94  1  0.70465094  0.88642060  0.69727122  1
  Sc  Sc95  1  0.69739180  0.89461547  0.48836221  1
  Sc  Sc96  1  0.89633739  0.69780505  0.29814072  1
  Sc  Sc97  1  0.09475448  0.90740145  0.91055252  1
  Sc  Sc98  1  0.50033317  0.49247413  0.09946698  1
  Sc  Sc99  1  0.69638763  0.48720472  0.49454135  1
  Nb  Nb100  1  0.31424213  0.10104033  0.69955272  1
  Nb  Nb101  1  0.90022842  0.30295689  0.50426866  1
  Nb  Nb102  1  0.09614526  0.50109194  0.50205781  1
  Nb  Nb103  1  0.10049526  0.50352580  0.70669194  1
  Nb  Nb104  1  0.70483883  0.90257961  0.10673150  1
  Nb  Nb105  1  0.10328386  0.89768450  0.49651872  1
  Nb  Nb106  1  0.09631160  0.30128067  0.49678997  1
  Nb  Nb107  1  0.70960716  0.50772091  0.89828734  1
  Nb  Nb108  1  0.49239570  0.29904037  0.10272682  1
  Nb  Nb109  1  0.69867365  0.10077019  0.69528925  1
  Nb  Nb110  1  0.09662379  0.69741345  0.10083168  1
  Nb  Nb111  1  0.50083542  0.89987025  0.50110846  1
  Nb  Nb112  1  0.70366659  0.29778614  0.49978211  1
  Nb  Nb113  1  0.29982536  0.49679062  0.69678719  1
  Nb  Nb114  1  0.90103885  0.90318125  0.70015525  1
  Nb  Nb115  1  0.10054030  0.50470091  0.89762668  1
  Nb  Nb116  1  0.69917799  0.89745704  0.29568432  1
  Nb  Nb117  1  0.70078294  0.69221014  0.90045416  1
  Nb  Nb118  1  0.49949758  0.50274327  0.29901154  1
  Nb  Nb119  1  0.49628214  0.09875438  0.69839960  1
  Nb  Nb120  1  0.89653806  0.90017134  0.09555080  1
  Nb  Nb121  1  0.30528169  0.11002074  0.10063265  1
  Nb  Nb122  1  0.70048085  0.10298135  0.10149366  1
  Nb  Nb123  1  0.89791990  0.50144328  0.09869465  1
  Nb  Nb124  1  0.31088881  0.28990869  0.10204183  1
  Nb  Nb125  1  0.79932793  0.40513822  0.19538588  1
  Nb  Nb126  1  0.00347308  0.80430250  0.39799418  1
  Nb  Nb127  1  0.60207337  0.00059818  0.60308865  1
  Nb  Nb128  1  0.39999344  0.00252752  0.00318566  1
  Nb  Nb129  1  0.80462109  0.19431954  0.79087342  1
  Nb  Nb130  1  -0.00057221  0.39837649  0.40652908  1
  Nb  Nb131  1  0.59866199  0.20236249  0.19572438  1
  Nb  Nb132  1  0.39749851  0.80154689  0.00555878  1
  Nb  Nb133  1  0.39947531  0.79509454  0.20218917  1
  Nb  Nb134  1  -0.00632013  0.80977103  0.79767809  1
  Nb  Nb135  1  0.79473704  0.00133648  0.60231734  1
  Nb  Nb136  1  0.00236462  0.19826513  0.00153151  1
  Nb  Nb137  1  0.40372208  0.79761184  0.80567210  1
  Nb  Nb138  1  0.18704231  0.59516797  0.00240210  1
  Nb  Nb139  1  0.39667347  0.40176039  0.79265155  1
  Nb  Nb140  1  0.59737304  0.79597306  0.80388970  1
  Nb  Nb141  1  -0.00029628  0.19877157  0.80222868  1
  Nb  Nb142  1  0.39902728  0.59962644  0.20536668  1
  Nb  Nb143  1  0.80167343  0.59018175  0.60152201  1
  Nb  Nb144  1  0.19488070  0.59006421  0.60499722  1
  Nb  Nb145  1  0.79638279  0.41145044  0.00222928  1
  Nb  Nb146  1  0.60680190  -0.00233100  0.79690263  1
  Nb  Nb147  1  0.79766395  0.00160148  0.79252369  1
  Nb  Nb148  1  0.60180886  0.00356455  0.00506039  1
  Nb  Nb149  1  0.00242190  0.19770298  0.19232867  1
  Pd  Pd150  1  0.79578811  0.59886657  0.40768261  1
  Pd  Pd151  1  -0.00616591  0.61373490  0.80411983  1
  Pd  Pd152  1  -0.00544310  0.38961026  0.20925965  1
  Pd  Pd153  1  0.40490267  0.20649232  0.39708122  1
  Pd  Pd154  1  0.79569596  0.40580627  0.59720619  1
  Pd  Pd155  1  0.59667697  0.19984267  0.00059035  1
  Pd  Pd156  1  0.38712885  0.60706151  0.01330033  1
  Pd  Pd157  1  0.19426444  -0.00900079  0.80000025  1
  Pd  Pd158  1  0.60384157  0.40453070  -0.00477407  1
  Pd  Pd159  1  0.39850339  0.39689019  -0.00957924  1
  Pd  Pd160  1  0.40113803  0.59954487  0.39775925  1
  Pd  Pd161  1  0.60112297  0.80368372  0.60433693  1
  Pd  Pd162  1  0.80791259  0.19853070  0.40497002  1
  Pd  Pd163  1  0.60358742  0.39523955  0.20373579  1
  Pd  Pd164  1  0.19359471  0.19646283  0.19466158  1
  Pd  Pd165  1  0.19121967  0.80899183  0.80075288  1
  Pd  Pd166  1  0.40027951  0.19886934  -0.01055071  1
  Pd  Pd167  1  0.60051075  0.80287387  -0.00168465  1
  Pd  Pd168  1  0.00141234  0.39395747  0.80704713  1
  Pd  Pd169  1  0.19392483  0.40257988  0.59745120  1
  Pd  Pd170  1  0.80432423  0.79729349  0.19349791  1
  Pd  Pd171  1  0.61227843  0.59189521  0.59382198  1
  Pd  Pd172  1  0.80693797  0.40300809  0.39371642  1
  Pd  Pd173  1  0.60195466  0.59909295  0.40677914  1
  Pd  Pd174  1  0.18957175  0.80073520  0.39268191  1
  Pd  Pd175  1  0.20550171  0.40330948  0.19859573  1
  Pd  Pd176  1  0.59910776  0.59865224  0.80117912  1
  Pd  Pd177  1  0.80469445  0.21196789  -0.00898548  1
  Pd  Pd178  1  0.60601511  0.00656112  0.19792462  1
  Pd  Pd179  1  0.00891908  0.20261013  0.60533145  1
  Pd  Pd180  1  0.39546363  0.40686585  0.20390846  1
  Pd  Pd181  1  0.20939354  0.00833008  -0.00071274  1
  Pd  Pd182  1  0.39592798  -0.00533531  0.19794073  1
  Pd  Pd183  1  0.60799042  0.19496965  0.80002579  1
  Pd  Pd184  1  0.39310161  0.59927511  0.79873199  1
  Pd  Pd185  1  0.19815467  0.80252134  0.20548381  1
  Pd  Pd186  1  0.80039670  0.79995220  0.80310413  1
  Pd  Pd187  1  0.80135535  0.79668237  0.59288951  1
  Pd  Pd188  1  0.20416572  0.00301192  0.59516967  1
  Pd  Pd189  1  0.79594580  0.00091540  0.40870064  1
  Pd  Pd190  1  0.39220396  0.79380998  0.60677418  1
  Pd  Pd191  1  0.40426340  0.79563026  0.39477307  1
  Pd  Pd192  1  0.19394466  0.20202266  0.59931889  1
  Pd  Pd193  1  0.60235420  0.59569738  -0.00019153  1
  Pd  Pd194  1  0.39657685  -0.00083140  0.40609312  1
  Pd  Pd195  1  -0.00427197  0.39703780  -0.00795642  1
  Pd  Pd196  1  0.20827652  0.40130540  0.80322875  1
  Pd  Pd197  1  0.80935154  0.79833279  0.40290131  1
  Pd  Pd198  1  -0.00069957  0.20762642  0.39162929  1
  Pd  Pd199  1  0.40446359  -0.01237226  0.80582719  1
  Rh  Rh200  1  -0.00899401  0.00597874  0.19299501  1
  Rh  Rh201  1  0.59657129  0.19537640  0.59586794  1
  Rh  Rh202  1  0.60068630  0.79744852  0.20461618  1
  Rh  Rh203  1  0.59204413  0.60168472  0.20348548  1
  Rh  Rh204  1  0.00318603  0.60147078  0.39476275  1
  Rh  Rh205  1  0.19160469  0.40061379  0.40549396  1
  Rh  Rh206  1  0.00064429  0.59659074  0.60922478  1
  Rh  Rh207  1  0.19928988  0.19485742  0.00624846  1
  Rh  Rh208  1  0.59978586  0.79757859  0.40092744  1
  Rh  Rh209  1  0.39849034  0.21245363  0.79694463  1
  Rh  Rh210  1  0.20034073  0.19955671  0.40301512  1
  Rh  Rh211  1  0.80594055  0.60269248  0.79270471  1
  Rh  Rh212  1  0.20219921  0.79299784  0.60027204  1
  Rh  Rh213  1  0.40256827  0.40084712  0.40112506  1
  Rh  Rh214  1  0.40408283  0.39106329  0.60303341  1
  Rh  Rh215  1  0.80388775  0.19467243  0.59742308  1
  Rh  Rh216  1  0.20449024  0.58741385  0.18875999  1
  Rh  Rh217  1  0.19911392  0.20363863  0.79103163  1
  Rh  Rh218  1  0.00082105  0.80266876  0.59897775  1
  Rh  Rh219  1  0.20154794  0.40974699  -0.00499520  1
  Rh  Rh220  1  0.19493804  0.79086365  0.00114407  1
  Rh  Rh221  1  0.59625926  0.40194091  0.39775875  1
  Rh  Rh222  1  0.60270775  0.40041409  0.59850063  1
  Rh  Rh223  1  0.00014743  -0.00142822  0.79351002  1
  Rh  Rh224  1  0.00239396  -0.00815429  0.40106710  1
  Rh  Rh225  1  0.79821970  -0.00448610  0.20065152  1
  Rh  Rh226  1  0.00791481  0.39957558  0.59692292  1
  Rh  Rh227  1  0.00256362  0.00018661  0.59617476  1
  Rh  Rh228  1  0.40682624  0.20506322  0.20982897  1
  Rh  Rh229  1  0.20491042  0.00284148  0.40396230  1
  Rh  Rh230  1  -0.00441796  0.79968993  0.20487285  1
  Rh  Rh231  1  0.58754372  0.40843493  0.80088397  1
  Rh  Rh232  1  0.79955054  0.59951154  0.00378954  1
  Rh  Rh233  1  0.20792141  0.00433006  0.20253158  1
  Rh  Rh234  1  0.00307186  0.60274307  -0.00245876  1
  Rh  Rh235  1  0.79876679  0.79522144  0.00787327  1
  Rh  Rh236  1  0.19762969  0.59593941  0.41346032  1
  Rh  Rh237  1  0.78924915  -0.00411358  -0.00165291  1
  Rh  Rh238  1  0.80245260  0.59953504  0.19677401  1
  Rh  Rh239  1  -0.00238845  0.79659572  -0.00382743  1
  Rh  Rh240  1  0.19892772  0.59406515  0.80132678  1
  Rh  Rh241  1  -0.00201722  0.00584049  0.01273202  1
  Rh  Rh242  1  0.38710415  0.60713989  0.59839604  1
  Rh  Rh243  1  0.59756056  0.20258977  0.39364774  1
  Rh  Rh244  1  0.60730014  -0.00116694  0.40672474  1
  Rh  Rh245  1  0.40353491  0.00030051  0.59432049  1
  Rh  Rh246  1  -0.00546530  0.60456920  0.19786603  1
  Rh  Rh247  1  0.80354293  0.39719037  0.80557463  1
  Rh  Rh248  1  0.79764709  0.20730153  0.19994670  1
  Rh  Rh249  1  0.40816606  0.20412648  0.59999094  1
