# generated using pymatgen
data_ZrScNbPdRh
_symmetry_space_group_name_H-M   'P 1'
_cell_length_a   16.55918913
_cell_length_b   16.55761104
_cell_length_c   16.55921201
_cell_angle_alpha   89.99677709
_cell_angle_beta   89.97852178
_cell_angle_gamma   90.00653547
_symmetry_Int_Tables_number   1
_chemical_formula_structural   ZrScNbPdRh
_chemical_formula_sum   'Zr50 Sc50 Nb50 Pd50 Rh50'
_cell_volume   4540.21454217
_cell_formula_units_Z   50
loop_
 _symmetry_equiv_pos_site_id
 _symmetry_equiv_pos_as_xyz
  1  'x, y, z'
loop_
 _atom_site_type_symbol
 _atom_site_label
 _atom_site_symmetry_multiplicity
 _atom_site_fract_x
 _atom_site_fract_y
 _atom_site_fract_z
 _atom_site_occupancy
  Zr  Zr0  1  0.91036983  0.69314933  0.89827197  1
  Zr  Zr1  1  0.70008912  0.70004212  0.49436187  1
  Zr  Zr2  1  0.29183299  0.30478348  0.30061265  1
  Zr  Zr3  1  0.29316232  0.30306325  0.11098878  1
  Zr  Zr4  1  0.90057440  0.10956827  0.89358495  1
  Zr  Zr5  1  0.50076545  0.89982696  0.70298672  1
  Zr  Zr6  1  0.09824229  0.30381601  0.69505707  1
  Zr  Zr7  1  0.49449277  0.30469761  0.69237727  1
  Zr  Zr8  1  0.50925386  0.29186516  0.09403902  1
  Zr  Zr9  1  0.90362710  0.30398198  0.09322788  1
  Zr  Zr10  1  0.70937239  0.09780101  0.70436318  1
  Zr  Zr11  1  0.50301597  0.70597488  0.89818240  1
  Zr  Zr12  1  0.29416747  0.69954838  0.90678680  1
  Zr  Zr13  1  0.50205116  0.10227685  0.90822158  1
  Zr  Zr14  1  0.10133015  0.90134400  0.49486208  1
  Zr  Zr15  1  0.09842895  0.49442746  0.51304618  1
  Zr  Zr16  1  0.30279766  0.49290206  0.69524380  1
  Zr  Zr17  1  0.09318216  0.29192692  0.90528645  1
  Zr  Zr18  1  0.29406815  0.50592165  0.90079294  1
  Zr  Zr19  1  0.30350760  0.49755217  0.30183588  1
  Zr  Zr20  1  0.30061894  0.49665761  0.50256492  1
  Zr  Zr21  1  0.09578249  0.89347800  0.29616618  1
  Zr  Zr22  1  0.50083282  0.49608370  0.49911239  1
  Zr  Zr23  1  0.90217605  0.89655181  0.90647839  1
  Zr  Zr24  1  0.70646224  0.30588790  0.69794883  1
  Zr  Zr25  1  0.70640765  0.49780982  0.70383069  1
  Zr  Zr26  1  0.09878195  0.89670136  0.68368263  1
  Zr  Zr27  1  0.10290170  0.69899308  0.89682093  1
  Zr  Zr28  1  0.09481117  0.10031563  0.50000253  1
  Zr  Zr29  1  0.70554281  0.51141892  0.09338233  1
  Zr  Zr30  1  0.50470764  0.90421987  0.29500313  1
  Zr  Zr31  1  0.30460527  0.50125860  0.10750823  1
  Zr  Zr32  1  0.89626122  0.30014011  0.49378641  1
  Zr  Zr33  1  0.70740073  0.30057467  0.90528251  1
  Zr  Zr34  1  0.49870040  0.10801775  0.49886805  1
  Zr  Zr35  1  0.08681460  0.68797182  0.70114423  1
  Zr  Zr36  1  0.69788385  0.10863856  0.10656676  1
  Zr  Zr37  1  0.50410746  0.09837184  0.10326031  1
  Zr  Zr38  1  0.09526050  0.89890612  0.90863544  1
  Zr  Zr39  1  0.29792502  0.70369587  0.10099652  1
  Zr  Zr40  1  0.70936404  0.89060046  0.09716924  1
  Zr  Zr41  1  0.29671621  0.10467293  0.30258366  1
  Zr  Zr42  1  0.70277332  0.89317964  0.49999809  1
  Zr  Zr43  1  0.88846275  0.69406413  0.10766193  1
  Zr  Zr44  1  0.10066430  0.10348243  0.90596809  1
  Zr  Zr45  1  0.29300354  0.89479163  0.10163229  1
  Zr  Zr46  1  0.29913457  0.90567221  0.69341411  1
  Zr  Zr47  1  0.91205553  0.90369528  0.49678524  1
  Zr  Zr48  1  0.49707481  0.30001424  0.89889937  1
  Zr  Zr49  1  0.49865260  0.49792646  0.29979988  1
  Sc  Sc50  1  0.30579985  0.89516286  0.90210604  1
  Sc  Sc51  1  0.70538190  0.49214717  0.49496211  1
  Sc  Sc52  1  0.90773323  0.89505715  0.10480413  1
  Sc  Sc53  1  0.50976973  0.89736230  0.49932741  1
  Sc  Sc54  1  0.69869647  0.50565782  0.30920874  1
  Sc  Sc55  1  0.90751462  0.89992257  0.29427961  1
  Sc  Sc56  1  0.09628928  0.11392569  0.69445026  1
  Sc  Sc57  1  0.90014351  0.49197480  0.49563091  1
  Sc  Sc58  1  0.29030773  0.89658623  0.28993495  1
  Sc  Sc59  1  0.70665464  0.29554078  0.30302374  1
  Sc  Sc60  1  0.69855500  0.30527941  0.49575593  1
  Sc  Sc61  1  0.29807211  0.29402737  0.89616578  1
  Sc  Sc62  1  0.29429791  0.69520447  0.69908964  1
  Sc  Sc63  1  0.90320611  0.70095930  0.29491443  1
  Sc  Sc64  1  0.50033697  0.90283676  0.09882255  1
  Sc  Sc65  1  0.50407377  0.69825972  0.50002535  1
  Sc  Sc66  1  0.50956016  0.09827112  0.29588200  1
  Sc  Sc67  1  0.90258066  0.30216670  0.71165224  1
  Sc  Sc68  1  0.29296008  0.09615961  0.09696680  1
  Sc  Sc69  1  0.50685088  0.70681539  0.70253656  1
  Sc  Sc70  1  0.50563764  0.89962268  0.89966626  1
  Sc  Sc71  1  0.89861771  0.10547794  0.29805431  1
  Sc  Sc72  1  0.50282572  0.69093292  0.30273036  1
  Sc  Sc73  1  0.10032147  0.70847028  0.50546125  1
  Sc  Sc74  1  0.49847293  0.30250736  0.30612395  1
  Sc  Sc75  1  0.90717163  0.10099493  0.49610198  1
  Sc  Sc76  1  0.50200523  0.69483741  0.10016532  1
  Sc  Sc77  1  0.90636386  0.49593197  0.70733557  1
  Sc  Sc78  1  0.89721341  0.90484968  0.68749412  1
  Sc  Sc79  1  0.90561869  0.10055358  0.10821684  1
  Sc  Sc80  1  0.09614287  0.70524915  0.10305387  1
  Sc  Sc81  1  0.09517177  0.10053891  0.29463149  1
  Sc  Sc82  1  0.70091007  0.10240588  0.29221215  1
  Sc  Sc83  1  0.90480558  0.70409182  0.50002785  1
  Sc  Sc84  1  0.29246519  0.10060934  0.50320948  1
  Sc  Sc85  1  0.09285665  0.51091305  0.90237215  1
  Sc  Sc86  1  0.69891798  0.89517172  0.69819134  1
  Sc  Sc87  1  0.29691131  0.10629590  0.89890641  1
  Sc  Sc88  1  0.69631757  0.89396101  0.89946554  1
  Sc  Sc89  1  0.28935890  0.69488667  0.49484462  1
  Sc  Sc90  1  0.90247332  0.29980920  0.30097790  1
  Sc  Sc91  1  0.09448227  0.49012315  0.29951994  1
  Sc  Sc92  1  0.08444632  0.49414898  0.10844108  1
  Sc  Sc93  1  0.90325771  0.49910555  0.29526047  1
  Sc  Sc94  1  0.30080324  0.29477593  0.70094820  1
  Sc  Sc95  1  0.69876383  0.69935602  0.90697663  1
  Sc  Sc96  1  0.69919627  0.10925747  0.49250966  1
  Sc  Sc97  1  0.48937188  0.10145771  0.69714092  1
  Sc  Sc98  1  0.70422360  0.09805450  0.89682004  1
  Sc  Sc99  1  0.70285635  0.50439552  0.90214895  1
  Nb  Nb100  1  0.29456360  0.30081291  0.49591038  1
  Nb  Nb101  1  0.10031516  0.29449703  0.10509758  1
  Nb  Nb102  1  0.29181840  0.09408895  0.70185352  1
  Nb  Nb103  1  0.28951275  0.70432601  0.30044623  1
  Nb  Nb104  1  0.90142423  0.10315525  0.69809237  1
  Nb  Nb105  1  0.89889412  0.49157799  0.91663276  1
  Nb  Nb106  1  0.70084092  0.30039683  0.10187859  1
  Nb  Nb107  1  0.10498303  0.49818662  0.70150676  1
  Nb  Nb108  1  0.49765086  0.49976204  0.89926577  1
  Nb  Nb109  1  0.49976758  0.29881724  0.50281856  1
  Nb  Nb110  1  0.09703117  0.30202310  0.49646743  1
  Nb  Nb111  1  0.10276026  0.70073128  0.30467210  1
  Nb  Nb112  1  0.70552880  0.70203678  0.10466360  1
  Nb  Nb113  1  0.49990110  0.49625762  0.10250455  1
  Nb  Nb114  1  0.89743754  0.50170818  0.10089311  1
  Nb  Nb115  1  0.70222298  0.69761697  0.70018424  1
  Nb  Nb116  1  0.90143721  0.69407773  0.69942370  1
  Nb  Nb117  1  0.09624714  0.91283070  0.09990384  1
  Nb  Nb118  1  0.09668403  0.10461529  0.09465042  1
  Nb  Nb119  1  0.49428379  0.49662639  0.69873082  1
  Nb  Nb120  1  0.10190589  0.30292771  0.28670757  1
  Nb  Nb121  1  0.70615585  0.70021174  0.29861479  1
  Nb  Nb122  1  0.90017613  0.30435692  0.90086901  1
  Nb  Nb123  1  0.29365647  0.89962038  0.50213158  1
  Nb  Nb124  1  0.70049591  0.89805297  0.30144718  1
  Nb  Nb125  1  0.79985175  0.60224177  0.60429767  1
  Nb  Nb126  1  0.59263169  0.40242998  0.79984558  1
  Nb  Nb127  1  0.39812213  0.20120950  0.20106837  1
  Nb  Nb128  1  0.40444335  0.59536994  0.80015523  1
  Nb  Nb129  1  0.60225310  0.00387391  0.59915884  1
  Nb  Nb130  1  0.39721017  -0.00669051  0.40203063  1
  Nb  Nb131  1  0.80588665  0.78977307  0.79428611  1
  Nb  Nb132  1  0.00781469  0.60067670  0.39997544  1
  Nb  Nb133  1  0.19311759  0.80355191  0.79741209  1
  Nb  Nb134  1  0.60497077  0.40230840  0.19297312  1
  Nb  Nb135  1  0.60606735  0.59613665  0.60538302  1
  Nb  Nb136  1  0.80456091  -0.00001410  0.00234724  1
  Nb  Nb137  1  0.39966179  0.40397767  0.00145724  1
  Nb  Nb138  1  0.19416240  -0.00125322  0.79560821  1
  Nb  Nb139  1  0.59961750  0.20698071  0.79768534  1
  Nb  Nb140  1  0.39308399  0.80466870  0.40039220  1
  Nb  Nb141  1  0.80527564  0.20013935  0.60270315  1
  Nb  Nb142  1  0.79554014  0.40259046  0.19109331  1
  Nb  Nb143  1  0.19844124  0.60338585  0.20891238  1
  Nb  Nb144  1  0.19496470  0.40310876  0.80148548  1
  Nb  Nb145  1  0.79653705  -0.00589975  0.39653815  1
  Nb  Nb146  1  0.39495827  0.80434627  0.59265363  1
  Nb  Nb147  1  0.00210481  0.00301342  0.79682593  1
  Nb  Nb148  1  0.61147289  0.79495517  0.20255095  1
  Nb  Nb149  1  0.19745355  0.39870448  0.00108965  1
  Pd  Pd150  1  0.39030255  0.79165730  0.79201466  1
  Pd  Pd151  1  0.80830888  -0.01348266  0.80475538  1
  Pd  Pd152  1  0.40127701  0.39366166  0.40626048  1
  Pd  Pd153  1  0.38857462  0.20438639  0.00953241  1
  Pd  Pd154  1  0.80169423  -0.00307995  0.20026687  1
  Pd  Pd155  1  0.80739869  0.59851344  0.80403285  1
  Pd  Pd156  1  0.60654776  0.59864560  0.20146665  1
  Pd  Pd157  1  0.40220145  0.19272634  0.79755445  1
  Pd  Pd158  1  0.19052460  0.58954597  0.39807523  1
  Pd  Pd159  1  0.39555325  0.60974838  0.20549412  1
  Pd  Pd160  1  0.00622848  0.20496782  0.39259207  1
  Pd  Pd161  1  0.19368268  0.00483540  0.19961181  1
  Pd  Pd162  1  0.40826602  0.61167985  0.60500500  1
  Pd  Pd163  1  0.81278603  0.59964055  0.40430024  1
  Pd  Pd164  1  -0.00247564  0.80975398  0.78971416  1
  Pd  Pd165  1  0.00606207  0.40474160  0.80959385  1
  Pd  Pd166  1  0.60933040  0.19596597  0.60620082  1
  Pd  Pd167  1  0.39533347  0.00690776  0.20494470  1
  Pd  Pd168  1  0.20129902  -0.00302366  0.39471438  1
  Pd  Pd169  1  0.00144854  0.60284197  0.01023145  1
  Pd  Pd170  1  0.80579772  0.79303225  0.60304172  1
  Pd  Pd171  1  0.59722472  0.00753614  0.79449359  1
  Pd  Pd172  1  0.59936681  0.40550572  -0.00157412  1
  Pd  Pd173  1  0.60280193  0.00377770  0.40481835  1
  Pd  Pd174  1  0.40054355  0.19699632  0.39579715  1
  Pd  Pd175  1  -0.00184481  0.79258020  0.01078277  1
  Pd  Pd176  1  0.19218365  0.40304661  0.40180578  1
  Pd  Pd177  1  0.40662479  0.59820821  -0.00262917  1
  Pd  Pd178  1  0.61135748  -0.00031963  0.00330553  1
  Pd  Pd179  1  0.39406883  0.00474561  0.80852016  1
  Pd  Pd180  1  0.20185594  0.20336188  0.59817185  1
  Pd  Pd181  1  0.41014941  0.79292506  0.20711172  1
  Pd  Pd182  1  0.18700354  0.59148244  0.01870037  1
  Pd  Pd183  1  0.40752219  -0.00367777  0.58921229  1
  Pd  Pd184  1  0.59302519  0.79481564  0.39133017  1
  Pd  Pd185  1  0.39731612  0.60806469  0.40189664  1
  Pd  Pd186  1  0.59407481  0.59554787  0.79616860  1
  Pd  Pd187  1  0.20616860  -0.00336220  -0.00785403  1
  Pd  Pd188  1  0.38722059  0.20210046  0.59617060  1
  Pd  Pd189  1  0.79556484  0.01036496  0.58605153  1
  Pd  Pd190  1  0.19691425  0.60257842  0.60124665  1
  Pd  Pd191  1  0.60203496  0.20502134  0.39420989  1
  Pd  Pd192  1  0.60213490  0.40638607  0.60036325  1
  Pd  Pd193  1  -0.00948450  0.39766033  0.60161607  1
  Pd  Pd194  1  0.18773222  0.20384461  0.39808500  1
  Pd  Pd195  1  0.81214910  0.80433826  0.39291626  1
  Pd  Pd196  1  0.59689677  0.60357122  0.00090781  1
  Pd  Pd197  1  0.39522135  -0.00203392  -0.00262939  1
  Pd  Pd198  1  0.40722675  0.80353710  0.00334836  1
  Pd  Pd199  1  0.80420161  0.19265315  0.00541713  1
  Rh  Rh200  1  0.80064937  0.40477594  0.81185767  1
  Rh  Rh201  1  0.59566699  0.80124562  0.60451239  1
  Rh  Rh202  1  0.61103678  -0.01160499  0.19206916  1
  Rh  Rh203  1  0.80557315  0.60698466  -0.00539107  1
  Rh  Rh204  1  0.79794782  0.20727192  0.79512582  1
  Rh  Rh205  1  -0.00634578  0.19801941  0.00466351  1
  Rh  Rh206  1  0.41653342  0.38726576  0.19287200  1
  Rh  Rh207  1  0.79616345  0.59223375  0.20766310  1
  Rh  Rh208  1  0.20557438  0.39034620  0.60254580  1
  Rh  Rh209  1  0.00338596  0.00767770  0.60450024  1
  Rh  Rh210  1  0.20528362  0.79167819  0.60406860  1
  Rh  Rh211  1  -0.00815559  0.20939297  0.59699836  1
  Rh  Rh212  1  0.00056021  0.19924117  0.79777331  1
  Rh  Rh213  1  0.59692586  0.79581668  0.00924669  1
  Rh  Rh214  1  -0.00909908  0.00888892  -0.00179383  1
  Rh  Rh215  1  -0.00638753  0.00307230  0.39074734  1
  Rh  Rh216  1  0.19248809  0.41063836  0.19440861  1
  Rh  Rh217  1  0.19694599  0.20032395  0.79505790  1
  Rh  Rh218  1  0.20135563  0.20632353  0.00664598  1
  Rh  Rh219  1  0.00094820  0.79324773  0.39782099  1
  Rh  Rh220  1  -0.00566048  0.79612580  0.60053861  1
  Rh  Rh221  1  0.18980596  0.79762652  0.19286886  1
  Rh  Rh222  1  0.60161083  0.59871789  0.40746358  1
  Rh  Rh223  1  0.39510491  0.40710413  0.80876878  1
  Rh  Rh224  1  0.19367265  0.80545325  0.00094574  1
  Rh  Rh225  1  0.80448608  0.79671083  -0.00810243  1
  Rh  Rh226  1  0.79931531  0.80237361  0.20786475  1
  Rh  Rh227  1  0.39431921  0.39012293  0.58937061  1
  Rh  Rh228  1  -0.00534180  0.58798339  0.80229090  1
  Rh  Rh229  1  0.00406087  0.00326861  0.19988896  1
  Rh  Rh230  1  0.80023819  0.40068578  0.38665668  1
  Rh  Rh231  1  0.00599148  0.39876921  -0.00010295  1
  Rh  Rh232  1  0.00455322  0.39855017  0.39893043  1
  Rh  Rh233  1  0.00351531  0.79728487  0.19717938  1
  Rh  Rh234  1  0.80562141  0.21084614  0.19725305  1
  Rh  Rh235  1  0.59906074  0.39637206  0.39524627  1
  Rh  Rh236  1  0.80329080  0.19219766  0.40499466  1
  Rh  Rh237  1  0.61132692  0.79925836  0.80161044  1
  Rh  Rh238  1  0.80663991  0.39885245  0.59895746  1
  Rh  Rh239  1  -0.00693381  0.59442617  0.59264815  1
  Rh  Rh240  1  0.19994690  0.19171320  0.19746492  1
  Rh  Rh241  1  0.79869923  0.40018927  0.00380873  1
  Rh  Rh242  1  0.19120970  0.00949884  0.60126264  1
  Rh  Rh243  1  0.59426440  0.21110302  0.20863022  1
  Rh  Rh244  1  0.61173817  0.19303497  -0.00920850  1
  Rh  Rh245  1  0.20355336  0.59796673  0.79303436  1
  Rh  Rh246  1  -0.01037950  0.39288121  0.19964319  1
  Rh  Rh247  1  0.20156409  0.80658780  0.40108998  1
  Rh  Rh248  1  0.00588923  0.60383952  0.20981076  1
  Rh  Rh249  1  0.00150567  0.20342826  0.19970904  1
