# generated using pymatgen
data_ZrScNbPdRh
_symmetry_space_group_name_H-M   'P 1'
_cell_length_a   16.56131781
_cell_length_b   16.56218224
_cell_length_c   16.56148957
_cell_angle_alpha   89.99062104
_cell_angle_beta   89.98677451
_cell_angle_gamma   90.01567466
_symmetry_Int_Tables_number   1
_chemical_formula_structural   ZrScNbPdRh
_chemical_formula_sum   'Zr50 Sc50 Nb50 Pd50 Rh50'
_cell_volume   4542.67652151
_cell_formula_units_Z   50
loop_
 _symmetry_equiv_pos_site_id
 _symmetry_equiv_pos_as_xyz
  1  'x, y, z'
loop_
 _atom_site_type_symbol
 _atom_site_label
 _atom_site_symmetry_multiplicity
 _atom_site_fract_x
 _atom_site_fract_y
 _atom_site_fract_z
 _atom_site_occupancy
  Zr  Zr0  1  0.69726177  0.90046609  0.30213541  1
  Zr  Zr1  1  0.10074998  0.29364778  0.69915372  1
  Zr  Zr2  1  0.69269386  0.70566825  0.89825729  1
  Zr  Zr3  1  0.50736077  0.89347472  0.10845697  1
  Zr  Zr4  1  0.29669056  0.30353883  0.70530330  1
  Zr  Zr5  1  0.49148868  0.90376091  0.51019127  1
  Zr  Zr6  1  0.10824369  0.89741223  0.89511272  1
  Zr  Zr7  1  0.70468896  0.29850573  0.09878491  1
  Zr  Zr8  1  0.90618803  0.70177170  0.70256779  1
  Zr  Zr9  1  0.48287163  0.09653834  0.90212309  1
  Zr  Zr10  1  0.09917231  0.30231538  0.89364657  1
  Zr  Zr11  1  0.30104245  0.89395062  0.69227129  1
  Zr  Zr12  1  0.71100856  0.50674903  0.89881919  1
  Zr  Zr13  1  0.50542520  0.09382945  0.69644445  1
  Zr  Zr14  1  0.29763027  0.09616286  0.50114220  1
  Zr  Zr15  1  0.30310316  0.90777282  0.89498231  1
  Zr  Zr16  1  0.90103512  0.49612997  0.69692677  1
  Zr  Zr17  1  0.50190933  0.50054005  0.50207810  1
  Zr  Zr18  1  0.70649079  0.70404175  0.70691815  1
  Zr  Zr19  1  0.30687010  0.29714213  0.50799718  1
  Zr  Zr20  1  0.09218351  0.09898110  0.69488914  1
  Zr  Zr21  1  0.89479629  0.09819243  0.70472673  1
  Zr  Zr22  1  0.29809789  0.89570334  0.30223404  1
  Zr  Zr23  1  0.90243053  0.70218374  0.11165008  1
  Zr  Zr24  1  0.10820417  0.10947489  0.09711903  1
  Zr  Zr25  1  0.29753755  0.70101900  0.29723590  1
  Zr  Zr26  1  0.89995102  0.68438507  0.30793781  1
  Zr  Zr27  1  0.50369668  0.30283626  0.30268025  1
  Zr  Zr28  1  0.09540435  0.49264570  0.49069866  1
  Zr  Zr29  1  0.50094013  0.70241655  0.50431765  1
  Zr  Zr30  1  0.30013137  0.50492967  0.29834454  1
  Zr  Zr31  1  0.49260562  0.70305759  0.28789492  1
  Zr  Zr32  1  0.70647978  0.29035163  0.69298300  1
  Zr  Zr33  1  0.50277986  0.90146948  0.89516586  1
  Zr  Zr34  1  0.48857312  0.29886807  0.89888008  1
  Zr  Zr35  1  0.89877715  0.89826452  0.09943475  1
  Zr  Zr36  1  0.09941541  0.30686050  0.30635164  1
  Zr  Zr37  1  0.90356525  0.09957048  0.09619537  1
  Zr  Zr38  1  0.49616299  0.10460758  0.50171774  1
  Zr  Zr39  1  0.69799694  0.89910654  0.50039191  1
  Zr  Zr40  1  0.50279524  0.89971896  0.29928914  1
  Zr  Zr41  1  0.09980295  0.09819766  0.90003612  1
  Zr  Zr42  1  0.89793838  0.10046129  0.90782749  1
  Zr  Zr43  1  0.70476733  0.49887705  0.30373716  1
  Zr  Zr44  1  0.09148725  0.50690916  0.30115182  1
  Zr  Zr45  1  0.50370881  0.29542478  0.49796734  1
  Zr  Zr46  1  0.50355633  0.09937260  0.30294267  1
  Zr  Zr47  1  0.10370873  0.90088044  0.30068909  1
  Zr  Zr48  1  0.09883855  0.29481182  0.10153669  1
  Zr  Zr49  1  0.69848918  0.70119569  0.50626199  1
  Sc  Sc50  1  0.89285611  0.31035292  0.50432594  1
  Sc  Sc51  1  0.30621378  0.49615383  0.89105330  1
  Sc  Sc52  1  0.90140150  0.09588567  0.49871024  1
  Sc  Sc53  1  0.29627156  0.29447903  0.09416874  1
  Sc  Sc54  1  0.69948235  0.29991264  0.31014962  1
  Sc  Sc55  1  0.49344632  0.29416251  0.70149831  1
  Sc  Sc56  1  0.29874254  0.50864799  0.10221872  1
  Sc  Sc57  1  0.10200992  0.71042691  0.70166987  1
  Sc  Sc58  1  0.30120768  0.49142622  0.69742126  1
  Sc  Sc59  1  0.71245401  0.10000837  0.09320342  1
  Sc  Sc60  1  0.09379538  0.69982838  0.89644814  1
  Sc  Sc61  1  0.69578804  0.50224343  0.09371830  1
  Sc  Sc62  1  0.29705319  0.09852593  0.91257668  1
  Sc  Sc63  1  0.29648309  0.49645410  0.50557775  1
  Sc  Sc64  1  0.09815250  0.48841839  0.70051737  1
  Sc  Sc65  1  0.89971186  0.89592193  0.49660528  1
  Sc  Sc66  1  0.69739097  0.70099918  0.09728846  1
  Sc  Sc67  1  0.89981882  0.90393989  0.90447246  1
  Sc  Sc68  1  0.89700880  0.69075686  0.88998489  1
  Sc  Sc69  1  0.29539157  0.70035695  0.10712718  1
  Sc  Sc70  1  0.10350673  0.90608243  0.50198904  1
  Sc  Sc71  1  0.29650831  0.69977519  0.89360283  1
  Sc  Sc72  1  0.70954152  0.09948021  0.89020305  1
  Sc  Sc73  1  0.10107451  0.11131269  0.30910327  1
  Sc  Sc74  1  0.69660524  0.30236358  0.90072616  1
  Sc  Sc75  1  0.09868158  0.88635956  0.09582666  1
  Sc  Sc76  1  0.29568113  0.10564067  0.30940150  1
  Sc  Sc77  1  0.51589716  0.69279304  0.70258248  1
  Sc  Sc78  1  0.90870547  0.29917498  0.69277580  1
  Sc  Sc79  1  0.50689630  0.49420354  0.89418968  1
  Sc  Sc80  1  0.09683784  0.70384869  0.29086437  1
  Sc  Sc81  1  0.89571366  0.29217061  0.30656405  1
  Sc  Sc82  1  0.69453938  0.50506194  0.69941275  1
  Sc  Sc83  1  0.70260909  0.88980202  0.09704767  1
  Sc  Sc84  1  0.10235405  0.69453647  0.09894860  1
  Sc  Sc85  1  0.09360617  0.29976576  0.50228404  1
  Sc  Sc86  1  0.90366516  0.89181097  0.30565030  1
  Sc  Sc87  1  0.49939021  0.50140602  0.28924523  1
  Sc  Sc88  1  0.70489463  0.09980129  0.31237442  1
  Sc  Sc89  1  0.50116727  0.49724379  0.70433148  1
  Sc  Sc90  1  0.89967008  0.28889022  0.09008751  1
  Sc  Sc91  1  0.90305492  0.89652012  0.70371653  1
  Sc  Sc92  1  0.29528974  0.29874565  0.30190928  1
  Sc  Sc93  1  0.89743636  0.09884618  0.30970378  1
  Sc  Sc94  1  0.49588362  0.31501815  0.09689858  1
  Sc  Sc95  1  0.29459504  0.89922079  0.09157536  1
  Sc  Sc96  1  0.10262153  0.70461817  0.50647721  1
  Sc  Sc97  1  0.70822783  0.49094256  0.49654838  1
  Sc  Sc98  1  0.29691369  0.10328129  0.69395529  1
  Sc  Sc99  1  0.29975914  0.71474943  0.50547696  1
  Nb  Nb100  1  0.90387784  0.50136581  0.09920299  1
  Nb  Nb101  1  0.70074141  0.69584721  0.30483602  1
  Nb  Nb102  1  0.30183419  0.09892330  0.09783620  1
  Nb  Nb103  1  0.90048868  0.50174521  0.30408960  1
  Nb  Nb104  1  0.49622567  0.09689908  0.09724836  1
  Nb  Nb105  1  0.69857388  0.90179727  0.89986548  1
  Nb  Nb106  1  0.30003459  0.90250311  0.50079287  1
  Nb  Nb107  1  0.09732525  0.50223098  0.09537698  1
  Nb  Nb108  1  0.69569081  0.10636867  0.50934066  1
  Nb  Nb109  1  0.90987148  0.49820233  0.89595175  1
  Nb  Nb110  1  0.90027985  0.50515893  0.48976671  1
  Nb  Nb111  1  0.09292713  0.50303069  0.89903715  1
  Nb  Nb112  1  0.90024695  0.30604444  0.89981387  1
  Nb  Nb113  1  0.29801689  0.69936303  0.69667657  1
  Nb  Nb114  1  0.50321484  0.70182195  0.09619486  1
  Nb  Nb115  1  0.70069164  0.09783317  0.69453573  1
  Nb  Nb116  1  0.89933539  0.69678768  0.50372033  1
  Nb  Nb117  1  0.69869423  0.29824904  0.49840555  1
  Nb  Nb118  1  0.69221336  0.90933975  0.71034650  1
  Nb  Nb119  1  0.10165603  0.10054984  0.50740413  1
  Nb  Nb120  1  0.50161987  0.70272503  0.89837130  1
  Nb  Nb121  1  0.29773141  0.30350331  0.89892985  1
  Nb  Nb122  1  0.49715989  0.50811764  0.10019681  1
  Nb  Nb123  1  0.10217893  0.89822240  0.70895063  1
  Nb  Nb124  1  0.49762497  0.90543612  0.70415808  1
  Nb  Nb125  1  0.19367856  0.40572381  -0.00282047  1
  Nb  Nb126  1  0.40891146  0.60529852  -0.00121652  1
  Nb  Nb127  1  0.80696294  0.60158488  0.59649199  1
  Nb  Nb128  1  -0.00541467  0.40480973  0.19772662  1
  Nb  Nb129  1  0.19779394  0.59647164  0.79563107  1
  Nb  Nb130  1  0.40424148  0.79779341  0.79587468  1
  Nb  Nb131  1  0.79039979  0.00055356  0.60566923  1
  Nb  Nb132  1  0.40135791  0.40064661  0.40029351  1
  Nb  Nb133  1  0.39801777  0.60507884  0.60443042  1
  Nb  Nb134  1  0.60355729  0.39199457  0.59625726  1
  Nb  Nb135  1  0.59194075  0.19430644  0.00206976  1
  Nb  Nb136  1  0.40423938  0.19421309  0.19534122  1
  Nb  Nb137  1  0.00337711  0.00214227  0.19962379  1
  Nb  Nb138  1  0.20004734  0.60184361  0.40104324  1
  Nb  Nb139  1  0.80673297  0.40047060  0.80200931  1
  Nb  Nb140  1  -0.00362912  0.59811718  0.59576486  1
  Nb  Nb141  1  0.59974225  0.00267002  -0.00114690  1
  Nb  Nb142  1  0.80630430  -0.00283201  0.20035589  1
  Nb  Nb143  1  0.40702754  0.79425368  -0.00459385  1
  Nb  Nb144  1  0.59647543  0.19703190  0.19258761  1
  Nb  Nb145  1  0.39456964  0.00413965  0.19781956  1
  Nb  Nb146  1  0.19971503  0.00559179  0.19808418  1
  Nb  Nb147  1  0.80969649  0.40563560  0.19821428  1
  Nb  Nb148  1  0.18962785  0.40448424  0.19424498  1
  Nb  Nb149  1  0.60027219  0.60346538  0.39692940  1
  Pd  Pd150  1  -0.00820791  -0.00684748  0.59973439  1
  Pd  Pd151  1  0.00232205  0.39617403  0.00417898  1
  Pd  Pd152  1  0.39153622  0.41110776  0.00242872  1
  Pd  Pd153  1  0.38811966  0.39432751  0.20041702  1
  Pd  Pd154  1  0.60885837  0.39735444  0.19607906  1
  Pd  Pd155  1  0.80307685  0.80933697  0.80635132  1
  Pd  Pd156  1  0.19731081  0.20445331  0.41205472  1
  Pd  Pd157  1  0.80844887  0.60539685  0.00302282  1
  Pd  Pd158  1  0.20534844  0.19188363  0.80433020  1
  Pd  Pd159  1  0.81032423  0.19421018  0.59289874  1
  Pd  Pd160  1  0.80532492  0.20872347  0.80355158  1
  Pd  Pd161  1  -0.00567761  0.19877363  0.20675756  1
  Pd  Pd162  1  0.60073619  0.01112309  0.80929019  1
  Pd  Pd163  1  0.80558385  0.79253629  -0.00799902  1
  Pd  Pd164  1  -0.00642910  0.79071666  -0.00648081  1
  Pd  Pd165  1  0.59766458  0.80728653  0.61162168  1
  Pd  Pd166  1  0.60910288  0.39323570  0.79098320  1
  Pd  Pd167  1  0.20800165  0.59543650  -0.01218545  1
  Pd  Pd168  1  -0.00728714  0.60883404  0.00038733  1
  Pd  Pd169  1  0.59539287  0.59586374  -0.00643375  1
  Pd  Pd170  1  0.79425822  0.59473759  0.19324806  1
  Pd  Pd171  1  0.39651864  -0.00150834  0.39486594  1
  Pd  Pd172  1  0.59857410  0.39942799  -0.00121727  1
  Pd  Pd173  1  0.79521049  0.19738669  0.20609642  1
  Pd  Pd174  1  0.19545696  0.79529383  0.40439741  1
  Pd  Pd175  1  0.40186315  0.80187808  0.40148664  1
  Pd  Pd176  1  0.20711104  0.79230569  -0.00556992  1
  Pd  Pd177  1  0.80161746  0.79594841  0.39743631  1
  Pd  Pd178  1  0.01089502  -0.00424146  0.00575514  1
  Pd  Pd179  1  -0.00513541  0.20379411  0.41039785  1
  Pd  Pd180  1  0.20494202  0.00696479  0.79237897  1
  Pd  Pd181  1  0.59887618  0.19608543  0.80643743  1
  Pd  Pd182  1  0.00482973  0.80344296  0.59872725  1
  Pd  Pd183  1  -0.00352838  -0.00445769  0.80376389  1
  Pd  Pd184  1  0.38953382  0.19285894  0.79762302  1
  Pd  Pd185  1  0.59409370  0.79424673  0.39631050  1
  Pd  Pd186  1  0.19826757  0.59859259  0.60092594  1
  Pd  Pd187  1  0.60440114  0.60280408  0.20292658  1
  Pd  Pd188  1  0.00525515  0.00230671  0.39683975  1
  Pd  Pd189  1  0.39683755  0.59713276  0.40955641  1
  Pd  Pd190  1  0.80447620  0.40169900  -0.00024413  1
  Pd  Pd191  1  0.79779321  0.80030345  0.20994040  1
  Pd  Pd192  1  0.79989083  0.80517760  0.60584812  1
  Pd  Pd193  1  0.00525102  0.79360355  0.40257984  1
  Pd  Pd194  1  0.19398001  0.39562064  0.59795452  1
  Pd  Pd195  1  0.60022619  0.00361033  0.41032830  1
  Pd  Pd196  1  0.39665364  0.60358146  0.79704915  1
  Pd  Pd197  1  -0.00619401  0.20081771  0.80254137  1
  Pd  Pd198  1  0.61207104  0.00902325  0.19094963  1
  Pd  Pd199  1  0.19800678  -0.00416677  0.60440652  1
  Rh  Rh200  1  -0.01201574  0.39315775  0.39585517  1
  Rh  Rh201  1  0.19762556  0.40783002  0.80808557  1
  Rh  Rh202  1  0.00269262  0.20297901  -0.01111956  1
  Rh  Rh203  1  0.21167568  0.40689035  0.39418195  1
  Rh  Rh204  1  0.39214346  0.80604544  0.19002949  1
  Rh  Rh205  1  0.00015211  0.80524358  0.80631515  1
  Rh  Rh206  1  0.60955662  0.78968360  0.20567723  1
  Rh  Rh207  1  0.01077665  0.61072788  0.40954781  1
  Rh  Rh208  1  0.59501975  0.40833587  0.40488432  1
  Rh  Rh209  1  0.79022948  -0.00744605  0.00361644  1
  Rh  Rh210  1  0.00149240  0.40465448  0.59355933  1
  Rh  Rh211  1  0.20273960  0.20758499  -0.00931014  1
  Rh  Rh212  1  0.40131457  0.39779334  0.79654646  1
  Rh  Rh213  1  0.60329745  -0.00561953  0.59704538  1
  Rh  Rh214  1  0.40701807  -0.01648103  0.01147838  1
  Rh  Rh215  1  0.59812532  0.80769914  -0.00345633  1
  Rh  Rh216  1  0.39984148  0.20812917  0.00432152  1
  Rh  Rh217  1  0.41013925  0.40495446  0.59843920  1
  Rh  Rh218  1  0.60305094  0.59780588  0.80701469  1
  Rh  Rh219  1  0.60545572  0.58947046  0.59120096  1
  Rh  Rh220  1  0.80456587  0.39575387  0.39212087  1
  Rh  Rh221  1  0.01057153  0.59816724  0.78885601  1
  Rh  Rh222  1  0.00014544  0.80198528  0.20194254  1
  Rh  Rh223  1  0.79903862  0.19932226  0.41129805  1
  Rh  Rh224  1  0.79129995  0.60290022  0.40852463  1
  Rh  Rh225  1  0.80237269  -0.00528127  0.79537831  1
  Rh  Rh226  1  -0.00381794  0.39661765  0.79828720  1
  Rh  Rh227  1  0.19209679  -0.00170940  0.00631441  1
  Rh  Rh228  1  0.19387679  0.80988179  0.60069342  1
  Rh  Rh229  1  0.39592443  0.00416799  0.60271248  1
  Rh  Rh230  1  0.39838570  0.20817628  0.39414387  1
  Rh  Rh231  1  0.40123214  0.60531584  0.18818249  1
  Rh  Rh232  1  0.20526595  0.79420162  0.79914392  1
  Rh  Rh233  1  0.19975629  0.80607134  0.19650615  1
  Rh  Rh234  1  0.19801763  0.00222653  0.39961044  1
  Rh  Rh235  1  0.79377164  0.20369501  -0.01105626  1
  Rh  Rh236  1  0.21017134  0.19993285  0.20180223  1
  Rh  Rh237  1  0.40057707  0.19654100  0.60525510  1
  Rh  Rh238  1  -0.00256795  0.19605340  0.59505393  1
  Rh  Rh239  1  0.39262026  0.00030196  0.78963470  1
  Rh  Rh240  1  0.59739163  0.80264283  0.79479437  1
  Rh  Rh241  1  0.60506981  0.19466165  0.39731140  1
  Rh  Rh242  1  0.59618695  0.20455090  0.60262331  1
  Rh  Rh243  1  0.80203192  0.59111434  0.79206907  1
  Rh  Rh244  1  0.79141229  0.40606347  0.60838963  1
  Rh  Rh245  1  0.19631591  0.20225978  0.59747665  1
  Rh  Rh246  1  0.00070073  0.59775986  0.19409646  1
  Rh  Rh247  1  0.79604036  -0.00064318  0.40699187  1
  Rh  Rh248  1  0.19352094  0.59707282  0.20645871  1
  Rh  Rh249  1  0.40945481  0.79244584  0.61119891  1
