# generated using pymatgen
data_ZrScNbPdRh
_symmetry_space_group_name_H-M   'P 1'
_cell_length_a   16.56099007
_cell_length_b   16.55989478
_cell_length_c   16.56070408
_cell_angle_alpha   90.01311051
_cell_angle_beta   90.01141690
_cell_angle_gamma   90.00547464
_symmetry_Int_Tables_number   1
_chemical_formula_structural   ZrScNbPdRh
_chemical_formula_sum   'Zr50 Sc50 Nb50 Pd50 Rh50'
_cell_volume   4541.74393315
_cell_formula_units_Z   50
loop_
 _symmetry_equiv_pos_site_id
 _symmetry_equiv_pos_as_xyz
  1  'x, y, z'
loop_
 _atom_site_type_symbol
 _atom_site_label
 _atom_site_symmetry_multiplicity
 _atom_site_fract_x
 _atom_site_fract_y
 _atom_site_fract_z
 _atom_site_occupancy
  Zr  Zr0  1  0.50335212  0.10677248  0.09029670  1
  Zr  Zr1  1  0.89507484  0.69816897  0.49263536  1
  Zr  Zr2  1  0.09076142  0.50588006  0.30842653  1
  Zr  Zr3  1  0.69851715  0.90185986  0.70585259  1
  Zr  Zr4  1  0.30043845  0.29402725  0.30386226  1
  Zr  Zr5  1  0.30485311  0.10487155  0.10138972  1
  Zr  Zr6  1  0.89804084  0.90341893  0.70463152  1
  Zr  Zr7  1  0.09860608  0.10085191  0.09856816  1
  Zr  Zr8  1  0.30245444  0.49970336  0.10025354  1
  Zr  Zr9  1  0.09736618  0.29808552  0.89260238  1
  Zr  Zr10  1  0.89963599  0.30380844  0.90258232  1
  Zr  Zr11  1  0.30847317  0.10594658  0.89484004  1
  Zr  Zr12  1  0.88970728  0.29736355  0.09870270  1
  Zr  Zr13  1  0.30282553  0.30184103  0.10967571  1
  Zr  Zr14  1  0.29911269  0.10746724  0.29946067  1
  Zr  Zr15  1  0.10297379  0.10781957  0.30306279  1
  Zr  Zr16  1  0.49885036  0.69446252  0.90352641  1
  Zr  Zr17  1  0.50422552  0.90804144  0.50141537  1
  Zr  Zr18  1  0.50165813  0.29617538  0.49526533  1
  Zr  Zr19  1  0.70018425  0.49561040  0.70475753  1
  Zr  Zr20  1  0.11125659  0.89109107  0.29407574  1
  Zr  Zr21  1  0.31418744  0.90195897  0.70300647  1
  Zr  Zr22  1  0.10668528  0.69971948  0.48962140  1
  Zr  Zr23  1  0.50354928  0.70243756  0.70188181  1
  Zr  Zr24  1  0.30706463  0.10739986  0.50268970  1
  Zr  Zr25  1  0.90402050  0.70307341  0.70185160  1
  Zr  Zr26  1  0.50218258  0.90225385  0.30556372  1
  Zr  Zr27  1  0.90483509  0.48881595  0.49748766  1
  Zr  Zr28  1  0.09861570  0.10364332  0.70444507  1
  Zr  Zr29  1  0.49869818  0.50887429  0.10924417  1
  Zr  Zr30  1  0.69981598  0.30404162  0.90363546  1
  Zr  Zr31  1  0.90490994  0.69712229  0.29466181  1
  Zr  Zr32  1  0.89090474  0.09404223  0.49940353  1
  Zr  Zr33  1  0.89954443  0.89666652  0.50684392  1
  Zr  Zr34  1  0.30003490  0.30399761  0.49725828  1
  Zr  Zr35  1  0.90428617  0.89862853  0.89469842  1
  Zr  Zr36  1  0.29294902  0.49615900  0.49931397  1
  Zr  Zr37  1  0.49974637  0.08847438  0.69320044  1
  Zr  Zr38  1  0.50664444  0.30686214  0.70281390  1
  Zr  Zr39  1  0.50055070  0.89658780  0.69494132  1
  Zr  Zr40  1  0.70045486  0.29751255  0.70329697  1
  Zr  Zr41  1  0.70767452  0.89796595  0.90305327  1
  Zr  Zr42  1  0.70511414  0.70237853  0.50266259  1
  Zr  Zr43  1  0.09810863  0.09801542  0.50749828  1
  Zr  Zr44  1  0.70284241  0.10524174  0.09955543  1
  Zr  Zr45  1  0.50070507  0.90160447  0.09673880  1
  Zr  Zr46  1  0.29356046  0.49276503  0.70031076  1
  Zr  Zr47  1  0.69726770  0.70145021  0.90258353  1
  Zr  Zr48  1  0.10056412  0.69511018  0.69054037  1
  Zr  Zr49  1  0.50291181  0.49897539  0.70254434  1
  Sc  Sc50  1  0.29654421  0.89998060  0.10535389  1
  Sc  Sc51  1  0.11522896  0.70251331  0.91863743  1
  Sc  Sc52  1  0.89785890  0.30615415  0.30905458  1
  Sc  Sc53  1  0.30572284  0.70134768  0.69797938  1
  Sc  Sc54  1  0.89491017  0.49507111  0.09555382  1
  Sc  Sc55  1  0.29132721  0.69606352  0.50151186  1
  Sc  Sc56  1  0.87978490  0.89859985  0.29644486  1
  Sc  Sc57  1  0.88760208  0.69914726  0.89682859  1
  Sc  Sc58  1  0.30366193  0.89360904  0.49845531  1
  Sc  Sc59  1  0.08576915  0.89660225  0.69090811  1
  Sc  Sc60  1  0.69391727  0.49355689  0.09595005  1
  Sc  Sc61  1  0.09534102  0.30037506  0.09813036  1
  Sc  Sc62  1  0.69299093  0.30712692  0.29190398  1
  Sc  Sc63  1  0.28983052  0.69361010  0.08920918  1
  Sc  Sc64  1  0.30573705  0.89669646  0.90096850  1
  Sc  Sc65  1  0.70698219  0.70104540  0.30751504  1
  Sc  Sc66  1  0.29840779  0.10249810  0.69424632  1
  Sc  Sc67  1  0.09857003  0.30757626  0.49604364  1
  Sc  Sc68  1  0.50035456  0.90853566  0.89198184  1
  Sc  Sc69  1  0.69943946  0.30053863  0.09715023  1
  Sc  Sc70  1  0.90257471  0.50304067  0.89119109  1
  Sc  Sc71  1  0.29727622  0.30149114  0.69939447  1
  Sc  Sc72  1  0.91145382  0.09692995  0.89876190  1
  Sc  Sc73  1  0.70109125  0.50311255  0.90428389  1
  Sc  Sc74  1  0.51061654  0.70736335  0.50465704  1
  Sc  Sc75  1  0.88943774  0.30689472  0.70088319  1
  Sc  Sc76  1  0.50452084  0.30432788  0.09817480  1
  Sc  Sc77  1  0.30833695  0.50495817  0.90348927  1
  Sc  Sc78  1  0.50356889  0.10065919  0.30179072  1
  Sc  Sc79  1  0.69541667  0.29604586  0.50745683  1
  Sc  Sc80  1  0.50080377  0.49310865  0.90486706  1
  Sc  Sc81  1  0.10705953  0.89266563  0.10201026  1
  Sc  Sc82  1  0.89408212  0.50177967  0.30958009  1
  Sc  Sc83  1  0.70474866  0.10199214  0.69337946  1
  Sc  Sc84  1  0.10516010  0.30710019  0.70615511  1
  Sc  Sc85  1  0.30798788  0.30336729  0.88925873  1
  Sc  Sc86  1  0.69851264  0.09094494  0.29670918  1
  Sc  Sc87  1  0.69843572  0.49819777  0.48947412  1
  Sc  Sc88  1  0.30477017  0.89876398  0.30246120  1
  Sc  Sc89  1  0.50896789  0.68464121  0.29494665  1
  Sc  Sc90  1  0.69890353  0.70266084  0.08840522  1
  Sc  Sc91  1  0.69571784  0.69957057  0.70475427  1
  Sc  Sc92  1  0.50184880  0.30232105  0.29615563  1
  Sc  Sc93  1  0.10724522  0.29988327  0.30530685  1
  Sc  Sc94  1  0.29026726  0.70214364  0.30927309  1
  Sc  Sc95  1  0.70111721  0.89966164  0.49131770  1
  Sc  Sc96  1  0.30110568  0.48983159  0.29596985  1
  Sc  Sc97  1  0.70306291  0.90260929  0.09565422  1
  Sc  Sc98  1  0.88710366  0.90015638  0.09936204  1
  Sc  Sc99  1  0.10217345  0.50259496  0.50735744  1
  Nb  Nb100  1  0.89849594  0.10004080  0.10926516  1
  Nb  Nb101  1  0.50162047  0.69887597  0.09984077  1
  Nb  Nb102  1  0.09598979  0.69982996  0.29435434  1
  Nb  Nb103  1  0.09901857  0.50207783  0.09915691  1
  Nb  Nb104  1  0.50069793  0.29388946  0.89997440  1
  Nb  Nb105  1  0.89713779  0.29694126  0.50083956  1
  Nb  Nb106  1  0.51329838  0.49846027  0.30032548  1
  Nb  Nb107  1  0.09414425  0.69948037  0.10993534  1
  Nb  Nb108  1  0.68985551  0.50577789  0.29476930  1
  Nb  Nb109  1  0.09387527  0.50153686  0.71097971  1
  Nb  Nb110  1  0.69174506  0.10220704  0.49897001  1
  Nb  Nb111  1  0.10062368  0.09937871  0.89783514  1
  Nb  Nb112  1  0.29966987  0.70098416  0.90073234  1
  Nb  Nb113  1  0.49797633  0.10921212  0.90218337  1
  Nb  Nb114  1  0.09574482  0.90068424  0.49806700  1
  Nb  Nb115  1  0.90837558  0.50893326  0.69959834  1
  Nb  Nb116  1  0.49810785  0.49493669  0.49625781  1
  Nb  Nb117  1  0.90211847  0.69967575  0.10548740  1
  Nb  Nb118  1  0.89984889  0.10051944  0.69327890  1
  Nb  Nb119  1  0.89738076  0.09760378  0.30187250  1
  Nb  Nb120  1  0.51148412  0.10143822  0.50097853  1
  Nb  Nb121  1  0.09966647  0.49656482  0.89805624  1
  Nb  Nb122  1  0.68967260  0.10167708  0.90399210  1
  Nb  Nb123  1  0.69692081  0.89724383  0.29459255  1
  Nb  Nb124  1  0.09729120  0.90355866  0.89982745  1
  Nb  Nb125  1  0.59748699  0.19641466  0.80564730  1
  Nb  Nb126  1  -0.00968032  0.20158400  0.59860467  1
  Nb  Nb127  1  0.20070965  0.20166668  -0.00583143  1
  Nb  Nb128  1  0.19716038  0.39997174  -0.00286832  1
  Nb  Nb129  1  0.40294656  0.79387860  0.00266709  1
  Nb  Nb130  1  0.80532315  0.59279467  0.60351453  1
  Nb  Nb131  1  0.19723268  0.60095553  0.80333284  1
  Nb  Nb132  1  -0.00527296  0.00473449  0.20477274  1
  Nb  Nb133  1  0.19448703  -0.00459636  0.80304767  1
  Nb  Nb134  1  0.19518086  0.00137749  0.40400759  1
  Nb  Nb135  1  0.19724773  0.00544833  -0.00827681  1
  Nb  Nb136  1  0.40588798  0.59230491  0.59376297  1
  Nb  Nb137  1  0.40634408  0.59162635  0.40438928  1
  Nb  Nb138  1  0.00243484  0.80376910  0.39419773  1
  Nb  Nb139  1  -0.00861891  0.19906519  0.20249646  1
  Nb  Nb140  1  0.59855604  0.80005179  0.19840358  1
  Nb  Nb141  1  -0.00172625  0.39968451  0.19946111  1
  Nb  Nb142  1  0.00361188  0.60355795  0.00701734  1
  Nb  Nb143  1  0.79913404  0.60060931  0.19863653  1
  Nb  Nb144  1  0.00109820  -0.00580960  0.39437160  1
  Nb  Nb145  1  -0.00160222  0.79526647  0.00553062  1
  Nb  Nb146  1  0.79763040  0.19618144  0.40386997  1
  Nb  Nb147  1  0.18873635  0.60017437  0.19921769  1
  Nb  Nb148  1  0.19903555  0.80143581  0.80187792  1
  Nb  Nb149  1  0.40668649  0.79185274  0.19592814  1
  Pd  Pd150  1  0.79798437  0.20288194  0.21323338  1
  Pd  Pd151  1  -0.00279355  0.60243297  0.58995878  1
  Pd  Pd152  1  0.79557074  0.79598101  0.60924734  1
  Pd  Pd153  1  0.60129532  0.00673281  0.80125020  1
  Pd  Pd154  1  0.59882949  0.60316549  0.40778098  1
  Pd  Pd155  1  0.60774960  0.20222435  0.38937877  1
  Pd  Pd156  1  0.59724892  0.80267151  0.80667672  1
  Pd  Pd157  1  0.80506490  0.59787522  0.00540125  1
  Pd  Pd158  1  0.19098148  0.21149219  0.59843451  1
  Pd  Pd159  1  0.40135815  -0.00239865  0.20276570  1
  Pd  Pd160  1  0.39477810  -0.00538668  -0.00211193  1
  Pd  Pd161  1  0.40666045  0.19899589  0.78582536  1
  Pd  Pd162  1  0.78739388  0.39230871  0.39903277  1
  Pd  Pd163  1  0.01022326  0.61394278  0.81660665  1
  Pd  Pd164  1  0.39981007  0.79058894  0.59055160  1
  Pd  Pd165  1  0.40738775  0.78392288  0.39534430  1
  Pd  Pd166  1  0.00002752  0.40568664  0.00258796  1
  Pd  Pd167  1  0.39763433  0.39516991  -0.00087802  1
  Pd  Pd168  1  -0.00798315  0.81580107  0.19946800  1
  Pd  Pd169  1  0.80376983  0.19071019  -0.00912485  1
  Pd  Pd170  1  0.60144047  0.59560206  0.80750036  1
  Pd  Pd171  1  0.79720527  0.19072933  0.80714634  1
  Pd  Pd172  1  0.19881942  0.00337892  0.20110455  1
  Pd  Pd173  1  0.59900835  0.79615552  0.39285755  1
  Pd  Pd174  1  0.18973997  0.40241421  0.19886301  1
  Pd  Pd175  1  0.40460368  0.40219010  0.39103605  1
  Pd  Pd176  1  0.20100705  0.80795332  0.60611214  1
  Pd  Pd177  1  0.79122045  -0.00371459  0.59852412  1
  Pd  Pd178  1  0.40725917  0.20577914  0.60382607  1
  Pd  Pd179  1  0.79717911  0.40591744  0.59831909  1
  Pd  Pd180  1  0.60140902  -0.00200055  0.19580471  1
  Pd  Pd181  1  0.38690183  0.60620509  0.21078221  1
  Pd  Pd182  1  0.00188471  -0.01005516  0.01189288  1
  Pd  Pd183  1  0.00388810  0.39251647  0.60732799  1
  Pd  Pd184  1  0.60468916  0.40355656  0.59295350  1
  Pd  Pd185  1  0.80095259  0.01241373  0.80520721  1
  Pd  Pd186  1  0.40084148  0.39985013  0.60270139  1
  Pd  Pd187  1  -0.00695353  0.19862677  0.40239839  1
  Pd  Pd188  1  0.39556571  0.00777199  0.40264052  1
  Pd  Pd189  1  0.41324831  0.20155440  0.20163546  1
  Pd  Pd190  1  0.80362230  0.40778816  0.80391481  1
  Pd  Pd191  1  0.60404306  0.59447338  0.59488293  1
  Pd  Pd192  1  0.80222109  0.40874388  0.20435095  1
  Pd  Pd193  1  0.80481676  0.00842202  -0.00665513  1
  Pd  Pd194  1  0.20511858  -0.00933052  0.60253933  1
  Pd  Pd195  1  -0.00035747  0.20027809  0.00435544  1
  Pd  Pd196  1  0.60089518  -0.00255482  -0.00253057  1
  Pd  Pd197  1  -0.00950980  0.20604542  0.78973187  1
  Pd  Pd198  1  0.01087794  0.78817899  0.81289295  1
  Pd  Pd199  1  0.39467397  0.59773595  0.79368068  1
  Rh  Rh200  1  0.79736268  0.00129348  0.19740022  1
  Rh  Rh201  1  0.39888334  0.00538731  0.80012384  1
  Rh  Rh202  1  0.60170569  0.20646098  -0.00206598  1
  Rh  Rh203  1  0.19614468  0.80740455  0.40339537  1
  Rh  Rh204  1  0.19478871  0.58773952  -0.00033143  1
  Rh  Rh205  1  -0.00386939  0.00583280  0.60127245  1
  Rh  Rh206  1  0.80179219  0.20079253  0.59299167  1
  Rh  Rh207  1  0.79369980  0.00047607  0.39914335  1
  Rh  Rh208  1  0.19015620  0.40120176  0.60339649  1
  Rh  Rh209  1  0.80771576  0.79901723  -0.00093961  1
  Rh  Rh210  1  0.21522022  0.78756974  0.19688919  1
  Rh  Rh211  1  0.79618556  0.59862411  0.78967425  1
  Rh  Rh212  1  0.39906551  0.79650661  0.80975148  1
  Rh  Rh213  1  0.80400300  0.80263550  0.39768922  1
  Rh  Rh214  1  -0.00532936  0.58640842  0.19539767  1
  Rh  Rh215  1  0.20389534  0.19447130  0.80214369  1
  Rh  Rh216  1  0.59672514  0.19749740  0.61076420  1
  Rh  Rh217  1  0.20567644  0.59097912  0.38883597  1
  Rh  Rh218  1  0.60176598  0.19726537  0.19625031  1
  Rh  Rh219  1  0.40923377  0.40074089  0.20400309  1
  Rh  Rh220  1  0.60058219  0.39628856  0.80980218  1
  Rh  Rh221  1  0.19259388  0.20668470  0.19078433  1
  Rh  Rh222  1  0.60477349  0.00170767  0.40078579  1
  Rh  Rh223  1  0.39474405  0.20972468  0.00411924  1
  Rh  Rh224  1  0.40315112  0.40164341  0.80068838  1
  Rh  Rh225  1  0.20241184  0.19826551  0.41173717  1
  Rh  Rh226  1  0.20484190  0.59520781  0.61132449  1
  Rh  Rh227  1  0.61495030  0.60776600  0.19284623  1
  Rh  Rh228  1  0.59695832  0.40181817  0.19465152  1
  Rh  Rh229  1  0.40738286  0.19782233  0.39945449  1
  Rh  Rh230  1  0.79999934  0.40407183  -0.00623899  1
  Rh  Rh231  1  0.00239153  0.39751269  0.39744523  1
  Rh  Rh232  1  0.59646203  0.39961127  -0.00020741  1
  Rh  Rh233  1  0.79679212  0.79749279  0.79766788  1
  Rh  Rh234  1  0.00129478  0.78865538  0.58636196  1
  Rh  Rh235  1  0.59391649  0.80496015  -0.00105254  1
  Rh  Rh236  1  0.40352583  0.60371436  0.00170416  1
  Rh  Rh237  1  0.19720828  0.40250679  0.39916468  1
  Rh  Rh238  1  0.60912626  -0.00378972  0.59668757  1
  Rh  Rh239  1  -0.00047580  0.60542686  0.40594230  1
  Rh  Rh240  1  0.00233046  0.00140780  0.79097172  1
  Rh  Rh241  1  0.79787443  0.59529543  0.39945177  1
  Rh  Rh242  1  0.59748802  0.59373822  0.00205911  1
  Rh  Rh243  1  0.60203288  0.39572437  0.39948772  1
  Rh  Rh244  1  0.20379478  0.40842343  0.80850443  1
  Rh  Rh245  1  0.20293123  0.81298702  -0.00226142  1
  Rh  Rh246  1  0.39880214  0.00041782  0.59055425  1
  Rh  Rh247  1  -0.00671479  0.39649166  0.79544951  1
  Rh  Rh248  1  0.78619396  0.78995343  0.19572636  1
  Rh  Rh249  1  0.60757494  0.80869986  0.60088809  1
