# generated using pymatgen
data_ZrScNbPdRh
_symmetry_space_group_name_H-M   'P 1'
_cell_length_a   16.55724256
_cell_length_b   16.55832233
_cell_length_c   16.55488438
_cell_angle_alpha   89.97279598
_cell_angle_beta   90.03807864
_cell_angle_gamma   89.99046451
_symmetry_Int_Tables_number   1
_chemical_formula_structural   ZrScNbPdRh
_chemical_formula_sum   'Zr50 Sc50 Nb50 Pd50 Rh50'
_cell_volume   4538.68816035
_cell_formula_units_Z   50
loop_
 _symmetry_equiv_pos_site_id
 _symmetry_equiv_pos_as_xyz
  1  'x, y, z'
loop_
 _atom_site_type_symbol
 _atom_site_label
 _atom_site_symmetry_multiplicity
 _atom_site_fract_x
 _atom_site_fract_y
 _atom_site_fract_z
 _atom_site_occupancy
  Zr  Zr0  1  0.29700167  0.70517659  0.50342184  1
  Zr  Zr1  1  0.30460180  0.09898769  0.70229525  1
  Zr  Zr2  1  0.50231232  0.71202934  0.10509170  1
  Zr  Zr3  1  0.49287903  0.29261763  0.90225196  1
  Zr  Zr4  1  0.09899880  0.50451223  0.89067728  1
  Zr  Zr5  1  0.29558935  0.29943022  0.08670055  1
  Zr  Zr6  1  0.09613679  0.89463768  0.90237325  1
  Zr  Zr7  1  0.10181056  0.90302835  0.30090498  1
  Zr  Zr8  1  0.30026802  0.89679965  0.69804268  1
  Zr  Zr9  1  0.69961068  0.09403243  0.50405836  1
  Zr  Zr10  1  0.90122916  0.50105136  0.89812953  1
  Zr  Zr11  1  0.09279113  0.90091801  0.49605382  1
  Zr  Zr12  1  0.09329929  0.90168004  0.70153150  1
  Zr  Zr13  1  0.49447085  0.29670817  0.29905834  1
  Zr  Zr14  1  0.30969444  0.49989091  0.29931265  1
  Zr  Zr15  1  0.50572443  0.49985937  0.90523407  1
  Zr  Zr16  1  0.30507920  0.89768349  0.10287197  1
  Zr  Zr17  1  0.09461383  0.10128338  0.69796188  1
  Zr  Zr18  1  0.69920654  0.50536747  0.90244062  1
  Zr  Zr19  1  0.70246476  0.30000425  0.29152131  1
  Zr  Zr20  1  0.70841206  0.29560540  0.70181897  1
  Zr  Zr21  1  0.29586164  0.09721217  0.09801874  1
  Zr  Zr22  1  0.89583150  0.09677989  0.09740630  1
  Zr  Zr23  1  0.69285048  0.49557745  0.09948906  1
  Zr  Zr24  1  0.10389476  0.70663564  0.09165550  1
  Zr  Zr25  1  0.30390055  0.30222707  0.30158818  1
  Zr  Zr26  1  0.50013044  0.70537357  0.69908755  1
  Zr  Zr27  1  0.50023581  0.89359773  0.30185094  1
  Zr  Zr28  1  0.09901970  0.09922565  0.89680315  1
  Zr  Zr29  1  0.50380774  0.09729047  0.49684522  1
  Zr  Zr30  1  0.69456753  0.69987141  0.10129304  1
  Zr  Zr31  1  0.89738805  0.49545354  0.71035652  1
  Zr  Zr32  1  0.28842826  0.69621963  0.89930794  1
  Zr  Zr33  1  0.89474938  0.30383593  0.89201173  1
  Zr  Zr34  1  0.50347595  0.70619285  0.49557286  1
  Zr  Zr35  1  0.29603836  0.90337953  0.29996213  1
  Zr  Zr36  1  0.50002203  0.09656463  0.89872907  1
  Zr  Zr37  1  0.70196378  0.09896804  0.69803803  1
  Zr  Zr38  1  0.89754691  0.70367643  0.50467829  1
  Zr  Zr39  1  0.09898778  0.69516117  0.30518218  1
  Zr  Zr40  1  0.90012573  0.90298257  0.30455378  1
  Zr  Zr41  1  0.10004486  0.70607090  0.50524433  1
  Zr  Zr42  1  0.09855071  0.29846893  0.69579981  1
  Zr  Zr43  1  0.29691962  0.49608668  0.90637923  1
  Zr  Zr44  1  0.51165966  0.70393661  0.89603182  1
  Zr  Zr45  1  0.91321343  0.30727797  0.31148854  1
  Zr  Zr46  1  0.29557371  0.89573014  0.49306911  1
  Zr  Zr47  1  0.89166812  0.90728089  0.89626944  1
  Zr  Zr48  1  0.30113988  0.09337157  0.49797425  1
  Zr  Zr49  1  0.49958392  0.89429823  0.71307484  1
  Sc  Sc50  1  0.69588194  0.50534580  0.50045427  1
  Sc  Sc51  1  0.08992597  0.49418785  0.31016309  1
  Sc  Sc52  1  0.50762978  0.49791319  0.69512140  1
  Sc  Sc53  1  0.30699202  0.09145241  0.29876364  1
  Sc  Sc54  1  0.50178112  0.69742412  0.30145497  1
  Sc  Sc55  1  0.89782671  0.49796177  0.30209942  1
  Sc  Sc56  1  0.09194872  0.29930760  0.49602519  1
  Sc  Sc57  1  0.30568031  0.89535887  0.89222929  1
  Sc  Sc58  1  0.70005314  0.29989537  0.51367219  1
  Sc  Sc59  1  0.10052798  0.69927548  0.90223113  1
  Sc  Sc60  1  0.30641180  0.29840269  0.68888480  1
  Sc  Sc61  1  0.69386146  0.90017460  0.09217403  1
  Sc  Sc62  1  0.90419010  0.90410389  0.09165885  1
  Sc  Sc63  1  0.50237629  0.29782319  0.68571387  1
  Sc  Sc64  1  0.09369569  0.10174521  0.09924279  1
  Sc  Sc65  1  0.69763777  0.70223240  0.49802028  1
  Sc  Sc66  1  0.89823730  0.29735487  0.09440044  1
  Sc  Sc67  1  0.10773913  0.70140162  0.70467165  1
  Sc  Sc68  1  0.70406567  0.10861966  0.09727066  1
  Sc  Sc69  1  0.30877664  0.70232988  0.30383517  1
  Sc  Sc70  1  0.70290126  0.89937845  0.31256321  1
  Sc  Sc71  1  0.89689112  0.69189407  0.30623397  1
  Sc  Sc72  1  0.30411242  0.49898616  0.09772093  1
  Sc  Sc73  1  0.49719205  0.09653993  0.69613289  1
  Sc  Sc74  1  0.69776505  0.69578294  0.70165098  1
  Sc  Sc75  1  0.50561860  0.89964978  0.49895029  1
  Sc  Sc76  1  0.30218624  0.49617314  0.50027699  1
  Sc  Sc77  1  0.08802098  0.29757995  0.09647607  1
  Sc  Sc78  1  0.29737517  0.71142911  0.70451555  1
  Sc  Sc79  1  0.88943497  0.49962118  0.49762898  1
  Sc  Sc80  1  0.09238668  0.30036349  0.90940625  1
  Sc  Sc81  1  0.50227866  0.49823869  0.50047641  1
  Sc  Sc82  1  0.89833409  0.50009671  0.10018360  1
  Sc  Sc83  1  0.30686501  0.30723103  0.50021926  1
  Sc  Sc84  1  0.70071968  0.49863525  0.69433291  1
  Sc  Sc85  1  0.90420972  0.69526524  0.09371413  1
  Sc  Sc86  1  0.70129819  0.50398749  0.29621619  1
  Sc  Sc87  1  0.70679506  0.09504254  0.29641727  1
  Sc  Sc88  1  0.30238097  0.70373195  0.10309358  1
  Sc  Sc89  1  0.90432077  0.09501832  0.29487199  1
  Sc  Sc90  1  0.89700286  0.10259162  0.90179008  1
  Sc  Sc91  1  0.09361371  0.50315917  0.08909532  1
  Sc  Sc92  1  0.69349623  0.70290389  0.30546650  1
  Sc  Sc93  1  0.09329645  0.09061813  0.29899068  1
  Sc  Sc94  1  0.50728930  0.30053832  0.10146032  1
  Sc  Sc95  1  0.29362666  0.49581596  0.69060083  1
  Sc  Sc96  1  0.10999375  0.49890956  0.50517881  1
  Sc  Sc97  1  0.10661942  0.90095945  0.10062684  1
  Sc  Sc98  1  0.49728444  0.09832979  0.09733681  1
  Sc  Sc99  1  0.70443051  0.29505456  0.91242179  1
  Nb  Nb100  1  0.90085633  0.10802213  0.70139227  1
  Nb  Nb101  1  0.30385544  0.11285580  0.90116086  1
  Nb  Nb102  1  0.70062819  0.29543704  0.10235544  1
  Nb  Nb103  1  0.90009854  0.29619907  0.50301500  1
  Nb  Nb104  1  0.89991006  0.90383780  0.69915082  1
  Nb  Nb105  1  0.50502685  0.30192874  0.49647516  1
  Nb  Nb106  1  0.51199218  0.89977446  0.90865010  1
  Nb  Nb107  1  0.89624073  0.70045995  0.69865695  1
  Nb  Nb108  1  0.70010084  0.69897833  0.90344449  1
  Nb  Nb109  1  0.30060257  0.29807930  0.90063212  1
  Nb  Nb110  1  0.89151201  0.70196991  0.89386613  1
  Nb  Nb111  1  0.70834666  0.91166743  0.70533677  1
  Nb  Nb112  1  0.91047511  0.10630854  0.49914726  1
  Nb  Nb113  1  0.50379969  0.09651212  0.30428016  1
  Nb  Nb114  1  0.09736245  0.10374100  0.49963488  1
  Nb  Nb115  1  0.09713563  0.49476355  0.70175323  1
  Nb  Nb116  1  0.69967251  0.09597874  0.89727424  1
  Nb  Nb117  1  0.89548254  0.29710031  0.69995778  1
  Nb  Nb118  1  0.89837993  0.89893146  0.50171477  1
  Nb  Nb119  1  0.49550495  0.49781468  0.29539238  1
  Nb  Nb120  1  0.49744840  0.50715341  0.10245619  1
  Nb  Nb121  1  0.50261652  0.89572943  0.09781030  1
  Nb  Nb122  1  0.10084559  0.29942809  0.30070911  1
  Nb  Nb123  1  0.70876710  0.90196463  0.50184006  1
  Nb  Nb124  1  0.69708559  0.91208453  0.89177233  1
  Nb  Nb125  1  0.40069825  0.60730979  0.60381557  1
  Nb  Nb126  1  0.19624971  0.39831904  0.20149908  1
  Nb  Nb127  1  0.80341907  0.20219003  0.40569689  1
  Nb  Nb128  1  -0.00267623  0.79840193  0.20140901  1
  Nb  Nb129  1  0.40061074  0.59577896  0.80027819  1
  Nb  Nb130  1  0.20674944  0.00433747  -0.00798817  1
  Nb  Nb131  1  0.60193223  0.19887735  0.80228455  1
  Nb  Nb132  1  0.19815103  0.20566733  0.20569652  1
  Nb  Nb133  1  -0.00212153  0.59638251  0.60868876  1
  Nb  Nb134  1  0.19510389  0.00266005  0.59765067  1
  Nb  Nb135  1  0.79556522  0.79820990  -0.00896074  1
  Nb  Nb136  1  0.19684682  0.19846878  0.39606213  1
  Nb  Nb137  1  -0.00722441  0.40055509  0.60526515  1
  Nb  Nb138  1  0.80343125  0.79997253  0.19548947  1
  Nb  Nb139  1  0.20657348  0.20397629  0.80465325  1
  Nb  Nb140  1  -0.01387719  0.79923977  0.79771293  1
  Nb  Nb141  1  0.39948896  0.39989754  0.80175462  1
  Nb  Nb142  1  0.59424188  -0.00385021  0.20095948  1
  Nb  Nb143  1  0.59629362  0.39379030  0.39454467  1
  Nb  Nb144  1  0.40714999  0.60264513  -0.00204938  1
  Nb  Nb145  1  0.20281162  0.39316277  0.80071159  1
  Nb  Nb146  1  0.60318099  0.20204765  0.39879956  1
  Nb  Nb147  1  0.80173462  0.81193482  0.60472884  1
  Nb  Nb148  1  0.19901945  0.59315522  0.20310915  1
  Nb  Nb149  1  0.59906413  0.39199243  0.80340878  1
  Pd  Pd150  1  0.81212581  0.00512591  0.59911878  1
  Pd  Pd151  1  0.59588469  -0.00969004  0.60658580  1
  Pd  Pd152  1  0.40391944  0.20012823  0.59272347  1
  Pd  Pd153  1  0.39902072  0.19660874  0.40442075  1
  Pd  Pd154  1  0.39621888  -0.00528213  -0.00771308  1
  Pd  Pd155  1  0.00344561  0.40534449  0.19464141  1
  Pd  Pd156  1  0.61166319  0.80953522  0.60246759  1
  Pd  Pd157  1  0.59756721  0.60096027  0.20471461  1
  Pd  Pd158  1  0.20453980  0.59716595  0.39534321  1
  Pd  Pd159  1  0.80064221  0.40023046  0.00410179  1
  Pd  Pd160  1  0.59922588  0.18861325  0.20248751  1
  Pd  Pd161  1  0.59607753  0.60133851  0.59771277  1
  Pd  Pd162  1  0.18890700  0.39976449  0.00106998  1
  Pd  Pd163  1  0.80831406  0.01015145  0.40402630  1
  Pd  Pd164  1  0.81292649  0.20512200  0.20702468  1
  Pd  Pd165  1  0.00544373  0.60213202  0.19800719  1
  Pd  Pd166  1  0.39914113  -0.01124606  0.59602132  1
  Pd  Pd167  1  0.40599964  0.19954949  0.00996425  1
  Pd  Pd168  1  0.79256380  0.60247490  0.40111423  1
  Pd  Pd169  1  0.59882621  0.39294221  -0.00023129  1
  Pd  Pd170  1  0.20425514  0.00483125  0.80086697  1
  Pd  Pd171  1  0.00112352  0.61197039  0.79548601  1
  Pd  Pd172  1  0.80203730  0.40359282  0.59880942  1
  Pd  Pd173  1  0.20274728  0.19907302  0.59362551  1
  Pd  Pd174  1  0.79031737  -0.01190789  0.19346269  1
  Pd  Pd175  1  0.39814681  0.79419722  -0.00747530  1
  Pd  Pd176  1  0.79474181  0.80036727  0.79665756  1
  Pd  Pd177  1  0.60416016  0.00805700  0.00835790  1
  Pd  Pd178  1  -0.00058053  0.59212209  0.41569491  1
  Pd  Pd179  1  0.20105801  0.60269030  0.60591264  1
  Pd  Pd180  1  0.40888803  -0.00186103  0.20114286  1
  Pd  Pd181  1  0.40370076  0.59829150  0.41000214  1
  Pd  Pd182  1  0.79996650  0.60237623  0.00446219  1
  Pd  Pd183  1  0.40228271  -0.00323568  0.80750551  1
  Pd  Pd184  1  0.78843684  0.39381393  0.40433287  1
  Pd  Pd185  1  0.00287114  0.20468029  0.80437186  1
  Pd  Pd186  1  0.80665942  0.39788250  0.19576637  1
  Pd  Pd187  1  0.19719161  0.79082148  0.20625469  1
  Pd  Pd188  1  0.19867752  0.39566249  0.39976819  1
  Pd  Pd189  1  0.00605025  0.00130429  -0.00014905  1
  Pd  Pd190  1  0.80014966  0.60595046  0.19983960  1
  Pd  Pd191  1  0.39579925  0.19823165  0.19423318  1
  Pd  Pd192  1  -0.00020566  0.19915555  0.20236241  1
  Pd  Pd193  1  -0.00245537  0.60342509  -0.00562159  1
  Pd  Pd194  1  -0.00241376  0.00404989  0.59648958  1
  Pd  Pd195  1  0.59757147  0.40256320  0.20323247  1
  Pd  Pd196  1  0.79172796  0.59733218  0.79551963  1
  Pd  Pd197  1  -0.00436607  0.79758534  0.39343983  1
  Pd  Pd198  1  0.61416026  0.80323833  0.79896172  1
  Pd  Pd199  1  0.39627794  0.39514114  0.18809628  1
  Rh  Rh200  1  0.40122327  0.20703512  0.79062272  1
  Rh  Rh201  1  0.20835475  0.81010106  -0.00305355  1
  Rh  Rh202  1  0.60479975  0.80398246  0.40310409  1
  Rh  Rh203  1  0.60144066  0.59317247  0.79763474  1
  Rh  Rh204  1  0.20706602  0.58899448  0.79216328  1
  Rh  Rh205  1  0.19372587  0.00911559  0.40613732  1
  Rh  Rh206  1  0.19998137  0.79570142  0.39512706  1
  Rh  Rh207  1  0.40204987  0.79913859  0.59517269  1
  Rh  Rh208  1  0.60334891  0.39863345  0.59843834  1
  Rh  Rh209  1  0.80673143  0.01215834  0.79702200  1
  Rh  Rh210  1  0.59492973  0.00538862  0.79576051  1
  Rh  Rh211  1  0.40278646  0.79464834  0.80881638  1
  Rh  Rh212  1  0.79984740  0.19810856  -0.00073530  1
  Rh  Rh213  1  -0.00629928  0.20637566  0.60194591  1
  Rh  Rh214  1  0.59519236  0.58765052  0.39345960  1
  Rh  Rh215  1  0.40056110  0.80251429  0.39980239  1
  Rh  Rh216  1  0.19194800  0.19367520  -0.00048086  1
  Rh  Rh217  1  0.19467293  0.81005880  0.60269009  1
  Rh  Rh218  1  0.60279477  0.19642801  -0.00240832  1
  Rh  Rh219  1  0.78801244  0.40098191  0.80439389  1
  Rh  Rh220  1  -0.00361153  0.00180610  0.40368809  1
  Rh  Rh221  1  -0.00802746  0.19723369  -0.00283856  1
  Rh  Rh222  1  0.19293627  0.39404266  0.60021271  1
  Rh  Rh223  1  0.80103652  0.79731317  0.40308838  1
  Rh  Rh224  1  0.80213846  0.60701636  0.60084981  1
  Rh  Rh225  1  0.60848179  0.81011423  0.20518483  1
  Rh  Rh226  1  0.40036002  0.80165886  0.20480981  1
  Rh  Rh227  1  -0.01019024  -0.00175381  0.80022922  1
  Rh  Rh228  1  0.60964543  0.80373067  -0.00715907  1
  Rh  Rh229  1  0.60305271  0.00239968  0.39466022  1
  Rh  Rh230  1  0.79485447  0.19464312  0.80337895  1
  Rh  Rh231  1  0.39819221  0.60349613  0.19273461  1
  Rh  Rh232  1  -0.00668361  0.40392061  -0.00404566  1
  Rh  Rh233  1  0.20772284  0.60193753  0.01441130  1
  Rh  Rh234  1  0.18990737  0.80375170  0.80226277  1
  Rh  Rh235  1  0.19525729  0.00866138  0.19089726  1
  Rh  Rh236  1  0.40458680  -0.00627781  0.39917735  1
  Rh  Rh237  1  0.00127647  0.19552231  0.39573037  1
  Rh  Rh238  1  -0.01299844  0.79585578  -0.00599085  1
  Rh  Rh239  1  -0.00583312  0.79313763  0.60856724  1
  Rh  Rh240  1  0.59544455  0.60457295  0.00824731  1
  Rh  Rh241  1  0.40477446  0.40885499  0.60106961  1
  Rh  Rh242  1  -0.00116893  0.40699821  0.41447764  1
  Rh  Rh243  1  0.40816261  0.40341136  0.00170138  1
  Rh  Rh244  1  0.00554977  0.39097783  0.79731183  1
  Rh  Rh245  1  0.00182484  -0.01129989  0.19529552  1
  Rh  Rh246  1  0.80812826  0.19162772  0.59466187  1
  Rh  Rh247  1  0.40912163  0.40627967  0.40371497  1
  Rh  Rh248  1  0.79174369  -0.00101086  -0.00137904  1
  Rh  Rh249  1  0.59719869  0.19741326  0.59967676  1
