# generated using pymatgen
data_ZrScNbPdRh
_symmetry_space_group_name_H-M   'P 1'
_cell_length_a   16.55655848
_cell_length_b   16.56159652
_cell_length_c   16.55717630
_cell_angle_alpha   90.02128146
_cell_angle_beta   90.01467239
_cell_angle_gamma   89.99623854
_symmetry_Int_Tables_number   1
_chemical_formula_structural   ZrScNbPdRh
_chemical_formula_sum   'Zr50 Sc50 Nb50 Pd50 Rh50'
_cell_volume   4540.02762412
_cell_formula_units_Z   50
loop_
 _symmetry_equiv_pos_site_id
 _symmetry_equiv_pos_as_xyz
  1  'x, y, z'
loop_
 _atom_site_type_symbol
 _atom_site_label
 _atom_site_symmetry_multiplicity
 _atom_site_fract_x
 _atom_site_fract_y
 _atom_site_fract_z
 _atom_site_occupancy
  Zr  Zr0  1  0.70462404  0.10086678  0.29453400  1
  Zr  Zr1  1  0.09958509  0.70031449  0.29969789  1
  Zr  Zr2  1  0.71143459  0.29759813  0.89560666  1
  Zr  Zr3  1  0.30063350  0.09670545  0.29209976  1
  Zr  Zr4  1  0.50120046  0.29981982  0.69979665  1
  Zr  Zr5  1  0.49237997  0.09594174  0.09537347  1
  Zr  Zr6  1  0.49645493  0.89891787  0.08999568  1
  Zr  Zr7  1  0.09802578  0.90098800  0.30593098  1
  Zr  Zr8  1  0.49163792  0.49889399  0.09999720  1
  Zr  Zr9  1  0.09832985  0.89875372  0.71705585  1
  Zr  Zr10  1  0.51345678  0.30774234  0.30291249  1
  Zr  Zr11  1  0.29874120  0.30512013  0.70413786  1
  Zr  Zr12  1  0.30057692  0.70605811  0.30055577  1
  Zr  Zr13  1  0.09940110  0.30655084  0.71322564  1
  Zr  Zr14  1  0.69750820  0.48576715  0.29249774  1
  Zr  Zr15  1  0.68685688  0.68910570  0.70154148  1
  Zr  Zr16  1  0.89620620  0.09942040  0.29151139  1
  Zr  Zr17  1  0.10218312  0.09925316  0.49299790  1
  Zr  Zr18  1  0.29973531  0.50103432  0.70084428  1
  Zr  Zr19  1  0.90008170  0.90203227  0.70195905  1
  Zr  Zr20  1  0.70590872  0.69680378  0.09304185  1
  Zr  Zr21  1  0.30292401  0.69605016  0.49557003  1
  Zr  Zr22  1  0.70334316  0.70291952  0.89816848  1
  Zr  Zr23  1  0.31243536  0.51288020  0.31184656  1
  Zr  Zr24  1  0.89489152  0.30357666  0.29812701  1
  Zr  Zr25  1  0.90564162  0.89837409  0.89625395  1
  Zr  Zr26  1  0.49347665  0.89104706  0.70025910  1
  Zr  Zr27  1  0.29911456  0.49645352  0.09599645  1
  Zr  Zr28  1  0.30436647  0.70802039  0.09793570  1
  Zr  Zr29  1  0.69688097  0.69641778  0.50408318  1
  Zr  Zr30  1  0.50633211  0.70260139  0.88701061  1
  Zr  Zr31  1  0.28975120  0.30426406  0.90653135  1
  Zr  Zr32  1  0.50088966  0.29874338  0.89644549  1
  Zr  Zr33  1  0.29984197  0.90372350  0.29493531  1
  Zr  Zr34  1  0.30206304  0.90403238  0.10280396  1
  Zr  Zr35  1  0.30686223  0.30816445  0.51050311  1
  Zr  Zr36  1  0.09927923  0.30279273  0.50188122  1
  Zr  Zr37  1  0.90441126  0.70266013  0.70214057  1
  Zr  Zr38  1  0.69729079  0.29466487  0.29181150  1
  Zr  Zr39  1  0.31107096  0.90112388  0.49881998  1
  Zr  Zr40  1  0.10481153  0.29198336  0.29321101  1
  Zr  Zr41  1  0.30641653  0.09558557  0.49840747  1
  Zr  Zr42  1  0.69510342  0.10212707  0.51449628  1
  Zr  Zr43  1  0.28909193  0.29835538  0.10215850  1
  Zr  Zr44  1  0.10212394  0.70516832  0.89638138  1
  Zr  Zr45  1  0.69285151  0.69437271  0.29597792  1
  Zr  Zr46  1  0.49693944  0.68755559  0.29745429  1
  Zr  Zr47  1  0.29733755  0.09589653  0.70824371  1
  Zr  Zr48  1  0.69627664  0.30165321  0.50985976  1
  Zr  Zr49  1  0.70889851  0.29712841  0.09701081  1
  Sc  Sc50  1  0.30350480  0.10728418  0.90022661  1
  Sc  Sc51  1  0.90287963  0.49799975  0.69745416  1
  Sc  Sc52  1  0.10010437  0.50170931  0.09566112  1
  Sc  Sc53  1  0.69423343  0.90221755  0.49788526  1
  Sc  Sc54  1  0.89728192  0.89564811  0.50400553  1
  Sc  Sc55  1  0.70918922  0.49753195  0.09693429  1
  Sc  Sc56  1  0.90406894  0.68154691  0.29464429  1
  Sc  Sc57  1  0.69512613  0.89291364  0.09314313  1
  Sc  Sc58  1  0.50672294  0.10141530  0.29271390  1
  Sc  Sc59  1  0.08822222  0.10758221  0.10215001  1
  Sc  Sc60  1  0.50558807  0.30103929  0.50706295  1
  Sc  Sc61  1  0.89931989  0.50040664  0.89696177  1
  Sc  Sc62  1  0.49969498  0.09935774  0.70489435  1
  Sc  Sc63  1  0.50062485  0.90688843  0.50146523  1
  Sc  Sc64  1  0.89921269  0.69692335  0.90740439  1
  Sc  Sc65  1  0.90014509  0.50839170  0.09576438  1
  Sc  Sc66  1  0.49704647  0.29784043  0.10152845  1
  Sc  Sc67  1  0.29601612  0.70225164  0.89769074  1
  Sc  Sc68  1  0.09600617  0.49970754  0.70867316  1
  Sc  Sc69  1  0.50090257  0.70142475  0.10023598  1
  Sc  Sc70  1  0.90047522  0.69281418  0.09317914  1
  Sc  Sc71  1  0.09880099  0.89919596  0.09694973  1
  Sc  Sc72  1  0.69621026  0.90653066  0.29961919  1
  Sc  Sc73  1  0.70994697  0.50010267  0.88603201  1
  Sc  Sc74  1  0.90216362  0.69933919  0.50668603  1
  Sc  Sc75  1  0.50395166  0.89818939  0.30566954  1
  Sc  Sc76  1  0.50482465  0.51390380  0.70367876  1
  Sc  Sc77  1  0.89108395  0.09721273  0.70733671  1
  Sc  Sc78  1  0.09053090  0.49734201  0.50384977  1
  Sc  Sc79  1  0.30012222  0.89294822  0.90194051  1
  Sc  Sc80  1  0.88820598  0.09883409  0.51070215  1
  Sc  Sc81  1  0.09909724  0.09435572  0.29632437  1
  Sc  Sc82  1  0.70013476  0.91293608  0.69798284  1
  Sc  Sc83  1  0.29606319  0.50224489  0.90744508  1
  Sc  Sc84  1  0.10346053  0.10161972  0.88970947  1
  Sc  Sc85  1  0.70223400  0.09898463  0.10609991  1
  Sc  Sc86  1  0.09214139  0.50366445  0.30065102  1
  Sc  Sc87  1  0.70084660  0.30213135  0.69967940  1
  Sc  Sc88  1  0.09411013  0.70496368  0.49470275  1
  Sc  Sc89  1  0.89699246  0.10369706  0.09716451  1
  Sc  Sc90  1  0.89412487  0.91132020  0.30232242  1
  Sc  Sc91  1  0.89880298  0.10802720  0.89771457  1
  Sc  Sc92  1  0.89628470  0.31198415  0.50970600  1
  Sc  Sc93  1  0.90019252  0.90241309  0.09201846  1
  Sc  Sc94  1  0.30484918  0.89963288  0.70910467  1
  Sc  Sc95  1  0.10016439  0.89795227  0.90293235  1
  Sc  Sc96  1  0.10151090  0.50156401  0.89790189  1
  Sc  Sc97  1  0.50330955  0.70799728  0.50875771  1
  Sc  Sc98  1  0.09464922  0.69874166  0.09316513  1
  Sc  Sc99  1  0.50662551  0.89747735  0.89848323  1
  Nb  Nb100  1  0.10012186  0.90162999  0.50322112  1
  Nb  Nb101  1  0.30451524  0.70093374  0.69803705  1
  Nb  Nb102  1  0.29809538  0.29856893  0.29895739  1
  Nb  Nb103  1  0.69955040  0.09683808  0.88649130  1
  Nb  Nb104  1  0.49671551  0.49662031  0.90445208  1
  Nb  Nb105  1  0.30385892  0.49871647  0.50383616  1
  Nb  Nb106  1  0.89727954  0.49718459  0.29871896  1
  Nb  Nb107  1  0.30313485  0.09338701  0.10273965  1
  Nb  Nb108  1  0.49516466  0.70189091  0.70198875  1
  Nb  Nb109  1  0.10412185  0.09799512  0.70134430  1
  Nb  Nb110  1  0.09285829  0.30200244  0.90622012  1
  Nb  Nb111  1  0.50257196  0.49852708  0.30080812  1
  Nb  Nb112  1  0.70574160  0.10556077  0.70400771  1
  Nb  Nb113  1  0.50966341  0.10512632  0.89936296  1
  Nb  Nb114  1  0.70016768  0.89602356  0.89828676  1
  Nb  Nb115  1  0.49667609  0.49335814  0.49368991  1
  Nb  Nb116  1  0.90677626  0.29125583  0.08251804  1
  Nb  Nb117  1  0.89543109  0.49536137  0.49564835  1
  Nb  Nb118  1  0.70017132  0.49852697  0.51169558  1
  Nb  Nb119  1  0.49408362  0.10125127  0.50113996  1
  Nb  Nb120  1  0.90135419  0.29929801  0.90453444  1
  Nb  Nb121  1  0.90323401  0.29853765  0.70302461  1
  Nb  Nb122  1  0.70262154  0.50573512  0.69256542  1
  Nb  Nb123  1  0.09147828  0.30170652  0.09747688  1
  Nb  Nb124  1  0.10808182  0.69977967  0.70309611  1
  Nb  Nb125  1  0.79779073  0.20251272  0.40246649  1
  Nb  Nb126  1  0.79170101  -0.00036720  -0.01178652  1
  Nb  Nb127  1  0.79672916  0.58925150  0.40272614  1
  Nb  Nb128  1  0.19616216  0.19548608  0.60512894  1
  Nb  Nb129  1  0.00839962  0.00341734  0.60367780  1
  Nb  Nb130  1  0.20041357  0.79998832  0.60274806  1
  Nb  Nb131  1  0.39466890  0.39969535  0.21003650  1
  Nb  Nb132  1  0.40166502  0.40341806  0.80454502  1
  Nb  Nb133  1  0.20182595  0.60526867  0.60191669  1
  Nb  Nb134  1  0.80376130  0.79637813  0.20311322  1
  Nb  Nb135  1  0.79596704  0.78896660  0.39328452  1
  Nb  Nb136  1  0.00397981  0.19737790  0.60420651  1
  Nb  Nb137  1  0.60147106  0.39938251  -0.00620516  1
  Nb  Nb138  1  0.60155741  0.58791676  0.40503142  1
  Nb  Nb139  1  0.60300998  0.19669547  -0.00798860  1
  Nb  Nb140  1  0.20527567  0.00660529  0.00612140  1
  Nb  Nb141  1  0.59843848  0.59277503  -0.00790910  1
  Nb  Nb142  1  -0.00887619  0.20073171  0.40399443  1
  Nb  Nb143  1  -0.00623380  0.79907456  0.20368982  1
  Nb  Nb144  1  0.40038250  0.20289231  0.39783181  1
  Nb  Nb145  1  0.79621950  0.80087543  0.79954493  1
  Nb  Nb146  1  0.20532891  0.60318455  0.20211229  1
  Nb  Nb147  1  0.20849653  0.40077081  0.39932652  1
  Nb  Nb148  1  -0.00230003  0.39432901  0.19347827  1
  Nb  Nb149  1  0.19643071  -0.00418732  0.60135032  1
  Pd  Pd150  1  0.60336169  0.58975132  0.19056216  1
  Pd  Pd151  1  0.60186885  0.80389471  0.19784493  1
  Pd  Pd152  1  -0.01210571  0.00580088  0.40956435  1
  Pd  Pd153  1  0.00258061  0.00806756  -0.00668166  1
  Pd  Pd154  1  0.79011024  0.80266947  0.60261360  1
  Pd  Pd155  1  0.40957380  0.80511990  0.20232657  1
  Pd  Pd156  1  -0.00050664  -0.00762273  0.19395681  1
  Pd  Pd157  1  0.59813912  0.00971432  0.40165201  1
  Pd  Pd158  1  0.40453603  0.20661970  0.20603320  1
  Pd  Pd159  1  0.40152016  0.20350306  -0.00023869  1
  Pd  Pd160  1  0.19165603  0.19139764  0.00379677  1
  Pd  Pd161  1  0.00498117  0.59781641  0.59973084  1
  Pd  Pd162  1  0.40473715  -0.00227171  0.80968002  1
  Pd  Pd163  1  0.79029876  0.39695234  0.40441420  1
  Pd  Pd164  1  -0.00259880  0.19803621  0.79809892  1
  Pd  Pd165  1  0.81352862  0.39827535  0.18422791  1
  Pd  Pd166  1  0.19813393  0.41218184  0.20768287  1
  Pd  Pd167  1  0.59176563  0.00407858  0.60698147  1
  Pd  Pd168  1  0.19774499  0.19086270  0.19145717  1
  Pd  Pd169  1  0.19176221  0.59140724  0.40541542  1
  Pd  Pd170  1  0.39639085  0.20513187  0.80258247  1
  Pd  Pd171  1  0.00910013  0.80525033  0.60305411  1
  Pd  Pd172  1  0.80888528  0.59773925  0.60011714  1
  Pd  Pd173  1  0.59459696  0.40827245  0.60790467  1
  Pd  Pd174  1  0.19193487  0.40709008  0.59900543  1
  Pd  Pd175  1  0.60788020  0.00702511  -0.00101603  1
  Pd  Pd176  1  0.40516724  0.61191787  -0.00708770  1
  Pd  Pd177  1  0.59923693  0.40812183  0.80039230  1
  Pd  Pd178  1  0.80726442  0.39910379  0.79153257  1
  Pd  Pd179  1  -0.00121781  0.60155491  0.80427777  1
  Pd  Pd180  1  -0.01546907  0.80007585  0.39264445  1
  Pd  Pd181  1  0.00580478  0.39446541  0.39259398  1
  Pd  Pd182  1  0.39789128  0.19577474  0.60091440  1
  Pd  Pd183  1  0.39493430  -0.00046328  -0.01378506  1
  Pd  Pd184  1  0.39892986  0.39084867  0.39685784  1
  Pd  Pd185  1  0.59567839  -0.00370818  0.79434660  1
  Pd  Pd186  1  0.60032044  0.19374770  0.40545189  1
  Pd  Pd187  1  0.20384319  -0.00501727  0.40093225  1
  Pd  Pd188  1  0.60413818  0.80651762  0.60461717  1
  Pd  Pd189  1  0.20651522  0.20552782  0.40637505  1
  Pd  Pd190  1  -0.00685222  0.59887203  0.40675051  1
  Pd  Pd191  1  0.20112566  0.80605479  0.40708250  1
  Pd  Pd192  1  0.39342648  0.59720883  0.80854077  1
  Pd  Pd193  1  0.59839068  -0.00494662  0.19463189  1
  Pd  Pd194  1  -0.00176431  0.41008183  0.00018741  1
  Pd  Pd195  1  0.40341213  0.59760854  0.59574138  1
  Pd  Pd196  1  0.18943771  0.79651628  0.19285698  1
  Pd  Pd197  1  0.41054954  0.79783466  0.40007191  1
  Pd  Pd198  1  0.19822802  0.60457104  0.00447491  1
  Pd  Pd199  1  0.79706764  0.00139441  0.40863566  1
  Rh  Rh200  1  0.59207910  0.40210839  0.18445568  1
  Rh  Rh201  1  0.59591499  0.78987459  -0.00162977  1
  Rh  Rh202  1  0.19053179  0.00483174  0.19139565  1
  Rh  Rh203  1  0.41482991  0.60505482  0.41303246  1
  Rh  Rh204  1  0.80580489  0.80885135  -0.00180418  1
  Rh  Rh205  1  0.40929963  0.00971286  0.39079901  1
  Rh  Rh206  1  0.00438936  0.19463650  -0.00975765  1
  Rh  Rh207  1  0.80156921  0.40224439  0.60880069  1
  Rh  Rh208  1  -0.00735246  0.20665592  0.20559075  1
  Rh  Rh209  1  -0.00454448  0.79093480  0.80474678  1
  Rh  Rh210  1  0.40880089  -0.00497448  0.20446517  1
  Rh  Rh211  1  0.40451117  0.79739246  -0.00644981  1
  Rh  Rh212  1  0.20269849  0.40449968  0.80986320  1
  Rh  Rh213  1  0.39495081  0.80123407  0.60113895  1
  Rh  Rh214  1  0.19864204  0.80801449  0.00214447  1
  Rh  Rh215  1  0.39824595  0.79610967  0.80201040  1
  Rh  Rh216  1  0.00312803  0.59818628  -0.00699337  1
  Rh  Rh217  1  0.00680237  0.59579665  0.19484483  1
  Rh  Rh218  1  0.80467314  0.60726626  0.79165373  1
  Rh  Rh219  1  -0.00335488  0.39854923  0.60671247  1
  Rh  Rh220  1  0.18791011  0.39861228  -0.00124670  1
  Rh  Rh221  1  0.40247825  0.39073804  0.00130290  1
  Rh  Rh222  1  0.20657539  0.79915243  0.79716768  1
  Rh  Rh223  1  0.60789431  0.40462197  0.40818398  1
  Rh  Rh224  1  0.80516040  0.20586837  0.60446852  1
  Rh  Rh225  1  0.79382992  0.59314223  -0.00715694  1
  Rh  Rh226  1  0.20288334  0.60070389  0.79563278  1
  Rh  Rh227  1  0.59677203  0.19865312  0.18613762  1
  Rh  Rh228  1  0.59712671  0.19347685  0.60995259  1
  Rh  Rh229  1  0.80793613  0.20352670  0.19701542  1
  Rh  Rh230  1  -0.00117326  0.79621198  0.00469840  1
  Rh  Rh231  1  0.80297355  0.40096407  -0.00311840  1
  Rh  Rh232  1  0.39282958  0.59540516  0.19364633  1
  Rh  Rh233  1  0.79336521  0.18909215  -0.00490757  1
  Rh  Rh234  1  0.60415901  0.79226130  0.40044112  1
  Rh  Rh235  1  0.41180372  0.41120684  0.61205865  1
  Rh  Rh236  1  -0.00250734  0.00759063  0.79908463  1
  Rh  Rh237  1  0.60624280  0.19908368  0.79682958  1
  Rh  Rh238  1  0.60142118  0.59260631  0.80631347  1
  Rh  Rh239  1  0.79619834  -0.01211111  0.18327416  1
  Rh  Rh240  1  0.80301954  0.20514477  0.79578750  1
  Rh  Rh241  1  0.58900321  0.59490293  0.59313551  1
  Rh  Rh242  1  -0.00513240  0.39781809  0.80800568  1
  Rh  Rh243  1  0.39932733  0.00043333  0.60762728  1
  Rh  Rh244  1  0.19880169  0.20737991  0.80084800  1
  Rh  Rh245  1  0.80291253  -0.00355723  0.60041349  1
  Rh  Rh246  1  0.60768258  0.80622651  0.78928142  1
  Rh  Rh247  1  0.20402454  -0.00319990  0.80957519  1
  Rh  Rh248  1  0.79860755  0.60007521  0.20486979  1
  Rh  Rh249  1  0.80110382  -0.00591834  0.80590365  1
