# generated using pymatgen
data_ZrScNbPdRh
_symmetry_space_group_name_H-M   'P 1'
_cell_length_a   16.55473874
_cell_length_b   16.55493685
_cell_length_c   16.55221927
_cell_angle_alpha   90.01101653
_cell_angle_beta   89.98879113
_cell_angle_gamma   89.98106807
_symmetry_Int_Tables_number   1
_chemical_formula_structural   ZrScNbPdRh
_chemical_formula_sum   'Zr50 Sc50 Nb50 Pd50 Rh50'
_cell_volume   4536.34473286
_cell_formula_units_Z   50
loop_
 _symmetry_equiv_pos_site_id
 _symmetry_equiv_pos_as_xyz
  1  'x, y, z'
loop_
 _atom_site_type_symbol
 _atom_site_label
 _atom_site_symmetry_multiplicity
 _atom_site_fract_x
 _atom_site_fract_y
 _atom_site_fract_z
 _atom_site_occupancy
  Zr  Zr0  1  0.29891537  0.70107502  0.69221285  1
  Zr  Zr1  1  0.70228551  0.50710390  0.90818994  1
  Zr  Zr2  1  0.89801128  0.50064208  0.10773545  1
  Zr  Zr3  1  0.30720236  0.49997806  0.30167306  1
  Zr  Zr4  1  0.69407050  0.89773329  0.89315942  1
  Zr  Zr5  1  0.10148479  0.30509888  0.89914740  1
  Zr  Zr6  1  0.50231127  0.09882873  0.50584717  1
  Zr  Zr7  1  0.30490346  0.70139399  0.49410677  1
  Zr  Zr8  1  0.09846994  0.50293261  0.09640274  1
  Zr  Zr9  1  0.29652248  0.29784058  0.69699437  1
  Zr  Zr10  1  0.89441994  0.29316589  0.89225230  1
  Zr  Zr11  1  0.49507827  0.69150449  0.30345494  1
  Zr  Zr12  1  0.09557463  0.70660668  0.70425630  1
  Zr  Zr13  1  0.69648912  0.30294647  0.10227088  1
  Zr  Zr14  1  0.70262654  0.30193985  0.50705237  1
  Zr  Zr15  1  0.08693124  0.49788721  0.49660734  1
  Zr  Zr16  1  0.49070145  0.69779907  0.90122367  1
  Zr  Zr17  1  0.31231344  0.30023510  0.30328517  1
  Zr  Zr18  1  0.50713496  0.30955865  0.70177566  1
  Zr  Zr19  1  0.90553707  0.09791884  0.09312861  1
  Zr  Zr20  1  0.49870979  0.30325975  0.90320376  1
  Zr  Zr21  1  0.30384118  0.69852039  0.29421290  1
  Zr  Zr22  1  0.10958430  0.70507265  0.91437489  1
  Zr  Zr23  1  0.49950149  0.29701417  0.10147699  1
  Zr  Zr24  1  0.69540160  0.30158958  0.89804930  1
  Zr  Zr25  1  0.09680834  0.70136147  0.29953161  1
  Zr  Zr26  1  0.89768297  0.69672984  0.10897032  1
  Zr  Zr27  1  0.90234585  0.89997903  0.90104769  1
  Zr  Zr28  1  0.89130593  0.10412974  0.69627173  1
  Zr  Zr29  1  0.90065518  0.68290344  0.49853973  1
  Zr  Zr30  1  0.09952562  0.90428542  0.49514187  1
  Zr  Zr31  1  0.47991586  0.70507364  0.10342550  1
  Zr  Zr32  1  0.69776707  0.89474241  0.49840623  1
  Zr  Zr33  1  0.29901254  0.50081226  0.49937261  1
  Zr  Zr34  1  0.70262744  0.30612060  0.30180409  1
  Zr  Zr35  1  0.09822450  0.90073386  0.89827534  1
  Zr  Zr36  1  0.69806883  0.09740410  0.89475839  1
  Zr  Zr37  1  0.29089287  0.69788982  0.08591247  1
  Zr  Zr38  1  0.89435926  0.50506709  0.69130403  1
  Zr  Zr39  1  0.10040935  0.30497483  0.30439542  1
  Zr  Zr40  1  0.09696985  0.29620631  0.69879163  1
  Zr  Zr41  1  0.49557611  0.90029879  0.50811508  1
  Zr  Zr42  1  0.29879117  0.10590106  0.29035732  1
  Zr  Zr43  1  0.50008700  0.49793261  0.29742771  1
  Zr  Zr44  1  0.90456977  0.09986407  0.30549896  1
  Zr  Zr45  1  0.09892387  0.90135590  0.70094157  1
  Zr  Zr46  1  0.70476621  0.89629005  0.29940878  1
  Zr  Zr47  1  0.70303736  0.50500635  0.10302652  1
  Zr  Zr48  1  0.49849588  0.48897140  0.89420468  1
  Zr  Zr49  1  0.49867615  0.91021531  0.90420285  1
  Sc  Sc50  1  0.70656253  0.50521437  0.50100132  1
  Sc  Sc51  1  0.69792509  0.90811816  0.10394367  1
  Sc  Sc52  1  0.89568321  0.69316409  0.88908656  1
  Sc  Sc53  1  0.49293790  0.10828346  0.30045971  1
  Sc  Sc54  1  0.90117995  0.89386638  0.10317844  1
  Sc  Sc55  1  0.31095926  0.50165973  0.69907617  1
  Sc  Sc56  1  0.50062813  0.49811842  0.69871715  1
  Sc  Sc57  1  0.31228636  0.89954522  0.10148891  1
  Sc  Sc58  1  0.29174392  0.29527656  0.10440787  1
  Sc  Sc59  1  0.70618512  0.69968392  0.30846059  1
  Sc  Sc60  1  0.50052867  0.90477721  0.69769901  1
  Sc  Sc61  1  0.09001612  0.10276589  0.50507535  1
  Sc  Sc62  1  0.10909483  0.09686076  0.30389482  1
  Sc  Sc63  1  0.70369531  0.09751678  0.29913719  1
  Sc  Sc64  1  0.30031021  0.49597381  0.10260179  1
  Sc  Sc65  1  0.89641902  0.69746494  0.29614728  1
  Sc  Sc66  1  0.30698539  0.09768789  0.50170625  1
  Sc  Sc67  1  0.49778850  0.69813683  0.69614468  1
  Sc  Sc68  1  0.09006945  0.89093876  0.08851006  1
  Sc  Sc69  1  0.29502554  0.90458461  0.89858349  1
  Sc  Sc70  1  0.10395719  0.69369155  0.50267336  1
  Sc  Sc71  1  0.50842032  0.70167232  0.49884635  1
  Sc  Sc72  1  0.70328813  0.49787005  0.30279768  1
  Sc  Sc73  1  0.90409841  0.69381431  0.70076807  1
  Sc  Sc74  1  0.30632193  0.49807237  0.90169980  1
  Sc  Sc75  1  0.70010411  0.90677348  0.70173256  1
  Sc  Sc76  1  0.90160916  0.89706175  0.69641087  1
  Sc  Sc77  1  0.29628786  0.30265436  0.89742846  1
  Sc  Sc78  1  0.70443226  0.69921192  0.70603871  1
  Sc  Sc79  1  0.29884948  0.09885829  0.71145123  1
  Sc  Sc80  1  0.49846944  0.48804394  0.09566028  1
  Sc  Sc81  1  0.90350921  0.91523186  0.50275933  1
  Sc  Sc82  1  0.70016866  0.49000411  0.69466285  1
  Sc  Sc83  1  0.89727681  0.89841156  0.29502898  1
  Sc  Sc84  1  0.51060825  0.50535483  0.50170706  1
  Sc  Sc85  1  0.10392843  0.10292120  0.89903029  1
  Sc  Sc86  1  0.90101499  0.10410107  0.50318804  1
  Sc  Sc87  1  0.50258039  0.30079826  0.29725801  1
  Sc  Sc88  1  0.70421425  0.10332909  0.50828921  1
  Sc  Sc89  1  0.90268685  0.50455247  0.89242389  1
  Sc  Sc90  1  0.10028025  0.10836451  0.69656368  1
  Sc  Sc91  1  0.50572029  0.29807124  0.49479053  1
  Sc  Sc92  1  0.09847212  0.50005017  0.90013603  1
  Sc  Sc93  1  0.09159711  0.50135173  0.70414467  1
  Sc  Sc94  1  0.30507818  0.89622740  0.49973011  1
  Sc  Sc95  1  0.69528587  0.10151216  0.09897655  1
  Sc  Sc96  1  0.49147746  0.90032754  0.29401243  1
  Sc  Sc97  1  0.10232581  0.50124531  0.30143096  1
  Sc  Sc98  1  0.49976415  0.08652083  0.09894151  1
  Sc  Sc99  1  0.29272860  0.90279639  0.30625561  1
  Nb  Nb100  1  0.10809068  0.10981226  0.10382780  1
  Nb  Nb101  1  0.10046304  0.90008827  0.30179488  1
  Nb  Nb102  1  0.30201529  0.69795405  0.90032569  1
  Nb  Nb103  1  0.70249057  0.70004674  0.49722146  1
  Nb  Nb104  1  0.29734943  0.89907298  0.69577138  1
  Nb  Nb105  1  0.70133481  0.69362338  0.09733173  1
  Nb  Nb106  1  0.89846320  0.30503086  0.29957324  1
  Nb  Nb107  1  0.10148212  0.29643580  0.50616341  1
  Nb  Nb108  1  0.90063992  0.09921984  0.90094294  1
  Nb  Nb109  1  0.30305817  0.09544194  0.90487162  1
  Nb  Nb110  1  0.50036876  0.10198392  0.70037774  1
  Nb  Nb111  1  0.29201963  0.10523046  0.10047397  1
  Nb  Nb112  1  0.09743644  0.29881260  0.09781881  1
  Nb  Nb113  1  0.90794255  0.30579002  0.49530375  1
  Nb  Nb114  1  0.89870545  0.49735374  0.49794023  1
  Nb  Nb115  1  0.89589311  0.49342149  0.31105121  1
  Nb  Nb116  1  0.90281870  0.30334502  0.10199626  1
  Nb  Nb117  1  0.70522909  0.29527067  0.69958135  1
  Nb  Nb118  1  0.49425425  0.09616436  0.89428126  1
  Nb  Nb119  1  0.69821942  0.69669120  0.90450767  1
  Nb  Nb120  1  0.88968041  0.30020328  0.69708010  1
  Nb  Nb121  1  0.09909653  0.69971742  0.10301664  1
  Nb  Nb122  1  0.50192553  0.89468380  0.09594880  1
  Nb  Nb123  1  0.69795441  0.10873160  0.69462056  1
  Nb  Nb124  1  0.30070321  0.29725952  0.50222936  1
  Nb  Nb125  1  0.00281043  0.20459976  0.00294157  1
  Nb  Nb126  1  0.20300024  0.20738349  0.40748358  1
  Nb  Nb127  1  0.00946998  0.00477662  0.19596910  1
  Nb  Nb128  1  0.40460725  0.20040376  0.60608649  1
  Nb  Nb129  1  0.60023099  0.79500631  0.00402583  1
  Nb  Nb130  1  0.00131764  0.20448050  0.19804049  1
  Nb  Nb131  1  0.81040779  0.20664360  0.20009525  1
  Nb  Nb132  1  0.59881148  0.79440405  0.19370533  1
  Nb  Nb133  1  0.00205320  0.80149879  0.39950438  1
  Nb  Nb134  1  0.20040296  0.00828643  0.00680421  1
  Nb  Nb135  1  0.20167216  -0.00299932  0.60370999  1
  Nb  Nb136  1  0.20628356  0.60840540  0.80331055  1
  Nb  Nb137  1  0.59993820  0.59984100  0.80751064  1
  Nb  Nb138  1  0.79085690  0.79627059  -0.00102047  1
  Nb  Nb139  1  0.80497468  0.39715118  0.00306560  1
  Nb  Nb140  1  -0.00375087  0.00512455  0.80277908  1
  Nb  Nb141  1  0.59825554  -0.00378407  0.40271899  1
  Nb  Nb142  1  0.80178971  -0.00265446  -0.00645934  1
  Nb  Nb143  1  0.59787170  0.19689265  0.79489525  1
  Nb  Nb144  1  0.19381781  0.79729931  0.19571668  1
  Nb  Nb145  1  0.79817072  0.79476986  0.59140699  1
  Nb  Nb146  1  0.39292156  0.79990616  0.79847306  1
  Nb  Nb147  1  0.19702317  0.39541720  0.59501207  1
  Nb  Nb148  1  0.59862993  0.60657724  0.19595699  1
  Nb  Nb149  1  0.39549380  0.18966510  -0.00294536  1
  Pd  Pd150  1  0.58897355  0.18964975  -0.00542671  1
  Pd  Pd151  1  -0.00723178  0.39860398  -0.00599057  1
  Pd  Pd152  1  0.40840107  0.60211307  0.59326304  1
  Pd  Pd153  1  0.39669449  -0.00809018  0.79347666  1
  Pd  Pd154  1  0.00311856  0.40279579  0.20557165  1
  Pd  Pd155  1  0.79768025  0.40761184  0.80417245  1
  Pd  Pd156  1  0.58984562  0.79236667  0.80123646  1
  Pd  Pd157  1  0.80771996  0.00665696  0.19189557  1
  Pd  Pd158  1  0.40151790  0.39584304  0.59332923  1
  Pd  Pd159  1  0.39901317  0.00121480  0.19877872  1
  Pd  Pd160  1  0.79900196  0.20202473  0.39994134  1
  Pd  Pd161  1  0.40291639  0.20582374  0.80099460  1
  Pd  Pd162  1  0.00674074  0.20097341  0.39701946  1
  Pd  Pd163  1  0.19408179  -0.01518917  0.18878509  1
  Pd  Pd164  1  -0.00562154  0.60387617  -0.00368857  1
  Pd  Pd165  1  0.19302456  0.58839703  0.60877254  1
  Pd  Pd166  1  0.20045516  0.39719356  0.40600255  1
  Pd  Pd167  1  0.81624501  0.80104453  0.40733431  1
  Pd  Pd168  1  0.00025322  0.19554232  0.80178666  1
  Pd  Pd169  1  0.40039844  0.58741690  0.00372333  1
  Pd  Pd170  1  0.80430763  0.00174627  0.79729712  1
  Pd  Pd171  1  0.19926861  0.60093091  0.39837440  1
  Pd  Pd172  1  -0.00974343  0.79734991  0.58824249  1
  Pd  Pd173  1  0.20160461  0.60172483  0.19871890  1
  Pd  Pd174  1  -0.00139457  0.39659281  0.60458567  1
  Pd  Pd175  1  0.60336305  0.19473944  0.20556688  1
  Pd  Pd176  1  0.79506771  0.00193639  0.40556828  1
  Pd  Pd177  1  -0.01433034  0.78521394  -0.00360307  1
  Pd  Pd178  1  0.41098828  0.40254523  0.40946714  1
  Pd  Pd179  1  0.60518138  0.19207438  0.39679663  1
  Pd  Pd180  1  0.60580101  -0.00034238  0.59900208  1
  Pd  Pd181  1  0.20441024  0.41333566  0.79068839  1
  Pd  Pd182  1  0.58484845  0.60137404  0.00333599  1
  Pd  Pd183  1  0.60697871  0.79494114  0.60912798  1
  Pd  Pd184  1  0.20080405  0.19674464  0.80538448  1
  Pd  Pd185  1  0.60244474  0.40507527  0.40370669  1
  Pd  Pd186  1  0.60804635  0.60248086  0.60927408  1
  Pd  Pd187  1  0.20389540  0.40295313  0.00207816  1
  Pd  Pd188  1  0.40445706  0.80295630  0.39698747  1
  Pd  Pd189  1  0.20151380  0.39825453  0.19927816  1
  Pd  Pd190  1  -0.00755944  0.40044088  0.79513093  1
  Pd  Pd191  1  -0.00189570  0.59200995  0.20850520  1
  Pd  Pd192  1  0.80206626  0.19982344  0.00601111  1
  Pd  Pd193  1  0.20251370  0.01051343  0.41051378  1
  Pd  Pd194  1  0.20614253  0.79795006  0.80269400  1
  Pd  Pd195  1  0.59566552  -0.00356432  0.20905375  1
  Pd  Pd196  1  0.59169465  0.80408592  0.39025339  1
  Pd  Pd197  1  0.19876157  0.80498029  0.59027578  1
  Pd  Pd198  1  0.80388990  0.79743369  0.79604143  1
  Pd  Pd199  1  0.40248423  0.00241322  0.39623335  1
  Rh  Rh200  1  0.20048743  0.58923840  -0.00578301  1
  Rh  Rh201  1  0.59887739  0.00925783  0.79196245  1
  Rh  Rh202  1  0.60520690  0.59957612  0.39239917  1
  Rh  Rh203  1  0.20065496  0.19903890  -0.00817567  1
  Rh  Rh204  1  0.19698449  0.21099640  0.21247400  1
  Rh  Rh205  1  0.79464325  0.60482535  0.60073687  1
  Rh  Rh206  1  0.39683780  0.19961873  0.40852550  1
  Rh  Rh207  1  -0.00131239  -0.00486437  0.38995710  1
  Rh  Rh208  1  0.40360607  0.59536485  0.40917218  1
  Rh  Rh209  1  0.81269803  0.60127691  -0.00043836  1
  Rh  Rh210  1  0.19550069  0.79567065  0.39520210  1
  Rh  Rh211  1  0.39787184  0.81031897  -0.01278429  1
  Rh  Rh212  1  0.80639153  0.20709922  0.59288281  1
  Rh  Rh213  1  0.00607195  0.00736999  0.61228762  1
  Rh  Rh214  1  0.59465162  0.20629971  0.60627577  1
  Rh  Rh215  1  0.39361879  0.80453843  0.20641798  1
  Rh  Rh216  1  0.19288863  0.00227976  0.79900600  1
  Rh  Rh217  1  0.01502834  0.60693611  0.80594876  1
  Rh  Rh218  1  0.79313286  0.19576303  0.79750553  1
  Rh  Rh219  1  0.39383918  0.00334147  0.00517969  1
  Rh  Rh220  1  0.79495579  0.59843793  0.21143720  1
  Rh  Rh221  1  0.00359639  0.59827887  0.60205874  1
  Rh  Rh222  1  0.39063635  0.00740433  0.60988080  1
  Rh  Rh223  1  0.78921307  0.59415300  0.79386135  1
  Rh  Rh224  1  0.40435189  0.19727619  0.18831861  1
  Rh  Rh225  1  0.39138826  0.38547470  0.00499541  1
  Rh  Rh226  1  0.39926563  0.39600768  0.19716359  1
  Rh  Rh227  1  0.00663328  0.80810137  0.20690013  1
  Rh  Rh228  1  -0.00204329  0.39962913  0.39940925  1
  Rh  Rh229  1  0.39373524  0.39686162  0.79831960  1
  Rh  Rh230  1  0.20805130  0.81350903  0.00750638  1
  Rh  Rh231  1  0.60613322  -0.00234565  -0.00055791  1
  Rh  Rh232  1  -0.00390761  0.80321759  0.80276157  1
  Rh  Rh233  1  0.60801090  0.40215170  0.79881440  1
  Rh  Rh234  1  0.80624138  0.39551544  0.59408086  1
  Rh  Rh235  1  0.78944017  0.79695784  0.19278845  1
  Rh  Rh236  1  0.40313986  0.79921462  0.60457218  1
  Rh  Rh237  1  0.40028879  0.60423555  0.79682119  1
  Rh  Rh238  1  0.21065896  0.19405485  0.59386465  1
  Rh  Rh239  1  0.80037111  0.39868639  0.19844885  1
  Rh  Rh240  1  0.79944892  0.59489541  0.39812166  1
  Rh  Rh241  1  0.60806396  0.40260426  0.00362643  1
  Rh  Rh242  1  0.60116472  0.40770644  0.20064895  1
  Rh  Rh243  1  -0.00350563  0.60118763  0.39339691  1
  Rh  Rh244  1  0.60423120  0.39949883  0.59644137  1
  Rh  Rh245  1  -0.01150813  0.20681021  0.60211424  1
  Rh  Rh246  1  0.40290589  0.58899881  0.19320911  1
  Rh  Rh247  1  0.79621557  -0.00427005  0.60199944  1
  Rh  Rh248  1  0.00710847  0.01168826  -0.00164805  1
  Rh  Rh249  1  0.80073785  0.39834866  0.40810134  1
