# generated using pymatgen
data_ZrScNbPdRh
_symmetry_space_group_name_H-M   'P 1'
_cell_length_a   16.55881080
_cell_length_b   16.55727550
_cell_length_c   16.56199682
_cell_angle_alpha   90.00591296
_cell_angle_beta   90.02114200
_cell_angle_gamma   89.99099813
_symmetry_Int_Tables_number   1
_chemical_formula_structural   ZrScNbPdRh
_chemical_formula_sum   'Zr50 Sc50 Nb50 Pd50 Rh50'
_cell_volume   4540.78228021
_cell_formula_units_Z   50
loop_
 _symmetry_equiv_pos_site_id
 _symmetry_equiv_pos_as_xyz
  1  'x, y, z'
loop_
 _atom_site_type_symbol
 _atom_site_label
 _atom_site_symmetry_multiplicity
 _atom_site_fract_x
 _atom_site_fract_y
 _atom_site_fract_z
 _atom_site_occupancy
  Zr  Zr0  1  0.49549286  0.71190274  0.11122633  1
  Zr  Zr1  1  0.29714940  0.29554075  0.69902431  1
  Zr  Zr2  1  0.09810871  0.91012631  0.09923334  1
  Zr  Zr3  1  0.50136934  0.69337174  0.91855025  1
  Zr  Zr4  1  0.09291262  0.29062425  0.30030798  1
  Zr  Zr5  1  0.70597776  0.30077385  0.09853294  1
  Zr  Zr6  1  0.69626766  0.09492805  0.10006197  1
  Zr  Zr7  1  0.30271269  0.69838147  0.09430032  1
  Zr  Zr8  1  0.50393944  0.91267547  0.10514507  1
  Zr  Zr9  1  0.70006256  0.31185247  0.69565573  1
  Zr  Zr10  1  0.90376186  0.50282642  0.90331988  1
  Zr  Zr11  1  0.89297762  0.90357996  0.89145810  1
  Zr  Zr12  1  0.90626100  0.30368252  0.49454650  1
  Zr  Zr13  1  0.70349202  0.90075131  0.10512067  1
  Zr  Zr14  1  0.30131195  0.29408018  0.30655223  1
  Zr  Zr15  1  0.10377970  0.90723127  0.29954503  1
  Zr  Zr16  1  0.90508026  0.10559959  0.09273953  1
  Zr  Zr17  1  0.50277337  0.90202923  0.50018357  1
  Zr  Zr18  1  0.30188708  0.49807666  0.29903836  1
  Zr  Zr19  1  0.51505386  0.50331781  0.69230366  1
  Zr  Zr20  1  0.10434794  0.49440194  0.29186569  1
  Zr  Zr21  1  0.49433406  0.09007413  0.29330137  1
  Zr  Zr22  1  0.69953600  0.10476676  0.50266099  1
  Zr  Zr23  1  0.90149034  0.10029038  0.89893765  1
  Zr  Zr24  1  0.71720259  0.89374334  0.70919680  1
  Zr  Zr25  1  0.89545054  0.71446653  0.69276601  1
  Zr  Zr26  1  0.09949024  0.69562751  0.70729069  1
  Zr  Zr27  1  0.29200516  0.10461045  0.89464872  1
  Zr  Zr28  1  0.09940975  0.29974050  0.10810205  1
  Zr  Zr29  1  0.69524386  0.30066064  0.89298137  1
  Zr  Zr30  1  0.10888329  0.90377408  0.49673011  1
  Zr  Zr31  1  0.89504732  0.70027274  0.09781277  1
  Zr  Zr32  1  0.70792594  0.90808099  0.49936287  1
  Zr  Zr33  1  0.09421656  0.50786087  0.89156414  1
  Zr  Zr34  1  0.30671405  0.48978510  0.50088504  1
  Zr  Zr35  1  0.90386337  0.69353362  0.90351347  1
  Zr  Zr36  1  0.09946620  0.09862282  0.90654046  1
  Zr  Zr37  1  0.69985470  0.49653985  0.10719028  1
  Zr  Zr38  1  0.88911419  0.89582639  0.29872137  1
  Zr  Zr39  1  0.29372604  0.90024984  0.30975300  1
  Zr  Zr40  1  0.29878079  0.90390213  0.50611133  1
  Zr  Zr41  1  0.29999188  0.48882782  0.90016292  1
  Zr  Zr42  1  0.90659128  0.10677413  0.30072787  1
  Zr  Zr43  1  0.89201172  0.10479756  0.49768727  1
  Zr  Zr44  1  0.89863650  0.29821221  0.69166416  1
  Zr  Zr45  1  0.29954813  0.70662084  0.70075817  1
  Zr  Zr46  1  0.49046416  0.29849972  0.49812522  1
  Zr  Zr47  1  0.11249001  0.29198658  0.90264647  1
  Zr  Zr48  1  0.29240400  0.50110140  0.10522972  1
  Zr  Zr49  1  0.29781147  0.89708130  0.09348428  1
  Sc  Sc50  1  0.49947657  0.09843767  0.50252442  1
  Sc  Sc51  1  0.69031644  0.69587391  0.09504658  1
  Sc  Sc52  1  0.30039561  0.10648521  0.50054182  1
  Sc  Sc53  1  0.09026405  0.49333402  0.70364147  1
  Sc  Sc54  1  0.10297638  0.90509264  0.69298703  1
  Sc  Sc55  1  0.70262830  0.70678584  0.29901892  1
  Sc  Sc56  1  0.90185665  0.90156255  0.09608640  1
  Sc  Sc57  1  0.29254763  0.71383521  0.89750843  1
  Sc  Sc58  1  0.90601993  0.10077194  0.69889714  1
  Sc  Sc59  1  0.29487259  0.10074580  0.30440809  1
  Sc  Sc60  1  0.30480358  0.69562630  0.29161131  1
  Sc  Sc61  1  0.89985203  0.30102316  0.90947393  1
  Sc  Sc62  1  0.48838225  0.09837354  0.89619247  1
  Sc  Sc63  1  0.49777997  0.49576881  0.50164315  1
  Sc  Sc64  1  0.90159207  0.31021168  0.09927429  1
  Sc  Sc65  1  0.70210461  0.50349054  0.88619283  1
  Sc  Sc66  1  0.29644740  0.90134706  0.70104622  1
  Sc  Sc67  1  0.89494935  0.49085608  0.70520116  1
  Sc  Sc68  1  0.50815179  0.29857315  0.70839731  1
  Sc  Sc69  1  0.09971742  0.49364900  0.10365935  1
  Sc  Sc70  1  0.71443286  0.69447067  0.49851292  1
  Sc  Sc71  1  0.69804730  0.10551728  0.69452687  1
  Sc  Sc72  1  0.70230469  0.09983631  0.31453221  1
  Sc  Sc73  1  0.70173555  0.68871639  0.69851332  1
  Sc  Sc74  1  0.30132725  0.70566897  0.50078259  1
  Sc  Sc75  1  0.50381052  0.30239234  0.30901372  1
  Sc  Sc76  1  0.50584845  0.52045945  0.09707641  1
  Sc  Sc77  1  0.70831472  0.09599368  0.90386994  1
  Sc  Sc78  1  0.10212065  0.10360596  0.70549949  1
  Sc  Sc79  1  0.08533218  0.49059129  0.49621826  1
  Sc  Sc80  1  0.70042868  0.48742876  0.30103821  1
  Sc  Sc81  1  0.49636312  0.09982690  0.69559685  1
  Sc  Sc82  1  0.11236066  0.90179291  0.90664749  1
  Sc  Sc83  1  0.70662147  0.90295069  0.90764905  1
  Sc  Sc84  1  0.49954785  0.49862411  0.89979631  1
  Sc  Sc85  1  0.88921385  0.69355997  0.31455426  1
  Sc  Sc86  1  0.09848104  0.10011178  0.10446780  1
  Sc  Sc87  1  0.30031860  0.90705532  0.89306479  1
  Sc  Sc88  1  0.69458399  0.89835984  0.30667677  1
  Sc  Sc89  1  0.49831804  0.69942690  0.69594794  1
  Sc  Sc90  1  0.09541491  0.70114716  0.08799341  1
  Sc  Sc91  1  0.10291846  0.10665847  0.50209984  1
  Sc  Sc92  1  0.30079490  0.29982081  0.09314257  1
  Sc  Sc93  1  0.90089951  0.48936503  0.30972967  1
  Sc  Sc94  1  0.90501701  0.90460507  0.69315119  1
  Sc  Sc95  1  0.09290008  0.29791142  0.69074917  1
  Sc  Sc96  1  0.10053728  0.70578990  0.49958511  1
  Sc  Sc97  1  0.49929874  0.69364090  0.50763484  1
  Sc  Sc98  1  0.48369194  0.90083440  0.69704090  1
  Sc  Sc99  1  0.29823887  0.49136727  0.70097674  1
  Nb  Nb100  1  0.89279421  0.51010517  0.49116857  1
  Nb  Nb101  1  0.70124526  0.29941120  0.49421418  1
  Nb  Nb102  1  0.69482425  0.49356580  0.69299182  1
  Nb  Nb103  1  0.30811580  0.30133206  0.89663487  1
  Nb  Nb104  1  0.49920209  0.29685001  0.10030400  1
  Nb  Nb105  1  0.90583536  0.89372647  0.50213791  1
  Nb  Nb106  1  0.29612539  0.29842027  0.49801598  1
  Nb  Nb107  1  0.70002915  0.70187087  0.89681996  1
  Nb  Nb108  1  0.09466371  0.09916856  0.29775525  1
  Nb  Nb109  1  0.49991295  0.89056751  0.29868396  1
  Nb  Nb110  1  0.10427745  0.69857620  0.30006409  1
  Nb  Nb111  1  0.09632543  0.69702439  0.89539858  1
  Nb  Nb112  1  0.69810276  0.49904867  0.50614088  1
  Nb  Nb113  1  0.29974865  0.09132809  0.70422338  1
  Nb  Nb114  1  0.50327618  0.69982110  0.29877348  1
  Nb  Nb115  1  0.31775669  0.09633401  0.09860570  1
  Nb  Nb116  1  0.50425468  0.89914816  0.89455366  1
  Nb  Nb117  1  0.49565723  0.30219852  0.90420684  1
  Nb  Nb118  1  0.70356122  0.30029491  0.29922360  1
  Nb  Nb119  1  0.10163491  0.29873877  0.50042780  1
  Nb  Nb120  1  0.90247136  0.70105210  0.50110920  1
  Nb  Nb121  1  0.89655695  0.29854207  0.30230001  1
  Nb  Nb122  1  0.50085207  0.50432574  0.30077703  1
  Nb  Nb123  1  0.49872104  0.10168407  0.10420637  1
  Nb  Nb124  1  0.90179006  0.50147899  0.10236880  1
  Nb  Nb125  1  0.00219944  0.79830883  0.80398162  1
  Nb  Nb126  1  0.19412426  0.59447522  0.59540200  1
  Nb  Nb127  1  0.60661624  0.80385045  0.60448685  1
  Nb  Nb128  1  0.19964297  0.59335938  0.40345763  1
  Nb  Nb129  1  -0.00132132  -0.00206675  0.40018131  1
  Nb  Nb130  1  0.19940427  0.39402242  0.40436913  1
  Nb  Nb131  1  0.80436002  0.59413250  0.19894382  1
  Nb  Nb132  1  0.00198127  0.79482175  0.20755681  1
  Nb  Nb133  1  0.80076710  0.00797544  0.20202746  1
  Nb  Nb134  1  0.79958892  0.20568745  0.79759991  1
  Nb  Nb135  1  0.79719818  0.20198677  0.20401067  1
  Nb  Nb136  1  0.19693437  0.59940994  -0.00838797  1
  Nb  Nb137  1  -0.00662791  0.60136852  0.59505182  1
  Nb  Nb138  1  0.59509603  0.39312997  0.00039525  1
  Nb  Nb139  1  0.60069732  0.80009920  0.80244531  1
  Nb  Nb140  1  0.59760614  0.59683500  0.39553200  1
  Nb  Nb141  1  0.40781609  0.80074791  0.39488777  1
  Nb  Nb142  1  0.40825544  0.40215335  0.19972937  1
  Nb  Nb143  1  -0.00481995  0.60307262  0.20195162  1
  Nb  Nb144  1  0.59861790  -0.00878531  0.79949059  1
  Nb  Nb145  1  0.00015214  0.80221763  0.39953522  1
  Nb  Nb146  1  0.59065955  0.20180025  0.00312847  1
  Nb  Nb147  1  0.19480522  0.79985527  0.19776419  1
  Nb  Nb148  1  0.60065327  0.20077071  0.19826405  1
  Nb  Nb149  1  0.39840822  0.60059557  0.80150067  1
  Pd  Pd150  1  0.80559754  0.59293376  0.60695315  1
  Pd  Pd151  1  0.19110457  0.40470930  0.59652496  1
  Pd  Pd152  1  0.00219147  0.80846213  -0.00501165  1
  Pd  Pd153  1  0.40812249  0.79303115  0.80533513  1
  Pd  Pd154  1  0.60050301  -0.00880036  0.61267036  1
  Pd  Pd155  1  0.79682750  0.79929228  -0.00087840  1
  Pd  Pd156  1  0.20847016  0.19391301  0.19341966  1
  Pd  Pd157  1  0.39069295  -0.00869869  0.20428747  1
  Pd  Pd158  1  -0.00463758  0.20658306  0.80261760  1
  Pd  Pd159  1  0.00757730  0.60480399  0.39888229  1
  Pd  Pd160  1  0.80430241  0.00424971  0.60459361  1
  Pd  Pd161  1  0.40387851  0.20693375  0.20637740  1
  Pd  Pd162  1  0.39989971  0.19811240  -0.00426017  1
  Pd  Pd163  1  0.59461896  0.00705021  -0.01020490  1
  Pd  Pd164  1  0.40011906  -0.00251612  -0.00740863  1
  Pd  Pd165  1  0.00994884  0.40043684  -0.00240991  1
  Pd  Pd166  1  0.59102924  0.39590775  0.19641264  1
  Pd  Pd167  1  0.60661188  0.80111213  0.19987757  1
  Pd  Pd168  1  0.39847705  0.19897069  0.60426992  1
  Pd  Pd169  1  0.60181162  0.40467642  0.40709249  1
  Pd  Pd170  1  0.40285858  0.59605075  0.19875744  1
  Pd  Pd171  1  0.00299763  0.00885078  0.59279752  1
  Pd  Pd172  1  0.40754096  0.39337982  0.61100939  1
  Pd  Pd173  1  0.59718543  0.00255966  0.39632658  1
  Pd  Pd174  1  0.38977565  0.59715606  0.60803363  1
  Pd  Pd175  1  0.60205450  0.80567734  -0.00068003  1
  Pd  Pd176  1  0.59762537  0.20847785  0.59738633  1
  Pd  Pd177  1  -0.00063742  0.38710144  0.80618980  1
  Pd  Pd178  1  0.20062870  0.19533529  0.60514919  1
  Pd  Pd179  1  0.59309644  0.60653505  0.80242095  1
  Pd  Pd180  1  0.19263386  0.39230639  0.79533783  1
  Pd  Pd181  1  0.00976002  -0.00978468  0.80329995  1
  Pd  Pd182  1  0.19351318  0.40312471  -0.00110896  1
  Pd  Pd183  1  0.39970648  -0.00156102  0.40318841  1
  Pd  Pd184  1  0.40786840  0.40910789  0.01194773  1
  Pd  Pd185  1  0.21061981  0.59686920  0.79831499  1
  Pd  Pd186  1  0.80410105  0.60032289  0.79215523  1
  Pd  Pd187  1  0.60290470  0.18571394  0.80824641  1
  Pd  Pd188  1  0.79093256  0.59440419  0.00317045  1
  Pd  Pd189  1  0.40053594  0.60733087  0.40162519  1
  Pd  Pd190  1  0.39917597  0.19976207  0.79478600  1
  Pd  Pd191  1  0.79267488  0.40929832  -0.00786859  1
  Pd  Pd192  1  0.59383384  0.19621357  0.39581753  1
  Pd  Pd193  1  0.19499326  0.79540520  0.60339751  1
  Pd  Pd194  1  0.80507023  0.40405087  0.58946067  1
  Pd  Pd195  1  0.59807082  0.78879329  0.41169076  1
  Pd  Pd196  1  0.20515405  0.19403215  0.01179410  1
  Pd  Pd197  1  0.20905633  0.00559927  0.19465926  1
  Pd  Pd198  1  0.40946438  0.40448686  0.79084602  1
  Pd  Pd199  1  0.40265437  0.80985698  -0.00431078  1
  Rh  Rh200  1  0.18853748  0.61299212  0.18946027  1
  Rh  Rh201  1  0.59574966  0.40656425  0.80565074  1
  Rh  Rh202  1  0.61037511  0.60355627  0.21244566  1
  Rh  Rh203  1  0.80279102  0.78987582  0.80825715  1
  Rh  Rh204  1  0.79561205  0.39761860  0.40546312  1
  Rh  Rh205  1  0.79782535  0.20881780  0.39842058  1
  Rh  Rh206  1  0.00542823  0.20589128  0.00285697  1
  Rh  Rh207  1  0.20393718  0.00865712  0.60162366  1
  Rh  Rh208  1  0.40500725  0.19289312  0.40105680  1
  Rh  Rh209  1  0.18946144  0.80815490  0.79797112  1
  Rh  Rh210  1  -0.01449831  0.60863190  0.78593083  1
  Rh  Rh211  1  0.60736759  0.00282749  0.21061959  1
  Rh  Rh212  1  -0.00897043  0.40675949  0.59331533  1
  Rh  Rh213  1  0.80217221  0.39460661  0.80287037  1
  Rh  Rh214  1  0.19746273  0.00049926  0.79676624  1
  Rh  Rh215  1  0.39731071  0.39723181  0.39355245  1
  Rh  Rh216  1  0.39241953  0.80753411  0.20650333  1
  Rh  Rh217  1  0.79743953  0.19993090  -0.00236645  1
  Rh  Rh218  1  0.21123152  0.38469536  0.20598968  1
  Rh  Rh219  1  0.00014976  0.19766087  0.59495405  1
  Rh  Rh220  1  0.79370708  0.80271452  0.59244536  1
  Rh  Rh221  1  0.19332012  0.01627030  0.40370128  1
  Rh  Rh222  1  0.61098059  0.58901708  -0.00793498  1
  Rh  Rh223  1  -0.00966585  -0.00647548  0.20799779  1
  Rh  Rh224  1  0.20805177  0.78591074  0.39103293  1
  Rh  Rh225  1  0.78562290  0.58891999  0.39256932  1
  Rh  Rh226  1  0.20190194  0.20378688  0.79467360  1
  Rh  Rh227  1  0.80997977  0.39895008  0.20574376  1
  Rh  Rh228  1  -0.00700591  0.40226886  0.20482687  1
  Rh  Rh229  1  0.20963222  0.01195303  0.00623335  1
  Rh  Rh230  1  -0.00886450  0.20665846  0.19446499  1
  Rh  Rh231  1  0.60879003  0.60590385  0.58953394  1
  Rh  Rh232  1  0.19343081  0.20148675  0.40059198  1
  Rh  Rh233  1  0.79661553  0.20333886  0.60296369  1
  Rh  Rh234  1  0.80745717  -0.00219675  0.39903521  1
  Rh  Rh235  1  -0.00184820  -0.00236159  -0.00826438  1
  Rh  Rh236  1  0.80027819  0.79662123  0.19519519  1
  Rh  Rh237  1  0.80783916  -0.00089206  0.00871044  1
  Rh  Rh238  1  0.38471549  0.59552917  -0.00933452  1
  Rh  Rh239  1  0.00837953  0.59108525  0.00856621  1
  Rh  Rh240  1  0.00422140  0.39366615  0.39671138  1
  Rh  Rh241  1  0.80268099  0.80364600  0.40854369  1
  Rh  Rh242  1  0.00777919  0.79698266  0.59966843  1
  Rh  Rh243  1  0.40580517  0.80331091  0.58872441  1
  Rh  Rh244  1  0.59655340  0.39247192  0.59064016  1
  Rh  Rh245  1  0.39318243  0.00508679  0.59946783  1
  Rh  Rh246  1  0.19568082  0.79381871  0.00342136  1
  Rh  Rh247  1  0.79399570  0.01658141  0.79138534  1
  Rh  Rh248  1  0.40125596  0.00174475  0.79785276  1
  Rh  Rh249  1  0.00438932  0.19528592  0.40538958  1
