# generated using pymatgen
data_ZrScNbPdRh
_symmetry_space_group_name_H-M   'P 1'
_cell_length_a   16.55895409
_cell_length_b   16.56479757
_cell_length_c   16.55869844
_cell_angle_alpha   90.01001954
_cell_angle_beta   89.97117840
_cell_angle_gamma   89.98705343
_symmetry_Int_Tables_number   1
_chemical_formula_structural   ZrScNbPdRh
_chemical_formula_sum   'Zr50 Sc50 Nb50 Pd50 Rh50'
_cell_volume   4541.97939086
_cell_formula_units_Z   50
loop_
 _symmetry_equiv_pos_site_id
 _symmetry_equiv_pos_as_xyz
  1  'x, y, z'
loop_
 _atom_site_type_symbol
 _atom_site_label
 _atom_site_symmetry_multiplicity
 _atom_site_fract_x
 _atom_site_fract_y
 _atom_site_fract_z
 _atom_site_occupancy
  Zr  Zr0  1  0.89910621  0.89602279  0.70602305  1
  Zr  Zr1  1  0.30248443  0.10056117  0.09891204  1
  Zr  Zr2  1  0.09624767  0.10173954  0.10389387  1
  Zr  Zr3  1  0.29676771  0.70242145  0.09928118  1
  Zr  Zr4  1  0.09887046  0.71056064  0.69920860  1
  Zr  Zr5  1  0.49907322  0.29861371  0.49740590  1
  Zr  Zr6  1  0.70024274  0.29902888  0.09955562  1
  Zr  Zr7  1  0.50218003  0.71145258  0.28870232  1
  Zr  Zr8  1  0.70591864  0.90424297  0.89487783  1
  Zr  Zr9  1  0.89880005  0.49858495  0.90124640  1
  Zr  Zr10  1  0.30213489  0.89323444  0.70120266  1
  Zr  Zr11  1  0.70107776  0.89689014  0.49924828  1
  Zr  Zr12  1  0.70088486  0.69245479  0.29807027  1
  Zr  Zr13  1  0.50508439  0.69673352  0.90043487  1
  Zr  Zr14  1  0.70167023  0.89898009  0.70484143  1
  Zr  Zr15  1  0.49563652  0.29420749  0.29665565  1
  Zr  Zr16  1  0.50140688  0.89309805  0.89171239  1
  Zr  Zr17  1  0.50883042  0.29820757  0.88961134  1
  Zr  Zr18  1  0.89501161  0.70683218  0.10573243  1
  Zr  Zr19  1  0.90209154  0.50782519  0.30491849  1
  Zr  Zr20  1  0.89584277  0.29539636  0.30478333  1
  Zr  Zr21  1  0.09491656  0.10491226  0.29975466  1
  Zr  Zr22  1  0.69556822  0.50168548  0.69254237  1
  Zr  Zr23  1  0.50232780  0.69713427  0.09563165  1
  Zr  Zr24  1  0.09919747  0.90501814  0.70428763  1
  Zr  Zr25  1  0.09727759  0.10503395  0.50965920  1
  Zr  Zr26  1  0.29894880  0.09622334  0.90330848  1
  Zr  Zr27  1  0.10601549  0.31016244  0.31530481  1
  Zr  Zr28  1  0.70109281  0.50464912  0.09879403  1
  Zr  Zr29  1  0.90272359  0.89343798  0.29263237  1
  Zr  Zr30  1  0.69360190  0.70183923  0.09926464  1
  Zr  Zr31  1  0.49108769  0.09569162  0.10067659  1
  Zr  Zr32  1  0.49791290  0.49907553  0.89049582  1
  Zr  Zr33  1  0.50039276  0.29044391  0.09822289  1
  Zr  Zr34  1  0.90016375  0.31146727  0.69810444  1
  Zr  Zr35  1  0.69505024  0.29935544  0.70333696  1
  Zr  Zr36  1  0.10945400  0.70023526  0.49519994  1
  Zr  Zr37  1  0.30600759  0.51335108  0.50417240  1
  Zr  Zr38  1  0.29818071  0.69887726  0.69142640  1
  Zr  Zr39  1  0.69798048  0.10085801  0.70396167  1
  Zr  Zr40  1  0.10321003  0.49033215  0.69694413  1
  Zr  Zr41  1  0.09312268  0.29526793  0.10496663  1
  Zr  Zr42  1  0.50027011  0.49752348  0.50905406  1
  Zr  Zr43  1  0.50733496  0.90425579  0.30412148  1
  Zr  Zr44  1  0.29908549  0.29814074  0.89840925  1
  Zr  Zr45  1  0.09688305  0.49682433  0.90640073  1
  Zr  Zr46  1  0.89475120  0.90029721  0.89683368  1
  Zr  Zr47  1  0.69637076  0.29850701  0.50520081  1
  Zr  Zr48  1  0.91117938  0.09858318  0.10112747  1
  Zr  Zr49  1  0.69206204  0.30241446  0.30039806  1
  Sc  Sc50  1  0.29315494  0.49586221  0.88745279  1
  Sc  Sc51  1  0.51111305  0.30820915  0.69577685  1
  Sc  Sc52  1  0.70586128  0.11136676  0.09149366  1
  Sc  Sc53  1  0.49989737  0.90376123  0.49424908  1
  Sc  Sc54  1  0.10143124  0.69721283  0.09780814  1
  Sc  Sc55  1  0.90173105  0.09462557  0.30450953  1
  Sc  Sc56  1  0.08784876  0.89847462  0.30878637  1
  Sc  Sc57  1  0.90048029  0.29421047  0.09352401  1
  Sc  Sc58  1  0.71246045  0.50231939  0.89892097  1
  Sc  Sc59  1  0.89983166  0.09721804  0.90983326  1
  Sc  Sc60  1  0.70379296  0.10787297  0.30557002  1
  Sc  Sc61  1  0.09275647  0.89926730  0.10212047  1
  Sc  Sc62  1  0.29291734  0.29978599  0.49589755  1
  Sc  Sc63  1  0.28156619  0.30292206  0.69576752  1
  Sc  Sc64  1  0.10172303  0.50353688  0.10267565  1
  Sc  Sc65  1  0.89638817  0.70195808  0.69623323  1
  Sc  Sc66  1  0.90865632  0.09721107  0.69564970  1
  Sc  Sc67  1  0.29854080  0.70126475  0.31339086  1
  Sc  Sc68  1  0.09911255  0.89481140  0.49792686  1
  Sc  Sc69  1  0.29384323  0.89950426  0.90119342  1
  Sc  Sc70  1  0.29538108  0.70125849  0.89295961  1
  Sc  Sc71  1  0.70014068  0.10693535  0.49653046  1
  Sc  Sc72  1  0.10332906  0.89728703  0.89419900  1
  Sc  Sc73  1  0.29704112  0.49760418  0.10110462  1
  Sc  Sc74  1  0.50208303  0.88929131  0.69984046  1
  Sc  Sc75  1  0.50179647  0.50674584  0.09247800  1
  Sc  Sc76  1  0.10220133  0.10374548  0.70222124  1
  Sc  Sc77  1  0.70151585  0.69858149  0.50057156  1
  Sc  Sc78  1  0.50171480  0.68779129  0.50372420  1
  Sc  Sc79  1  0.50413855  0.49269249  0.31184451  1
  Sc  Sc80  1  0.29552223  0.49282217  0.30140503  1
  Sc  Sc81  1  0.30476215  0.88723789  0.50034453  1
  Sc  Sc82  1  0.70095886  0.88998294  0.30773583  1
  Sc  Sc83  1  0.30411457  0.29565968  0.10638862  1
  Sc  Sc84  1  0.90172313  0.50747541  0.50719292  1
  Sc  Sc85  1  0.90256201  0.89916444  0.48578350  1
  Sc  Sc86  1  0.49880628  0.89163558  0.10790578  1
  Sc  Sc87  1  0.90294660  0.50188152  0.08930939  1
  Sc  Sc88  1  0.89965828  0.70347914  0.50576116  1
  Sc  Sc89  1  0.10659133  0.70490937  0.90191591  1
  Sc  Sc90  1  0.89290825  0.50454459  0.69969733  1
  Sc  Sc91  1  0.90191520  0.70547876  0.30090837  1
  Sc  Sc92  1  0.31396650  0.89200455  0.30544594  1
  Sc  Sc93  1  0.50137583  0.10389715  0.90656837  1
  Sc  Sc94  1  0.30097119  0.29644446  0.30092108  1
  Sc  Sc95  1  0.10117431  0.30809956  0.90179216  1
  Sc  Sc96  1  0.89728890  0.30178391  0.51058002  1
  Sc  Sc97  1  0.70609725  0.70449825  0.69101131  1
  Sc  Sc98  1  0.10447660  0.10159825  0.90277540  1
  Sc  Sc99  1  0.30301241  0.90347814  0.09439025  1
  Nb  Nb100  1  0.09878946  0.70234066  0.29652861  1
  Nb  Nb101  1  0.68775993  0.50872945  0.49074355  1
  Nb  Nb102  1  0.89962133  0.10023827  0.49667426  1
  Nb  Nb103  1  0.70219761  0.69754226  0.89706742  1
  Nb  Nb104  1  0.30631231  0.09778458  0.49837950  1
  Nb  Nb105  1  0.09415237  0.29705542  0.68673366  1
  Nb  Nb106  1  0.49819121  0.50371449  0.69833706  1
  Nb  Nb107  1  0.70234650  0.10137978  0.89872647  1
  Nb  Nb108  1  0.49999120  0.10237198  0.69589176  1
  Nb  Nb109  1  0.89473023  0.90066081  0.09804765  1
  Nb  Nb110  1  0.70079448  0.49916762  0.30420543  1
  Nb  Nb111  1  0.89351437  0.69459431  0.89437489  1
  Nb  Nb112  1  0.49293915  0.09347580  0.30993084  1
  Nb  Nb113  1  0.30675293  0.50147599  0.69932425  1
  Nb  Nb114  1  0.09869816  0.49243237  0.48742758  1
  Nb  Nb115  1  0.09551378  0.50182716  0.30617150  1
  Nb  Nb116  1  0.09821175  0.30467249  0.51277364  1
  Nb  Nb117  1  0.50224832  0.69891131  0.70611272  1
  Nb  Nb118  1  0.49621452  0.09637922  0.49736992  1
  Nb  Nb119  1  0.70252695  0.29242880  0.90463189  1
  Nb  Nb120  1  0.89886074  0.30712323  0.90307270  1
  Nb  Nb121  1  0.29789570  0.09826624  0.69868212  1
  Nb  Nb122  1  0.70686173  0.90025832  0.09617417  1
  Nb  Nb123  1  0.30426831  0.09891519  0.30625660  1
  Nb  Nb124  1  0.29485716  0.70036311  0.50295122  1
  Nb  Nb125  1  0.20231905  -0.00071280  0.20970119  1
  Nb  Nb126  1  0.79193500  0.40674462  0.39938508  1
  Nb  Nb127  1  0.00146315  0.20389797  0.41078648  1
  Nb  Nb128  1  0.20842019  0.00297417  0.59645720  1
  Nb  Nb129  1  0.39970717  0.00619271  0.79431865  1
  Nb  Nb130  1  -0.00478594  0.21195289  0.79979950  1
  Nb  Nb131  1  0.20576711  0.00423251  0.40131053  1
  Nb  Nb132  1  0.60591420  -0.00232505  0.00298070  1
  Nb  Nb133  1  0.60773257  0.00067146  0.19776095  1
  Nb  Nb134  1  0.60173889  0.39646197  -0.00582517  1
  Nb  Nb135  1  0.39942538  0.60308747  0.20195754  1
  Nb  Nb136  1  0.19723833  0.80316401  0.20673501  1
  Nb  Nb137  1  0.80103491  0.40407613  0.20540562  1
  Nb  Nb138  1  -0.00236375  0.40288896  0.20899274  1
  Nb  Nb139  1  0.00010516  0.60073301  0.80171997  1
  Nb  Nb140  1  0.40228940  0.79444288  -0.00312375  1
  Nb  Nb141  1  0.79894631  -0.00054969  0.59725114  1
  Nb  Nb142  1  0.39832531  0.19518693  0.78975975  1
  Nb  Nb143  1  0.59909100  0.00447670  0.59905475  1
  Nb  Nb144  1  -0.01090433  0.79992558  -0.00287422  1
  Nb  Nb145  1  0.40555278  0.39693912  -0.00570851  1
  Nb  Nb146  1  0.80374270  0.20433014  0.80629312  1
  Nb  Nb147  1  0.39831643  0.19275744  0.60110274  1
  Nb  Nb148  1  0.59989926  0.60126066  0.79488123  1
  Nb  Nb149  1  0.79728932  -0.00431335  0.19391537  1
  Pd  Pd150  1  0.00625217  -0.00888406  -0.00607965  1
  Pd  Pd151  1  0.59010329  0.00592264  0.80142877  1
  Pd  Pd152  1  0.80539214  0.19582454  0.19851183  1
  Pd  Pd153  1  0.19195860  0.59443849  0.60098905  1
  Pd  Pd154  1  0.59708488  0.78987606  0.40746528  1
  Pd  Pd155  1  0.59963674  0.80820546  -0.00086746  1
  Pd  Pd156  1  0.59596149  0.18525272  0.20244589  1
  Pd  Pd157  1  0.38791128  0.59598257  0.00007421  1
  Pd  Pd158  1  -0.00016482  0.61072063  -0.00625693  1
  Pd  Pd159  1  0.59753342  0.40690184  0.19213598  1
  Pd  Pd160  1  -0.01241460  0.39549816  0.40652781  1
  Pd  Pd161  1  0.19697098  0.20398728  0.00391252  1
  Pd  Pd162  1  0.40578210  0.60293697  0.39289288  1
  Pd  Pd163  1  0.19287408  0.39926468  0.19872254  1
  Pd  Pd164  1  0.00787035  0.59809330  0.60512954  1
  Pd  Pd165  1  0.19658272  0.19709860  0.40773666  1
  Pd  Pd166  1  0.79201517  0.41040936  0.58942428  1
  Pd  Pd167  1  0.20018058  0.59603343  0.39465050  1
  Pd  Pd168  1  0.39812457  -0.00292558  0.20516851  1
  Pd  Pd169  1  0.39910700  0.60574038  0.79656923  1
  Pd  Pd170  1  -0.00008391  0.01227385  0.80714099  1
  Pd  Pd171  1  0.59576675  0.80192423  0.59645091  1
  Pd  Pd172  1  0.39311914  0.38980449  0.60626449  1
  Pd  Pd173  1  0.80084272  0.79327081  -0.00566124  1
  Pd  Pd174  1  0.39325385  0.39854335  0.40201882  1
  Pd  Pd175  1  0.20547393  0.19698410  0.20291422  1
  Pd  Pd176  1  0.59462491  0.19549531  0.39941172  1
  Pd  Pd177  1  0.40248707  -0.00174598  0.60253167  1
  Pd  Pd178  1  0.58983908  0.58958558  0.20765364  1
  Pd  Pd179  1  0.39562716  0.38897094  0.79098476  1
  Pd  Pd180  1  0.40947633  0.79050115  0.40991550  1
  Pd  Pd181  1  0.79551883  -0.00135116  0.39604861  1
  Pd  Pd182  1  0.20631502  0.39622927  0.00795020  1
  Pd  Pd183  1  0.20725213  0.40972441  0.59218821  1
  Pd  Pd184  1  0.19386426  0.20342746  0.79790305  1
  Pd  Pd185  1  0.20516155  0.59604263  -0.00443058  1
  Pd  Pd186  1  0.80314862  0.60189901  0.40752217  1
  Pd  Pd187  1  0.19156143  -0.00527349  0.00907482  1
  Pd  Pd188  1  0.00008713  0.59812112  0.19853416  1
  Pd  Pd189  1  0.79290338  0.39747149  0.80063812  1
  Pd  Pd190  1  -0.00273409  0.80612504  0.59542863  1
  Pd  Pd191  1  0.80486884  0.59625143  0.19642290  1
  Pd  Pd192  1  0.40893613  0.79193289  0.59439866  1
  Pd  Pd193  1  0.20562468  0.60544643  0.20924148  1
  Pd  Pd194  1  0.00029217  0.60920476  0.40483789  1
  Pd  Pd195  1  0.80449062  0.19276559  0.60774017  1
  Pd  Pd196  1  0.40781598  0.40903346  0.19268054  1
  Pd  Pd197  1  0.19162095  0.59819841  0.79623376  1
  Pd  Pd198  1  0.00311921  0.40231524  0.79828065  1
  Pd  Pd199  1  -0.00171459  -0.00935967  0.59364588  1
  Rh  Rh200  1  0.79408773  0.59944923  0.59487216  1
  Rh  Rh201  1  0.39343458  0.79979966  0.80567160  1
  Rh  Rh202  1  0.20141498  0.80093113  0.79672707  1
  Rh  Rh203  1  0.80949101  0.01289743  0.79343725  1
  Rh  Rh204  1  0.40095807  0.20156477  0.40289256  1
  Rh  Rh205  1  0.00152400  0.79002166  0.40235510  1
  Rh  Rh206  1  0.39455916  -0.00569848  0.40147461  1
  Rh  Rh207  1  0.80580449  0.81096612  0.59563567  1
  Rh  Rh208  1  0.40045260  0.20957736  -0.01016469  1
  Rh  Rh209  1  0.60153139  0.39708028  0.40570248  1
  Rh  Rh210  1  -0.00796519  0.20194320  0.60208157  1
  Rh  Rh211  1  0.38945821  0.79371569  0.19315082  1
  Rh  Rh212  1  0.80811817  0.19957656  -0.00483267  1
  Rh  Rh213  1  0.00723352  0.79766280  0.19158548  1
  Rh  Rh214  1  -0.00222802  0.78844778  0.81030460  1
  Rh  Rh215  1  0.59887098  0.19730207  -0.00118391  1
  Rh  Rh216  1  0.59421588  0.60457936  0.39355256  1
  Rh  Rh217  1  0.20495109  -0.00186662  0.79441117  1
  Rh  Rh218  1  0.60152157  0.40333591  0.59573858  1
  Rh  Rh219  1  0.00117097  0.39726344  0.01086363  1
  Rh  Rh220  1  0.20591467  0.19462241  0.59616668  1
  Rh  Rh221  1  0.79255107  0.80406071  0.20369524  1
  Rh  Rh222  1  0.00184802  0.20548886  -0.01419370  1
  Rh  Rh223  1  0.80188043  0.79151328  0.39935557  1
  Rh  Rh224  1  -0.00227660  -0.00569957  0.20036724  1
  Rh  Rh225  1  0.59883736  0.60302287  0.60708962  1
  Rh  Rh226  1  0.61040624  0.59055405  -0.01404185  1
  Rh  Rh227  1  0.60458109  0.00611573  0.39958755  1
  Rh  Rh228  1  0.60184364  0.19482875  0.80146631  1
  Rh  Rh229  1  0.61111079  0.78828567  0.79607351  1
  Rh  Rh230  1  0.79739873  0.79266779  0.79905994  1
  Rh  Rh231  1  0.19900450  0.80300590  0.00990919  1
  Rh  Rh232  1  0.61051608  0.80885850  0.19883656  1
  Rh  Rh233  1  0.20704643  0.40627738  0.40669330  1
  Rh  Rh234  1  0.79818614  0.60735130  0.00486111  1
  Rh  Rh235  1  -0.00077907  0.20992895  0.21295418  1
  Rh  Rh236  1  0.41328282  -0.01475146  -0.00980147  1
  Rh  Rh237  1  0.00001559  0.41001117  0.59526515  1
  Rh  Rh238  1  0.19720178  0.80530079  0.39471296  1
  Rh  Rh239  1  0.79982720  0.60471230  0.79257519  1
  Rh  Rh240  1  0.40155173  0.60538691  0.60609816  1
  Rh  Rh241  1  0.61108943  0.41185626  0.80506364  1
  Rh  Rh242  1  0.39782619  0.19339828  0.20712402  1
  Rh  Rh243  1  0.19800219  0.80806419  0.59853813  1
  Rh  Rh244  1  0.59109130  0.19448074  0.59354691  1
  Rh  Rh245  1  0.79553900  0.00748493  0.00633511  1
  Rh  Rh246  1  0.00646569  0.00956106  0.40521751  1
  Rh  Rh247  1  0.80663694  0.20700205  0.40918944  1
  Rh  Rh248  1  0.19554949  0.39874632  0.79477970  1
  Rh  Rh249  1  0.79466071  0.39642950  0.00738857  1
