# generated using pymatgen
data_ZrScNbPdRh
_symmetry_space_group_name_H-M   'P 1'
_cell_length_a   16.56660672
_cell_length_b   16.56664515
_cell_length_c   16.57150520
_cell_angle_alpha   89.98304161
_cell_angle_beta   90.02007875
_cell_angle_gamma   89.99798964
_symmetry_Int_Tables_number   1
_chemical_formula_structural   ZrScNbPdRh
_chemical_formula_sum   'Zr50 Sc50 Nb50 Pd50 Rh50'
_cell_volume   4548.10040518
_cell_formula_units_Z   50
loop_
 _symmetry_equiv_pos_site_id
 _symmetry_equiv_pos_as_xyz
  1  'x, y, z'
loop_
 _atom_site_type_symbol
 _atom_site_label
 _atom_site_symmetry_multiplicity
 _atom_site_fract_x
 _atom_site_fract_y
 _atom_site_fract_z
 _atom_site_occupancy
  Zr  Zr0  1  0.89611054  0.49937409  0.70201976  1
  Zr  Zr1  1  0.09668737  0.89156023  0.09816980  1
  Zr  Zr2  1  0.10612071  0.29814029  0.30454064  1
  Zr  Zr3  1  0.10422842  0.29189486  0.71275631  1
  Zr  Zr4  1  0.10402702  0.70072143  0.69398180  1
  Zr  Zr5  1  0.10542440  0.09747969  0.50406609  1
  Zr  Zr6  1  0.50106739  0.49898436  0.28821046  1
  Zr  Zr7  1  0.90211159  0.30493581  0.30391747  1
  Zr  Zr8  1  0.10036292  0.29581342  0.49267709  1
  Zr  Zr9  1  0.90229738  0.50289963  0.30081402  1
  Zr  Zr10  1  0.90051653  0.30092093  0.70817170  1
  Zr  Zr11  1  0.10345191  0.50647863  0.10407715  1
  Zr  Zr12  1  0.69892056  0.30277118  0.70384653  1
  Zr  Zr13  1  0.69838393  0.29196959  0.10428983  1
  Zr  Zr14  1  0.31129794  0.69879259  0.89533128  1
  Zr  Zr15  1  0.30402369  0.29444714  0.09224654  1
  Zr  Zr16  1  0.70036879  0.09967847  0.09713622  1
  Zr  Zr17  1  0.10243476  0.50118553  0.30376966  1
  Zr  Zr18  1  0.50091933  0.31008822  0.70058005  1
  Zr  Zr19  1  0.10341277  0.09717461  0.10633183  1
  Zr  Zr20  1  0.71050398  0.89687130  0.70121669  1
  Zr  Zr21  1  0.70067233  0.49471784  0.30100046  1
  Zr  Zr22  1  0.09555190  0.90432583  0.49379076  1
  Zr  Zr23  1  0.30840777  0.49933732  0.90328775  1
  Zr  Zr24  1  0.69872633  0.10029504  0.90349014  1
  Zr  Zr25  1  0.91260695  0.09499732  0.50519046  1
  Zr  Zr26  1  0.49653621  0.89931137  0.70537839  1
  Zr  Zr27  1  0.90067021  0.50818339  0.09587921  1
  Zr  Zr28  1  0.30155913  0.30513631  0.70077442  1
  Zr  Zr29  1  0.69991187  0.10894439  0.29194349  1
  Zr  Zr30  1  0.49490242  0.89961277  0.49425223  1
  Zr  Zr31  1  0.70109440  0.69405663  0.70508666  1
  Zr  Zr32  1  0.49899529  0.89719364  0.09501484  1
  Zr  Zr33  1  0.09307607  0.09915105  0.70729849  1
  Zr  Zr34  1  0.89552753  0.70552836  0.69589719  1
  Zr  Zr35  1  0.90391548  0.89830576  0.30131847  1
  Zr  Zr36  1  0.69960420  0.89773715  0.29746267  1
  Zr  Zr37  1  0.70020258  0.89212489  0.49287519  1
  Zr  Zr38  1  0.50216194  0.89258885  0.30256595  1
  Zr  Zr39  1  0.49751892  0.70329813  0.30081535  1
  Zr  Zr40  1  0.49769684  0.30217551  0.49538548  1
  Zr  Zr41  1  0.69781977  0.50294507  0.49956320  1
  Zr  Zr42  1  0.09849189  0.90298556  0.29350728  1
  Zr  Zr43  1  0.31000877  0.49940294  0.10398979  1
  Zr  Zr44  1  0.89684737  0.70372204  0.49610536  1
  Zr  Zr45  1  0.30445455  0.90221038  0.70464433  1
  Zr  Zr46  1  0.28568928  0.30268941  0.90018007  1
  Zr  Zr47  1  0.70472452  0.09784574  0.70843631  1
  Zr  Zr48  1  0.90010649  0.89673411  0.50187133  1
  Zr  Zr49  1  0.90504286  0.09813752  0.28728610  1
  Sc  Sc50  1  0.29350592  0.09694157  0.69665157  1
  Sc  Sc51  1  0.30495872  0.69423113  0.29899541  1
  Sc  Sc52  1  0.49221578  0.89384558  0.89734188  1
  Sc  Sc53  1  0.10092894  0.48918921  0.90707850  1
  Sc  Sc54  1  0.10300300  0.50275008  0.48897945  1
  Sc  Sc55  1  0.29932526  0.09937636  0.90648218  1
  Sc  Sc56  1  0.09611629  0.70359456  0.10730072  1
  Sc  Sc57  1  0.68462420  0.50123735  0.10167974  1
  Sc  Sc58  1  0.29811824  0.50340097  0.30436507  1
  Sc  Sc59  1  0.89478651  0.09873872  0.89152708  1
  Sc  Sc60  1  0.29834459  0.90970226  0.50380549  1
  Sc  Sc61  1  0.10449944  0.09656671  0.29971432  1
  Sc  Sc62  1  0.69944420  0.30868039  0.49175869  1
  Sc  Sc63  1  0.30424229  0.29718700  0.48994724  1
  Sc  Sc64  1  0.50299058  0.69606451  0.10653763  1
  Sc  Sc65  1  0.49413804  0.10279645  0.49635050  1
  Sc  Sc66  1  0.30420506  0.89765793  0.30072569  1
  Sc  Sc67  1  0.30669818  0.90017792  0.90604343  1
  Sc  Sc68  1  0.30685419  0.50032724  0.69871347  1
  Sc  Sc69  1  0.89162779  0.69283061  0.90599873  1
  Sc  Sc70  1  0.89510828  0.29771512  0.10216310  1
  Sc  Sc71  1  0.90812691  0.70372884  0.30212260  1
  Sc  Sc72  1  0.69263267  0.30534416  0.29971708  1
  Sc  Sc73  1  0.49876475  0.11089768  0.09127496  1
  Sc  Sc74  1  0.48938478  0.09460639  0.70226937  1
  Sc  Sc75  1  0.49754242  0.69127380  0.70435561  1
  Sc  Sc76  1  0.29194371  0.89917399  0.09883033  1
  Sc  Sc77  1  0.10796522  0.50922028  0.69242727  1
  Sc  Sc78  1  0.30196175  0.10182434  0.09586148  1
  Sc  Sc79  1  0.10411102  0.90761021  0.69454228  1
  Sc  Sc80  1  0.50416635  0.11016287  0.30587381  1
  Sc  Sc81  1  0.30249124  0.10148107  0.49849795  1
  Sc  Sc82  1  0.49759747  0.30622043  0.10179368  1
  Sc  Sc83  1  0.89612794  0.89702304  0.90110884  1
  Sc  Sc84  1  0.10026522  0.69291605  0.29893042  1
  Sc  Sc85  1  0.29900339  0.68718346  0.69781388  1
  Sc  Sc86  1  0.49545904  0.09317715  0.90258591  1
  Sc  Sc87  1  0.10425206  0.90065619  0.90574587  1
  Sc  Sc88  1  0.88766647  0.10139573  0.10128293  1
  Sc  Sc89  1  0.69426429  0.30041412  0.89169522  1
  Sc  Sc90  1  0.09906260  0.70947390  0.91356628  1
  Sc  Sc91  1  0.69178736  0.70796381  0.29866461  1
  Sc  Sc92  1  0.69547187  0.49960507  0.70100109  1
  Sc  Sc93  1  0.90031002  0.50339821  0.89898442  1
  Sc  Sc94  1  0.89606868  0.50072568  0.49207551  1
  Sc  Sc95  1  0.09680557  0.69652181  0.50345219  1
  Sc  Sc96  1  0.69119636  0.89825574  0.90063012  1
  Sc  Sc97  1  0.69343512  0.10212369  0.49373826  1
  Sc  Sc98  1  0.49466447  0.69324001  0.50003946  1
  Sc  Sc99  1  0.49934332  0.30863007  0.90220775  1
  Nb  Nb100  1  0.30202589  0.29412886  0.30057557  1
  Nb  Nb101  1  0.49800044  0.49779721  0.09658581  1
  Nb  Nb102  1  0.89535247  0.90661188  0.70014354  1
  Nb  Nb103  1  0.69925188  0.69954425  0.10205607  1
  Nb  Nb104  1  0.90206896  0.70299412  0.09813289  1
  Nb  Nb105  1  0.69816733  0.69891141  0.50307358  1
  Nb  Nb106  1  0.29325806  0.69716778  0.10131830  1
  Nb  Nb107  1  0.90562280  0.29705835  0.50104691  1
  Nb  Nb108  1  0.10752664  0.30459805  0.08857214  1
  Nb  Nb109  1  0.70199690  0.89854458  0.10472172  1
  Nb  Nb110  1  0.90997198  0.30922187  0.89554386  1
  Nb  Nb111  1  0.89670401  0.08831818  0.70037419  1
  Nb  Nb112  1  0.50112305  0.49622704  0.68491417  1
  Nb  Nb113  1  0.50965218  0.50470104  0.91117812  1
  Nb  Nb114  1  0.29944407  0.69556080  0.49880182  1
  Nb  Nb115  1  0.50663238  0.69711140  0.89932401  1
  Nb  Nb116  1  0.09696029  0.10679671  0.89848045  1
  Nb  Nb117  1  0.09742130  0.29429108  0.90161277  1
  Nb  Nb118  1  0.49827493  0.49866165  0.50840437  1
  Nb  Nb119  1  0.30124989  0.50350561  0.49955828  1
  Nb  Nb120  1  0.69889985  0.51182080  0.90531909  1
  Nb  Nb121  1  0.50090935  0.29914270  0.30492553  1
  Nb  Nb122  1  0.89858737  0.89837203  0.10502672  1
  Nb  Nb123  1  0.69508554  0.68661319  0.90566290  1
  Nb  Nb124  1  0.29955792  0.10551388  0.29270530  1
  Nb  Nb125  1  0.00216888  0.60850407  0.79728556  1
  Nb  Nb126  1  0.80289482  0.00446026  0.39668509  1
  Nb  Nb127  1  0.20148906  0.39296456  0.19957472  1
  Nb  Nb128  1  0.39982550  0.79776418  0.59977133  1
  Nb  Nb129  1  0.60042226  -0.00329005  0.60044916  1
  Nb  Nb130  1  0.60357010  0.19785679  0.60486961  1
  Nb  Nb131  1  0.00934284  0.39902831  0.19707421  1
  Nb  Nb132  1  0.79646373  0.40258354  -0.00398167  1
  Nb  Nb133  1  0.59854742  0.59530580  0.40358443  1
  Nb  Nb134  1  0.19919855  0.39704703  0.59336348  1
  Nb  Nb135  1  0.59806588  0.79920874  0.60097644  1
  Nb  Nb136  1  -0.00125252  0.00459569  0.00297902  1
  Nb  Nb137  1  0.40596823  0.00270847  0.20056622  1
  Nb  Nb138  1  0.00356327  0.20193189  -0.00572459  1
  Nb  Nb139  1  0.19928401  0.79718431  0.79856875  1
  Nb  Nb140  1  0.00001440  0.79930323  0.79582256  1
  Nb  Nb141  1  0.79798339  0.60727000  0.19376448  1
  Nb  Nb142  1  0.80764218  0.19829734  0.40421005  1
  Nb  Nb143  1  0.20221910  0.79745674  0.40457056  1
  Nb  Nb144  1  0.20815359  0.60185282  0.00463129  1
  Nb  Nb145  1  0.00398346  0.39417552  0.59769000  1
  Nb  Nb146  1  0.80212075  0.19924179  0.59967057  1
  Nb  Nb147  1  0.59748991  -0.00120465  0.19574493  1
  Nb  Nb148  1  0.79290283  0.79483517  0.01093622  1
  Nb  Nb149  1  0.39441475  0.20667363  0.80070429  1
  Pd  Pd150  1  0.01222364  0.41286487  0.79135546  1
  Pd  Pd151  1  0.80250204  0.40704500  0.19022851  1
  Pd  Pd152  1  0.60756711  0.39605933  0.00033033  1
  Pd  Pd153  1  0.41293645  0.58793844  0.79836390  1
  Pd  Pd154  1  0.40509902  0.20181816  0.60568069  1
  Pd  Pd155  1  0.60023673  0.79470178  0.79855845  1
  Pd  Pd156  1  0.80417728  -0.00792188  -0.00191496  1
  Pd  Pd157  1  0.59575620  -0.00280350  0.00236763  1
  Pd  Pd158  1  0.00002117  0.80857679  0.60548062  1
  Pd  Pd159  1  0.80546369  0.39521776  0.59370129  1
  Pd  Pd160  1  0.40886441  0.40525212  0.80573938  1
  Pd  Pd161  1  0.80899821  0.21206225  -0.01370321  1
  Pd  Pd162  1  0.40737906  0.19583397  0.20101203  1
  Pd  Pd163  1  0.00038716  0.19056607  0.39470414  1
  Pd  Pd164  1  0.20260218  0.79627994  0.21152165  1
  Pd  Pd165  1  0.39543094  0.39403159  0.20535334  1
  Pd  Pd166  1  -0.00499329  0.58976466  0.59746687  1
  Pd  Pd167  1  0.39999296  0.40528990  0.39546635  1
  Pd  Pd168  1  0.39539635  0.00714371  0.38983851  1
  Pd  Pd169  1  0.39386668  0.80319637  0.19343126  1
  Pd  Pd170  1  0.79195009  0.00647149  0.58906601  1
  Pd  Pd171  1  -0.00762696  0.39586065  0.00757355  1
  Pd  Pd172  1  -0.00298649  0.20283389  0.61094530  1
  Pd  Pd173  1  0.19544404  0.00253798  -0.00003428  1
  Pd  Pd174  1  0.00884118  0.60250740  -0.00658478  1
  Pd  Pd175  1  0.20984263  0.80143276  0.59809395  1
  Pd  Pd176  1  0.80111993  0.79540397  0.81371974  1
  Pd  Pd177  1  0.20683732  -0.00187026  0.39364240  1
  Pd  Pd178  1  0.00321640  0.20867018  0.18997101  1
  Pd  Pd179  1  0.39883627  0.79271608  0.00643611  1
  Pd  Pd180  1  0.59279539  0.59143655  0.79627059  1
  Pd  Pd181  1  0.58507203  0.19410318  0.79792841  1
  Pd  Pd182  1  0.40645920  0.59271596  0.39975206  1
  Pd  Pd183  1  0.60319323  0.00508357  0.39528448  1
  Pd  Pd184  1  0.59850369  -0.00076436  0.79863196  1
  Pd  Pd185  1  0.60232811  0.79463537  -0.00053096  1
  Pd  Pd186  1  0.20017825  0.20383424  0.19671017  1
  Pd  Pd187  1  0.79080670  0.61077679  0.38930550  1
  Pd  Pd188  1  0.79151041  0.40889754  0.81116517  1
  Pd  Pd189  1  0.80137605  0.59786741  0.59991471  1
  Pd  Pd190  1  0.40393278  0.60794456  0.00646732  1
  Pd  Pd191  1  0.60508053  0.39362378  0.59573602  1
  Pd  Pd192  1  0.80493903  0.79304471  0.20159378  1
  Pd  Pd193  1  0.19003577  0.60417395  0.81635042  1
  Pd  Pd194  1  0.20385544  0.20461767  0.59784402  1
  Pd  Pd195  1  0.59445023  0.20667433  -0.00541279  1
  Pd  Pd196  1  0.19365365  0.41088573  0.79374514  1
  Pd  Pd197  1  0.20355641  -0.00342924  0.80714949  1
  Pd  Pd198  1  -0.00194795  -0.00990102  0.80830152  1
  Pd  Pd199  1  0.80468558  0.20127085  0.80225931  1
  Rh  Rh200  1  0.59719925  0.80644426  0.19378532  1
  Rh  Rh201  1  0.20777757  0.19201773  0.80428074  1
  Rh  Rh202  1  0.80415337  0.59878156  0.79967403  1
  Rh  Rh203  1  0.20365806  0.58983331  0.58966602  1
  Rh  Rh204  1  0.79996052  0.20945445  0.21013877  1
  Rh  Rh205  1  0.20020213  0.60964709  0.40242935  1
  Rh  Rh206  1  0.79313302  0.59913660  0.00854740  1
  Rh  Rh207  1  0.39282550  0.00959461  0.80564207  1
  Rh  Rh208  1  0.79753064  -0.00538743  0.81001794  1
  Rh  Rh209  1  0.60388074  0.20871980  0.40688307  1
  Rh  Rh210  1  0.79431668  0.79775855  0.59814444  1
  Rh  Rh211  1  0.00002175  0.60371556  0.40329786  1
  Rh  Rh212  1  -0.00262203  0.40450236  0.40114364  1
  Rh  Rh213  1  0.58848986  0.40853729  0.39857051  1
  Rh  Rh214  1  0.00074336  0.79782117  0.20215708  1
  Rh  Rh215  1  0.59623779  0.78508849  0.41019776  1
  Rh  Rh216  1  0.80587105  0.39319126  0.40441577  1
  Rh  Rh217  1  -0.00327890  0.00426611  0.39376081  1
  Rh  Rh218  1  0.19888634  0.00385820  0.60034335  1
  Rh  Rh219  1  0.20741706  0.59584962  0.19667906  1
  Rh  Rh220  1  0.01295657  0.79597738  0.39907031  1
  Rh  Rh221  1  0.21233188  0.39865295  0.39893689  1
  Rh  Rh222  1  0.40024864  0.20742243  -0.01200199  1
  Rh  Rh223  1  0.59761781  0.60504685  0.59605571  1
  Rh  Rh224  1  -0.00866384  0.59945544  0.20179826  1
  Rh  Rh225  1  0.21245355  0.79060917  -0.00785520  1
  Rh  Rh226  1  0.38810761  0.79882802  0.41040887  1
  Rh  Rh227  1  0.38960264  0.40212289  0.59212784  1
  Rh  Rh228  1  -0.00955267  0.19522341  0.80401370  1
  Rh  Rh229  1  0.59255262  0.60479180  0.00752240  1
  Rh  Rh230  1  -0.00077744  -0.00276091  0.18931290  1
  Rh  Rh231  1  0.00246090  -0.00514253  0.60586551  1
  Rh  Rh232  1  0.59316844  0.20099627  0.19846701  1
  Rh  Rh233  1  0.59684719  0.41447414  0.80391183  1
  Rh  Rh234  1  0.59449635  0.39458761  0.19750805  1
  Rh  Rh235  1  0.39762918  0.19715709  0.39445389  1
  Rh  Rh236  1  0.39829328  0.60215327  0.59991405  1
  Rh  Rh237  1  0.20797691  0.41037333  0.00706693  1
  Rh  Rh238  1  0.60304098  0.59982393  0.20595427  1
  Rh  Rh239  1  0.40499914  -0.00505639  0.59932344  1
  Rh  Rh240  1  0.20558707  0.19048711  0.39948183  1
  Rh  Rh241  1  0.21262518  0.00018941  0.20197603  1
  Rh  Rh242  1  0.19391463  0.19271391  -0.00074312  1
  Rh  Rh243  1  0.40187337  0.39900697  -0.00346094  1
  Rh  Rh244  1  0.79240709  -0.00165026  0.20359597  1
  Rh  Rh245  1  0.40053672  -0.00110631  0.00868650  1
  Rh  Rh246  1  0.39560600  0.79382784  0.79268712  1
  Rh  Rh247  1  -0.01319467  0.80817079  -0.00195834  1
  Rh  Rh248  1  0.80051278  0.79960656  0.39665824  1
  Rh  Rh249  1  0.40106618  0.60210886  0.19763334  1
