# generated using pymatgen
data_ZrScNbPdRh
_symmetry_space_group_name_H-M   'P 1'
_cell_length_a   16.55721386
_cell_length_b   16.56094538
_cell_length_c   16.56536727
_cell_angle_alpha   89.99021139
_cell_angle_beta   89.94514085
_cell_angle_gamma   89.98314508
_symmetry_Int_Tables_number   1
_chemical_formula_structural   ZrScNbPdRh
_chemical_formula_sum   'Zr50 Sc50 Nb50 Pd50 Rh50'
_cell_volume   4542.27295319
_cell_formula_units_Z   50
loop_
 _symmetry_equiv_pos_site_id
 _symmetry_equiv_pos_as_xyz
  1  'x, y, z'
loop_
 _atom_site_type_symbol
 _atom_site_label
 _atom_site_symmetry_multiplicity
 _atom_site_fract_x
 _atom_site_fract_y
 _atom_site_fract_z
 _atom_site_occupancy
  Zr  Zr0  1  0.69998563  0.09511188  0.30418760  1
  Zr  Zr1  1  0.30405169  0.10088471  0.10456157  1
  Zr  Zr2  1  0.30253486  0.70019753  0.10331019  1
  Zr  Zr3  1  0.10206322  0.50306333  0.29474562  1
  Zr  Zr4  1  0.49563951  0.09683145  0.30021688  1
  Zr  Zr5  1  0.09288609  0.09564976  0.30098204  1
  Zr  Zr6  1  0.90105610  0.10044481  0.30540627  1
  Zr  Zr7  1  0.30310797  0.89741832  0.69932698  1
  Zr  Zr8  1  0.90429086  0.69662399  0.70070966  1
  Zr  Zr9  1  0.71218126  0.49089553  0.49851004  1
  Zr  Zr10  1  0.90110245  0.70171322  0.30382593  1
  Zr  Zr11  1  0.50101400  0.29373752  0.50863906  1
  Zr  Zr12  1  0.69976277  0.90013945  0.69669490  1
  Zr  Zr13  1  0.90153227  0.30638178  0.09693700  1
  Zr  Zr14  1  0.50056276  0.70462413  0.09745367  1
  Zr  Zr15  1  0.88772329  0.89457550  0.70370266  1
  Zr  Zr16  1  0.50127132  0.69642652  0.69824173  1
  Zr  Zr17  1  0.89806221  0.11324258  0.69930751  1
  Zr  Zr18  1  0.90521717  0.49694326  0.31135226  1
  Zr  Zr19  1  0.69738532  0.69859299  0.09326338  1
  Zr  Zr20  1  0.89820185  0.69825799  0.49967817  1
  Zr  Zr21  1  0.09869541  0.89593796  0.10112533  1
  Zr  Zr22  1  0.49810866  0.29436514  0.88287268  1
  Zr  Zr23  1  0.10432135  0.89788621  0.30137259  1
  Zr  Zr24  1  0.49523462  0.29491435  0.30853999  1
  Zr  Zr25  1  0.29800575  0.70008069  0.29854302  1
  Zr  Zr26  1  0.09855455  0.69734300  0.90402821  1
  Zr  Zr27  1  0.50873243  0.69901490  0.90519601  1
  Zr  Zr28  1  0.69847786  0.90150785  0.88503773  1
  Zr  Zr29  1  0.30091294  0.70329027  0.90942449  1
  Zr  Zr30  1  0.90077810  0.89926854  0.09944301  1
  Zr  Zr31  1  0.10157339  0.30182333  0.50081971  1
  Zr  Zr32  1  0.90106127  0.90234933  0.89640933  1
  Zr  Zr33  1  0.89640251  0.10331186  0.89021327  1
  Zr  Zr34  1  0.49183496  0.70002122  0.49937334  1
  Zr  Zr35  1  0.90128165  0.49978549  0.50596996  1
  Zr  Zr36  1  0.09546440  0.29602311  0.69883089  1
  Zr  Zr37  1  0.29724623  0.30177581  0.50841869  1
  Zr  Zr38  1  0.30461539  0.89888893  0.89736943  1
  Zr  Zr39  1  0.69824963  0.30956324  0.70077959  1
  Zr  Zr40  1  0.09319162  0.09979876  0.89279275  1
  Zr  Zr41  1  0.10320768  0.30975822  0.10110891  1
  Zr  Zr42  1  0.69492438  0.31249179  0.30711366  1
  Zr  Zr43  1  0.90021623  0.70392918  0.89664649  1
  Zr  Zr44  1  0.30084167  0.89633361  0.30166082  1
  Zr  Zr45  1  0.90226522  0.69692209  0.09292555  1
  Zr  Zr46  1  0.50045347  0.10395676  0.49255712  1
  Zr  Zr47  1  0.30948575  0.89357187  0.09760437  1
  Zr  Zr48  1  0.30333509  0.49721922  0.90363834  1
  Zr  Zr49  1  0.30245183  0.89884146  0.49851559  1
  Sc  Sc50  1  0.49600787  0.50338718  0.10145560  1
  Sc  Sc51  1  0.50656750  0.89313051  0.71237696  1
  Sc  Sc52  1  0.29654528  0.50139636  0.10663526  1
  Sc  Sc53  1  0.69425685  0.11143332  0.09873713  1
  Sc  Sc54  1  0.49881269  0.89309707  0.48671352  1
  Sc  Sc55  1  0.69942621  0.71128617  0.69972367  1
  Sc  Sc56  1  0.89128571  0.30345457  0.89360888  1
  Sc  Sc57  1  0.11025860  0.90137320  0.69929012  1
  Sc  Sc58  1  0.69456395  0.88832156  0.10279594  1
  Sc  Sc59  1  0.30523710  0.49524105  0.69425942  1
  Sc  Sc60  1  0.09499786  0.30083124  0.30367342  1
  Sc  Sc61  1  0.30691679  0.10150547  0.30285940  1
  Sc  Sc62  1  0.70350950  0.10165314  0.70696413  1
  Sc  Sc63  1  0.50158042  0.48822035  0.29771796  1
  Sc  Sc64  1  0.29373225  0.50982685  0.50093905  1
  Sc  Sc65  1  0.29607246  0.50322093  0.29757813  1
  Sc  Sc66  1  0.09162089  0.50303957  0.70481734  1
  Sc  Sc67  1  0.10048119  0.31870029  0.89992359  1
  Sc  Sc68  1  0.29835032  0.09662868  0.49488391  1
  Sc  Sc69  1  0.10522203  0.70325731  0.30069326  1
  Sc  Sc70  1  0.10079776  0.89323828  0.89436320  1
  Sc  Sc71  1  0.90160201  0.49355483  0.90783474  1
  Sc  Sc72  1  0.88231916  0.90048548  0.49662415  1
  Sc  Sc73  1  0.90542926  0.89845846  0.29997776  1
  Sc  Sc74  1  0.09268779  0.10203603  0.10735928  1
  Sc  Sc75  1  0.10093654  0.49991780  0.49547784  1
  Sc  Sc76  1  0.11214868  0.90652832  0.49557711  1
  Sc  Sc77  1  0.09873376  0.70329607  0.70757023  1
  Sc  Sc78  1  0.29704636  0.09319515  0.69752894  1
  Sc  Sc79  1  0.70315355  0.29578390  0.09919556  1
  Sc  Sc80  1  0.50275891  0.11585903  0.70308881  1
  Sc  Sc81  1  0.50688107  0.10356599  0.89289936  1
  Sc  Sc82  1  0.49939025  0.09811528  0.10686788  1
  Sc  Sc83  1  0.69519933  0.89298734  0.30115185  1
  Sc  Sc84  1  0.30164483  0.69883913  0.49923183  1
  Sc  Sc85  1  0.30073403  0.70442005  0.69185777  1
  Sc  Sc86  1  0.29804349  0.30621436  0.10994945  1
  Sc  Sc87  1  0.49848543  0.89893057  0.29202829  1
  Sc  Sc88  1  0.29521403  0.30094949  0.29500059  1
  Sc  Sc89  1  0.49176256  0.50501334  0.50493111  1
  Sc  Sc90  1  0.69717293  0.49352464  0.89532129  1
  Sc  Sc91  1  0.89145132  0.29244227  0.49779273  1
  Sc  Sc92  1  0.50078167  0.29542009  0.11492691  1
  Sc  Sc93  1  0.90487137  0.10590395  0.10799943  1
  Sc  Sc94  1  0.70314158  0.49722819  0.08958162  1
  Sc  Sc95  1  0.10334762  0.10092201  0.49800289  1
  Sc  Sc96  1  0.50893409  0.50511207  0.89653106  1
  Sc  Sc97  1  0.09625466  0.10080921  0.69470468  1
  Sc  Sc98  1  0.30870667  0.09678511  0.89140712  1
  Sc  Sc99  1  0.29802212  0.30930679  0.89241392  1
  Nb  Nb100  1  0.90099637  0.29873379  0.29814146  1
  Nb  Nb101  1  0.10100799  0.70016475  0.50224429  1
  Nb  Nb102  1  0.50282075  0.69966016  0.30069156  1
  Nb  Nb103  1  0.50111933  0.89855974  0.09341185  1
  Nb  Nb104  1  0.69928545  0.29486723  0.50230605  1
  Nb  Nb105  1  0.69681056  0.10629196  0.90086088  1
  Nb  Nb106  1  0.88663247  0.49335201  0.70006930  1
  Nb  Nb107  1  0.69679009  0.69061636  0.90100608  1
  Nb  Nb108  1  0.49304985  0.30799859  0.69970248  1
  Nb  Nb109  1  0.71130407  0.09310663  0.50149020  1
  Nb  Nb110  1  0.70016724  0.90247290  0.50605451  1
  Nb  Nb111  1  0.90214487  0.49946743  0.10436501  1
  Nb  Nb112  1  0.69775943  0.70635806  0.49813872  1
  Nb  Nb113  1  0.30818937  0.30054772  0.70464901  1
  Nb  Nb114  1  0.51147992  0.49767028  0.70438501  1
  Nb  Nb115  1  0.10443772  0.69543220  0.09731654  1
  Nb  Nb116  1  0.69937165  0.69730636  0.29593883  1
  Nb  Nb117  1  0.88424683  0.09356684  0.50138588  1
  Nb  Nb118  1  0.70262884  0.50067210  0.30267364  1
  Nb  Nb119  1  0.89725578  0.30215085  0.70160936  1
  Nb  Nb120  1  0.69971349  0.49981807  0.69916036  1
  Nb  Nb121  1  0.09088069  0.50269735  0.09109647  1
  Nb  Nb122  1  0.69554449  0.29147633  0.90595476  1
  Nb  Nb123  1  0.10590189  0.50080232  0.90845546  1
  Nb  Nb124  1  0.50225778  0.90080934  0.90476884  1
  Nb  Nb125  1  0.39698304  0.39513713  0.40524339  1
  Nb  Nb126  1  0.79764752  0.59572331  0.79617360  1
  Nb  Nb127  1  0.79400940  0.00352710  -0.00019366  1
  Nb  Nb128  1  -0.00920641  0.39677498  0.60415937  1
  Nb  Nb129  1  0.60200366  -0.00183957  -0.00384009  1
  Nb  Nb130  1  -0.01157392  -0.00209064  0.59657439  1
  Nb  Nb131  1  -0.00096976  0.80452088  0.59526228  1
  Nb  Nb132  1  0.60738052  0.60142373  0.20693244  1
  Nb  Nb133  1  0.20073293  0.19864177  -0.00529235  1
  Nb  Nb134  1  0.39717401  0.20666780  -0.00136463  1
  Nb  Nb135  1  0.60763020  0.59942040  0.59630771  1
  Nb  Nb136  1  0.80451456  0.40629715  0.20521699  1
  Nb  Nb137  1  0.80114891  0.59600387  0.20247477  1
  Nb  Nb138  1  0.39999236  0.59902371  0.79916734  1
  Nb  Nb139  1  0.40630786  0.39423515  -0.00141611  1
  Nb  Nb140  1  0.79849343  0.00036222  0.19589863  1
  Nb  Nb141  1  0.41046116  -0.00269298  0.59868371  1
  Nb  Nb142  1  0.60137589  0.00112615  0.59452834  1
  Nb  Nb143  1  0.20030433  0.20523461  0.79986403  1
  Nb  Nb144  1  0.20106476  0.00387298  0.00199567  1
  Nb  Nb145  1  0.20429976  0.59728833  0.80710165  1
  Nb  Nb146  1  0.59425682  0.38803945  -0.00436069  1
  Nb  Nb147  1  0.00496748  0.20568959  -0.00403829  1
  Nb  Nb148  1  0.20223013  -0.00396966  0.19709240  1
  Nb  Nb149  1  0.60621187  0.60268238  0.39981149  1
  Pd  Pd150  1  -0.00400270  0.19968886  0.40813786  1
  Pd  Pd151  1  0.00878808  0.60268228  0.40145655  1
  Pd  Pd152  1  -0.00428270  0.40436084  0.79853697  1
  Pd  Pd153  1  0.39272311  0.19050844  0.60342145  1
  Pd  Pd154  1  0.60755088  0.40625198  0.18850100  1
  Pd  Pd155  1  0.00022162  -0.00631331  0.78474259  1
  Pd  Pd156  1  0.79135255  0.60834201  0.60621448  1
  Pd  Pd157  1  0.59891134  0.40647610  0.59320209  1
  Pd  Pd158  1  0.40537571  0.00959862  -0.00266907  1
  Pd  Pd159  1  0.20583210  0.19607885  0.60672084  1
  Pd  Pd160  1  0.00289333  0.79161727  0.19909952  1
  Pd  Pd161  1  0.19446128  0.79898655  0.59668809  1
  Pd  Pd162  1  0.19989623  0.40473435  0.78931782  1
  Pd  Pd163  1  0.20410603  0.59651302  0.00428372  1
  Pd  Pd164  1  0.80971952  0.19572341  0.00047014  1
  Pd  Pd165  1  0.60061647  0.79728966  0.39744808  1
  Pd  Pd166  1  0.60648797  -0.00269321  0.19014752  1
  Pd  Pd167  1  0.19452278  0.19399100  0.20108574  1
  Pd  Pd168  1  -0.00488663  -0.00593945  0.41189126  1
  Pd  Pd169  1  0.60162328  0.20098974  0.20749041  1
  Pd  Pd170  1  -0.00064900  0.39910826  0.20368773  1
  Pd  Pd171  1  0.79619767  0.60396832  0.39827399  1
  Pd  Pd172  1  0.40198600  0.79074450  0.80224942  1
  Pd  Pd173  1  0.19160378  0.40727538  0.60776344  1
  Pd  Pd174  1  0.79563229  0.80303881  0.39722174  1
  Pd  Pd175  1  0.40099770  0.40561924  0.59673478  1
  Pd  Pd176  1  0.79445346  0.20406830  0.39580795  1
  Pd  Pd177  1  0.80140220  0.79859892  0.20078558  1
  Pd  Pd178  1  0.40421445  0.59057594  0.39074944  1
  Pd  Pd179  1  0.58959326  0.40763838  0.41373987  1
  Pd  Pd180  1  0.60822113  0.19749047  0.40094149  1
  Pd  Pd181  1  0.80124256  0.59240709  -0.00529448  1
  Pd  Pd182  1  0.79266410  0.80737076  -0.00810575  1
  Pd  Pd183  1  0.79831152  0.20301112  0.20579951  1
  Pd  Pd184  1  0.19349460  0.60016177  0.60978362  1
  Pd  Pd185  1  0.60125869  -0.00472650  0.40415777  1
  Pd  Pd186  1  0.40776880  0.59727920  0.20683517  1
  Pd  Pd187  1  0.59183102  0.80372499  0.59671635  1
  Pd  Pd188  1  0.20245760  0.19851505  0.39506769  1
  Pd  Pd189  1  0.00580005  0.80577471  0.41081214  1
  Pd  Pd190  1  0.00582575  0.59861539  0.60077940  1
  Pd  Pd191  1  0.41209120  0.00343716  0.79046918  1
  Pd  Pd192  1  -0.00022774  0.60630655  0.20058185  1
  Pd  Pd193  1  0.20611279  0.40239448  0.39613681  1
  Pd  Pd194  1  -0.00388485  0.58879895  0.80887811  1
  Pd  Pd195  1  0.60996194  0.19360173  0.60414131  1
  Pd  Pd196  1  0.19847817  0.00445711  0.80374756  1
  Pd  Pd197  1  -0.00667850  0.19767016  0.58812407  1
  Pd  Pd198  1  -0.00095175  0.00868246  0.00265742  1
  Pd  Pd199  1  0.00331847  0.80059049  -0.00182195  1
  Rh  Rh200  1  0.20356794  0.00605467  0.38930136  1
  Rh  Rh201  1  0.19345596  0.40885958  0.19985581  1
  Rh  Rh202  1  0.00672464  0.21411650  0.80997445  1
  Rh  Rh203  1  0.00280718  0.80761812  0.79097924  1
  Rh  Rh204  1  0.39784581  0.79559347  0.39281069  1
  Rh  Rh205  1  0.59902220  0.58876095  0.00748294  1
  Rh  Rh206  1  0.79342572  0.40116949  0.80462702  1
  Rh  Rh207  1  0.80441579  0.79434782  0.59615659  1
  Rh  Rh208  1  0.40046684  0.20024527  0.19985958  1
  Rh  Rh209  1  0.19651350  0.60492056  0.40133420  1
  Rh  Rh210  1  0.40409283  0.59207064  -0.00394940  1
  Rh  Rh211  1  0.60336105  0.39394103  0.80464129  1
  Rh  Rh212  1  0.40576579  0.79987836  -0.00316157  1
  Rh  Rh213  1  0.79175723  0.20790424  0.79831487  1
  Rh  Rh214  1  0.79384210  0.20497407  0.60291618  1
  Rh  Rh215  1  0.20388512  0.79064647  0.80272327  1
  Rh  Rh216  1  0.59306290  0.79449972  0.20034336  1
  Rh  Rh217  1  0.79749457  0.00339560  0.61002631  1
  Rh  Rh218  1  -0.00272361  0.59829492  -0.00284059  1
  Rh  Rh219  1  0.39709588  -0.00671307  0.20181023  1
  Rh  Rh220  1  0.60522315  0.60459970  0.78955151  1
  Rh  Rh221  1  0.39062383  0.19855341  0.79798349  1
  Rh  Rh222  1  0.40697498  0.41107114  0.79979092  1
  Rh  Rh223  1  0.20226782  0.79229538  0.40744818  1
  Rh  Rh224  1  0.80677508  0.39097408  0.39825453  1
  Rh  Rh225  1  0.19243994  0.60080886  0.19461080  1
  Rh  Rh226  1  0.58613129  0.19898618  -0.00051621  1
  Rh  Rh227  1  0.19644962  0.80644068  0.00118656  1
  Rh  Rh228  1  0.38954590  0.20940206  0.40326421  1
  Rh  Rh229  1  0.40462029  0.81040803  0.59924989  1
  Rh  Rh230  1  -0.00208778  0.39934862  -0.00186508  1
  Rh  Rh231  1  0.19964312  0.80037484  0.19466258  1
  Rh  Rh232  1  0.20367648  0.00123314  0.59748557  1
  Rh  Rh233  1  0.80362411  0.38919661  0.59706740  1
  Rh  Rh234  1  0.20826044  0.40084719  0.00936777  1
  Rh  Rh235  1  0.59777674  0.00474287  0.79859943  1
  Rh  Rh236  1  -0.00256431  -0.00366195  0.20277617  1
  Rh  Rh237  1  0.79621164  -0.00841195  0.38736085  1
  Rh  Rh238  1  0.60708796  0.20713836  0.79099086  1
  Rh  Rh239  1  0.79278251  0.39689697  0.00305844  1
  Rh  Rh240  1  0.79335620  0.78726652  0.80643582  1
  Rh  Rh241  1  0.40703310  0.59413086  0.61133948  1
  Rh  Rh242  1  0.60225274  0.79335846  0.80613938  1
  Rh  Rh243  1  0.39765173  0.40037290  0.20456132  1
  Rh  Rh244  1  0.79862927  0.00711730  0.80054552  1
  Rh  Rh245  1  0.00243516  0.20975667  0.19733088  1
  Rh  Rh246  1  0.40195448  -0.00205496  0.40257765  1
  Rh  Rh247  1  0.40701286  0.79829516  0.20144717  1
  Rh  Rh248  1  -0.00378108  0.39179696  0.41150337  1
  Rh  Rh249  1  0.60578330  0.80777352  -0.00910960  1
