# generated using pymatgen
data_ZrScNbPdRh
_symmetry_space_group_name_H-M   'P 1'
_cell_length_a   16.55222525
_cell_length_b   16.55220397
_cell_length_c   16.55224262
_cell_angle_alpha   90.02900033
_cell_angle_beta   90.00026116
_cell_angle_gamma   89.95278997
_symmetry_Int_Tables_number   1
_chemical_formula_structural   ZrScNbPdRh
_chemical_formula_sum   'Zr50 Sc50 Nb50 Pd50 Rh50'
_cell_volume   4534.91193326
_cell_formula_units_Z   50
loop_
 _symmetry_equiv_pos_site_id
 _symmetry_equiv_pos_as_xyz
  1  'x, y, z'
loop_
 _atom_site_type_symbol
 _atom_site_label
 _atom_site_symmetry_multiplicity
 _atom_site_fract_x
 _atom_site_fract_y
 _atom_site_fract_z
 _atom_site_occupancy
  Zr  Zr0  1  0.09842643  0.09674699  0.69796020  1
  Zr  Zr1  1  0.09725310  0.49831987  0.10696593  1
  Zr  Zr2  1  0.90098627  0.69386680  0.69600495  1
  Zr  Zr3  1  0.71171619  0.89819014  0.30043884  1
  Zr  Zr4  1  0.29212639  0.30182107  0.90120215  1
  Zr  Zr5  1  0.68852359  0.29975370  0.10857879  1
  Zr  Zr6  1  0.09107371  0.49964330  0.29923374  1
  Zr  Zr7  1  0.70382716  0.89467716  0.69638013  1
  Zr  Zr8  1  0.70387132  0.50141154  0.29576276  1
  Zr  Zr9  1  0.49618614  0.70098001  0.90119559  1
  Zr  Zr10  1  0.29041462  0.29961765  0.50660897  1
  Zr  Zr11  1  0.89521685  0.70179496  0.90500891  1
  Zr  Zr12  1  0.30003569  0.50024494  0.30630664  1
  Zr  Zr13  1  0.10430987  0.70113693  0.70538004  1
  Zr  Zr14  1  0.09739401  0.90339571  0.70449662  1
  Zr  Zr15  1  0.69659470  0.49973144  0.70515486  1
  Zr  Zr16  1  0.30603886  0.71186488  0.09806505  1
  Zr  Zr17  1  0.09969320  0.29995191  0.10457543  1
  Zr  Zr18  1  0.29840432  0.70049681  0.70374618  1
  Zr  Zr19  1  0.69000698  0.70025869  0.29493924  1
  Zr  Zr20  1  0.29922178  0.10142005  0.30055409  1
  Zr  Zr21  1  0.89844730  0.90158681  0.48462279  1
  Zr  Zr22  1  0.09876406  0.10884706  0.29818332  1
  Zr  Zr23  1  0.49349866  0.90646995  0.70273241  1
  Zr  Zr24  1  0.90383417  0.29415465  0.90686678  1
  Zr  Zr25  1  0.90225118  0.90308652  0.69447505  1
  Zr  Zr26  1  0.50781115  0.10612979  0.10014173  1
  Zr  Zr27  1  0.30734039  0.10523375  0.49287359  1
  Zr  Zr28  1  0.89868660  0.70491670  0.30095942  1
  Zr  Zr29  1  0.30231806  0.48632562  0.09556815  1
  Zr  Zr30  1  0.09927769  0.71253480  0.09550331  1
  Zr  Zr31  1  0.70923290  0.50688314  0.10056590  1
  Zr  Zr32  1  0.69852865  0.69754586  0.69418367  1
  Zr  Zr33  1  0.70432630  0.29932407  0.70101909  1
  Zr  Zr34  1  0.29937884  0.50007046  0.89777343  1
  Zr  Zr35  1  0.90265327  0.30226951  0.71042927  1
  Zr  Zr36  1  0.10002513  0.89508032  0.90465976  1
  Zr  Zr37  1  0.30979392  0.89953254  0.50421391  1
  Zr  Zr38  1  0.30015568  0.70715584  0.29483171  1
  Zr  Zr39  1  0.69329027  0.10750710  0.49892783  1
  Zr  Zr40  1  0.49948906  0.30321001  0.28685070  1
  Zr  Zr41  1  0.50432455  0.69238083  0.70504228  1
  Zr  Zr42  1  0.49570702  0.50565523  0.50037547  1
  Zr  Zr43  1  0.50604942  0.70885571  0.10260025  1
  Zr  Zr44  1  0.49860900  0.09583120  0.88617192  1
  Zr  Zr45  1  0.30556008  0.70184842  0.89556786  1
  Zr  Zr46  1  0.10482331  0.90120603  0.09591465  1
  Zr  Zr47  1  0.50748805  0.69366553  0.49538223  1
  Zr  Zr48  1  0.28966156  0.10160359  0.10282035  1
  Zr  Zr49  1  0.88775766  0.89323896  0.09449392  1
  Sc  Sc50  1  0.90198439  0.69823848  0.49854977  1
  Sc  Sc51  1  0.70687760  0.51151542  0.49925087  1
  Sc  Sc52  1  0.10515880  0.10372665  0.10062974  1
  Sc  Sc53  1  0.09884683  0.30334238  0.90353560  1
  Sc  Sc54  1  0.09587893  0.69642536  0.49933313  1
  Sc  Sc55  1  0.69867305  0.49677353  0.90103333  1
  Sc  Sc56  1  0.50209133  0.50170599  0.89802444  1
  Sc  Sc57  1  0.50871786  0.30641209  0.90183108  1
  Sc  Sc58  1  0.09303741  0.30230958  0.30330473  1
  Sc  Sc59  1  0.50100546  0.89726691  0.89821584  1
  Sc  Sc60  1  0.90453520  0.50602252  0.49463192  1
  Sc  Sc61  1  0.69819590  0.70234564  0.89516994  1
  Sc  Sc62  1  0.10294876  0.50592610  0.70862694  1
  Sc  Sc63  1  0.69763634  0.90114030  0.89688410  1
  Sc  Sc64  1  0.49291542  0.09924370  0.31038383  1
  Sc  Sc65  1  0.89918185  0.29511419  0.49224182  1
  Sc  Sc66  1  0.49820071  0.48574863  0.09679663  1
  Sc  Sc67  1  0.29129253  0.10168177  0.89921295  1
  Sc  Sc68  1  0.50129560  0.28971393  0.49571447  1
  Sc  Sc69  1  0.29569446  0.49540816  0.50966522  1
  Sc  Sc70  1  0.90003622  0.29571065  0.29708275  1
  Sc  Sc71  1  0.69666822  0.30936217  0.89504170  1
  Sc  Sc72  1  0.50660049  0.89960955  0.29652423  1
  Sc  Sc73  1  0.08622414  0.90093830  0.50239576  1
  Sc  Sc74  1  0.69545672  0.09835555  0.69623589  1
  Sc  Sc75  1  0.88915732  0.11313625  0.09832206  1
  Sc  Sc76  1  0.90445176  0.49089516  0.89608518  1
  Sc  Sc77  1  0.90411707  0.09549030  0.49725827  1
  Sc  Sc78  1  0.70335560  0.09909983  0.29934259  1
  Sc  Sc79  1  0.29735399  0.10019026  0.71436498  1
  Sc  Sc80  1  0.69853315  0.09039748  0.90440713  1
  Sc  Sc81  1  0.50745517  0.29539496  0.70811504  1
  Sc  Sc82  1  0.30120001  0.29390998  0.29601525  1
  Sc  Sc83  1  0.29878257  0.69261317  0.50609527  1
  Sc  Sc84  1  0.29783442  0.89965681  0.09929718  1
  Sc  Sc85  1  0.69922078  0.09513447  0.09792119  1
  Sc  Sc86  1  0.88921116  0.90197930  0.89246354  1
  Sc  Sc87  1  0.09582467  0.69871926  0.30048622  1
  Sc  Sc88  1  0.50211221  0.91114791  0.50126526  1
  Sc  Sc89  1  0.70209794  0.70659782  0.49967767  1
  Sc  Sc90  1  0.30032611  0.90168979  0.89563431  1
  Sc  Sc91  1  0.90491451  0.49978679  0.30068837  1
  Sc  Sc92  1  0.10647138  0.29042616  0.69850627  1
  Sc  Sc93  1  0.30664046  0.90377647  0.28884959  1
  Sc  Sc94  1  0.08928068  0.89962598  0.30684387  1
  Sc  Sc95  1  0.10429162  0.09696317  0.89608309  1
  Sc  Sc96  1  0.90793945  0.09302386  0.70237088  1
  Sc  Sc97  1  0.10342287  0.49195418  0.49116989  1
  Sc  Sc98  1  0.50193579  0.89807714  0.09937621  1
  Sc  Sc99  1  0.90080411  0.50604496  0.11242454  1
  Nb  Nb100  1  0.49859608  0.09891757  0.69989601  1
  Nb  Nb101  1  0.10171214  0.69889392  0.89930803  1
  Nb  Nb102  1  0.70192590  0.29988566  0.49893020  1
  Nb  Nb103  1  0.29570302  0.89416945  0.70033303  1
  Nb  Nb104  1  0.49389823  0.30189780  0.09713090  1
  Nb  Nb105  1  0.89555516  0.09547843  0.90691928  1
  Nb  Nb106  1  0.89925535  0.90508354  0.30179053  1
  Nb  Nb107  1  0.69362000  0.88937152  0.10292703  1
  Nb  Nb108  1  0.89304928  0.69656344  0.09698377  1
  Nb  Nb109  1  0.89817419  0.49627506  0.69720175  1
  Nb  Nb110  1  0.50142375  0.50140555  0.69610542  1
  Nb  Nb111  1  0.70726522  0.70007712  0.09977269  1
  Nb  Nb112  1  0.49877337  0.69176232  0.30459987  1
  Nb  Nb113  1  0.70447558  0.90529054  0.49774091  1
  Nb  Nb114  1  0.49972009  0.50701097  0.30789264  1
  Nb  Nb115  1  0.10170850  0.29420519  0.50526680  1
  Nb  Nb116  1  0.69922973  0.30475562  0.31010282  1
  Nb  Nb117  1  0.10518953  0.50659827  0.90577872  1
  Nb  Nb118  1  0.90085932  0.08923829  0.29881911  1
  Nb  Nb119  1  0.90156381  0.29801906  0.09782121  1
  Nb  Nb120  1  0.30544236  0.30133427  0.09663110  1
  Nb  Nb121  1  0.10887752  0.10927108  0.50112525  1
  Nb  Nb122  1  0.30270766  0.49512074  0.69703869  1
  Nb  Nb123  1  0.49435707  0.09948666  0.50517719  1
  Nb  Nb124  1  0.29811693  0.30513697  0.69639220  1
  Nb  Nb125  1  0.19991099  0.00060626  0.40573431  1
  Nb  Nb126  1  0.80171008  0.39886954  0.60012396  1
  Nb  Nb127  1  0.80442113  0.39401179  0.00870377  1
  Nb  Nb128  1  0.19814532  0.60189334  0.00092351  1
  Nb  Nb129  1  0.40556628  0.40079943  0.40055696  1
  Nb  Nb130  1  0.40145077  0.01085416  0.00011008  1
  Nb  Nb131  1  -0.01130559  0.80546883  0.19530118  1
  Nb  Nb132  1  -0.00169034  0.39664273  0.60143617  1
  Nb  Nb133  1  0.40165619  0.20209970  0.00274620  1
  Nb  Nb134  1  0.60363805  0.60509225  0.00613255  1
  Nb  Nb135  1  0.00314101  0.60384797  -0.00083987  1
  Nb  Nb136  1  0.80311386  0.59633651  0.79626295  1
  Nb  Nb137  1  -0.00024737  0.79521561  0.80233922  1
  Nb  Nb138  1  0.20538875  0.80679028  0.40271070  1
  Nb  Nb139  1  -0.00748712  0.00034549  0.00281334  1
  Nb  Nb140  1  0.60281669  0.39998283  0.39985622  1
  Nb  Nb141  1  0.40213146  0.19608108  0.60726860  1
  Nb  Nb142  1  0.20175230  0.00112996  0.59605561  1
  Nb  Nb143  1  0.39589675  0.40216552  0.78959989  1
  Nb  Nb144  1  0.80550702  0.19581611  0.80620527  1
  Nb  Nb145  1  0.60481232  0.39830355  0.59325403  1
  Nb  Nb146  1  0.40201597  0.79522837  0.39921249  1
  Nb  Nb147  1  0.20499626  0.60125732  0.19367357  1
  Nb  Nb148  1  -0.00890533  -0.00084779  0.19631595  1
  Nb  Nb149  1  0.40196807  0.59805212  0.20273812  1
  Pd  Pd150  1  0.41270837  0.38805526  0.59975569  1
  Pd  Pd151  1  0.18902937  -0.00698953  0.21090339  1
  Pd  Pd152  1  0.78434353  0.20765950  -0.00558504  1
  Pd  Pd153  1  0.19233040  0.59288998  0.60097144  1
  Pd  Pd154  1  0.60322047  0.19382318  0.21040410  1
  Pd  Pd155  1  0.40473485  0.59659780  0.01000962  1
  Pd  Pd156  1  -0.00168908  0.79804680  0.60148528  1
  Pd  Pd157  1  -0.00665675  0.60151587  0.80767394  1
  Pd  Pd158  1  0.80017136  0.00610768  0.59381897  1
  Pd  Pd159  1  -0.00408162  0.19837203  0.39945195  1
  Pd  Pd160  1  0.59538275  -0.00719169  -0.00082362  1
  Pd  Pd161  1  0.79669007  0.20325135  0.20599993  1
  Pd  Pd162  1  0.00898451  0.58867128  0.59516738  1
  Pd  Pd163  1  0.59868315  0.80310379  0.79856550  1
  Pd  Pd164  1  0.60318568  0.00049260  0.39796161  1
  Pd  Pd165  1  0.39858237  0.19549214  0.19456346  1
  Pd  Pd166  1  0.59175320  0.59242945  0.19114545  1
  Pd  Pd167  1  0.59313292  0.20346783  0.60210993  1
  Pd  Pd168  1  0.41040145  0.79222563  0.59722499  1
  Pd  Pd169  1  0.00897943  0.18955142  0.00072193  1
  Pd  Pd170  1  0.40645067  0.00244160  0.19226655  1
  Pd  Pd171  1  0.80404572  0.19254523  0.39503707  1
  Pd  Pd172  1  0.19923341  0.60790262  0.39675199  1
  Pd  Pd173  1  0.19385504  0.80643210  0.59191161  1
  Pd  Pd174  1  0.20238996  0.39736857  0.20643191  1
  Pd  Pd175  1  0.59995188  0.20133648  -0.00776193  1
  Pd  Pd176  1  0.80155926  0.40234913  0.40580660  1
  Pd  Pd177  1  0.61163906  0.19409478  0.80541096  1
  Pd  Pd178  1  0.80973892  0.19976410  0.60575024  1
  Pd  Pd179  1  0.59720746  0.80807292  0.40298768  1
  Pd  Pd180  1  0.79559004  0.00687991  0.79541331  1
  Pd  Pd181  1  0.78749464  0.80329418  -0.00706109  1
  Pd  Pd182  1  0.39661038  0.21035042  0.80224842  1
  Pd  Pd183  1  -0.00741535  0.20338111  0.59808615  1
  Pd  Pd184  1  0.39760677  0.60548888  0.60432986  1
  Pd  Pd185  1  0.80649344  0.80089405  0.59158389  1
  Pd  Pd186  1  0.19652218  0.39913734  0.79503753  1
  Pd  Pd187  1  0.59531050  0.20144060  0.39310063  1
  Pd  Pd188  1  0.60333155  -0.00190477  0.60137462  1
  Pd  Pd189  1  -0.00370762  0.40836286  0.00669957  1
  Pd  Pd190  1  0.00081083  0.19272771  0.80689817  1
  Pd  Pd191  1  0.20286117  0.39196404  0.39618563  1
  Pd  Pd192  1  0.38962332  0.00935994  0.61102917  1
  Pd  Pd193  1  0.59904294  0.40900118  0.20222868  1
  Pd  Pd194  1  0.79997501  0.60638319  0.39600106  1
  Pd  Pd195  1  0.01298320  0.40049835  0.79549362  1
  Pd  Pd196  1  0.59324848  0.80686881  0.59591852  1
  Pd  Pd197  1  0.80588499  0.39274690  0.19776673  1
  Pd  Pd198  1  0.80034559  0.00125345  0.19100827  1
  Pd  Pd199  1  0.60152158  0.00086021  0.20401703  1
  Rh  Rh200  1  0.80064338  0.79608683  0.20243349  1
  Rh  Rh201  1  0.21109682  0.19049340  0.60754403  1
  Rh  Rh202  1  0.60852106  0.40671673  0.00812099  1
  Rh  Rh203  1  0.00135557  0.59922113  0.40030420  1
  Rh  Rh204  1  0.19642229  0.80296157  0.80335866  1
  Rh  Rh205  1  0.40096381  0.20947470  0.40396849  1
  Rh  Rh206  1  0.60324502  0.59533307  0.59515198  1
  Rh  Rh207  1  0.80330420  0.60748545  0.20845173  1
  Rh  Rh208  1  0.20023131  0.20376120  0.00080970  1
  Rh  Rh209  1  0.61114055  0.59536156  0.40134616  1
  Rh  Rh210  1  0.80281844  0.58979590  -0.00928615  1
  Rh  Rh211  1  0.41313497  0.79658706  0.20750513  1
  Rh  Rh212  1  0.00590952  0.00635346  0.59088429  1
  Rh  Rh213  1  0.60419609  0.59754202  0.80975194  1
  Rh  Rh214  1  -0.00752742  0.39208921  0.20069539  1
  Rh  Rh215  1  -0.00496071  0.19472040  0.19835393  1
  Rh  Rh216  1  0.39830361  0.40561075  0.20896053  1
  Rh  Rh217  1  0.00952185  0.01019977  0.39645851  1
  Rh  Rh218  1  0.39484230  -0.00365404  0.80237646  1
  Rh  Rh219  1  0.20069021  0.00000162  -0.00368057  1
  Rh  Rh220  1  0.39860241  0.59161630  0.79125841  1
  Rh  Rh221  1  0.19297276  0.40045674  0.00254414  1
  Rh  Rh222  1  0.60449605  0.79587830  -0.00149863  1
  Rh  Rh223  1  0.60137819  0.80140697  0.20337185  1
  Rh  Rh224  1  -0.00179844  0.39457348  0.40721793  1
  Rh  Rh225  1  0.80284153  0.39943356  0.80479523  1
  Rh  Rh226  1  0.38962120  0.60117350  0.40089428  1
  Rh  Rh227  1  0.39860802  -0.00878010  0.39450472  1
  Rh  Rh228  1  0.20849039  0.59952021  0.80262886  1
  Rh  Rh229  1  0.79236245  0.00769960  0.40598731  1
  Rh  Rh230  1  0.00304203  0.79526871  0.39521272  1
  Rh  Rh231  1  0.79716815  0.79799536  0.40156361  1
  Rh  Rh232  1  0.00352481  0.61517665  0.19281453  1
  Rh  Rh233  1  0.20115215  -0.00599739  0.79512400  1
  Rh  Rh234  1  0.19990591  0.21102717  0.20103433  1
  Rh  Rh235  1  0.39989011  0.81555616  -0.00275733  1
  Rh  Rh236  1  -0.00847534  0.80135532  -0.00308661  1
  Rh  Rh237  1  0.40311418  0.39053639  -0.01494746  1
  Rh  Rh238  1  0.60341307  -0.00446138  0.79198632  1
  Rh  Rh239  1  0.21289854  0.79722035  -0.00992063  1
  Rh  Rh240  1  0.79667433  -0.00493788  0.00546592  1
  Rh  Rh241  1  0.18426731  0.80360950  0.21245758  1
  Rh  Rh242  1  0.18433744  0.40380936  0.60585912  1
  Rh  Rh243  1  0.19689184  0.20389518  0.79872226  1
  Rh  Rh244  1  0.19846420  0.20309419  0.39442209  1
  Rh  Rh245  1  0.40204997  0.80277787  0.79614328  1
  Rh  Rh246  1  0.80442081  0.79205610  0.79330146  1
  Rh  Rh247  1  0.79938020  0.59557337  0.60437897  1
  Rh  Rh248  1  -0.00064485  -0.00659699  0.81411115  1
  Rh  Rh249  1  0.58910894  0.40651774  0.79281313  1
