# generated using pymatgen
data_ZrScNbPdRh
_symmetry_space_group_name_H-M   'P 1'
_cell_length_a   16.55206126
_cell_length_b   16.55406222
_cell_length_c   16.55324305
_cell_angle_alpha   90.03866172
_cell_angle_beta   89.97060921
_cell_angle_gamma   90.00240294
_symmetry_Int_Tables_number   1
_chemical_formula_structural   ZrScNbPdRh
_chemical_formula_sum   'Zr50 Sc50 Nb50 Pd50 Rh50'
_cell_volume   4535.65072586
_cell_formula_units_Z   50
loop_
 _symmetry_equiv_pos_site_id
 _symmetry_equiv_pos_as_xyz
  1  'x, y, z'
loop_
 _atom_site_type_symbol
 _atom_site_label
 _atom_site_symmetry_multiplicity
 _atom_site_fract_x
 _atom_site_fract_y
 _atom_site_fract_z
 _atom_site_occupancy
  Zr  Zr0  1  0.29986662  0.29071932  0.11061561  1
  Zr  Zr1  1  0.89070603  0.89882550  0.49533302  1
  Zr  Zr2  1  0.30357722  0.09860570  0.69154184  1
  Zr  Zr3  1  0.48803173  0.30528300  0.69798077  1
  Zr  Zr4  1  0.50074874  0.90063796  0.10266803  1
  Zr  Zr5  1  0.30680505  0.10820472  0.28934119  1
  Zr  Zr6  1  0.90489694  0.70430339  0.49338972  1
  Zr  Zr7  1  0.09611430  0.30973208  0.69645466  1
  Zr  Zr8  1  0.50651438  0.90721389  0.29900549  1
  Zr  Zr9  1  0.10042957  0.89664612  0.69852746  1
  Zr  Zr10  1  0.09763136  0.10150992  0.50017309  1
  Zr  Zr11  1  0.50554462  0.70675075  0.30792749  1
  Zr  Zr12  1  0.09600667  0.69910439  0.10088480  1
  Zr  Zr13  1  0.69411776  0.10304973  0.70188213  1
  Zr  Zr14  1  0.89394446  0.30608182  0.30150476  1
  Zr  Zr15  1  0.49895029  0.09321722  0.11283555  1
  Zr  Zr16  1  0.50065381  0.49802824  0.89566692  1
  Zr  Zr17  1  0.30463197  0.89140893  0.90019248  1
  Zr  Zr18  1  0.30036277  0.50557332  0.50118624  1
  Zr  Zr19  1  0.09225668  0.30981479  0.30855116  1
  Zr  Zr20  1  0.69132434  0.30304580  0.10202087  1
  Zr  Zr21  1  0.69628494  0.71016176  0.70291518  1
  Zr  Zr22  1  0.09412048  0.88943657  0.50312703  1
  Zr  Zr23  1  0.90413946  0.50419954  0.89251786  1
  Zr  Zr24  1  0.09775902  0.30084998  0.09127218  1
  Zr  Zr25  1  0.90475636  0.09626209  0.09643152  1
  Zr  Zr26  1  0.09254372  0.69493216  0.90365563  1
  Zr  Zr27  1  0.69825412  0.90118261  0.69263327  1
  Zr  Zr28  1  0.30403999  0.70059635  0.90241935  1
  Zr  Zr29  1  0.50405242  0.49900596  0.30066999  1
  Zr  Zr30  1  0.51091685  0.89849970  0.68990623  1
  Zr  Zr31  1  0.30357756  0.90490757  0.09611182  1
  Zr  Zr32  1  0.89689967  0.69946749  0.89580962  1
  Zr  Zr33  1  0.50139908  0.10037457  0.30917476  1
  Zr  Zr34  1  0.30926041  0.49815329  0.10281971  1
  Zr  Zr35  1  0.10313223  0.09772581  0.70221785  1
  Zr  Zr36  1  0.70397343  0.50042396  0.68418331  1
  Zr  Zr37  1  0.89010208  0.10179102  0.30060891  1
  Zr  Zr38  1  0.70406638  0.90208032  0.30582566  1
  Zr  Zr39  1  0.70192334  0.28724635  0.90135362  1
  Zr  Zr40  1  0.51086572  0.69553575  0.89474279  1
  Zr  Zr41  1  0.29943709  0.70372162  0.09985794  1
  Zr  Zr42  1  0.09479780  0.49637693  0.91131776  1
  Zr  Zr43  1  0.11163272  0.10116183  0.10175383  1
  Zr  Zr44  1  0.69754215  0.90578703  0.10180367  1
  Zr  Zr45  1  0.89614366  0.69143012  0.69824398  1
  Zr  Zr46  1  0.09786493  0.89477290  0.10331412  1
  Zr  Zr47  1  0.51387967  0.48991101  0.09915739  1
  Zr  Zr48  1  0.89391166  0.88881291  0.69761458  1
  Zr  Zr49  1  0.50790800  0.50205984  0.50379097  1
  Sc  Sc50  1  0.89668824  0.69750240  0.30086791  1
  Sc  Sc51  1  0.70399941  0.10253434  0.09376955  1
  Sc  Sc52  1  0.50852766  0.30382853  0.90120102  1
  Sc  Sc53  1  0.29341698  0.09026663  0.90964322  1
  Sc  Sc54  1  0.88921858  0.50737985  0.50180377  1
  Sc  Sc55  1  0.09661323  0.70557056  0.69646962  1
  Sc  Sc56  1  0.50370050  0.89321784  0.91153176  1
  Sc  Sc57  1  0.30368593  0.30752052  0.90620751  1
  Sc  Sc58  1  0.30932074  0.50137695  0.90502547  1
  Sc  Sc59  1  0.30410598  0.89718969  0.30377496  1
  Sc  Sc60  1  0.70288551  0.68456632  0.10483477  1
  Sc  Sc61  1  0.89711506  0.49780247  0.69520200  1
  Sc  Sc62  1  0.88900434  0.10758731  0.49658684  1
  Sc  Sc63  1  0.31048877  0.49389179  0.69880242  1
  Sc  Sc64  1  0.88506497  0.11326929  0.69550788  1
  Sc  Sc65  1  0.30151787  0.89761243  0.49710347  1
  Sc  Sc66  1  0.90190382  0.69601326  0.10278372  1
  Sc  Sc67  1  0.50022597  0.29999783  0.49229047  1
  Sc  Sc68  1  0.28906397  0.89533653  0.69817506  1
  Sc  Sc69  1  0.09893471  0.89442924  0.29331953  1
  Sc  Sc70  1  0.10492294  0.49633636  0.49282235  1
  Sc  Sc71  1  0.50337271  0.90372315  0.48815489  1
  Sc  Sc72  1  0.70201126  0.70018980  0.30227409  1
  Sc  Sc73  1  0.69131106  0.90034251  0.90179952  1
  Sc  Sc74  1  0.89348986  0.30312268  0.49768398  1
  Sc  Sc75  1  0.89520999  0.29834347  0.09695694  1
  Sc  Sc76  1  0.89969037  0.90197271  0.10585273  1
  Sc  Sc77  1  0.49383375  0.09877064  0.49728472  1
  Sc  Sc78  1  0.90283441  0.50619324  0.11251664  1
  Sc  Sc79  1  0.71151961  0.29892148  0.70336207  1
  Sc  Sc80  1  0.70556115  0.49549318  0.29811507  1
  Sc  Sc81  1  0.30258188  0.49480736  0.30544018  1
  Sc  Sc82  1  0.70163869  0.30789099  0.49405976  1
  Sc  Sc83  1  0.50463723  0.68961568  0.10255149  1
  Sc  Sc84  1  0.10037714  0.10281174  0.29384637  1
  Sc  Sc85  1  0.50317652  0.29677292  0.29968281  1
  Sc  Sc86  1  0.70129549  0.10245006  0.49786973  1
  Sc  Sc87  1  0.30853538  0.30999751  0.50189086  1
  Sc  Sc88  1  0.29239190  0.69584905  0.69333223  1
  Sc  Sc89  1  0.10028148  0.89040310  0.89430784  1
  Sc  Sc90  1  0.08860264  0.50252614  0.69514576  1
  Sc  Sc91  1  0.69234250  0.50820123  0.89982763  1
  Sc  Sc92  1  0.51553944  0.09872399  0.90202331  1
  Sc  Sc93  1  0.69788301  0.50076319  0.49377212  1
  Sc  Sc94  1  0.89983809  0.89911800  0.90746773  1
  Sc  Sc95  1  0.49930772  0.09615870  0.69025526  1
  Sc  Sc96  1  0.09532491  0.10439888  0.91009691  1
  Sc  Sc97  1  0.89405460  0.10513211  0.91258241  1
  Sc  Sc98  1  0.09739274  0.70138185  0.30623410  1
  Sc  Sc99  1  0.50288320  0.50165092  0.69977487  1
  Nb  Nb100  1  0.69763272  0.90118934  0.50075700  1
  Nb  Nb101  1  0.89775142  0.30365349  0.70510236  1
  Nb  Nb102  1  0.89615103  0.89858348  0.30897590  1
  Nb  Nb103  1  0.70414160  0.09895960  0.89999631  1
  Nb  Nb104  1  0.10286090  0.29959096  0.50012516  1
  Nb  Nb105  1  0.30036215  0.29771282  0.70274880  1
  Nb  Nb106  1  0.91111901  0.49893646  0.29767108  1
  Nb  Nb107  1  0.90129680  0.30476613  0.89670821  1
  Nb  Nb108  1  0.50512926  0.70328290  0.69420932  1
  Nb  Nb109  1  0.09180221  0.30436435  0.89929865  1
  Nb  Nb110  1  0.29704842  0.70049094  0.49277756  1
  Nb  Nb111  1  0.70231584  0.70369214  0.90042949  1
  Nb  Nb112  1  0.10839014  0.70255016  0.50078729  1
  Nb  Nb113  1  0.50420255  0.69847326  0.49878629  1
  Nb  Nb114  1  0.50485932  0.29613467  0.09591706  1
  Nb  Nb115  1  0.30072818  0.70211174  0.30158751  1
  Nb  Nb116  1  0.69651090  0.10747295  0.30487958  1
  Nb  Nb117  1  0.30261676  0.10154672  0.10347480  1
  Nb  Nb118  1  0.09925115  0.50189690  0.10827647  1
  Nb  Nb119  1  0.70187118  0.49630750  0.09787758  1
  Nb  Nb120  1  0.69921810  0.29686810  0.30358193  1
  Nb  Nb121  1  0.09327689  0.49746608  0.29277229  1
  Nb  Nb122  1  0.69232090  0.69658415  0.49699303  1
  Nb  Nb123  1  0.29765118  0.29846540  0.30196022  1
  Nb  Nb124  1  0.30260893  0.10322061  0.49557356  1
  Nb  Nb125  1  0.19659427  0.59329934  0.80428073  1
  Nb  Nb126  1  0.00193595  0.20483781  0.60261623  1
  Nb  Nb127  1  0.19972798  0.20782376  0.79943837  1
  Nb  Nb128  1  0.79823231  0.00248301  0.80208203  1
  Nb  Nb129  1  0.40250836  0.19536983  0.00514758  1
  Nb  Nb130  1  0.39490716  0.19369314  0.80467541  1
  Nb  Nb131  1  0.40119030  -0.00473158  0.79896388  1
  Nb  Nb132  1  0.19614704  0.40026165  0.80255217  1
  Nb  Nb133  1  0.40146576  0.79715833  0.20154175  1
  Nb  Nb134  1  0.79438331  0.79371191  -0.00009335  1
  Nb  Nb135  1  0.19572312  0.40223545  0.20156804  1
  Nb  Nb136  1  0.20114735  0.20536932  0.59770286  1
  Nb  Nb137  1  0.79733807  0.40476061  -0.00185228  1
  Nb  Nb138  1  0.59925964  0.20326369  0.60030809  1
  Nb  Nb139  1  0.19870766  0.59570101  0.20255926  1
  Nb  Nb140  1  -0.00868832  0.00610440  0.79354889  1
  Nb  Nb141  1  0.19793238  0.00723834  0.40128877  1
  Nb  Nb142  1  0.40495453  0.79013150  0.59395154  1
  Nb  Nb143  1  -0.00175895  0.20624527  0.79944699  1
  Nb  Nb144  1  -0.00227041  -0.00242189  0.40074763  1
  Nb  Nb145  1  0.20287174  0.20337007  0.40415264  1
  Nb  Nb146  1  0.40755862  0.79860024  0.79050023  1
  Nb  Nb147  1  -0.00646359  0.00333460  0.60081998  1
  Nb  Nb148  1  0.40050498  0.60865756  0.40470697  1
  Nb  Nb149  1  -0.00126045  0.20210245  0.19911599  1
  Pd  Pd150  1  0.79953080  0.59771651  0.39451476  1
  Pd  Pd151  1  0.60037202  0.79575828  0.19656963  1
  Pd  Pd152  1  0.00522106  0.60281298  0.59018600  1
  Pd  Pd153  1  0.80421974  0.59801478  0.00199984  1
  Pd  Pd154  1  -0.00078005  0.19571430  0.39890422  1
  Pd  Pd155  1  -0.01400367  0.40669451  0.00970799  1
  Pd  Pd156  1  0.20620237  -0.00664970  0.20768465  1
  Pd  Pd157  1  0.60649393  0.59719875  0.79015124  1
  Pd  Pd158  1  -0.01057787  0.40010071  0.58963663  1
  Pd  Pd159  1  0.19457495  0.80224943  -0.00114135  1
  Pd  Pd160  1  0.40378057  0.40439994  0.40130027  1
  Pd  Pd161  1  0.19437942  0.59647401  0.60575680  1
  Pd  Pd162  1  0.60105493  0.38984874  0.60110167  1
  Pd  Pd163  1  0.59814945  -0.00560248  0.80272718  1
  Pd  Pd164  1  0.79596616  0.00245067  0.20220664  1
  Pd  Pd165  1  0.39445328  0.60605352  0.79243623  1
  Pd  Pd166  1  0.39862163  -0.01423239  0.59883852  1
  Pd  Pd167  1  0.19823220  -0.00169624  0.59020629  1
  Pd  Pd168  1  0.20518119  0.40217146  0.60440251  1
  Pd  Pd169  1  0.58882335  0.20359121  0.79124158  1
  Pd  Pd170  1  0.19741807  0.80818923  0.39652899  1
  Pd  Pd171  1  0.00335253  0.59659991  0.40327866  1
  Pd  Pd172  1  -0.00187830  0.00429682  0.20807426  1
  Pd  Pd173  1  0.79136468  0.59422507  0.79519647  1
  Pd  Pd174  1  -0.00379019  0.80065300  0.79900326  1
  Pd  Pd175  1  0.39703935  0.60426059  0.20908691  1
  Pd  Pd176  1  -0.00886714  0.79641104  0.20595577  1
  Pd  Pd177  1  0.60833537  0.39674667  0.79524485  1
  Pd  Pd178  1  0.20170009  0.59493896  0.00297475  1
  Pd  Pd179  1  0.40892604  0.00820082  -0.00718879  1
  Pd  Pd180  1  0.60779291  0.59601497  0.20772018  1
  Pd  Pd181  1  0.80111248  0.79674501  0.19441535  1
  Pd  Pd182  1  0.41039134  0.60009713  0.00248265  1
  Pd  Pd183  1  -0.00908269  0.40934608  0.41211937  1
  Pd  Pd184  1  0.40631530  0.39165622  0.00191637  1
  Pd  Pd185  1  0.80135915  0.19946975  0.19358255  1
  Pd  Pd186  1  0.79155707  0.40811436  0.80645237  1
  Pd  Pd187  1  0.20803061  0.20429191  -0.00869612  1
  Pd  Pd188  1  0.19819652  0.00330195  0.80856611  1
  Pd  Pd189  1  0.80080882  0.00410779  0.60320841  1
  Pd  Pd190  1  0.20102657  0.59650248  0.39127915  1
  Pd  Pd191  1  0.60637382  0.78932545  0.01162348  1
  Pd  Pd192  1  0.80029909  0.40321853  0.19649181  1
  Pd  Pd193  1  0.40258000  0.60425798  0.59818583  1
  Pd  Pd194  1  0.20443239  0.40189355  0.00336049  1
  Pd  Pd195  1  0.00742889  -0.00617670  -0.00536317  1
  Pd  Pd196  1  0.79527127  0.79076177  0.58975384  1
  Pd  Pd197  1  0.60015964  0.19719255  0.20153884  1
  Pd  Pd198  1  0.40185384  0.39192499  0.20361958  1
  Pd  Pd199  1  0.19131012  -0.00976029  -0.00472903  1
  Rh  Rh200  1  0.79346346  -0.01057755  -0.00629766  1
  Rh  Rh201  1  0.41112810  0.20603406  0.19779915  1
  Rh  Rh202  1  0.40267545  0.40318585  0.59568298  1
  Rh  Rh203  1  0.00107627  0.80239447  0.39591189  1
  Rh  Rh204  1  -0.00871708  0.80082375  0.00396737  1
  Rh  Rh205  1  0.60523659  0.60409404  0.60252318  1
  Rh  Rh206  1  0.60797853  0.80438315  0.40459504  1
  Rh  Rh207  1  0.00145977  0.40307057  0.79839791  1
  Rh  Rh208  1  0.59865020  0.79921414  0.58619325  1
  Rh  Rh209  1  0.80773031  0.19433769  0.80867977  1
  Rh  Rh210  1  0.39166322  0.00318512  0.39498413  1
  Rh  Rh211  1  0.00455024  0.60774216  0.20626532  1
  Rh  Rh212  1  0.20757162  0.79647066  0.59576319  1
  Rh  Rh213  1  0.00044546  0.39103246  0.19365714  1
  Rh  Rh214  1  0.79449615  0.60780815  0.59593891  1
  Rh  Rh215  1  0.60214911  0.39688936  0.20534954  1
  Rh  Rh216  1  0.61029770  0.00790922  0.20530255  1
  Rh  Rh217  1  0.41166991  0.78953298  0.00373809  1
  Rh  Rh218  1  0.39445198  -0.00841588  0.20595090  1
  Rh  Rh219  1  0.60790401  0.40058726  -0.00633849  1
  Rh  Rh220  1  0.00473592  0.59890429  0.79563898  1
  Rh  Rh221  1  0.79462998  0.21094449  0.59522217  1
  Rh  Rh222  1  0.40107262  0.79534760  0.40026900  1
  Rh  Rh223  1  0.79501260  0.81066345  0.81217162  1
  Rh  Rh224  1  0.59599087  0.19286256  0.00503580  1
  Rh  Rh225  1  0.60197822  0.00986107  0.58750539  1
  Rh  Rh226  1  0.80055208  0.20687696  0.00232541  1
  Rh  Rh227  1  0.60806873  0.00499563  0.40207266  1
  Rh  Rh228  1  -0.00674632  0.59652184  0.00503241  1
  Rh  Rh229  1  0.20804158  0.79456422  0.20157773  1
  Rh  Rh230  1  0.20302842  0.39780048  0.39454461  1
  Rh  Rh231  1  0.40229881  0.20481828  0.59847220  1
  Rh  Rh232  1  0.59773993  0.80451371  0.80227421  1
  Rh  Rh233  1  0.18623853  0.21374816  0.20984085  1
  Rh  Rh234  1  0.60289325  0.39828683  0.39268937  1
  Rh  Rh235  1  0.39520878  0.39585625  0.80502328  1
  Rh  Rh236  1  0.60038034  0.59816383  -0.00058776  1
  Rh  Rh237  1  0.60165293  0.20112116  0.40804488  1
  Rh  Rh238  1  -0.00432307  0.20096785  0.00089506  1
  Rh  Rh239  1  0.79756580  0.00256284  0.39954761  1
  Rh  Rh240  1  0.39481354  0.20335358  0.39992581  1
  Rh  Rh241  1  0.80210215  0.39867597  0.59727954  1
  Rh  Rh242  1  0.79230358  0.79445517  0.40294716  1
  Rh  Rh243  1  0.59862914  0.59710334  0.39692494  1
  Rh  Rh244  1  0.80194008  0.40615701  0.39558131  1
  Rh  Rh245  1  0.20547013  0.78476986  0.80125106  1
  Rh  Rh246  1  0.60196854  0.00510080  0.00396995  1
  Rh  Rh247  1  0.80163767  0.59430927  0.20626212  1
  Rh  Rh248  1  -0.00369610  0.79531887  0.59951726  1
  Rh  Rh249  1  0.79282662  0.20529577  0.40070972  1
