# generated using pymatgen
data_ZrScNbPdRh
_symmetry_space_group_name_H-M   'P 1'
_cell_length_a   16.56403940
_cell_length_b   16.56101859
_cell_length_c   16.56128120
_cell_angle_alpha   90.02130690
_cell_angle_beta   89.99399758
_cell_angle_gamma   90.01549085
_symmetry_Int_Tables_number   1
_chemical_formula_structural   ZrScNbPdRh
_chemical_formula_sum   'Zr50 Sc50 Nb50 Pd50 Rh50'
_cell_volume   4543.04650411
_cell_formula_units_Z   50
loop_
 _symmetry_equiv_pos_site_id
 _symmetry_equiv_pos_as_xyz
  1  'x, y, z'
loop_
 _atom_site_type_symbol
 _atom_site_label
 _atom_site_symmetry_multiplicity
 _atom_site_fract_x
 _atom_site_fract_y
 _atom_site_fract_z
 _atom_site_occupancy
  Zr  Zr0  1  0.10078921  0.10198331  0.09620035  1
  Zr  Zr1  1  0.30066833  0.49413410  0.30141270  1
  Zr  Zr2  1  0.49760674  0.29934804  0.08688285  1
  Zr  Zr3  1  0.89982254  0.29200145  0.90259205  1
  Zr  Zr4  1  0.49465598  0.89595131  0.89616026  1
  Zr  Zr5  1  0.70039591  0.70874409  0.69884887  1
  Zr  Zr6  1  0.70283355  0.69516155  0.90284164  1
  Zr  Zr7  1  0.09468167  0.49895920  0.28524153  1
  Zr  Zr8  1  0.29800927  0.70014222  0.69032067  1
  Zr  Zr9  1  0.30523140  0.10843198  0.49926957  1
  Zr  Zr10  1  0.29865221  0.90415699  0.09486189  1
  Zr  Zr11  1  0.90046307  0.69653690  0.70792816  1
  Zr  Zr12  1  0.10671682  0.49587026  0.70184827  1
  Zr  Zr13  1  0.90842446  0.69884539  0.29696066  1
  Zr  Zr14  1  0.11037086  0.29212549  0.90137383  1
  Zr  Zr15  1  0.30245771  0.10710381  0.30200169  1
  Zr  Zr16  1  0.90000188  0.10019558  0.69681111  1
  Zr  Zr17  1  0.50180224  0.69712305  0.50405030  1
  Zr  Zr18  1  0.89469713  0.50265886  0.29749845  1
  Zr  Zr19  1  0.10749505  0.89703598  0.70772100  1
  Zr  Zr20  1  0.29430524  0.70822262  0.30238994  1
  Zr  Zr21  1  0.50810942  0.08943169  0.30194217  1
  Zr  Zr22  1  0.49400178  0.10426611  0.50087599  1
  Zr  Zr23  1  0.70490367  0.09211790  0.50084881  1
  Zr  Zr24  1  0.50516560  0.90500846  0.70729607  1
  Zr  Zr25  1  0.70307760  0.30014986  0.89674164  1
  Zr  Zr26  1  0.49809990  0.09715446  0.70049857  1
  Zr  Zr27  1  0.09740482  0.89404812  0.29814762  1
  Zr  Zr28  1  0.30041786  0.89494504  0.29885461  1
  Zr  Zr29  1  0.50354838  0.71061918  0.30001009  1
  Zr  Zr30  1  0.69634871  0.70792903  0.49993089  1
  Zr  Zr31  1  0.49725509  0.49328902  0.50394116  1
  Zr  Zr32  1  0.50503484  0.89697583  0.09787985  1
  Zr  Zr33  1  0.49844134  0.10120326  0.09620366  1
  Zr  Zr34  1  0.10561106  0.70487507  0.89417915  1
  Zr  Zr35  1  0.89844078  0.49876722  0.49979366  1
  Zr  Zr36  1  0.70050700  0.50977436  0.49808744  1
  Zr  Zr37  1  0.50259663  0.69944263  0.08904259  1
  Zr  Zr38  1  0.89684396  0.29859350  0.10206906  1
  Zr  Zr39  1  0.69598343  0.89310595  0.09831374  1
  Zr  Zr40  1  0.29980863  0.49706529  0.50698219  1
  Zr  Zr41  1  0.90003309  0.10775522  0.90507045  1
  Zr  Zr42  1  0.90624294  0.89817020  0.29555884  1
  Zr  Zr43  1  0.69098223  0.10516425  0.10250943  1
  Zr  Zr44  1  0.48693064  0.49543125  0.89942425  1
  Zr  Zr45  1  0.69732289  0.49415991  0.70351870  1
  Zr  Zr46  1  0.51335020  0.30501514  0.69499574  1
  Zr  Zr47  1  0.09562205  0.10058651  0.90393974  1
  Zr  Zr48  1  0.70002015  0.29717664  0.50697241  1
  Zr  Zr49  1  0.10522701  0.90413800  0.90462604  1
  Sc  Sc50  1  0.70413477  0.70492983  0.30631217  1
  Sc  Sc51  1  0.30202768  0.70153394  0.09598356  1
  Sc  Sc52  1  0.89935636  0.28953614  0.70446972  1
  Sc  Sc53  1  0.90759403  0.09896951  0.09816135  1
  Sc  Sc54  1  0.30835729  0.89714069  0.70723224  1
  Sc  Sc55  1  0.69148755  0.89290117  0.89527455  1
  Sc  Sc56  1  0.29688721  0.88621269  0.49650077  1
  Sc  Sc57  1  0.09667772  0.69549442  0.10160468  1
  Sc  Sc58  1  0.69780741  0.70180785  0.09449189  1
  Sc  Sc59  1  0.89785991  0.91243944  0.50119653  1
  Sc  Sc60  1  0.89645812  0.69110631  0.49691461  1
  Sc  Sc61  1  0.29313782  0.29392349  0.29744542  1
  Sc  Sc62  1  0.30933639  0.30061020  0.49828423  1
  Sc  Sc63  1  0.89532681  0.90198113  0.69514391  1
  Sc  Sc64  1  0.69558247  0.10874994  0.89988732  1
  Sc  Sc65  1  0.90600532  0.89675870  0.10394008  1
  Sc  Sc66  1  0.09319782  0.49958144  0.51327876  1
  Sc  Sc67  1  0.69565188  0.30337936  0.10245218  1
  Sc  Sc68  1  0.10212688  0.50074681  0.10007704  1
  Sc  Sc69  1  0.49158505  0.70775013  0.69823976  1
  Sc  Sc70  1  0.89405188  0.70168920  0.09734807  1
  Sc  Sc71  1  0.10109652  0.69855352  0.50309091  1
  Sc  Sc72  1  0.29706294  0.50038664  0.70062297  1
  Sc  Sc73  1  0.90045201  0.50518664  0.10598511  1
  Sc  Sc74  1  0.50266173  0.09947869  0.90248740  1
  Sc  Sc75  1  0.29388854  0.89601484  0.89704902  1
  Sc  Sc76  1  0.90542333  0.50456855  0.70104804  1
  Sc  Sc77  1  0.09146140  0.10490766  0.50152646  1
  Sc  Sc78  1  0.09559272  0.90199711  0.50036931  1
  Sc  Sc79  1  0.89637815  0.69682437  0.90252449  1
  Sc  Sc80  1  0.88784341  0.50664028  0.90111428  1
  Sc  Sc81  1  0.28970707  0.30280785  0.69743189  1
  Sc  Sc82  1  0.29071855  0.49685099  0.09161765  1
  Sc  Sc83  1  0.50793435  0.49427741  0.08813803  1
  Sc  Sc84  1  0.09403467  0.90342764  0.09704381  1
  Sc  Sc85  1  0.10309025  0.69172818  0.70365662  1
  Sc  Sc86  1  0.69828354  0.49923994  0.90469342  1
  Sc  Sc87  1  0.90199011  0.10038960  0.50633427  1
  Sc  Sc88  1  0.10032191  0.29804744  0.70096237  1
  Sc  Sc89  1  0.70327311  0.49479140  0.29472726  1
  Sc  Sc90  1  0.69088463  0.90040057  0.31012153  1
  Sc  Sc91  1  0.50034732  0.30475424  0.29460524  1
  Sc  Sc92  1  0.09877020  0.10646342  0.69869675  1
  Sc  Sc93  1  0.50798876  0.90327763  0.49563046  1
  Sc  Sc94  1  0.29035871  0.10254975  0.90979356  1
  Sc  Sc95  1  0.69883645  0.49663873  0.09585209  1
  Sc  Sc96  1  0.90123698  0.89121517  0.90682310  1
  Sc  Sc97  1  0.09690416  0.29457679  0.50572014  1
  Sc  Sc98  1  0.11554594  0.50524653  0.90282529  1
  Sc  Sc99  1  0.90693842  0.09574442  0.30166190  1
  Nb  Nb100  1  0.10693698  0.31002761  0.10673855  1
  Nb  Nb101  1  0.70078972  0.10228756  0.70098421  1
  Nb  Nb102  1  0.89607774  0.30692476  0.29628823  1
  Nb  Nb103  1  0.31040052  0.68625405  0.89432036  1
  Nb  Nb104  1  0.70349629  0.29460880  0.70005540  1
  Nb  Nb105  1  0.30222749  0.10613422  0.10583807  1
  Nb  Nb106  1  0.50186862  0.90148428  0.29517774  1
  Nb  Nb107  1  0.69717639  0.90479900  0.69633075  1
  Nb  Nb108  1  0.10076915  0.30100343  0.29873640  1
  Nb  Nb109  1  0.70313397  0.29969953  0.29587356  1
  Nb  Nb110  1  0.49843276  0.49769181  0.30028637  1
  Nb  Nb111  1  0.49133112  0.30032761  0.90021844  1
  Nb  Nb112  1  0.70154320  0.89791388  0.50990008  1
  Nb  Nb113  1  0.50296061  0.49976884  0.69727573  1
  Nb  Nb114  1  0.30549646  0.30755670  0.90561601  1
  Nb  Nb115  1  0.10849798  0.10998161  0.30140712  1
  Nb  Nb116  1  0.30021810  0.69236041  0.49828261  1
  Nb  Nb117  1  0.09959674  0.70001180  0.30259092  1
  Nb  Nb118  1  0.50432692  0.30218984  0.49831251  1
  Nb  Nb119  1  0.89700931  0.29907133  0.49851943  1
  Nb  Nb120  1  0.30019859  0.29467341  0.09709739  1
  Nb  Nb121  1  0.69862887  0.10228106  0.29748790  1
  Nb  Nb122  1  0.29979297  0.49486995  0.89716778  1
  Nb  Nb123  1  0.49624494  0.69042133  0.90178741  1
  Nb  Nb124  1  0.30994768  0.10259923  0.69243297  1
  Nb  Nb125  1  0.00293932  0.39767694  -0.00303925  1
  Nb  Nb126  1  0.39898456  0.40177261  0.19395122  1
  Nb  Nb127  1  0.60603863  0.20291244  0.39808059  1
  Nb  Nb128  1  0.59069872  0.59853766  0.79969274  1
  Nb  Nb129  1  -0.00260336  0.39333853  0.39338810  1
  Nb  Nb130  1  0.39857145  0.20610997  0.80126871  1
  Nb  Nb131  1  0.40000762  -0.00094858  0.19991188  1
  Nb  Nb132  1  0.00269966  0.39831049  0.81063858  1
  Nb  Nb133  1  0.79852757  0.20460555  0.39233770  1
  Nb  Nb134  1  0.20022695  0.00560369  0.39828522  1
  Nb  Nb135  1  0.18985272  0.40128668  0.39834111  1
  Nb  Nb136  1  0.79735045  0.00237061  0.80148103  1
  Nb  Nb137  1  0.60124123  0.39566929  0.40104911  1
  Nb  Nb138  1  0.40502869  0.59601523  0.20270908  1
  Nb  Nb139  1  0.79629913  -0.00000005  0.00136858  1
  Nb  Nb140  1  0.39830210  0.60046873  0.39829081  1
  Nb  Nb141  1  -0.00172612  0.79778023  0.60461865  1
  Nb  Nb142  1  0.20715490  0.00436586  0.59862721  1
  Nb  Nb143  1  0.59274647  0.59972153  0.20159945  1
  Nb  Nb144  1  -0.00376853  0.00114919  0.80294362  1
  Nb  Nb145  1  0.79827664  0.39393705  0.60221113  1
  Nb  Nb146  1  0.79288730  0.00155178  0.19917769  1
  Nb  Nb147  1  0.00682995  0.20866689  0.20698922  1
  Nb  Nb148  1  0.20351677  0.00756340  0.20373425  1
  Nb  Nb149  1  0.20007747  0.59833937  0.39793576  1
  Pd  Pd150  1  0.60521637  -0.00154452  -0.00841159  1
  Pd  Pd151  1  0.80504079  0.40233013  0.00477016  1
  Pd  Pd152  1  0.00362075  0.58939688  0.81050462  1
  Pd  Pd153  1  0.39665727  0.39337255  0.60937587  1
  Pd  Pd154  1  0.59847724  0.40371517  0.80834910  1
  Pd  Pd155  1  0.00176936  0.79434603  0.00279546  1
  Pd  Pd156  1  0.78738845  0.60415757  0.19773226  1
  Pd  Pd157  1  0.19320817  0.80349491  0.59738502  1
  Pd  Pd158  1  0.80927077  0.19104547  0.20169955  1
  Pd  Pd159  1  -0.00886858  0.39151516  0.60754967  1
  Pd  Pd160  1  0.81046989  0.39962929  0.79325344  1
  Pd  Pd161  1  0.80024603  0.59575234  0.60653774  1
  Pd  Pd162  1  0.80746536  0.80491821  0.40383731  1
  Pd  Pd163  1  0.00893969  0.59096547  0.40056955  1
  Pd  Pd164  1  -0.00374062  0.80613156  0.79684447  1
  Pd  Pd165  1  0.39398971  -0.01296904  0.59352530  1
  Pd  Pd166  1  0.21067105  0.19524820  0.79765840  1
  Pd  Pd167  1  0.59415680  0.78966392  0.80215013  1
  Pd  Pd168  1  0.40900258  0.20231438  0.20336630  1
  Pd  Pd169  1  0.20156394  0.79263565  0.00074260  1
  Pd  Pd170  1  0.40079951  0.59762607  0.78729842  1
  Pd  Pd171  1  0.59814074  0.60471248  0.61011012  1
  Pd  Pd172  1  0.39110533  0.01175451  0.81061562  1
  Pd  Pd173  1  0.80979129  0.80146800  0.59474571  1
  Pd  Pd174  1  0.20171944  0.01064898  0.79226312  1
  Pd  Pd175  1  0.00791601  0.00365103  0.39751378  1
  Pd  Pd176  1  -0.00356080  0.79876743  0.41267055  1
  Pd  Pd177  1  0.39534440  0.79847502  -0.00746570  1
  Pd  Pd178  1  -0.00748979  0.20502482  0.39601068  1
  Pd  Pd179  1  0.79517443  0.80591999  0.20395839  1
  Pd  Pd180  1  0.40249874  0.79997031  0.19298974  1
  Pd  Pd181  1  0.80142385  0.80820577  0.80299106  1
  Pd  Pd182  1  0.59851418  0.59497673  0.39157656  1
  Pd  Pd183  1  0.20370802  0.60706798  -0.00015170  1
  Pd  Pd184  1  0.40757617  0.79918263  0.40668559  1
  Pd  Pd185  1  0.40517355  0.80832303  0.59551413  1
  Pd  Pd186  1  0.59890107  0.00177951  0.59802525  1
  Pd  Pd187  1  0.79744312  0.39715043  0.40456071  1
  Pd  Pd188  1  0.59203012  0.20680288  0.20306630  1
  Pd  Pd189  1  0.39445488  -0.00800086  0.39962621  1
  Pd  Pd190  1  0.59322802  0.20018316  0.80296281  1
  Pd  Pd191  1  0.59984895  0.19223300  0.59719319  1
  Pd  Pd192  1  0.19198097  0.80395634  0.18916990  1
  Pd  Pd193  1  0.79947920  0.00249780  0.39195557  1
  Pd  Pd194  1  -0.00122529  0.59342222  -0.00328897  1
  Pd  Pd195  1  0.19980931  0.19858307  0.59574213  1
  Pd  Pd196  1  0.40977604  0.21029739  0.39185495  1
  Pd  Pd197  1  0.39618873  0.00379074  -0.00220264  1
  Pd  Pd198  1  0.39542693  0.39298280  0.78795656  1
  Pd  Pd199  1  0.20614573  0.60383947  0.20183159  1
  Rh  Rh200  1  0.21103034  0.39587210  0.20213180  1
  Rh  Rh201  1  0.00403447  0.19954455  0.79788354  1
  Rh  Rh202  1  0.19042598  0.79586065  0.40543089  1
  Rh  Rh203  1  0.79072397  0.19515047  0.00807903  1
  Rh  Rh204  1  -0.00557425  0.39689757  0.19574903  1
  Rh  Rh205  1  0.20152012  0.00162582  0.00820120  1
  Rh  Rh206  1  0.40206495  0.59749500  0.59909822  1
  Rh  Rh207  1  -0.00115364  0.60533268  0.19554070  1
  Rh  Rh208  1  0.79863367  0.80473295  -0.00143231  1
  Rh  Rh209  1  0.40604012  0.21149383  0.61057521  1
  Rh  Rh210  1  0.39246267  0.40425075  0.00691535  1
  Rh  Rh211  1  0.60549712  0.79520336  0.20212157  1
  Rh  Rh212  1  0.60247083  0.39455080  -0.01035740  1
  Rh  Rh213  1  0.60092581  -0.00657606  0.19922170  1
  Rh  Rh214  1  0.00524979  0.00937032  0.20476102  1
  Rh  Rh215  1  0.39544707  0.19630002  -0.00927092  1
  Rh  Rh216  1  0.59598074  0.80648527  0.60146737  1
  Rh  Rh217  1  0.59630135  0.40510441  0.20354792  1
  Rh  Rh218  1  0.19430671  0.19984241  0.19135126  1
  Rh  Rh219  1  0.59698325  0.79577866  -0.01118138  1
  Rh  Rh220  1  0.39485303  0.59210377  0.00608555  1
  Rh  Rh221  1  0.00396629  0.79240511  0.19572645  1
  Rh  Rh222  1  0.78939707  0.60018536  0.79673409  1
  Rh  Rh223  1  0.79822931  0.60425938  0.39363750  1
  Rh  Rh224  1  0.40211817  0.39825263  0.39380088  1
  Rh  Rh225  1  0.19757653  0.40029467  0.80460209  1
  Rh  Rh226  1  0.19728465  0.39606127  0.59142432  1
  Rh  Rh227  1  0.20744202  0.60115418  0.79896949  1
  Rh  Rh228  1  0.00969672  0.21399539  0.01467027  1
  Rh  Rh229  1  0.79563261  0.19323503  0.79696041  1
  Rh  Rh230  1  0.20305940  0.20477515  0.00651745  1
  Rh  Rh231  1  0.60143654  0.20921292  -0.00612051  1
  Rh  Rh232  1  0.60483060  0.00105698  0.40546511  1
  Rh  Rh233  1  0.79504190  0.00139734  0.60806676  1
  Rh  Rh234  1  0.79944165  0.60034412  0.00655745  1
  Rh  Rh235  1  -0.00102724  0.61089903  0.60392686  1
  Rh  Rh236  1  0.39739155  0.79443294  0.80427310  1
  Rh  Rh237  1  0.59970967  0.59746299  -0.00286994  1
  Rh  Rh238  1  -0.00463638  0.20492690  0.60158751  1
  Rh  Rh239  1  0.01492473  -0.00979566  0.61249814  1
  Rh  Rh240  1  0.19855769  0.20531178  0.41067325  1
  Rh  Rh241  1  0.60901425  0.40365861  0.59470991  1
  Rh  Rh242  1  0.79607057  0.40358133  0.19296878  1
  Rh  Rh243  1  0.19907645  0.39567843  -0.00225985  1
  Rh  Rh244  1  0.59917623  0.80602970  0.40477513  1
  Rh  Rh245  1  0.19847305  0.59713493  0.59677449  1
  Rh  Rh246  1  -0.00877081  -0.00466052  -0.00798021  1
  Rh  Rh247  1  0.60877088  0.00443282  0.79994374  1
  Rh  Rh248  1  0.80360169  0.20080260  0.59697360  1
  Rh  Rh249  1  0.21206954  0.78857654  0.80287871  1
