# generated using pymatgen
data_ZrScNbPdRh
_symmetry_space_group_name_H-M   'P 1'
_cell_length_a   16.55923283
_cell_length_b   16.55745027
_cell_length_c   16.55211906
_cell_angle_alpha   89.98947686
_cell_angle_beta   90.01339031
_cell_angle_gamma   89.99700811
_symmetry_Int_Tables_number   1
_chemical_formula_structural   ZrScNbPdRh
_chemical_formula_sum   'Zr50 Sc50 Nb50 Pd50 Rh50'
_cell_volume   4538.23785161
_cell_formula_units_Z   50
loop_
 _symmetry_equiv_pos_site_id
 _symmetry_equiv_pos_as_xyz
  1  'x, y, z'
loop_
 _atom_site_type_symbol
 _atom_site_label
 _atom_site_symmetry_multiplicity
 _atom_site_fract_x
 _atom_site_fract_y
 _atom_site_fract_z
 _atom_site_occupancy
  Zr  Zr0  1  0.30363861  0.49876268  0.90468250  1
  Zr  Zr1  1  0.69492447  0.70195825  0.10343370  1
  Zr  Zr2  1  0.10547179  0.70009997  0.09586970  1
  Zr  Zr3  1  0.50212556  0.09525518  0.68909224  1
  Zr  Zr4  1  0.09994150  0.30037038  0.69875088  1
  Zr  Zr5  1  0.70204827  0.70384626  0.30221143  1
  Zr  Zr6  1  0.50262639  0.70190749  0.89952494  1
  Zr  Zr7  1  0.09589151  0.10680197  0.29692029  1
  Zr  Zr8  1  0.89500369  0.31127728  0.09378612  1
  Zr  Zr9  1  0.50406915  0.50038281  0.49759879  1
  Zr  Zr10  1  0.70792085  0.30007617  0.49236058  1
  Zr  Zr11  1  0.50034281  0.09366392  0.30858938  1
  Zr  Zr12  1  0.90427362  0.09634733  0.50414992  1
  Zr  Zr13  1  0.10758404  0.30628742  0.30810454  1
  Zr  Zr14  1  0.49177393  0.30159082  0.50212033  1
  Zr  Zr15  1  0.28937335  0.10936440  0.09790806  1
  Zr  Zr16  1  0.10831914  0.69840944  0.90149356  1
  Zr  Zr17  1  0.69388728  0.70006886  0.90181992  1
  Zr  Zr18  1  0.10052943  0.29670786  0.89819354  1
  Zr  Zr19  1  0.89059981  0.29823272  0.29469482  1
  Zr  Zr20  1  0.30298394  0.69868692  0.90610317  1
  Zr  Zr21  1  0.50701410  0.09614762  0.89116561  1
  Zr  Zr22  1  0.30044778  0.69946054  0.31443055  1
  Zr  Zr23  1  0.10071661  0.10627623  0.70501512  1
  Zr  Zr24  1  0.69876405  0.90581718  0.90005265  1
  Zr  Zr25  1  0.70168715  0.49497814  0.31453426  1
  Zr  Zr26  1  0.90149309  0.49198438  0.90165721  1
  Zr  Zr27  1  0.30504597  0.89435910  0.09200486  1
  Zr  Zr28  1  0.30225839  0.69277153  0.09200334  1
  Zr  Zr29  1  0.89780052  0.69748970  0.69520395  1
  Zr  Zr30  1  0.50390607  0.89853081  0.29870411  1
  Zr  Zr31  1  0.90315601  0.09542801  0.29468217  1
  Zr  Zr32  1  0.88877455  0.29751944  0.90092506  1
  Zr  Zr33  1  0.29568310  0.69674071  0.69096864  1
  Zr  Zr34  1  0.30099318  0.50756797  0.50093095  1
  Zr  Zr35  1  0.70143133  0.89770363  0.49419267  1
  Zr  Zr36  1  0.50764809  0.69846924  0.69921931  1
  Zr  Zr37  1  0.09435115  0.69300010  0.30233648  1
  Zr  Zr38  1  0.30785074  0.89817873  0.30532790  1
  Zr  Zr39  1  0.89785305  0.30025895  0.70637559  1
  Zr  Zr40  1  0.69463929  0.09960444  0.50428585  1
  Zr  Zr41  1  0.50149544  0.90251631  0.90584174  1
  Zr  Zr42  1  0.89780513  0.91518246  0.89404856  1
  Zr  Zr43  1  0.29895536  0.89410643  0.49947279  1
  Zr  Zr44  1  0.29951731  0.30373368  0.09900235  1
  Zr  Zr45  1  0.90114726  0.90342131  0.69414067  1
  Zr  Zr46  1  0.09330743  0.89686171  0.10100992  1
  Zr  Zr47  1  0.09915343  0.10927514  0.50137984  1
  Zr  Zr48  1  0.50133466  0.28718910  0.90345204  1
  Zr  Zr49  1  0.49868473  0.90524646  0.70421910  1
  Sc  Sc50  1  0.48966185  0.49374367  0.69801673  1
  Sc  Sc51  1  0.89837794  0.69048574  0.88286690  1
  Sc  Sc52  1  0.30323047  0.89790649  0.89471574  1
  Sc  Sc53  1  0.29865889  0.30302877  0.70779485  1
  Sc  Sc54  1  0.90049281  0.50181232  0.49783034  1
  Sc  Sc55  1  0.50539148  0.10075191  0.08408495  1
  Sc  Sc56  1  0.11489076  0.69949328  0.49776140  1
  Sc  Sc57  1  0.89687618  0.90963943  0.10963979  1
  Sc  Sc58  1  0.29464134  0.30596258  0.30054156  1
  Sc  Sc59  1  0.09119601  0.49516061  0.70623353  1
  Sc  Sc60  1  0.08424406  0.89998429  0.30069983  1
  Sc  Sc61  1  0.69369082  0.68744034  0.50411898  1
  Sc  Sc62  1  0.89952525  0.69998796  0.30495175  1
  Sc  Sc63  1  0.70507901  0.51182678  0.69850948  1
  Sc  Sc64  1  0.90972293  0.29861753  0.50199870  1
  Sc  Sc65  1  0.50024052  0.70350140  0.09529873  1
  Sc  Sc66  1  0.30117750  0.90400740  0.69858910  1
  Sc  Sc67  1  0.89371900  0.70423283  0.49576206  1
  Sc  Sc68  1  0.69866910  0.10368212  0.70032934  1
  Sc  Sc69  1  0.70317971  0.10182803  0.09833558  1
  Sc  Sc70  1  0.70340750  0.10447766  0.29004528  1
  Sc  Sc71  1  0.49568352  0.29385449  0.09500143  1
  Sc  Sc72  1  0.30871622  0.09941494  0.50044299  1
  Sc  Sc73  1  0.90104925  0.70133441  0.12021059  1
  Sc  Sc74  1  0.89975689  0.89530226  0.30306813  1
  Sc  Sc75  1  0.30165826  0.29470581  0.89928989  1
  Sc  Sc76  1  0.30140862  0.09483066  0.70100091  1
  Sc  Sc77  1  0.70227191  0.69962787  0.69724710  1
  Sc  Sc78  1  0.29812870  0.10405708  0.89652742  1
  Sc  Sc79  1  0.90678856  0.89930679  0.50179326  1
  Sc  Sc80  1  0.10844808  0.90108438  0.69088097  1
  Sc  Sc81  1  0.50423989  0.91322229  0.49372943  1
  Sc  Sc82  1  0.49735671  0.50360104  0.90287910  1
  Sc  Sc83  1  0.69386418  0.90322335  0.10288961  1
  Sc  Sc84  1  0.70111915  0.90242100  0.69803670  1
  Sc  Sc85  1  0.10251602  0.70209245  0.69794447  1
  Sc  Sc86  1  0.49543882  0.29321264  0.69975057  1
  Sc  Sc87  1  0.69404585  0.90085793  0.29653247  1
  Sc  Sc88  1  0.89732758  0.10761521  0.10106772  1
  Sc  Sc89  1  0.29485589  0.10700628  0.30693120  1
  Sc  Sc90  1  0.09968388  0.29525971  0.10591720  1
  Sc  Sc91  1  0.09288210  0.49878764  0.48897544  1
  Sc  Sc92  1  0.09586768  0.49182715  0.10463088  1
  Sc  Sc93  1  0.70444747  0.50199041  0.90030748  1
  Sc  Sc94  1  0.89898082  0.50352655  0.70821499  1
  Sc  Sc95  1  0.09099380  0.10828599  0.10339785  1
  Sc  Sc96  1  0.70226813  0.10377301  0.89997494  1
  Sc  Sc97  1  0.70496203  0.49746615  0.10166449  1
  Sc  Sc98  1  0.49689555  0.70359597  0.30394401  1
  Sc  Sc99  1  0.29649384  0.29942164  0.49400879  1
  Nb  Nb100  1  0.49666288  0.49084492  0.29334562  1
  Nb  Nb101  1  0.90467400  0.10228469  0.89080995  1
  Nb  Nb102  1  0.09465328  0.09902214  0.90235070  1
  Nb  Nb103  1  0.09844339  0.91039324  0.50224979  1
  Nb  Nb104  1  0.69975086  0.49698503  0.50512089  1
  Nb  Nb105  1  0.49938314  0.30027902  0.29961671  1
  Nb  Nb106  1  0.49295474  0.69458085  0.50348799  1
  Nb  Nb107  1  0.29409972  0.49306056  0.70273641  1
  Nb  Nb108  1  0.70235181  0.30023171  0.89867285  1
  Nb  Nb109  1  0.70349735  0.29670635  0.09709952  1
  Nb  Nb110  1  0.91168242  0.50549078  0.29504418  1
  Nb  Nb111  1  0.29906427  0.49576781  0.28979839  1
  Nb  Nb112  1  0.10793561  0.50022801  0.30255656  1
  Nb  Nb113  1  0.90155120  0.49823423  0.09730655  1
  Nb  Nb114  1  0.70388208  0.30039761  0.70537611  1
  Nb  Nb115  1  0.49993502  0.90113337  0.10002026  1
  Nb  Nb116  1  0.30800197  0.49710392  0.09961076  1
  Nb  Nb117  1  0.09717783  0.89901545  0.90386764  1
  Nb  Nb118  1  0.10043692  0.50094376  0.90092830  1
  Nb  Nb119  1  0.49059984  0.49083275  0.10486492  1
  Nb  Nb120  1  0.10161263  0.30686724  0.50520612  1
  Nb  Nb121  1  0.30589568  0.69989552  0.49818353  1
  Nb  Nb122  1  0.50319057  0.10050619  0.49977970  1
  Nb  Nb123  1  0.69670991  0.29845257  0.29398921  1
  Nb  Nb124  1  0.90053131  0.09756031  0.71134978  1
  Nb  Nb125  1  0.59759507  0.20514635  0.39735281  1
  Nb  Nb126  1  0.60267501  0.39425768  0.00152976  1
  Nb  Nb127  1  -0.00436237  0.59899512  0.00108462  1
  Nb  Nb128  1  0.59888179  0.39498661  0.20049022  1
  Nb  Nb129  1  0.00258518  0.80574206  0.80347070  1
  Nb  Nb130  1  0.80844622  0.60443683  0.00592026  1
  Nb  Nb131  1  0.20254806  0.79745232  0.20306251  1
  Nb  Nb132  1  0.19047902  0.00087872  -0.00137599  1
  Nb  Nb133  1  0.20240267  -0.00531155  0.20028695  1
  Nb  Nb134  1  0.79620308  0.39972812  0.60104466  1
  Nb  Nb135  1  0.59329056  0.58821653  0.20468224  1
  Nb  Nb136  1  0.60950906  0.39799295  0.60216409  1
  Nb  Nb137  1  0.20059442  0.40293310  -0.00133125  1
  Nb  Nb138  1  0.80581897  0.79671904  -0.00206802  1
  Nb  Nb139  1  0.19569332  0.40138855  0.59913258  1
  Nb  Nb140  1  -0.00030756  0.60201415  0.59914161  1
  Nb  Nb141  1  0.60508784  0.39323930  0.80050754  1
  Nb  Nb142  1  0.40311033  0.79428550  0.59489163  1
  Nb  Nb143  1  0.19266789  -0.00136361  0.39969388  1
  Nb  Nb144  1  0.80017344  0.00287455  0.40155223  1
  Nb  Nb145  1  0.39817764  0.00340676  0.19507256  1
  Nb  Nb146  1  0.20421615  0.59267195  0.80167457  1
  Nb  Nb147  1  -0.01057420  0.79653908  -0.00658171  1
  Nb  Nb148  1  0.40352473  0.19732424  0.20323270  1
  Nb  Nb149  1  0.20600419  0.59543505  0.20197096  1
  Pd  Pd150  1  0.01126616  -0.00613395  0.79064643  1
  Pd  Pd151  1  0.40165551  0.20139843  0.39549850  1
  Pd  Pd152  1  0.59531357  0.80411442  0.59393512  1
  Pd  Pd153  1  0.20327258  0.00716013  0.59343956  1
  Pd  Pd154  1  0.40251142  0.59815766  0.60596298  1
  Pd  Pd155  1  0.80591627  0.20321965  0.60398626  1
  Pd  Pd156  1  0.40859280  0.39576014  0.80582922  1
  Pd  Pd157  1  0.80420383  0.59876645  0.40157617  1
  Pd  Pd158  1  -0.00524056  0.19856416  0.60679990  1
  Pd  Pd159  1  0.60454183  0.80460183  0.79783499  1
  Pd  Pd160  1  -0.00108481  0.39429118  0.80415040  1
  Pd  Pd161  1  0.18811920  0.80912609  0.39653652  1
  Pd  Pd162  1  0.39217643  0.40411973  0.39812339  1
  Pd  Pd163  1  0.59927135  0.58927753  0.79587017  1
  Pd  Pd164  1  -0.00610620  0.39861352  0.39448729  1
  Pd  Pd165  1  0.00745695  0.79376898  0.59851799  1
  Pd  Pd166  1  0.79464612  0.59229352  0.20290324  1
  Pd  Pd167  1  0.00434629  0.79546956  0.40916829  1
  Pd  Pd168  1  0.39465499  0.60006388  0.79686873  1
  Pd  Pd169  1  0.40500731  0.59105030  0.39273973  1
  Pd  Pd170  1  0.79888330  0.00065215  0.59867976  1
  Pd  Pd171  1  0.39273445  0.00766511  -0.00081674  1
  Pd  Pd172  1  0.59678937  0.79182150  0.40727957  1
  Pd  Pd173  1  0.79580770  0.40752555  0.20306551  1
  Pd  Pd174  1  0.21012537  0.20650479  0.60078818  1
  Pd  Pd175  1  0.00166643  0.39655435  0.20615295  1
  Pd  Pd176  1  -0.00148088  0.00141010  0.00634951  1
  Pd  Pd177  1  0.19896587  0.79783398  0.79746554  1
  Pd  Pd178  1  0.39892412  0.19294746  0.79331196  1
  Pd  Pd179  1  0.79755593  0.19126881  0.39657227  1
  Pd  Pd180  1  0.59939683  0.58737186  0.01056698  1
  Pd  Pd181  1  0.39707658  0.79723665  0.79223710  1
  Pd  Pd182  1  0.81265503  0.40270121  0.40328268  1
  Pd  Pd183  1  0.60096145  0.20997801  0.59629743  1
  Pd  Pd184  1  0.59438234  0.60291265  0.39451396  1
  Pd  Pd185  1  0.79806895  0.80830606  0.19889743  1
  Pd  Pd186  1  0.18811509  0.58867346  0.60453886  1
  Pd  Pd187  1  0.39033175  0.20203327  0.60459310  1
  Pd  Pd188  1  -0.00089706  0.20766766  0.39656039  1
  Pd  Pd189  1  0.59334740  0.20103444  0.19838502  1
  Pd  Pd190  1  0.80017870  0.00205848  0.00295400  1
  Pd  Pd191  1  0.80318654  0.80233144  0.80255720  1
  Pd  Pd192  1  0.19742786  0.00022213  0.80777633  1
  Pd  Pd193  1  0.39934545  0.79807801  0.19693251  1
  Pd  Pd194  1  0.00702200  0.59700280  0.19556567  1
  Pd  Pd195  1  -0.00533591  0.20438957  0.00024829  1
  Pd  Pd196  1  0.79504843  0.79747286  0.59460691  1
  Pd  Pd197  1  0.59430137  0.00730515  0.19364672  1
  Pd  Pd198  1  0.59710104  0.39322946  0.40173718  1
  Pd  Pd199  1  0.40157191  0.60681301  0.20183436  1
  Rh  Rh200  1  0.40044287  0.39578042  -0.00498354  1
  Rh  Rh201  1  0.19847061  0.40317138  0.80278641  1
  Rh  Rh202  1  0.40151520  0.38690575  0.20104793  1
  Rh  Rh203  1  0.79924478  -0.00002521  0.20766030  1
  Rh  Rh204  1  0.60056784  -0.00460351  0.60113613  1
  Rh  Rh205  1  0.00084752  0.00367294  0.19763761  1
  Rh  Rh206  1  0.20140263  0.40541076  0.19148128  1
  Rh  Rh207  1  -0.00178972  0.20324949  0.80130478  1
  Rh  Rh208  1  0.80113496  0.19583765  -0.00259574  1
  Rh  Rh209  1  0.79395275  0.40678616  0.79376751  1
  Rh  Rh210  1  0.79759526  0.80648905  0.39879668  1
  Rh  Rh211  1  0.79447430  0.00763991  0.79540668  1
  Rh  Rh212  1  -0.00229048  0.00007790  0.40307812  1
  Rh  Rh213  1  0.39586484  0.19523874  0.00340978  1
  Rh  Rh214  1  0.20504666  0.59293229  0.39506568  1
  Rh  Rh215  1  0.79817896  0.19225071  0.80173179  1
  Rh  Rh216  1  0.59394079  0.59094375  0.60463344  1
  Rh  Rh217  1  0.40721588  0.79820355  -0.00438690  1
  Rh  Rh218  1  0.19700168  0.81157808  0.00247300  1
  Rh  Rh219  1  0.00325939  0.00598444  0.60722081  1
  Rh  Rh220  1  -0.00574576  0.21174213  0.20107628  1
  Rh  Rh221  1  0.00212183  0.79808381  0.19901644  1
  Rh  Rh222  1  0.01344052  0.60898695  0.79835813  1
  Rh  Rh223  1  0.80197246  0.20264408  0.19335485  1
  Rh  Rh224  1  0.60255261  0.20301162  0.79681844  1
  Rh  Rh225  1  -0.00084645  0.40932215  0.60011133  1
  Rh  Rh226  1  0.59453266  0.79267659  0.19921436  1
  Rh  Rh227  1  0.40207250  -0.00643869  0.59518157  1
  Rh  Rh228  1  0.39446227  0.00169082  0.39967399  1
  Rh  Rh229  1  0.20306462  0.20068437  0.20745886  1
  Rh  Rh230  1  0.19427350  0.20108596  -0.00657393  1
  Rh  Rh231  1  0.00883693  0.40107882  -0.00157686  1
  Rh  Rh232  1  0.41295170  0.80286995  0.41150733  1
  Rh  Rh233  1  0.39985615  0.00358078  0.80213032  1
  Rh  Rh234  1  0.61023720  0.20301257  -0.00177203  1
  Rh  Rh235  1  0.20448017  0.80186121  0.59514599  1
  Rh  Rh236  1  0.20476991  0.40770883  0.40843181  1
  Rh  Rh237  1  0.60450485  0.00166991  0.79647887  1
  Rh  Rh238  1  -0.00271624  0.60259195  0.40479182  1
  Rh  Rh239  1  0.60418662  -0.00047891  0.00116131  1
  Rh  Rh240  1  0.19423928  0.58364034  0.00429805  1
  Rh  Rh241  1  0.79099563  0.40582165  0.00046104  1
  Rh  Rh242  1  0.61265153  0.01008135  0.39572151  1
  Rh  Rh243  1  0.79087941  0.60044291  0.80619802  1
  Rh  Rh244  1  0.80899412  0.59542915  0.59617055  1
  Rh  Rh245  1  0.19981197  0.19657175  0.80143358  1
  Rh  Rh246  1  0.41215272  0.59901170  0.00272783  1
  Rh  Rh247  1  0.19701647  0.19828010  0.40425374  1
  Rh  Rh248  1  0.39147402  0.39789472  0.59884017  1
  Rh  Rh249  1  0.60333591  0.80823112  0.00342844  1
