# generated using pymatgen
data_ZrScNbPdRh
_symmetry_space_group_name_H-M   'P 1'
_cell_length_a   16.55597256
_cell_length_b   16.55851326
_cell_length_c   16.55869389
_cell_angle_alpha   89.99441045
_cell_angle_beta   89.95989732
_cell_angle_gamma   89.97673274
_symmetry_Int_Tables_number   1
_chemical_formula_structural   ZrScNbPdRh
_chemical_formula_sum   'Zr50 Sc50 Nb50 Pd50 Rh50'
_cell_volume   4539.43677331
_cell_formula_units_Z   50
loop_
 _symmetry_equiv_pos_site_id
 _symmetry_equiv_pos_as_xyz
  1  'x, y, z'
loop_
 _atom_site_type_symbol
 _atom_site_label
 _atom_site_symmetry_multiplicity
 _atom_site_fract_x
 _atom_site_fract_y
 _atom_site_fract_z
 _atom_site_occupancy
  Zr  Zr0  1  0.90233816  0.30284728  0.10391792  1
  Zr  Zr1  1  0.50177319  0.89932894  0.09732726  1
  Zr  Zr2  1  0.09500675  0.10302592  0.89587201  1
  Zr  Zr3  1  0.50074195  0.89688559  0.49449855  1
  Zr  Zr4  1  0.90190138  0.91304360  0.09756831  1
  Zr  Zr5  1  0.89839315  0.90396596  0.89970585  1
  Zr  Zr6  1  0.90831091  0.29755678  0.50314153  1
  Zr  Zr7  1  0.90646582  0.50063861  0.50193930  1
  Zr  Zr8  1  0.50128436  0.70326513  0.49857592  1
  Zr  Zr9  1  0.30666983  0.50754373  0.30591914  1
  Zr  Zr10  1  0.70124935  0.89274791  0.49776049  1
  Zr  Zr11  1  0.48997353  0.09428676  0.50457195  1
  Zr  Zr12  1  0.69860117  0.09229319  0.69984835  1
  Zr  Zr13  1  0.08623559  0.10340568  0.10003139  1
  Zr  Zr14  1  0.90519078  0.10218075  0.29704484  1
  Zr  Zr15  1  0.29970869  0.30508754  0.09415190  1
  Zr  Zr16  1  0.90886172  0.90129353  0.69898411  1
  Zr  Zr17  1  0.10334890  0.70442077  0.30333157  1
  Zr  Zr18  1  0.29736239  0.09284117  0.30012658  1
  Zr  Zr19  1  0.10444972  0.10350924  0.49855235  1
  Zr  Zr20  1  0.49574043  0.50287880  0.70279819  1
  Zr  Zr21  1  0.09462941  0.49727707  0.30381880  1
  Zr  Zr22  1  0.10125800  0.10060732  0.30029311  1
  Zr  Zr23  1  0.50182789  0.89558860  0.90238875  1
  Zr  Zr24  1  0.10616611  0.69496503  0.70558737  1
  Zr  Zr25  1  0.70090962  0.70112373  0.70189682  1
  Zr  Zr26  1  0.10860298  0.90436834  0.28850944  1
  Zr  Zr27  1  0.90252414  0.70377490  0.49974780  1
  Zr  Zr28  1  0.50313252  0.90886156  0.70299196  1
  Zr  Zr29  1  0.90286151  0.90250064  0.30263787  1
  Zr  Zr30  1  0.30116013  0.70566122  0.89506135  1
  Zr  Zr31  1  0.70036720  0.90146846  0.70455951  1
  Zr  Zr32  1  0.29536302  0.89769525  0.09672731  1
  Zr  Zr33  1  0.10243139  0.30385516  0.09977029  1
  Zr  Zr34  1  0.69410234  0.89967532  0.09261393  1
  Zr  Zr35  1  0.09684372  0.69478597  0.49949595  1
  Zr  Zr36  1  0.70343069  0.70216593  0.50260787  1
  Zr  Zr37  1  0.50295812  0.89762912  0.30224979  1
  Zr  Zr38  1  0.90551410  0.49607235  0.70454172  1
  Zr  Zr39  1  0.68673911  0.09677088  0.10194379  1
  Zr  Zr40  1  0.69760383  0.50228494  0.50234061  1
  Zr  Zr41  1  0.10317656  0.29949536  0.89684469  1
  Zr  Zr42  1  0.30024664  0.29607903  0.30336362  1
  Zr  Zr43  1  0.69630584  0.30577074  0.29455933  1
  Zr  Zr44  1  0.90015783  0.68989933  0.89820848  1
  Zr  Zr45  1  0.69356485  0.30478423  0.90473042  1
  Zr  Zr46  1  0.69884321  0.49787598  0.29329126  1
  Zr  Zr47  1  0.30453418  0.90415245  0.49438187  1
  Zr  Zr48  1  0.90334646  0.49945454  0.10181060  1
  Zr  Zr49  1  0.69701580  0.08893837  0.89723751  1
  Sc  Sc50  1  0.09489878  0.90596792  0.50607539  1
  Sc  Sc51  1  0.09894983  0.50078943  0.51138903  1
  Sc  Sc52  1  0.09042461  0.30330394  0.69932812  1
  Sc  Sc53  1  0.30249645  0.70323918  0.09446997  1
  Sc  Sc54  1  0.10684193  0.90844256  0.09498802  1
  Sc  Sc55  1  0.49150269  0.69771579  0.29714554  1
  Sc  Sc56  1  0.50055671  0.50261196  0.49359562  1
  Sc  Sc57  1  0.89646467  0.30243520  0.69588342  1
  Sc  Sc58  1  0.49004878  0.09663590  0.90760511  1
  Sc  Sc59  1  0.50587301  0.50214590  0.30004646  1
  Sc  Sc60  1  0.70008170  0.09418019  0.30359121  1
  Sc  Sc61  1  0.90173190  0.50102486  0.29464278  1
  Sc  Sc62  1  0.49669267  0.49719805  0.90485858  1
  Sc  Sc63  1  0.09221061  0.29828020  0.30307857  1
  Sc  Sc64  1  0.90515075  0.10173407  0.50069094  1
  Sc  Sc65  1  0.69818765  0.69849347  0.90816694  1
  Sc  Sc66  1  0.70285026  0.69020236  0.29543929  1
  Sc  Sc67  1  0.30322852  0.30021113  0.90320410  1
  Sc  Sc68  1  0.30526043  0.50146253  0.90983611  1
  Sc  Sc69  1  0.10855849  0.49973746  0.09620163  1
  Sc  Sc70  1  0.10366937  0.69323059  0.09235065  1
  Sc  Sc71  1  0.29993537  0.10323037  0.89595989  1
  Sc  Sc72  1  0.29006394  0.50783494  0.50088285  1
  Sc  Sc73  1  0.89630834  0.69221263  0.09767372  1
  Sc  Sc74  1  0.90455209  0.69391659  0.30361960  1
  Sc  Sc75  1  0.90570076  0.69913125  0.70125940  1
  Sc  Sc76  1  0.49957355  0.30513658  0.29949014  1
  Sc  Sc77  1  0.10013253  0.09070671  0.70046597  1
  Sc  Sc78  1  0.30193652  0.10013873  0.49415044  1
  Sc  Sc79  1  0.30514959  0.10061499  0.09085504  1
  Sc  Sc80  1  0.49953861  0.70641305  0.71175690  1
  Sc  Sc81  1  0.70400625  0.48693396  0.70136091  1
  Sc  Sc82  1  0.29892464  0.30062546  0.70461729  1
  Sc  Sc83  1  0.89685066  0.50167418  0.89244563  1
  Sc  Sc84  1  0.70959621  0.30110872  0.51422661  1
  Sc  Sc85  1  0.90486001  0.09670445  0.90012025  1
  Sc  Sc86  1  0.50135106  0.09817516  0.29973851  1
  Sc  Sc87  1  0.49851141  0.69891171  0.90342917  1
  Sc  Sc88  1  0.49461585  0.30710023  0.70617473  1
  Sc  Sc89  1  0.90117382  0.09875233  0.69982490  1
  Sc  Sc90  1  0.50516413  0.69773722  0.09654711  1
  Sc  Sc91  1  0.71213115  0.10176057  0.50339181  1
  Sc  Sc92  1  0.70317212  0.49910648  0.90197781  1
  Sc  Sc93  1  0.90056145  0.89253919  0.50119748  1
  Sc  Sc94  1  0.69863174  0.49433695  0.10457262  1
  Sc  Sc95  1  0.90388659  0.30517734  0.88636019  1
  Sc  Sc96  1  0.69535623  0.69223828  0.09880950  1
  Sc  Sc97  1  0.29514473  0.69996151  0.48399577  1
  Sc  Sc98  1  0.90647688  0.30505941  0.30174432  1
  Sc  Sc99  1  0.10284535  0.69298615  0.89822643  1
  Nb  Nb100  1  0.29468989  0.50588554  0.69402739  1
  Nb  Nb101  1  0.10620304  0.90056627  0.70377988  1
  Nb  Nb102  1  0.49519095  0.09707956  0.10120813  1
  Nb  Nb103  1  0.30025664  0.69883218  0.70369694  1
  Nb  Nb104  1  0.70076144  0.90148517  0.29484591  1
  Nb  Nb105  1  0.49153503  0.29681471  0.50218654  1
  Nb  Nb106  1  0.10716952  0.50215475  0.69707222  1
  Nb  Nb107  1  0.29935641  0.29885896  0.50041959  1
  Nb  Nb108  1  0.49914582  0.10002215  0.70121681  1
  Nb  Nb109  1  0.29406298  0.70621160  0.29905282  1
  Nb  Nb110  1  0.29960059  0.88966012  0.29161825  1
  Nb  Nb111  1  0.49529161  0.50141552  0.10020585  1
  Nb  Nb112  1  0.30318941  0.09566440  0.69496719  1
  Nb  Nb113  1  0.50520542  0.29325937  0.09632448  1
  Nb  Nb114  1  0.10428106  0.30067998  0.50225370  1
  Nb  Nb115  1  0.10082512  0.90227544  0.89126586  1
  Nb  Nb116  1  0.29657799  0.90043420  0.90344001  1
  Nb  Nb117  1  0.69851667  0.29439641  0.70222208  1
  Nb  Nb118  1  0.69825759  0.29826810  0.10183160  1
  Nb  Nb119  1  0.49679885  0.30015567  0.90469194  1
  Nb  Nb120  1  0.89837495  0.10537532  0.10049204  1
  Nb  Nb121  1  0.69810948  0.89947440  0.89644486  1
  Nb  Nb122  1  0.30054564  0.49609797  0.09973734  1
  Nb  Nb123  1  0.29269116  0.90082544  0.70540537  1
  Nb  Nb124  1  0.09631160  0.50366791  0.89939489  1
  Nb  Nb125  1  0.39486209  0.60536625  0.60401624  1
  Nb  Nb126  1  0.59692830  0.20433695  0.41271191  1
  Nb  Nb127  1  -0.00019462  0.80352714  -0.00227022  1
  Nb  Nb128  1  0.19979679  0.39452272  0.40712944  1
  Nb  Nb129  1  0.78986733  0.19946663  0.80229839  1
  Nb  Nb130  1  0.20929991  0.59956104  0.20320230  1
  Nb  Nb131  1  0.00417776  0.40276181  -0.00416503  1
  Nb  Nb132  1  0.59221013  0.19944569  0.60445084  1
  Nb  Nb133  1  0.79999839  0.40200091  0.40283824  1
  Nb  Nb134  1  0.79977600  0.80408805  0.80451407  1
  Nb  Nb135  1  0.79712098  0.20065194  0.19297647  1
  Nb  Nb136  1  0.20008366  0.20032119  0.19854240  1
  Nb  Nb137  1  0.40018207  0.40223133  0.19093002  1
  Nb  Nb138  1  0.20522965  0.80259801  0.60777977  1
  Nb  Nb139  1  0.20439169  0.20127313  0.59872157  1
  Nb  Nb140  1  0.59499018  0.19961390  0.79873081  1
  Nb  Nb141  1  0.39181946  0.79954511  0.60626759  1
  Nb  Nb142  1  0.19740972  0.40993331  0.79606261  1
  Nb  Nb143  1  0.80070666  0.80677372  0.19913320  1
  Nb  Nb144  1  0.60050993  0.59724841  0.80087712  1
  Nb  Nb145  1  0.39267987  0.40376380  0.59627596  1
  Nb  Nb146  1  0.80101602  0.59975122  0.60005074  1
  Nb  Nb147  1  0.39935932  -0.00561770  0.19750081  1
  Nb  Nb148  1  -0.00218351  0.80308430  0.19272984  1
  Nb  Nb149  1  0.79583040  0.20138123  0.00295669  1
  Pd  Pd150  1  0.19770633  0.20348202  0.78860791  1
  Pd  Pd151  1  0.39726035  0.60013153  0.19620472  1
  Pd  Pd152  1  0.39486787  -0.00725604  0.60333055  1
  Pd  Pd153  1  0.20500641  0.40137122  0.21205186  1
  Pd  Pd154  1  0.20181475  0.19514209  0.00331552  1
  Pd  Pd155  1  0.59875487  0.60086622  0.60969189  1
  Pd  Pd156  1  0.19043054  0.79766008  -0.00573547  1
  Pd  Pd157  1  0.00775091  0.19471841  0.60729434  1
  Pd  Pd158  1  0.80372903  0.79764880  0.00192269  1
  Pd  Pd159  1  0.79544349  0.59271832  0.00445922  1
  Pd  Pd160  1  0.80766025  -0.00400684  0.59485552  1
  Pd  Pd161  1  0.39927889  0.60541737  0.00112782  1
  Pd  Pd162  1  0.60660815  0.79086002  0.38719836  1
  Pd  Pd163  1  0.19253486  0.81072834  0.40889756  1
  Pd  Pd164  1  0.58965350  0.39359272  0.59734723  1
  Pd  Pd165  1  0.80391256  0.59298623  0.40235968  1
  Pd  Pd166  1  0.20370893  0.00537929  0.80336175  1
  Pd  Pd167  1  0.79784211  0.00774777  0.00143411  1
  Pd  Pd168  1  0.40129724  0.79990454  0.19401771  1
  Pd  Pd169  1  0.60332135  0.00352841  0.58994120  1
  Pd  Pd170  1  0.39596151  -0.00148007  0.80470063  1
  Pd  Pd171  1  0.60620674  0.39080282  0.41152951  1
  Pd  Pd172  1  0.40598953  0.19643600  0.39516645  1
  Pd  Pd173  1  0.60676505  0.79328269  0.20365698  1
  Pd  Pd174  1  0.59865908  0.40174379  0.80246509  1
  Pd  Pd175  1  -0.00007479  0.79666321  0.80749078  1
  Pd  Pd176  1  0.01101720  0.79945132  0.60319110  1
  Pd  Pd177  1  0.19941229  -0.00721910  0.40067616  1
  Pd  Pd178  1  0.40389785  0.19966592  0.80081970  1
  Pd  Pd179  1  0.79836528  0.79685799  0.38798326  1
  Pd  Pd180  1  0.59878124  0.60616009  0.39415727  1
  Pd  Pd181  1  0.79503264  0.20958115  0.39178611  1
  Pd  Pd182  1  0.38835409  0.40605350  0.79962587  1
  Pd  Pd183  1  0.80354092  -0.00136027  0.40530961  1
  Pd  Pd184  1  0.19702449  0.00896364  -0.00429300  1
  Pd  Pd185  1  0.20723544  0.59262401  0.80989672  1
  Pd  Pd186  1  0.39752475  0.19951427  0.19747269  1
  Pd  Pd187  1  0.39833476  0.80758561  0.79946739  1
  Pd  Pd188  1  0.00946966  0.60635664  0.19688705  1
  Pd  Pd189  1  0.60490422  0.00831960  0.40721712  1
  Pd  Pd190  1  0.59198277  0.80165468  0.60557615  1
  Pd  Pd191  1  0.60024551  0.19641693  0.21014236  1
  Pd  Pd192  1  0.59694013  0.19410109  -0.00706522  1
  Pd  Pd193  1  0.80886375  0.39665254  -0.00411878  1
  Pd  Pd194  1  0.39604416  0.40471095  0.40368867  1
  Pd  Pd195  1  -0.01041889  0.20978323  -0.00865154  1
  Pd  Pd196  1  0.79644271  0.00286507  0.19914035  1
  Pd  Pd197  1  0.39614152  0.20648506  0.60797169  1
  Pd  Pd198  1  0.59524222  0.40592082  0.00638602  1
  Pd  Pd199  1  0.00049969  -0.00173137  0.40415740  1
  Rh  Rh200  1  0.20464870  0.00268565  0.60180811  1
  Rh  Rh201  1  0.00045010  0.00035040  0.59996150  1
  Rh  Rh202  1  0.80393292  0.79562846  0.61102334  1
  Rh  Rh203  1  0.59817847  0.59243100  -0.00405028  1
  Rh  Rh204  1  -0.00498811  0.60073190  0.60648029  1
  Rh  Rh205  1  0.00157394  0.20047833  0.40143397  1
  Rh  Rh206  1  0.00747726  -0.00416710  -0.00531140  1
  Rh  Rh207  1  -0.00024745  0.20271352  0.20482738  1
  Rh  Rh208  1  0.40357630  0.60512857  0.40580749  1
  Rh  Rh209  1  0.80321970  0.39583745  0.20791668  1
  Rh  Rh210  1  0.80666181  -0.00231462  0.79900032  1
  Rh  Rh211  1  0.58725788  0.40159590  0.18991807  1
  Rh  Rh212  1  0.39972944  0.79945315  -0.00119563  1
  Rh  Rh213  1  0.19623123  0.20592826  0.40032730  1
  Rh  Rh214  1  0.19277999  0.78916719  0.19213808  1
  Rh  Rh215  1  0.39719196  -0.00662720  0.00285301  1
  Rh  Rh216  1  0.79573803  0.39102918  0.80138424  1
  Rh  Rh217  1  0.00656371  0.80710003  0.39124319  1
  Rh  Rh218  1  0.00123086  0.40018676  0.40878511  1
  Rh  Rh219  1  0.58705174  0.00594301  0.80834119  1
  Rh  Rh220  1  0.60904612  0.79285328  0.80747009  1
  Rh  Rh221  1  0.00975762  0.40635636  0.80149266  1
  Rh  Rh222  1  0.21062584  0.00940094  0.19084278  1
  Rh  Rh223  1  0.80027720  0.60268428  0.19620798  1
  Rh  Rh224  1  0.80598530  0.40598021  0.59690037  1
  Rh  Rh225  1  0.00266212  0.40118259  0.60227751  1
  Rh  Rh226  1  0.79809883  0.19544962  0.61144898  1
  Rh  Rh227  1  0.00390334  0.40299853  0.19160817  1
  Rh  Rh228  1  0.39758345  -0.00575787  0.38705214  1
  Rh  Rh229  1  0.20729182  0.59762274  0.00194433  1
  Rh  Rh230  1  0.59385217  0.00025435  -0.00438839  1
  Rh  Rh231  1  0.19424728  0.40745921  -0.01399652  1
  Rh  Rh232  1  0.19290240  0.59093260  0.39332883  1
  Rh  Rh233  1  0.39848082  0.79798703  0.40024881  1
  Rh  Rh234  1  0.19897630  0.80268788  0.80145027  1
  Rh  Rh235  1  0.40902623  0.39425425  0.00667873  1
  Rh  Rh236  1  -0.00112379  0.59582151  -0.00209918  1
  Rh  Rh237  1  0.60011073  0.79724750  -0.00295827  1
  Rh  Rh238  1  0.59609592  0.59640951  0.19765386  1
  Rh  Rh239  1  0.40283927  0.20379343  -0.00143503  1
  Rh  Rh240  1  0.79133906  0.60535093  0.79476669  1
  Rh  Rh241  1  0.00228046  0.59733850  0.40068524  1
  Rh  Rh242  1  -0.00743827  0.19613935  0.79489864  1
  Rh  Rh243  1  0.59103853  -0.00077956  0.20145758  1
  Rh  Rh244  1  0.00200795  0.00117626  0.79804586  1
  Rh  Rh245  1  0.20486622  0.61526546  0.59609090  1
  Rh  Rh246  1  0.20358050  0.39090229  0.60206872  1
  Rh  Rh247  1  0.40245224  0.59777238  0.79934728  1
  Rh  Rh248  1  0.00079641  -0.00111254  0.19909867  1
  Rh  Rh249  1  0.00333814  0.59647895  0.79559726  1
