# generated using pymatgen
data_ZrScNbPdRh
_symmetry_space_group_name_H-M   'P 1'
_cell_length_a   16.55281421
_cell_length_b   16.56145046
_cell_length_c   16.56124322
_cell_angle_alpha   89.99580863
_cell_angle_beta   89.97596820
_cell_angle_gamma   89.98886148
_symmetry_Int_Tables_number   1
_chemical_formula_structural   ZrScNbPdRh
_chemical_formula_sum   'Zr50 Sc50 Nb50 Pd50 Rh50'
_cell_volume   4540.07573874
_cell_formula_units_Z   50
loop_
 _symmetry_equiv_pos_site_id
 _symmetry_equiv_pos_as_xyz
  1  'x, y, z'
loop_
 _atom_site_type_symbol
 _atom_site_label
 _atom_site_symmetry_multiplicity
 _atom_site_fract_x
 _atom_site_fract_y
 _atom_site_fract_z
 _atom_site_occupancy
  Zr  Zr0  1  0.10530489  0.29833643  0.29900748  1
  Zr  Zr1  1  0.29713217  0.09981816  0.89397755  1
  Zr  Zr2  1  0.09562899  0.70531450  0.90004522  1
  Zr  Zr3  1  0.09502496  0.69629297  0.70080406  1
  Zr  Zr4  1  0.70198586  0.50097797  0.70160605  1
  Zr  Zr5  1  0.50017148  0.10320696  0.90036995  1
  Zr  Zr6  1  0.10732616  0.89693451  0.08259374  1
  Zr  Zr7  1  0.09426579  0.49651651  0.49962721  1
  Zr  Zr8  1  0.70229837  0.89109262  0.89139937  1
  Zr  Zr9  1  0.70545047  0.69542623  0.09785898  1
  Zr  Zr10  1  0.29418957  0.68768302  0.69818750  1
  Zr  Zr11  1  0.49725488  0.49722376  0.49863030  1
  Zr  Zr12  1  0.89762558  0.50438995  0.50257864  1
  Zr  Zr13  1  0.90096173  0.10443139  0.10072034  1
  Zr  Zr14  1  0.29766007  0.50134399  0.90147611  1
  Zr  Zr15  1  0.90221333  0.29275838  0.70374228  1
  Zr  Zr16  1  0.49839058  0.29588865  0.30370366  1
  Zr  Zr17  1  0.70784892  0.50320510  0.90168492  1
  Zr  Zr18  1  0.90044634  0.70144126  0.90628324  1
  Zr  Zr19  1  0.70679067  0.90104537  0.30148058  1
  Zr  Zr20  1  0.31146467  0.88852989  0.68661060  1
  Zr  Zr21  1  0.28490555  0.90439153  0.91052588  1
  Zr  Zr22  1  0.69880272  0.90215084  0.49603516  1
  Zr  Zr23  1  0.50594908  0.10391505  0.49608272  1
  Zr  Zr24  1  0.69343061  0.49977611  0.51069442  1
  Zr  Zr25  1  0.70068119  0.29372927  0.49562225  1
  Zr  Zr26  1  0.90551667  0.10263119  0.88754241  1
  Zr  Zr27  1  0.30625288  0.50412460  0.10658415  1
  Zr  Zr28  1  0.69862531  0.70297308  0.48690011  1
  Zr  Zr29  1  0.48377372  0.71380941  0.70441915  1
  Zr  Zr30  1  0.49211988  0.30298676  0.49825041  1
  Zr  Zr31  1  0.29741697  0.29546427  0.89690375  1
  Zr  Zr32  1  0.89754286  0.68495537  0.29948656  1
  Zr  Zr33  1  0.51182994  0.30091434  0.09764868  1
  Zr  Zr34  1  0.50465886  0.09449550  0.69448178  1
  Zr  Zr35  1  0.10186286  0.90057538  0.49784688  1
  Zr  Zr36  1  0.50605322  0.70903352  0.89867431  1
  Zr  Zr37  1  0.89826603  0.49965984  0.70463327  1
  Zr  Zr38  1  0.10255693  0.09437909  0.89419070  1
  Zr  Zr39  1  0.09744635  0.89687912  0.30805629  1
  Zr  Zr40  1  0.09011608  0.29912487  0.69505594  1
  Zr  Zr41  1  0.48983028  0.10257506  0.29686965  1
  Zr  Zr42  1  0.70157100  0.29934285  0.69832668  1
  Zr  Zr43  1  0.49258659  0.91093194  0.50987156  1
  Zr  Zr44  1  0.08868653  0.90057802  0.89859013  1
  Zr  Zr45  1  0.90404362  0.30613221  0.49916929  1
  Zr  Zr46  1  0.29318574  0.69899852  0.30072530  1
  Zr  Zr47  1  0.90604430  0.30569381  0.90447442  1
  Zr  Zr48  1  0.50843385  0.50554262  0.90768094  1
  Zr  Zr49  1  0.29988186  0.08994288  0.50030869  1
  Sc  Sc50  1  0.50057910  0.50897700  0.68669437  1
  Sc  Sc51  1  0.71079965  0.09906814  0.31019029  1
  Sc  Sc52  1  0.29909878  0.69994105  0.88940246  1
  Sc  Sc53  1  0.70293133  0.90170918  0.09069817  1
  Sc  Sc54  1  0.09322112  0.50340509  0.69804770  1
  Sc  Sc55  1  0.28833954  0.69887410  0.50787258  1
  Sc  Sc56  1  0.09083321  0.69530599  0.09297041  1
  Sc  Sc57  1  0.49881752  0.91190204  0.09258822  1
  Sc  Sc58  1  0.71086644  0.30024646  0.09848501  1
  Sc  Sc59  1  0.30222782  0.29857286  0.30551653  1
  Sc  Sc60  1  0.70038903  0.10744404  0.89174928  1
  Sc  Sc61  1  0.51038442  0.70119590  0.31030688  1
  Sc  Sc62  1  0.29874530  0.69386709  0.09894563  1
  Sc  Sc63  1  0.10258475  0.09948379  0.29838576  1
  Sc  Sc64  1  0.89809008  0.69691114  0.50407762  1
  Sc  Sc65  1  0.10169527  0.09828489  0.49370726  1
  Sc  Sc66  1  0.90414701  0.69721579  0.69744862  1
  Sc  Sc67  1  0.10330052  0.30570024  0.49821707  1
  Sc  Sc68  1  0.50656253  0.90153347  0.89757747  1
  Sc  Sc69  1  0.90275382  0.50294760  0.10263392  1
  Sc  Sc70  1  0.29357549  0.28995414  0.10717832  1
  Sc  Sc71  1  0.29630774  0.91190041  0.29603556  1
  Sc  Sc72  1  0.50272930  0.90382166  0.30884545  1
  Sc  Sc73  1  0.89647039  0.89105334  0.70753118  1
  Sc  Sc74  1  0.70160704  0.49853964  0.09822258  1
  Sc  Sc75  1  0.09437203  0.29983187  0.09420465  1
  Sc  Sc76  1  0.29691341  0.49211417  0.50896428  1
  Sc  Sc77  1  0.09537137  0.89293177  0.70228384  1
  Sc  Sc78  1  0.49307844  0.49008759  0.29443822  1
  Sc  Sc79  1  0.90415637  0.09786404  0.29015098  1
  Sc  Sc80  1  0.70593162  0.50371244  0.29225915  1
  Sc  Sc81  1  0.70761521  0.10808114  0.09215517  1
  Sc  Sc82  1  0.90232617  0.10703308  0.50044553  1
  Sc  Sc83  1  0.90639258  0.90794631  0.09891579  1
  Sc  Sc84  1  0.09345756  0.69933380  0.50187340  1
  Sc  Sc85  1  0.70872690  0.70390265  0.70586841  1
  Sc  Sc86  1  0.09795754  0.10507696  0.10269254  1
  Sc  Sc87  1  0.69984430  0.70046269  0.90570025  1
  Sc  Sc88  1  0.49528086  0.09849085  0.09861388  1
  Sc  Sc89  1  0.90405266  0.49499909  0.29551231  1
  Sc  Sc90  1  0.50641608  0.50069992  0.10280242  1
  Sc  Sc91  1  0.49627330  0.29457870  0.69633312  1
  Sc  Sc92  1  0.30372414  0.09033416  0.10603335  1
  Sc  Sc93  1  0.30335217  0.29505570  0.70008866  1
  Sc  Sc94  1  0.90219196  0.91256308  0.30172477  1
  Sc  Sc95  1  0.69925638  0.29720520  0.91049281  1
  Sc  Sc96  1  0.50535031  0.69388134  0.09464781  1
  Sc  Sc97  1  0.90597402  0.89593204  0.49983908  1
  Sc  Sc98  1  0.09887174  0.69070270  0.31041181  1
  Sc  Sc99  1  0.50398603  0.69445238  0.50314481  1
  Nb  Nb100  1  0.09266834  0.10225145  0.70053780  1
  Nb  Nb101  1  0.69689609  0.10000203  0.50828759  1
  Nb  Nb102  1  0.10159122  0.50159872  0.29658472  1
  Nb  Nb103  1  0.29640710  0.09818337  0.70389835  1
  Nb  Nb104  1  0.70041965  0.70750893  0.29836778  1
  Nb  Nb105  1  0.90110429  0.69706639  0.10311543  1
  Nb  Nb106  1  0.70648451  0.29780074  0.30009147  1
  Nb  Nb107  1  0.90331719  0.90183959  0.89962560  1
  Nb  Nb108  1  0.29660091  0.50252363  0.70661038  1
  Nb  Nb109  1  0.50154924  0.89910107  0.70098217  1
  Nb  Nb110  1  0.30251284  0.89758593  0.10076117  1
  Nb  Nb111  1  0.70721590  0.10135735  0.69817467  1
  Nb  Nb112  1  0.10107249  0.30804137  0.90271771  1
  Nb  Nb113  1  0.29492761  0.29540907  0.50111935  1
  Nb  Nb114  1  0.29908010  0.50535296  0.29732204  1
  Nb  Nb115  1  0.29762671  0.89644128  0.49824442  1
  Nb  Nb116  1  0.09691882  0.49837809  0.09893394  1
  Nb  Nb117  1  0.50140323  0.30139313  0.89944738  1
  Nb  Nb118  1  0.69667429  0.90357276  0.70152059  1
  Nb  Nb119  1  0.90789241  0.49926389  0.90053257  1
  Nb  Nb120  1  0.89175655  0.29776143  0.29331623  1
  Nb  Nb121  1  0.08564216  0.48708055  0.91078339  1
  Nb  Nb122  1  0.90733119  0.10807265  0.70045838  1
  Nb  Nb123  1  0.29738017  0.11049209  0.28997277  1
  Nb  Nb124  1  0.89746998  0.29151761  0.11024763  1
  Nb  Nb125  1  0.40136208  0.20440879  -0.00489150  1
  Nb  Nb126  1  0.40104885  0.39435113  -0.00282179  1
  Nb  Nb127  1  0.40091318  0.80289978  0.20024872  1
  Nb  Nb128  1  0.79905281  0.00529207  0.60693479  1
  Nb  Nb129  1  0.60445328  0.19807654  0.20674617  1
  Nb  Nb130  1  0.39596845  0.80408525  0.00347682  1
  Nb  Nb131  1  0.39263772  0.59854930  0.39837259  1
  Nb  Nb132  1  0.20117560  0.19440767  0.60171544  1
  Nb  Nb133  1  0.59629304  0.40173022  0.80081498  1
  Nb  Nb134  1  0.40125250  0.40409536  0.80306956  1
  Nb  Nb135  1  0.60372376  0.80439285  0.20056708  1
  Nb  Nb136  1  0.60065416  0.80852900  0.60481264  1
  Nb  Nb137  1  0.60556755  0.00319045  0.20168237  1
  Nb  Nb138  1  0.60440199  0.39368572  0.39846156  1
  Nb  Nb139  1  0.39262684  0.79945877  0.40208779  1
  Nb  Nb140  1  0.39769179  -0.00163429  0.79400645  1
  Nb  Nb141  1  -0.00073585  0.79628945  0.19963196  1
  Nb  Nb142  1  0.19116209  0.58968926  -0.00271739  1
  Nb  Nb143  1  -0.00175533  0.20819177  0.39343025  1
  Nb  Nb144  1  0.80740873  0.00062475  -0.01284300  1
  Nb  Nb145  1  -0.00446956  0.00555612  0.60733138  1
  Nb  Nb146  1  0.19708936  0.41076985  0.20177886  1
  Nb  Nb147  1  0.19781710  0.80029092  0.19720750  1
  Nb  Nb148  1  0.19652374  0.40213042  0.80403743  1
  Nb  Nb149  1  0.80326427  0.79646582  0.20039324  1
  Pd  Pd150  1  0.60151448  0.00637760  0.39456998  1
  Pd  Pd151  1  0.59682629  0.60210608  0.79276991  1
  Pd  Pd152  1  0.79469776  0.39281488  0.80619605  1
  Pd  Pd153  1  0.20701590  0.40563606  0.39441621  1
  Pd  Pd154  1  0.80372853  0.00082633  0.79699326  1
  Pd  Pd155  1  0.80848354  0.80731115  0.00589142  1
  Pd  Pd156  1  0.19265367  -0.00421882  0.19662453  1
  Pd  Pd157  1  0.59831335  0.60409872  0.20510502  1
  Pd  Pd158  1  0.79588473  0.59243950  0.39969995  1
  Pd  Pd159  1  0.80715477  0.60648812  0.80394236  1
  Pd  Pd160  1  0.80929686  0.19455596  0.39917705  1
  Pd  Pd161  1  0.60521211  0.61857567  0.60994732  1
  Pd  Pd162  1  0.59594869  0.58500516  0.39035876  1
  Pd  Pd163  1  0.81383602  0.80083532  0.39300456  1
  Pd  Pd164  1  -0.00206832  0.39832144  0.39191608  1
  Pd  Pd165  1  0.38929111  0.19615225  0.40376877  1
  Pd  Pd166  1  0.60042992  0.20679591  0.79637217  1
  Pd  Pd167  1  0.39238462  -0.00142182  0.39342584  1
  Pd  Pd168  1  0.79592981  0.80524620  0.60029169  1
  Pd  Pd169  1  0.20264973  0.59178281  0.41140662  1
  Pd  Pd170  1  0.20254823  0.39526112  0.61176512  1
  Pd  Pd171  1  0.80349706  0.39761005  0.60131432  1
  Pd  Pd172  1  0.20220905  -0.01278597  0.78587175  1
  Pd  Pd173  1  0.61242871  0.00634733  -0.00007676  1
  Pd  Pd174  1  0.41353170  0.61173442  0.20914207  1
  Pd  Pd175  1  0.18237482  0.58936709  0.80904657  1
  Pd  Pd176  1  0.39338420  0.19246858  0.59869453  1
  Pd  Pd177  1  0.20304943  0.19284208  0.00510467  1
  Pd  Pd178  1  0.80696313  0.40270689  0.00706923  1
  Pd  Pd179  1  0.39640925  0.60603505  -0.00377882  1
  Pd  Pd180  1  -0.00783970  0.79214248  0.39505919  1
  Pd  Pd181  1  0.20697626  0.40254522  0.00716551  1
  Pd  Pd182  1  0.80923505  0.00586548  0.41210749  1
  Pd  Pd183  1  0.39261520  0.38995449  0.19441405  1
  Pd  Pd184  1  0.19053862  0.20827073  0.79263582  1
  Pd  Pd185  1  0.00293134  0.39526875  0.19758218  1
  Pd  Pd186  1  0.39397278  0.40143716  0.60893435  1
  Pd  Pd187  1  0.19232558  0.00053148  0.60777810  1
  Pd  Pd188  1  0.61005384  0.39364717  0.20592609  1
  Pd  Pd189  1  0.20302101  0.80470140  0.79537372  1
  Pd  Pd190  1  0.00166321  0.19823694  -0.00440068  1
  Pd  Pd191  1  0.59784020  0.20429168  0.60131679  1
  Pd  Pd192  1  0.79419885  0.40785424  0.39728694  1
  Pd  Pd193  1  0.20312732  0.00412336  0.39206980  1
  Pd  Pd194  1  0.59837312  0.00227262  0.80091764  1
  Pd  Pd195  1  0.01136413  -0.00718526  0.19488730  1
  Pd  Pd196  1  0.80342402  0.19817727  0.59776394  1
  Pd  Pd197  1  0.19187619  0.79723792  0.60128266  1
  Pd  Pd198  1  0.40883017  0.59332591  0.80031623  1
  Pd  Pd199  1  0.18895620  0.60415109  0.19134519  1
  Rh  Rh200  1  0.00073594  0.80489559  0.59856150  1
  Rh  Rh201  1  0.60296357  0.40275052  -0.00457415  1
  Rh  Rh202  1  0.80323140  0.79593110  0.80235321  1
  Rh  Rh203  1  0.59554248  0.19463729  0.00645889  1
  Rh  Rh204  1  -0.00417643  0.01097199  0.40736984  1
  Rh  Rh205  1  0.39264564  0.81621543  0.81534654  1
  Rh  Rh206  1  0.79267989  -0.00269678  0.18579702  1
  Rh  Rh207  1  0.40627030  0.19355582  0.80019568  1
  Rh  Rh208  1  0.79839763  0.60089602  0.19780565  1
  Rh  Rh209  1  0.59075061  0.80575862  0.40712925  1
  Rh  Rh210  1  0.01044266  0.19518485  0.58542448  1
  Rh  Rh211  1  0.40587248  0.20465292  0.19036556  1
  Rh  Rh212  1  0.40495960  0.79179547  0.58504111  1
  Rh  Rh213  1  0.39159963  0.60025286  0.59400416  1
  Rh  Rh214  1  0.81148186  0.19609196  -0.00705492  1
  Rh  Rh215  1  -0.00273964  0.00851403  -0.00249976  1
  Rh  Rh216  1  0.40662631  -0.00696163  0.20576372  1
  Rh  Rh217  1  0.60830200  0.60092549  0.00233177  1
  Rh  Rh218  1  -0.00608052  0.79523910  0.79970530  1
  Rh  Rh219  1  0.79865477  0.20735257  0.80374541  1
  Rh  Rh220  1  -0.00194409  -0.00471121  0.79107161  1
  Rh  Rh221  1  0.59772224  0.39161182  0.59926219  1
  Rh  Rh222  1  0.39465138  0.40597249  0.40198936  1
  Rh  Rh223  1  0.00472059  0.60301520  0.20177683  1
  Rh  Rh224  1  0.79494360  0.60443346  0.59897393  1
  Rh  Rh225  1  0.39380154  0.00094208  -0.01147606  1
  Rh  Rh226  1  0.60429670  0.79617219  0.79218094  1
  Rh  Rh227  1  0.79319946  0.19486451  0.20333592  1
  Rh  Rh228  1  0.19414988  0.59267006  0.59902329  1
  Rh  Rh229  1  0.00145340  0.20659067  0.20742009  1
  Rh  Rh230  1  0.00871217  0.20803407  0.81053927  1
  Rh  Rh231  1  0.39565722  0.00632538  0.60621624  1
  Rh  Rh232  1  0.20560972  0.80454638  0.39568764  1
  Rh  Rh233  1  0.60457235  0.20110258  0.39524489  1
  Rh  Rh234  1  0.80662014  0.59355572  -0.00035181  1
  Rh  Rh235  1  -0.00865582  0.80149443  0.00625917  1
  Rh  Rh236  1  -0.00134885  0.59754005  -0.00214103  1
  Rh  Rh237  1  -0.00720922  0.40452119  0.60403237  1
  Rh  Rh238  1  0.19732381  0.20286046  0.19922530  1
  Rh  Rh239  1  0.19936916  0.01203919  0.00886037  1
  Rh  Rh240  1  -0.00156804  0.59965739  0.59890917  1
  Rh  Rh241  1  -0.00132545  0.59802123  0.80663066  1
  Rh  Rh242  1  0.20016401  0.19671291  0.40579163  1
  Rh  Rh243  1  -0.00069129  0.59301245  0.40198854  1
  Rh  Rh244  1  0.60933677  -0.00247976  0.60224144  1
  Rh  Rh245  1  0.20741724  0.78348375  0.00502788  1
  Rh  Rh246  1  0.80273555  0.39946390  0.19584765  1
  Rh  Rh247  1  0.59018477  0.80162654  0.00871937  1
  Rh  Rh248  1  -0.01107988  0.39496929  0.01359197  1
  Rh  Rh249  1  0.00344965  0.40000666  0.79490631  1
