# generated using pymatgen
data_ZrScNbPdRh
_symmetry_space_group_name_H-M   'P 1'
_cell_length_a   16.55731833
_cell_length_b   16.55848552
_cell_length_c   16.56029188
_cell_angle_alpha   89.95166610
_cell_angle_beta   90.00908635
_cell_angle_gamma   89.98860142
_symmetry_Int_Tables_number   1
_chemical_formula_structural   ZrScNbPdRh
_chemical_formula_sum   'Zr50 Sc50 Nb50 Pd50 Rh50'
_cell_volume   4540.23601881
_cell_formula_units_Z   50
loop_
 _symmetry_equiv_pos_site_id
 _symmetry_equiv_pos_as_xyz
  1  'x, y, z'
loop_
 _atom_site_type_symbol
 _atom_site_label
 _atom_site_symmetry_multiplicity
 _atom_site_fract_x
 _atom_site_fract_y
 _atom_site_fract_z
 _atom_site_occupancy
  Zr  Zr0  1  0.48412644  0.50817755  0.89622980  1
  Zr  Zr1  1  0.50825255  0.49760113  0.10133657  1
  Zr  Zr2  1  0.30505295  0.11269730  0.90769089  1
  Zr  Zr3  1  0.69244086  0.89951520  0.89734207  1
  Zr  Zr4  1  0.90015103  0.09840498  0.69953924  1
  Zr  Zr5  1  0.90006147  0.49323531  0.50059467  1
  Zr  Zr6  1  0.29403972  0.28891647  0.10122577  1
  Zr  Zr7  1  0.09886459  0.70024283  0.89050943  1
  Zr  Zr8  1  0.90025538  0.30135503  0.49695412  1
  Zr  Zr9  1  0.10842921  0.10091148  0.09364390  1
  Zr  Zr10  1  0.29678423  0.89099426  0.50005521  1
  Zr  Zr11  1  0.09804050  0.69938310  0.29623728  1
  Zr  Zr12  1  0.08836292  0.89627848  0.29349761  1
  Zr  Zr13  1  0.10377311  0.08875901  0.29797420  1
  Zr  Zr14  1  0.90355560  0.89631871  0.90089799  1
  Zr  Zr15  1  0.49947782  0.49801796  0.29991091  1
  Zr  Zr16  1  0.30333854  0.10633399  0.69782722  1
  Zr  Zr17  1  0.30507041  0.30064786  0.29912839  1
  Zr  Zr18  1  0.09873428  0.89772314  0.90987140  1
  Zr  Zr19  1  0.28779308  0.50414673  0.50123364  1
  Zr  Zr20  1  0.49273298  0.90207803  0.30029929  1
  Zr  Zr21  1  0.50485475  0.89450308  0.70295111  1
  Zr  Zr22  1  0.50302996  0.69540636  0.70115495  1
  Zr  Zr23  1  0.70019506  0.90223000  0.09412490  1
  Zr  Zr24  1  0.30137733  0.09862258  0.29284337  1
  Zr  Zr25  1  0.90472415  0.29630764  0.71132447  1
  Zr  Zr26  1  0.70488565  0.49861358  0.09500808  1
  Zr  Zr27  1  0.09504900  0.10037255  0.49912457  1
  Zr  Zr28  1  0.68519123  0.50100570  0.70311910  1
  Zr  Zr29  1  0.28721801  0.70068643  0.69768527  1
  Zr  Zr30  1  0.51169933  0.69337703  0.30701830  1
  Zr  Zr31  1  0.50128192  0.31170705  0.69683614  1
  Zr  Zr32  1  0.89979611  0.49602146  0.29911294  1
  Zr  Zr33  1  0.69271428  0.51136858  0.29085883  1
  Zr  Zr34  1  0.90078108  0.69647855  0.89681110  1
  Zr  Zr35  1  0.90060250  0.49785998  0.09701185  1
  Zr  Zr36  1  0.30079533  0.10247321  0.49988590  1
  Zr  Zr37  1  0.90025954  0.10067576  0.09602537  1
  Zr  Zr38  1  0.09504270  0.10910272  0.69984317  1
  Zr  Zr39  1  0.11373463  0.31043020  0.28588732  1
  Zr  Zr40  1  0.68991893  0.10961360  0.89918886  1
  Zr  Zr41  1  0.09509441  0.30255964  0.89696406  1
  Zr  Zr42  1  0.89653029  0.90191432  0.49969104  1
  Zr  Zr43  1  0.30487246  0.30844120  0.89323765  1
  Zr  Zr44  1  0.29308386  0.49529239  0.30013564  1
  Zr  Zr45  1  0.90982951  0.09398216  0.30161674  1
  Zr  Zr46  1  0.70154330  0.10889136  0.30175676  1
  Zr  Zr47  1  0.70042572  0.10421331  0.09407699  1
  Zr  Zr48  1  0.09273564  0.49918530  0.10437805  1
  Zr  Zr49  1  0.49941674  0.29765495  0.30092805  1
  Sc  Sc50  1  0.29190763  0.69584235  0.30570332  1
  Sc  Sc51  1  0.89967947  0.10086177  0.89526242  1
  Sc  Sc52  1  0.70044070  0.30062422  0.08783133  1
  Sc  Sc53  1  0.49608765  0.89961571  0.08798704  1
  Sc  Sc54  1  0.50365555  0.10362098  0.69705988  1
  Sc  Sc55  1  0.49482938  0.30132597  0.49938325  1
  Sc  Sc56  1  0.49029938  0.09956999  0.09588200  1
  Sc  Sc57  1  0.09825557  0.30509481  0.50644452  1
  Sc  Sc58  1  0.90525526  0.50420351  0.70103581  1
  Sc  Sc59  1  0.49891514  0.89391231  0.50592402  1
  Sc  Sc60  1  0.89159851  0.90182603  0.70285053  1
  Sc  Sc61  1  0.50050425  0.50566306  0.50686422  1
  Sc  Sc62  1  0.90560638  0.68546838  0.09989974  1
  Sc  Sc63  1  0.70393025  0.89488942  0.50824831  1
  Sc  Sc64  1  0.49669286  0.70238113  0.08895203  1
  Sc  Sc65  1  0.69557768  0.50157960  0.50461091  1
  Sc  Sc66  1  0.89243743  0.69987444  0.51477780  1
  Sc  Sc67  1  0.90579169  0.70373924  0.29582546  1
  Sc  Sc68  1  0.49571470  0.10825167  0.49956426  1
  Sc  Sc69  1  0.70582640  0.68659477  0.10330674  1
  Sc  Sc70  1  0.70836351  0.89588451  0.31414003  1
  Sc  Sc71  1  0.30842001  0.50143311  0.09343564  1
  Sc  Sc72  1  0.09754489  0.09860921  0.90462132  1
  Sc  Sc73  1  0.90388375  0.50166681  0.90375464  1
  Sc  Sc74  1  0.69525641  0.30404148  0.71597467  1
  Sc  Sc75  1  0.69959163  0.30240079  0.89981116  1
  Sc  Sc76  1  0.30573293  0.88472744  0.90725468  1
  Sc  Sc77  1  0.29511554  0.69918149  0.10019403  1
  Sc  Sc78  1  0.30042022  0.09596898  0.10200510  1
  Sc  Sc79  1  0.90911063  0.09716881  0.50581772  1
  Sc  Sc80  1  0.29047079  0.90800202  0.30513487  1
  Sc  Sc81  1  0.30673484  0.89363425  0.69693804  1
  Sc  Sc82  1  0.11217449  0.70236701  0.50311276  1
  Sc  Sc83  1  0.29659784  0.30206431  0.69851566  1
  Sc  Sc84  1  0.29868920  0.30527938  0.50470818  1
  Sc  Sc85  1  0.29736803  0.49457068  0.70422673  1
  Sc  Sc86  1  0.49933586  0.29305021  0.90175820  1
  Sc  Sc87  1  0.48868478  0.10468596  0.29985098  1
  Sc  Sc88  1  0.10333386  0.89756110  0.48867073  1
  Sc  Sc89  1  0.70096760  0.09654512  0.70626564  1
  Sc  Sc90  1  0.10446058  0.49962951  0.29653966  1
  Sc  Sc91  1  0.10032200  0.69938221  0.10481033  1
  Sc  Sc92  1  0.89472368  0.69949576  0.70775704  1
  Sc  Sc93  1  0.10123056  0.50077503  0.70344808  1
  Sc  Sc94  1  0.89641931  0.29692632  0.30668417  1
  Sc  Sc95  1  0.89950169  0.30697256  0.90046323  1
  Sc  Sc96  1  0.10430070  0.89345147  0.71086713  1
  Sc  Sc97  1  0.70327940  0.09654081  0.50027198  1
  Sc  Sc98  1  0.50069879  0.69788361  0.50128567  1
  Sc  Sc99  1  0.70044158  0.89914053  0.69701662  1
  Nb  Nb100  1  0.69857136  0.70227485  0.49887834  1
  Nb  Nb101  1  0.31222176  0.68843149  0.89842070  1
  Nb  Nb102  1  0.49766109  0.88896458  0.89751485  1
  Nb  Nb103  1  0.90559331  0.30654791  0.10010876  1
  Nb  Nb104  1  0.90630426  0.89863743  0.10147884  1
  Nb  Nb105  1  0.70361700  0.29801915  0.30955802  1
  Nb  Nb106  1  0.90474192  0.90045999  0.29330030  1
  Nb  Nb107  1  0.09729717  0.30360726  0.09705304  1
  Nb  Nb108  1  0.09906384  0.30152935  0.70485752  1
  Nb  Nb109  1  0.29523923  0.70356775  0.50331851  1
  Nb  Nb110  1  0.29723579  0.89788289  0.10519338  1
  Nb  Nb111  1  0.70159543  0.50305741  0.90514859  1
  Nb  Nb112  1  0.50178346  0.29894263  0.10274914  1
  Nb  Nb113  1  0.09444460  0.70407740  0.70388116  1
  Nb  Nb114  1  0.70232052  0.29982300  0.49254307  1
  Nb  Nb115  1  0.49060600  0.71139894  0.89860445  1
  Nb  Nb116  1  0.09947414  0.90208457  0.09813568  1
  Nb  Nb117  1  0.49773542  0.09752531  0.89951165  1
  Nb  Nb118  1  0.70348217  0.69822231  0.89361766  1
  Nb  Nb119  1  0.09531103  0.49715350  0.50106334  1
  Nb  Nb120  1  0.70448102  0.70142120  0.69287637  1
  Nb  Nb121  1  0.50614390  0.49869032  0.69510461  1
  Nb  Nb122  1  0.10277932  0.50102826  0.89600395  1
  Nb  Nb123  1  0.29516604  0.50086108  0.89708275  1
  Nb  Nb124  1  0.70084690  0.69950523  0.30099676  1
  Nb  Nb125  1  0.00369944  0.79806947  0.60582381  1
  Nb  Nb126  1  0.79722787  0.39496305  0.20109395  1
  Nb  Nb127  1  0.60333649  0.39762471  0.39738589  1
  Nb  Nb128  1  0.40375238  0.60257836  0.20429485  1
  Nb  Nb129  1  0.60367122  0.80192494  0.20238831  1
  Nb  Nb130  1  0.60423928  -0.00007993  0.20388701  1
  Nb  Nb131  1  0.40136270  0.79800546  0.20302556  1
  Nb  Nb132  1  0.19681564  0.40323983  -0.00476421  1
  Nb  Nb133  1  0.79483254  0.39303699  0.60150776  1
  Nb  Nb134  1  0.80124415  0.79714856  0.00108630  1
  Nb  Nb135  1  0.60966772  0.21002623  0.59691688  1
  Nb  Nb136  1  0.20049737  0.00173572  0.60491259  1
  Nb  Nb137  1  0.80249105  -0.00482067  0.20020383  1
  Nb  Nb138  1  0.20117831  0.59556111  -0.01090964  1
  Nb  Nb139  1  0.59857300  0.00124492  0.39574518  1
  Nb  Nb140  1  0.59975363  0.60204540  -0.01299268  1
  Nb  Nb141  1  0.60225349  0.20110073  0.19925590  1
  Nb  Nb142  1  0.80118391  0.80424483  0.19722152  1
  Nb  Nb143  1  -0.00104099  0.59756393  0.40837888  1
  Nb  Nb144  1  0.00392920  0.20498059  0.19357457  1
  Nb  Nb145  1  0.79736263  0.20790013  0.60202395  1
  Nb  Nb146  1  0.40357913  -0.00186260  0.80750173  1
  Nb  Nb147  1  0.21081084  0.00265448  0.80122021  1
  Nb  Nb148  1  0.79798705  0.60472405  0.40002113  1
  Nb  Nb149  1  0.20010702  0.20100800  0.39544689  1
  Pd  Pd150  1  0.01055463  -0.01558926  0.60422528  1
  Pd  Pd151  1  0.61126557  0.38747066  0.20360134  1
  Pd  Pd152  1  0.00852208  -0.00273419  0.80107397  1
  Pd  Pd153  1  0.40279967  0.79083592  0.60188262  1
  Pd  Pd154  1  0.39465618  0.79317088  0.39551717  1
  Pd  Pd155  1  0.80148470  0.40980394  0.79772947  1
  Pd  Pd156  1  -0.00349061  0.78997797  0.00703306  1
  Pd  Pd157  1  0.59861653  0.00782714  0.59235357  1
  Pd  Pd158  1  0.59037471  0.40260843  0.81457534  1
  Pd  Pd159  1  0.80062265  0.00380865  0.39916156  1
  Pd  Pd160  1  0.39841028  0.39424841  0.00416613  1
  Pd  Pd161  1  0.20372145  0.80382615  0.20504494  1
  Pd  Pd162  1  0.01037992  0.39960103  0.39249671  1
  Pd  Pd163  1  0.39943660  -0.00198374  0.60365327  1
  Pd  Pd164  1  -0.00684213  0.78994762  0.41132010  1
  Pd  Pd165  1  0.59807178  0.60586430  0.80506981  1
  Pd  Pd166  1  0.39485351  -0.00624809  -0.00517230  1
  Pd  Pd167  1  0.59290764  0.00131445  0.80017002  1
  Pd  Pd168  1  0.19630871  0.20196967  0.59374042  1
  Pd  Pd169  1  0.21138659  -0.00385850  -0.00538253  1
  Pd  Pd170  1  0.00692072  0.60811934  0.59796692  1
  Pd  Pd171  1  0.40354229  -0.00005361  0.40842523  1
  Pd  Pd172  1  0.39542674  0.40244790  0.19391767  1
  Pd  Pd173  1  -0.00408548  0.20180370  -0.00044299  1
  Pd  Pd174  1  0.80536398  0.20817461  -0.00834694  1
  Pd  Pd175  1  0.80539070  -0.00353132  -0.00374939  1
  Pd  Pd176  1  0.60628772  0.79294906  0.79458795  1
  Pd  Pd177  1  0.39584411  0.59800680  0.78485981  1
  Pd  Pd178  1  0.20287752  0.78842408  -0.00212073  1
  Pd  Pd179  1  0.40339072  0.40669411  0.41014079  1
  Pd  Pd180  1  0.39499183  0.60163168  0.40022960  1
  Pd  Pd181  1  0.01337073  0.21062477  0.38737370  1
  Pd  Pd182  1  0.19071008  0.59983366  0.40117821  1
  Pd  Pd183  1  0.60034396  0.80749707  0.40249852  1
  Pd  Pd184  1  0.39472845  0.40698593  0.59789521  1
  Pd  Pd185  1  0.39503210  0.59987928  0.60391776  1
  Pd  Pd186  1  0.59062451  0.00460231  0.00051395  1
  Pd  Pd187  1  0.81032341  0.79155393  0.39725159  1
  Pd  Pd188  1  0.59403042  0.40416711  -0.01091012  1
  Pd  Pd189  1  0.60985987  0.78768263  0.00366947  1
  Pd  Pd190  1  0.80865134  0.18781948  0.40972606  1
  Pd  Pd191  1  0.79970710  0.59126568  0.79798596  1
  Pd  Pd192  1  0.20783117  0.80338273  0.80661311  1
  Pd  Pd193  1  0.80419963  0.20463773  0.19700483  1
  Pd  Pd194  1  0.40795046  0.20057915  0.79298660  1
  Pd  Pd195  1  -0.00205723  0.39631563  0.60959135  1
  Pd  Pd196  1  0.79445009  0.59251148  0.60014384  1
  Pd  Pd197  1  0.79584437  0.00063482  0.80573975  1
  Pd  Pd198  1  0.19742890  0.19686989  0.80566777  1
  Pd  Pd199  1  0.19193273  0.59553064  0.60578748  1
  Rh  Rh200  1  0.79597980  0.60510716  -0.00741487  1
  Rh  Rh201  1  0.19408101  0.19326459  0.20337543  1
  Rh  Rh202  1  0.19605455  0.39727989  0.79999429  1
  Rh  Rh203  1  0.60463435  0.39399439  0.59167270  1
  Rh  Rh204  1  0.00387275  0.40534493  -0.00576225  1
  Rh  Rh205  1  0.79950716  0.00761702  0.60102443  1
  Rh  Rh206  1  -0.00781629  0.80390980  0.79234808  1
  Rh  Rh207  1  0.19875673  0.21096965  -0.00783513  1
  Rh  Rh208  1  -0.00185101  -0.00014859  0.00153259  1
  Rh  Rh209  1  0.00011183  0.59770461  0.79925084  1
  Rh  Rh210  1  0.80992899  0.60069383  0.20954260  1
  Rh  Rh211  1  0.20098719  0.79760910  0.39383966  1
  Rh  Rh212  1  0.58896846  0.61383396  0.18538884  1
  Rh  Rh213  1  0.59524130  0.20011375  0.40117973  1
  Rh  Rh214  1  0.59085859  0.19899646  0.00537199  1
  Rh  Rh215  1  -0.00236500  0.79705931  0.19024280  1
  Rh  Rh216  1  0.79800484  0.19760097  0.80063577  1
  Rh  Rh217  1  0.20077089  0.00743645  0.41010889  1
  Rh  Rh218  1  0.40129940  -0.01063824  0.19343745  1
  Rh  Rh219  1  0.01161768  0.59979305  -0.00580832  1
  Rh  Rh220  1  0.20819404  0.59336954  0.19005365  1
  Rh  Rh221  1  0.60233256  0.60783469  0.59887435  1
  Rh  Rh222  1  -0.00918456  0.39209216  0.20705602  1
  Rh  Rh223  1  0.00101693  0.19875837  0.80619576  1
  Rh  Rh224  1  0.19204226  0.80784454  0.60108226  1
  Rh  Rh225  1  0.79503124  0.80209646  0.80416780  1
  Rh  Rh226  1  -0.00009008  0.59889343  0.20919957  1
  Rh  Rh227  1  0.00104407  0.40634256  0.79963042  1
  Rh  Rh228  1  0.20949212  0.40838679  0.18329541  1
  Rh  Rh229  1  0.38868510  0.20259434  0.40221675  1
  Rh  Rh230  1  0.60809351  0.59471310  0.41078878  1
  Rh  Rh231  1  0.78695369  0.41550776  0.39613792  1
  Rh  Rh232  1  0.00098652  0.00560067  0.18735587  1
  Rh  Rh233  1  0.80205743  0.80078161  0.60590530  1
  Rh  Rh234  1  0.40657171  0.20079048  0.19399806  1
  Rh  Rh235  1  -0.00165939  -0.00864795  0.40451274  1
  Rh  Rh236  1  0.40387331  0.20514194  0.00479795  1
  Rh  Rh237  1  0.40402390  0.40375705  0.79498867  1
  Rh  Rh238  1  0.19729765  0.39569546  0.40831159  1
  Rh  Rh239  1  0.19418243  0.40297993  0.60427325  1
  Rh  Rh240  1  0.39199228  0.79760777  0.00941649  1
  Rh  Rh241  1  0.40022742  0.60330648  0.00481483  1
  Rh  Rh242  1  0.60303855  0.79425990  0.60137530  1
  Rh  Rh243  1  0.80403843  0.39831951  0.00231486  1
  Rh  Rh244  1  0.59527625  0.20099637  0.79550177  1
  Rh  Rh245  1  0.40909848  0.20795634  0.60344445  1
  Rh  Rh246  1  0.19643966  -0.00684903  0.19362377  1
  Rh  Rh247  1  0.39673555  0.79930163  0.79409279  1
  Rh  Rh248  1  -0.00667567  0.20822554  0.60330207  1
  Rh  Rh249  1  0.20085417  0.60285760  0.80018305  1
