# generated using pymatgen
data_ZrScNbPdRh
_symmetry_space_group_name_H-M   'P 1'
_cell_length_a   16.55838302
_cell_length_b   16.55740988
_cell_length_c   16.55395053
_cell_angle_alpha   89.98391681
_cell_angle_beta   90.00844650
_cell_angle_gamma   90.02488286
_symmetry_Int_Tables_number   1
_chemical_formula_structural   ZrScNbPdRh
_chemical_formula_sum   'Zr50 Sc50 Nb50 Pd50 Rh50'
_cell_volume   4538.49555499
_cell_formula_units_Z   50
loop_
 _symmetry_equiv_pos_site_id
 _symmetry_equiv_pos_as_xyz
  1  'x, y, z'
loop_
 _atom_site_type_symbol
 _atom_site_label
 _atom_site_symmetry_multiplicity
 _atom_site_fract_x
 _atom_site_fract_y
 _atom_site_fract_z
 _atom_site_occupancy
  Zr  Zr0  1  0.10818733  0.10975501  0.89206116  1
  Zr  Zr1  1  0.89531879  0.10337303  0.10528487  1
  Zr  Zr2  1  0.70261236  0.10418192  0.29499308  1
  Zr  Zr3  1  0.69693431  0.30941984  0.48998377  1
  Zr  Zr4  1  0.10072076  0.29931883  0.90716946  1
  Zr  Zr5  1  0.29996572  0.69632530  0.50187229  1
  Zr  Zr6  1  0.29836103  0.69548620  0.09545679  1
  Zr  Zr7  1  0.30118924  0.70349252  0.29726781  1
  Zr  Zr8  1  0.70335321  0.49593663  0.90164368  1
  Zr  Zr9  1  0.89934595  0.69424820  0.69915646  1
  Zr  Zr10  1  0.29784879  0.68915148  0.70003269  1
  Zr  Zr11  1  0.90163308  0.90528791  0.69898193  1
  Zr  Zr12  1  0.09520069  0.10237728  0.49816792  1
  Zr  Zr13  1  0.30452584  0.89961448  0.29808166  1
  Zr  Zr14  1  0.29948605  0.49711863  0.09750727  1
  Zr  Zr15  1  0.90593910  0.69254999  0.89874630  1
  Zr  Zr16  1  0.90104133  0.89770912  0.10855557  1
  Zr  Zr17  1  0.89639135  0.49700378  0.90112902  1
  Zr  Zr18  1  0.69840881  0.11043704  0.49189400  1
  Zr  Zr19  1  0.30394487  0.89325918  0.10099071  1
  Zr  Zr20  1  0.29957541  0.49540272  0.50653737  1
  Zr  Zr21  1  0.70555811  0.49575034  0.10022003  1
  Zr  Zr22  1  0.30576075  0.30323913  0.29939392  1
  Zr  Zr23  1  0.49831860  0.90236629  0.29194634  1
  Zr  Zr24  1  0.89875456  0.89619264  0.90310811  1
  Zr  Zr25  1  0.70078836  0.89525789  0.09937180  1
  Zr  Zr26  1  0.90757940  0.30278770  0.89569331  1
  Zr  Zr27  1  0.10044935  0.71032200  0.09767493  1
  Zr  Zr28  1  0.49631969  0.48748689  0.70597344  1
  Zr  Zr29  1  0.50535363  0.31303653  0.30609448  1
  Zr  Zr30  1  0.09218421  0.10284421  0.10747039  1
  Zr  Zr31  1  0.50376641  0.10741464  0.49930647  1
  Zr  Zr32  1  0.30381210  0.10928972  0.09559387  1
  Zr  Zr33  1  0.30009362  0.49481198  0.29600960  1
  Zr  Zr34  1  0.89901186  0.49579519  0.70259131  1
  Zr  Zr35  1  0.49747484  0.49802554  0.90125545  1
  Zr  Zr36  1  0.29024952  0.10178645  0.70982667  1
  Zr  Zr37  1  0.69510863  0.10381884  0.10123961  1
  Zr  Zr38  1  0.90045767  0.49096860  0.09770146  1
  Zr  Zr39  1  0.69792060  0.49325445  0.69870514  1
  Zr  Zr40  1  0.09852778  0.69214214  0.29699522  1
  Zr  Zr41  1  0.09938569  0.90106949  0.28828917  1
  Zr  Zr42  1  0.49902681  0.89924837  0.70183478  1
  Zr  Zr43  1  0.09948490  0.70169666  0.90556210  1
  Zr  Zr44  1  0.69370110  0.90016338  0.90772830  1
  Zr  Zr45  1  0.09619207  0.91255120  0.70439919  1
  Zr  Zr46  1  0.70158878  0.90392858  0.70342012  1
  Zr  Zr47  1  0.69872501  0.89747382  0.29462044  1
  Zr  Zr48  1  0.30548605  0.09889479  0.29511784  1
  Zr  Zr49  1  0.90295803  0.10438836  0.70746314  1
  Sc  Sc50  1  0.89983902  0.69780410  0.10253995  1
  Sc  Sc51  1  0.30145461  0.10630353  0.90130002  1
  Sc  Sc52  1  0.49988218  0.89957574  0.49160522  1
  Sc  Sc53  1  0.10137778  0.49336626  0.10882667  1
  Sc  Sc54  1  0.90569479  0.50233921  0.29511596  1
  Sc  Sc55  1  0.49427986  0.70766586  0.09664352  1
  Sc  Sc56  1  0.48668563  0.69692099  0.70099299  1
  Sc  Sc57  1  0.50129989  0.49007605  0.09755920  1
  Sc  Sc58  1  0.30313709  0.30219173  0.09481577  1
  Sc  Sc59  1  0.10151153  0.30489919  0.70654186  1
  Sc  Sc60  1  0.09786731  0.68754598  0.69960813  1
  Sc  Sc61  1  0.89741564  0.90915991  0.49516295  1
  Sc  Sc62  1  0.50978108  0.09882707  0.29402599  1
  Sc  Sc63  1  0.89874116  0.09892552  0.48936289  1
  Sc  Sc64  1  0.89704258  0.49942156  0.49967148  1
  Sc  Sc65  1  0.50215856  0.69144182  0.49767328  1
  Sc  Sc66  1  0.50184382  0.29668568  0.09491934  1
  Sc  Sc67  1  0.30268975  0.69403622  0.90757641  1
  Sc  Sc68  1  0.29857286  0.30109579  0.50819013  1
  Sc  Sc69  1  0.50405583  0.10394442  0.09767508  1
  Sc  Sc70  1  0.89152498  0.90167386  0.29746524  1
  Sc  Sc71  1  0.09266260  0.50232446  0.50767347  1
  Sc  Sc72  1  0.89856128  0.11235661  0.90036225  1
  Sc  Sc73  1  0.50464789  0.30897690  0.90299121  1
  Sc  Sc74  1  0.30361369  0.89582093  0.49164146  1
  Sc  Sc75  1  0.70927727  0.68830232  0.68782539  1
  Sc  Sc76  1  0.49203384  0.70159849  0.90613145  1
  Sc  Sc77  1  0.29562021  0.29966067  0.90576182  1
  Sc  Sc78  1  0.50773708  0.69862684  0.29934898  1
  Sc  Sc79  1  0.30411647  0.49714814  0.90101444  1
  Sc  Sc80  1  0.09585934  0.89252764  0.90330419  1
  Sc  Sc81  1  0.10730304  0.49878569  0.69801824  1
  Sc  Sc82  1  0.29654823  0.11032309  0.50182131  1
  Sc  Sc83  1  0.69966118  0.10175775  0.89891404  1
  Sc  Sc84  1  0.50323906  0.49268807  0.49479702  1
  Sc  Sc85  1  0.50304754  0.10191411  0.90815512  1
  Sc  Sc86  1  0.30613253  0.90202350  0.70640650  1
  Sc  Sc87  1  0.89312922  0.68983167  0.49835419  1
  Sc  Sc88  1  0.09859393  0.69000258  0.50036915  1
  Sc  Sc89  1  0.69354119  0.49640712  0.29655633  1
  Sc  Sc90  1  0.89928609  0.10032464  0.29612590  1
  Sc  Sc91  1  0.90369345  0.29733772  0.10060562  1
  Sc  Sc92  1  0.29999540  0.31279058  0.69557653  1
  Sc  Sc93  1  0.70756701  0.89508275  0.48998017  1
  Sc  Sc94  1  0.70749293  0.69933131  0.90789366  1
  Sc  Sc95  1  0.49606000  0.90134665  0.90507423  1
  Sc  Sc96  1  0.09580425  0.49143083  0.90259383  1
  Sc  Sc97  1  0.51113211  0.11108578  0.70025008  1
  Sc  Sc98  1  0.70027231  0.30040001  0.90437754  1
  Sc  Sc99  1  0.90172570  0.69651118  0.29808718  1
  Nb  Nb100  1  0.69260115  0.29512097  0.69853508  1
  Nb  Nb101  1  0.89548160  0.30056592  0.69872103  1
  Nb  Nb102  1  0.09375692  0.29775468  0.29836015  1
  Nb  Nb103  1  0.69976304  0.69073297  0.49689321  1
  Nb  Nb104  1  0.09981166  0.10422972  0.30021813  1
  Nb  Nb105  1  0.50237762  0.30031229  0.50508409  1
  Nb  Nb106  1  0.70234664  0.29586030  0.29905434  1
  Nb  Nb107  1  0.70228959  0.10674516  0.70046637  1
  Nb  Nb108  1  0.69582829  0.51202444  0.50413260  1
  Nb  Nb109  1  0.70108660  0.70227119  0.29807308  1
  Nb  Nb110  1  0.50501363  0.30384691  0.69586603  1
  Nb  Nb111  1  0.09779719  0.90409777  0.50033438  1
  Nb  Nb112  1  0.89756467  0.30194982  0.49961635  1
  Nb  Nb113  1  0.09889742  0.29767678  0.49667163  1
  Nb  Nb114  1  0.09643975  0.10136685  0.69916863  1
  Nb  Nb115  1  0.29559131  0.90746122  0.89726117  1
  Nb  Nb116  1  0.09618878  0.29778687  0.10091998  1
  Nb  Nb117  1  0.69888331  0.29783342  0.10554757  1
  Nb  Nb118  1  0.49006819  0.49524463  0.29864811  1
  Nb  Nb119  1  0.50540545  0.89810509  0.09216283  1
  Nb  Nb120  1  0.89440316  0.29893660  0.30387296  1
  Nb  Nb121  1  0.09992431  0.49565241  0.30146453  1
  Nb  Nb122  1  0.69498652  0.69884899  0.10833463  1
  Nb  Nb123  1  0.09808293  0.90160673  0.09713078  1
  Nb  Nb124  1  0.30251625  0.50038893  0.69927660  1
  Nb  Nb125  1  0.79900689  0.79899570  0.79877693  1
  Nb  Nb126  1  0.19625294  -0.00204248  0.00354008  1
  Nb  Nb127  1  0.00411800  0.80137354  0.40377637  1
  Nb  Nb128  1  0.60587906  0.79235737  0.79628732  1
  Nb  Nb129  1  0.00311362  0.80434818  0.59482791  1
  Nb  Nb130  1  0.19490749  0.80509757  0.60296848  1
  Nb  Nb131  1  0.60508862  0.79862534  0.60107337  1
  Nb  Nb132  1  0.40117856  0.59439453  0.20115317  1
  Nb  Nb133  1  0.40109365  0.00571736  0.60155896  1
  Nb  Nb134  1  0.40494941  0.20964937  0.79490532  1
  Nb  Nb135  1  0.80087411  0.20606247  0.60176830  1
  Nb  Nb136  1  0.20116191  0.79922069  0.79820157  1
  Nb  Nb137  1  0.00333125  0.00180756  0.00420799  1
  Nb  Nb138  1  0.19022541  0.39710054  0.39903826  1
  Nb  Nb139  1  -0.00436569  0.20664709  0.59814603  1
  Nb  Nb140  1  0.60377855  0.60062556  0.00260881  1
  Nb  Nb141  1  0.19490120  0.00219449  0.39797487  1
  Nb  Nb142  1  0.19260125  0.20254657  0.20434934  1
  Nb  Nb143  1  0.60408770  -0.00023470  0.60003761  1
  Nb  Nb144  1  0.40613795  0.20582694  0.40151169  1
  Nb  Nb145  1  0.79449032  0.01119280  0.60320022  1
  Nb  Nb146  1  0.60044186  0.60133086  0.80430907  1
  Nb  Nb147  1  0.19930339  -0.00107054  0.59718404  1
  Nb  Nb148  1  0.00141502  0.39226889  0.39888682  1
  Nb  Nb149  1  0.20022144  0.59101598  0.39510375  1
  Pd  Pd150  1  0.19805096  0.38938081  0.19894662  1
  Pd  Pd151  1  0.19180149  0.58933959  -0.00142551  1
  Pd  Pd152  1  0.39393472  0.01072175  0.40796768  1
  Pd  Pd153  1  0.39908945  0.19879426  0.60478550  1
  Pd  Pd154  1  0.40714794  0.20675028  0.20401063  1
  Pd  Pd155  1  0.80248134  0.41091771  0.39505375  1
  Pd  Pd156  1  0.80204674  0.80576439  0.59765159  1
  Pd  Pd157  1  0.00118673  -0.00574071  0.38932814  1
  Pd  Pd158  1  0.20544338  0.40109391  0.80335920  1
  Pd  Pd159  1  0.00209833  0.79545377  0.79018787  1
  Pd  Pd160  1  0.59926134  0.79627170  0.40615441  1
  Pd  Pd161  1  -0.00847961  0.20302222  0.39986369  1
  Pd  Pd162  1  0.00229286  0.59784255  0.19210292  1
  Pd  Pd163  1  0.20104322  0.59832473  0.80988431  1
  Pd  Pd164  1  0.00672529  0.58840183  0.79934656  1
  Pd  Pd165  1  0.59925027  0.39694541  0.19648337  1
  Pd  Pd166  1  0.79812751  0.20589703  0.00050062  1
  Pd  Pd167  1  0.40021656  0.80634218  0.59461797  1
  Pd  Pd168  1  0.39724294  0.59959166  0.39416382  1
  Pd  Pd169  1  0.60555035  -0.00339737  0.40212136  1
  Pd  Pd170  1  0.59413729  0.00059375  0.80042608  1
  Pd  Pd171  1  0.79508086  0.39168464  0.80101154  1
  Pd  Pd172  1  0.40910038  0.59018774  0.59847779  1
  Pd  Pd173  1  0.20271018  0.00624183  0.19691478  1
  Pd  Pd174  1  0.80039700  0.00123392  0.80408287  1
  Pd  Pd175  1  0.00388096  0.39592226  0.59866000  1
  Pd  Pd176  1  0.40882451  0.01476644  0.79788397  1
  Pd  Pd177  1  0.20039430  0.79825767  0.19769749  1
  Pd  Pd178  1  0.80456549  0.00551367  -0.00003793  1
  Pd  Pd179  1  0.80500813  0.79195568  0.00197729  1
  Pd  Pd180  1  0.79560903  0.59389930  0.39056188  1
  Pd  Pd181  1  0.41058211  0.79298954  0.39967482  1
  Pd  Pd182  1  0.00644111  0.59246108  0.00844648  1
  Pd  Pd183  1  0.79793481  0.60353624  0.00727592  1
  Pd  Pd184  1  -0.00051974  0.00604556  0.81704893  1
  Pd  Pd185  1  0.60193223  0.59347673  0.39291590  1
  Pd  Pd186  1  0.59643362  0.20554136  0.80983988  1
  Pd  Pd187  1  0.19176196  0.79836766  0.40633855  1
  Pd  Pd188  1  0.40938736  0.00113802  0.18748951  1
  Pd  Pd189  1  0.59025391  0.60264806  0.60893565  1
  Pd  Pd190  1  0.80332845  0.39527876  0.20364807  1
  Pd  Pd191  1  0.39594326  0.00009238  0.00199931  1
  Pd  Pd192  1  0.59451145  0.79900501  0.19728806  1
  Pd  Pd193  1  0.79353063  0.39906658  0.59712863  1
  Pd  Pd194  1  0.59044293  0.59739199  0.19422605  1
  Pd  Pd195  1  0.79906911  0.60092793  0.20502160  1
  Pd  Pd196  1  0.39495588  0.79633784  0.80856967  1
  Pd  Pd197  1  0.80810420  0.79329120  0.39688932  1
  Pd  Pd198  1  0.20750016  0.20165226  0.39330894  1
  Pd  Pd199  1  0.19151714  0.20193300  0.60826575  1
  Rh  Rh200  1  0.60325574  0.40088054  0.59417447  1
  Rh  Rh201  1  0.00442622  0.59771573  0.40030639  1
  Rh  Rh202  1  0.40529819  0.40158691  0.59793110  1
  Rh  Rh203  1  0.19426127  0.40276440  0.59657014  1
  Rh  Rh204  1  0.19652542  0.39989108  0.00350501  1
  Rh  Rh205  1  0.79482311  0.20786814  0.79743768  1
  Rh  Rh206  1  -0.00474490  0.00000956  0.20050146  1
  Rh  Rh207  1  -0.00528621  0.00707531  0.59824383  1
  Rh  Rh208  1  -0.00368388  0.20596020  0.20530802  1
  Rh  Rh209  1  0.39539689  0.80713015  -0.00479707  1
  Rh  Rh210  1  0.00129838  0.39804854  0.00457494  1
  Rh  Rh211  1  0.40680597  0.79610984  0.19958651  1
  Rh  Rh212  1  0.39489193  0.39314832  0.80071919  1
  Rh  Rh213  1  0.80348272  0.58888741  0.59747798  1
  Rh  Rh214  1  0.60796682  0.20375456  0.59726465  1
  Rh  Rh215  1  0.59445315  0.20657711  0.39098549  1
  Rh  Rh216  1  0.19611260  -0.00372950  0.80433515  1
  Rh  Rh217  1  0.40846885  0.59447888  0.01005477  1
  Rh  Rh218  1  0.19489422  0.19746999  0.01086575  1
  Rh  Rh219  1  0.20468804  0.60197494  0.20256692  1
  Rh  Rh220  1  -0.00273656  0.79875255  0.20583376  1
  Rh  Rh221  1  0.60022113  0.00184700  0.00440877  1
  Rh  Rh222  1  0.40589066  0.20529253  -0.01161357  1
  Rh  Rh223  1  0.40236504  0.59452210  0.80194040  1
  Rh  Rh224  1  0.80235018  0.38979539  0.00303164  1
  Rh  Rh225  1  0.60362020  0.40745195  0.39991814  1
  Rh  Rh226  1  0.79380373  0.00368652  0.39671733  1
  Rh  Rh227  1  0.60037092  -0.00446090  0.19177889  1
  Rh  Rh228  1  0.79889139  0.79265248  0.20303463  1
  Rh  Rh229  1  -0.00722997  0.80352468  0.00675552  1
  Rh  Rh230  1  0.59884988  0.79210437  -0.00411661  1
  Rh  Rh231  1  0.60390660  0.20208888  0.00019616  1
  Rh  Rh232  1  0.59879261  0.20787998  0.20252942  1
  Rh  Rh233  1  0.79333371  0.00117122  0.20008716  1
  Rh  Rh234  1  0.00015802  0.40137108  0.79722301  1
  Rh  Rh235  1  0.00410658  0.20706521  0.79418522  1
  Rh  Rh236  1  0.80260095  0.20091142  0.39881996  1
  Rh  Rh237  1  0.39847625  0.39710831  -0.00118544  1
  Rh  Rh238  1  0.20673535  0.21237162  0.79566266  1
  Rh  Rh239  1  0.20198449  0.60050791  0.59514436  1
  Rh  Rh240  1  0.00066573  0.19567863  -0.00105327  1
  Rh  Rh241  1  0.39487676  0.39196083  0.41134444  1
  Rh  Rh242  1  0.80089524  0.20640204  0.20091497  1
  Rh  Rh243  1  -0.00667582  0.60032772  0.60190704  1
  Rh  Rh244  1  0.40385646  0.40111723  0.19143310  1
  Rh  Rh245  1  0.60489299  0.39927838  0.80027005  1
  Rh  Rh246  1  0.20727065  0.80849357  -0.00864662  1
  Rh  Rh247  1  0.79421729  0.60486403  0.79916108  1
  Rh  Rh248  1  0.60763871  0.40210291  0.00509398  1
  Rh  Rh249  1  -0.00532699  0.39382658  0.20592585  1
