# generated using pymatgen
data_ZrScNbPdRh
_symmetry_space_group_name_H-M   'P 1'
_cell_length_a   16.55578781
_cell_length_b   16.56230484
_cell_length_c   16.56118400
_cell_angle_alpha   89.97361135
_cell_angle_beta   90.00056048
_cell_angle_gamma   90.02392266
_symmetry_Int_Tables_number   1
_chemical_formula_structural   ZrScNbPdRh
_chemical_formula_sum   'Zr50 Sc50 Nb50 Pd50 Rh50'
_cell_volume   4541.10897337
_cell_formula_units_Z   50
loop_
 _symmetry_equiv_pos_site_id
 _symmetry_equiv_pos_as_xyz
  1  'x, y, z'
loop_
 _atom_site_type_symbol
 _atom_site_label
 _atom_site_symmetry_multiplicity
 _atom_site_fract_x
 _atom_site_fract_y
 _atom_site_fract_z
 _atom_site_occupancy
  Zr  Zr0  1  0.10029195  0.90735114  0.69617661  1
  Zr  Zr1  1  0.30021655  0.08886614  0.71122213  1
  Zr  Zr2  1  0.30173250  0.69917674  0.70327094  1
  Zr  Zr3  1  0.50155202  0.09890068  0.30310612  1
  Zr  Zr4  1  0.89646673  0.49973564  0.89889461  1
  Zr  Zr5  1  0.29276797  0.50660939  0.10658175  1
  Zr  Zr6  1  0.09162042  0.90054354  0.90400203  1
  Zr  Zr7  1  0.50695245  0.49725327  0.30223849  1
  Zr  Zr8  1  0.70172880  0.10044405  0.68902882  1
  Zr  Zr9  1  0.89622976  0.50566472  0.29975165  1
  Zr  Zr10  1  0.49683321  0.49010962  0.70027500  1
  Zr  Zr11  1  0.50213890  0.09875430  0.10015072  1
  Zr  Zr12  1  0.29733795  0.30564649  0.10094183  1
  Zr  Zr13  1  0.90637009  0.49872097  0.10445036  1
  Zr  Zr14  1  0.49885334  0.10284629  0.70006307  1
  Zr  Zr15  1  0.09263451  0.89048849  0.29715320  1
  Zr  Zr16  1  0.70171294  0.90152068  0.50524751  1
  Zr  Zr17  1  0.09023671  0.49838246  0.90168055  1
  Zr  Zr18  1  0.70772891  0.30339746  0.50062034  1
  Zr  Zr19  1  0.09497527  0.29182000  0.49896405  1
  Zr  Zr20  1  0.89397461  0.68769189  0.10162488  1
  Zr  Zr21  1  0.08228815  0.70953028  0.69872035  1
  Zr  Zr22  1  0.29849354  0.09543111  0.09044982  1
  Zr  Zr23  1  0.10018286  0.70014868  0.49103315  1
  Zr  Zr24  1  0.90833552  0.90582486  0.10518039  1
  Zr  Zr25  1  0.89338653  0.49398627  0.49654047  1
  Zr  Zr26  1  0.71264798  0.08808662  0.90789186  1
  Zr  Zr27  1  0.90041698  0.10720926  0.50191433  1
  Zr  Zr28  1  0.88825516  0.30043341  0.69934865  1
  Zr  Zr29  1  0.89723671  0.29512326  0.11176151  1
  Zr  Zr30  1  0.09253270  0.29640163  0.89676648  1
  Zr  Zr31  1  0.31011299  0.49004347  0.50330019  1
  Zr  Zr32  1  0.90795703  0.29982829  0.30261954  1
  Zr  Zr33  1  0.30038021  0.50447564  0.30008477  1
  Zr  Zr34  1  0.50562952  0.30795239  0.09976979  1
  Zr  Zr35  1  0.70315400  0.88632819  0.70256620  1
  Zr  Zr36  1  0.89154229  0.90506406  0.90103155  1
  Zr  Zr37  1  0.69902377  0.30447315  0.10355404  1
  Zr  Zr38  1  0.69700810  0.91137972  0.08797917  1
  Zr  Zr39  1  0.49695066  0.89600852  0.09017059  1
  Zr  Zr40  1  0.89434571  0.50491817  0.70194898  1
  Zr  Zr41  1  0.10312403  0.90067438  0.09948772  1
  Zr  Zr42  1  0.10065743  0.09670814  0.69495146  1
  Zr  Zr43  1  0.90111275  0.88978947  0.69667820  1
  Zr  Zr44  1  0.48211490  0.09738548  0.89749079  1
  Zr  Zr45  1  0.69430513  0.69145236  0.10018121  1
  Zr  Zr46  1  0.70566872  0.10781824  0.10544137  1
  Zr  Zr47  1  0.30076927  0.70418426  0.10792971  1
  Zr  Zr48  1  0.09561710  0.70222625  0.90228827  1
  Zr  Zr49  1  0.50606043  0.89842319  0.70163923  1
  Sc  Sc50  1  0.30486565  0.29880945  0.90765597  1
  Sc  Sc51  1  0.51172990  0.50052326  0.09559969  1
  Sc  Sc52  1  0.89771321  0.10458205  0.69674997  1
  Sc  Sc53  1  0.70362774  0.68895737  0.30424213  1
  Sc  Sc54  1  0.09519704  0.09978873  0.09456161  1
  Sc  Sc55  1  0.10641886  0.69707699  0.09813208  1
  Sc  Sc56  1  0.09448327  0.29730835  0.69809197  1
  Sc  Sc57  1  0.70889266  0.90466689  0.31607827  1
  Sc  Sc58  1  0.89505700  0.09952295  0.29734301  1
  Sc  Sc59  1  0.90392286  0.29565553  0.89293132  1
  Sc  Sc60  1  0.31043861  0.49817244  0.89934590  1
  Sc  Sc61  1  0.09723124  0.10038725  0.30654308  1
  Sc  Sc62  1  0.09000009  0.49872663  0.49852602  1
  Sc  Sc63  1  0.49876470  0.70001021  0.09916979  1
  Sc  Sc64  1  0.09495622  0.09799464  0.50476910  1
  Sc  Sc65  1  0.50745266  0.09562749  0.49485968  1
  Sc  Sc66  1  0.90080075  0.69201842  0.89688274  1
  Sc  Sc67  1  0.50705728  0.49756527  0.49696964  1
  Sc  Sc68  1  0.90311843  0.68776843  0.49844874  1
  Sc  Sc69  1  0.70047305  0.50370607  0.11045075  1
  Sc  Sc70  1  0.70143730  0.29981060  0.29518318  1
  Sc  Sc71  1  0.10110360  0.50180054  0.29110206  1
  Sc  Sc72  1  0.29572478  0.90016357  0.48862910  1
  Sc  Sc73  1  0.89286545  0.90898114  0.49321846  1
  Sc  Sc74  1  0.30002954  0.89897499  0.29622802  1
  Sc  Sc75  1  0.09676741  0.90917350  0.49798436  1
  Sc  Sc76  1  0.50488191  0.70501600  0.49773970  1
  Sc  Sc77  1  0.69846315  0.69931636  0.90036791  1
  Sc  Sc78  1  0.70451576  0.49706835  0.69658590  1
  Sc  Sc79  1  0.29910480  0.49460862  0.70340537  1
  Sc  Sc80  1  0.30265180  0.91750506  0.90172499  1
  Sc  Sc81  1  0.70015680  0.69442119  0.50545581  1
  Sc  Sc82  1  0.50484273  0.89646665  0.48797134  1
  Sc  Sc83  1  0.50217469  0.70263109  0.90887730  1
  Sc  Sc84  1  0.90009090  0.10439142  0.09982379  1
  Sc  Sc85  1  0.29384762  0.10111753  0.49008664  1
  Sc  Sc86  1  0.51211899  0.70469142  0.69661205  1
  Sc  Sc87  1  0.29530267  0.30570105  0.69389992  1
  Sc  Sc88  1  0.09724749  0.48987618  0.70244556  1
  Sc  Sc89  1  0.51064184  0.29915106  0.30609511  1
  Sc  Sc90  1  0.08912198  0.30073247  0.10910190  1
  Sc  Sc91  1  0.29771837  0.89989582  0.10158871  1
  Sc  Sc92  1  0.70704081  0.30622414  0.89645673  1
  Sc  Sc93  1  0.49861174  0.31127594  0.50017022  1
  Sc  Sc94  1  0.49796115  0.31474980  0.90165913  1
  Sc  Sc95  1  0.30632614  0.69689975  0.91106795  1
  Sc  Sc96  1  0.49039951  0.70234192  0.30004366  1
  Sc  Sc97  1  0.70068260  0.50249580  0.90566438  1
  Sc  Sc98  1  0.30034120  0.70186153  0.48142885  1
  Sc  Sc99  1  0.70724181  0.09526573  0.49474566  1
  Nb  Nb100  1  0.30187484  0.29964205  0.49707030  1
  Nb  Nb101  1  0.70111623  0.49694040  0.30547613  1
  Nb  Nb102  1  0.09662411  0.10177907  0.90167582  1
  Nb  Nb103  1  0.90970503  0.10243386  0.89976487  1
  Nb  Nb104  1  0.29561564  0.90252513  0.70008425  1
  Nb  Nb105  1  0.30194081  0.29891723  0.30454923  1
  Nb  Nb106  1  0.50310573  0.50052800  0.89972135  1
  Nb  Nb107  1  0.69456503  0.89859811  0.90129553  1
  Nb  Nb108  1  0.10405959  0.29954979  0.29840058  1
  Nb  Nb109  1  0.90279734  0.29990019  0.49714139  1
  Nb  Nb110  1  0.10059325  0.49711047  0.10012013  1
  Nb  Nb111  1  0.50990205  0.29762520  0.69695346  1
  Nb  Nb112  1  0.90747574  0.70555863  0.30034658  1
  Nb  Nb113  1  0.70609271  0.50444542  0.48352062  1
  Nb  Nb114  1  0.69247205  0.29606643  0.70090731  1
  Nb  Nb115  1  0.88695571  0.69583592  0.69878382  1
  Nb  Nb116  1  0.28822886  0.70092874  0.29855768  1
  Nb  Nb117  1  0.50947740  0.89669006  0.90187491  1
  Nb  Nb118  1  0.10462866  0.70120897  0.30737686  1
  Nb  Nb119  1  0.29319778  0.10335069  0.90200048  1
  Nb  Nb120  1  0.69286877  0.10245947  0.29825853  1
  Nb  Nb121  1  0.89863439  0.89127599  0.29641843  1
  Nb  Nb122  1  0.70295799  0.69754074  0.69981776  1
  Nb  Nb123  1  0.30462810  0.10478645  0.29558489  1
  Nb  Nb124  1  0.50537791  0.90098981  0.29865800  1
  Nb  Nb125  1  0.80578147  0.40107090  0.00697073  1
  Nb  Nb126  1  0.39712491  -0.00243235  0.60101424  1
  Nb  Nb127  1  0.60451698  -0.00015204  0.80476227  1
  Nb  Nb128  1  0.20211827  0.79848349  0.60177283  1
  Nb  Nb129  1  0.39891669  0.80609576  0.79925436  1
  Nb  Nb130  1  0.60604136  0.80822103  0.20253539  1
  Nb  Nb131  1  0.60069840  0.19890486  -0.00777502  1
  Nb  Nb132  1  0.59718737  0.59629695  0.79880903  1
  Nb  Nb133  1  0.19579201  0.60555771  0.79765609  1
  Nb  Nb134  1  0.20315597  0.39072588  0.39844484  1
  Nb  Nb135  1  0.39988510  0.19923168  0.59912809  1
  Nb  Nb136  1  0.20607117  0.20072149  0.20573500  1
  Nb  Nb137  1  0.60062034  -0.00369623  0.20518412  1
  Nb  Nb138  1  0.20243102  0.80178772  0.79828784  1
  Nb  Nb139  1  0.20136430  0.60452916  0.60163774  1
  Nb  Nb140  1  0.39404312  0.80364936  0.60216214  1
  Nb  Nb141  1  -0.00249145  0.00399094  0.80209590  1
  Nb  Nb142  1  0.19227309  0.40403787  0.00469725  1
  Nb  Nb143  1  0.39810767  0.60390980  0.60071751  1
  Nb  Nb144  1  0.39665516  0.20275154  0.20355076  1
  Nb  Nb145  1  0.39866391  0.39795129  0.20496243  1
  Nb  Nb146  1  0.20063256  0.19348048  0.80573480  1
  Nb  Nb147  1  0.79730218  0.80261824  0.00586759  1
  Nb  Nb148  1  0.60102285  0.19864489  0.80143864  1
  Nb  Nb149  1  0.79990855  0.80214925  0.20073456  1
  Pd  Pd150  1  -0.00469667  0.39610234  0.60340870  1
  Pd  Pd151  1  0.59492109  0.60581824  0.39771653  1
  Pd  Pd152  1  0.00167051  0.78801247  0.19166743  1
  Pd  Pd153  1  0.39878025  -0.00313341  0.40319797  1
  Pd  Pd154  1  0.40315713  0.80355225  0.20440800  1
  Pd  Pd155  1  -0.00269739  0.80429200  0.58447893  1
  Pd  Pd156  1  0.20919810  0.80724497  -0.00797078  1
  Pd  Pd157  1  0.19310940  0.40489225  0.59062984  1
  Pd  Pd158  1  0.79395416  0.19636246  0.80229149  1
  Pd  Pd159  1  0.40589049  0.59583524  0.00805537  1
  Pd  Pd160  1  -0.00423626  0.39170737  0.00265415  1
  Pd  Pd161  1  0.40829996  0.59475627  0.19787607  1
  Pd  Pd162  1  0.40640952  0.60111397  0.40609116  1
  Pd  Pd163  1  0.19026691  0.20855112  0.00368240  1
  Pd  Pd164  1  0.20923511  0.19486064  0.60580443  1
  Pd  Pd165  1  0.39649969  0.21369945  0.79439607  1
  Pd  Pd166  1  -0.00746966  0.00156015  0.39409999  1
  Pd  Pd167  1  0.60644698  0.40203840  0.80406600  1
  Pd  Pd168  1  0.80026041  0.79062487  0.40161167  1
  Pd  Pd169  1  0.59679281  -0.00424246  0.59970803  1
  Pd  Pd170  1  0.59792328  0.59293049  0.60334418  1
  Pd  Pd171  1  0.80599774  0.79131367  0.58739017  1
  Pd  Pd172  1  0.19731134  -0.00194199  0.39238424  1
  Pd  Pd173  1  0.79558489  0.40231912  0.59995067  1
  Pd  Pd174  1  0.60871297  0.40725689  0.59287630  1
  Pd  Pd175  1  0.60246258  0.20516505  0.40952215  1
  Pd  Pd176  1  0.00166394  0.59597083  0.60176457  1
  Pd  Pd177  1  0.40639743  0.20541479  0.00501769  1
  Pd  Pd178  1  0.80217657  0.79142791  0.81017629  1
  Pd  Pd179  1  0.20343769  0.39682124  0.81187066  1
  Pd  Pd180  1  0.00758605  0.40456684  0.39317593  1
  Pd  Pd181  1  0.40342609  0.00061612  0.19829620  1
  Pd  Pd182  1  0.80175294  0.00171479  0.79098974  1
  Pd  Pd183  1  0.80193560  0.20856414  -0.00604288  1
  Pd  Pd184  1  0.00368995  0.00750431  0.20561570  1
  Pd  Pd185  1  0.79414053  -0.00354235  0.20591528  1
  Pd  Pd186  1  0.19531376  0.19975255  0.39793117  1
  Pd  Pd187  1  0.40835244  0.60766325  0.79725664  1
  Pd  Pd188  1  0.19472281  0.00676776  0.20373676  1
  Pd  Pd189  1  -0.01091953  0.79169324  0.00641788  1
  Pd  Pd190  1  0.79801189  0.20015701  0.39474847  1
  Pd  Pd191  1  0.19696907  0.58574524  0.40617291  1
  Pd  Pd192  1  0.40729498  0.20213471  0.40467414  1
  Pd  Pd193  1  0.00216113  0.59788359  0.79416919  1
  Pd  Pd194  1  0.60763907  0.79409781  0.39335186  1
  Pd  Pd195  1  -0.00569504  0.80343949  0.40898496  1
  Pd  Pd196  1  0.00882322  0.60634852  0.20300766  1
  Pd  Pd197  1  0.19991603  0.59280890  -0.00872145  1
  Pd  Pd198  1  0.39675684  0.39134911  0.79647922  1
  Pd  Pd199  1  0.59677029  0.20121805  0.59164325  1
  Rh  Rh200  1  0.39887209  0.39973509  0.39296317  1
  Rh  Rh201  1  -0.00934787  0.39775055  0.79179911  1
  Rh  Rh202  1  0.59505054  0.19572586  0.19450960  1
  Rh  Rh203  1  0.60992878  0.39662869  0.40255909  1
  Rh  Rh204  1  0.79945600  0.20452153  0.59599893  1
  Rh  Rh205  1  0.61157847  0.39867207  -0.00381701  1
  Rh  Rh206  1  0.60596826  0.00102920  0.39609240  1
  Rh  Rh207  1  0.40888499  -0.01068732  0.79886382  1
  Rh  Rh208  1  0.59681556  0.60583085  0.20844440  1
  Rh  Rh209  1  0.39476287  0.80630097  -0.00808474  1
  Rh  Rh210  1  0.80527495  0.60358560  0.39786636  1
  Rh  Rh211  1  0.00175870  0.60120519  0.00432101  1
  Rh  Rh212  1  0.39401590  0.41146657  0.01011381  1
  Rh  Rh213  1  0.59148536  0.01139630  -0.00717368  1
  Rh  Rh214  1  0.19718921  0.80753639  0.39732544  1
  Rh  Rh215  1  0.19585707  -0.00136181  -0.00076264  1
  Rh  Rh216  1  0.59829660  0.79458524  0.80368853  1
  Rh  Rh217  1  0.79794045  0.40193226  0.80247686  1
  Rh  Rh218  1  0.78911804  0.60225038  0.79921778  1
  Rh  Rh219  1  0.80349705  -0.00192155  0.60311731  1
  Rh  Rh220  1  -0.01074950  0.00041973  0.60469588  1
  Rh  Rh221  1  0.80011704  0.40326041  0.20201258  1
  Rh  Rh222  1  0.60646514  0.79318196  0.00672306  1
  Rh  Rh223  1  0.00033418  0.40188120  0.20652336  1
  Rh  Rh224  1  0.20831717  -0.00217364  0.58524702  1
  Rh  Rh225  1  0.59829972  0.59805352  -0.00692388  1
  Rh  Rh226  1  -0.00038495  0.19758297  0.39930641  1
  Rh  Rh227  1  0.19614732  0.79797631  0.20281040  1
  Rh  Rh228  1  -0.00317430  0.20243054  0.00510203  1
  Rh  Rh229  1  0.80402519  0.00713877  0.39535211  1
  Rh  Rh230  1  0.81352463  -0.00012996  0.00689639  1
  Rh  Rh231  1  0.00618725  0.19282560  0.79219435  1
  Rh  Rh232  1  0.00775676  0.19410307  0.20451561  1
  Rh  Rh233  1  0.39774937  0.80150329  0.39562164  1
  Rh  Rh234  1  0.79903747  0.59606321  -0.00114108  1
  Rh  Rh235  1  0.20158539  0.39499748  0.20223073  1
  Rh  Rh236  1  0.79997873  0.39350345  0.39338121  1
  Rh  Rh237  1  0.80030593  0.20070582  0.20960124  1
  Rh  Rh238  1  -0.00196207  0.00601563  -0.00248533  1
  Rh  Rh239  1  -0.00571022  0.80566699  0.80347391  1
  Rh  Rh240  1  0.59897351  0.40416806  0.20507574  1
  Rh  Rh241  1  0.39941454  -0.00379972  0.00038839  1
  Rh  Rh242  1  0.79776416  0.59795586  0.59671917  1
  Rh  Rh243  1  0.19275582  0.60852271  0.20245514  1
  Rh  Rh244  1  0.40302663  0.39448738  0.60420807  1
  Rh  Rh245  1  0.60208216  0.79995394  0.59391662  1
  Rh  Rh246  1  -0.00661937  0.20473401  0.60166155  1
  Rh  Rh247  1  0.18683462  0.00054882  0.81187625  1
  Rh  Rh248  1  0.00030638  0.59725051  0.39298458  1
  Rh  Rh249  1  0.79909899  0.60225349  0.20946654  1
