# generated using pymatgen
data_ZrScNbPdRh
_symmetry_space_group_name_H-M   'P 1'
_cell_length_a   16.55722837
_cell_length_b   16.56005394
_cell_length_c   16.55835636
_cell_angle_alpha   89.97252634
_cell_angle_beta   90.01496200
_cell_angle_gamma   89.99305342
_symmetry_Int_Tables_number   1
_chemical_formula_structural   ZrScNbPdRh
_chemical_formula_sum   'Zr50 Sc50 Nb50 Pd50 Rh50'
_cell_volume   4540.11175365
_cell_formula_units_Z   50
loop_
 _symmetry_equiv_pos_site_id
 _symmetry_equiv_pos_as_xyz
  1  'x, y, z'
loop_
 _atom_site_type_symbol
 _atom_site_label
 _atom_site_symmetry_multiplicity
 _atom_site_fract_x
 _atom_site_fract_y
 _atom_site_fract_z
 _atom_site_occupancy
  Zr  Zr0  1  0.49583318  0.09789486  0.70323377  1
  Zr  Zr1  1  0.69760565  0.49857298  0.70654987  1
  Zr  Zr2  1  0.88741497  0.30100891  0.10132397  1
  Zr  Zr3  1  0.70449617  0.30557158  0.70599439  1
  Zr  Zr4  1  0.70897121  0.90044693  0.89411628  1
  Zr  Zr5  1  0.69173939  0.09423834  0.70231237  1
  Zr  Zr6  1  0.70153903  0.90567928  0.29959770  1
  Zr  Zr7  1  0.51478790  0.49872793  0.30310164  1
  Zr  Zr8  1  0.89853792  0.89359130  0.50234651  1
  Zr  Zr9  1  0.89705264  0.69153001  0.30781629  1
  Zr  Zr10  1  0.90391039  0.70499476  0.88602692  1
  Zr  Zr11  1  0.90493899  0.69845026  0.50257548  1
  Zr  Zr12  1  0.10341967  0.30139060  0.31388802  1
  Zr  Zr13  1  0.49036313  0.10893302  0.90284703  1
  Zr  Zr14  1  0.10062187  0.49488090  0.70079001  1
  Zr  Zr15  1  0.09557261  0.09098302  0.09136107  1
  Zr  Zr16  1  0.10001919  0.69907042  0.10171801  1
  Zr  Zr17  1  0.29502940  0.28462119  0.49916188  1
  Zr  Zr18  1  0.29876850  0.49290443  0.09937845  1
  Zr  Zr19  1  0.70130888  0.49663483  0.11235897  1
  Zr  Zr20  1  0.71359846  0.69661366  0.89432045  1
  Zr  Zr21  1  0.49274018  0.70510686  0.69532145  1
  Zr  Zr22  1  0.89986736  0.49895095  0.10940012  1
  Zr  Zr23  1  0.90679563  0.29726481  0.49481792  1
  Zr  Zr24  1  0.50193568  0.49525988  0.89698484  1
  Zr  Zr25  1  0.50047252  0.50180871  0.69370596  1
  Zr  Zr26  1  0.91659254  0.10265531  0.90296543  1
  Zr  Zr27  1  0.70202974  0.90326520  0.50076016  1
  Zr  Zr28  1  0.29705450  0.29840981  0.70429542  1
  Zr  Zr29  1  0.29569156  0.90677492  0.49818093  1
  Zr  Zr30  1  0.30238986  0.90733701  0.30169225  1
  Zr  Zr31  1  0.50150420  0.91135417  0.29566053  1
  Zr  Zr32  1  0.09506870  0.69763068  0.89410727  1
  Zr  Zr33  1  0.89240750  0.29513177  0.89626799  1
  Zr  Zr34  1  0.29490113  0.69277539  0.90133581  1
  Zr  Zr35  1  0.29777295  0.09817889  0.09874757  1
  Zr  Zr36  1  0.10700821  0.90288556  0.29720158  1
  Zr  Zr37  1  0.90279179  0.89557689  0.88854639  1
  Zr  Zr38  1  0.29638656  0.30375327  0.30104813  1
  Zr  Zr39  1  0.89615155  0.10467851  0.10003239  1
  Zr  Zr40  1  0.30398976  0.90010539  0.69705353  1
  Zr  Zr41  1  0.31046853  0.51500759  0.49490932  1
  Zr  Zr42  1  0.90264780  0.09903279  0.49788863  1
  Zr  Zr43  1  0.70227686  0.90976648  0.09986057  1
  Zr  Zr44  1  0.29746707  0.89912324  0.10188302  1
  Zr  Zr45  1  0.09114199  0.49300559  0.50624402  1
  Zr  Zr46  1  0.89714719  0.49438827  0.30054297  1
  Zr  Zr47  1  0.70926897  0.70133295  0.48904666  1
  Zr  Zr48  1  0.49272087  0.30661052  0.70074123  1
  Zr  Zr49  1  0.30014715  0.69992777  0.08859111  1
  Sc  Sc50  1  0.50841782  0.68780410  0.29990370  1
  Sc  Sc51  1  0.49505343  0.69268524  0.09223801  1
  Sc  Sc52  1  0.70497639  0.10060524  0.29942354  1
  Sc  Sc53  1  0.29505788  0.10247503  0.70204708  1
  Sc  Sc54  1  0.10007564  0.90174690  0.50138614  1
  Sc  Sc55  1  0.50344876  0.29480107  0.29683350  1
  Sc  Sc56  1  0.90280001  0.69063572  0.09095472  1
  Sc  Sc57  1  0.49696040  0.30425626  0.90710430  1
  Sc  Sc58  1  0.69665748  0.69884338  0.69769155  1
  Sc  Sc59  1  0.10711293  0.10318251  0.51091617  1
  Sc  Sc60  1  0.50845504  0.90754903  0.50234082  1
  Sc  Sc61  1  0.70291543  0.10398595  0.10124593  1
  Sc  Sc62  1  0.09833010  0.69902923  0.30749715  1
  Sc  Sc63  1  0.30071396  0.70683969  0.50414896  1
  Sc  Sc64  1  0.49540799  0.68326116  0.50305097  1
  Sc  Sc65  1  0.29694972  0.49125665  0.70810045  1
  Sc  Sc66  1  0.49840375  0.10051559  0.30166191  1
  Sc  Sc67  1  0.09600243  0.30007960  0.89337175  1
  Sc  Sc68  1  0.30460812  0.09902641  0.31194940  1
  Sc  Sc69  1  0.70162804  0.68003384  0.29708691  1
  Sc  Sc70  1  0.09694884  0.49589934  0.30273599  1
  Sc  Sc71  1  0.90218403  0.49622104  0.49698290  1
  Sc  Sc72  1  0.70384909  0.30129448  0.30137495  1
  Sc  Sc73  1  0.10466347  0.30973267  0.10425174  1
  Sc  Sc74  1  0.10104099  0.50149586  0.88917340  1
  Sc  Sc75  1  0.91020037  0.10095416  0.70532418  1
  Sc  Sc76  1  0.10237391  0.30417363  0.69022908  1
  Sc  Sc77  1  0.09654399  0.90723189  0.89529891  1
  Sc  Sc78  1  0.49051316  0.90291903  0.89886634  1
  Sc  Sc79  1  0.90516959  0.49544135  0.69546574  1
  Sc  Sc80  1  0.09479728  0.49933624  0.10660678  1
  Sc  Sc81  1  0.89755182  0.91391458  0.30754622  1
  Sc  Sc82  1  0.89183418  0.50922514  0.89370317  1
  Sc  Sc83  1  0.29711769  0.89797060  0.90215077  1
  Sc  Sc84  1  0.09546536  0.70306605  0.49817701  1
  Sc  Sc85  1  0.50112782  0.91081418  0.10282072  1
  Sc  Sc86  1  0.70516230  0.09966883  0.90406153  1
  Sc  Sc87  1  0.50468930  0.29923246  0.09745709  1
  Sc  Sc88  1  0.50384389  0.10669443  0.10413000  1
  Sc  Sc89  1  0.09883075  0.90552462  0.69451118  1
  Sc  Sc90  1  0.70099870  0.30957286  0.90283887  1
  Sc  Sc91  1  0.29636315  0.49361239  0.90299010  1
  Sc  Sc92  1  0.29714713  0.09932500  0.88691700  1
  Sc  Sc93  1  0.50271497  0.49090478  0.09757123  1
  Sc  Sc94  1  0.48839542  0.70359885  0.90581902  1
  Sc  Sc95  1  0.29499196  0.69713922  0.31690592  1
  Sc  Sc96  1  0.30596442  0.30489203  0.09954694  1
  Sc  Sc97  1  0.90180522  0.90621190  0.09200285  1
  Sc  Sc98  1  0.10839536  0.90442844  0.10006107  1
  Sc  Sc99  1  0.08681148  0.69445758  0.69818954  1
  Nb  Nb100  1  0.70205238  0.30331951  0.09931513  1
  Nb  Nb101  1  0.30440108  0.29686805  0.90145581  1
  Nb  Nb102  1  0.90164143  0.29009951  0.30182060  1
  Nb  Nb103  1  0.30836054  0.10080791  0.50231321  1
  Nb  Nb104  1  0.10587939  0.09452444  0.71000384  1
  Nb  Nb105  1  0.49552126  0.11339457  0.50269385  1
  Nb  Nb106  1  0.89924575  0.70244057  0.69669273  1
  Nb  Nb107  1  0.30479597  0.49885129  0.30088735  1
  Nb  Nb108  1  0.69955661  0.49987111  0.30292464  1
  Nb  Nb109  1  0.69403863  0.49449050  0.49350374  1
  Nb  Nb110  1  0.09880883  0.09771684  0.29224970  1
  Nb  Nb111  1  0.50175496  0.49278972  0.49985765  1
  Nb  Nb112  1  0.49556579  0.29475335  0.50389560  1
  Nb  Nb113  1  0.69908465  0.29635574  0.50504232  1
  Nb  Nb114  1  0.89308843  0.30061261  0.69852788  1
  Nb  Nb115  1  0.69998379  0.69940733  0.10105309  1
  Nb  Nb116  1  0.89524895  0.89119204  0.69977659  1
  Nb  Nb117  1  0.69272822  0.10437839  0.50849549  1
  Nb  Nb118  1  0.90170125  0.10912795  0.29837166  1
  Nb  Nb119  1  0.10354845  0.29897374  0.50090347  1
  Nb  Nb120  1  0.29894000  0.70059813  0.69825492  1
  Nb  Nb121  1  0.69111314  0.90503275  0.69752485  1
  Nb  Nb122  1  0.10019576  0.09590517  0.89395616  1
  Nb  Nb123  1  0.50521037  0.90423514  0.70010004  1
  Nb  Nb124  1  0.69449753  0.50324067  0.89303391  1
  Nb  Nb125  1  0.40221629  0.79397620  0.20547016  1
  Nb  Nb126  1  0.20052893  0.79335891  0.79437757  1
  Nb  Nb127  1  0.79773240  0.20002729  0.59939822  1
  Nb  Nb128  1  0.39317546  0.59789310  0.20209978  1
  Nb  Nb129  1  0.19452684  0.19557881  0.20050782  1
  Nb  Nb130  1  0.20818432  0.59599642  0.20283197  1
  Nb  Nb131  1  -0.00570611  0.80084527  0.20190089  1
  Nb  Nb132  1  0.60688604  0.79800446  -0.00089972  1
  Nb  Nb133  1  0.39514392  0.00625833  0.00048495  1
  Nb  Nb134  1  0.40993350  0.80466003  0.39572500  1
  Nb  Nb135  1  0.59982235  0.79923235  0.39370687  1
  Nb  Nb136  1  0.20005681  0.59951681  0.60405184  1
  Nb  Nb137  1  0.00087519  0.19950245  0.20474366  1
  Nb  Nb138  1  0.79883468  0.59699550  0.59641115  1
  Nb  Nb139  1  0.59897324  0.80681596  0.79887115  1
  Nb  Nb140  1  0.80085402  0.79719213  0.19814135  1
  Nb  Nb141  1  0.40595710  0.39947782  0.40585621  1
  Nb  Nb142  1  0.40402401  0.00541517  0.59873004  1
  Nb  Nb143  1  0.39644503  0.60168861  0.79793218  1
  Nb  Nb144  1  0.59726393  0.20185893  0.79997908  1
  Nb  Nb145  1  0.60936933  0.60044150  -0.00437438  1
  Nb  Nb146  1  -0.00858694  0.40007235  -0.00155938  1
  Nb  Nb147  1  0.79604143  0.00135315  0.60351061  1
  Nb  Nb148  1  0.60311779  0.79565652  0.19720080  1
  Nb  Nb149  1  0.19832891  0.19842186  -0.00211297  1
  Pd  Pd150  1  0.60843222  0.20102981  0.20202979  1
  Pd  Pd151  1  0.59644335  0.38662781  0.40326520  1
  Pd  Pd152  1  0.80000852  0.41051362  -0.00631049  1
  Pd  Pd153  1  0.39820018  0.79938262  0.80136640  1
  Pd  Pd154  1  0.01201130  0.19087554  0.40109554  1
  Pd  Pd155  1  0.80285812  0.40120319  0.59390609  1
  Pd  Pd156  1  -0.00145075  0.38964071  0.20179762  1
  Pd  Pd157  1  0.00753519  0.20780960  0.78920963  1
  Pd  Pd158  1  0.19060689  0.39538247  -0.00708965  1
  Pd  Pd159  1  -0.00600371  -0.00184351  0.60444732  1
  Pd  Pd160  1  0.59422184  0.00100660  0.81454359  1
  Pd  Pd161  1  0.79614566  0.59356069  0.00421346  1
  Pd  Pd162  1  0.19226209  0.00886810  0.40382583  1
  Pd  Pd163  1  0.60134575  0.20104330  0.39841539  1
  Pd  Pd164  1  0.39281384  0.19793978  0.20309338  1
  Pd  Pd165  1  0.18932258  0.58963849  0.00440262  1
  Pd  Pd166  1  0.60902449  0.60004967  0.59288759  1
  Pd  Pd167  1  0.60698963  0.20565627  -0.00530546  1
  Pd  Pd168  1  0.79915181  0.39689573  0.40018222  1
  Pd  Pd169  1  0.20812009  0.40865148  0.41023761  1
  Pd  Pd170  1  0.18957528  0.59539225  0.40435803  1
  Pd  Pd171  1  -0.00762076  0.39757245  0.80292815  1
  Pd  Pd172  1  0.80202253  0.79921760  0.00648150  1
  Pd  Pd173  1  0.00517993  0.80597540  0.00584580  1
  Pd  Pd174  1  0.58764812  0.61449621  0.80673015  1
  Pd  Pd175  1  0.18842657  0.80506407  -0.01131167  1
  Pd  Pd176  1  0.21079257  0.40620483  0.59049795  1
  Pd  Pd177  1  0.40976443  0.40261921  0.20695555  1
  Pd  Pd178  1  -0.00732448  -0.00282853  0.19889194  1
  Pd  Pd179  1  0.00835084  0.00469749  0.40280695  1
  Pd  Pd180  1  0.80849707  0.00480688  -0.00592970  1
  Pd  Pd181  1  0.79256521  0.19769894  0.40628906  1
  Pd  Pd182  1  0.00334438  0.58944446  -0.00577745  1
  Pd  Pd183  1  0.38980969  0.39998656  0.59229856  1
  Pd  Pd184  1  0.59198925  -0.00195993  -0.00523530  1
  Pd  Pd185  1  0.00906926  0.21206670  0.00870483  1
  Pd  Pd186  1  0.18933327  0.79303152  0.60429512  1
  Pd  Pd187  1  0.79807183  0.00953326  0.40628618  1
  Pd  Pd188  1  0.79450373  0.19225365  0.79788103  1
  Pd  Pd189  1  0.20170572  0.78828541  0.20875270  1
  Pd  Pd190  1  0.59633973  0.79576718  0.59410301  1
  Pd  Pd191  1  0.60029730  0.20770149  0.60966047  1
  Pd  Pd192  1  0.40747947  0.80945103  0.58704147  1
  Pd  Pd193  1  0.19280166  0.20517103  0.80271316  1
  Pd  Pd194  1  0.59786091  0.00906260  0.40312979  1
  Pd  Pd195  1  0.79416734  0.79859884  0.60604082  1
  Pd  Pd196  1  0.00050042  0.20198497  0.60731255  1
  Pd  Pd197  1  0.00026378  0.80703182  0.39301047  1
  Pd  Pd198  1  0.80907654  0.00604235  0.79356455  1
  Pd  Pd199  1  0.60175864  0.39649826  0.59885676  1
  Rh  Rh200  1  0.60520957  0.39183182  0.19988488  1
  Rh  Rh201  1  0.79664955  0.39523268  0.21105348  1
  Rh  Rh202  1  0.00190012  0.59380005  0.40147537  1
  Rh  Rh203  1  0.20711145  0.00821074  0.20710761  1
  Rh  Rh204  1  0.79407893  0.80059359  0.38552726  1
  Rh  Rh205  1  0.39595117  -0.00338972  0.79808017  1
  Rh  Rh206  1  0.19676985  0.19041804  0.39829869  1
  Rh  Rh207  1  -0.00559207  0.38957079  0.59986816  1
  Rh  Rh208  1  0.80532726  0.60305378  0.19871012  1
  Rh  Rh209  1  0.59138064  0.59909918  0.18587511  1
  Rh  Rh210  1  0.20421037  0.80517365  0.40213684  1
  Rh  Rh211  1  0.80496469  0.00027043  0.20022946  1
  Rh  Rh212  1  0.19845137  0.40161822  0.20521305  1
  Rh  Rh213  1  0.59694888  0.39114410  0.80164282  1
  Rh  Rh214  1  0.60232624  0.60049867  0.40977511  1
  Rh  Rh215  1  0.39667069  0.00255935  0.19248769  1
  Rh  Rh216  1  0.20360462  0.60511020  0.79134406  1
  Rh  Rh217  1  0.40352580  0.20751822  0.79877061  1
  Rh  Rh218  1  0.39723733  0.40352398  0.80582906  1
  Rh  Rh219  1  0.40817202  0.58552030  -0.00293171  1
  Rh  Rh220  1  0.39461792  0.19564346  0.60779609  1
  Rh  Rh221  1  0.79970604  0.58515829  0.40767222  1
  Rh  Rh222  1  0.00748634  0.80501233  0.78805533  1
  Rh  Rh223  1  0.60794003  0.40524593  0.00217037  1
  Rh  Rh224  1  0.20002996  -0.00996400  0.79684391  1
  Rh  Rh225  1  0.60448291  0.00889892  0.19849099  1
  Rh  Rh226  1  0.20136276  0.39168796  0.80674396  1
  Rh  Rh227  1  0.39976867  0.39725548  -0.00066774  1
  Rh  Rh228  1  0.19880683  0.19522995  0.60404389  1
  Rh  Rh229  1  0.20752524  0.00634431  0.60266649  1
  Rh  Rh230  1  -0.00135311  -0.00440494  0.79343229  1
  Rh  Rh231  1  0.79975734  0.20247962  0.20204936  1
  Rh  Rh232  1  -0.00640109  0.59668969  0.79391754  1
  Rh  Rh233  1  0.80643340  0.59737036  0.78365653  1
  Rh  Rh234  1  0.79416313  0.19867217  -0.00208906  1
  Rh  Rh235  1  0.00676050  0.60964985  0.20617372  1
  Rh  Rh236  1  -0.00247409  0.59918549  0.59937932  1
  Rh  Rh237  1  0.39106617  0.59371298  0.61233751  1
  Rh  Rh238  1  0.59521433  0.00530852  0.59399872  1
  Rh  Rh239  1  0.79040876  0.79955555  0.78696983  1
  Rh  Rh240  1  0.20502909  0.00718421  -0.01257320  1
  Rh  Rh241  1  -0.00156529  0.39738932  0.40000028  1
  Rh  Rh242  1  0.80412136  0.40693099  0.80197765  1
  Rh  Rh243  1  0.41080524  0.59758131  0.39098557  1
  Rh  Rh244  1  0.00218316  0.80381830  0.60103441  1
  Rh  Rh245  1  0.40853819  0.81593706  0.01331123  1
  Rh  Rh246  1  0.39014248  0.19793970  0.00219192  1
  Rh  Rh247  1  0.40417257  0.20723833  0.39627145  1
  Rh  Rh248  1  0.40854567  0.00052279  0.41362421  1
  Rh  Rh249  1  -0.00126245  -0.00606354  -0.00519336  1
