# generated using pymatgen
data_ZrScNbPdRh
_symmetry_space_group_name_H-M   'P 1'
_cell_length_a   16.55950875
_cell_length_b   16.55945590
_cell_length_c   16.56006437
_cell_angle_alpha   90.03475594
_cell_angle_beta   90.00202379
_cell_angle_gamma   89.96995817
_symmetry_Int_Tables_number   1
_chemical_formula_structural   ZrScNbPdRh
_chemical_formula_sum   'Zr50 Sc50 Nb50 Pd50 Rh50'
_cell_volume   4541.04068211
_cell_formula_units_Z   50
loop_
 _symmetry_equiv_pos_site_id
 _symmetry_equiv_pos_as_xyz
  1  'x, y, z'
loop_
 _atom_site_type_symbol
 _atom_site_label
 _atom_site_symmetry_multiplicity
 _atom_site_fract_x
 _atom_site_fract_y
 _atom_site_fract_z
 _atom_site_occupancy
  Zr  Zr0  1  0.50020713  0.70893185  0.29498739  1
  Zr  Zr1  1  0.09291344  0.29364539  0.09603828  1
  Zr  Zr2  1  0.09856545  0.49847519  0.09414132  1
  Zr  Zr3  1  0.10142566  0.71095764  0.69696949  1
  Zr  Zr4  1  0.29670633  0.90553811  0.90031608  1
  Zr  Zr5  1  0.69827911  0.09872192  0.89937831  1
  Zr  Zr6  1  0.09778142  0.90254061  0.30425590  1
  Zr  Zr7  1  0.70337816  0.49628208  0.10719657  1
  Zr  Zr8  1  0.09310401  0.90343343  0.88900822  1
  Zr  Zr9  1  0.30435897  0.09567608  0.90123044  1
  Zr  Zr10  1  0.89711878  0.69962196  0.29561552  1
  Zr  Zr11  1  0.70387923  0.29039263  0.10751991  1
  Zr  Zr12  1  0.90557895  0.08813711  0.90303921  1
  Zr  Zr13  1  0.89997964  0.70351693  0.49985192  1
  Zr  Zr14  1  0.31225656  0.50030688  0.68683849  1
  Zr  Zr15  1  0.09676057  0.70478512  0.50167793  1
  Zr  Zr16  1  0.70303663  0.30235413  0.49695078  1
  Zr  Zr17  1  0.49297525  0.09934394  0.48882569  1
  Zr  Zr18  1  0.29153610  0.89639406  0.70202769  1
  Zr  Zr19  1  0.50165371  0.31869445  0.70125017  1
  Zr  Zr20  1  0.90166595  0.29513825  0.49950975  1
  Zr  Zr21  1  0.29861197  0.50247421  0.10991242  1
  Zr  Zr22  1  0.90595326  0.50401844  0.10660672  1
  Zr  Zr23  1  0.09622035  0.09694984  0.69954479  1
  Zr  Zr24  1  0.09596977  0.89764308  0.49536067  1
  Zr  Zr25  1  0.70317460  0.70847608  0.70199922  1
  Zr  Zr26  1  0.50072113  0.69560424  0.70901582  1
  Zr  Zr27  1  0.71259014  0.08818798  0.50938721  1
  Zr  Zr28  1  0.10534543  0.28425393  0.49479867  1
  Zr  Zr29  1  0.09582712  0.09795046  0.09962685  1
  Zr  Zr30  1  0.90370351  0.70363391  0.89526823  1
  Zr  Zr31  1  0.29156753  0.10545147  0.49366914  1
  Zr  Zr32  1  0.49593474  0.50784567  0.09713369  1
  Zr  Zr33  1  0.30465276  0.89078712  0.49554212  1
  Zr  Zr34  1  0.70504464  0.89952007  0.10609079  1
  Zr  Zr35  1  0.10067616  0.50300203  0.29419487  1
  Zr  Zr36  1  0.09362525  0.71096337  0.30469192  1
  Zr  Zr37  1  0.70363469  0.09194948  0.70419570  1
  Zr  Zr38  1  0.70512524  0.90075647  0.69565847  1
  Zr  Zr39  1  0.49520498  0.50090389  0.50328630  1
  Zr  Zr40  1  0.29312532  0.70505690  0.90175748  1
  Zr  Zr41  1  0.09960815  0.10576979  0.90228254  1
  Zr  Zr42  1  0.50186537  0.70407096  0.10062497  1
  Zr  Zr43  1  0.11361065  0.50298893  0.49402806  1
  Zr  Zr44  1  0.30000736  0.30028672  0.70072555  1
  Zr  Zr45  1  0.69762556  0.70700042  0.09962804  1
  Zr  Zr46  1  0.10590170  0.09240116  0.30666953  1
  Zr  Zr47  1  0.69701157  0.29960057  0.29932796  1
  Zr  Zr48  1  0.28987860  0.49951151  0.90322348  1
  Zr  Zr49  1  0.50061155  0.29466880  0.30719750  1
  Sc  Sc50  1  0.69732643  0.90647817  0.29600416  1
  Sc  Sc51  1  0.90557327  0.50234603  0.69572836  1
  Sc  Sc52  1  0.50031843  0.30258836  0.49337343  1
  Sc  Sc53  1  0.11217014  0.30164904  0.70411638  1
  Sc  Sc54  1  0.30276474  0.29099647  0.29603209  1
  Sc  Sc55  1  0.90274162  0.89843041  0.70964844  1
  Sc  Sc56  1  0.49850448  0.29330450  0.11645019  1
  Sc  Sc57  1  0.49585761  0.71009375  0.48932166  1
  Sc  Sc58  1  0.90289063  0.90921573  0.50619868  1
  Sc  Sc59  1  0.89239539  0.50805581  0.49699908  1
  Sc  Sc60  1  0.89384803  0.50526638  0.29594251  1
  Sc  Sc61  1  0.70377792  0.09594339  0.29213588  1
  Sc  Sc62  1  0.68761032  0.50438746  0.90155559  1
  Sc  Sc63  1  0.09800200  0.69908636  0.10478120  1
  Sc  Sc64  1  0.50503107  0.50840212  0.29845827  1
  Sc  Sc65  1  0.70233027  0.30075447  0.69724989  1
  Sc  Sc66  1  0.50733709  0.08922728  0.90366365  1
  Sc  Sc67  1  0.90097945  0.70552780  0.69276095  1
  Sc  Sc68  1  0.89655488  0.09791046  0.09401993  1
  Sc  Sc69  1  0.89889077  0.30237805  0.69104307  1
  Sc  Sc70  1  0.69293912  0.29265373  0.90112372  1
  Sc  Sc71  1  0.10867680  0.50278945  0.70435352  1
  Sc  Sc72  1  0.51210986  0.89969318  0.10454003  1
  Sc  Sc73  1  0.50910333  0.89760784  0.69721816  1
  Sc  Sc74  1  0.28917369  0.89726464  0.30059493  1
  Sc  Sc75  1  0.89889196  0.29752808  0.29254852  1
  Sc  Sc76  1  0.69339730  0.70296912  0.90133974  1
  Sc  Sc77  1  0.92396204  0.50254798  0.90273427  1
  Sc  Sc78  1  0.30049141  0.10046758  0.10446654  1
  Sc  Sc79  1  0.10005318  0.69082129  0.89719973  1
  Sc  Sc80  1  0.29844246  0.29799608  0.10843060  1
  Sc  Sc81  1  0.89660618  0.90144319  0.28985658  1
  Sc  Sc82  1  0.90589799  0.09256074  0.30327171  1
  Sc  Sc83  1  0.70130358  0.50059538  0.30370732  1
  Sc  Sc84  1  0.29139781  0.10043521  0.70639741  1
  Sc  Sc85  1  0.50985951  0.09200617  0.70852258  1
  Sc  Sc86  1  0.29950522  0.69962720  0.10674192  1
  Sc  Sc87  1  0.69206276  0.49168505  0.70209860  1
  Sc  Sc88  1  0.09691870  0.28938804  0.29526655  1
  Sc  Sc89  1  0.69853350  0.50122877  0.49052434  1
  Sc  Sc90  1  0.50190634  0.10365588  0.30212130  1
  Sc  Sc91  1  0.50833940  0.69252568  0.90643991  1
  Sc  Sc92  1  0.70593066  0.89796177  0.89582029  1
  Sc  Sc93  1  0.69755361  0.69608001  0.30070459  1
  Sc  Sc94  1  0.50073079  0.50375166  0.88672615  1
  Sc  Sc95  1  0.70177865  0.69802326  0.50270805  1
  Sc  Sc96  1  0.29372907  0.89972376  0.10413468  1
  Sc  Sc97  1  0.29363399  0.30242371  0.50245886  1
  Sc  Sc98  1  0.10264737  0.89843167  0.11295157  1
  Sc  Sc99  1  0.29612108  0.70156384  0.69097082  1
  Nb  Nb100  1  0.29691277  0.50469450  0.30298268  1
  Nb  Nb101  1  0.30003948  0.50690389  0.49357965  1
  Nb  Nb102  1  0.50022992  0.90350823  0.48850489  1
  Nb  Nb103  1  0.30690776  0.09523654  0.30335822  1
  Nb  Nb104  1  0.90995852  0.10404614  0.50953611  1
  Nb  Nb105  1  0.49121203  0.90241165  0.90552770  1
  Nb  Nb106  1  0.89544532  0.30155434  0.09576310  1
  Nb  Nb107  1  0.89619858  0.69954678  0.09959723  1
  Nb  Nb108  1  0.29623394  0.69654207  0.49594420  1
  Nb  Nb109  1  0.90313188  0.29792351  0.90105032  1
  Nb  Nb110  1  0.08951818  0.09524622  0.49709637  1
  Nb  Nb111  1  0.70044466  0.89768450  0.50359635  1
  Nb  Nb112  1  0.30449171  0.69928153  0.30089405  1
  Nb  Nb113  1  0.49714674  0.90265828  0.30960812  1
  Nb  Nb114  1  0.90229282  0.90146183  0.90319053  1
  Nb  Nb115  1  0.49780436  0.30192602  0.90028582  1
  Nb  Nb116  1  0.10485508  0.49068955  0.89965899  1
  Nb  Nb117  1  0.89832642  0.10192625  0.69425450  1
  Nb  Nb118  1  0.10467575  0.30816721  0.89751694  1
  Nb  Nb119  1  0.89347212  0.89544423  0.09246487  1
  Nb  Nb120  1  0.50046397  0.50309846  0.69770426  1
  Nb  Nb121  1  0.68739990  0.09673496  0.10336888  1
  Nb  Nb122  1  0.09998316  0.89941754  0.69574941  1
  Nb  Nb123  1  0.49967686  0.09257824  0.09945790  1
  Nb  Nb124  1  0.29607324  0.29697430  0.89763981  1
  Nb  Nb125  1  0.40045732  0.80160350  0.80702769  1
  Nb  Nb126  1  -0.00292182  0.20460204  0.80409968  1
  Nb  Nb127  1  0.79766292  0.80672144  0.40422116  1
  Nb  Nb128  1  0.40108980  0.39423174  -0.00291580  1
  Nb  Nb129  1  0.80601312  0.39986957  0.81142416  1
  Nb  Nb130  1  0.00815836  0.40061734  0.58834636  1
  Nb  Nb131  1  0.38976727  0.41071823  0.39724807  1
  Nb  Nb132  1  0.59307301  0.60024832  0.60364985  1
  Nb  Nb133  1  0.40467272  0.20432808  0.80373885  1
  Nb  Nb134  1  -0.00683209  0.80311537  0.00135003  1
  Nb  Nb135  1  0.19659613  -0.00283927  0.59401188  1
  Nb  Nb136  1  0.40140820  0.80466480  -0.00249627  1
  Nb  Nb137  1  0.80483354  0.59712981  -0.00066698  1
  Nb  Nb138  1  0.40347847  0.20323930  -0.00455147  1
  Nb  Nb139  1  0.59766192  0.19686239  0.59796336  1
  Nb  Nb140  1  0.40353186  -0.00155319  0.20672030  1
  Nb  Nb141  1  0.00323302  0.39953661  0.40327724  1
  Nb  Nb142  1  0.80196298  0.59592669  0.80554340  1
  Nb  Nb143  1  0.80427115  0.19437217  0.40712817  1
  Nb  Nb144  1  0.40566403  0.19668951  0.60654586  1
  Nb  Nb145  1  0.59483308  0.39492237  0.00492561  1
  Nb  Nb146  1  0.80901880  0.19968807  0.80110725  1
  Nb  Nb147  1  0.39689455  0.00047533  0.59501533  1
  Nb  Nb148  1  0.19574346  0.00126421  -0.00160917  1
  Nb  Nb149  1  0.80226822  0.39943374  -0.00202643  1
  Pd  Pd150  1  -0.00070463  0.39403366  0.78895809  1
  Pd  Pd151  1  0.59425056  0.80637251  0.80870117  1
  Pd  Pd152  1  0.19790882  0.61153774  0.39268041  1
  Pd  Pd153  1  0.59581484  0.40081842  0.20079056  1
  Pd  Pd154  1  0.80690564  0.19022317  0.20442305  1
  Pd  Pd155  1  -0.00059104  0.39808151  0.20572149  1
  Pd  Pd156  1  -0.00895244  0.19206585  0.19886009  1
  Pd  Pd157  1  0.60307089  0.60228358  0.19894948  1
  Pd  Pd158  1  0.80032194  0.79455079  -0.00744673  1
  Pd  Pd159  1  0.59422203  0.79450031  0.59241730  1
  Pd  Pd160  1  0.39359827  0.40271538  0.80641150  1
  Pd  Pd161  1  0.19455529  0.60265696  0.00476056  1
  Pd  Pd162  1  0.59932927  0.20649879  0.79122665  1
  Pd  Pd163  1  0.80893412  0.39574667  0.39257131  1
  Pd  Pd164  1  0.19609321  0.60809808  0.20286381  1
  Pd  Pd165  1  -0.00387788  0.59371107  0.39771817  1
  Pd  Pd166  1  0.40550790  0.60102896  0.39507083  1
  Pd  Pd167  1  0.60669964  0.00450120  0.39798477  1
  Pd  Pd168  1  0.61532012  0.18751731  0.40572397  1
  Pd  Pd169  1  0.19617531  0.39390082  0.20320750  1
  Pd  Pd170  1  0.60245014  0.40191401  0.59155535  1
  Pd  Pd171  1  0.00961744  0.20976540  0.61063226  1
  Pd  Pd172  1  0.80354414  0.40920018  0.60345761  1
  Pd  Pd173  1  0.40251214  0.40462111  0.20563943  1
  Pd  Pd174  1  0.59031648  0.00289113  0.59295299  1
  Pd  Pd175  1  0.58992652  0.20329613  0.00749884  1
  Pd  Pd176  1  0.20040184  0.19341723  0.20320793  1
  Pd  Pd177  1  0.78775104  0.59290891  0.60906380  1
  Pd  Pd178  1  0.20074167  0.39039837  0.38837482  1
  Pd  Pd179  1  0.00868015  0.59357211  0.60076561  1
  Pd  Pd180  1  0.79094242  0.00308972  0.00341900  1
  Pd  Pd181  1  0.19141916  0.80730143  0.00238415  1
  Pd  Pd182  1  0.80087199  0.19943602  -0.00442365  1
  Pd  Pd183  1  0.61081314  0.80068924  0.39821821  1
  Pd  Pd184  1  0.39808267  0.81069627  0.19608093  1
  Pd  Pd185  1  0.20642677  0.19851661  0.00169579  1
  Pd  Pd186  1  0.40440865  -0.00207247  0.78900203  1
  Pd  Pd187  1  0.20621776  0.39299165  0.00745339  1
  Pd  Pd188  1  -0.00543196  0.80237405  0.19343968  1
  Pd  Pd189  1  0.40514527  0.61369693  0.59450815  1
  Pd  Pd190  1  0.19894912  0.40403726  0.60084624  1
  Pd  Pd191  1  0.40731423  0.80254918  0.60462758  1
  Pd  Pd192  1  0.39677840  0.60186524  -0.00455420  1
  Pd  Pd193  1  0.60752881  -0.00941519  -0.00248009  1
  Pd  Pd194  1  0.80674994  -0.00204004  0.40054488  1
  Pd  Pd195  1  0.39126091  0.60573449  0.80464051  1
  Pd  Pd196  1  -0.00232675  0.39534129  0.00135450  1
  Pd  Pd197  1  0.00031049  0.60175244  0.79052791  1
  Pd  Pd198  1  -0.00673265  -0.00111590  0.19412537  1
  Pd  Pd199  1  0.20601155  0.59971105  0.79183617  1
  Rh  Rh200  1  0.59719694  0.19271941  0.20187035  1
  Rh  Rh201  1  0.40465498  0.18640883  0.19637426  1
  Rh  Rh202  1  0.00334564  0.60756024  0.00273233  1
  Rh  Rh203  1  0.20246337  0.19857265  0.39048462  1
  Rh  Rh204  1  0.79362629  0.60537543  0.19445143  1
  Rh  Rh205  1  0.00222979  0.79896533  0.80164089  1
  Rh  Rh206  1  0.60217826  -0.01165571  0.80790742  1
  Rh  Rh207  1  0.80383882  0.80826876  0.59339841  1
  Rh  Rh208  1  -0.01503045  0.80806690  0.39906133  1
  Rh  Rh209  1  0.60308919  0.80486226  0.20846879  1
  Rh  Rh210  1  -0.00694520  0.19915587  0.39460970  1
  Rh  Rh211  1  0.00253639  -0.00461028  0.60582392  1
  Rh  Rh212  1  0.19881726  0.79736174  0.80041438  1
  Rh  Rh213  1  0.80259399  0.39696561  0.19890342  1
  Rh  Rh214  1  -0.00588347  -0.00273639  0.39941657  1
  Rh  Rh215  1  0.79715568  0.79859494  0.20829492  1
  Rh  Rh216  1  -0.00104742  0.20624802  -0.00474888  1
  Rh  Rh217  1  0.19817242  0.20026072  0.80386504  1
  Rh  Rh218  1  0.59200629  0.00191682  0.20452796  1
  Rh  Rh219  1  0.20728576  0.40621203  0.79643651  1
  Rh  Rh220  1  0.39419291  0.79872346  0.39221806  1
  Rh  Rh221  1  0.81089303  -0.00711268  0.60648900  1
  Rh  Rh222  1  0.00815472  -0.01481069  0.01072331  1
  Rh  Rh223  1  0.20204114  0.79257535  0.20825413  1
  Rh  Rh224  1  0.80308754  0.79597745  0.80192775  1
  Rh  Rh225  1  0.20366379  0.79362537  0.39889124  1
  Rh  Rh226  1  0.19260087  0.00152481  0.79857520  1
  Rh  Rh227  1  0.20068366  0.60324219  0.59947670  1
  Rh  Rh228  1  0.39692354  0.39434589  0.58785975  1
  Rh  Rh229  1  0.59397783  0.80721062  -0.00307174  1
  Rh  Rh230  1  0.59764709  0.60192921  0.40779782  1
  Rh  Rh231  1  0.39342969  -0.00217351  0.01646688  1
  Rh  Rh232  1  0.80546009  0.00261421  0.79952129  1
  Rh  Rh233  1  0.79118471  0.19779778  0.60195121  1
  Rh  Rh234  1  0.20744261  0.00547811  0.19854417  1
  Rh  Rh235  1  0.79847056  0.61131334  0.39806898  1
  Rh  Rh236  1  0.19864495  0.80279677  0.59119874  1
  Rh  Rh237  1  0.80129070  0.00436249  0.19088344  1
  Rh  Rh238  1  -0.00428440  0.80720105  0.60226230  1
  Rh  Rh239  1  -0.00438764  0.00466941  0.79227090  1
  Rh  Rh240  1  0.61098659  0.60056674  0.78980658  1
  Rh  Rh241  1  0.60732936  0.39831311  0.80883121  1
  Rh  Rh242  1  0.59036547  0.40682675  0.39505726  1
  Rh  Rh243  1  0.60688938  0.59337337  0.00889470  1
  Rh  Rh244  1  0.20136342  -0.00142662  0.40583338  1
  Rh  Rh245  1  0.39340131  -0.00596196  0.39683757  1
  Rh  Rh246  1  0.20016108  0.18833665  0.60147977  1
  Rh  Rh247  1  0.39797481  0.60153705  0.20671527  1
  Rh  Rh248  1  0.00354057  0.60366467  0.20086741  1
  Rh  Rh249  1  0.39129544  0.21336761  0.40650208  1
