# generated using pymatgen
data_ZrScNbPdRh
_symmetry_space_group_name_H-M   'P 1'
_cell_length_a   16.55480774
_cell_length_b   16.55236067
_cell_length_c   16.55079180
_cell_angle_alpha   90.02972364
_cell_angle_beta   89.97393139
_cell_angle_gamma   90.01425404
_symmetry_Int_Tables_number   1
_chemical_formula_structural   ZrScNbPdRh
_chemical_formula_sum   'Zr50 Sc50 Nb50 Pd50 Rh50'
_cell_volume   4535.26575856
_cell_formula_units_Z   50
loop_
 _symmetry_equiv_pos_site_id
 _symmetry_equiv_pos_as_xyz
  1  'x, y, z'
loop_
 _atom_site_type_symbol
 _atom_site_label
 _atom_site_symmetry_multiplicity
 _atom_site_fract_x
 _atom_site_fract_y
 _atom_site_fract_z
 _atom_site_occupancy
  Zr  Zr0  1  0.88997647  0.69951131  0.90479691  1
  Zr  Zr1  1  0.69080745  0.50061110  0.89444230  1
  Zr  Zr2  1  0.70205613  0.50444508  0.30112274  1
  Zr  Zr3  1  0.30533832  0.29772134  0.90567262  1
  Zr  Zr4  1  0.89540970  0.09570395  0.49299079  1
  Zr  Zr5  1  0.50318550  0.50785309  0.70149949  1
  Zr  Zr6  1  0.69991653  0.50228464  0.10310318  1
  Zr  Zr7  1  0.30891197  0.69613146  0.50296795  1
  Zr  Zr8  1  0.09654498  0.29856303  0.69019054  1
  Zr  Zr9  1  0.09443641  0.90125598  0.29175446  1
  Zr  Zr10  1  0.29807977  0.10429065  0.49622194  1
  Zr  Zr11  1  0.30282104  0.90719816  0.29285463  1
  Zr  Zr12  1  0.69695846  0.09272702  0.49669715  1
  Zr  Zr13  1  0.70822920  0.89863709  0.90101181  1
  Zr  Zr14  1  0.49999020  0.90220957  0.70194628  1
  Zr  Zr15  1  0.10979812  0.48825518  0.70400589  1
  Zr  Zr16  1  0.29719368  0.70374561  0.90475217  1
  Zr  Zr17  1  0.90166147  0.30157495  0.09612376  1
  Zr  Zr18  1  0.89871934  0.90233417  0.69690723  1
  Zr  Zr19  1  0.69849162  0.30370271  0.30433033  1
  Zr  Zr20  1  0.08852950  0.89791890  0.49115568  1
  Zr  Zr21  1  0.30812478  0.30443745  0.29642473  1
  Zr  Zr22  1  0.30066461  0.30317595  0.09890973  1
  Zr  Zr23  1  0.50452003  0.29569684  0.69557659  1
  Zr  Zr24  1  0.49874373  0.90483346  0.90059616  1
  Zr  Zr25  1  0.10476297  0.70058417  0.70605256  1
  Zr  Zr26  1  0.49911642  0.09484432  0.29617039  1
  Zr  Zr27  1  0.09765695  0.10558944  0.69962700  1
  Zr  Zr28  1  0.50023978  0.10415019  0.89620070  1
  Zr  Zr29  1  0.30422236  0.69554013  0.10871967  1
  Zr  Zr30  1  0.09608348  0.09046489  0.09797674  1
  Zr  Zr31  1  0.30528650  0.70341615  0.70049386  1
  Zr  Zr32  1  0.30429141  0.90164891  0.90387616  1
  Zr  Zr33  1  0.50437383  0.10929121  0.50360727  1
  Zr  Zr34  1  0.50702641  0.29888108  0.90691522  1
  Zr  Zr35  1  0.30807194  0.49733908  0.50004941  1
  Zr  Zr36  1  0.88739757  0.89712523  0.89930762  1
  Zr  Zr37  1  0.69497105  0.30112400  0.08932256  1
  Zr  Zr38  1  0.50746508  0.09924189  0.69713345  1
  Zr  Zr39  1  0.70443230  0.49630627  0.49516629  1
  Zr  Zr40  1  0.49897257  0.90708531  0.10641228  1
  Zr  Zr41  1  0.69944718  0.49359331  0.69941329  1
  Zr  Zr42  1  0.30400621  0.30265444  0.49519020  1
  Zr  Zr43  1  0.09720796  0.70554750  0.30267263  1
  Zr  Zr44  1  0.09756871  0.50360711  0.30389039  1
  Zr  Zr45  1  0.09815835  0.70188949  0.50090069  1
  Zr  Zr46  1  0.49942901  0.29874485  0.30434167  1
  Zr  Zr47  1  0.29622870  0.10272795  0.90580830  1
  Zr  Zr48  1  0.29980472  0.49331847  0.89857722  1
  Zr  Zr49  1  0.90325083  0.10571287  0.69310060  1
  Sc  Sc50  1  0.50156519  0.50334517  0.10153143  1
  Sc  Sc51  1  0.09477889  0.09924650  0.29813205  1
  Sc  Sc52  1  0.90163639  0.10382067  0.29772779  1
  Sc  Sc53  1  0.30455836  0.49227400  0.70313785  1
  Sc  Sc54  1  0.69820855  0.11579926  0.69633819  1
  Sc  Sc55  1  0.70850652  0.10038320  0.30642220  1
  Sc  Sc56  1  0.30322277  0.50902970  0.30366461  1
  Sc  Sc57  1  0.69836789  0.68945923  0.49826823  1
  Sc  Sc58  1  0.50288621  0.49709467  0.30117068  1
  Sc  Sc59  1  0.70162701  0.90176087  0.69585594  1
  Sc  Sc60  1  0.89855627  0.49646591  0.92051273  1
  Sc  Sc61  1  0.10365065  0.90452915  0.91154203  1
  Sc  Sc62  1  0.30440076  0.89340620  0.70098602  1
  Sc  Sc63  1  0.09674107  0.89675119  0.69503834  1
  Sc  Sc64  1  0.90616309  0.90212230  0.29840942  1
  Sc  Sc65  1  0.69923743  0.10626443  0.89200365  1
  Sc  Sc66  1  0.10293613  0.69775111  0.90718272  1
  Sc  Sc67  1  0.51346627  0.90850744  0.49943582  1
  Sc  Sc68  1  0.89710284  0.69955838  0.30120767  1
  Sc  Sc69  1  0.10157342  0.70577821  0.10733760  1
  Sc  Sc70  1  0.90481546  0.30227514  0.49965390  1
  Sc  Sc71  1  0.29163445  0.30531913  0.69422959  1
  Sc  Sc72  1  0.89674794  0.09397506  0.88251336  1
  Sc  Sc73  1  0.09492668  0.10735432  0.49440519  1
  Sc  Sc74  1  0.90182532  0.29199296  0.30341680  1
  Sc  Sc75  1  0.29626480  0.90336890  0.09813120  1
  Sc  Sc76  1  0.10867119  0.29454309  0.89851025  1
  Sc  Sc77  1  0.49706049  0.68722288  0.90387889  1
  Sc  Sc78  1  0.70544567  0.69533991  0.10921563  1
  Sc  Sc79  1  0.89837352  0.49318632  0.50004732  1
  Sc  Sc80  1  0.70228832  0.68160185  0.70150056  1
  Sc  Sc81  1  0.88928061  0.48870823  0.69460494  1
  Sc  Sc82  1  0.69423670  0.90069585  0.30476223  1
  Sc  Sc83  1  0.10016716  0.29290652  0.09598946  1
  Sc  Sc84  1  0.29509554  0.10655790  0.29639069  1
  Sc  Sc85  1  0.69804951  0.29265533  0.49169773  1
  Sc  Sc86  1  0.89283047  0.29878484  0.69852948  1
  Sc  Sc87  1  0.49700099  0.30482526  0.10022879  1
  Sc  Sc88  1  0.09699152  0.48844407  0.49643928  1
  Sc  Sc89  1  0.50873972  0.89935185  0.29816349  1
  Sc  Sc90  1  0.29710507  0.09936440  0.10489536  1
  Sc  Sc91  1  0.50263418  0.69619592  0.10759200  1
  Sc  Sc92  1  0.88937399  0.69681406  0.70068289  1
  Sc  Sc93  1  0.69899300  0.30687806  0.89212496  1
  Sc  Sc94  1  0.89505032  0.49953258  0.31215198  1
  Sc  Sc95  1  0.71617171  0.90131827  0.10257548  1
  Sc  Sc96  1  0.69575067  0.69877910  0.30147789  1
  Sc  Sc97  1  0.09353977  0.29486823  0.30454194  1
  Sc  Sc98  1  0.90001658  0.69833135  0.50446077  1
  Sc  Sc99  1  0.30588395  0.10721284  0.69357583  1
  Nb  Nb100  1  0.50183489  0.69986237  0.69218208  1
  Nb  Nb101  1  0.90412219  0.90274955  0.09974863  1
  Nb  Nb102  1  0.30325269  0.70308709  0.30364377  1
  Nb  Nb103  1  0.89836441  0.30280715  0.90300762  1
  Nb  Nb104  1  0.50040352  0.30590025  0.49286837  1
  Nb  Nb105  1  0.89758500  0.69432680  0.10042263  1
  Nb  Nb106  1  0.70148585  0.70721414  0.89648683  1
  Nb  Nb107  1  0.89564573  0.09708632  0.09948901  1
  Nb  Nb108  1  0.29665331  0.90116949  0.49564333  1
  Nb  Nb109  1  0.89963477  0.50065364  0.09823607  1
  Nb  Nb110  1  0.09648391  0.49945576  0.90381476  1
  Nb  Nb111  1  0.51327185  0.10039000  0.09853493  1
  Nb  Nb112  1  0.08642103  0.90307919  0.10483032  1
  Nb  Nb113  1  0.50180916  0.49593121  0.89452313  1
  Nb  Nb114  1  0.49664971  0.50262179  0.50487686  1
  Nb  Nb115  1  0.70262402  0.30873575  0.70068647  1
  Nb  Nb116  1  0.09938036  0.30196403  0.50430936  1
  Nb  Nb117  1  0.29536566  0.49810619  0.10453425  1
  Nb  Nb118  1  0.50007037  0.70572609  0.30929968  1
  Nb  Nb119  1  0.09047237  0.49994134  0.09191006  1
  Nb  Nb120  1  0.70073524  0.89996022  0.49739506  1
  Nb  Nb121  1  0.49977507  0.69149348  0.50601016  1
  Nb  Nb122  1  0.89385668  0.90048856  0.50148256  1
  Nb  Nb123  1  0.10320233  0.10084977  0.89902673  1
  Nb  Nb124  1  0.70749846  0.10057837  0.09636748  1
  Nb  Nb125  1  0.59731249  0.39926470  0.59431780  1
  Nb  Nb126  1  0.59862060  0.79251194  0.60113549  1
  Nb  Nb127  1  -0.00108773  0.40574328  0.19585713  1
  Nb  Nb128  1  0.60061952  0.79281924  0.79946223  1
  Nb  Nb129  1  0.80437918  0.40212192  0.19570458  1
  Nb  Nb130  1  0.19886404  0.59865315  0.60091639  1
  Nb  Nb131  1  0.60524894  0.00068566  0.00222078  1
  Nb  Nb132  1  0.60443820  0.19627274  0.19488429  1
  Nb  Nb133  1  0.19973908  0.59141749  0.00706113  1
  Nb  Nb134  1  -0.00593737  0.19072243  -0.00561700  1
  Nb  Nb135  1  -0.00810831  0.80219891  0.00621900  1
  Nb  Nb136  1  0.00063339  0.59415992  0.80298707  1
  Nb  Nb137  1  -0.00481927  0.79615065  0.80699569  1
  Nb  Nb138  1  0.20927315  0.80089707  0.39645911  1
  Nb  Nb139  1  0.19975954  -0.00113369  0.59686968  1
  Nb  Nb140  1  0.39745418  -0.00226819  0.40217689  1
  Nb  Nb141  1  0.00680195  0.59431073  0.61026218  1
  Nb  Nb142  1  -0.00396960  0.59463648  0.19388651  1
  Nb  Nb143  1  0.19858093  0.00551075  0.79752831  1
  Nb  Nb144  1  0.60493250  0.80293543  -0.00337719  1
  Nb  Nb145  1  0.79899438  0.80641853  0.40821472  1
  Nb  Nb146  1  0.80540421  0.19796842  -0.00285155  1
  Nb  Nb147  1  0.19424388  0.40804280  0.19573635  1
  Nb  Nb148  1  0.40228098  0.80045840  0.40221842  1
  Nb  Nb149  1  0.00002272  0.40205703  0.80815499  1
  Pd  Pd150  1  0.39861721  0.20813173  0.59768706  1
  Pd  Pd151  1  0.20073459  0.59756880  0.80455265  1
  Pd  Pd152  1  0.40528101  0.39132956  0.79740778  1
  Pd  Pd153  1  0.79503295  0.20801146  0.19607290  1
  Pd  Pd154  1  0.00884677  -0.01136283  0.80419956  1
  Pd  Pd155  1  0.40830382  0.19645711  0.19257795  1
  Pd  Pd156  1  0.78863072  0.79266271  0.59792888  1
  Pd  Pd157  1  0.41078374  0.81147129  0.58901605  1
  Pd  Pd158  1  0.40188052  0.19351758  0.00980830  1
  Pd  Pd159  1  0.20194778  0.80557448  0.19955366  1
  Pd  Pd160  1  0.60281113  0.39521458  0.19882020  1
  Pd  Pd161  1  0.39776607  0.20562272  0.79518374  1
  Pd  Pd162  1  0.60516224  0.79840515  0.19291460  1
  Pd  Pd163  1  -0.00794020  0.79127248  0.60833893  1
  Pd  Pd164  1  0.41031321  0.79156935  0.80690176  1
  Pd  Pd165  1  0.78750705  0.59957474  -0.00198199  1
  Pd  Pd166  1  0.20610758  0.20025658  0.79526917  1
  Pd  Pd167  1  0.39870831  0.60342456  0.79984295  1
  Pd  Pd168  1  0.39436373  0.59216128  0.00165536  1
  Pd  Pd169  1  0.40775943  0.40894360  0.00419271  1
  Pd  Pd170  1  0.61549734  0.00378808  0.19689158  1
  Pd  Pd171  1  0.80877116  0.58676334  0.80598073  1
  Pd  Pd172  1  0.19972862  0.39618750  0.39275156  1
  Pd  Pd173  1  0.39584790  -0.00430607  0.59455150  1
  Pd  Pd174  1  0.40999027  0.79571094  0.00670405  1
  Pd  Pd175  1  0.80369910  0.80225654  0.20959811  1
  Pd  Pd176  1  0.19207483  0.59666258  0.19777513  1
  Pd  Pd177  1  0.19264528  0.81292805  0.80629713  1
  Pd  Pd178  1  0.19433053  0.79931371  0.01015354  1
  Pd  Pd179  1  -0.01010861  0.00102331  -0.01064756  1
  Pd  Pd180  1  0.19317572  0.20618366  0.20131145  1
  Pd  Pd181  1  -0.00416297  0.20969865  0.80511044  1
  Pd  Pd182  1  0.79378285  0.00557179  0.60433340  1
  Pd  Pd183  1  0.79027806  0.00799159  0.78691299  1
  Pd  Pd184  1  0.20130685  0.60480930  0.40813348  1
  Pd  Pd185  1  0.80178606  -0.00234929  0.20854426  1
  Pd  Pd186  1  0.60424178  0.60561808  0.00084695  1
  Pd  Pd187  1  0.40714862  0.59603879  0.20818407  1
  Pd  Pd188  1  0.00585004  0.00456718  0.59384822  1
  Pd  Pd189  1  0.59570032  0.59718494  0.39920942  1
  Pd  Pd190  1  0.40389621  0.80123162  0.20364986  1
  Pd  Pd191  1  0.19482356  0.39968984  0.00127231  1
  Pd  Pd192  1  0.19880812  -0.00132434  0.39972217  1
  Pd  Pd193  1  0.79697574  0.20531649  0.59203994  1
  Pd  Pd194  1  0.60892074  -0.00258654  0.80166731  1
  Pd  Pd195  1  0.38973453  0.00661114  0.79482805  1
  Pd  Pd196  1  0.20031685  0.80224742  0.59356374  1
  Pd  Pd197  1  -0.00716034  0.59993266  0.40519607  1
  Pd  Pd198  1  0.19650741  0.20705332  0.39652674  1
  Pd  Pd199  1  0.40351354  0.00884502  0.00808424  1
  Rh  Rh200  1  0.40786640  0.39764479  0.60103188  1
  Rh  Rh201  1  -0.00162357  0.40185112  0.60780127  1
  Rh  Rh202  1  0.80420063  0.61109492  0.40265513  1
  Rh  Rh203  1  0.79019666  0.40040702  0.00014533  1
  Rh  Rh204  1  0.79667486  0.79955089  0.78533932  1
  Rh  Rh205  1  -0.00547391  0.00075068  0.39775109  1
  Rh  Rh206  1  -0.00896946  0.80138660  0.39875253  1
  Rh  Rh207  1  -0.01023287  0.79092277  0.19320981  1
  Rh  Rh208  1  0.00573025  0.61289201  0.00346335  1
  Rh  Rh209  1  0.19469119  -0.00083353  0.19666535  1
  Rh  Rh210  1  -0.00070065  0.39399042  0.39505035  1
  Rh  Rh211  1  0.59517259  0.40937340  -0.00142244  1
  Rh  Rh212  1  0.40835956  0.60287698  0.39554747  1
  Rh  Rh213  1  -0.00151301  0.20008014  0.40416842  1
  Rh  Rh214  1  0.80682728  0.59249240  0.20631268  1
  Rh  Rh215  1  -0.00336315  0.20185139  0.59330430  1
  Rh  Rh216  1  0.80430809  0.39166202  0.39472658  1
  Rh  Rh217  1  0.80060299  0.01026382  -0.00439034  1
  Rh  Rh218  1  0.59349873  0.39611019  0.79369021  1
  Rh  Rh219  1  0.19480578  0.19364696  0.00431370  1
  Rh  Rh220  1  0.20069682  -0.00079012  -0.00001557  1
  Rh  Rh221  1  0.79885064  0.79351277  0.01449429  1
  Rh  Rh222  1  0.80770724  0.40208904  0.80936060  1
  Rh  Rh223  1  0.60664627  0.21063331  0.59651546  1
  Rh  Rh224  1  0.19822115  0.19756319  0.59345122  1
  Rh  Rh225  1  0.59759638  0.19456965  0.39102249  1
  Rh  Rh226  1  0.59447487  0.60493780  0.20840405  1
  Rh  Rh227  1  0.60459267  0.59516297  0.59727065  1
  Rh  Rh228  1  0.60609614  -0.00174991  0.60379096  1
  Rh  Rh229  1  0.60182213  0.20730830  0.79906070  1
  Rh  Rh230  1  -0.00542655  0.00807448  0.20323323  1
  Rh  Rh231  1  0.39843591  0.00572897  0.19964632  1
  Rh  Rh232  1  0.40354740  0.19329400  0.39980846  1
  Rh  Rh233  1  0.39206626  0.59386347  0.60984036  1
  Rh  Rh234  1  0.19806757  0.39175474  0.80759510  1
  Rh  Rh235  1  0.80342093  0.19947682  0.40376689  1
  Rh  Rh236  1  0.79964417  0.20722678  0.80064451  1
  Rh  Rh237  1  0.20394420  0.40290556  0.58972058  1
  Rh  Rh238  1  0.60900913  0.19205894  -0.00057661  1
  Rh  Rh239  1  0.59590605  0.00402601  0.39829877  1
  Rh  Rh240  1  0.00059704  0.19955612  0.19079006  1
  Rh  Rh241  1  0.40416921  0.40614870  0.39599003  1
  Rh  Rh242  1  0.59530808  0.40757414  0.40719253  1
  Rh  Rh243  1  0.80332886  -0.00890940  0.39508921  1
  Rh  Rh244  1  0.80685911  0.59229942  0.59566663  1
  Rh  Rh245  1  0.60114092  0.79570873  0.41180446  1
  Rh  Rh246  1  0.39472129  0.40742091  0.20155808  1
  Rh  Rh247  1  0.00781622  0.38632737  -0.00310058  1
  Rh  Rh248  1  0.79020216  0.39180950  0.59026619  1
  Rh  Rh249  1  0.59592922  0.60620336  0.80228461  1
