# generated using pymatgen
data_ZrScNbPdRh
_symmetry_space_group_name_H-M   'P 1'
_cell_length_a   16.56303185
_cell_length_b   16.56136028
_cell_length_c   16.56302499
_cell_angle_alpha   90.01761519
_cell_angle_beta   89.96023970
_cell_angle_gamma   89.99102841
_symmetry_Int_Tables_number   1
_chemical_formula_structural   ZrScNbPdRh
_chemical_formula_sum   'Zr50 Sc50 Nb50 Pd50 Rh50'
_cell_volume   4543.34136198
_cell_formula_units_Z   50
loop_
 _symmetry_equiv_pos_site_id
 _symmetry_equiv_pos_as_xyz
  1  'x, y, z'
loop_
 _atom_site_type_symbol
 _atom_site_label
 _atom_site_symmetry_multiplicity
 _atom_site_fract_x
 _atom_site_fract_y
 _atom_site_fract_z
 _atom_site_occupancy
  Zr  Zr0  1  0.49220207  0.91515393  0.09504755  1
  Zr  Zr1  1  0.31131465  0.49563587  0.50066195  1
  Zr  Zr2  1  0.09662622  0.09684923  0.49418521  1
  Zr  Zr3  1  0.30265209  0.90129318  0.89686189  1
  Zr  Zr4  1  0.89969495  0.10018952  0.50015779  1
  Zr  Zr5  1  0.10041685  0.10001552  0.09562718  1
  Zr  Zr6  1  0.49115254  0.49826769  0.69691656  1
  Zr  Zr7  1  0.10628691  0.70333669  0.49992973  1
  Zr  Zr8  1  0.90204064  0.31003230  0.09405322  1
  Zr  Zr9  1  0.50244975  0.10072851  0.09890626  1
  Zr  Zr10  1  0.30568141  0.69918904  0.49941004  1
  Zr  Zr11  1  0.89618598  0.49756357  0.49764509  1
  Zr  Zr12  1  0.30298062  0.30086678  0.30730851  1
  Zr  Zr13  1  0.30280998  0.09545382  0.70069351  1
  Zr  Zr14  1  0.69641631  0.70118472  0.09866622  1
  Zr  Zr15  1  0.50262193  0.70331053  0.30473104  1
  Zr  Zr16  1  0.09794935  0.90681177  0.89927119  1
  Zr  Zr17  1  0.91112171  0.50057941  0.68601864  1
  Zr  Zr18  1  0.49273688  0.49517639  0.09974414  1
  Zr  Zr19  1  0.70110881  0.69147256  0.90044552  1
  Zr  Zr20  1  0.09769871  0.90246381  0.10040982  1
  Zr  Zr21  1  0.29911926  0.30595753  0.09776956  1
  Zr  Zr22  1  0.70213635  0.49695791  0.89763431  1
  Zr  Zr23  1  0.49447112  0.30059279  0.50194501  1
  Zr  Zr24  1  0.10239193  0.90240435  0.29898146  1
  Zr  Zr25  1  0.50567194  0.69281069  0.10699749  1
  Zr  Zr26  1  0.91319803  0.90366083  0.70255463  1
  Zr  Zr27  1  0.69773752  0.89948942  0.69725577  1
  Zr  Zr28  1  0.50300613  0.70361092  0.88205415  1
  Zr  Zr29  1  0.89127991  0.29889561  0.49727659  1
  Zr  Zr30  1  0.30241295  0.49918453  0.90425602  1
  Zr  Zr31  1  0.70449922  0.10904752  0.90650040  1
  Zr  Zr32  1  0.49472849  0.30266448  0.09633849  1
  Zr  Zr33  1  0.50425614  0.10074967  0.50998545  1
  Zr  Zr34  1  0.90101378  0.31088981  0.29382008  1
  Zr  Zr35  1  0.30107434  0.09981174  0.09272995  1
  Zr  Zr36  1  0.10345413  0.29928201  0.69709236  1
  Zr  Zr37  1  0.30387900  0.69624745  0.30675180  1
  Zr  Zr38  1  0.88953943  0.09932809  0.09164705  1
  Zr  Zr39  1  0.09129671  0.69818154  0.69764059  1
  Zr  Zr40  1  0.10823141  0.49885733  0.09515798  1
  Zr  Zr41  1  0.10312165  0.30163747  0.09477010  1
  Zr  Zr42  1  0.49063325  0.70286816  0.49746016  1
  Zr  Zr43  1  0.51120331  0.09010856  0.90431420  1
  Zr  Zr44  1  0.09636317  0.90086381  0.50711617  1
  Zr  Zr45  1  0.49565512  0.09296313  0.30989804  1
  Zr  Zr46  1  0.30375690  0.29641277  0.49726432  1
  Zr  Zr47  1  0.29042725  0.90177199  0.09633462  1
  Zr  Zr48  1  0.49487001  0.89804653  0.71557863  1
  Zr  Zr49  1  0.89533363  0.90154106  0.50572245  1
  Sc  Sc50  1  0.89652935  0.49887246  0.91287659  1
  Sc  Sc51  1  0.68959701  0.10295813  0.69525547  1
  Sc  Sc52  1  0.69391313  0.90293894  0.30672865  1
  Sc  Sc53  1  0.69740673  0.90249533  0.49905895  1
  Sc  Sc54  1  0.30835292  0.09999736  0.50138218  1
  Sc  Sc55  1  0.09353358  0.49481602  0.50409888  1
  Sc  Sc56  1  0.50118993  0.90188322  0.49458037  1
  Sc  Sc57  1  0.89080381  0.69526168  0.09801521  1
  Sc  Sc58  1  0.71129629  0.70600484  0.50625085  1
  Sc  Sc59  1  0.70524774  0.49730160  0.69696054  1
  Sc  Sc60  1  0.49769828  0.49057588  0.50061426  1
  Sc  Sc61  1  0.10859475  0.29910491  0.30065706  1
  Sc  Sc62  1  0.29952796  0.29752341  0.90420562  1
  Sc  Sc63  1  0.29467957  0.10084142  0.31314506  1
  Sc  Sc64  1  0.28714595  0.10008964  0.89644447  1
  Sc  Sc65  1  0.50054744  0.89978250  0.30857306  1
  Sc  Sc66  1  0.09984568  0.09832082  0.30307510  1
  Sc  Sc67  1  0.10762164  0.30237725  0.49613169  1
  Sc  Sc68  1  0.29973743  0.29291530  0.69496578  1
  Sc  Sc69  1  0.49405869  0.49839792  0.88793102  1
  Sc  Sc70  1  0.70880335  0.29680678  0.09327113  1
  Sc  Sc71  1  0.68494733  0.91177704  0.89545706  1
  Sc  Sc72  1  0.29390359  0.68372132  0.09979249  1
  Sc  Sc73  1  0.10658811  0.09328657  0.70571613  1
  Sc  Sc74  1  0.89836475  0.09969062  0.69692273  1
  Sc  Sc75  1  0.10656978  0.69868224  0.10009851  1
  Sc  Sc76  1  0.51108036  0.30342417  0.69762941  1
  Sc  Sc77  1  0.30256654  0.69475660  0.89941253  1
  Sc  Sc78  1  0.09469459  0.69679015  0.90732160  1
  Sc  Sc79  1  0.70575846  0.69499322  0.70329407  1
  Sc  Sc80  1  0.89566798  0.69677725  0.69230250  1
  Sc  Sc81  1  0.91064371  0.90855833  0.90795082  1
  Sc  Sc82  1  0.69586607  0.70871900  0.28967454  1
  Sc  Sc83  1  0.69789391  0.50860132  0.09915075  1
  Sc  Sc84  1  0.89352473  0.89879337  0.30610209  1
  Sc  Sc85  1  0.90075064  0.90897019  0.10064552  1
  Sc  Sc86  1  0.31434120  0.70695818  0.69182328  1
  Sc  Sc87  1  0.30102134  0.50053120  0.29826633  1
  Sc  Sc88  1  0.89236024  0.10986521  0.30796797  1
  Sc  Sc89  1  0.10078447  0.49345334  0.30426086  1
  Sc  Sc90  1  0.50210382  0.49391943  0.29174064  1
  Sc  Sc91  1  0.70294462  0.91139624  0.10742611  1
  Sc  Sc92  1  0.29804656  0.90584535  0.30570654  1
  Sc  Sc93  1  0.70768391  0.30820252  0.30371056  1
  Sc  Sc94  1  0.90301956  0.70121731  0.49896128  1
  Sc  Sc95  1  0.70032482  0.10069030  0.50329896  1
  Sc  Sc96  1  0.69993841  0.30055997  0.70603416  1
  Sc  Sc97  1  0.29929725  0.89557330  0.50792587  1
  Sc  Sc98  1  0.90151997  0.69406594  0.90231461  1
  Sc  Sc99  1  0.10928671  0.69359217  0.30565331  1
  Nb  Nb100  1  0.90403082  0.49539852  0.10930627  1
  Nb  Nb101  1  0.30076682  0.50071330  0.70350121  1
  Nb  Nb102  1  0.10122734  0.49889067  0.89519225  1
  Nb  Nb103  1  0.88933771  0.29855032  0.89771846  1
  Nb  Nb104  1  0.89710479  0.49733866  0.29556307  1
  Nb  Nb105  1  0.49948513  0.29766906  0.29547708  1
  Nb  Nb106  1  0.70115933  0.10037848  0.10390468  1
  Nb  Nb107  1  0.30288565  0.49533491  0.09369881  1
  Nb  Nb108  1  0.69577981  0.10710655  0.29956445  1
  Nb  Nb109  1  0.50028594  0.89699083  0.90126497  1
  Nb  Nb110  1  0.90124967  0.09947949  0.89849835  1
  Nb  Nb111  1  0.09563839  0.10646813  0.89823869  1
  Nb  Nb112  1  0.70126633  0.50014454  0.30444014  1
  Nb  Nb113  1  0.90081321  0.69680826  0.29753938  1
  Nb  Nb114  1  0.09904338  0.49827677  0.69858748  1
  Nb  Nb115  1  0.50154395  0.70010658  0.69609003  1
  Nb  Nb116  1  0.69912063  0.49628738  0.49669189  1
  Nb  Nb117  1  0.50218821  0.10330810  0.69823337  1
  Nb  Nb118  1  0.69265586  0.30663007  0.50198780  1
  Nb  Nb119  1  0.70256194  0.30498932  0.89540177  1
  Nb  Nb120  1  0.50938040  0.29583499  0.89523297  1
  Nb  Nb121  1  0.10489129  0.89755592  0.69941024  1
  Nb  Nb122  1  0.09951361  0.29787909  0.89891644  1
  Nb  Nb123  1  0.29249089  0.90025119  0.70342820  1
  Nb  Nb124  1  0.90451788  0.30047663  0.70090987  1
  Nb  Nb125  1  0.20278171  0.59599599  0.60666905  1
  Nb  Nb126  1  0.41106572  0.19598879  0.80073908  1
  Nb  Nb127  1  0.59947905  0.20500420  0.39674195  1
  Nb  Nb128  1  0.59966604  0.39536045  -0.00901873  1
  Nb  Nb129  1  0.39675547  0.80041973  0.19421493  1
  Nb  Nb130  1  0.80233857  0.00137326  0.80309390  1
  Nb  Nb131  1  0.59330469  0.79420873  0.60516034  1
  Nb  Nb132  1  -0.00070365  0.20347716  0.60306543  1
  Nb  Nb133  1  0.59829114  0.60114852  0.59479790  1
  Nb  Nb134  1  -0.00394464  0.20410212  0.80386543  1
  Nb  Nb135  1  0.79846408  0.59541900  0.39144265  1
  Nb  Nb136  1  0.00106853  0.39628425  0.80300604  1
  Nb  Nb137  1  0.19554425  0.40493699  0.79891432  1
  Nb  Nb138  1  0.60783760  0.59660540  0.40383664  1
  Nb  Nb139  1  0.40279207  0.19974463  0.20281018  1
  Nb  Nb140  1  -0.00540624  0.59598236  0.20371831  1
  Nb  Nb141  1  0.59589263  0.80323129  -0.00116480  1
  Nb  Nb142  1  0.60052540  0.19888606  0.20313203  1
  Nb  Nb143  1  0.80200050  0.80863200  0.80607472  1
  Nb  Nb144  1  0.79098954  0.80493887  -0.00661894  1
  Nb  Nb145  1  -0.00215225  0.20301404  0.19383318  1
  Nb  Nb146  1  0.40571151  0.79936218  0.00293661  1
  Nb  Nb147  1  0.19623350  0.79899601  0.79317115  1
  Nb  Nb148  1  0.19781851  0.59756372  0.79279188  1
  Nb  Nb149  1  -0.00201521  0.79176206  0.20500474  1
  Pd  Pd150  1  0.59094607  0.81656712  0.19239190  1
  Pd  Pd151  1  0.40037630  0.00846590  0.80562561  1
  Pd  Pd152  1  -0.00573459  -0.00409315  0.39375979  1
  Pd  Pd153  1  -0.00345983  0.59744840  0.39756639  1
  Pd  Pd154  1  0.80605220  0.80690065  0.19272402  1
  Pd  Pd155  1  0.20352031  0.40443809  0.20345317  1
  Pd  Pd156  1  0.60108833  0.59159737  0.78711974  1
  Pd  Pd157  1  0.00030978  0.80209493  0.39461641  1
  Pd  Pd158  1  0.00301812  0.20885248  0.39629639  1
  Pd  Pd159  1  0.80028690  0.19352965  0.79412425  1
  Pd  Pd160  1  0.00221513  0.39508717  0.40023214  1
  Pd  Pd161  1  0.40855286  0.60610601  -0.00449096  1
  Pd  Pd162  1  0.00102295  0.40275750  -0.00733207  1
  Pd  Pd163  1  0.20084793  0.00464227  0.59581164  1
  Pd  Pd164  1  0.60551607  0.20613100  0.00571130  1
  Pd  Pd165  1  0.40433877  -0.00814573  0.60053586  1
  Pd  Pd166  1  -0.00453094  0.59388579  0.80246962  1
  Pd  Pd167  1  0.59367771  0.39865777  0.39764592  1
  Pd  Pd168  1  0.58943719  0.59376892  -0.00647896  1
  Pd  Pd169  1  0.20450451  0.80739304  0.40154724  1
  Pd  Pd170  1  0.80250092  0.00213406  0.21217796  1
  Pd  Pd171  1  0.60020069  0.00108251  0.20480929  1
  Pd  Pd172  1  0.20610256  0.40537036  0.59921153  1
  Pd  Pd173  1  -0.00997447  0.79630963  0.01168576  1
  Pd  Pd174  1  0.60910239  0.39425411  0.18998294  1
  Pd  Pd175  1  0.20036668  0.58790159  0.41081199  1
  Pd  Pd176  1  -0.00055194  0.59865274  0.01064546  1
  Pd  Pd177  1  -0.00464608  0.79721327  0.59838474  1
  Pd  Pd178  1  -0.00207941  0.79542313  0.80472427  1
  Pd  Pd179  1  0.39768178  0.60076258  0.20398710  1
  Pd  Pd180  1  0.20474548  0.00945331  0.20370008  1
  Pd  Pd181  1  0.39859090  0.19621791  -0.00792300  1
  Pd  Pd182  1  0.20077710  0.79298551  0.20372337  1
  Pd  Pd183  1  0.79329098  0.00450434  0.39927861  1
  Pd  Pd184  1  0.79849394  0.59853401  0.20165226  1
  Pd  Pd185  1  0.81241602  0.59629801  0.79789397  1
  Pd  Pd186  1  0.79528400  0.79318509  0.39683761  1
  Pd  Pd187  1  0.20581456  0.79356379  -0.00964404  1
  Pd  Pd188  1  0.79844196  0.00085674  0.60653412  1
  Pd  Pd189  1  0.79820122  0.20324359  0.60297462  1
  Pd  Pd190  1  0.79533180  0.39535421  0.60404650  1
  Pd  Pd191  1  0.19602072  0.18934724  0.59401754  1
  Pd  Pd192  1  0.80170611  0.20376566  0.20038771  1
  Pd  Pd193  1  -0.00632582  0.20005648  -0.00101350  1
  Pd  Pd194  1  0.39321976  0.38441693  0.79806171  1
  Pd  Pd195  1  0.20180760  0.19523459  0.20288209  1
  Pd  Pd196  1  0.39018295  0.00168226  0.20742181  1
  Pd  Pd197  1  0.81020764  0.40781778  0.79435231  1
  Pd  Pd198  1  0.78809529  0.40412951  0.19206270  1
  Pd  Pd199  1  -0.00934134  0.00677426  0.20730348  1
  Rh  Rh200  1  0.60696868  0.79071719  0.41214519  1
  Rh  Rh201  1  -0.00015349  0.01012385  0.79742975  1
  Rh  Rh202  1  0.19909211  0.19762754  0.40616748  1
  Rh  Rh203  1  0.39649080  -0.00275777  0.40980221  1
  Rh  Rh204  1  0.40665843  0.19922413  0.39723444  1
  Rh  Rh205  1  0.01005397  0.39997633  0.20030853  1
  Rh  Rh206  1  0.61109890  0.79652308  0.79830488  1
  Rh  Rh207  1  0.60207027  0.20857055  0.59426881  1
  Rh  Rh208  1  0.80030211  0.40222243  0.40157431  1
  Rh  Rh209  1  0.59896316  0.19685370  0.79974930  1
  Rh  Rh210  1  0.80180504  0.20292010  -0.00095885  1
  Rh  Rh211  1  0.00425727  0.00727688  0.00127970  1
  Rh  Rh212  1  0.60397965  0.00921676  0.79454911  1
  Rh  Rh213  1  0.78722521  0.20494048  0.40559921  1
  Rh  Rh214  1  0.40455746  0.20208227  0.61101402  1
  Rh  Rh215  1  -0.00028826  0.38881088  0.59814339  1
  Rh  Rh216  1  0.00550635  0.60448296  0.58876852  1
  Rh  Rh217  1  0.39302200  0.00081838  -0.00927978  1
  Rh  Rh218  1  0.19528829  -0.00542762  0.80243153  1
  Rh  Rh219  1  0.59163518  -0.01232182  0.60518338  1
  Rh  Rh220  1  0.40452415  0.40262671  0.39248676  1
  Rh  Rh221  1  0.40701815  0.81197206  0.60304236  1
  Rh  Rh222  1  0.39304994  0.80706430  0.39233907  1
  Rh  Rh223  1  0.60933455  -0.00320985  0.00640818  1
  Rh  Rh224  1  0.60299090  0.59450269  0.21087957  1
  Rh  Rh225  1  0.60334976  0.40581948  0.60384433  1
  Rh  Rh226  1  0.20424615  0.40258077  0.40454925  1
  Rh  Rh227  1  0.40106588  0.59686304  0.60010862  1
  Rh  Rh228  1  0.20023409  0.20043410  -0.00241419  1
  Rh  Rh229  1  0.39324387  0.60647519  0.79452916  1
  Rh  Rh230  1  0.19936131  0.59665276  -0.00705490  1
  Rh  Rh231  1  0.39183529  0.39526141  0.20219964  1
  Rh  Rh232  1  0.60208878  0.40377070  0.80132548  1
  Rh  Rh233  1  0.79431148  -0.00325115  -0.00838732  1
  Rh  Rh234  1  0.79265840  0.40484053  0.00336108  1
  Rh  Rh235  1  0.20172760  0.20672775  0.80403937  1
  Rh  Rh236  1  0.40812098  0.39987491  -0.00980282  1
  Rh  Rh237  1  0.80204402  0.59776905  0.00483606  1
  Rh  Rh238  1  0.19357207  0.00355061  -0.00603730  1
  Rh  Rh239  1  0.19929553  -0.00332014  0.40943345  1
  Rh  Rh240  1  0.39640492  0.39143595  0.60769199  1
  Rh  Rh241  1  0.20025871  0.39964102  -0.00760016  1
  Rh  Rh242  1  0.19648949  0.59228514  0.20022757  1
  Rh  Rh243  1  0.38974767  0.79643768  0.80378424  1
  Rh  Rh244  1  0.20135896  0.79149478  0.60644871  1
  Rh  Rh245  1  0.00540082  0.00854963  0.60435587  1
  Rh  Rh246  1  0.60471976  0.00938412  0.40448131  1
  Rh  Rh247  1  0.80016926  0.80496836  0.60820563  1
  Rh  Rh248  1  0.41232382  0.59043640  0.39401098  1
  Rh  Rh249  1  0.79505810  0.59547602  0.58935440  1
