# generated using pymatgen
data_ZrScNbPdRh
_symmetry_space_group_name_H-M   'P 1'
_cell_length_a   16.56051716
_cell_length_b   16.56184037
_cell_length_c   16.55865186
_cell_angle_alpha   90.01083707
_cell_angle_beta   90.00922966
_cell_angle_gamma   90.07250638
_symmetry_Int_Tables_number   1
_chemical_formula_structural   ZrScNbPdRh
_chemical_formula_sum   'Zr50 Sc50 Nb50 Pd50 Rh50'
_cell_volume   4541.58141258
_cell_formula_units_Z   50
loop_
 _symmetry_equiv_pos_site_id
 _symmetry_equiv_pos_as_xyz
  1  'x, y, z'
loop_
 _atom_site_type_symbol
 _atom_site_label
 _atom_site_symmetry_multiplicity
 _atom_site_fract_x
 _atom_site_fract_y
 _atom_site_fract_z
 _atom_site_occupancy
  Zr  Zr0  1  0.50167071  0.69983896  0.09189334  1
  Zr  Zr1  1  0.89918923  0.49809474  0.10482027  1
  Zr  Zr2  1  0.49704138  0.10447213  0.10020019  1
  Zr  Zr3  1  0.09870922  0.29734596  0.49656619  1
  Zr  Zr4  1  0.90183873  0.49867082  0.29447261  1
  Zr  Zr5  1  0.89893755  0.10175361  0.30102448  1
  Zr  Zr6  1  0.30044221  0.51048410  0.30032245  1
  Zr  Zr7  1  0.30536809  0.09451646  0.30213143  1
  Zr  Zr8  1  0.70164361  0.89826903  0.90194111  1
  Zr  Zr9  1  0.30797138  0.89753711  0.69763860  1
  Zr  Zr10  1  0.89724367  0.50163467  0.89617955  1
  Zr  Zr11  1  0.70386663  0.09577761  0.49654310  1
  Zr  Zr12  1  0.30170071  0.30091740  0.10307945  1
  Zr  Zr13  1  0.90154235  0.29558907  0.89703307  1
  Zr  Zr14  1  0.10505911  0.49569083  0.09544693  1
  Zr  Zr15  1  0.30094835  0.69451113  0.70403372  1
  Zr  Zr16  1  0.69673674  0.69310849  0.10022287  1
  Zr  Zr17  1  0.10443600  0.08879259  0.10217341  1
  Zr  Zr18  1  0.89697825  0.90002211  0.69542911  1
  Zr  Zr19  1  0.89835152  0.69842731  0.29347463  1
  Zr  Zr20  1  0.09946780  0.51504945  0.70373761  1
  Zr  Zr21  1  0.49824089  0.49701114  0.30386659  1
  Zr  Zr22  1  0.89801662  0.69776097  0.51679158  1
  Zr  Zr23  1  0.30622757  0.30235594  0.70502364  1
  Zr  Zr24  1  0.69365582  0.69389825  0.50511725  1
  Zr  Zr25  1  0.69240358  0.29513550  0.69900904  1
  Zr  Zr26  1  0.49871519  0.69617546  0.89641789  1
  Zr  Zr27  1  0.69351368  0.09216068  0.88582523  1
  Zr  Zr28  1  0.70530603  0.88904879  0.09773761  1
  Zr  Zr29  1  0.89202988  0.09929018  0.89640343  1
  Zr  Zr30  1  0.69563667  0.30412035  0.09976834  1
  Zr  Zr31  1  0.50769126  0.09440515  0.29049603  1
  Zr  Zr32  1  0.69714266  0.50250266  0.90597637  1
  Zr  Zr33  1  0.49590602  0.70284536  0.70344398  1
  Zr  Zr34  1  0.50669454  0.09689709  0.70577495  1
  Zr  Zr35  1  0.09850924  0.30362374  0.90575440  1
  Zr  Zr36  1  0.69865859  0.50082066  0.28321275  1
  Zr  Zr37  1  0.10210430  0.30450233  0.10121678  1
  Zr  Zr38  1  0.90140824  0.69705154  0.90001375  1
  Zr  Zr39  1  0.90188237  0.29727553  0.49932261  1
  Zr  Zr40  1  0.49306290  0.90067625  0.30521000  1
  Zr  Zr41  1  0.09927467  0.70127547  0.50252996  1
  Zr  Zr42  1  0.50323096  0.90522093  0.10378740  1
  Zr  Zr43  1  0.11030830  0.10568141  0.49931330  1
  Zr  Zr44  1  0.29501791  0.09814877  0.89057320  1
  Zr  Zr45  1  0.89206854  0.29446247  0.69831970  1
  Zr  Zr46  1  0.49857476  0.30219350  0.90857048  1
  Zr  Zr47  1  0.30531639  0.09090661  0.69123455  1
  Zr  Zr48  1  0.28788768  0.90263964  0.09320470  1
  Zr  Zr49  1  0.50099522  0.70185181  0.50732583  1
  Sc  Sc50  1  0.10890240  0.69886663  0.89953061  1
  Sc  Sc51  1  0.29670218  0.50385727  0.09798548  1
  Sc  Sc52  1  0.69081664  0.30234941  0.50793486  1
  Sc  Sc53  1  0.89767358  0.90006218  0.91973716  1
  Sc  Sc54  1  0.69173147  0.49630812  0.51698417  1
  Sc  Sc55  1  0.88248512  0.10217244  0.70091106  1
  Sc  Sc56  1  0.11619399  0.10232957  0.70079367  1
  Sc  Sc57  1  0.10746359  0.70169972  0.30010374  1
  Sc  Sc58  1  0.10349877  0.30104426  0.30385930  1
  Sc  Sc59  1  0.69225935  0.49683095  0.70586952  1
  Sc  Sc60  1  0.11553857  0.89553809  0.69384567  1
  Sc  Sc61  1  0.10182004  0.49987656  0.29143077  1
  Sc  Sc62  1  0.49527788  0.50018544  0.90117049  1
  Sc  Sc63  1  0.29866153  0.30626984  0.49686683  1
  Sc  Sc64  1  0.90277298  0.30269691  0.29350538  1
  Sc  Sc65  1  0.49056050  0.70407283  0.29766934  1
  Sc  Sc66  1  0.69498468  0.68666605  0.70075563  1
  Sc  Sc67  1  0.90243913  0.30187164  0.09982803  1
  Sc  Sc68  1  0.69948114  0.89619495  0.50036662  1
  Sc  Sc69  1  0.89481202  0.51700972  0.69979505  1
  Sc  Sc70  1  0.10894807  0.89460351  0.50147991  1
  Sc  Sc71  1  0.89840795  0.10443681  0.50414687  1
  Sc  Sc72  1  0.30304222  0.10192458  0.11091705  1
  Sc  Sc73  1  0.90526757  0.89374415  0.29565163  1
  Sc  Sc74  1  0.30510553  0.30750326  0.90406106  1
  Sc  Sc75  1  0.69825550  0.31113852  0.89891902  1
  Sc  Sc76  1  0.10316780  0.29121815  0.70261119  1
  Sc  Sc77  1  0.69422117  0.30185552  0.29016653  1
  Sc  Sc78  1  0.70271525  0.91046993  0.70619754  1
  Sc  Sc79  1  0.50509164  0.89240910  0.89192057  1
  Sc  Sc80  1  0.50623317  0.09635282  0.49190536  1
  Sc  Sc81  1  0.89696967  0.71360034  0.10036329  1
  Sc  Sc82  1  0.30133261  0.69782502  0.09729941  1
  Sc  Sc83  1  0.30715923  0.90375549  0.50399817  1
  Sc  Sc84  1  0.09971563  0.10381053  0.89467038  1
  Sc  Sc85  1  0.11164595  0.10533922  0.30546576  1
  Sc  Sc86  1  0.89414868  0.89876791  0.50300373  1
  Sc  Sc87  1  0.10423633  0.50261021  0.49311733  1
  Sc  Sc88  1  0.69591764  0.69754705  0.28749662  1
  Sc  Sc89  1  0.69756624  0.89998956  0.29990848  1
  Sc  Sc90  1  0.30397656  0.70118206  0.90368993  1
  Sc  Sc91  1  0.50006226  0.50202681  0.09976457  1
  Sc  Sc92  1  0.69315592  0.69667135  0.90330325  1
  Sc  Sc93  1  0.30058085  0.69880467  0.49538173  1
  Sc  Sc94  1  0.29513515  0.29894501  0.29237991  1
  Sc  Sc95  1  0.68684873  0.10466679  0.10962637  1
  Sc  Sc96  1  0.10480343  0.89595778  0.29573000  1
  Sc  Sc97  1  0.10837168  0.70102431  0.09719153  1
  Sc  Sc98  1  0.49013980  0.50072202  0.69931030  1
  Sc  Sc99  1  0.10139901  0.70016926  0.69741327  1
  Nb  Nb100  1  0.90340855  0.69943346  0.70568644  1
  Nb  Nb101  1  0.69642589  0.50023445  0.09814506  1
  Nb  Nb102  1  0.49252222  0.89766117  0.68892779  1
  Nb  Nb103  1  0.31167608  0.50200403  0.50855307  1
  Nb  Nb104  1  0.49760268  0.29944815  0.69808448  1
  Nb  Nb105  1  0.30298707  0.10449035  0.49814520  1
  Nb  Nb106  1  0.89815818  0.09833922  0.10164024  1
  Nb  Nb107  1  0.10344642  0.89924814  0.91161135  1
  Nb  Nb108  1  0.89878939  0.50034956  0.50147778  1
  Nb  Nb109  1  0.29689167  0.50423784  0.89696711  1
  Nb  Nb110  1  0.49926774  0.09704213  0.90275172  1
  Nb  Nb111  1  0.70321640  0.10289898  0.29823322  1
  Nb  Nb112  1  0.09076504  0.90073181  0.08473279  1
  Nb  Nb113  1  0.29879381  0.70964731  0.29628887  1
  Nb  Nb114  1  0.29449019  0.90028615  0.89950565  1
  Nb  Nb115  1  0.49866737  0.30970231  0.49885832  1
  Nb  Nb116  1  0.69846574  0.09898811  0.69854178  1
  Nb  Nb117  1  0.90571897  0.90674736  0.10118295  1
  Nb  Nb118  1  0.49188770  0.49652901  0.49974882  1
  Nb  Nb119  1  0.49569662  0.29140973  0.10295915  1
  Nb  Nb120  1  0.49765515  0.30108477  0.30511188  1
  Nb  Nb121  1  0.30219502  0.49961615  0.70227941  1
  Nb  Nb122  1  0.30806653  0.89202040  0.29962086  1
  Nb  Nb123  1  0.10147019  0.49993922  0.90345511  1
  Nb  Nb124  1  0.50059546  0.89157561  0.50737306  1
  Nb  Nb125  1  0.40790010  0.20265672  0.59575683  1
  Nb  Nb126  1  0.40589624  0.20298573  0.40092012  1
  Nb  Nb127  1  0.00291070  0.40346053  0.60406999  1
  Nb  Nb128  1  0.00250413  0.40428574  0.79568410  1
  Nb  Nb129  1  0.79729882  0.59525133  0.40318777  1
  Nb  Nb130  1  -0.00084457  0.80563734  0.80329608  1
  Nb  Nb131  1  0.79556397  0.20544813  0.39610681  1
  Nb  Nb132  1  0.80672297  0.79534158  0.79943878  1
  Nb  Nb133  1  0.00422231  0.00287668  0.60152599  1
  Nb  Nb134  1  0.00189696  0.19320176  0.19585786  1
  Nb  Nb135  1  0.79882650  0.40396484  0.40170590  1
  Nb  Nb136  1  0.59809121  0.59430773  0.40159056  1
  Nb  Nb137  1  0.80355696  0.00173410  0.19612874  1
  Nb  Nb138  1  0.20092980  0.40762044  0.60567282  1
  Nb  Nb139  1  0.40731567  0.19715971  0.79885530  1
  Nb  Nb140  1  0.00314732  0.00178680  0.40610437  1
  Nb  Nb141  1  -0.00862220  0.60279130  0.40143067  1
  Nb  Nb142  1  0.59582290  -0.00280677  0.60231515  1
  Nb  Nb143  1  0.19850419  0.40890839  0.79939423  1
  Nb  Nb144  1  0.39828203  -0.00019621  -0.00688128  1
  Nb  Nb145  1  0.80071201  0.78611421  0.40051815  1
  Nb  Nb146  1  0.20014112  0.20082778  0.00318131  1
  Nb  Nb147  1  0.79821381  0.19497141  0.00230849  1
  Nb  Nb148  1  0.00216137  0.59651065  -0.00061331  1
  Nb  Nb149  1  0.00126494  -0.00844091  0.79710924  1
  Pd  Pd150  1  0.39666291  0.80286042  0.19047257  1
  Pd  Pd151  1  0.20029968  -0.00869226  0.40111733  1
  Pd  Pd152  1  0.60993269  0.40610141  0.40231316  1
  Pd  Pd153  1  0.19915702  0.79957714  0.80254017  1
  Pd  Pd154  1  0.00764245  0.60816879  0.19463968  1
  Pd  Pd155  1  0.80427408  0.40305811  0.60185035  1
  Pd  Pd156  1  0.00084494  0.00234986  0.20992508  1
  Pd  Pd157  1  0.39977075  0.40923494  0.00602193  1
  Pd  Pd158  1  0.20845409  0.80419386  0.40322545  1
  Pd  Pd159  1  0.00971798  0.79782528  0.19208664  1
  Pd  Pd160  1  0.61011931  0.80681918  0.61319214  1
  Pd  Pd161  1  0.60889451  0.20050369  -0.00618052  1
  Pd  Pd162  1  0.40053320  0.40221304  0.19912902  1
  Pd  Pd163  1  0.80578241  0.60432540  0.00644211  1
  Pd  Pd164  1  0.40283478  0.00127431  0.40614943  1
  Pd  Pd165  1  0.40595792  -0.00470024  0.80626721  1
  Pd  Pd166  1  0.40001880  0.80827332  -0.00312593  1
  Pd  Pd167  1  0.40023604  0.60347645  0.19643955  1
  Pd  Pd168  1  0.59507180  0.19339027  0.59295412  1
  Pd  Pd169  1  0.38975875  0.19106086  -0.00538659  1
  Pd  Pd170  1  0.59805672  0.20624642  0.80851644  1
  Pd  Pd171  1  0.80361168  0.39333154  0.00315413  1
  Pd  Pd172  1  0.80388670  0.40342085  0.79248248  1
  Pd  Pd173  1  0.19727815  0.60071400  0.39779580  1
  Pd  Pd174  1  0.19705444  0.80315144  0.19267996  1
  Pd  Pd175  1  0.60864099  0.80163559  0.79170823  1
  Pd  Pd176  1  0.20273589  -0.00773934  0.20638923  1
  Pd  Pd177  1  0.20436118  0.59889282  0.59404518  1
  Pd  Pd178  1  0.00112314  0.00956656  -0.01023892  1
  Pd  Pd179  1  0.21113068  0.20964376  0.59786109  1
  Pd  Pd180  1  0.00620049  0.80706609  0.60673283  1
  Pd  Pd181  1  0.38865527  0.39540902  0.39427179  1
  Pd  Pd182  1  0.19215598  -0.00818443  0.79932311  1
  Pd  Pd183  1  -0.00233509  0.40717947  0.40202673  1
  Pd  Pd184  1  0.00082523  0.19051159  0.00652718  1
  Pd  Pd185  1  0.59769275  -0.00168892  0.00110246  1
  Pd  Pd186  1  0.58953610  0.40393630  0.79819851  1
  Pd  Pd187  1  0.80712696  -0.00709877  0.39336253  1
  Pd  Pd188  1  0.59464479  0.80014047  0.20423918  1
  Pd  Pd189  1  0.78874715  0.79641915  0.60658572  1
  Pd  Pd190  1  0.20672552  0.40608110  0.40185408  1
  Pd  Pd191  1  0.78807780  0.00907986  0.01069979  1
  Pd  Pd192  1  0.60196269  0.20450668  0.39550251  1
  Pd  Pd193  1  0.00150831  0.19402197  0.60944043  1
  Pd  Pd194  1  0.40382409  0.60862116  0.40121551  1
  Pd  Pd195  1  -0.00609328  0.80118294  0.40456656  1
  Pd  Pd196  1  0.60031212  -0.00826447  0.40321897  1
  Pd  Pd197  1  0.60378888  0.79209761  0.39391559  1
  Pd  Pd198  1  0.58713423  0.39627448  0.19242871  1
  Pd  Pd199  1  0.00064318  0.19276004  0.79019274  1
  Rh  Rh200  1  0.80540497  0.19554427  0.19894522  1
  Rh  Rh201  1  0.60970142  -0.00655915  0.20131461  1
  Rh  Rh202  1  0.79010904  0.60442150  0.80003969  1
  Rh  Rh203  1  0.80026889  0.59976493  0.19332330  1
  Rh  Rh204  1  0.59325681  0.40093784  0.00657387  1
  Rh  Rh205  1  0.80128671  0.81032721  0.20427901  1
  Rh  Rh206  1  0.39895712  0.39630615  0.59959025  1
  Rh  Rh207  1  0.20892521  0.39738254  -0.00423391  1
  Rh  Rh208  1  0.21445686  0.20439958  0.39974478  1
  Rh  Rh209  1  0.39900888  0.39882855  0.80392072  1
  Rh  Rh210  1  0.39335233  -0.00963738  0.19270925  1
  Rh  Rh211  1  0.00623092  0.39026151  0.20202602  1
  Rh  Rh212  1  0.00531788  0.60494911  0.80984606  1
  Rh  Rh213  1  0.19909177  0.60039066  -0.00169336  1
  Rh  Rh214  1  0.39264818  0.79151955  0.59730061  1
  Rh  Rh215  1  0.20858733  0.21353819  0.81084475  1
  Rh  Rh216  1  0.58677569  0.59067857  0.59906108  1
  Rh  Rh217  1  0.58766889  0.40269208  0.60686681  1
  Rh  Rh218  1  0.59345431  -0.00949171  0.79375758  1
  Rh  Rh219  1  0.20006323  0.79665707  0.00001508  1
  Rh  Rh220  1  0.79929540  0.39868007  0.19791153  1
  Rh  Rh221  1  0.20500210  0.60437997  0.20170732  1
  Rh  Rh222  1  0.59299701  0.20688777  0.20478554  1
  Rh  Rh223  1  0.20359530  0.40550449  0.20284607  1
  Rh  Rh224  1  0.39793965  0.79923017  0.40426287  1
  Rh  Rh225  1  0.20950663  0.79447711  0.59771481  1
  Rh  Rh226  1  0.39790439  0.59741621  -0.00204111  1
  Rh  Rh227  1  0.78531364  0.20589772  0.80756777  1
  Rh  Rh228  1  0.00252899  0.59482031  0.59223799  1
  Rh  Rh229  1  0.40654206  0.20347140  0.21169254  1
  Rh  Rh230  1  0.79597569  0.00479203  0.59862393  1
  Rh  Rh231  1  -0.00886246  0.40975957  -0.00600442  1
  Rh  Rh232  1  0.19906644  -0.00004677  0.59381151  1
  Rh  Rh233  1  0.80929488  -0.01087040  0.80344957  1
  Rh  Rh234  1  0.78948634  0.19963392  0.59254622  1
  Rh  Rh235  1  0.39868544  0.59886012  0.80319436  1
  Rh  Rh236  1  0.39670192  0.80271674  0.80213413  1
  Rh  Rh237  1  0.20444381  0.60084385  0.80456068  1
  Rh  Rh238  1  0.20472191  0.00857406  -0.00421353  1
  Rh  Rh239  1  0.58923875  0.60157854  0.20230983  1
  Rh  Rh240  1  0.79655687  0.79351438  -0.00428276  1
  Rh  Rh241  1  0.79510411  0.59680004  0.60403977  1
  Rh  Rh242  1  0.40099085  0.60423176  0.60157532  1
  Rh  Rh243  1  0.41112144  0.00659091  0.58987076  1
  Rh  Rh244  1  -0.00444920  0.19432865  0.39074808  1
  Rh  Rh245  1  0.19112369  0.20076548  0.19457050  1
  Rh  Rh246  1  0.59833347  0.79769059  -0.00117258  1
  Rh  Rh247  1  0.00408022  0.79145476  -0.00119563  1
  Rh  Rh248  1  0.59557168  0.59557636  -0.00078296  1
  Rh  Rh249  1  0.59504591  0.59381992  0.80324269  1
