# generated using pymatgen
data_ZrScNbPdRh
_symmetry_space_group_name_H-M   'P 1'
_cell_length_a   16.55891307
_cell_length_b   16.55721385
_cell_length_c   16.56186836
_cell_angle_alpha   90.04507615
_cell_angle_beta   89.95744601
_cell_angle_gamma   89.98433379
_symmetry_Int_Tables_number   1
_chemical_formula_structural   ZrScNbPdRh
_chemical_formula_sum   'Zr50 Sc50 Nb50 Pd50 Rh50'
_cell_volume   4540.75575646
_cell_formula_units_Z   50
loop_
 _symmetry_equiv_pos_site_id
 _symmetry_equiv_pos_as_xyz
  1  'x, y, z'
loop_
 _atom_site_type_symbol
 _atom_site_label
 _atom_site_symmetry_multiplicity
 _atom_site_fract_x
 _atom_site_fract_y
 _atom_site_fract_z
 _atom_site_occupancy
  Zr  Zr0  1  0.28926652  0.10873307  0.49549127  1
  Zr  Zr1  1  0.29738679  0.10276882  0.69770110  1
  Zr  Zr2  1  0.69818370  0.91086570  0.50247229  1
  Zr  Zr3  1  0.69765386  0.30247668  0.10131875  1
  Zr  Zr4  1  0.10583819  0.09443928  0.29586814  1
  Zr  Zr5  1  0.09665644  0.09108120  0.69809071  1
  Zr  Zr6  1  0.90037167  0.30994483  0.89832738  1
  Zr  Zr7  1  0.50790849  0.30193680  0.50588468  1
  Zr  Zr8  1  0.90048750  0.69790392  0.08495489  1
  Zr  Zr9  1  0.70649097  0.69653824  0.70981731  1
  Zr  Zr10  1  0.30407985  0.29941155  0.69903825  1
  Zr  Zr11  1  0.31087090  0.90009025  0.50043421  1
  Zr  Zr12  1  0.29987625  0.50295405  0.10423607  1
  Zr  Zr13  1  0.68817609  0.89993703  0.90322122  1
  Zr  Zr14  1  0.29177756  0.29753058  0.50303205  1
  Zr  Zr15  1  0.50407532  0.10070146  0.69749520  1
  Zr  Zr16  1  0.29809488  0.69722987  0.70367306  1
  Zr  Zr17  1  0.69895410  0.30001208  0.29708393  1
  Zr  Zr18  1  0.89801252  0.10336522  0.51205992  1
  Zr  Zr19  1  0.29859339  0.89529751  0.69556422  1
  Zr  Zr20  1  0.09714983  0.49936030  0.30944191  1
  Zr  Zr21  1  0.30620953  0.49706542  0.69925662  1
  Zr  Zr22  1  0.69794756  0.90125750  0.09403648  1
  Zr  Zr23  1  0.90802418  0.09209793  0.10130899  1
  Zr  Zr24  1  0.69861897  0.70766550  0.09090632  1
  Zr  Zr25  1  0.69982479  0.10466739  0.08200059  1
  Zr  Zr26  1  0.09057683  0.49593051  0.89445028  1
  Zr  Zr27  1  0.49124165  0.69870826  0.89860162  1
  Zr  Zr28  1  0.09733506  0.11073229  0.50191579  1
  Zr  Zr29  1  0.69654766  0.89780655  0.69728678  1
  Zr  Zr30  1  0.89746588  0.69988137  0.49977729  1
  Zr  Zr31  1  0.49663917  0.10663646  0.29782786  1
  Zr  Zr32  1  0.90493044  0.49988802  0.49419220  1
  Zr  Zr33  1  0.49932316  0.89922420  0.09643467  1
  Zr  Zr34  1  0.29871123  0.09307565  0.89487582  1
  Zr  Zr35  1  0.50369036  0.29317930  0.29273030  1
  Zr  Zr36  1  0.90107433  0.90016924  0.69495250  1
  Zr  Zr37  1  0.70212230  0.29092649  0.90284772  1
  Zr  Zr38  1  0.70692157  0.69780311  0.89954745  1
  Zr  Zr39  1  0.49939904  0.10301836  0.89330257  1
  Zr  Zr40  1  0.30119191  0.69353378  0.30066368  1
  Zr  Zr41  1  0.48931509  0.90199495  0.89647010  1
  Zr  Zr42  1  0.30220133  0.90120448  0.09296516  1
  Zr  Zr43  1  0.30114853  0.69968529  0.09614659  1
  Zr  Zr44  1  0.09798056  0.30259283  0.10684896  1
  Zr  Zr45  1  0.09283783  0.49818591  0.10865777  1
  Zr  Zr46  1  0.89868735  0.90196705  0.50564124  1
  Zr  Zr47  1  0.30121938  0.30521835  0.10850075  1
  Zr  Zr48  1  0.10309836  0.29858546  0.90123818  1
  Zr  Zr49  1  0.09685422  0.69584513  0.30061403  1
  Sc  Sc50  1  0.90032295  0.30327598  0.30070007  1
  Sc  Sc51  1  0.90981914  0.89548276  0.90065312  1
  Sc  Sc52  1  0.50175933  0.30444879  0.89640534  1
  Sc  Sc53  1  0.69782993  0.10680579  0.31449137  1
  Sc  Sc54  1  0.70053412  0.29674116  0.70558572  1
  Sc  Sc55  1  0.90649525  0.10374433  0.30740312  1
  Sc  Sc56  1  0.09606144  0.30400552  0.69625386  1
  Sc  Sc57  1  0.50467954  0.69955037  0.70015165  1
  Sc  Sc58  1  0.29196536  0.09677332  0.10667831  1
  Sc  Sc59  1  0.90484945  0.49268197  0.71499319  1
  Sc  Sc60  1  0.88943656  0.10314942  0.90360497  1
  Sc  Sc61  1  0.48885164  0.91463821  0.31181282  1
  Sc  Sc62  1  0.69970160  0.69081401  0.49475528  1
  Sc  Sc63  1  0.11000237  0.09429878  0.89956803  1
  Sc  Sc64  1  0.10402488  0.69794349  0.50286567  1
  Sc  Sc65  1  0.10153666  0.30301343  0.30199414  1
  Sc  Sc66  1  0.70477334  0.49261928  0.89092182  1
  Sc  Sc67  1  0.89766126  0.50177673  0.90553125  1
  Sc  Sc68  1  0.50713712  0.49924046  0.29908872  1
  Sc  Sc69  1  0.10364787  0.70383579  0.70297581  1
  Sc  Sc70  1  0.09833541  0.89857759  0.70106666  1
  Sc  Sc71  1  0.09215408  0.70230552  0.09897063  1
  Sc  Sc72  1  0.70467825  0.69503945  0.30926943  1
  Sc  Sc73  1  0.29747795  0.70650638  0.50785838  1
  Sc  Sc74  1  0.08479156  0.90432880  0.09611200  1
  Sc  Sc75  1  0.49406505  0.49485556  0.10049394  1
  Sc  Sc76  1  0.91095792  0.29301158  0.50435108  1
  Sc  Sc77  1  0.49051442  0.69793476  0.09943491  1
  Sc  Sc78  1  0.50468011  0.29959473  0.10247563  1
  Sc  Sc79  1  0.49686421  0.10909149  0.10350124  1
  Sc  Sc80  1  0.30703999  0.50146578  0.88795084  1
  Sc  Sc81  1  0.70553151  0.90803120  0.30901260  1
  Sc  Sc82  1  0.10331993  0.49800149  0.70069042  1
  Sc  Sc83  1  0.51480052  0.09781793  0.50102964  1
  Sc  Sc84  1  0.70054672  0.50008542  0.30118390  1
  Sc  Sc85  1  0.49881830  0.49510221  0.89236679  1
  Sc  Sc86  1  0.49874061  0.69457502  0.30495134  1
  Sc  Sc87  1  0.49540033  0.30011146  0.69938892  1
  Sc  Sc88  1  0.90472966  0.50255116  0.29988518  1
  Sc  Sc89  1  0.89726863  0.29610691  0.69780708  1
  Sc  Sc90  1  0.91220552  0.90115987  0.30553823  1
  Sc  Sc91  1  0.70811327  0.48928685  0.09540086  1
  Sc  Sc92  1  0.29077907  0.49627129  0.29528123  1
  Sc  Sc93  1  0.10464211  0.89733679  0.89368587  1
  Sc  Sc94  1  0.28342983  0.48791109  0.50401985  1
  Sc  Sc95  1  0.90427731  0.69486679  0.30693032  1
  Sc  Sc96  1  0.09195237  0.70557056  0.89557989  1
  Sc  Sc97  1  0.70466445  0.10758111  0.50489242  1
  Sc  Sc98  1  0.50568614  0.49236583  0.70132318  1
  Sc  Sc99  1  0.50084389  0.70278569  0.50235615  1
  Nb  Nb100  1  0.70313755  0.29778867  0.49920322  1
  Nb  Nb101  1  0.30495770  0.09796351  0.30098374  1
  Nb  Nb102  1  0.09431414  0.10661003  0.10087797  1
  Nb  Nb103  1  0.50581479  0.49914207  0.50089842  1
  Nb  Nb104  1  0.89816295  0.31507711  0.10229374  1
  Nb  Nb105  1  0.10279580  0.31037907  0.50156504  1
  Nb  Nb106  1  0.70333814  0.49985502  0.69834594  1
  Nb  Nb107  1  0.29902300  0.29460218  0.89750983  1
  Nb  Nb108  1  0.69395136  0.49848217  0.50041220  1
  Nb  Nb109  1  0.29892291  0.91417139  0.29752274  1
  Nb  Nb110  1  0.29940211  0.89100596  0.89945061  1
  Nb  Nb111  1  0.70683703  0.10555814  0.70418759  1
  Nb  Nb112  1  0.10285637  0.89879530  0.30255610  1
  Nb  Nb113  1  0.89753293  0.09915905  0.69807862  1
  Nb  Nb114  1  0.69711156  0.10095658  0.89222416  1
  Nb  Nb115  1  0.90012492  0.69424437  0.88863758  1
  Nb  Nb116  1  0.89853737  0.89971951  0.10364230  1
  Nb  Nb117  1  0.29876517  0.70847272  0.89960587  1
  Nb  Nb118  1  0.09987669  0.90093830  0.49831087  1
  Nb  Nb119  1  0.90114007  0.69901980  0.70340190  1
  Nb  Nb120  1  0.50481076  0.89920881  0.51168721  1
  Nb  Nb121  1  0.09471917  0.48504080  0.50069461  1
  Nb  Nb122  1  0.49972578  0.90089430  0.67950855  1
  Nb  Nb123  1  0.30558139  0.29022918  0.30702016  1
  Nb  Nb124  1  0.89860940  0.49448393  0.10042856  1
  Nb  Nb125  1  0.79504893  0.40490744  0.59543303  1
  Nb  Nb126  1  0.59683457  0.80809747  0.40102967  1
  Nb  Nb127  1  0.39951882  0.58766371  0.41090967  1
  Nb  Nb128  1  0.00153965  0.20143175  0.00329277  1
  Nb  Nb129  1  0.60711533  0.60528719  0.19137867  1
  Nb  Nb130  1  0.79384200  0.00347566  0.79931531  1
  Nb  Nb131  1  0.20156800  0.80789149  0.20597064  1
  Nb  Nb132  1  0.39508713  0.80649213  0.20668163  1
  Nb  Nb133  1  0.80103936  0.60372319  0.18969917  1
  Nb  Nb134  1  0.60570974  0.00003214  0.19972813  1
  Nb  Nb135  1  0.38991735  0.20425667  -0.00414699  1
  Nb  Nb136  1  0.80031325  0.80274028  0.19747890  1
  Nb  Nb137  1  0.20330188  0.40387119  -0.00067321  1
  Nb  Nb138  1  -0.00161148  0.19554034  0.80328394  1
  Nb  Nb139  1  0.40149725  0.59137421  0.59485533  1
  Nb  Nb140  1  0.59923698  0.80403997  0.20830627  1
  Nb  Nb141  1  0.20264288  0.81004396  0.39293539  1
  Nb  Nb142  1  0.20054349  0.59737795  -0.00542344  1
  Nb  Nb143  1  0.79539528  0.39783778  0.40977995  1
  Nb  Nb144  1  0.40141657  0.39816344  0.40355467  1
  Nb  Nb145  1  0.60234337  0.59982656  -0.00018161  1
  Nb  Nb146  1  0.80179798  0.59222870  0.60437893  1
  Nb  Nb147  1  0.80228759  0.19799891  0.19400265  1
  Nb  Nb148  1  -0.00529780  0.59792539  0.60246975  1
  Nb  Nb149  1  0.80002439  0.00129446  0.19618172  1
  Pd  Pd150  1  0.40746636  0.20190861  0.40970101  1
  Pd  Pd151  1  0.00571645  0.79697097  0.40697736  1
  Pd  Pd152  1  0.19199838  0.19932802  0.79102451  1
  Pd  Pd153  1  0.19531827  0.59456453  0.59783797  1
  Pd  Pd154  1  0.40120838  0.79601956  0.39686345  1
  Pd  Pd155  1  0.40457648  0.19458300  0.59261042  1
  Pd  Pd156  1  0.19269110  0.60692527  0.19287884  1
  Pd  Pd157  1  0.60608930  0.39470713  0.60878240  1
  Pd  Pd158  1  0.00463417  0.59803254  -0.00352094  1
  Pd  Pd159  1  -0.00730779  0.20470358  0.19976993  1
  Pd  Pd160  1  0.18958070  0.79637287  0.00345436  1
  Pd  Pd161  1  0.59543262  0.20735409  0.79653256  1
  Pd  Pd162  1  0.39426659  0.39556511  -0.00568644  1
  Pd  Pd163  1  0.79653987  0.80336116  0.39618822  1
  Pd  Pd164  1  0.39897892  0.59244771  -0.00676424  1
  Pd  Pd165  1  0.19850515  -0.00141155  0.40639696  1
  Pd  Pd166  1  0.58772446  0.00892179  0.00109512  1
  Pd  Pd167  1  0.19574549  0.60379089  0.80804995  1
  Pd  Pd168  1  0.20284285  0.39868764  0.80028963  1
  Pd  Pd169  1  0.59944135  -0.00365443  0.79130838  1
  Pd  Pd170  1  0.20398352  0.60106089  0.41077379  1
  Pd  Pd171  1  0.00574122  0.20529488  0.39787712  1
  Pd  Pd172  1  0.40087138  0.01253304  0.00382942  1
  Pd  Pd173  1  -0.00000294  0.00411678  0.40562021  1
  Pd  Pd174  1  0.19721311  -0.00471539  0.59565175  1
  Pd  Pd175  1  0.40385023  0.01195286  0.41322152  1
  Pd  Pd176  1  0.40449830  0.80149090  0.78868587  1
  Pd  Pd177  1  0.80519678  0.81054128  0.80621733  1
  Pd  Pd178  1  0.40335845  0.40274389  0.21172302  1
  Pd  Pd179  1  0.60004333  0.39705982  0.39495263  1
  Pd  Pd180  1  0.60098901  0.40609039  -0.00299966  1
  Pd  Pd181  1  0.39770206  -0.00478905  0.78988983  1
  Pd  Pd182  1  0.80883955  0.80674136  -0.00685798  1
  Pd  Pd183  1  0.80821195  0.00590538  0.39684764  1
  Pd  Pd184  1  -0.00914647  0.00677523  0.80688167  1
  Pd  Pd185  1  0.60981290  0.78893270  0.59352881  1
  Pd  Pd186  1  0.59029586  0.80298801  0.80032358  1
  Pd  Pd187  1  0.39771683  0.01218176  0.59335993  1
  Pd  Pd188  1  0.00435608  0.00508433  -0.01086479  1
  Pd  Pd189  1  0.59862128  0.59448653  0.80611977  1
  Pd  Pd190  1  0.81180638  0.20776128  0.00674864  1
  Pd  Pd191  1  0.00673356  0.79407582  0.60105496  1
  Pd  Pd192  1  0.20099242  0.20364229  0.00589829  1
  Pd  Pd193  1  0.19023598  -0.00549180  0.18965226  1
  Pd  Pd194  1  0.20456305  0.20095379  0.20726441  1
  Pd  Pd195  1  0.59974754  0.60321581  0.60222746  1
  Pd  Pd196  1  0.19333440  -0.00427709  0.00345531  1
  Pd  Pd197  1  0.80387431  -0.00733938  -0.00752495  1
  Pd  Pd198  1  -0.00338071  0.79891286  0.20089385  1
  Pd  Pd199  1  0.79204071  0.79030215  0.59705315  1
  Rh  Rh200  1  0.40118793  0.40624884  0.59232258  1
  Rh  Rh201  1  0.40173754  0.39377946  0.79951624  1
  Rh  Rh202  1  0.40878831  0.60045841  0.21036871  1
  Rh  Rh203  1  -0.00244777  0.79866240  -0.00617492  1
  Rh  Rh204  1  0.19974962  0.39644013  0.20474016  1
  Rh  Rh205  1  0.60840587  0.00878090  0.60584299  1
  Rh  Rh206  1  0.58697805  0.79201062  -0.00810867  1
  Rh  Rh207  1  0.40197539  0.78876901  0.60497087  1
  Rh  Rh208  1  0.59570887  0.60439057  0.39594713  1
  Rh  Rh209  1  -0.00226883  0.79837940  0.79571456  1
  Rh  Rh210  1  0.59636619  -0.00389710  0.39777456  1
  Rh  Rh211  1  0.19357057  0.20281523  0.39212689  1
  Rh  Rh212  1  -0.00245345  0.40348282  0.20919396  1
  Rh  Rh213  1  0.80570985  0.59414663  0.79773904  1
  Rh  Rh214  1  0.40051748  0.20205430  0.80439656  1
  Rh  Rh215  1  -0.00004601  -0.00163486  0.20543329  1
  Rh  Rh216  1  0.19195586  0.20503122  0.60661937  1
  Rh  Rh217  1  0.00502283  0.39789333  0.00193223  1
  Rh  Rh218  1  0.79725803  0.39945508  -0.00582032  1
  Rh  Rh219  1  -0.00030067  0.60293462  0.79349400  1
  Rh  Rh220  1  0.00531488  0.20013311  0.60968077  1
  Rh  Rh221  1  0.79838337  0.58766857  0.39870462  1
  Rh  Rh222  1  0.39057530  0.19595640  0.19232628  1
  Rh  Rh223  1  -0.00630799  0.40475436  0.60308962  1
  Rh  Rh224  1  0.00933540  0.60079647  0.41061121  1
  Rh  Rh225  1  0.40164006  0.79929831  0.00237772  1
  Rh  Rh226  1  0.80207304  0.40188030  0.21009147  1
  Rh  Rh227  1  0.80791185  0.19556452  0.79905151  1
  Rh  Rh228  1  0.20864977  -0.00936558  0.79740266  1
  Rh  Rh229  1  0.20624061  0.39261801  0.39296413  1
  Rh  Rh230  1  0.79766497  0.39655799  0.79574017  1
  Rh  Rh231  1  0.79623580  0.59288186  -0.00110417  1
  Rh  Rh232  1  0.19702496  0.39681633  0.60930056  1
  Rh  Rh233  1  0.00055378  0.39116751  0.79699192  1
  Rh  Rh234  1  0.59840531  0.20401214  0.40367194  1
  Rh  Rh235  1  0.40376140  0.60175506  0.78992163  1
  Rh  Rh236  1  0.60432301  0.39587673  0.79721081  1
  Rh  Rh237  1  0.19553740  0.80731364  0.59281682  1
  Rh  Rh238  1  -0.00500301  0.39317215  0.39883364  1
  Rh  Rh239  1  0.60602601  0.20135361  0.60549105  1
  Rh  Rh240  1  0.00285646  -0.00213295  0.59457608  1
  Rh  Rh241  1  0.61468144  0.18836651  0.19705833  1
  Rh  Rh242  1  0.79444478  0.00355725  0.60857833  1
  Rh  Rh243  1  -0.01083306  0.60068481  0.19759279  1
  Rh  Rh244  1  0.58794956  0.20135037  -0.00673285  1
  Rh  Rh245  1  0.80287609  0.20850382  0.39773712  1
  Rh  Rh246  1  0.79848512  0.20842059  0.60070175  1
  Rh  Rh247  1  0.40755518  0.00128121  0.19667135  1
  Rh  Rh248  1  0.60059053  0.40931356  0.19701169  1
  Rh  Rh249  1  0.20147949  0.80131745  0.80057133  1
