# generated using pymatgen
data_ZrScNbPdRh
_symmetry_space_group_name_H-M   'P 1'
_cell_length_a   16.56022910
_cell_length_b   16.55988062
_cell_length_c   16.55547845
_cell_angle_alpha   90.03242933
_cell_angle_beta   90.01309810
_cell_angle_gamma   90.03619634
_symmetry_Int_Tables_number   1
_chemical_formula_structural   ZrScNbPdRh
_chemical_formula_sum   'Zr50 Sc50 Nb50 Pd50 Rh50'
_cell_volume   4540.09678128
_cell_formula_units_Z   50
loop_
 _symmetry_equiv_pos_site_id
 _symmetry_equiv_pos_as_xyz
  1  'x, y, z'
loop_
 _atom_site_type_symbol
 _atom_site_label
 _atom_site_symmetry_multiplicity
 _atom_site_fract_x
 _atom_site_fract_y
 _atom_site_fract_z
 _atom_site_occupancy
  Zr  Zr0  1  0.89474571  0.10003021  0.11419273  1
  Zr  Zr1  1  0.70313270  0.49754759  0.90281663  1
  Zr  Zr2  1  0.30123426  0.29280600  0.10297559  1
  Zr  Zr3  1  0.70606005  0.49830235  0.10115792  1
  Zr  Zr4  1  0.90392907  0.89074198  0.90070714  1
  Zr  Zr5  1  0.90395317  0.29784389  0.49124775  1
  Zr  Zr6  1  0.09811713  0.50521165  0.69956884  1
  Zr  Zr7  1  0.90140629  0.10610995  0.49575697  1
  Zr  Zr8  1  0.50408117  0.11680911  0.09709083  1
  Zr  Zr9  1  0.49667821  0.49409830  0.89540727  1
  Zr  Zr10  1  0.09762084  0.30529650  0.49321767  1
  Zr  Zr11  1  0.50508986  0.88396439  0.10021605  1
  Zr  Zr12  1  0.89350978  0.09517765  0.69350430  1
  Zr  Zr13  1  0.70222680  0.49390802  0.71063900  1
  Zr  Zr14  1  0.89862428  0.89672388  0.69824368  1
  Zr  Zr15  1  0.09537088  0.89557704  0.09200843  1
  Zr  Zr16  1  0.69017850  0.69992110  0.10197576  1
  Zr  Zr17  1  0.89574373  0.09605811  0.88238272  1
  Zr  Zr18  1  0.09886693  0.30557306  0.30290788  1
  Zr  Zr19  1  0.29952098  0.90636831  0.70153039  1
  Zr  Zr20  1  0.89950188  0.50091589  0.09299510  1
  Zr  Zr21  1  0.70063210  0.50041788  0.29411948  1
  Zr  Zr22  1  0.50251544  0.31121583  0.49574480  1
  Zr  Zr23  1  0.10646991  0.10126959  0.09888269  1
  Zr  Zr24  1  0.09855188  0.50409093  0.49467757  1
  Zr  Zr25  1  0.09317478  0.30252004  0.90000056  1
  Zr  Zr26  1  0.29312980  0.29770207  0.49497557  1
  Zr  Zr27  1  0.69981961  0.70500633  0.49879364  1
  Zr  Zr28  1  0.69899427  0.49003481  0.49797897  1
  Zr  Zr29  1  0.50288604  0.90580248  0.30497860  1
  Zr  Zr30  1  0.69756692  0.69432610  0.88847694  1
  Zr  Zr31  1  0.29934572  0.10428155  0.49686690  1
  Zr  Zr32  1  0.70562991  0.10513905  0.50472883  1
  Zr  Zr33  1  0.89760141  0.51804945  0.29842410  1
  Zr  Zr34  1  0.29841586  0.50071663  0.11301528  1
  Zr  Zr35  1  0.90287719  0.90765839  0.50215493  1
  Zr  Zr36  1  0.50491441  0.49804178  0.10936225  1
  Zr  Zr37  1  0.90510467  0.50542164  0.70396549  1
  Zr  Zr38  1  0.70050617  0.30058200  0.09912190  1
  Zr  Zr39  1  0.29923227  0.10140993  0.90637519  1
  Zr  Zr40  1  0.70292801  0.29777867  0.69629226  1
  Zr  Zr41  1  0.49626768  0.50001818  0.69742147  1
  Zr  Zr42  1  0.69039401  0.88145204  0.68770897  1
  Zr  Zr43  1  0.71398367  0.69672947  0.30287263  1
  Zr  Zr44  1  0.29338579  0.70161508  0.89820419  1
  Zr  Zr45  1  0.10881197  0.89754148  0.69639478  1
  Zr  Zr46  1  0.09521854  0.50412825  0.89878733  1
  Zr  Zr47  1  0.30676001  0.10707820  0.30109105  1
  Zr  Zr48  1  0.70435109  0.88879336  0.29614642  1
  Zr  Zr49  1  0.50491713  0.70536786  0.90695270  1
  Sc  Sc50  1  0.91054461  0.50094112  0.50088839  1
  Sc  Sc51  1  0.50397294  0.09832894  0.69614021  1
  Sc  Sc52  1  0.29164913  0.91221177  0.31049639  1
  Sc  Sc53  1  0.09785732  0.30213788  0.10893676  1
  Sc  Sc54  1  0.29918187  0.68912513  0.30261001  1
  Sc  Sc55  1  0.10360778  0.89976905  0.50148271  1
  Sc  Sc56  1  0.29887507  0.50123208  0.30383650  1
  Sc  Sc57  1  0.29255612  0.91129656  0.50312790  1
  Sc  Sc58  1  0.29444672  0.30011007  0.29770082  1
  Sc  Sc59  1  0.29608610  0.89441191  0.10010139  1
  Sc  Sc60  1  0.29110024  0.90180103  0.89667377  1
  Sc  Sc61  1  0.28984680  0.70038693  0.70338738  1
  Sc  Sc62  1  0.70367060  0.89942295  0.10071152  1
  Sc  Sc63  1  0.71150281  0.10827119  0.28783466  1
  Sc  Sc64  1  0.89362746  0.89629948  0.09999837  1
  Sc  Sc65  1  0.09972290  0.30004511  0.69932809  1
  Sc  Sc66  1  0.29893040  0.50904763  0.70971179  1
  Sc  Sc67  1  0.89803154  0.29424844  0.71119335  1
  Sc  Sc68  1  0.69925622  0.30444994  0.88866735  1
  Sc  Sc69  1  0.70423396  0.10490998  0.70210103  1
  Sc  Sc70  1  0.51012668  0.30134140  0.70339443  1
  Sc  Sc71  1  0.30608212  0.70130382  0.11136151  1
  Sc  Sc72  1  0.90465241  0.28341908  0.29833713  1
  Sc  Sc73  1  0.09571246  0.69849075  0.69498659  1
  Sc  Sc74  1  0.10124719  0.89618884  0.90068629  1
  Sc  Sc75  1  0.09809273  0.09011632  0.90067949  1
  Sc  Sc76  1  0.29471329  0.09366199  0.69585102  1
  Sc  Sc77  1  0.90433138  0.69493812  0.09349722  1
  Sc  Sc78  1  0.49968667  0.09617886  0.49321283  1
  Sc  Sc79  1  0.29697784  0.68900782  0.49883682  1
  Sc  Sc80  1  0.90187895  0.49707335  0.90356224  1
  Sc  Sc81  1  0.30419476  0.30898574  0.90597543  1
  Sc  Sc82  1  0.90051912  0.69395806  0.49216481  1
  Sc  Sc83  1  0.09580728  0.70718877  0.90235542  1
  Sc  Sc84  1  0.49591548  0.70193130  0.28963898  1
  Sc  Sc85  1  0.10394673  0.50222082  0.29972855  1
  Sc  Sc86  1  0.09485913  0.09739606  0.29054280  1
  Sc  Sc87  1  0.50691593  0.10220067  0.90664094  1
  Sc  Sc88  1  0.08852440  0.50315631  0.10796784  1
  Sc  Sc89  1  0.51222327  0.90682343  0.50170072  1
  Sc  Sc90  1  0.70286137  0.29618356  0.50296955  1
  Sc  Sc91  1  0.70356559  0.89885568  0.91282223  1
  Sc  Sc92  1  0.70039472  0.89786147  0.49632124  1
  Sc  Sc93  1  0.51948341  0.70614025  0.70843079  1
  Sc  Sc94  1  0.49104708  0.69107457  0.49848962  1
  Sc  Sc95  1  0.09967376  0.10975460  0.50703140  1
  Sc  Sc96  1  0.90175753  0.30705824  0.10071605  1
  Sc  Sc97  1  0.29478961  0.30336279  0.69878341  1
  Sc  Sc98  1  0.70341589  0.30231209  0.29911642  1
  Sc  Sc99  1  0.09622047  0.10349144  0.70252083  1
  Nb  Nb100  1  0.09925107  0.69467506  0.30146232  1
  Nb  Nb101  1  0.30308687  0.10280362  0.10165903  1
  Nb  Nb102  1  0.69983234  0.09246032  0.90583179  1
  Nb  Nb103  1  0.50025727  0.89996901  0.70218858  1
  Nb  Nb104  1  0.49533492  0.30083527  0.09533864  1
  Nb  Nb105  1  0.10165368  0.69895849  0.10161884  1
  Nb  Nb106  1  0.49484044  0.69906686  0.09933881  1
  Nb  Nb107  1  0.50118631  0.90142984  0.90319932  1
  Nb  Nb108  1  0.09855817  0.69578644  0.49281383  1
  Nb  Nb109  1  0.49733231  0.29315020  0.29690831  1
  Nb  Nb110  1  0.90105721  0.69706190  0.89181806  1
  Nb  Nb111  1  0.69812094  0.09713812  0.09114978  1
  Nb  Nb112  1  0.89345882  0.69920213  0.70686905  1
  Nb  Nb113  1  0.31342548  0.50162992  0.50166757  1
  Nb  Nb114  1  0.09684330  0.89689366  0.29859326  1
  Nb  Nb115  1  0.49757695  0.10212915  0.30003493  1
  Nb  Nb116  1  0.49384216  0.29901556  0.90442857  1
  Nb  Nb117  1  0.50119275  0.49135311  0.31094709  1
  Nb  Nb118  1  0.29740189  0.50752907  0.90220037  1
  Nb  Nb119  1  0.49412503  0.50036562  0.49644944  1
  Nb  Nb120  1  0.90022052  0.90053527  0.29630888  1
  Nb  Nb121  1  0.70254772  0.69374439  0.69819159  1
  Nb  Nb122  1  0.89834536  0.70670932  0.29923148  1
  Nb  Nb123  1  0.89914359  0.09585901  0.29949970  1
  Nb  Nb124  1  0.89835079  0.29456690  0.90513701  1
  Nb  Nb125  1  -0.00877927  0.19645523  -0.00192610  1
  Nb  Nb126  1  0.20410652  0.20021381  0.80623776  1
  Nb  Nb127  1  0.79697304  0.60142576  0.60592473  1
  Nb  Nb128  1  0.59651590  0.59113119  0.40072480  1
  Nb  Nb129  1  0.40495673  0.00564601  0.19515094  1
  Nb  Nb130  1  0.40408715  0.00022507  0.00791285  1
  Nb  Nb131  1  0.40529500  0.80844138  0.79763848  1
  Nb  Nb132  1  0.79891015  0.19426637  -0.00445389  1
  Nb  Nb133  1  0.18910119  0.79848567  0.20878662  1
  Nb  Nb134  1  0.00389276  0.80017856  0.39279364  1
  Nb  Nb135  1  0.60023354  -0.00678226  0.80407989  1
  Nb  Nb136  1  0.40261121  0.80480418  0.60384598  1
  Nb  Nb137  1  0.59746850  0.00731770  0.19587981  1
  Nb  Nb138  1  0.00191197  0.79703687  0.20552732  1
  Nb  Nb139  1  0.20248638  0.40850168  0.59270874  1
  Nb  Nb140  1  0.39935848  0.59867288  0.00312349  1
  Nb  Nb141  1  0.39946610  0.20072926  0.80120458  1
  Nb  Nb142  1  0.39667455  0.80395577  0.40641594  1
  Nb  Nb143  1  0.80714375  0.00166480  0.39231987  1
  Nb  Nb144  1  0.20017824  0.40945881  0.00189730  1
  Nb  Nb145  1  0.59552866  0.20085692  0.39241565  1
  Nb  Nb146  1  0.60390981  0.59529633  0.59669904  1
  Nb  Nb147  1  0.39998327  0.20344814  0.59978491  1
  Nb  Nb148  1  0.20251441  0.59864087  0.00429344  1
  Nb  Nb149  1  0.80557355  0.40147471  0.39730128  1
  Pd  Pd150  1  -0.00676316  0.40387652  0.20744273  1
  Pd  Pd151  1  0.59831467  0.19258695  0.80436960  1
  Pd  Pd152  1  0.00663348  0.79861385  0.79553086  1
  Pd  Pd153  1  0.78586264  -0.01438173  0.79117012  1
  Pd  Pd154  1  0.00258166  0.39480315  0.60413422  1
  Pd  Pd155  1  0.59419564  0.59455262  0.00021648  1
  Pd  Pd156  1  0.40013951  0.39692915  0.20765459  1
  Pd  Pd157  1  0.40364512  0.00130487  0.59220939  1
  Pd  Pd158  1  0.39156835  0.39430412  0.39217380  1
  Pd  Pd159  1  0.40591354  0.61320857  0.61401368  1
  Pd  Pd160  1  0.18969057  0.19283365  0.39088494  1
  Pd  Pd161  1  0.81029458  0.79268801  0.59302618  1
  Pd  Pd162  1  0.79817907  0.78785417  0.00143815  1
  Pd  Pd163  1  0.20277827  0.39846833  0.80079187  1
  Pd  Pd164  1  0.59601857  0.60301592  0.20910711  1
  Pd  Pd165  1  0.20587806  -0.00399569  0.19694528  1
  Pd  Pd166  1  -0.01041556  0.00547922  0.00193727  1
  Pd  Pd167  1  0.18652957  0.01117481  0.40142829  1
  Pd  Pd168  1  0.58768447  0.78730334  0.40004980  1
  Pd  Pd169  1  0.81004938  0.00321875  0.00090089  1
  Pd  Pd170  1  0.20230629  0.79540242  0.40031331  1
  Pd  Pd171  1  0.81216962  0.40204490  0.59678824  1
  Pd  Pd172  1  0.00505988  -0.00864966  0.79347577  1
  Pd  Pd173  1  0.39603786  0.39364869  0.79452322  1
  Pd  Pd174  1  0.00345222  0.00122657  0.40093642  1
  Pd  Pd175  1  0.60860569  0.21121500  -0.01067811  1
  Pd  Pd176  1  0.20682815  -0.00493833  0.00284091  1
  Pd  Pd177  1  0.39301472  0.39581351  0.60624763  1
  Pd  Pd178  1  0.59938652  0.40297377  0.60413618  1
  Pd  Pd179  1  0.20805162  0.79540818  0.59218914  1
  Pd  Pd180  1  0.80004340  0.60675020  -0.00363751  1
  Pd  Pd181  1  0.39096011  0.80124943  -0.00660646  1
  Pd  Pd182  1  -0.00357076  0.20756386  0.60538255  1
  Pd  Pd183  1  0.20095691  0.59539164  0.59657337  1
  Pd  Pd184  1  0.40765167  0.00562930  0.80982664  1
  Pd  Pd185  1  0.38585596  0.81105965  0.21621799  1
  Pd  Pd186  1  0.61840718  0.01362176  0.38758900  1
  Pd  Pd187  1  0.00060703  -0.00717277  0.19382316  1
  Pd  Pd188  1  0.59627383  0.39049431  0.20287955  1
  Pd  Pd189  1  0.59950578  0.39555571  -0.00288993  1
  Pd  Pd190  1  0.39489120  0.40784821  0.00630192  1
  Pd  Pd191  1  -0.00414093  0.79079022  0.59113900  1
  Pd  Pd192  1  0.00837770  0.00302563  0.60255008  1
  Pd  Pd193  1  0.60717737  0.00569719  0.60659761  1
  Pd  Pd194  1  0.40715548  0.61418237  0.80091777  1
  Pd  Pd195  1  0.81150171  0.39532171  0.20838347  1
  Pd  Pd196  1  0.19188108  0.20972210  -0.00288126  1
  Pd  Pd197  1  -0.00628259  0.39788962  0.79869486  1
  Pd  Pd198  1  0.79111150  0.80606430  0.80241951  1
  Pd  Pd199  1  0.60438236  0.20169173  0.20334511  1
  Rh  Rh200  1  0.79206712  0.19931271  0.80495545  1
  Rh  Rh201  1  0.59573445  0.39902354  0.80204574  1
  Rh  Rh202  1  0.19597550  0.60394498  0.19793622  1
  Rh  Rh203  1  0.00202521  0.19851362  0.19563971  1
  Rh  Rh204  1  0.60737712  0.79789745  -0.00129753  1
  Rh  Rh205  1  0.80729534  0.39928364  0.80392669  1
  Rh  Rh206  1  0.00124602  0.60682174  0.80266924  1
  Rh  Rh207  1  0.00495355  0.39321934  0.00401869  1
  Rh  Rh208  1  0.20314320  0.79157052  0.00965753  1
  Rh  Rh209  1  0.40791035  0.20666634  0.40806064  1
  Rh  Rh210  1  0.79339582  -0.00416529  0.59656056  1
  Rh  Rh211  1  0.40025078  0.19791530  -0.00578485  1
  Rh  Rh212  1  0.00727093  0.19714902  0.80650079  1
  Rh  Rh213  1  0.80487522  0.59602934  0.80140098  1
  Rh  Rh214  1  0.79774460  0.39229711  -0.00455579  1
  Rh  Rh215  1  -0.00242771  0.60516470  0.20124158  1
  Rh  Rh216  1  0.20238687  0.59488841  0.40282953  1
  Rh  Rh217  1  0.18893873  0.60524032  0.80627166  1
  Rh  Rh218  1  0.59660957  0.59108177  0.79758844  1
  Rh  Rh219  1  0.00693482  0.19074146  0.39319495  1
  Rh  Rh220  1  0.59341176  -0.00588375  0.00472302  1
  Rh  Rh221  1  0.80318193  0.60751490  0.18785770  1
  Rh  Rh222  1  0.79049026  -0.00438745  0.20373261  1
  Rh  Rh223  1  0.19326135  0.00709779  0.59826046  1
  Rh  Rh224  1  -0.01052544  0.40564620  0.38898466  1
  Rh  Rh225  1  0.39960644  0.20096420  0.19913649  1
  Rh  Rh226  1  0.80829458  0.20585441  0.60307710  1
  Rh  Rh227  1  0.81251665  0.81200318  0.40599906  1
  Rh  Rh228  1  0.60239983  0.79767197  0.20281736  1
  Rh  Rh229  1  0.60643285  0.39528856  0.39258399  1
  Rh  Rh230  1  0.20704397  0.41038125  0.40696718  1
  Rh  Rh231  1  0.40612549  0.60322144  0.39139461  1
  Rh  Rh232  1  0.79916017  0.20548791  0.19069605  1
  Rh  Rh233  1  0.60369677  0.81080589  0.81037101  1
  Rh  Rh234  1  0.80624473  0.79301665  0.19127875  1
  Rh  Rh235  1  0.79443309  0.20012610  0.39838065  1
  Rh  Rh236  1  0.19790081  0.39948446  0.19669404  1
  Rh  Rh237  1  0.79384092  0.59062158  0.41073943  1
  Rh  Rh238  1  0.19856545  0.19978717  0.20343125  1
  Rh  Rh239  1  -0.00816856  0.61041173  0.60235561  1
  Rh  Rh240  1  0.58826618  0.78912158  0.58966740  1
  Rh  Rh241  1  -0.00480231  0.79604687  0.00218456  1
  Rh  Rh242  1  0.19300848  0.00545492  0.79944605  1
  Rh  Rh243  1  0.58906981  0.19982894  0.58707539  1
  Rh  Rh244  1  0.40781474  0.59284619  0.20241735  1
  Rh  Rh245  1  0.00168550  0.60409883  0.39649760  1
  Rh  Rh246  1  0.19892989  0.80168105  0.79650381  1
  Rh  Rh247  1  0.20436818  0.20650157  0.60926878  1
  Rh  Rh248  1  0.39992209  -0.00633716  0.39908725  1
  Rh  Rh249  1  0.00429607  0.60497573  -0.00479637  1
