# generated using pymatgen
data_ZrScNbPdRh
_symmetry_space_group_name_H-M   'P 1'
_cell_length_a   16.55714064
_cell_length_b   16.55976117
_cell_length_c   16.56134508
_cell_angle_alpha   89.97054395
_cell_angle_beta   90.01937340
_cell_angle_gamma   90.03160941
_symmetry_Int_Tables_number   1
_chemical_formula_structural   ZrScNbPdRh
_chemical_formula_sum   'Zr50 Sc50 Nb50 Pd50 Rh50'
_cell_volume   4540.82604644
_cell_formula_units_Z   50
loop_
 _symmetry_equiv_pos_site_id
 _symmetry_equiv_pos_as_xyz
  1  'x, y, z'
loop_
 _atom_site_type_symbol
 _atom_site_label
 _atom_site_symmetry_multiplicity
 _atom_site_fract_x
 _atom_site_fract_y
 _atom_site_fract_z
 _atom_site_occupancy
  Zr  Zr0  1  0.50250504  0.89827977  0.69883288  1
  Zr  Zr1  1  0.89228121  0.09333786  0.68629825  1
  Zr  Zr2  1  0.10671740  0.30338435  0.10455093  1
  Zr  Zr3  1  0.30443712  0.50246724  0.50396093  1
  Zr  Zr4  1  0.29872520  0.68709583  0.10523532  1
  Zr  Zr5  1  0.69996906  0.49777776  0.71309645  1
  Zr  Zr6  1  0.89997228  0.29883056  0.30036342  1
  Zr  Zr7  1  0.50381464  0.51269136  0.89936485  1
  Zr  Zr8  1  0.49913369  0.70822199  0.89789672  1
  Zr  Zr9  1  0.29716520  0.49553828  0.88920450  1
  Zr  Zr10  1  0.90034323  0.89831139  0.89686934  1
  Zr  Zr11  1  0.90240031  0.69750109  0.09583670  1
  Zr  Zr12  1  0.50371344  0.09345348  0.69869670  1
  Zr  Zr13  1  0.31370125  0.09453268  0.90075086  1
  Zr  Zr14  1  0.10741752  0.09491647  0.70209622  1
  Zr  Zr15  1  0.69950142  0.69032904  0.89940517  1
  Zr  Zr16  1  0.90350377  0.50376896  0.70301731  1
  Zr  Zr17  1  0.70157269  0.31000905  0.90634049  1
  Zr  Zr18  1  0.10147453  0.69629128  0.70610556  1
  Zr  Zr19  1  0.29765773  0.69450172  0.49424570  1
  Zr  Zr20  1  0.69539337  0.49888826  0.49888426  1
  Zr  Zr21  1  0.50565890  0.30488358  0.50389713  1
  Zr  Zr22  1  0.90415972  0.09372279  0.10332180  1
  Zr  Zr23  1  0.69563038  0.71365424  0.09311771  1
  Zr  Zr24  1  0.69674985  0.10656829  0.50037796  1
  Zr  Zr25  1  0.09766225  0.29519074  0.30539667  1
  Zr  Zr26  1  0.70135635  0.49643003  0.30272053  1
  Zr  Zr27  1  0.69696202  0.10309846  0.10802161  1
  Zr  Zr28  1  0.89771479  0.70092015  0.49704852  1
  Zr  Zr29  1  0.10006258  0.30004837  0.49818084  1
  Zr  Zr30  1  0.90376659  0.69863172  0.89972245  1
  Zr  Zr31  1  0.91141506  0.90358935  0.50336789  1
  Zr  Zr32  1  0.10121778  0.50125061  0.70402660  1
  Zr  Zr33  1  0.69578263  0.48527773  0.09575534  1
  Zr  Zr34  1  0.09854932  0.29789146  0.68974664  1
  Zr  Zr35  1  0.30245518  0.50643343  0.29869183  1
  Zr  Zr36  1  0.10512448  0.50136262  0.10251491  1
  Zr  Zr37  1  0.28886830  0.29902752  0.50104182  1
  Zr  Zr38  1  0.49856442  0.69445393  0.09288121  1
  Zr  Zr39  1  0.10288323  0.69479126  0.09097787  1
  Zr  Zr40  1  0.90460969  0.30333550  0.69591984  1
  Zr  Zr41  1  0.69889108  0.90161601  0.10021104  1
  Zr  Zr42  1  0.30224885  0.30040823  0.89988977  1
  Zr  Zr43  1  0.10437212  0.89843833  0.29642362  1
  Zr  Zr44  1  0.49462736  0.70261085  0.30138894  1
  Zr  Zr45  1  0.90003740  0.10744943  0.29640617  1
  Zr  Zr46  1  0.10325670  0.30501165  0.90041166  1
  Zr  Zr47  1  0.09508832  0.89097330  0.68951460  1
  Zr  Zr48  1  0.49801933  0.70159262  0.70500046  1
  Zr  Zr49  1  0.30231457  0.90099901  0.30244833  1
  Sc  Sc50  1  0.68688474  0.29414886  0.49813597  1
  Sc  Sc51  1  0.49523550  0.29651956  0.90057323  1
  Sc  Sc52  1  0.70210359  0.90644424  0.69953618  1
  Sc  Sc53  1  0.50160015  0.09639604  0.50105967  1
  Sc  Sc54  1  0.91110827  0.29046537  0.50101768  1
  Sc  Sc55  1  0.10244575  0.49100430  0.29762274  1
  Sc  Sc56  1  0.69855691  0.89768240  0.28890058  1
  Sc  Sc57  1  0.30370638  0.31047350  0.70635652  1
  Sc  Sc58  1  0.50061939  0.30933594  0.69891071  1
  Sc  Sc59  1  0.89570933  0.50946989  0.50135654  1
  Sc  Sc60  1  0.30253294  0.90604309  0.11321447  1
  Sc  Sc61  1  0.29792591  0.09483863  0.69691189  1
  Sc  Sc62  1  0.69917049  0.09578926  0.68801225  1
  Sc  Sc63  1  0.30080916  0.09187051  0.50046584  1
  Sc  Sc64  1  0.51123922  0.30142337  0.29672853  1
  Sc  Sc65  1  0.69778614  0.70479623  0.30731007  1
  Sc  Sc66  1  0.09346818  0.09664840  0.10741009  1
  Sc  Sc67  1  0.90072749  0.30489587  0.90571713  1
  Sc  Sc68  1  0.49639386  0.89947836  0.30034628  1
  Sc  Sc69  1  0.90439627  0.49550950  0.10052972  1
  Sc  Sc70  1  0.70231695  0.69634433  0.49158118  1
  Sc  Sc71  1  0.10420291  0.49405986  0.50373064  1
  Sc  Sc72  1  0.29518567  0.90105526  0.70009772  1
  Sc  Sc73  1  0.48946599  0.49699974  0.70136353  1
  Sc  Sc74  1  0.09686769  0.10892490  0.50176620  1
  Sc  Sc75  1  0.70102025  0.88763424  0.90011867  1
  Sc  Sc76  1  0.90272104  0.90263976  0.29889439  1
  Sc  Sc77  1  0.50043799  0.70386945  0.49562195  1
  Sc  Sc78  1  0.90243772  0.49391400  0.29168827  1
  Sc  Sc79  1  0.89391510  0.70204554  0.30142235  1
  Sc  Sc80  1  0.49506954  0.09786666  0.29966167  1
  Sc  Sc81  1  0.28803008  0.30130810  0.29276409  1
  Sc  Sc82  1  0.30192796  0.09643430  0.28951727  1
  Sc  Sc83  1  0.10707069  0.70798247  0.50318501  1
  Sc  Sc84  1  0.49273595  0.11018586  0.10293155  1
  Sc  Sc85  1  0.29704925  0.69888291  0.69724503  1
  Sc  Sc86  1  0.09970110  0.50234296  0.89818053  1
  Sc  Sc87  1  0.69458769  0.89562722  0.50049921  1
  Sc  Sc88  1  0.30274502  0.89801793  0.50387681  1
  Sc  Sc89  1  0.49627688  0.90246715  0.49961541  1
  Sc  Sc90  1  0.50430850  0.89284388  0.10757547  1
  Sc  Sc91  1  0.69596773  0.70226767  0.70296085  1
  Sc  Sc92  1  0.10596683  0.89146090  0.89886159  1
  Sc  Sc93  1  0.89939985  0.10161244  0.90850992  1
  Sc  Sc94  1  0.90129469  0.89900832  0.10075659  1
  Sc  Sc95  1  0.09679456  0.08944402  0.90780637  1
  Sc  Sc96  1  0.90623340  0.29977228  0.10394989  1
  Sc  Sc97  1  0.70231204  0.10826188  0.90603350  1
  Sc  Sc98  1  0.49783103  0.49816381  0.30044686  1
  Sc  Sc99  1  0.91258137  0.69865907  0.70313628  1
  Nb  Nb100  1  0.30266571  0.90121848  0.90136178  1
  Nb  Nb101  1  0.87987061  0.50224667  0.89296827  1
  Nb  Nb102  1  0.50112474  0.49329730  0.50114418  1
  Nb  Nb103  1  0.50444845  0.31164707  0.10510109  1
  Nb  Nb104  1  0.11165665  0.69930113  0.29809510  1
  Nb  Nb105  1  0.09782402  0.90669037  0.10091766  1
  Nb  Nb106  1  0.49042783  0.90773638  0.89584811  1
  Nb  Nb107  1  0.10475139  0.69841119  0.89851708  1
  Nb  Nb108  1  0.10147196  0.89579804  0.49381933  1
  Nb  Nb109  1  0.50043003  0.09423956  0.89649424  1
  Nb  Nb110  1  0.70187057  0.29403761  0.29897136  1
  Nb  Nb111  1  0.29395288  0.69959848  0.30461408  1
  Nb  Nb112  1  0.69772615  0.30078036  0.70223580  1
  Nb  Nb113  1  0.29914174  0.10507458  0.10165128  1
  Nb  Nb114  1  0.68315454  0.29990944  0.11002230  1
  Nb  Nb115  1  0.49306453  0.50079941  0.10662008  1
  Nb  Nb116  1  0.89288883  0.09832448  0.49622007  1
  Nb  Nb117  1  0.30385117  0.29857019  0.10294693  1
  Nb  Nb118  1  0.09828526  0.09879891  0.29538544  1
  Nb  Nb119  1  0.70325776  0.10892080  0.30078811  1
  Nb  Nb120  1  0.90024963  0.89938268  0.69860226  1
  Nb  Nb121  1  0.29923671  0.50287710  0.70039481  1
  Nb  Nb122  1  0.28945010  0.70982207  0.90100705  1
  Nb  Nb123  1  0.71073401  0.49989425  0.89574171  1
  Nb  Nb124  1  0.30781061  0.49473308  0.10984655  1
  Nb  Nb125  1  0.19800746  0.19809021  0.80740833  1
  Nb  Nb126  1  0.60312947  0.19898568  0.80001198  1
  Nb  Nb127  1  0.20800216  -0.00021513  0.00552677  1
  Nb  Nb128  1  0.79545327  0.39790297  0.59979057  1
  Nb  Nb129  1  0.80808611  0.80132902  0.60109279  1
  Nb  Nb130  1  0.79775064  0.00840443  0.39897532  1
  Nb  Nb131  1  0.60901567  0.00557743  0.39433384  1
  Nb  Nb132  1  0.00633319  0.60585972  0.39411024  1
  Nb  Nb133  1  0.20760838  0.19534845  0.00269685  1
  Nb  Nb134  1  -0.00057632  0.19426409  0.79745881  1
  Nb  Nb135  1  0.60121953  0.59893047  0.19458115  1
  Nb  Nb136  1  0.39873920  0.39606201  0.40346164  1
  Nb  Nb137  1  0.79297697  -0.00068668  0.00505421  1
  Nb  Nb138  1  0.01174014  0.79494760  0.19815015  1
  Nb  Nb139  1  0.79910837  0.20458557  0.79451580  1
  Nb  Nb140  1  0.39181456  0.80255137  -0.00571223  1
  Nb  Nb141  1  0.40120456  0.40421543  0.01043350  1
  Nb  Nb142  1  0.79045112  0.59998362  0.19473700  1
  Nb  Nb143  1  0.59558526  0.59431445  0.59949992  1
  Nb  Nb144  1  0.79675439  0.39242644  0.40353100  1
  Nb  Nb145  1  0.19205516  -0.00342325  0.39687965  1
  Nb  Nb146  1  -0.00366868  -0.00227036  0.79393765  1
  Nb  Nb147  1  0.59382911  0.00195371  -0.00555538  1
  Nb  Nb148  1  0.39970946  0.20399895  0.59616642  1
  Nb  Nb149  1  0.39857928  0.20666552  0.40370276  1
  Pd  Pd150  1  0.00936252  0.60275501  0.58978594  1
  Pd  Pd151  1  0.20749309  0.58990460  -0.00486903  1
  Pd  Pd152  1  0.39498000  -0.00418544  0.78835779  1
  Pd  Pd153  1  0.79056679  0.60379708  0.60928577  1
  Pd  Pd154  1  -0.00391663  0.40908402  -0.00421150  1
  Pd  Pd155  1  0.20622705  0.18583673  0.39422144  1
  Pd  Pd156  1  0.20161864  0.80326324  0.79389575  1
  Pd  Pd157  1  0.40445879  -0.00726183  0.01427379  1
  Pd  Pd158  1  0.80265628  0.79340612  0.79160949  1
  Pd  Pd159  1  0.40396800  0.20705255  0.00430898  1
  Pd  Pd160  1  0.40752645  0.60427526  0.59876330  1
  Pd  Pd161  1  0.38828685  0.59946844  -0.00897555  1
  Pd  Pd162  1  0.00734502  0.00513577  0.59912664  1
  Pd  Pd163  1  0.59241095  0.39708744  0.80772331  1
  Pd  Pd164  1  -0.00303568  0.58959699  -0.00885090  1
  Pd  Pd165  1  -0.00298807  0.39948743  0.80595117  1
  Pd  Pd166  1  0.00330170  0.80393992  0.00225028  1
  Pd  Pd167  1  0.00077768  0.00810896  0.39638502  1
  Pd  Pd168  1  0.20683697  0.80969972  0.01203033  1
  Pd  Pd169  1  0.20943988  0.40181348  0.00531621  1
  Pd  Pd170  1  0.60650373  0.79239798  0.59658047  1
  Pd  Pd171  1  0.61398569  0.00462198  0.80754439  1
  Pd  Pd172  1  0.80107533  0.20837809  0.18882381  1
  Pd  Pd173  1  0.59174170  0.19732083  -0.00253415  1
  Pd  Pd174  1  0.58903656  0.40474124  -0.00869933  1
  Pd  Pd175  1  0.19979169  0.79799042  0.19117497  1
  Pd  Pd176  1  0.60696673  0.59295421  0.00488327  1
  Pd  Pd177  1  0.59242533  0.00601490  0.20094725  1
  Pd  Pd178  1  0.80651606  0.79601678  0.19906289  1
  Pd  Pd179  1  0.39561592  0.79763332  0.60006494  1
  Pd  Pd180  1  0.79784465  0.21055738  0.59750560  1
  Pd  Pd181  1  0.00368303  0.79214605  0.39101429  1
  Pd  Pd182  1  0.79944148  0.00888340  0.80915024  1
  Pd  Pd183  1  0.19559687  -0.00417984  0.58770689  1
  Pd  Pd184  1  0.20363121  0.40278073  0.60651384  1
  Pd  Pd185  1  0.79743542  0.59686960  0.00866256  1
  Pd  Pd186  1  0.60132529  0.80526768  0.80220196  1
  Pd  Pd187  1  0.00910356  0.19939469  -0.00163179  1
  Pd  Pd188  1  0.39746466  0.80240504  0.40506692  1
  Pd  Pd189  1  -0.00905820  0.40966629  0.40683900  1
  Pd  Pd190  1  0.79861072  0.81459981  0.40381868  1
  Pd  Pd191  1  0.59099614  0.59969117  0.39947190  1
  Pd  Pd192  1  0.79920406  0.20276292  0.00672638  1
  Pd  Pd193  1  0.80469302  0.39236549  0.01134199  1
  Pd  Pd194  1  0.19129153  0.59203259  0.40143944  1
  Pd  Pd195  1  0.39032357  0.60761406  0.80222028  1
  Pd  Pd196  1  0.40273103  0.19898795  0.78709152  1
  Pd  Pd197  1  -0.00311741  0.60562942  0.20793392  1
  Pd  Pd198  1  0.39676813  0.79429315  0.19461205  1
  Pd  Pd199  1  0.40340321  0.20879152  0.20924037  1
  Rh  Rh200  1  0.59153132  0.19235998  0.39094345  1
  Rh  Rh201  1  0.59939699  0.59966126  0.79412417  1
  Rh  Rh202  1  -0.00101088  0.19026518  0.60213638  1
  Rh  Rh203  1  0.58959456  0.20117402  0.61208887  1
  Rh  Rh204  1  0.59750185  0.78878460  0.20660888  1
  Rh  Rh205  1  0.59431906  0.19731386  0.20335088  1
  Rh  Rh206  1  0.20751807  0.40559437  0.39690908  1
  Rh  Rh207  1  0.80170293  0.20419462  0.40543713  1
  Rh  Rh208  1  0.19529612  0.39656711  0.79259601  1
  Rh  Rh209  1  0.40401441  0.59462822  0.40020001  1
  Rh  Rh210  1  0.39596779  0.00493305  0.39715746  1
  Rh  Rh211  1  0.60047545  0.40671234  0.20797095  1
  Rh  Rh212  1  0.59763535  0.81159806  0.39683503  1
  Rh  Rh213  1  0.19694233  0.00238441  0.81394552  1
  Rh  Rh214  1  0.80666269  0.80497881  -0.00181879  1
  Rh  Rh215  1  0.19536604  0.19506552  0.19484198  1
  Rh  Rh216  1  0.19962762  0.59564211  0.20269346  1
  Rh  Rh217  1  0.40663749  0.40530658  0.80830330  1
  Rh  Rh218  1  0.39925179  0.39233755  0.20510189  1
  Rh  Rh219  1  0.39344500  0.80227635  0.80208298  1
  Rh  Rh220  1  -0.00024799  -0.00860912  -0.00527741  1
  Rh  Rh221  1  0.60769690  0.40944245  0.60768441  1
  Rh  Rh222  1  0.40537886  0.00122892  0.19707550  1
  Rh  Rh223  1  0.79564492  0.39537374  0.20265031  1
  Rh  Rh224  1  0.79594445  -0.01315259  0.58657541  1
  Rh  Rh225  1  0.19914730  0.59862996  0.60287771  1
  Rh  Rh226  1  -0.00906446  0.41007772  0.59199178  1
  Rh  Rh227  1  0.39272641  0.39655148  0.59491132  1
  Rh  Rh228  1  0.40458849  0.60582563  0.20783451  1
  Rh  Rh229  1  0.40328426  0.00179227  0.60336017  1
  Rh  Rh230  1  0.58475723  0.81379783  -0.00957515  1
  Rh  Rh231  1  0.00585581  0.39593041  0.19970154  1
  Rh  Rh232  1  0.00054714  0.19367010  0.39993756  1
  Rh  Rh233  1  0.20940092  0.20003995  0.61020184  1
  Rh  Rh234  1  0.60074175  0.39766758  0.39368201  1
  Rh  Rh235  1  0.20635684  0.80575504  0.40393500  1
  Rh  Rh236  1  0.20123443  0.40278335  0.20123316  1
  Rh  Rh237  1  0.19759039  0.00650036  0.20042574  1
  Rh  Rh238  1  0.80589935  0.39194719  0.79462677  1
  Rh  Rh239  1  -0.00200446  -0.00793680  0.20387748  1
  Rh  Rh240  1  0.81239115  0.58897004  0.38488013  1
  Rh  Rh241  1  0.80306264  0.00184418  0.20142810  1
  Rh  Rh242  1  0.80274976  0.61115439  0.79390679  1
  Rh  Rh243  1  0.00515218  0.20384002  0.20057974  1
  Rh  Rh244  1  0.00469125  0.80361677  0.80280415  1
  Rh  Rh245  1  0.20284555  0.79869010  0.59843529  1
  Rh  Rh246  1  -0.00319493  0.79298032  0.59764124  1
  Rh  Rh247  1  0.00004584  0.59685502  0.81036049  1
  Rh  Rh248  1  0.59936896  -0.00621965  0.59037209  1
  Rh  Rh249  1  0.20260719  0.60324979  0.80170625  1
