# generated using pymatgen
data_ZrScNbPdRh
_symmetry_space_group_name_H-M   'P 1'
_cell_length_a   16.55521321
_cell_length_b   16.56303781
_cell_length_c   16.56197582
_cell_angle_alpha   90.02554196
_cell_angle_beta   90.01454478
_cell_angle_gamma   90.02849973
_symmetry_Int_Tables_number   1
_chemical_formula_structural   ZrScNbPdRh
_chemical_formula_sum   'Zr50 Sc50 Nb50 Pd50 Rh50'
_cell_volume   4541.36916389
_cell_formula_units_Z   50
loop_
 _symmetry_equiv_pos_site_id
 _symmetry_equiv_pos_as_xyz
  1  'x, y, z'
loop_
 _atom_site_type_symbol
 _atom_site_label
 _atom_site_symmetry_multiplicity
 _atom_site_fract_x
 _atom_site_fract_y
 _atom_site_fract_z
 _atom_site_occupancy
  Zr  Zr0  1  0.30180420  0.10138954  0.89234547  1
  Zr  Zr1  1  0.09138889  0.10800808  0.69294355  1
  Zr  Zr2  1  0.90634814  0.09076532  0.50672134  1
  Zr  Zr3  1  0.09691870  0.89929296  0.30194801  1
  Zr  Zr4  1  0.30357063  0.10193647  0.29873643  1
  Zr  Zr5  1  0.89706735  0.49842211  0.10517909  1
  Zr  Zr6  1  0.89824393  0.49834464  0.50719777  1
  Zr  Zr7  1  0.70789455  0.08785406  0.90431143  1
  Zr  Zr8  1  0.30464441  0.30397428  0.69866486  1
  Zr  Zr9  1  0.69884526  0.49697448  0.49725791  1
  Zr  Zr10  1  0.70680122  0.90339299  0.50073271  1
  Zr  Zr11  1  0.90371218  0.50587918  0.91024847  1
  Zr  Zr12  1  0.49873189  0.70125758  0.11751384  1
  Zr  Zr13  1  0.10077392  0.30383100  0.69581931  1
  Zr  Zr14  1  0.89810560  0.69450916  0.09202764  1
  Zr  Zr15  1  0.09878536  0.70330245  0.29145624  1
  Zr  Zr16  1  0.49342148  0.90292603  0.09839521  1
  Zr  Zr17  1  0.89927049  0.90085258  0.49944863  1
  Zr  Zr18  1  0.69504170  0.70545629  0.48780132  1
  Zr  Zr19  1  0.70067042  0.10679127  0.10444033  1
  Zr  Zr20  1  0.10204579  0.29693430  0.50858457  1
  Zr  Zr21  1  0.08867475  0.89894689  0.49844728  1
  Zr  Zr22  1  0.49859447  0.70152837  0.89783544  1
  Zr  Zr23  1  0.11060706  0.50564844  0.90424833  1
  Zr  Zr24  1  0.28879990  0.69868930  0.69192180  1
  Zr  Zr25  1  0.90197510  0.90219096  0.29969108  1
  Zr  Zr26  1  0.69390625  0.30027866  0.69774268  1
  Zr  Zr27  1  0.70367273  0.89644612  0.30863001  1
  Zr  Zr28  1  0.49675231  0.89772625  0.89156442  1
  Zr  Zr29  1  0.30283919  0.30002426  0.10751287  1
  Zr  Zr30  1  0.31712888  0.69227451  0.30120662  1
  Zr  Zr31  1  0.10078251  0.29983700  0.90417518  1
  Zr  Zr32  1  0.28964491  0.49139055  0.29422129  1
  Zr  Zr33  1  0.29722356  0.30956916  0.90187437  1
  Zr  Zr34  1  0.50414785  0.30384395  0.50159530  1
  Zr  Zr35  1  0.90190499  0.30685788  0.29446801  1
  Zr  Zr36  1  0.90346913  0.09910421  0.89977624  1
  Zr  Zr37  1  0.09519536  0.69887044  0.89551972  1
  Zr  Zr38  1  0.89814477  0.69592538  0.89430409  1
  Zr  Zr39  1  0.29446367  0.70193956  0.89829510  1
  Zr  Zr40  1  0.30288918  0.69835600  0.49884735  1
  Zr  Zr41  1  0.29861256  0.50138654  0.09824670  1
  Zr  Zr42  1  0.70137430  0.90142102  0.70422337  1
  Zr  Zr43  1  0.50543765  0.09988743  0.10115430  1
  Zr  Zr44  1  0.10643358  0.89376560  0.10943714  1
  Zr  Zr45  1  0.29988299  0.89600934  0.90004895  1
  Zr  Zr46  1  0.50459049  0.29796391  0.30203647  1
  Zr  Zr47  1  0.89692270  0.09792694  0.09175010  1
  Zr  Zr48  1  0.89363095  0.91660870  0.89859425  1
  Zr  Zr49  1  0.49654400  0.10712863  0.70446532  1
  Sc  Sc50  1  0.49958632  0.90235417  0.48473903  1
  Sc  Sc51  1  0.90011904  0.29900949  0.10259838  1
  Sc  Sc52  1  0.50996172  0.30045731  0.09581325  1
  Sc  Sc53  1  0.29779516  0.10046734  0.11007180  1
  Sc  Sc54  1  0.29877344  0.90994116  0.49920716  1
  Sc  Sc55  1  0.09626177  0.69883982  0.70194466  1
  Sc  Sc56  1  0.30190524  0.50236817  0.51136456  1
  Sc  Sc57  1  0.90198795  0.69977197  0.51337879  1
  Sc  Sc58  1  0.70419767  0.69526254  0.11145113  1
  Sc  Sc59  1  0.10404818  0.89206236  0.69822830  1
  Sc  Sc60  1  0.51144860  0.49010993  0.89538366  1
  Sc  Sc61  1  0.70504522  0.09736276  0.49473007  1
  Sc  Sc62  1  0.08998414  0.09968172  0.90079697  1
  Sc  Sc63  1  0.69599692  0.31193990  0.90187356  1
  Sc  Sc64  1  0.10178232  0.09439393  0.50393578  1
  Sc  Sc65  1  0.69929149  0.50131013  0.70470277  1
  Sc  Sc66  1  0.50244369  0.89813760  0.29447103  1
  Sc  Sc67  1  0.89884844  0.30663094  0.50370650  1
  Sc  Sc68  1  0.09861736  0.49203429  0.50630983  1
  Sc  Sc69  1  0.69676972  0.90642523  0.11177476  1
  Sc  Sc70  1  0.70527653  0.29341153  0.30590561  1
  Sc  Sc71  1  0.69902190  0.10218741  0.69395858  1
  Sc  Sc72  1  0.49641724  0.49260267  0.69585770  1
  Sc  Sc73  1  0.70176589  0.09863350  0.29895967  1
  Sc  Sc74  1  0.50194375  0.29729229  0.88774634  1
  Sc  Sc75  1  0.50347738  0.09925082  0.30376101  1
  Sc  Sc76  1  0.50213064  0.09514268  0.89942306  1
  Sc  Sc77  1  0.70435753  0.49967928  0.89525842  1
  Sc  Sc78  1  0.29609290  0.89727282  0.70358456  1
  Sc  Sc79  1  0.10442621  0.31155851  0.29959640  1
  Sc  Sc80  1  0.49832738  0.69781716  0.70987824  1
  Sc  Sc81  1  0.70817002  0.49904447  0.09629022  1
  Sc  Sc82  1  0.70659271  0.69524442  0.71309954  1
  Sc  Sc83  1  0.49640743  0.50119937  0.49598471  1
  Sc  Sc84  1  0.10423996  0.09752998  0.29820140  1
  Sc  Sc85  1  0.10219730  0.69997158  0.10037989  1
  Sc  Sc86  1  0.29902037  0.70390876  0.10407687  1
  Sc  Sc87  1  0.09959233  0.28652824  0.09956549  1
  Sc  Sc88  1  0.89630107  0.70466235  0.28702538  1
  Sc  Sc89  1  0.90188538  0.30681022  0.90942649  1
  Sc  Sc90  1  0.29549277  0.09517695  0.69463016  1
  Sc  Sc91  1  0.09903785  0.70114793  0.51468957  1
  Sc  Sc92  1  0.90227353  0.30357140  0.69277031  1
  Sc  Sc93  1  0.50084739  0.49411601  0.10043900  1
  Sc  Sc94  1  0.89758536  0.90284332  0.69442528  1
  Sc  Sc95  1  0.70004418  0.30096147  0.50030712  1
  Sc  Sc96  1  0.89310368  0.10391014  0.29547541  1
  Sc  Sc97  1  0.70375852  0.30013537  0.09855489  1
  Sc  Sc98  1  0.89517825  0.50559944  0.69813473  1
  Sc  Sc99  1  0.49964237  0.51180162  0.30453232  1
  Nb  Nb100  1  0.70498401  0.49950137  0.29890155  1
  Nb  Nb101  1  0.69968185  0.89461645  0.89769765  1
  Nb  Nb102  1  0.49577413  0.69726449  0.48407108  1
  Nb  Nb103  1  0.10418247  0.50364188  0.70438207  1
  Nb  Nb104  1  0.50033462  0.89578841  0.69720059  1
  Nb  Nb105  1  0.49977941  0.29422339  0.69754426  1
  Nb  Nb106  1  0.09863750  0.50427796  0.30052908  1
  Nb  Nb107  1  0.29857664  0.90348097  0.10531757  1
  Nb  Nb108  1  0.28703755  0.90798067  0.28430966  1
  Nb  Nb109  1  0.90799946  0.69345517  0.70213763  1
  Nb  Nb110  1  0.89965747  0.90084997  0.09765550  1
  Nb  Nb111  1  0.49160871  0.09297974  0.49897138  1
  Nb  Nb112  1  0.30512054  0.10447088  0.49855593  1
  Nb  Nb113  1  0.90016211  0.10016997  0.70339625  1
  Nb  Nb114  1  0.09954269  0.89846147  0.90342266  1
  Nb  Nb115  1  0.10340283  0.51372305  0.10721798  1
  Nb  Nb116  1  0.09673783  0.09784915  0.09666397  1
  Nb  Nb117  1  0.50983724  0.70019173  0.31155358  1
  Nb  Nb118  1  0.69915633  0.69830763  0.90165132  1
  Nb  Nb119  1  0.29684966  0.50027473  0.90080150  1
  Nb  Nb120  1  0.29809790  0.29832002  0.29924641  1
  Nb  Nb121  1  0.90158233  0.49570274  0.29989603  1
  Nb  Nb122  1  0.69005498  0.69497748  0.29972568  1
  Nb  Nb123  1  0.29299731  0.50140861  0.70864012  1
  Nb  Nb124  1  0.29777425  0.30087833  0.49908242  1
  Nb  Nb125  1  -0.00187870  0.59390706  0.39546890  1
  Nb  Nb126  1  0.20146846  0.79801788  0.39582157  1
  Nb  Nb127  1  0.20575644  0.20427503  0.40356393  1
  Nb  Nb128  1  0.59366224  0.79893471  0.59752198  1
  Nb  Nb129  1  0.40912438  0.79866262  0.59558286  1
  Nb  Nb130  1  0.19926689  -0.00439916  0.00246625  1
  Nb  Nb131  1  0.59585965  0.61075974  0.59421457  1
  Nb  Nb132  1  -0.00110789  -0.00140685  0.19257447  1
  Nb  Nb133  1  0.60473029  0.79789820  -0.00117746  1
  Nb  Nb134  1  0.60750436  0.40282054  0.20850407  1
  Nb  Nb135  1  0.59045658  -0.00391348  0.59874586  1
  Nb  Nb136  1  0.80436732  0.19858025  0.79969712  1
  Nb  Nb137  1  0.80327287  0.59683604  0.39282548  1
  Nb  Nb138  1  0.39113572  0.39206413  0.39814501  1
  Nb  Nb139  1  0.00480975  0.20306721  0.40173532  1
  Nb  Nb140  1  0.19836272  0.20381010  0.79792214  1
  Nb  Nb141  1  0.19281345  0.59958925  0.39798974  1
  Nb  Nb142  1  -0.00603812  0.80694417  -0.00311797  1
  Nb  Nb143  1  0.00643967  0.40773421  0.80090336  1
  Nb  Nb144  1  0.79576750  0.80418990  -0.00414123  1
  Nb  Nb145  1  0.39804215  0.20162411  -0.00142257  1
  Nb  Nb146  1  0.40112895  0.59725133  -0.00581866  1
  Nb  Nb147  1  0.40169184  0.20105672  0.59359841  1
  Nb  Nb148  1  0.39128018  0.59264783  0.80395188  1
  Nb  Nb149  1  0.59809656  0.60728023  -0.00163064  1
  Pd  Pd150  1  0.40384571  0.79382713  0.00544235  1
  Pd  Pd151  1  0.20437902  0.40657282  0.60059030  1
  Pd  Pd152  1  0.39553613  -0.00679187  0.38787031  1
  Pd  Pd153  1  0.39933413  -0.00291643  0.79172372  1
  Pd  Pd154  1  0.18924456  0.00536726  0.80445535  1
  Pd  Pd155  1  -0.00533436  0.60086493  0.20134020  1
  Pd  Pd156  1  0.79486864  0.80197698  0.19575238  1
  Pd  Pd157  1  0.20606621  0.18916074  -0.00258404  1
  Pd  Pd158  1  0.79565768  0.79060100  0.60778178  1
  Pd  Pd159  1  0.00907751  0.40471944  0.00680127  1
  Pd  Pd160  1  0.60218973  0.19220301  0.40556115  1
  Pd  Pd161  1  0.80874361  0.80055805  0.79961198  1
  Pd  Pd162  1  -0.00644670  0.80921471  0.80073112  1
  Pd  Pd163  1  0.60061226  0.00398614  0.79424653  1
  Pd  Pd164  1  0.40407142  0.40429496  0.80012563  1
  Pd  Pd165  1  0.81106445  0.20007837  0.40453675  1
  Pd  Pd166  1  0.39054069  0.00922604  0.00363999  1
  Pd  Pd167  1  0.79879856  0.20730243  -0.00782245  1
  Pd  Pd168  1  0.59974530  0.00120799  0.20753948  1
  Pd  Pd169  1  0.20014901  0.00240877  0.40353136  1
  Pd  Pd170  1  0.00762797  -0.00706346  0.79119300  1
  Pd  Pd171  1  0.40807137  0.19947365  0.19447325  1
  Pd  Pd172  1  0.81130409  0.78833900  0.39759689  1
  Pd  Pd173  1  0.19650551  -0.00295882  0.59825935  1
  Pd  Pd174  1  0.39119493  0.81375131  0.39605230  1
  Pd  Pd175  1  0.00348609  0.39866757  0.40415545  1
  Pd  Pd176  1  0.41104024  0.40307472  0.20834166  1
  Pd  Pd177  1  0.39759668  0.80634475  0.20838833  1
  Pd  Pd178  1  0.40298601  -0.00334763  0.60421432  1
  Pd  Pd179  1  -0.00093547  0.78401556  0.40519323  1
  Pd  Pd180  1  0.80018442  0.39991593  0.39984799  1
  Pd  Pd181  1  0.60041639  0.40894298  0.60277133  1
  Pd  Pd182  1  0.19182373  0.40087502  0.01331692  1
  Pd  Pd183  1  0.59536933  0.18894265  0.58829446  1
  Pd  Pd184  1  0.19535993  0.80072428  0.00103375  1
  Pd  Pd185  1  0.59666360  0.20183811  -0.01005285  1
  Pd  Pd186  1  0.61258145  0.19698712  0.80926970  1
  Pd  Pd187  1  0.00329994  0.19358499  0.20648690  1
  Pd  Pd188  1  0.40758845  0.60505077  0.60922917  1
  Pd  Pd189  1  0.18885536  0.39608300  0.18907135  1
  Pd  Pd190  1  0.60305069  -0.01000700  -0.00021314  1
  Pd  Pd191  1  0.39987165  0.20439651  0.40295825  1
  Pd  Pd192  1  0.00958214  0.40123742  0.18901131  1
  Pd  Pd193  1  0.78878620  0.60688531  0.59652516  1
  Pd  Pd194  1  0.40856329  0.39844950  -0.00407441  1
  Pd  Pd195  1  -0.00445216  0.21316244  0.80094954  1
  Pd  Pd196  1  0.60153391  0.59058472  0.19425057  1
  Pd  Pd197  1  0.80447382  0.19936851  0.60245029  1
  Pd  Pd198  1  0.81028196  0.39549601  0.79826626  1
  Pd  Pd199  1  0.60219213  0.79622858  0.79761678  1
  Rh  Rh200  1  0.19370922  0.39571356  0.79876706  1
  Rh  Rh201  1  0.60198359  0.00040812  0.40348488  1
  Rh  Rh202  1  0.20204205  0.60536352  0.79835468  1
  Rh  Rh203  1  0.39974611  0.39347978  0.59577918  1
  Rh  Rh204  1  0.59949726  0.39799028  0.78996892  1
  Rh  Rh205  1  0.79028702  0.60294125  -0.00325460  1
  Rh  Rh206  1  0.21107471  0.79020333  0.20760210  1
  Rh  Rh207  1  0.19256702  0.00922901  0.19307316  1
  Rh  Rh208  1  0.80313186  0.59636958  0.80265742  1
  Rh  Rh209  1  0.19239885  0.59379197  0.59675116  1
  Rh  Rh210  1  0.19764339  0.79843724  0.79966602  1
  Rh  Rh211  1  0.59880163  0.80765485  0.39812082  1
  Rh  Rh212  1  0.80422022  0.00365178  0.39668083  1
  Rh  Rh213  1  0.40420230  0.00117238  0.20177348  1
  Rh  Rh214  1  0.38797648  0.58234262  0.39792305  1
  Rh  Rh215  1  -0.00110161  0.40907456  0.61157801  1
  Rh  Rh216  1  0.00481141  0.59587626  0.60032247  1
  Rh  Rh217  1  -0.00556554  0.20031235  0.00066945  1
  Rh  Rh218  1  0.79643259  0.00804597  0.79065807  1
  Rh  Rh219  1  0.20469972  0.60446426  0.00464786  1
  Rh  Rh220  1  0.60773510  0.59236566  0.40309164  1
  Rh  Rh221  1  -0.00713379  0.80374119  0.18861093  1
  Rh  Rh222  1  -0.00179759  0.59089402  0.79547706  1
  Rh  Rh223  1  0.01193749  -0.00823674  0.00771698  1
  Rh  Rh224  1  0.19529427  0.19796488  0.20729319  1
  Rh  Rh225  1  0.00270479  -0.00569813  0.60813285  1
  Rh  Rh226  1  -0.00798009  0.20052232  0.59161366  1
  Rh  Rh227  1  0.80393791  0.00127137  0.19928585  1
  Rh  Rh228  1  -0.00540686  0.01305409  0.38749126  1
  Rh  Rh229  1  -0.00599328  0.80086976  0.60813377  1
  Rh  Rh230  1  0.40014163  0.59235919  0.19574332  1
  Rh  Rh231  1  0.21084980  0.19503072  0.60015428  1
  Rh  Rh232  1  0.79503823  0.39674601  0.20091002  1
  Rh  Rh233  1  0.38950485  0.79301527  0.78713852  1
  Rh  Rh234  1  0.00787656  0.60423759  0.00496803  1
  Rh  Rh235  1  0.39165286  0.20331042  0.79903450  1
  Rh  Rh236  1  0.80027897  0.40121876  0.00146018  1
  Rh  Rh237  1  0.20425333  0.60459710  0.20380017  1
  Rh  Rh238  1  0.79214744  0.39844082  0.60486299  1
  Rh  Rh239  1  0.20424727  0.40279361  0.40457207  1
  Rh  Rh240  1  0.60329392  0.79992371  0.20259414  1
  Rh  Rh241  1  0.20763815  0.80846286  0.58758396  1
  Rh  Rh242  1  0.79923626  0.20297076  0.19828728  1
  Rh  Rh243  1  0.59399389  0.40359049  0.39250027  1
  Rh  Rh244  1  0.80201777  0.59717398  0.20760225  1
  Rh  Rh245  1  0.60356372  0.20738361  0.20353589  1
  Rh  Rh246  1  0.79514883  0.00447190  0.60335362  1
  Rh  Rh247  1  0.59392076  0.59529789  0.79955555  1
  Rh  Rh248  1  0.78826857  -0.00788395  0.01057650  1
  Rh  Rh249  1  0.60463645  0.40844098  0.00941842  1
