# generated using pymatgen
data_ZrScNbPdRh
_symmetry_space_group_name_H-M   'P 1'
_cell_length_a   16.55802393
_cell_length_b   16.56428296
_cell_length_c   16.55900520
_cell_angle_alpha   90.03795826
_cell_angle_beta   89.99167815
_cell_angle_gamma   90.01889126
_symmetry_Int_Tables_number   1
_chemical_formula_structural   ZrScNbPdRh
_chemical_formula_sum   'Zr50 Sc50 Nb50 Pd50 Rh50'
_cell_volume   4541.66676704
_cell_formula_units_Z   50
loop_
 _symmetry_equiv_pos_site_id
 _symmetry_equiv_pos_as_xyz
  1  'x, y, z'
loop_
 _atom_site_type_symbol
 _atom_site_label
 _atom_site_symmetry_multiplicity
 _atom_site_fract_x
 _atom_site_fract_y
 _atom_site_fract_z
 _atom_site_occupancy
  Zr  Zr0  1  0.10049360  0.68918435  0.10184835  1
  Zr  Zr1  1  0.69095568  0.10069461  0.30137801  1
  Zr  Zr2  1  0.90311359  0.69293842  0.10242314  1
  Zr  Zr3  1  0.30026156  0.90027716  0.90652274  1
  Zr  Zr4  1  0.70224963  0.90046804  0.70348161  1
  Zr  Zr5  1  0.29891952  0.30683226  0.90626652  1
  Zr  Zr6  1  0.89230753  0.29762303  0.70046333  1
  Zr  Zr7  1  0.49587197  0.29769764  0.90679340  1
  Zr  Zr8  1  0.49804273  0.71678677  0.28237976  1
  Zr  Zr9  1  0.90398944  0.90164391  0.89383039  1
  Zr  Zr10  1  0.29205014  0.49487185  0.69242422  1
  Zr  Zr11  1  0.10058265  0.30638080  0.10268260  1
  Zr  Zr12  1  0.89920432  0.49696998  0.90390078  1
  Zr  Zr13  1  0.69162169  0.29572097  0.29764602  1
  Zr  Zr14  1  0.90427530  0.89511713  0.30689894  1
  Zr  Zr15  1  0.49674916  0.51077030  0.10024418  1
  Zr  Zr16  1  0.09543582  0.49919939  0.29936122  1
  Zr  Zr17  1  0.29487297  0.09435787  0.91127357  1
  Zr  Zr18  1  0.70937875  0.89018093  0.50303120  1
  Zr  Zr19  1  0.90474228  0.49971697  0.09685222  1
  Zr  Zr20  1  0.50661940  0.70637475  0.50575938  1
  Zr  Zr21  1  0.50441805  0.50150371  0.49706342  1
  Zr  Zr22  1  0.70453199  0.90494846  0.90052370  1
  Zr  Zr23  1  0.70369296  0.50878514  0.31264045  1
  Zr  Zr24  1  0.50084745  0.69931804  0.90593662  1
  Zr  Zr25  1  0.10204464  0.70082044  0.89896631  1
  Zr  Zr26  1  0.90412395  0.90788199  0.10405868  1
  Zr  Zr27  1  0.29948565  0.69946866  0.30656411  1
  Zr  Zr28  1  0.29694116  0.50408850  0.49483943  1
  Zr  Zr29  1  0.68537266  0.69891785  0.10552048  1
  Zr  Zr30  1  0.09210098  0.89923933  0.50151442  1
  Zr  Zr31  1  0.09892467  0.29295551  0.49482540  1
  Zr  Zr32  1  0.70580174  0.10363888  0.70779644  1
  Zr  Zr33  1  0.30238327  0.09654736  0.29686866  1
  Zr  Zr34  1  0.69955320  0.69621686  0.49150019  1
  Zr  Zr35  1  0.29385168  0.70311244  0.89793355  1
  Zr  Zr36  1  0.29876488  0.50009811  0.29944957  1
  Zr  Zr37  1  0.90023102  0.10479884  0.29662738  1
  Zr  Zr38  1  0.10604142  0.10957451  0.31252142  1
  Zr  Zr39  1  0.89786740  0.30859552  0.50557449  1
  Zr  Zr40  1  0.09688099  0.29566568  0.90645585  1
  Zr  Zr41  1  0.09994487  0.10305973  0.89363404  1
  Zr  Zr42  1  0.70194523  0.49548517  0.90734522  1
  Zr  Zr43  1  0.09857365  0.10229712  0.09376827  1
  Zr  Zr44  1  0.90512441  0.48949558  0.68827292  1
  Zr  Zr45  1  0.09716180  0.10100032  0.70508140  1
  Zr  Zr46  1  0.49162080  0.30023544  0.69979083  1
  Zr  Zr47  1  0.90862191  0.30275539  0.30179141  1
  Zr  Zr48  1  0.29693129  0.70081627  0.69418648  1
  Zr  Zr49  1  0.30399055  0.89908368  0.29536524  1
  Sc  Sc50  1  0.90434736  0.09764580  0.10087962  1
  Sc  Sc51  1  0.50394218  0.89193851  0.89558056  1
  Sc  Sc52  1  0.90520006  0.89754250  0.69144941  1
  Sc  Sc53  1  0.90035751  0.09885176  0.89782946  1
  Sc  Sc54  1  0.30394649  0.88572668  0.69548821  1
  Sc  Sc55  1  0.29436690  0.10545334  0.70469232  1
  Sc  Sc56  1  0.29464788  0.30935442  0.50042275  1
  Sc  Sc57  1  0.49218910  0.49867439  0.90918131  1
  Sc  Sc58  1  0.10301352  0.90159195  0.89284098  1
  Sc  Sc59  1  0.49536811  0.10468519  0.90410368  1
  Sc  Sc60  1  0.70490504  0.09864541  0.89652918  1
  Sc  Sc61  1  0.10214332  0.69483599  0.29558325  1
  Sc  Sc62  1  0.70153319  0.90770626  0.10524411  1
  Sc  Sc63  1  0.90272740  0.30585422  0.90183106  1
  Sc  Sc64  1  0.70349699  0.50583471  0.10196628  1
  Sc  Sc65  1  0.09777099  0.50000349  0.50041030  1
  Sc  Sc66  1  0.50104991  0.70939873  0.70067046  1
  Sc  Sc67  1  0.49418836  0.49676398  0.69271527  1
  Sc  Sc68  1  0.49700880  0.49322584  0.30058086  1
  Sc  Sc69  1  0.90037281  0.10098081  0.70600469  1
  Sc  Sc70  1  0.30010236  0.88784845  0.49507393  1
  Sc  Sc71  1  0.69018476  0.70474512  0.90588473  1
  Sc  Sc72  1  0.50894664  0.09476052  0.48036382  1
  Sc  Sc73  1  0.10472216  0.49504726  0.90833904  1
  Sc  Sc74  1  0.69350070  0.70380302  0.68427385  1
  Sc  Sc75  1  0.70391501  0.09808139  0.10739119  1
  Sc  Sc76  1  0.90538545  0.68910566  0.30477179  1
  Sc  Sc77  1  0.90427674  0.70472287  0.49675465  1
  Sc  Sc78  1  0.49949796  0.10341473  0.70882713  1
  Sc  Sc79  1  0.49955880  0.89846690  0.11628873  1
  Sc  Sc80  1  0.10177164  0.70413153  0.69405471  1
  Sc  Sc81  1  0.70518503  0.10090048  0.49077797  1
  Sc  Sc82  1  0.50064062  0.89117572  0.70217441  1
  Sc  Sc83  1  0.91075223  0.29931359  0.10215853  1
  Sc  Sc84  1  0.10577579  0.89928816  0.29942669  1
  Sc  Sc85  1  0.89963684  0.09446735  0.49408592  1
  Sc  Sc86  1  0.09779243  0.30315070  0.29829363  1
  Sc  Sc87  1  0.10318446  0.69280988  0.50136611  1
  Sc  Sc88  1  0.70245960  0.49572333  0.69384857  1
  Sc  Sc89  1  0.90880000  0.69550596  0.90405809  1
  Sc  Sc90  1  0.29801644  0.30737312  0.69660667  1
  Sc  Sc91  1  0.29693950  0.49588732  0.10172859  1
  Sc  Sc92  1  0.70522293  0.29616993  0.89741896  1
  Sc  Sc93  1  0.69306501  0.90121302  0.30079702  1
  Sc  Sc94  1  0.28348004  0.10443954  0.48920655  1
  Sc  Sc95  1  0.29369463  0.49682569  0.90522710  1
  Sc  Sc96  1  0.49140929  0.10440611  0.09922963  1
  Sc  Sc97  1  0.09383055  0.30216661  0.69604593  1
  Sc  Sc98  1  0.09741469  0.10163035  0.49925593  1
  Sc  Sc99  1  0.29849966  0.69190938  0.11108975  1
  Nb  Nb100  1  0.30026641  0.69845106  0.50188430  1
  Nb  Nb101  1  0.70077265  0.29761805  0.69437276  1
  Nb  Nb102  1  0.69909278  0.30211045  0.10276475  1
  Nb  Nb103  1  0.89772583  0.50242880  0.49240440  1
  Nb  Nb104  1  0.49583960  0.70127693  0.09876092  1
  Nb  Nb105  1  0.30757737  0.30328452  0.28935205  1
  Nb  Nb106  1  0.09582520  0.90219642  0.69707293  1
  Nb  Nb107  1  0.69904047  0.50384628  0.49969955  1
  Nb  Nb108  1  0.90097508  0.49558423  0.30791039  1
  Nb  Nb109  1  0.29721253  0.09217686  0.09709906  1
  Nb  Nb110  1  0.10125587  0.89891533  0.10144531  1
  Nb  Nb111  1  0.50396405  0.09679075  0.30129080  1
  Nb  Nb112  1  0.90145771  0.69471382  0.70094624  1
  Nb  Nb113  1  0.50201165  0.90507446  0.50193511  1
  Nb  Nb114  1  0.49996662  0.91726383  0.31004676  1
  Nb  Nb115  1  0.89652870  0.89533645  0.49680554  1
  Nb  Nb116  1  0.50097817  0.29868159  0.49704446  1
  Nb  Nb117  1  0.10177785  0.50000226  0.10366325  1
  Nb  Nb118  1  0.69721787  0.30033240  0.50247015  1
  Nb  Nb119  1  0.09812740  0.50553341  0.69129344  1
  Nb  Nb120  1  0.29725428  0.91595190  0.09577736  1
  Nb  Nb121  1  0.70450564  0.70474537  0.29921227  1
  Nb  Nb122  1  0.30956497  0.29955162  0.10937767  1
  Nb  Nb123  1  0.49501446  0.29409078  0.29084402  1
  Nb  Nb124  1  0.49849708  0.30530059  0.10874864  1
  Nb  Nb125  1  0.00289009  0.80398454  0.00720614  1
  Nb  Nb126  1  0.59830916  0.00081506  0.00054120  1
  Nb  Nb127  1  0.59870150  0.39789652  0.79912065  1
  Nb  Nb128  1  0.21032519  0.19984603  0.19572779  1
  Nb  Nb129  1  0.80460375  0.79191608  0.80033644  1
  Nb  Nb130  1  0.80373178  0.59664195  0.59516226  1
  Nb  Nb131  1  0.80126064  0.40150722  0.20602846  1
  Nb  Nb132  1  0.59895812  0.20087695  0.59696395  1
  Nb  Nb133  1  0.19878207  -0.00600877  0.60302481  1
  Nb  Nb134  1  0.40382448  0.20485592  0.39289658  1
  Nb  Nb135  1  0.59885512  0.59334168  0.79889923  1
  Nb  Nb136  1  0.80021880  0.79451403  0.20069179  1
  Nb  Nb137  1  0.79958772  0.20331374  0.00575912  1
  Nb  Nb138  1  0.80026072  0.60235123  0.79415533  1
  Nb  Nb139  1  0.60262302  0.39267921  0.59688252  1
  Nb  Nb140  1  0.39678879  0.60438855  0.59744475  1
  Nb  Nb141  1  0.40037749  0.00441675  0.59865770  1
  Nb  Nb142  1  -0.00047512  0.59441746  0.79326379  1
  Nb  Nb143  1  0.59799787  0.00386509  0.59964776  1
  Nb  Nb144  1  0.40541260  0.19471810  0.58763913  1
  Nb  Nb145  1  0.39792401  0.60175349  0.79549001  1
  Nb  Nb146  1  0.59863151  0.39196000  0.00535094  1
  Nb  Nb147  1  0.39557055  -0.00299878  0.79887613  1
  Nb  Nb148  1  0.39799202  0.79951474  0.01103743  1
  Nb  Nb149  1  0.80623082  0.80217490  0.00447844  1
  Pd  Pd150  1  -0.00642907  0.19471944  0.59860322  1
  Pd  Pd151  1  0.39940468  0.39374175  0.40097591  1
  Pd  Pd152  1  0.58952346  0.00256790  0.80271315  1
  Pd  Pd153  1  0.38924451  0.19605516  0.80102201  1
  Pd  Pd154  1  0.80317675  0.59803863  0.20571319  1
  Pd  Pd155  1  0.80300878  0.20630627  0.40114671  1
  Pd  Pd156  1  0.00210277  0.00146799  0.39615785  1
  Pd  Pd157  1  -0.00132467  0.79444217  0.59869198  1
  Pd  Pd158  1  0.60817930  0.19743434  0.00742101  1
  Pd  Pd159  1  0.20067909  0.80061067  0.01303986  1
  Pd  Pd160  1  0.40557883  0.00327017  0.19809961  1
  Pd  Pd161  1  0.59535163  0.59589816  0.20957327  1
  Pd  Pd162  1  0.40870098  0.80034992  0.40066302  1
  Pd  Pd163  1  0.79419700  0.39302749  0.39810160  1
  Pd  Pd164  1  0.19070423  0.39885413  0.79825718  1
  Pd  Pd165  1  0.79893949  0.00385817  0.60196568  1
  Pd  Pd166  1  0.60194027  0.20601476  0.79932607  1
  Pd  Pd167  1  0.80005201  -0.00545823  0.21055615  1
  Pd  Pd168  1  0.40093862  0.41045081  0.80418010  1
  Pd  Pd169  1  0.79683729  -0.00325070  0.39324749  1
  Pd  Pd170  1  0.00828157  0.79195518  0.39775218  1
  Pd  Pd171  1  0.01015950  0.00602836  0.21065915  1
  Pd  Pd172  1  0.80537316  0.20788434  0.19508623  1
  Pd  Pd173  1  0.20646638  0.20654375  0.00789617  1
  Pd  Pd174  1  0.59762398  0.81368908  0.01154180  1
  Pd  Pd175  1  0.20477043  0.80079219  0.19396523  1
  Pd  Pd176  1  0.19538338  0.80639045  0.79237856  1
  Pd  Pd177  1  0.79858494  0.19028440  0.59502564  1
  Pd  Pd178  1  0.79345111  0.61262194  -0.00679447  1
  Pd  Pd179  1  0.59551597  0.80533297  0.39565524  1
  Pd  Pd180  1  0.60593287  0.41028814  0.19788188  1
  Pd  Pd181  1  0.38946972  0.00479791  0.40954054  1
  Pd  Pd182  1  0.19099284  0.00629352  0.20165220  1
  Pd  Pd183  1  0.79428146  0.40188797  0.79692896  1
  Pd  Pd184  1  0.58827131  0.61047051  0.38677915  1
  Pd  Pd185  1  0.59966340  0.39497405  0.39972596  1
  Pd  Pd186  1  0.19634279  0.39654969  0.39514107  1
  Pd  Pd187  1  0.59394119  0.19255723  0.19227603  1
  Pd  Pd188  1  0.19269288  0.79663138  0.40167863  1
  Pd  Pd189  1  0.20476636  0.19747390  0.60200982  1
  Pd  Pd190  1  0.19638163  0.59415499  0.79729023  1
  Pd  Pd191  1  0.00814858  0.40372914  0.80033771  1
  Pd  Pd192  1  0.38745888  0.60621798  -0.00319964  1
  Pd  Pd193  1  -0.00242626  0.79648842  0.20036224  1
  Pd  Pd194  1  0.41003904  0.60961739  0.39873336  1
  Pd  Pd195  1  0.20861916  -0.00965406  0.79039836  1
  Pd  Pd196  1  0.00621644  -0.00321845  -0.00726998  1
  Pd  Pd197  1  0.20394390  0.21119158  0.79750041  1
  Pd  Pd198  1  0.39317166  0.20248029  0.00560084  1
  Pd  Pd199  1  -0.00106497  0.00573302  0.59932535  1
  Rh  Rh200  1  0.79824963  0.38861842  0.01450243  1
  Rh  Rh201  1  0.19995178  -0.01258414  0.40984656  1
  Rh  Rh202  1  0.00307080  0.59729577  0.40229373  1
  Rh  Rh203  1  0.20024258  0.59616350  0.00422159  1
  Rh  Rh204  1  0.61167396  -0.00862916  0.40867126  1
  Rh  Rh205  1  0.39766182  0.79813051  0.81274814  1
  Rh  Rh206  1  0.40230965  0.79989011  0.59159242  1
  Rh  Rh207  1  0.40296385  0.40232097  0.58803903  1
  Rh  Rh208  1  0.59403552  0.00546624  0.19589765  1
  Rh  Rh209  1  0.01155601  0.19410997  0.20207154  1
  Rh  Rh210  1  0.00422269  0.40285000  0.00182132  1
  Rh  Rh211  1  0.79245341  0.40631941  0.59144245  1
  Rh  Rh212  1  0.60025190  0.81320574  0.59887609  1
  Rh  Rh213  1  0.60595825  0.80779345  0.20153054  1
  Rh  Rh214  1  0.39840187  0.19032335  0.20202968  1
  Rh  Rh215  1  0.80772993  0.79097938  0.60299219  1
  Rh  Rh216  1  0.38830478  0.80576364  0.19355362  1
  Rh  Rh217  1  -0.00823042  0.20082618  0.40425707  1
  Rh  Rh218  1  0.19612839  0.60146062  0.39861316  1
  Rh  Rh219  1  -0.00531385  0.59925645  0.60010792  1
  Rh  Rh220  1  0.20273844  0.39604514  0.00900941  1
  Rh  Rh221  1  0.19366767  0.80520825  0.59412280  1
  Rh  Rh222  1  -0.00130003  0.79266281  0.80304114  1
  Rh  Rh223  1  0.00549716  0.39785314  0.59168632  1
  Rh  Rh224  1  0.60056547  0.59126679  -0.00339283  1
  Rh  Rh225  1  0.80937449  -0.00770774  0.79277490  1
  Rh  Rh226  1  0.21246280  0.21517328  0.38633452  1
  Rh  Rh227  1  0.41368614  -0.01219548  -0.00637533  1
  Rh  Rh228  1  0.80386786  0.79601370  0.39197542  1
  Rh  Rh229  1  0.20152573  0.39637616  0.20036536  1
  Rh  Rh230  1  -0.00046140  0.00072949  0.79491472  1
  Rh  Rh231  1  0.80572461  0.20569803  0.80925459  1
  Rh  Rh232  1  0.59897734  0.58837267  0.60699991  1
  Rh  Rh233  1  -0.01042957  0.19836478  -0.00383960  1
  Rh  Rh234  1  -0.00570936  0.40710794  0.19976778  1
  Rh  Rh235  1  -0.00384070  0.20511572  0.80165141  1
  Rh  Rh236  1  0.61166980  0.78917374  0.79541596  1
  Rh  Rh237  1  0.79238782  0.00679724  0.00122040  1
  Rh  Rh238  1  0.59518878  0.20599461  0.39905699  1
  Rh  Rh239  1  -0.00148405  0.59166673  0.20460301  1
  Rh  Rh240  1  0.80519147  0.60567770  0.40502964  1
  Rh  Rh241  1  0.40326500  0.39743612  0.00936045  1
  Rh  Rh242  1  0.18717515  -0.00301861  -0.00061401  1
  Rh  Rh243  1  0.20330964  0.59931915  0.59549336  1
  Rh  Rh244  1  0.40006459  0.59811999  0.20579835  1
  Rh  Rh245  1  0.40298470  0.41050821  0.19617934  1
  Rh  Rh246  1  0.00446341  0.40130080  0.40752346  1
  Rh  Rh247  1  0.01148190  0.59871766  -0.00766464  1
  Rh  Rh248  1  0.20183430  0.59336189  0.20452419  1
  Rh  Rh249  1  0.18965626  0.39930424  0.59715479  1
