# generated using pymatgen
data_ZrScNbPdRh
_symmetry_space_group_name_H-M   'P 1'
_cell_length_a   16.56049882
_cell_length_b   16.56015909
_cell_length_c   16.55885681
_cell_angle_alpha   89.99613998
_cell_angle_beta   89.98813405
_cell_angle_gamma   90.00125833
_symmetry_Int_Tables_number   1
_chemical_formula_structural   ZrScNbPdRh
_chemical_formula_sum   'Zr50 Sc50 Nb50 Pd50 Rh50'
_cell_volume   4541.17521470
_cell_formula_units_Z   50
loop_
 _symmetry_equiv_pos_site_id
 _symmetry_equiv_pos_as_xyz
  1  'x, y, z'
loop_
 _atom_site_type_symbol
 _atom_site_label
 _atom_site_symmetry_multiplicity
 _atom_site_fract_x
 _atom_site_fract_y
 _atom_site_fract_z
 _atom_site_occupancy
  Zr  Zr0  1  0.90624843  0.10356131  0.30256845  1
  Zr  Zr1  1  0.30581156  0.10099080  0.71117398  1
  Zr  Zr2  1  0.10011751  0.69865728  0.49784091  1
  Zr  Zr3  1  0.49907261  0.69918641  0.09389693  1
  Zr  Zr4  1  0.09761423  0.09703087  0.29449313  1
  Zr  Zr5  1  0.08573091  0.29823189  0.89776832  1
  Zr  Zr6  1  0.50298473  0.49884882  0.30121220  1
  Zr  Zr7  1  0.10676044  0.29784035  0.50190570  1
  Zr  Zr8  1  0.90954795  0.49228496  0.90765576  1
  Zr  Zr9  1  0.49970288  0.30190659  0.90396527  1
  Zr  Zr10  1  0.29551837  0.29985331  0.29794753  1
  Zr  Zr11  1  0.30092057  0.49965271  0.90256608  1
  Zr  Zr12  1  0.70117599  0.50166594  0.10238515  1
  Zr  Zr13  1  0.10074333  0.49727825  0.49634687  1
  Zr  Zr14  1  0.50158147  0.30038273  0.50235977  1
  Zr  Zr15  1  0.09716548  0.49647127  0.69916827  1
  Zr  Zr16  1  0.29561500  0.30301085  0.49416257  1
  Zr  Zr17  1  0.09905205  0.90923131  0.50760993  1
  Zr  Zr18  1  0.90664408  0.10463777  0.10284364  1
  Zr  Zr19  1  0.48949024  0.88441692  0.71487480  1
  Zr  Zr20  1  0.70095333  0.89311555  0.50036737  1
  Zr  Zr21  1  0.49259750  0.88767623  0.49189596  1
  Zr  Zr22  1  0.89098493  0.89612817  0.50750420  1
  Zr  Zr23  1  0.29507307  0.69702883  0.29282965  1
  Zr  Zr24  1  0.89873397  0.70794017  0.69990024  1
  Zr  Zr25  1  0.49962828  0.50852029  0.49227255  1
  Zr  Zr26  1  0.30130765  0.29816547  0.69894180  1
  Zr  Zr27  1  0.11139119  0.89694548  0.90007358  1
  Zr  Zr28  1  0.90281512  0.89484106  0.10667755  1
  Zr  Zr29  1  0.70266173  0.69524141  0.30107643  1
  Zr  Zr30  1  0.69028336  0.90117378  0.90332032  1
  Zr  Zr31  1  0.10339641  0.70846560  0.70507233  1
  Zr  Zr32  1  0.90017627  0.30183535  0.50030130  1
  Zr  Zr33  1  0.90661480  0.30030817  0.09412415  1
  Zr  Zr34  1  0.10102758  0.69660003  0.29724356  1
  Zr  Zr35  1  0.10059162  0.89570644  0.70259489  1
  Zr  Zr36  1  0.29669122  0.90144797  0.50264297  1
  Zr  Zr37  1  0.70110290  0.49445952  0.89620564  1
  Zr  Zr38  1  0.09668486  0.10618476  0.50201806  1
  Zr  Zr39  1  0.28725523  0.09920283  0.90487499  1
  Zr  Zr40  1  0.89518389  0.89996011  0.89562928  1
  Zr  Zr41  1  0.50495711  0.09792783  0.49977725  1
  Zr  Zr42  1  0.30478872  0.09967151  0.29073396  1
  Zr  Zr43  1  0.69160790  0.10350518  0.30381505  1
  Zr  Zr44  1  0.50664111  0.49323553  0.09951504  1
  Zr  Zr45  1  0.90183844  0.49932138  0.49270442  1
  Zr  Zr46  1  0.51083290  0.71263544  0.89028494  1
  Zr  Zr47  1  0.50352601  0.10635301  0.69829918  1
  Zr  Zr48  1  0.90279291  0.50169903  0.29798599  1
  Zr  Zr49  1  0.09988441  0.69951502  0.90604057  1
  Sc  Sc50  1  0.68817557  0.09410607  0.09968820  1
  Sc  Sc51  1  0.31280922  0.70103017  0.49237005  1
  Sc  Sc52  1  0.89586108  0.09773831  0.69806353  1
  Sc  Sc53  1  0.69933180  0.10559301  0.50197167  1
  Sc  Sc54  1  0.10486882  0.89552927  0.10653522  1
  Sc  Sc55  1  0.70511922  0.70202418  0.89951768  1
  Sc  Sc56  1  0.89947077  0.90463385  0.69601715  1
  Sc  Sc57  1  0.29700498  0.90926157  0.29384455  1
  Sc  Sc58  1  0.70282035  0.49932119  0.29906291  1
  Sc  Sc59  1  0.88803352  0.49218403  0.69727356  1
  Sc  Sc60  1  0.70202294  0.29941603  0.89197408  1
  Sc  Sc61  1  0.49466457  0.10214465  0.89362602  1
  Sc  Sc62  1  0.49913925  0.09270799  0.10998501  1
  Sc  Sc63  1  0.70696141  0.29825240  0.49764441  1
  Sc  Sc64  1  0.09534013  0.10696782  0.69621922  1
  Sc  Sc65  1  0.69606407  0.68716327  0.70577974  1
  Sc  Sc66  1  0.29943246  0.69883069  0.91464121  1
  Sc  Sc67  1  0.50574552  0.30805598  0.29749770  1
  Sc  Sc68  1  0.90065406  0.70325088  0.90475255  1
  Sc  Sc69  1  0.90123846  0.10460826  0.50566219  1
  Sc  Sc70  1  0.89671540  0.11559829  0.89819757  1
  Sc  Sc71  1  0.49171568  0.49530453  0.89275905  1
  Sc  Sc72  1  0.29491954  0.09812956  0.10007549  1
  Sc  Sc73  1  0.31809818  0.50539075  0.70939183  1
  Sc  Sc74  1  0.50204089  0.29230625  0.70700704  1
  Sc  Sc75  1  0.70108226  0.10385579  0.69689269  1
  Sc  Sc76  1  0.50017304  0.30601564  0.10143200  1
  Sc  Sc77  1  0.09855248  0.50265057  0.29448342  1
  Sc  Sc78  1  0.50943056  0.89963821  0.09378314  1
  Sc  Sc79  1  0.49837211  0.69924434  0.31416561  1
  Sc  Sc80  1  0.28996910  0.10457751  0.50243313  1
  Sc  Sc81  1  0.70025953  0.09858066  0.89574244  1
  Sc  Sc82  1  0.70540719  0.70138572  0.10762388  1
  Sc  Sc83  1  0.10817808  0.70123306  0.09859471  1
  Sc  Sc84  1  0.70731974  0.70034173  0.49204794  1
  Sc  Sc85  1  0.49398896  0.90437995  0.30287267  1
  Sc  Sc86  1  0.69450819  0.89518416  0.10322870  1
  Sc  Sc87  1  0.89470791  0.69981238  0.29676909  1
  Sc  Sc88  1  0.70995865  0.50132274  0.49773059  1
  Sc  Sc89  1  0.70010553  0.88458576  0.30061996  1
  Sc  Sc90  1  0.90404596  0.30450683  0.30084609  1
  Sc  Sc91  1  0.30281739  0.49948035  0.30186283  1
  Sc  Sc92  1  0.69461588  0.30906434  0.09866384  1
  Sc  Sc93  1  0.89907899  0.49934151  0.10063915  1
  Sc  Sc94  1  0.71309200  0.90070687  0.69893997  1
  Sc  Sc95  1  0.30575166  0.29408746  0.90287457  1
  Sc  Sc96  1  0.09013926  0.50514607  0.09770945  1
  Sc  Sc97  1  0.09248211  0.29819890  0.69536681  1
  Sc  Sc98  1  0.29458655  0.29107257  0.10386959  1
  Sc  Sc99  1  0.30243407  0.51455107  0.10191328  1
  Nb  Nb100  1  0.50347594  0.69884929  0.50183416  1
  Nb  Nb101  1  0.89875962  0.30007020  0.71024705  1
  Nb  Nb102  1  0.30055796  0.49299078  0.49762960  1
  Nb  Nb103  1  0.10010679  0.10826731  0.09111892  1
  Nb  Nb104  1  0.50311491  0.90027402  0.90154792  1
  Nb  Nb105  1  0.09869091  0.10013514  0.90457050  1
  Nb  Nb106  1  0.30161000  0.69924971  0.70352883  1
  Nb  Nb107  1  0.90662106  0.90565065  0.29822651  1
  Nb  Nb108  1  0.49580343  0.09878185  0.30224019  1
  Nb  Nb109  1  0.29885767  0.89699395  0.09524771  1
  Nb  Nb110  1  0.49296328  0.68682073  0.69564603  1
  Nb  Nb111  1  0.10005151  0.29647355  0.10376566  1
  Nb  Nb112  1  0.29704685  0.70466840  0.10275103  1
  Nb  Nb113  1  0.10653785  0.29651525  0.28776845  1
  Nb  Nb114  1  0.69888199  0.49204266  0.70127743  1
  Nb  Nb115  1  0.70282968  0.31074851  0.70022785  1
  Nb  Nb116  1  0.89753790  0.69906240  0.09781031  1
  Nb  Nb117  1  0.09278928  0.90016419  0.30226597  1
  Nb  Nb118  1  0.90165857  0.30128001  0.89492467  1
  Nb  Nb119  1  0.29544618  0.89646266  0.70921647  1
  Nb  Nb120  1  0.50430135  0.50844509  0.69529850  1
  Nb  Nb121  1  0.09878683  0.50240008  0.90209875  1
  Nb  Nb122  1  0.89847395  0.70004381  0.49758938  1
  Nb  Nb123  1  0.70703916  0.29673155  0.30228639  1
  Nb  Nb124  1  0.30189741  0.90740555  0.89462546  1
  Nb  Nb125  1  0.39672164  -0.00797573  -0.00571470  1
  Nb  Nb126  1  0.79634922  0.19843676  0.20135083  1
  Nb  Nb127  1  0.59616855  0.20132223  -0.00271888  1
  Nb  Nb128  1  0.40067331  -0.00678118  0.60792187  1
  Nb  Nb129  1  -0.00060883  0.80468128  0.39888555  1
  Nb  Nb130  1  0.60005371  0.40667748  0.60553510  1
  Nb  Nb131  1  0.20463351  0.59827465  0.60305391  1
  Nb  Nb132  1  0.19259541  0.39968683  -0.00182621  1
  Nb  Nb133  1  0.59121064  0.79165041  0.60317696  1
  Nb  Nb134  1  0.00016048  0.60177356  0.60072777  1
  Nb  Nb135  1  0.00207288  0.59840988  0.79759710  1
  Nb  Nb136  1  0.00326081  0.00275854  0.80881611  1
  Nb  Nb137  1  0.80240339  -0.00188423  0.39437440  1
  Nb  Nb138  1  0.00247578  0.00320888  -0.00246789  1
  Nb  Nb139  1  0.40710765  0.40608606  0.59853204  1
  Nb  Nb140  1  0.19734063  0.40430880  0.80577116  1
  Nb  Nb141  1  0.80239591  0.00234160  0.20428492  1
  Nb  Nb142  1  0.59416831  -0.00562935  0.79458717  1
  Nb  Nb143  1  0.19889169  0.59890195  0.79985282  1
  Nb  Nb144  1  0.60145050  0.59596998  -0.00215492  1
  Nb  Nb145  1  0.59063750  -0.01349464  0.60331751  1
  Nb  Nb146  1  0.39451598  0.79905861  0.19172194  1
  Nb  Nb147  1  0.40409929  0.19722117  0.39423690  1
  Nb  Nb148  1  0.19226404  0.80675623  0.39612785  1
  Nb  Nb149  1  0.80555799  0.00066812  0.00570721  1
  Pd  Pd150  1  0.40697721  0.60447612  0.20428334  1
  Pd  Pd151  1  0.19384220  0.00142665  0.19306142  1
  Pd  Pd152  1  0.20781461  0.60102604  0.40434415  1
  Pd  Pd153  1  -0.00306484  0.60650580  0.19254446  1
  Pd  Pd154  1  -0.00866181  0.40033335  0.60263331  1
  Pd  Pd155  1  0.81011368  0.59457121  0.80380491  1
  Pd  Pd156  1  0.00396857  0.80490009  0.00192555  1
  Pd  Pd157  1  0.78678497  0.19685133  0.00917727  1
  Pd  Pd158  1  0.39205832  0.59614211  0.59193417  1
  Pd  Pd159  1  0.19258688  0.40189858  0.38904772  1
  Pd  Pd160  1  0.40792803  0.20482597  0.20154696  1
  Pd  Pd161  1  0.79590423  0.20085525  0.79401173  1
  Pd  Pd162  1  -0.00109307  0.79009368  0.20246153  1
  Pd  Pd163  1  0.58737154  0.79696483  0.20675830  1
  Pd  Pd164  1  0.20011087  0.00296588  0.39653117  1
  Pd  Pd165  1  0.39247265  0.00808757  0.40800441  1
  Pd  Pd166  1  0.19370795  0.20889645  0.79967084  1
  Pd  Pd167  1  0.60056281  0.20654285  0.19392583  1
  Pd  Pd168  1  0.79575555  0.79962220  0.79796137  1
  Pd  Pd169  1  0.39743558  0.79826333  0.60365910  1
  Pd  Pd170  1  0.59142914  0.39990215  0.79645426  1
  Pd  Pd171  1  0.40635556  0.18761001  0.00669624  1
  Pd  Pd172  1  0.59846102  0.59561595  0.80716012  1
  Pd  Pd173  1  0.41034551  0.60070540  -0.00639638  1
  Pd  Pd174  1  0.61104006  0.40095928  0.40521744  1
  Pd  Pd175  1  0.38821920  0.79000964  0.81115394  1
  Pd  Pd176  1  0.80119793  0.39362094  0.20165292  1
  Pd  Pd177  1  0.60618659  -0.00708949  0.40117079  1
  Pd  Pd178  1  0.21020888  0.79150159  0.59334039  1
  Pd  Pd179  1  0.21192250  0.40847641  0.61101244  1
  Pd  Pd180  1  0.59515092  0.20603301  0.39841655  1
  Pd  Pd181  1  0.39417618  0.19936549  0.59139375  1
  Pd  Pd182  1  0.20468563  0.00683657  0.61229715  1
  Pd  Pd183  1  0.00649925  0.21018963  0.39676784  1
  Pd  Pd184  1  0.01005290  0.39342324  0.39148768  1
  Pd  Pd185  1  0.39315474  0.40060205  0.19535956  1
  Pd  Pd186  1  0.59643887  0.60334891  0.19856992  1
  Pd  Pd187  1  0.79732617  0.60015411  -0.00129599  1
  Pd  Pd188  1  0.38705266  0.39806974  0.01254173  1
  Pd  Pd189  1  0.80100704  0.20491975  0.60529149  1
  Pd  Pd190  1  0.80225679  0.60167968  0.60012309  1
  Pd  Pd191  1  -0.00170535  0.79854176  0.59502015  1
  Pd  Pd192  1  0.20060675  0.41080698  0.18841512  1
  Pd  Pd193  1  0.19046543  0.00609034  0.79261169  1
  Pd  Pd194  1  -0.00752629  -0.00258015  0.41177173  1
  Pd  Pd195  1  0.61151063  0.60070515  0.59241435  1
  Pd  Pd196  1  0.79352511  0.80561623  0.00477277  1
  Pd  Pd197  1  0.79814894  0.39361451  -0.00319553  1
  Pd  Pd198  1  0.60267813  -0.00925716  0.21123124  1
  Pd  Pd199  1  0.39966503  0.80588554  -0.00074087  1
  Rh  Rh200  1  0.21140588  0.79113678  0.80962459  1
  Rh  Rh201  1  0.19768608  0.59462821  0.00240659  1
  Rh  Rh202  1  0.60633158  0.19590038  0.80378756  1
  Rh  Rh203  1  0.20487869  0.80291526  -0.00199779  1
  Rh  Rh204  1  -0.00455472  0.80442237  0.80338421  1
  Rh  Rh205  1  0.39737515  0.59873124  0.39800800  1
  Rh  Rh206  1  0.59940135  0.79431549  0.40296917  1
  Rh  Rh207  1  -0.00720990  0.60740585  0.40259372  1
  Rh  Rh208  1  -0.00410797  0.19317131  0.79621026  1
  Rh  Rh209  1  0.00560517  0.39630370  0.00724237  1
  Rh  Rh210  1  0.78749933  0.78562984  0.60653635  1
  Rh  Rh211  1  0.40481686  -0.01233246  0.18715896  1
  Rh  Rh212  1  0.40152531  0.39251772  0.79000797  1
  Rh  Rh213  1  0.60674456  0.60048429  0.40272549  1
  Rh  Rh214  1  0.19485263  0.21108709  -0.00127025  1
  Rh  Rh215  1  0.00530806  0.00164951  0.18845421  1
  Rh  Rh216  1  -0.00111327  0.00238100  0.60870060  1
  Rh  Rh217  1  0.79985308  0.39995847  0.39615671  1
  Rh  Rh218  1  0.59481497  0.01182414  -0.01234115  1
  Rh  Rh219  1  0.61236538  0.21127599  0.60496357  1
  Rh  Rh220  1  0.80184338  0.00342917  0.80826037  1
  Rh  Rh221  1  0.80182267  0.19524736  0.39342176  1
  Rh  Rh222  1  0.00110008  0.19969816  -0.00344693  1
  Rh  Rh223  1  0.80428097  0.80188027  0.20233461  1
  Rh  Rh224  1  0.20062691  0.19899351  0.60504078  1
  Rh  Rh225  1  0.80369050  0.59713782  0.39481946  1
  Rh  Rh226  1  -0.00498895  0.60720291  0.00049146  1
  Rh  Rh227  1  0.39963279  0.39406581  0.40292620  1
  Rh  Rh228  1  -0.00240197  0.40357486  0.79628961  1
  Rh  Rh229  1  0.79737819  0.39496345  0.59776702  1
  Rh  Rh230  1  0.40357291  0.00036665  0.80198564  1
  Rh  Rh231  1  0.79227570  0.00509226  0.58865605  1
  Rh  Rh232  1  0.60173142  0.40060047  -0.00720311  1
  Rh  Rh233  1  0.38597339  0.80188068  0.38377901  1
  Rh  Rh234  1  0.80686538  0.40116096  0.80560484  1
  Rh  Rh235  1  0.19923445  -0.00441820  0.00583794  1
  Rh  Rh236  1  0.20474295  0.80486247  0.20635270  1
  Rh  Rh237  1  -0.00751784  0.20579539  0.60243018  1
  Rh  Rh238  1  0.80614455  0.60024119  0.19716828  1
  Rh  Rh239  1  0.61123438  0.80393686  0.78845858  1
  Rh  Rh240  1  0.81193069  0.80498367  0.39230538  1
  Rh  Rh241  1  0.00284751  0.39640362  0.20000391  1
  Rh  Rh242  1  0.20216799  0.19476057  0.38977941  1
  Rh  Rh243  1  0.60767099  0.78821183  0.00404385  1
  Rh  Rh244  1  0.19742735  0.19202096  0.19875938  1
  Rh  Rh245  1  -0.00024088  0.20647136  0.20191938  1
  Rh  Rh246  1  0.39771605  0.20193696  0.80740394  1
  Rh  Rh247  1  0.60754042  0.39910399  0.20691313  1
  Rh  Rh248  1  0.19624595  0.59504668  0.19371477  1
  Rh  Rh249  1  0.39959453  0.60991571  0.80828627  1
