# generated using pymatgen
data_ZrScNbPdRh
_symmetry_space_group_name_H-M   'P 1'
_cell_length_a   16.55525999
_cell_length_b   16.56029584
_cell_length_c   16.56327355
_cell_angle_alpha   89.96953123
_cell_angle_beta   90.01200194
_cell_angle_gamma   89.98649561
_symmetry_Int_Tables_number   1
_chemical_formula_structural   ZrScNbPdRh
_chemical_formula_sum   'Zr50 Sc50 Nb50 Pd50 Rh50'
_cell_volume   4540.98626156
_cell_formula_units_Z   50
loop_
 _symmetry_equiv_pos_site_id
 _symmetry_equiv_pos_as_xyz
  1  'x, y, z'
loop_
 _atom_site_type_symbol
 _atom_site_label
 _atom_site_symmetry_multiplicity
 _atom_site_fract_x
 _atom_site_fract_y
 _atom_site_fract_z
 _atom_site_occupancy
  Zr  Zr0  1  0.30440605  0.30518743  0.70223592  1
  Zr  Zr1  1  0.50439677  0.89806207  0.30059244  1
  Zr  Zr2  1  0.49116990  0.49714035  0.28938730  1
  Zr  Zr3  1  0.09560223  0.30926734  0.89359403  1
  Zr  Zr4  1  0.50274044  0.10291327  0.70248394  1
  Zr  Zr5  1  0.50163283  0.70761806  0.70354382  1
  Zr  Zr6  1  0.29941359  0.70141664  0.10336505  1
  Zr  Zr7  1  0.09246090  0.50022913  0.09582390  1
  Zr  Zr8  1  0.89542742  0.09872721  0.89190036  1
  Zr  Zr9  1  0.09731360  0.10380758  0.69904608  1
  Zr  Zr10  1  0.08962070  0.70336049  0.10296254  1
  Zr  Zr11  1  0.89927430  0.49936302  0.09608496  1
  Zr  Zr12  1  0.50039489  0.10064782  0.51130995  1
  Zr  Zr13  1  0.70016089  0.89117530  0.29561644  1
  Zr  Zr14  1  0.30313877  0.29724538  0.09973244  1
  Zr  Zr15  1  0.69566540  0.50591795  0.30662982  1
  Zr  Zr16  1  0.49079665  0.48975427  0.69599322  1
  Zr  Zr17  1  0.90416261  0.10241049  0.29428372  1
  Zr  Zr18  1  0.70304525  0.90632568  0.09639509  1
  Zr  Zr19  1  0.69650523  0.30067626  0.09560097  1
  Zr  Zr20  1  0.09619096  0.70222509  0.50045174  1
  Zr  Zr21  1  0.50065349  0.70862733  0.89856282  1
  Zr  Zr22  1  0.89665281  0.09723606  0.10393068  1
  Zr  Zr23  1  0.09460594  0.89455430  0.49616925  1
  Zr  Zr24  1  0.30091469  0.90846694  0.09608035  1
  Zr  Zr25  1  0.70008766  0.09663119  0.89605240  1
  Zr  Zr26  1  0.49817793  0.30145303  0.50425940  1
  Zr  Zr27  1  0.30561110  0.90250471  0.90023085  1
  Zr  Zr28  1  0.30595218  0.50440476  0.49938343  1
  Zr  Zr29  1  0.30813945  0.09747669  0.09812550  1
  Zr  Zr30  1  0.09841404  0.29620285  0.69742732  1
  Zr  Zr31  1  0.70776984  0.69535491  0.69226183  1
  Zr  Zr32  1  0.09310191  0.29161796  0.30641167  1
  Zr  Zr33  1  0.89228602  0.69806730  0.29520418  1
  Zr  Zr34  1  0.69935191  0.09989426  0.08934868  1
  Zr  Zr35  1  0.89814517  0.90211220  0.49867493  1
  Zr  Zr36  1  0.90213547  0.48864384  0.89890578  1
  Zr  Zr37  1  0.50345840  0.49306078  0.50159127  1
  Zr  Zr38  1  0.69460066  0.69938716  0.49694050  1
  Zr  Zr39  1  0.30265465  0.09797072  0.29556157  1
  Zr  Zr40  1  0.70674932  0.50310758  0.49993368  1
  Zr  Zr41  1  0.90215383  0.90305721  0.69603133  1
  Zr  Zr42  1  0.49709340  0.10562219  0.09459117  1
  Zr  Zr43  1  0.30631974  0.69404427  0.29994060  1
  Zr  Zr44  1  0.29622636  0.70188573  0.89345893  1
  Zr  Zr45  1  0.09090431  0.09590236  0.29928839  1
  Zr  Zr46  1  0.30927706  0.50022233  0.11482447  1
  Zr  Zr47  1  0.70090092  0.10833667  0.69328402  1
  Zr  Zr48  1  0.50688774  0.29589405  0.70048897  1
  Zr  Zr49  1  0.90381567  0.69690130  0.09813456  1
  Sc  Sc50  1  0.68776953  0.69736200  0.89558567  1
  Sc  Sc51  1  0.11031637  0.09745694  0.89415729  1
  Sc  Sc52  1  0.09147404  0.69950319  0.89555122  1
  Sc  Sc53  1  0.70278474  0.49864674  0.70720595  1
  Sc  Sc54  1  0.90668475  0.29921294  0.50295669  1
  Sc  Sc55  1  0.90207482  0.89360000  0.10411303  1
  Sc  Sc56  1  0.70603870  0.08572195  0.28953329  1
  Sc  Sc57  1  0.89962162  0.50749367  0.70163498  1
  Sc  Sc58  1  0.89326144  0.50573205  0.31538187  1
  Sc  Sc59  1  0.69205087  0.31008708  0.30197838  1
  Sc  Sc60  1  0.29465444  0.69444709  0.69886375  1
  Sc  Sc61  1  0.70630884  0.90105511  0.69820274  1
  Sc  Sc62  1  0.30256035  0.09799083  0.90402248  1
  Sc  Sc63  1  0.10623210  0.89963977  0.89055276  1
  Sc  Sc64  1  0.90246638  0.91216346  0.30169870  1
  Sc  Sc65  1  0.10097696  0.30318309  0.09039426  1
  Sc  Sc66  1  0.09034664  0.49857870  0.31741720  1
  Sc  Sc67  1  0.29461651  0.29807352  0.89726235  1
  Sc  Sc68  1  0.51153844  0.69126641  0.09340237  1
  Sc  Sc69  1  0.89535994  0.29292078  0.09686883  1
  Sc  Sc70  1  0.90214699  0.70464442  0.70321980  1
  Sc  Sc71  1  0.29804163  0.89671904  0.70635335  1
  Sc  Sc72  1  0.30157859  0.29812068  0.49946716  1
  Sc  Sc73  1  0.09830726  0.29924108  0.50211177  1
  Sc  Sc74  1  0.29068465  0.49558611  0.88488789  1
  Sc  Sc75  1  0.49411178  0.10167971  0.28764791  1
  Sc  Sc76  1  0.29960254  0.10604641  0.50919408  1
  Sc  Sc77  1  0.10090443  0.89900061  0.69987869  1
  Sc  Sc78  1  0.89564747  0.08970124  0.50279997  1
  Sc  Sc79  1  0.29895074  0.10416758  0.70282362  1
  Sc  Sc80  1  0.90213254  0.69488956  0.50655142  1
  Sc  Sc81  1  0.69227198  0.30616367  0.50071211  1
  Sc  Sc82  1  0.29794989  0.89271647  0.51365643  1
  Sc  Sc83  1  0.10213977  0.09751761  0.10234400  1
  Sc  Sc84  1  0.09641277  0.50783425  0.70847883  1
  Sc  Sc85  1  0.29446123  0.89588797  0.28972796  1
  Sc  Sc86  1  0.70984283  0.30123540  0.89432316  1
  Sc  Sc87  1  0.50273589  0.69862722  0.50907696  1
  Sc  Sc88  1  0.90573374  0.29384156  0.70636202  1
  Sc  Sc89  1  0.30918358  0.30506523  0.31017362  1
  Sc  Sc90  1  0.69916988  0.70129077  0.10850358  1
  Sc  Sc91  1  0.49952714  0.89444331  0.51799061  1
  Sc  Sc92  1  0.50285670  0.29581410  0.11221851  1
  Sc  Sc93  1  0.09687628  0.70258680  0.70363322  1
  Sc  Sc94  1  0.68988160  0.50501803  0.10299560  1
  Sc  Sc95  1  0.49948971  0.90299177  0.08583243  1
  Sc  Sc96  1  0.89552575  0.90227907  0.88749206  1
  Sc  Sc97  1  0.10166597  0.10633230  0.50504941  1
  Sc  Sc98  1  0.51018316  0.50886695  0.88962765  1
  Sc  Sc99  1  0.50434530  0.10298522  0.89324087  1
  Nb  Nb100  1  0.10310865  0.89806470  0.10248540  1
  Nb  Nb101  1  0.70797776  0.49619480  0.90375830  1
  Nb  Nb102  1  0.89849168  0.29258581  0.29508740  1
  Nb  Nb103  1  0.50583703  0.29823414  0.89684316  1
  Nb  Nb104  1  0.09723934  0.49623071  0.90583639  1
  Nb  Nb105  1  0.70041867  0.09640507  0.49746296  1
  Nb  Nb106  1  0.89906696  0.09782925  0.69934507  1
  Nb  Nb107  1  0.90380195  0.30238880  0.89974986  1
  Nb  Nb108  1  0.30123101  0.70040274  0.49890774  1
  Nb  Nb109  1  0.70316796  0.30382384  0.69377960  1
  Nb  Nb110  1  0.70005666  0.90355672  0.90528374  1
  Nb  Nb111  1  0.50320546  0.30082565  0.30539082  1
  Nb  Nb112  1  0.70462094  0.90678618  0.49500594  1
  Nb  Nb113  1  0.49379118  0.89856852  0.70967957  1
  Nb  Nb114  1  0.50379439  0.89388692  0.88821556  1
  Nb  Nb115  1  0.69315972  0.70340527  0.30269085  1
  Nb  Nb116  1  0.10143048  0.89880339  0.29936008  1
  Nb  Nb117  1  0.90669955  0.50548766  0.50224371  1
  Nb  Nb118  1  0.29437492  0.49800141  0.69764025  1
  Nb  Nb119  1  0.29968229  0.50141321  0.30203242  1
  Nb  Nb120  1  0.89805042  0.70142150  0.90423414  1
  Nb  Nb121  1  0.50978704  0.70504618  0.30131627  1
  Nb  Nb122  1  0.10538665  0.70795859  0.30169148  1
  Nb  Nb123  1  0.08882676  0.50444491  0.50420875  1
  Nb  Nb124  1  0.50021486  0.49645816  0.09732880  1
  Nb  Nb125  1  -0.00285544  0.19559874  -0.00910602  1
  Nb  Nb126  1  0.20045153  0.60291731  0.40240306  1
  Nb  Nb127  1  -0.00520546  0.39570144  0.20570115  1
  Nb  Nb128  1  0.60225904  0.19064045  0.40065266  1
  Nb  Nb129  1  0.79975443  0.60205344  -0.00542208  1
  Nb  Nb130  1  0.19597662  0.79862593  0.00411901  1
  Nb  Nb131  1  0.20119439  0.20552464  0.20298103  1
  Nb  Nb132  1  0.40685406  0.79597333  0.20143940  1
  Nb  Nb133  1  0.40903278  0.40467655  -0.00252416  1
  Nb  Nb134  1  0.40235995  0.79828457  0.39934310  1
  Nb  Nb135  1  0.20053804  -0.00450359  0.39941466  1
  Nb  Nb136  1  0.19271394  0.59708015  0.20785198  1
  Nb  Nb137  1  0.80335737  0.40027932  0.20346013  1
  Nb  Nb138  1  0.59562711  0.40046775  -0.00426247  1
  Nb  Nb139  1  0.39677537  0.59351113  -0.00280280  1
  Nb  Nb140  1  0.59738631  0.00063019  0.40612330  1
  Nb  Nb141  1  0.19903201  0.60011933  0.00316550  1
  Nb  Nb142  1  0.19814000  0.41102510  0.59908621  1
  Nb  Nb143  1  0.80422966  0.40178727  0.59986252  1
  Nb  Nb144  1  0.39889723  -0.00692229  0.40320458  1
  Nb  Nb145  1  0.79304975  0.79940163  0.39854094  1
  Nb  Nb146  1  0.00162791  -0.00034233  -0.00025885  1
  Nb  Nb147  1  0.79474187  0.19724018  0.39876827  1
  Nb  Nb148  1  0.19541595  0.40226471  0.20887949  1
  Nb  Nb149  1  0.79846241  0.79637205  -0.00560661  1
  Pd  Pd150  1  0.80313093  0.20053682  -0.00716621  1
  Pd  Pd151  1  0.60587609  -0.00438493  0.79355380  1
  Pd  Pd152  1  0.79321989  0.59409161  0.19553432  1
  Pd  Pd153  1  0.39268028  -0.00171391  0.60315088  1
  Pd  Pd154  1  0.19292172  0.19577761  0.00275374  1
  Pd  Pd155  1  0.60209617  0.59854336  0.79153355  1
  Pd  Pd156  1  0.80161640  0.79917388  0.59092125  1
  Pd  Pd157  1  0.80314602  0.20691880  0.59130353  1
  Pd  Pd158  1  -0.00110358  0.40413311  0.60839885  1
  Pd  Pd159  1  0.59143621  0.00137775  -0.00811389  1
  Pd  Pd160  1  0.40573920  0.20811340  -0.00757892  1
  Pd  Pd161  1  -0.00965002  0.39548494  0.39908402  1
  Pd  Pd162  1  0.58875812  0.59672093  0.39887734  1
  Pd  Pd163  1  0.80120722  0.60231073  0.80681691  1
  Pd  Pd164  1  0.19821389  0.79598442  0.60703058  1
  Pd  Pd165  1  0.59870475  0.59196741  0.60928439  1
  Pd  Pd166  1  0.20283692  0.19996040  0.80067997  1
  Pd  Pd167  1  0.60345021  -0.00727126  0.60452331  1
  Pd  Pd168  1  0.21327036  0.41036083  0.00534562  1
  Pd  Pd169  1  0.00528203  0.00276354  0.59634076  1
  Pd  Pd170  1  0.39918870  0.79463786  0.00421092  1
  Pd  Pd171  1  0.00447160  0.00075314  0.80224693  1
  Pd  Pd172  1  0.00306994  0.59177971  0.21447345  1
  Pd  Pd173  1  0.61221884  0.80518486  0.79347812  1
  Pd  Pd174  1  0.79405539  0.79748302  0.80512589  1
  Pd  Pd175  1  0.59408122  0.00204910  0.19768032  1
  Pd  Pd176  1  0.79929083  0.20456502  0.79650818  1
  Pd  Pd177  1  0.40737566  0.60466428  0.40328574  1
  Pd  Pd178  1  0.59369745  0.80152564  0.18541504  1
  Pd  Pd179  1  0.19820016  0.40657835  0.40533430  1
  Pd  Pd180  1  0.20372746  0.19159469  0.39729156  1
  Pd  Pd181  1  0.60784420  0.19614683  0.20915499  1
  Pd  Pd182  1  0.60716465  0.39798773  0.80289180  1
  Pd  Pd183  1  0.78578320  0.20613404  0.20726957  1
  Pd  Pd184  1  0.40224425  0.60487488  0.60648874  1
  Pd  Pd185  1  -0.00103261  0.81371245  -0.01131105  1
  Pd  Pd186  1  0.39840577  0.00601718  0.80052199  1
  Pd  Pd187  1  -0.00426769  0.80682035  0.21070153  1
  Pd  Pd188  1  0.40804963  0.19143766  0.39969156  1
  Pd  Pd189  1  -0.01071018  0.19126666  0.41159479  1
  Pd  Pd190  1  0.80711656  0.39006832  0.40332356  1
  Pd  Pd191  1  -0.00385680  0.60047782  0.80460927  1
  Pd  Pd192  1  0.39867580  0.59885129  0.80002160  1
  Pd  Pd193  1  0.20970011  0.80213040  0.40070486  1
  Pd  Pd194  1  0.19619132  0.00521830  0.20250398  1
  Pd  Pd195  1  0.40180907  0.39796529  0.80907148  1
  Pd  Pd196  1  -0.01284507  0.79640555  0.39252686  1
  Pd  Pd197  1  0.19350266  0.59889840  0.59594063  1
  Pd  Pd198  1  0.60555917  0.80713379  0.60525208  1
  Pd  Pd199  1  0.19953571  0.00003643  0.59783111  1
  Rh  Rh200  1  0.41143443  0.00126526  -0.01313995  1
  Rh  Rh201  1  0.59982906  0.20645036  -0.00616768  1
  Rh  Rh202  1  0.60901075  0.20637522  0.80050303  1
  Rh  Rh203  1  0.39360116  0.20711949  0.20527846  1
  Rh  Rh204  1  0.19237491  -0.00899224  -0.00183419  1
  Rh  Rh205  1  0.20075499  0.79664463  0.19508744  1
  Rh  Rh206  1  -0.00013019  0.80035986  0.60469443  1
  Rh  Rh207  1  0.01077539  0.21006079  0.18525107  1
  Rh  Rh208  1  0.20260494  0.21241170  0.60188821  1
  Rh  Rh209  1  0.39832899  0.20304920  0.60791811  1
  Rh  Rh210  1  0.39877889  0.38900287  0.20108435  1
  Rh  Rh211  1  0.79187219  0.40544266  0.00987109  1
  Rh  Rh212  1  0.19317680  0.59842363  0.80546843  1
  Rh  Rh213  1  0.19881551  0.79773214  0.80225152  1
  Rh  Rh214  1  0.00075538  0.19541811  0.80448679  1
  Rh  Rh215  1  -0.00614076  0.38902814  0.00522736  1
  Rh  Rh216  1  0.40100749  0.20097809  0.80256629  1
  Rh  Rh217  1  0.79360698  0.00172981  0.79248453  1
  Rh  Rh218  1  0.60450503  0.20351166  0.59492728  1
  Rh  Rh219  1  0.59568383  0.59900726  0.20650072  1
  Rh  Rh220  1  -0.00230391  0.59705230  -0.01149239  1
  Rh  Rh221  1  0.60144203  0.59214814  -0.00537174  1
  Rh  Rh222  1  0.60351689  0.40242821  0.19803708  1
  Rh  Rh223  1  0.80465989  0.39533672  0.78930584  1
  Rh  Rh224  1  -0.00314289  0.80225177  0.79976458  1
  Rh  Rh225  1  0.00305691  -0.00760895  0.19123332  1
  Rh  Rh226  1  -0.00038671  0.40303966  0.79435429  1
  Rh  Rh227  1  0.80141265  0.61161634  0.40632002  1
  Rh  Rh228  1  0.39050283  0.39716773  0.59623977  1
  Rh  Rh229  1  0.00287290  0.61040681  0.39886932  1
  Rh  Rh230  1  0.20481575  0.00161483  0.79629647  1
  Rh  Rh231  1  0.80159017  0.80094488  0.20108221  1
  Rh  Rh232  1  -0.00766193  0.19196157  0.60044084  1
  Rh  Rh233  1  0.81103789  -0.01101826  -0.00070190  1
  Rh  Rh234  1  0.80434521  0.59445064  0.59922746  1
  Rh  Rh235  1  0.61028529  0.40587947  0.60561925  1
  Rh  Rh236  1  0.79510122  -0.00027018  0.39425535  1
  Rh  Rh237  1  0.80391141  -0.00500172  0.19588223  1
  Rh  Rh238  1  0.59262235  0.40014647  0.39785449  1
  Rh  Rh239  1  0.40621688  -0.01082303  0.19981093  1
  Rh  Rh240  1  0.19090157  0.40209701  0.78976798  1
  Rh  Rh241  1  0.40456822  0.40148577  0.40166225  1
  Rh  Rh242  1  0.60860619  0.80391997  -0.00290975  1
  Rh  Rh243  1  0.00935079  0.00242914  0.40646493  1
  Rh  Rh244  1  0.60010445  0.80709990  0.41169328  1
  Rh  Rh245  1  0.39480224  0.79827716  0.79404361  1
  Rh  Rh246  1  -0.00023518  0.60296507  0.60583519  1
  Rh  Rh247  1  0.79917325  0.00321875  0.60606164  1
  Rh  Rh248  1  0.41089107  0.61016755  0.19524946  1
  Rh  Rh249  1  0.39691762  0.79417707  0.60476012  1
