# generated using pymatgen
data_ZrScNbPdRh
_symmetry_space_group_name_H-M   'P 1'
_cell_length_a   16.56211173
_cell_length_b   16.55874702
_cell_length_c   16.56484676
_cell_angle_alpha   90.02114515
_cell_angle_beta   89.98218726
_cell_angle_gamma   89.99841550
_symmetry_Int_Tables_number   1
_chemical_formula_structural   ZrScNbPdRh
_chemical_formula_sum   'Zr50 Sc50 Nb50 Pd50 Rh50'
_cell_volume   4542.87255485
_cell_formula_units_Z   50
loop_
 _symmetry_equiv_pos_site_id
 _symmetry_equiv_pos_as_xyz
  1  'x, y, z'
loop_
 _atom_site_type_symbol
 _atom_site_label
 _atom_site_symmetry_multiplicity
 _atom_site_fract_x
 _atom_site_fract_y
 _atom_site_fract_z
 _atom_site_occupancy
  Zr  Zr0  1  0.70671459  0.09863167  0.69313882  1
  Zr  Zr1  1  0.50508452  0.30414513  0.49712170  1
  Zr  Zr2  1  0.69627078  0.09778386  0.30163154  1
  Zr  Zr3  1  0.89390903  0.30892946  0.50006491  1
  Zr  Zr4  1  0.49979279  0.89894831  0.09613833  1
  Zr  Zr5  1  0.70023128  0.09898729  0.49548096  1
  Zr  Zr6  1  0.29134139  0.29842406  0.29893386  1
  Zr  Zr7  1  0.10445477  0.49553344  0.49641173  1
  Zr  Zr8  1  0.89534947  0.89755464  0.29496616  1
  Zr  Zr9  1  0.50210387  0.87741653  0.70340132  1
  Zr  Zr10  1  0.10406260  0.50799863  0.89545341  1
  Zr  Zr11  1  0.50129691  0.70009753  0.89659825  1
  Zr  Zr12  1  0.70120422  0.50523446  0.09555365  1
  Zr  Zr13  1  0.29844780  0.49795895  0.69804256  1
  Zr  Zr14  1  0.70069051  0.90232256  0.30255997  1
  Zr  Zr15  1  0.50351646  0.10443589  0.49799892  1
  Zr  Zr16  1  0.09781200  0.31041095  0.29163245  1
  Zr  Zr17  1  0.70818235  0.69573611  0.50376517  1
  Zr  Zr18  1  0.30796345  0.50720575  0.90844911  1
  Zr  Zr19  1  0.69806030  0.49794357  0.70273291  1
  Zr  Zr20  1  0.29836192  0.30024171  0.10283282  1
  Zr  Zr21  1  0.69383038  0.09632754  0.10418312  1
  Zr  Zr22  1  0.29906573  0.09677309  0.90082614  1
  Zr  Zr23  1  0.10177672  0.90754077  0.90521414  1
  Zr  Zr24  1  0.29882839  0.90097808  0.10162871  1
  Zr  Zr25  1  0.50376751  0.50835459  0.69676884  1
  Zr  Zr26  1  0.89709306  0.49810374  0.29345892  1
  Zr  Zr27  1  0.48947440  0.49912372  0.50184498  1
  Zr  Zr28  1  0.89706878  0.91126967  0.69448820  1
  Zr  Zr29  1  0.29713272  0.89908749  0.29543454  1
  Zr  Zr30  1  0.89243509  0.30594211  0.90130615  1
  Zr  Zr31  1  0.89505971  0.09924176  0.30039187  1
  Zr  Zr32  1  0.09781625  0.31472469  0.68732954  1
  Zr  Zr33  1  0.09651294  0.69739795  0.50459919  1
  Zr  Zr34  1  0.89141877  0.70172614  0.29996110  1
  Zr  Zr35  1  0.10758257  0.70486388  0.89651191  1
  Zr  Zr36  1  0.09330750  0.29927139  0.48627961  1
  Zr  Zr37  1  0.50574803  0.70082568  0.09865668  1
  Zr  Zr38  1  0.69875204  0.69956669  0.09914128  1
  Zr  Zr39  1  0.89758878  0.10197997  0.10359518  1
  Zr  Zr40  1  0.69788986  0.89880130  0.10366190  1
  Zr  Zr41  1  0.69805135  0.29766559  0.50609005  1
  Zr  Zr42  1  0.29871837  0.70165744  0.08942828  1
  Zr  Zr43  1  0.30284952  0.89999045  0.70657443  1
  Zr  Zr44  1  0.90689869  0.29665276  0.70133951  1
  Zr  Zr45  1  0.09406054  0.11742416  0.70804207  1
  Zr  Zr46  1  0.90253439  0.90094804  0.10091453  1
  Zr  Zr47  1  0.49946200  0.50146522  0.09196905  1
  Zr  Zr48  1  0.29396325  0.10157736  0.69396893  1
  Zr  Zr49  1  0.49925143  0.49426730  0.30564734  1
  Sc  Sc50  1  0.89542877  0.69190016  0.10260610  1
  Sc  Sc51  1  0.69775630  0.09854108  0.90809737  1
  Sc  Sc52  1  0.30584299  0.89317593  0.90366646  1
  Sc  Sc53  1  0.30637185  0.09920286  0.29676325  1
  Sc  Sc54  1  0.50107637  0.09649474  0.91012330  1
  Sc  Sc55  1  0.70420756  0.89498814  0.90723362  1
  Sc  Sc56  1  0.30180453  0.69293702  0.49081397  1
  Sc  Sc57  1  0.51780731  0.30233572  0.69487309  1
  Sc  Sc58  1  0.30161558  0.30473241  0.49810695  1
  Sc  Sc59  1  0.49916240  0.70308913  0.30279404  1
  Sc  Sc60  1  0.89508706  0.50077195  0.10076787  1
  Sc  Sc61  1  0.89139598  0.10158020  0.50628973  1
  Sc  Sc62  1  0.50297006  0.89303924  0.49346945  1
  Sc  Sc63  1  0.90501738  0.90286982  0.89534387  1
  Sc  Sc64  1  0.08902724  0.50237994  0.10599323  1
  Sc  Sc65  1  0.09432053  0.90833301  0.70135154  1
  Sc  Sc66  1  0.10001132  0.90509450  0.51243243  1
  Sc  Sc67  1  0.09139664  0.11722553  0.30319495  1
  Sc  Sc68  1  0.90654066  0.29579941  0.30111878  1
  Sc  Sc69  1  0.70385080  0.29587649  0.09992199  1
  Sc  Sc70  1  0.30074934  0.89805483  0.50079586  1
  Sc  Sc71  1  0.29560823  0.50214096  0.31722752  1
  Sc  Sc72  1  0.50188970  0.69806136  0.51128922  1
  Sc  Sc73  1  0.89427898  0.49958342  0.69118660  1
  Sc  Sc74  1  0.70874308  0.49192139  0.50348703  1
  Sc  Sc75  1  0.89980136  0.29959936  0.10765179  1
  Sc  Sc76  1  0.10465149  0.70190373  0.30114646  1
  Sc  Sc77  1  0.69877108  0.49106185  0.29441249  1
  Sc  Sc78  1  0.29765911  0.70218471  0.30435537  1
  Sc  Sc79  1  0.09738601  0.29564256  0.87250898  1
  Sc  Sc80  1  0.30787891  0.09792838  0.10367295  1
  Sc  Sc81  1  0.28873181  0.29973776  0.69809589  1
  Sc  Sc82  1  0.69939572  0.70726864  0.29502432  1
  Sc  Sc83  1  0.50855256  0.29668106  0.89772192  1
  Sc  Sc84  1  0.30572408  0.30426564  0.90389124  1
  Sc  Sc85  1  0.10013860  0.09750667  0.51180746  1
  Sc  Sc86  1  0.50321133  0.30230071  0.30581497  1
  Sc  Sc87  1  0.70434782  0.68936569  0.90305183  1
  Sc  Sc88  1  0.70537569  0.89926461  0.49485235  1
  Sc  Sc89  1  0.50445989  0.10711607  0.70166744  1
  Sc  Sc90  1  0.10286495  0.89979493  0.10620957  1
  Sc  Sc91  1  0.90343622  0.09131824  0.89964403  1
  Sc  Sc92  1  0.30143834  0.10224686  0.50061199  1
  Sc  Sc93  1  0.29353269  0.70110198  0.90263253  1
  Sc  Sc94  1  0.50196257  0.09607251  0.29933333  1
  Sc  Sc95  1  0.09952004  0.08880122  0.09725774  1
  Sc  Sc96  1  0.49914158  0.90146031  0.29758126  1
  Sc  Sc97  1  0.49827181  0.29259413  0.09556181  1
  Sc  Sc98  1  0.88732475  0.50343180  0.89987708  1
  Sc  Sc99  1  0.30672634  0.70169655  0.71413030  1
  Nb  Nb100  1  0.10460935  0.50167433  0.70042371  1
  Nb  Nb101  1  0.50057683  0.89877711  0.89605492  1
  Nb  Nb102  1  0.30417068  0.49918464  0.09281435  1
  Nb  Nb103  1  0.70202920  0.30224501  0.70295387  1
  Nb  Nb104  1  0.89645447  0.09924770  0.70143933  1
  Nb  Nb105  1  0.50221400  0.49683446  0.90116922  1
  Nb  Nb106  1  0.50843416  0.09445523  0.10304191  1
  Nb  Nb107  1  0.70405994  0.48968524  0.89909513  1
  Nb  Nb108  1  0.30210787  0.50236865  0.50114722  1
  Nb  Nb109  1  0.90333407  0.70024468  0.89244170  1
  Nb  Nb110  1  0.70405916  0.31004839  0.89130948  1
  Nb  Nb111  1  0.89165550  0.51133579  0.49702361  1
  Nb  Nb112  1  0.10094156  0.70008941  0.70250612  1
  Nb  Nb113  1  0.68842856  0.70392810  0.69665100  1
  Nb  Nb114  1  0.69586537  0.30387736  0.31211321  1
  Nb  Nb115  1  0.89934904  0.70242156  0.69011240  1
  Nb  Nb116  1  0.69706680  0.89594102  0.70186380  1
  Nb  Nb117  1  0.09977814  0.09876474  0.90274966  1
  Nb  Nb118  1  0.89825709  0.69720128  0.50388643  1
  Nb  Nb119  1  0.90129839  0.89821535  0.49903317  1
  Nb  Nb120  1  0.10210511  0.69535677  0.09024495  1
  Nb  Nb121  1  0.51671118  0.69969301  0.70057158  1
  Nb  Nb122  1  0.09963792  0.50195567  0.30225090  1
  Nb  Nb123  1  0.09676160  0.89923903  0.30515580  1
  Nb  Nb124  1  0.09861740  0.30030639  0.10262170  1
  Nb  Nb125  1  0.40025465  0.20353235  0.79799989  1
  Nb  Nb126  1  0.59897384  -0.00682473  0.60559221  1
  Nb  Nb127  1  0.19842669  0.79224405  0.60742433  1
  Nb  Nb128  1  0.00594455  0.39383700  -0.00309012  1
  Nb  Nb129  1  -0.00085578  -0.00608193  0.40157876  1
  Nb  Nb130  1  0.00604606  0.20423068  -0.00239779  1
  Nb  Nb131  1  0.19226714  -0.00285470  0.39544723  1
  Nb  Nb132  1  0.19860553  0.00594296  0.80151839  1
  Nb  Nb133  1  0.39442791  0.40577625  0.19819969  1
  Nb  Nb134  1  -0.00130934  0.60733151  0.79065508  1
  Nb  Nb135  1  0.60593418  0.40237431  -0.00681018  1
  Nb  Nb136  1  -0.00507554  0.80041748  0.40608518  1
  Nb  Nb137  1  0.19223768  0.20448895  -0.00126275  1
  Nb  Nb138  1  0.00213830  0.79188009  -0.00067638  1
  Nb  Nb139  1  0.19091411  0.39642322  0.00303081  1
  Nb  Nb140  1  0.80192181  0.79306421  0.78969727  1
  Nb  Nb141  1  0.59906510  -0.00923565  0.79719043  1
  Nb  Nb142  1  0.79722510  0.20119973  0.79832251  1
  Nb  Nb143  1  0.40971960  -0.00268561  0.60436454  1
  Nb  Nb144  1  0.19910659  0.59990707  0.60485677  1
  Nb  Nb145  1  -0.00701252  0.60154085  0.40319324  1
  Nb  Nb146  1  0.60134283  0.59578810  0.40399545  1
  Nb  Nb147  1  0.20349792  0.59634532  0.19513996  1
  Nb  Nb148  1  0.39402295  0.59442410  0.19745299  1
  Nb  Nb149  1  0.40714770  0.40129114  0.79961087  1
  Pd  Pd150  1  0.39840642  0.19879854  -0.00407741  1
  Pd  Pd151  1  0.19579401  0.20977071  0.58926169  1
  Pd  Pd152  1  -0.00434165  0.80159189  0.79934097  1
  Pd  Pd153  1  0.79090316  -0.00127851  0.80711633  1
  Pd  Pd154  1  0.19301547  0.80653115  0.41128741  1
  Pd  Pd155  1  0.40029333  0.38975931  0.60989658  1
  Pd  Pd156  1  0.60644122  0.20656856  -0.00270138  1
  Pd  Pd157  1  -0.00549222  0.41083370  0.59340598  1
  Pd  Pd158  1  0.80159195  0.20556844  0.39657978  1
  Pd  Pd159  1  0.40568569  0.00717904  0.79396739  1
  Pd  Pd160  1  0.40392814  0.20368923  0.60676640  1
  Pd  Pd161  1  -0.00828531  0.40925892  0.39714091  1
  Pd  Pd162  1  0.60545034  0.59635043  0.80750269  1
  Pd  Pd163  1  0.80142980  0.00012689  -0.00079500  1
  Pd  Pd164  1  0.81095846  0.79504499  -0.00551096  1
  Pd  Pd165  1  0.39992369  0.79289043  0.20060816  1
  Pd  Pd166  1  0.59586613  0.59987805  0.21087818  1
  Pd  Pd167  1  0.19495600  0.79200938  0.19587362  1
  Pd  Pd168  1  0.19429005  0.18900828  0.19232798  1
  Pd  Pd169  1  0.59774909  0.20676494  0.20572963  1
  Pd  Pd170  1  0.20295700  0.41385550  0.19673638  1
  Pd  Pd171  1  0.79602524  0.80508039  0.60137691  1
  Pd  Pd172  1  -0.00881581  0.41649171  0.80286836  1
  Pd  Pd173  1  0.79826114  0.39227078  0.20044182  1
  Pd  Pd174  1  0.60167803  0.79135534  0.40237774  1
  Pd  Pd175  1  0.39267441  0.61175799  0.60447970  1
  Pd  Pd176  1  0.79248254  0.59683862  0.39054214  1
  Pd  Pd177  1  0.20046383  0.19121058  0.40410340  1
  Pd  Pd178  1  0.60130018  0.80029939  -0.00692917  1
  Pd  Pd179  1  0.80374201  0.19805098  -0.00622562  1
  Pd  Pd180  1  0.39443616  -0.00173324  0.40579312  1
  Pd  Pd181  1  0.19406001  0.00873572  0.20978873  1
  Pd  Pd182  1  0.00333498  0.59133447  0.60077114  1
  Pd  Pd183  1  0.40133717  0.79710842  0.40132465  1
  Pd  Pd184  1  0.60357814  0.19125008  0.80535409  1
  Pd  Pd185  1  0.20976843  0.40197799  0.80864485  1
  Pd  Pd186  1  0.39266572  0.79524501  0.59772476  1
  Pd  Pd187  1  0.80190889  0.60582531  0.79132855  1
  Pd  Pd188  1  0.79293783  0.20632942  0.20924388  1
  Pd  Pd189  1  0.40950877  0.20392411  0.20585681  1
  Pd  Pd190  1  0.40118120  -0.00132668  0.00403220  1
  Pd  Pd191  1  -0.00421938  0.19804380  0.59238584  1
  Pd  Pd192  1  0.00295709  0.80483712  0.60054825  1
  Pd  Pd193  1  0.00646691  0.60642050  0.20816223  1
  Pd  Pd194  1  0.40317696  0.59966006  0.80094109  1
  Pd  Pd195  1  0.00584580  0.00579629  0.20775292  1
  Pd  Pd196  1  0.59373900  0.39186538  0.18980334  1
  Pd  Pd197  1  0.00570793  0.78995195  0.19655936  1
  Pd  Pd198  1  -0.00631384  0.59752798  -0.00917556  1
  Pd  Pd199  1  0.40061088  0.20331427  0.39468853  1
  Rh  Rh200  1  0.59746566  -0.00101971  0.40513735  1
  Rh  Rh201  1  0.60341370  0.59271022  -0.00925500  1
  Rh  Rh202  1  0.19782716  0.81248416  0.79588148  1
  Rh  Rh203  1  0.80081922  0.20835464  0.60792426  1
  Rh  Rh204  1  0.61185202  0.80053615  0.81144897  1
  Rh  Rh205  1  0.59428587  0.40465675  0.80270170  1
  Rh  Rh206  1  0.79362463  0.60164544  0.60871559  1
  Rh  Rh207  1  0.80135174  0.39804245  0.39634083  1
  Rh  Rh208  1  -0.01541990  0.19282398  0.80903880  1
  Rh  Rh209  1  0.60566324  0.40664357  0.40858236  1
  Rh  Rh210  1  0.60500740  0.19498500  0.59800217  1
  Rh  Rh211  1  0.19557226  0.58891287  0.00748397  1
  Rh  Rh212  1  0.40210915  0.79084052  0.80742863  1
  Rh  Rh213  1  0.80743806  -0.00191587  0.40174226  1
  Rh  Rh214  1  0.80171026  0.39719304  0.60380530  1
  Rh  Rh215  1  0.21083326  0.19638226  0.80717112  1
  Rh  Rh216  1  0.80533196  0.39709585  0.78894325  1
  Rh  Rh217  1  0.20179612  0.40352279  0.59080035  1
  Rh  Rh218  1  0.19248747  0.59891495  0.40013560  1
  Rh  Rh219  1  0.40973728  0.60303272  0.39630720  1
  Rh  Rh220  1  0.60672729  0.59448743  0.59151548  1
  Rh  Rh221  1  0.40728501  0.00062104  0.19521947  1
  Rh  Rh222  1  0.80467589  0.80017001  0.40337017  1
  Rh  Rh223  1  0.39137133  0.39414087  0.39450197  1
  Rh  Rh224  1  0.40355139  0.79823835  -0.00421085  1
  Rh  Rh225  1  0.40693949  0.61060635  0.00035546  1
  Rh  Rh226  1  -0.00374160  -0.00270882  0.00507409  1
  Rh  Rh227  1  0.40710634  0.39240790  -0.00191899  1
  Rh  Rh228  1  0.59869538  0.80493020  0.20230682  1
  Rh  Rh229  1  0.80252983  0.60143611  -0.00142160  1
  Rh  Rh230  1  0.79567327  -0.00007992  0.19698453  1
  Rh  Rh231  1  0.21274474  -0.00967911  0.60212855  1
  Rh  Rh232  1  -0.00812169  0.00946330  0.59932149  1
  Rh  Rh233  1  0.20615742  0.00134993  -0.00241864  1
  Rh  Rh234  1  0.79823783  0.39998309  0.00904053  1
  Rh  Rh235  1  0.79656564  0.79916172  0.19274577  1
  Rh  Rh236  1  -0.00855345  0.19049625  0.40974953  1
  Rh  Rh237  1  0.59734892  -0.00685937  -0.00455433  1
  Rh  Rh238  1  0.19898550  0.59993391  0.79399210  1
  Rh  Rh239  1  0.00647619  0.00783829  0.79421307  1
  Rh  Rh240  1  0.59682694  -0.00460360  0.20282313  1
  Rh  Rh241  1  0.59933951  0.19986355  0.39534667  1
  Rh  Rh242  1  0.19387152  0.80852990  0.00441261  1
  Rh  Rh243  1  0.20298444  0.39832429  0.40180094  1
  Rh  Rh244  1  0.60234628  0.40592072  0.59724083  1
  Rh  Rh245  1  0.79546951  -0.00495721  0.59471406  1
  Rh  Rh246  1  0.79047386  0.60014457  0.20199305  1
  Rh  Rh247  1  0.00173427  0.19721705  0.19056607  1
  Rh  Rh248  1  -0.00352805  0.40272717  0.19631409  1
  Rh  Rh249  1  0.60635378  0.80399865  0.58913672  1
