# generated using pymatgen
data_ZrScNbPdRh
_symmetry_space_group_name_H-M   'P 1'
_cell_length_a   16.55652530
_cell_length_b   16.55578270
_cell_length_c   16.55301510
_cell_angle_alpha   90.00360454
_cell_angle_beta   89.99584430
_cell_angle_gamma   90.00254755
_symmetry_Int_Tables_number   1
_chemical_formula_structural   ZrScNbPdRh
_chemical_formula_sum   'Zr50 Sc50 Nb50 Pd50 Rh50'
_cell_volume   4537.28462496
_cell_formula_units_Z   50
loop_
 _symmetry_equiv_pos_site_id
 _symmetry_equiv_pos_as_xyz
  1  'x, y, z'
loop_
 _atom_site_type_symbol
 _atom_site_label
 _atom_site_symmetry_multiplicity
 _atom_site_fract_x
 _atom_site_fract_y
 _atom_site_fract_z
 _atom_site_occupancy
  Zr  Zr0  1  0.48959667  0.70898971  0.30590169  1
  Zr  Zr1  1  0.10731126  0.90382464  0.29189698  1
  Zr  Zr2  1  0.30584400  0.89997435  0.50302246  1
  Zr  Zr3  1  0.89581756  0.69613320  0.90261899  1
  Zr  Zr4  1  0.09871261  0.70466183  0.29909211  1
  Zr  Zr5  1  0.89489878  0.70070363  0.70443518  1
  Zr  Zr6  1  0.10556940  0.90110871  0.50474551  1
  Zr  Zr7  1  0.90544237  0.69719963  0.09743993  1
  Zr  Zr8  1  0.90537442  0.29888665  0.31014730  1
  Zr  Zr9  1  0.69880223  0.70661832  0.70268089  1
  Zr  Zr10  1  0.89798991  0.70003497  0.29885448  1
  Zr  Zr11  1  0.49573192  0.09630420  0.90541448  1
  Zr  Zr12  1  0.90267939  0.29773846  0.70353165  1
  Zr  Zr13  1  0.29778612  0.70070239  0.90321061  1
  Zr  Zr14  1  0.29840181  0.89857302  0.69943022  1
  Zr  Zr15  1  0.09609404  0.09138107  0.70277534  1
  Zr  Zr16  1  0.29733741  0.29615288  0.49207224  1
  Zr  Zr17  1  0.50237894  0.31074750  0.69736876  1
  Zr  Zr18  1  0.90562227  0.90109024  0.09960380  1
  Zr  Zr19  1  0.09658483  0.10204831  0.50102400  1
  Zr  Zr20  1  0.50422223  0.08913411  0.69869836  1
  Zr  Zr21  1  0.68894642  0.89132778  0.89512314  1
  Zr  Zr22  1  0.89834863  0.70511970  0.49216906  1
  Zr  Zr23  1  0.28733562  0.28888483  0.10746421  1
  Zr  Zr24  1  0.29562875  0.30751628  0.69601236  1
  Zr  Zr25  1  0.69562952  0.50447702  0.29530779  1
  Zr  Zr26  1  0.09966856  0.49053851  0.29489952  1
  Zr  Zr27  1  0.70670870  0.30243514  0.50217554  1
  Zr  Zr28  1  0.69335170  0.89961942  0.70279184  1
  Zr  Zr29  1  0.89784540  0.49645633  0.70453902  1
  Zr  Zr30  1  0.69740254  0.50157338  0.69392431  1
  Zr  Zr31  1  0.28794644  0.50487865  0.70108224  1
  Zr  Zr32  1  0.70406751  0.09911866  0.30071318  1
  Zr  Zr33  1  0.71150688  0.10456865  0.10425936  1
  Zr  Zr34  1  0.89913585  0.50040424  0.10229492  1
  Zr  Zr35  1  0.70501304  0.09969481  0.70210638  1
  Zr  Zr36  1  0.29787802  0.09640454  0.09645313  1
  Zr  Zr37  1  0.10455763  0.69870563  0.49382425  1
  Zr  Zr38  1  0.50355559  0.30389439  0.90239790  1
  Zr  Zr39  1  0.89851868  0.10152544  0.10497790  1
  Zr  Zr40  1  0.49971647  0.30827650  0.49725063  1
  Zr  Zr41  1  0.90200796  0.49923602  0.90124286  1
  Zr  Zr42  1  0.10544832  0.69528348  0.09866355  1
  Zr  Zr43  1  0.69527350  0.49096272  0.10725898  1
  Zr  Zr44  1  0.49958371  0.69937996  0.50739092  1
  Zr  Zr45  1  0.09258951  0.90498791  0.89189883  1
  Zr  Zr46  1  0.11094595  0.68968231  0.70155849  1
  Zr  Zr47  1  0.49768834  0.48965916  0.29104781  1
  Zr  Zr48  1  0.49141550  0.50456031  0.69924305  1
  Zr  Zr49  1  0.29989473  0.51135137  0.10361924  1
  Sc  Sc50  1  0.09861387  0.50126749  0.88785950  1
  Sc  Sc51  1  0.90655271  0.89856099  0.70693148  1
  Sc  Sc52  1  0.89792649  0.09818151  0.30670674  1
  Sc  Sc53  1  0.11049112  0.30385978  0.29916587  1
  Sc  Sc54  1  0.49699559  0.89534196  0.69954112  1
  Sc  Sc55  1  0.48925393  0.70642469  0.10211037  1
  Sc  Sc56  1  0.89800546  0.10298528  0.89069679  1
  Sc  Sc57  1  0.10641622  0.09304731  0.10226027  1
  Sc  Sc58  1  0.29768046  0.29950928  0.90162321  1
  Sc  Sc59  1  0.30382978  0.90307362  0.90183619  1
  Sc  Sc60  1  0.49610034  0.49033396  0.90460181  1
  Sc  Sc61  1  0.70495128  0.49573631  0.90425361  1
  Sc  Sc62  1  0.69935127  0.89307153  0.49411686  1
  Sc  Sc63  1  0.90018769  0.89783208  0.30042641  1
  Sc  Sc64  1  0.30088756  0.50300119  0.89789284  1
  Sc  Sc65  1  0.30503327  0.11609618  0.28555142  1
  Sc  Sc66  1  0.10213972  0.29677015  0.70180537  1
  Sc  Sc67  1  0.30883099  0.70184447  0.49670989  1
  Sc  Sc68  1  0.89839602  0.50143267  0.29763722  1
  Sc  Sc69  1  0.10191720  0.29939144  0.88760681  1
  Sc  Sc70  1  0.90346736  0.90325080  0.49937549  1
  Sc  Sc71  1  0.70454077  0.70727633  0.30200918  1
  Sc  Sc72  1  0.09030956  0.70044698  0.90643671  1
  Sc  Sc73  1  0.49697327  0.89646416  0.90030466  1
  Sc  Sc74  1  0.50267625  0.31723701  0.09747155  1
  Sc  Sc75  1  0.90814244  0.89001936  0.89668159  1
  Sc  Sc76  1  0.50208385  0.50013106  0.51010134  1
  Sc  Sc77  1  0.29639529  0.09164887  0.69912089  1
  Sc  Sc78  1  0.90618804  0.10735940  0.49897209  1
  Sc  Sc79  1  0.71133197  0.30013355  0.90263341  1
  Sc  Sc80  1  0.10083137  0.90167857  0.10021139  1
  Sc  Sc81  1  0.71171743  0.30601721  0.69788782  1
  Sc  Sc82  1  0.49261696  0.71009469  0.89902261  1
  Sc  Sc83  1  0.69748154  0.69922193  0.11063558  1
  Sc  Sc84  1  0.70448509  0.09801308  0.89344746  1
  Sc  Sc85  1  0.70033079  0.70320391  0.50505206  1
  Sc  Sc86  1  0.30305470  0.70442564  0.29208058  1
  Sc  Sc87  1  0.10249907  0.29676527  0.49317186  1
  Sc  Sc88  1  0.29700517  0.09871252  0.90568394  1
  Sc  Sc89  1  0.49786683  0.08981734  0.49937876  1
  Sc  Sc90  1  0.70786324  0.10068444  0.49562514  1
  Sc  Sc91  1  0.31155693  0.69305588  0.70188778  1
  Sc  Sc92  1  0.29824690  0.49398252  0.50821765  1
  Sc  Sc93  1  0.69661884  0.49694156  0.50006973  1
  Sc  Sc94  1  0.50064410  0.89365770  0.50099205  1
  Sc  Sc95  1  0.29820373  0.90013600  0.10490342  1
  Sc  Sc96  1  0.89614009  0.49974093  0.49188653  1
  Sc  Sc97  1  0.48726060  0.09570902  0.10431184  1
  Sc  Sc98  1  0.70104763  0.30867136  0.30149302  1
  Sc  Sc99  1  0.90549475  0.10743869  0.69598805  1
  Nb  Nb100  1  0.09617234  0.49278668  0.10462989  1
  Nb  Nb101  1  0.49585296  0.29809358  0.30309455  1
  Nb  Nb102  1  0.69069779  0.90276702  0.29455878  1
  Nb  Nb103  1  0.09575486  0.09995413  0.29759162  1
  Nb  Nb104  1  0.10422226  0.49681579  0.69147758  1
  Nb  Nb105  1  0.29778831  0.49527918  0.30055733  1
  Nb  Nb106  1  0.09408872  0.30421110  0.10699045  1
  Nb  Nb107  1  0.69167954  0.70436483  0.90296450  1
  Nb  Nb108  1  0.89235986  0.29237786  0.09827519  1
  Nb  Nb109  1  0.09963869  0.89777854  0.70081526  1
  Nb  Nb110  1  0.90422608  0.30095473  0.89831720  1
  Nb  Nb111  1  0.09823887  0.09944351  0.89606311  1
  Nb  Nb112  1  0.50162468  0.10122268  0.29783056  1
  Nb  Nb113  1  0.70521432  0.29171965  0.10074964  1
  Nb  Nb114  1  0.30640113  0.31126470  0.30145037  1
  Nb  Nb115  1  0.49670162  0.90569262  0.29219861  1
  Nb  Nb116  1  0.29440588  0.70175193  0.09580315  1
  Nb  Nb117  1  0.50678564  0.50280597  0.09650934  1
  Nb  Nb118  1  0.69430328  0.89852966  0.10192472  1
  Nb  Nb119  1  0.30110401  0.09831565  0.49665160  1
  Nb  Nb120  1  0.30286413  0.90057126  0.29741422  1
  Nb  Nb121  1  0.90109480  0.29511771  0.50701777  1
  Nb  Nb122  1  0.10737737  0.50195058  0.50379710  1
  Nb  Nb123  1  0.50025938  0.69403448  0.69805266  1
  Nb  Nb124  1  0.50427646  0.90160855  0.10473355  1
  Nb  Nb125  1  0.00291085  0.59814240  0.59795009  1
  Nb  Nb126  1  0.59786493  0.60314550  0.80490695  1
  Nb  Nb127  1  0.59692840  0.20078871  0.59927945  1
  Nb  Nb128  1  0.40139199  0.19812599  0.60026268  1
  Nb  Nb129  1  0.20796817  0.00540285  0.39527088  1
  Nb  Nb130  1  0.60432742  -0.00068449  0.00711269  1
  Nb  Nb131  1  0.59331441  0.20087926  0.39644044  1
  Nb  Nb132  1  0.00013434  0.20305298  0.19711579  1
  Nb  Nb133  1  0.00368404  0.40460263  0.59786779  1
  Nb  Nb134  1  0.19779959  0.80138733  0.79843109  1
  Nb  Nb135  1  0.40562949  0.20160476  0.79326944  1
  Nb  Nb136  1  0.79585508  -0.00959255  0.00027736  1
  Nb  Nb137  1  0.80151527  -0.00084276  0.60338459  1
  Nb  Nb138  1  0.59691437  0.20354808  0.20159875  1
  Nb  Nb139  1  -0.00017460  0.20502571  0.00088838  1
  Nb  Nb140  1  0.20203370  0.59315588  0.39447568  1
  Nb  Nb141  1  0.19015559  0.40103419  0.00857515  1
  Nb  Nb142  1  0.79243253  0.80219824  0.00229221  1
  Nb  Nb143  1  0.60368601  0.19811689  0.00477860  1
  Nb  Nb144  1  -0.00025416  0.39332177  0.00382265  1
  Nb  Nb145  1  0.00712791  0.79357993  0.60320899  1
  Nb  Nb146  1  0.59683380  0.60097165  0.00063242  1
  Nb  Nb147  1  0.39791223  0.00099300  0.38882314  1
  Nb  Nb148  1  0.59625175  0.20210059  0.79923076  1
  Nb  Nb149  1  0.59305498  0.60143985  0.39628651  1
  Pd  Pd150  1  0.39739488  0.80691685  0.00630843  1
  Pd  Pd151  1  0.39079909  0.39885268  0.80178785  1
  Pd  Pd152  1  0.19497981  0.80881675  -0.00555374  1
  Pd  Pd153  1  0.39951188  0.41095912  0.40563747  1
  Pd  Pd154  1  0.18662631  0.20452823  -0.00358212  1
  Pd  Pd155  1  0.78888381  0.59864525  0.80475184  1
  Pd  Pd156  1  0.60980128  0.40255762  0.80313302  1
  Pd  Pd157  1  0.20894434  0.19302560  0.79812163  1
  Pd  Pd158  1  0.80422342  0.39509978  0.20388351  1
  Pd  Pd159  1  0.79986620  0.40211006  0.40012623  1
  Pd  Pd160  1  0.79955984  0.80538316  0.19826741  1
  Pd  Pd161  1  0.80058672  -0.00708552  0.40504542  1
  Pd  Pd162  1  0.00559171  0.59169654  0.40051757  1
  Pd  Pd163  1  0.00091049  0.59935068  0.20240948  1
  Pd  Pd164  1  0.39857897  0.59014979  0.40323566  1
  Pd  Pd165  1  0.19124788  0.59018791  -0.00603379  1
  Pd  Pd166  1  0.19821608  -0.00694710  -0.00433563  1
  Pd  Pd167  1  0.38385366  0.39929603  0.00825893  1
  Pd  Pd168  1  0.00215736  0.59984116  0.79469539  1
  Pd  Pd169  1  0.20933965  0.79954256  0.39530926  1
  Pd  Pd170  1  0.00128970  0.81013698  0.40201365  1
  Pd  Pd171  1  0.80798867  -0.00913405  0.80095187  1
  Pd  Pd172  1  0.59925889  0.00988220  0.19425243  1
  Pd  Pd173  1  0.78635121  0.60643042  0.00732566  1
  Pd  Pd174  1  0.39674773  0.00199821  0.80162504  1
  Pd  Pd175  1  0.80350722  -0.00942406  0.20209854  1
  Pd  Pd176  1  0.80455612  0.59739591  0.59314966  1
  Pd  Pd177  1  0.59939306  0.79702384  0.39728023  1
  Pd  Pd178  1  0.00442812  0.80166043  0.19585792  1
  Pd  Pd179  1  0.58913421  0.61086901  0.20163688  1
  Pd  Pd180  1  0.39456929  0.39823573  0.18953026  1
  Pd  Pd181  1  -0.00668475  0.00979473  -0.00559210  1
  Pd  Pd182  1  0.40463022  0.20711495  0.00114485  1
  Pd  Pd183  1  0.40799259  0.60173472  -0.00383472  1
  Pd  Pd184  1  0.80817690  0.81119671  0.60078566  1
  Pd  Pd185  1  0.20017700  0.00421812  0.59644861  1
  Pd  Pd186  1  0.20413424  0.79119775  0.60596970  1
  Pd  Pd187  1  0.00657004  -0.00333460  0.39795828  1
  Pd  Pd188  1  0.00452482  0.40102380  0.40768301  1
  Pd  Pd189  1  0.78880702  0.60061101  0.40079250  1
  Pd  Pd190  1  0.40217425  0.60250954  0.19941130  1
  Pd  Pd191  1  0.80336356  0.39801655  0.00134000  1
  Pd  Pd192  1  0.59600611  0.00104382  0.40112720  1
  Pd  Pd193  1  0.20135756  0.19723102  0.60297370  1
  Pd  Pd194  1  0.40483585  0.19294259  0.40458671  1
  Pd  Pd195  1  0.19996564  0.60242638  0.20762088  1
  Pd  Pd196  1  0.20029537  0.19454409  0.38850018  1
  Pd  Pd197  1  0.60993408  0.00056322  0.58802240  1
  Pd  Pd198  1  0.59508104  0.79456575  0.20331258  1
  Pd  Pd199  1  0.40891285  0.21069605  0.19218552  1
  Rh  Rh200  1  0.59385066  0.00210335  0.81128297  1
  Rh  Rh201  1  0.40784438  0.59931581  0.80746953  1
  Rh  Rh202  1  0.00272117  0.19680289  0.80456831  1
  Rh  Rh203  1  0.59776387  0.80050210  0.60336664  1
  Rh  Rh204  1  0.19050403  0.19722221  0.20491702  1
  Rh  Rh205  1  0.80205436  0.19269497  -0.01134516  1
  Rh  Rh206  1  0.20602828  0.00690959  0.20577416  1
  Rh  Rh207  1  0.39372982  0.79883292  0.79600270  1
  Rh  Rh208  1  0.59751041  0.40458170  0.39713520  1
  Rh  Rh209  1  0.60048787  0.39052834  0.20116898  1
  Rh  Rh210  1  0.81176105  0.40345126  0.59595014  1
  Rh  Rh211  1  0.80061945  0.80157999  0.80917628  1
  Rh  Rh212  1  0.58678275  0.79215735  0.79303750  1
  Rh  Rh213  1  0.60302821  0.60324789  0.60117314  1
  Rh  Rh214  1  0.19268509  0.38974539  0.59498905  1
  Rh  Rh215  1  0.39946640  0.81130197  0.39800532  1
  Rh  Rh216  1  0.20346819  0.40484641  0.40069734  1
  Rh  Rh217  1  -0.00499982  0.00534347  0.79809154  1
  Rh  Rh218  1  0.40386243  0.79656539  0.60533182  1
  Rh  Rh219  1  0.60596126  0.39760888  0.60030147  1
  Rh  Rh220  1  0.40465039  -0.00907449  0.00808461  1
  Rh  Rh221  1  0.39563261  0.80497559  0.19399433  1
  Rh  Rh222  1  0.39295310  0.39834585  0.59829737  1
  Rh  Rh223  1  0.79703966  0.80695839  0.39419139  1
  Rh  Rh224  1  0.19946003  0.40337821  0.80543664  1
  Rh  Rh225  1  0.20144086  0.60579534  0.80831560  1
  Rh  Rh226  1  0.00907941  0.78849595  0.79200602  1
  Rh  Rh227  1  0.80171175  0.60089563  0.20026703  1
  Rh  Rh228  1  -0.00219457  0.00704399  0.20429472  1
  Rh  Rh229  1  0.39805253  0.00219493  0.59383285  1
  Rh  Rh230  1  -0.01366109  0.39123107  0.19720432  1
  Rh  Rh231  1  0.61024070  0.39937419  0.00065990  1
  Rh  Rh232  1  0.00605949  0.58858397  0.00226202  1
  Rh  Rh233  1  0.20402013  0.79651624  0.19520052  1
  Rh  Rh234  1  0.00474499  0.20165503  0.39553743  1
  Rh  Rh235  1  0.00274923  0.39981235  0.79579180  1
  Rh  Rh236  1  0.79806350  0.19197207  0.59837201  1
  Rh  Rh237  1  0.79625299  0.20389994  0.40171365  1
  Rh  Rh238  1  -0.00182304  0.79837055  0.00421328  1
  Rh  Rh239  1  0.20029699  -0.00411004  0.80524899  1
  Rh  Rh240  1  0.59955652  0.79854174  0.00974533  1
  Rh  Rh241  1  0.79753251  0.20634415  0.79892280  1
  Rh  Rh242  1  0.39563953  -0.00234832  0.20162457  1
  Rh  Rh243  1  0.00750643  0.21051702  0.59808018  1
  Rh  Rh244  1  0.39453135  0.59708746  0.59756769  1
  Rh  Rh245  1  0.21004567  0.40182537  0.19622615  1
  Rh  Rh246  1  0.20561726  0.60617158  0.58835917  1
  Rh  Rh247  1  0.80066087  0.40048561  0.80228110  1
  Rh  Rh248  1  -0.00749399  -0.00802363  0.60383515  1
  Rh  Rh249  1  0.80307806  0.20850510  0.21750263  1
