# generated using pymatgen
data_ZrScNbPdRh
_symmetry_space_group_name_H-M   'P 1'
_cell_length_a   16.55323500
_cell_length_b   16.55816796
_cell_length_c   16.55675054
_cell_angle_alpha   89.98008178
_cell_angle_beta   90.00775222
_cell_angle_gamma   90.01145154
_symmetry_Int_Tables_number   1
_chemical_formula_structural   ZrScNbPdRh
_chemical_formula_sum   'Zr50 Sc50 Nb50 Pd50 Rh50'
_cell_volume   4538.05996914
_cell_formula_units_Z   50
loop_
 _symmetry_equiv_pos_site_id
 _symmetry_equiv_pos_as_xyz
  1  'x, y, z'
loop_
 _atom_site_type_symbol
 _atom_site_label
 _atom_site_symmetry_multiplicity
 _atom_site_fract_x
 _atom_site_fract_y
 _atom_site_fract_z
 _atom_site_occupancy
  Zr  Zr0  1  0.29693815  0.70505142  0.70662700  1
  Zr  Zr1  1  0.30501397  0.49413939  0.89531791  1
  Zr  Zr2  1  0.70403745  0.69438424  0.70175136  1
  Zr  Zr3  1  0.69475338  0.70614336  0.10086399  1
  Zr  Zr4  1  0.49284298  0.29869612  0.90434582  1
  Zr  Zr5  1  0.29880607  0.69424547  0.10190541  1
  Zr  Zr6  1  0.10035158  0.50415659  0.30300807  1
  Zr  Zr7  1  0.50012600  0.69500559  0.10575789  1
  Zr  Zr8  1  0.30709635  0.10325427  0.30040507  1
  Zr  Zr9  1  0.49977857  0.30187854  0.69497303  1
  Zr  Zr10  1  0.10219619  0.69706767  0.49241751  1
  Zr  Zr11  1  0.89345822  0.29298913  0.70175405  1
  Zr  Zr12  1  0.69867950  0.31277445  0.30422871  1
  Zr  Zr13  1  0.50121886  0.30867919  0.50177766  1
  Zr  Zr14  1  0.90315202  0.70120577  0.71409200  1
  Zr  Zr15  1  0.50653061  0.09961430  0.29762148  1
  Zr  Zr16  1  0.90246865  0.29856741  0.91170581  1
  Zr  Zr17  1  0.89545185  0.10653972  0.89547522  1
  Zr  Zr18  1  0.30176431  0.69243635  0.90102540  1
  Zr  Zr19  1  0.10486584  0.49637668  0.50105054  1
  Zr  Zr20  1  0.10459136  0.70154703  0.10459699  1
  Zr  Zr21  1  0.68822316  0.70231810  0.50260525  1
  Zr  Zr22  1  0.30251581  0.70279094  0.49640363  1
  Zr  Zr23  1  0.29021361  0.89298911  0.10141415  1
  Zr  Zr24  1  0.50340596  0.69890930  0.90009557  1
  Zr  Zr25  1  0.29987499  0.50270021  0.50315249  1
  Zr  Zr26  1  0.09464078  0.09660418  0.30350556  1
  Zr  Zr27  1  0.89804965  0.70232747  0.10855136  1
  Zr  Zr28  1  0.50421333  0.30954642  0.10090952  1
  Zr  Zr29  1  0.50620256  0.70498240  0.30479833  1
  Zr  Zr30  1  0.30303413  0.49743966  0.69946473  1
  Zr  Zr31  1  0.50204588  0.09823402  0.89668319  1
  Zr  Zr32  1  0.89725538  0.90099858  0.10897921  1
  Zr  Zr33  1  0.49413671  0.90175811  0.70581538  1
  Zr  Zr34  1  0.49736338  0.89879286  0.89771934  1
  Zr  Zr35  1  0.10398177  0.10529280  0.88948329  1
  Zr  Zr36  1  0.10770252  0.91181251  0.48851149  1
  Zr  Zr37  1  0.69569141  0.49630242  0.69874995  1
  Zr  Zr38  1  0.49284016  0.10252176  0.70061930  1
  Zr  Zr39  1  0.71135434  0.10508023  0.70445140  1
  Zr  Zr40  1  0.89860442  0.89764616  0.69867595  1
  Zr  Zr41  1  0.10179198  0.50685621  0.10304355  1
  Zr  Zr42  1  0.09316217  0.70175495  0.88966270  1
  Zr  Zr43  1  0.09802424  0.90057806  0.29211421  1
  Zr  Zr44  1  0.70268048  0.89979590  0.10295421  1
  Zr  Zr45  1  0.30762932  0.50660586  0.09596233  1
  Zr  Zr46  1  0.89432556  0.50143760  0.30573560  1
  Zr  Zr47  1  0.50288870  0.69943303  0.49429875  1
  Zr  Zr48  1  0.70236162  0.91406037  0.29653203  1
  Zr  Zr49  1  0.31385027  0.30627352  0.09774824  1
  Sc  Sc50  1  0.07873950  0.29905448  0.10117804  1
  Sc  Sc51  1  0.89763586  0.08999359  0.49787116  1
  Sc  Sc52  1  0.30100271  0.10339080  0.89618792  1
  Sc  Sc53  1  0.69492577  0.49518729  0.89539966  1
  Sc  Sc54  1  0.89737511  0.10075273  0.09169828  1
  Sc  Sc55  1  0.50242537  0.49662593  0.69620005  1
  Sc  Sc56  1  0.70288646  0.49432380  0.49447925  1
  Sc  Sc57  1  0.10631644  0.90410240  0.90057880  1
  Sc  Sc58  1  0.29868827  0.90126216  0.89085438  1
  Sc  Sc59  1  0.09797866  0.69639009  0.29151215  1
  Sc  Sc60  1  0.70591258  0.89212027  0.69777713  1
  Sc  Sc61  1  0.90032005  0.69333819  0.29521775  1
  Sc  Sc62  1  0.50803947  0.49788957  0.30365910  1
  Sc  Sc63  1  0.50158821  0.10197125  0.10280107  1
  Sc  Sc64  1  0.89885067  0.30909838  0.29238335  1
  Sc  Sc65  1  0.49424840  0.10317649  0.50659739  1
  Sc  Sc66  1  0.50413761  0.89217711  0.10638953  1
  Sc  Sc67  1  0.89832072  0.89850522  0.90016290  1
  Sc  Sc68  1  0.11404068  0.89604307  0.70602866  1
  Sc  Sc69  1  0.69749829  0.30580155  0.09232519  1
  Sc  Sc70  1  0.29449939  0.90115602  0.49845256  1
  Sc  Sc71  1  0.29639558  0.89615183  0.30179654  1
  Sc  Sc72  1  0.30497374  0.09100025  0.09940062  1
  Sc  Sc73  1  0.50367000  0.89440990  0.29999351  1
  Sc  Sc74  1  0.29350261  0.09378841  0.51050840  1
  Sc  Sc75  1  0.70421835  0.50225857  0.30309663  1
  Sc  Sc76  1  0.69829958  0.09703373  0.49994675  1
  Sc  Sc77  1  0.89288913  0.30933858  0.51165129  1
  Sc  Sc78  1  0.69940152  0.09805346  0.10338078  1
  Sc  Sc79  1  0.29263891  0.10251469  0.69849818  1
  Sc  Sc80  1  0.29866994  0.49659631  0.30664923  1
  Sc  Sc81  1  0.30288653  0.29838594  0.70578288  1
  Sc  Sc82  1  0.70492123  0.89567914  0.90550800  1
  Sc  Sc83  1  0.30570497  0.70657808  0.29828103  1
  Sc  Sc84  1  0.90124655  0.49124140  0.89374409  1
  Sc  Sc85  1  0.70011101  0.89822694  0.50396532  1
  Sc  Sc86  1  0.09527540  0.49599820  0.69802096  1
  Sc  Sc87  1  0.89929960  0.49710236  0.69213597  1
  Sc  Sc88  1  0.89566457  0.48863126  0.10355828  1
  Sc  Sc89  1  0.09905470  0.70048523  0.70525275  1
  Sc  Sc90  1  0.50028084  0.50052088  0.89712224  1
  Sc  Sc91  1  0.50526556  0.89300560  0.49835661  1
  Sc  Sc92  1  0.09444169  0.09194190  0.10098328  1
  Sc  Sc93  1  0.09362035  0.29974946  0.29502466  1
  Sc  Sc94  1  0.70865497  0.10053272  0.90507616  1
  Sc  Sc95  1  0.90151907  0.68722699  0.50290897  1
  Sc  Sc96  1  0.09746205  0.29016778  0.69694604  1
  Sc  Sc97  1  0.09203159  0.49229005  0.89417990  1
  Sc  Sc98  1  0.50972139  0.69263304  0.69347206  1
  Sc  Sc99  1  0.29759410  0.31163785  0.49861427  1
  Nb  Nb100  1  0.89489867  0.29639919  0.10319048  1
  Nb  Nb101  1  0.90268937  0.89981181  0.49883077  1
  Nb  Nb102  1  0.69901695  0.29851774  0.89584027  1
  Nb  Nb103  1  0.69809771  0.30119951  0.50245986  1
  Nb  Nb104  1  0.70284073  0.70029626  0.90010008  1
  Nb  Nb105  1  0.90826836  0.49751988  0.49966610  1
  Nb  Nb106  1  0.30301286  0.90074891  0.69530334  1
  Nb  Nb107  1  0.49435624  0.29582322  0.30291799  1
  Nb  Nb108  1  0.50089706  0.50451597  0.50256824  1
  Nb  Nb109  1  0.09646236  0.89424153  0.10044522  1
  Nb  Nb110  1  0.10063435  0.29848647  0.90204111  1
  Nb  Nb111  1  0.89999913  0.69915703  0.89979943  1
  Nb  Nb112  1  0.89779201  0.90952105  0.30646550  1
  Nb  Nb113  1  0.70140620  0.10314906  0.30179866  1
  Nb  Nb114  1  0.10013461  0.10423981  0.69320598  1
  Nb  Nb115  1  0.10351417  0.10554443  0.50273155  1
  Nb  Nb116  1  0.70282962  0.70317692  0.30263107  1
  Nb  Nb117  1  0.50559836  0.50064036  0.09566086  1
  Nb  Nb118  1  0.09924057  0.29783544  0.49864401  1
  Nb  Nb119  1  0.69138698  0.50052808  0.09745268  1
  Nb  Nb120  1  0.90450591  0.10100139  0.70369252  1
  Nb  Nb121  1  0.30187519  0.29895247  0.29981175  1
  Nb  Nb122  1  0.29866392  0.30060579  0.90100025  1
  Nb  Nb123  1  0.69927887  0.30152787  0.69078514  1
  Nb  Nb124  1  0.89306828  0.09853085  0.30339457  1
  Nb  Nb125  1  0.39736518  0.79984966  0.60354370  1
  Nb  Nb126  1  0.39762813  0.79450850  0.00103723  1
  Nb  Nb127  1  0.20432624  0.39312630  0.19530565  1
  Nb  Nb128  1  0.40121861  0.00143642  0.39955732  1
  Nb  Nb129  1  0.79781703  0.20295038  0.39664906  1
  Nb  Nb130  1  0.60393340  0.79517381  0.80318418  1
  Nb  Nb131  1  0.60590608  0.20610159  0.79715286  1
  Nb  Nb132  1  -0.00817658  0.60567048  -0.00064708  1
  Nb  Nb133  1  0.59855225  -0.00327095  -0.00132810  1
  Nb  Nb134  1  0.00189594  0.39923537  0.40728396  1
  Nb  Nb135  1  0.00543898  0.00108475  0.60290487  1
  Nb  Nb136  1  0.59812888  0.00218605  0.61044415  1
  Nb  Nb137  1  -0.00617025  0.80552498  0.39990329  1
  Nb  Nb138  1  0.00188496  0.80651263  0.59306588  1
  Nb  Nb139  1  0.60071295  0.20712938  0.39791395  1
  Nb  Nb140  1  0.19963235  0.20878050  0.00333517  1
  Nb  Nb141  1  0.79837493  0.60250829  -0.00156197  1
  Nb  Nb142  1  0.00076957  0.00714788  0.79112353  1
  Nb  Nb143  1  0.79983616  0.20185455  0.20443989  1
  Nb  Nb144  1  0.00220411  0.79818086  0.00438552  1
  Nb  Nb145  1  0.19632953  0.20314466  0.39791547  1
  Nb  Nb146  1  -0.00389975  0.20221545  0.40295075  1
  Nb  Nb147  1  0.20409530  0.20589146  0.19789632  1
  Nb  Nb148  1  0.19823145  0.39289411  0.00108725  1
  Nb  Nb149  1  0.80503584  0.80296187  0.39867092  1
  Pd  Pd150  1  0.79537237  0.40507377  0.00078278  1
  Pd  Pd151  1  0.79641388  0.60694877  0.40766501  1
  Pd  Pd152  1  0.40388692  0.40558927  0.39944775  1
  Pd  Pd153  1  0.79272368  0.59398894  0.19182489  1
  Pd  Pd154  1  0.00008298  -0.00563354  -0.01013880  1
  Pd  Pd155  1  0.19569444  0.39411831  0.79802212  1
  Pd  Pd156  1  0.38772827  0.20799810  0.59376988  1
  Pd  Pd157  1  0.80919694  0.79012160  0.59193776  1
  Pd  Pd158  1  0.00208959  0.40663581  0.20383770  1
  Pd  Pd159  1  0.20657645  0.60673870  0.39207645  1
  Pd  Pd160  1  0.19931400  0.00749656  -0.00023728  1
  Pd  Pd161  1  0.40187493  0.40976280  0.20769816  1
  Pd  Pd162  1  0.59494570  0.39304968  0.80242285  1
  Pd  Pd163  1  0.40825863  0.59962566  0.79085234  1
  Pd  Pd164  1  0.19941426  0.39197378  0.60893917  1
  Pd  Pd165  1  0.60467317  0.59612025  -0.00516241  1
  Pd  Pd166  1  0.80098427  0.39605771  0.79795761  1
  Pd  Pd167  1  0.18830171  0.59031765  -0.01384185  1
  Pd  Pd168  1  0.39585626  0.19262787  0.00256961  1
  Pd  Pd169  1  0.80428601  0.19350732  0.58906994  1
  Pd  Pd170  1  0.40294991  0.59345321  0.21081585  1
  Pd  Pd171  1  0.40206967  0.59662522  0.39382228  1
  Pd  Pd172  1  0.80197997  -0.00651420  0.80272202  1
  Pd  Pd173  1  -0.00981153  0.19562823  0.59142205  1
  Pd  Pd174  1  0.39704013  0.19660033  0.41119274  1
  Pd  Pd175  1  -0.00762691  0.00537279  0.19894089  1
  Pd  Pd176  1  0.40073542  0.60571863  0.60408916  1
  Pd  Pd177  1  0.79857475  0.00193715  0.59835313  1
  Pd  Pd178  1  0.61409670  -0.00021068  0.80209971  1
  Pd  Pd179  1  0.79654738  0.59609258  0.59518181  1
  Pd  Pd180  1  0.80145948  0.59024461  0.80621562  1
  Pd  Pd181  1  0.19341911  0.59210713  0.79950119  1
  Pd  Pd182  1  0.40370610  -0.00982832  0.00424361  1
  Pd  Pd183  1  0.60119947  0.40418868  0.20187150  1
  Pd  Pd184  1  0.00405999  0.19395526  0.00175334  1
  Pd  Pd185  1  0.19786071  0.80087278  0.59652853  1
  Pd  Pd186  1  0.60548664  0.19375418  -0.00424431  1
  Pd  Pd187  1  0.60741122  0.20669503  0.20340353  1
  Pd  Pd188  1  0.80770690  0.79686422  -0.00052530  1
  Pd  Pd189  1  0.60324634  0.19334936  0.59981341  1
  Pd  Pd190  1  0.40170800  0.19968270  0.19352268  1
  Pd  Pd191  1  -0.00136317  0.39039665  0.79120854  1
  Pd  Pd192  1  0.59356011  0.00511224  0.41044427  1
  Pd  Pd193  1  0.20103079  0.00541273  0.19956388  1
  Pd  Pd194  1  0.19600397  0.60246395  0.60700880  1
  Pd  Pd195  1  0.60494082  0.59967620  0.20828263  1
  Pd  Pd196  1  0.38759190  0.00657308  0.79869537  1
  Pd  Pd197  1  0.00480479  0.60589896  0.60564762  1
  Pd  Pd198  1  0.40481453  -0.01096213  0.20483891  1
  Pd  Pd199  1  0.19970434  0.79851908  -0.00782999  1
  Rh  Rh200  1  0.59155157  0.80962547  0.61335941  1
  Rh  Rh201  1  0.40330678  0.79409423  0.79820828  1
  Rh  Rh202  1  0.00020288  0.20123738  0.80087351  1
  Rh  Rh203  1  0.79568113  0.20548069  0.00794930  1
  Rh  Rh204  1  0.20001247  0.00448871  0.79296687  1
  Rh  Rh205  1  0.59295995  0.80570067  -0.00703123  1
  Rh  Rh206  1  0.20453456  0.20633444  0.59456553  1
  Rh  Rh207  1  0.79616873  0.21013129  0.80306924  1
  Rh  Rh208  1  0.60476576  0.59009882  0.59410720  1
  Rh  Rh209  1  0.20058448  0.20454600  0.80203829  1
  Rh  Rh210  1  0.80924469  0.39648694  0.40670155  1
  Rh  Rh211  1  0.19432157  -0.00039125  0.60697484  1
  Rh  Rh212  1  0.40421231  0.40822143  -0.00384611  1
  Rh  Rh213  1  0.21006693  0.01135282  0.39361541  1
  Rh  Rh214  1  0.60626220  0.79958603  0.20796217  1
  Rh  Rh215  1  0.61464344  0.80677742  0.39206408  1
  Rh  Rh216  1  0.80515261  0.01097535  0.19599104  1
  Rh  Rh217  1  0.79641645  0.40573739  0.60044957  1
  Rh  Rh218  1  0.59736482  0.00000958  0.19148262  1
  Rh  Rh219  1  0.20438915  0.80115293  0.80448930  1
  Rh  Rh220  1  0.40393821  0.39679901  0.79805338  1
  Rh  Rh221  1  0.39725578  0.80842447  0.40851668  1
  Rh  Rh222  1  -0.00686787  0.59368260  0.19532639  1
  Rh  Rh223  1  0.79409062  0.79914861  0.80349186  1
  Rh  Rh224  1  -0.00104239  0.00327121  0.40474164  1
  Rh  Rh225  1  0.21021075  0.59467003  0.20744395  1
  Rh  Rh226  1  0.19970728  0.79819162  0.20523323  1
  Rh  Rh227  1  0.40938296  0.60118946  0.00027236  1
  Rh  Rh228  1  -0.01069091  0.19123264  0.20477224  1
  Rh  Rh229  1  0.19093513  0.39006360  0.38966685  1
  Rh  Rh230  1  0.00175128  0.81369545  0.80233080  1
  Rh  Rh231  1  0.19110274  0.79572446  0.39196023  1
  Rh  Rh232  1  0.00248825  0.40506780  0.00337698  1
  Rh  Rh233  1  0.79390432  -0.00086523  0.40645464  1
  Rh  Rh234  1  0.40654221  -0.01393664  0.58986921  1
  Rh  Rh235  1  0.59829424  0.40331939  -0.00570669  1
  Rh  Rh236  1  0.00287704  0.39612645  0.59863367  1
  Rh  Rh237  1  -0.00462231  0.59188913  0.80066431  1
  Rh  Rh238  1  -0.00139717  0.59839145  0.39806368  1
  Rh  Rh239  1  0.59479732  0.39978817  0.40344492  1
  Rh  Rh240  1  -0.00383621  0.80503939  0.20437025  1
  Rh  Rh241  1  0.79461416  -0.00068547  0.00378761  1
  Rh  Rh242  1  0.60248447  0.40673807  0.59372399  1
  Rh  Rh243  1  0.39695949  0.80149622  0.19266299  1
  Rh  Rh244  1  0.60226838  0.60340517  0.80105564  1
  Rh  Rh245  1  0.79702925  0.80388095  0.21370493  1
  Rh  Rh246  1  0.60319181  0.59681755  0.39986499  1
  Rh  Rh247  1  0.40262541  0.20151480  0.80071159  1
  Rh  Rh248  1  0.79096613  0.39831471  0.19276734  1
  Rh  Rh249  1  0.39804341  0.40325352  0.59906975  1
