# generated using pymatgen
data_ZrScNbPdRh
_symmetry_space_group_name_H-M   'P 1'
_cell_length_a   16.55804125
_cell_length_b   16.55739720
_cell_length_c   16.56582376
_cell_angle_alpha   89.98818419
_cell_angle_beta   90.01952101
_cell_angle_gamma   89.99988499
_symmetry_Int_Tables_number   1
_chemical_formula_structural   ZrScNbPdRh
_chemical_formula_sum   'Zr50 Sc50 Nb50 Pd50 Rh50'
_cell_volume   4541.65383935
_cell_formula_units_Z   50
loop_
 _symmetry_equiv_pos_site_id
 _symmetry_equiv_pos_as_xyz
  1  'x, y, z'
loop_
 _atom_site_type_symbol
 _atom_site_label
 _atom_site_symmetry_multiplicity
 _atom_site_fract_x
 _atom_site_fract_y
 _atom_site_fract_z
 _atom_site_occupancy
  Zr  Zr0  1  0.30261182  0.49905688  0.30384479  1
  Zr  Zr1  1  0.49915618  0.69950322  0.49892960  1
  Zr  Zr2  1  0.09957701  0.69019470  0.69487760  1
  Zr  Zr3  1  0.50348970  0.89474120  0.50893569  1
  Zr  Zr4  1  0.30334993  0.71260490  0.09290898  1
  Zr  Zr5  1  0.11034119  0.10652869  0.50228753  1
  Zr  Zr6  1  0.89289911  0.28943234  0.70246747  1
  Zr  Zr7  1  0.90199578  0.49629480  0.69571562  1
  Zr  Zr8  1  0.70157809  0.69880989  0.29781512  1
  Zr  Zr9  1  0.89572387  0.90232212  0.50283878  1
  Zr  Zr10  1  0.10193759  0.90728164  0.08838977  1
  Zr  Zr11  1  0.09549582  0.09822515  0.69953721  1
  Zr  Zr12  1  0.30248425  0.30145849  0.30772080  1
  Zr  Zr13  1  0.50807588  0.90359600  0.10375582  1
  Zr  Zr14  1  0.09884288  0.29510442  0.89534752  1
  Zr  Zr15  1  0.90518735  0.30287138  0.89940936  1
  Zr  Zr16  1  0.90354245  0.70282761  0.30241272  1
  Zr  Zr17  1  0.70685931  0.10878766  0.29446791  1
  Zr  Zr18  1  0.50401407  0.89922623  0.70208585  1
  Zr  Zr19  1  0.69900081  0.70304148  0.90227274  1
  Zr  Zr20  1  0.29710167  0.10146130  0.30748139  1
  Zr  Zr21  1  0.30894111  0.69375060  0.89424330  1
  Zr  Zr22  1  0.50696839  0.09251656  0.70557829  1
  Zr  Zr23  1  0.10471362  0.70157909  0.10435213  1
  Zr  Zr24  1  0.90375244  0.90320426  0.70010281  1
  Zr  Zr25  1  0.70217280  0.71556995  0.10333728  1
  Zr  Zr26  1  0.90749916  0.89874818  0.90570311  1
  Zr  Zr27  1  0.49338060  0.28783488  0.90484316  1
  Zr  Zr28  1  0.09749994  0.29995431  0.30421773  1
  Zr  Zr29  1  0.89548981  0.70239424  0.10667425  1
  Zr  Zr30  1  0.69499908  0.69791285  0.50302936  1
  Zr  Zr31  1  0.69495751  0.30087740  0.11535856  1
  Zr  Zr32  1  0.69805912  0.89678226  0.51183928  1
  Zr  Zr33  1  0.50443915  0.50034392  0.09919926  1
  Zr  Zr34  1  0.50413388  0.10101282  0.30252003  1
  Zr  Zr35  1  0.49982739  0.50354417  0.30636108  1
  Zr  Zr36  1  0.70964580  0.49551133  0.10305295  1
  Zr  Zr37  1  0.30595265  0.89610805  0.90209166  1
  Zr  Zr38  1  0.71528749  0.30044844  0.49605811  1
  Zr  Zr39  1  0.10242622  0.49304023  0.10447751  1
  Zr  Zr40  1  0.09769887  0.69800069  0.30045274  1
  Zr  Zr41  1  0.10016961  0.29207842  0.09759407  1
  Zr  Zr42  1  0.10071168  0.90075705  0.70096288  1
  Zr  Zr43  1  0.49914152  0.10708309  0.09029966  1
  Zr  Zr44  1  0.29868670  0.70510035  0.29248904  1
  Zr  Zr45  1  0.69864437  0.09220718  0.10223210  1
  Zr  Zr46  1  0.09639594  0.68778748  0.49876600  1
  Zr  Zr47  1  0.70389470  0.49138511  0.70178393  1
  Zr  Zr48  1  0.29550764  0.30333124  0.89916612  1
  Zr  Zr49  1  0.69933065  0.90174476  0.90609207  1
  Sc  Sc50  1  0.49866819  0.50784702  0.89131019  1
  Sc  Sc51  1  0.50032620  0.09444518  0.89956050  1
  Sc  Sc52  1  0.49977490  0.70597024  0.09175018  1
  Sc  Sc53  1  0.48991907  0.50829443  0.49018436  1
  Sc  Sc54  1  0.89660570  0.50492829  0.29257174  1
  Sc  Sc55  1  0.30537516  0.90256130  0.69359902  1
  Sc  Sc56  1  0.89215083  0.28857024  0.30562294  1
  Sc  Sc57  1  0.89798757  0.49066579  0.89261963  1
  Sc  Sc58  1  0.30305118  0.90185864  0.10113207  1
  Sc  Sc59  1  0.08813657  0.70368901  0.88988783  1
  Sc  Sc60  1  0.10466111  0.10889571  0.30346246  1
  Sc  Sc61  1  0.10067120  0.91019193  0.31062460  1
  Sc  Sc62  1  0.89944700  0.90889254  0.30679986  1
  Sc  Sc63  1  0.30573154  0.90251347  0.29785531  1
  Sc  Sc64  1  0.90366846  0.30426803  0.49890005  1
  Sc  Sc65  1  0.10509433  0.50035988  0.30622398  1
  Sc  Sc66  1  0.89366648  0.10000548  0.50158597  1
  Sc  Sc67  1  0.69141720  0.90141722  0.69781286  1
  Sc  Sc68  1  0.69815200  0.49937383  0.89388977  1
  Sc  Sc69  1  0.49629016  0.09797337  0.49827727  1
  Sc  Sc70  1  0.09974198  0.29951628  0.69261832  1
  Sc  Sc71  1  0.30066458  0.50924897  0.70280416  1
  Sc  Sc72  1  0.90363989  0.68844439  0.70172995  1
  Sc  Sc73  1  0.49821163  0.90062142  0.29991259  1
  Sc  Sc74  1  0.70154451  0.09445161  0.49982104  1
  Sc  Sc75  1  0.10254272  0.91073816  0.50142316  1
  Sc  Sc76  1  0.10094644  0.09780096  0.90129115  1
  Sc  Sc77  1  0.30359475  0.69547486  0.51197835  1
  Sc  Sc78  1  0.28662045  0.29941373  0.09816155  1
  Sc  Sc79  1  0.69536381  0.90400978  0.28597586  1
  Sc  Sc80  1  0.09564195  0.90521561  0.89489952  1
  Sc  Sc81  1  0.30110096  0.90495320  0.50400686  1
  Sc  Sc82  1  0.09735940  0.49150766  0.88741126  1
  Sc  Sc83  1  0.29750359  0.09912317  0.69193829  1
  Sc  Sc84  1  0.50146964  0.29786349  0.71602950  1
  Sc  Sc85  1  0.69117433  0.09892650  0.90259925  1
  Sc  Sc86  1  0.09688365  0.49798197  0.69285773  1
  Sc  Sc87  1  0.70293648  0.49314609  0.29937797  1
  Sc  Sc88  1  0.49929435  0.70617528  0.89715070  1
  Sc  Sc89  1  0.49019488  0.69860775  0.70091818  1
  Sc  Sc90  1  0.69751411  0.30523618  0.88733231  1
  Sc  Sc91  1  0.30817980  0.09956951  0.90095532  1
  Sc  Sc92  1  0.90833321  0.10794230  0.89335657  1
  Sc  Sc93  1  0.29943598  0.29652159  0.70256228  1
  Sc  Sc94  1  0.30114027  0.29265122  0.50230693  1
  Sc  Sc95  1  0.50026681  0.70658552  0.30734737  1
  Sc  Sc96  1  0.69917098  0.70021259  0.70157314  1
  Sc  Sc97  1  0.89336858  0.10445306  0.10439930  1
  Sc  Sc98  1  0.29202039  0.49367528  0.10000974  1
  Sc  Sc99  1  0.29913757  0.50195087  0.49952893  1
  Nb  Nb100  1  0.70438261  0.10577688  0.69799210  1
  Nb  Nb101  1  0.89739496  0.09953444  0.29653509  1
  Nb  Nb102  1  0.29859239  0.49908068  0.90233417  1
  Nb  Nb103  1  0.90104874  0.70102837  0.90072493  1
  Nb  Nb104  1  0.71085428  0.90312719  0.09849670  1
  Nb  Nb105  1  0.08814623  0.48523455  0.50602711  1
  Nb  Nb106  1  0.89497264  0.09948559  0.69967526  1
  Nb  Nb107  1  0.29789318  0.10584674  0.49714038  1
  Nb  Nb108  1  0.10826504  0.10196569  0.10807471  1
  Nb  Nb109  1  0.69406635  0.29645184  0.30233997  1
  Nb  Nb110  1  0.89908398  0.69732564  0.50173430  1
  Nb  Nb111  1  0.09900695  0.30828298  0.50101111  1
  Nb  Nb112  1  0.50294808  0.49721150  0.69558749  1
  Nb  Nb113  1  0.29600775  0.10377882  0.10862298  1
  Nb  Nb114  1  0.89523194  0.30985919  0.09083054  1
  Nb  Nb115  1  0.69658114  0.29585018  0.69911836  1
  Nb  Nb116  1  0.50222350  0.90627322  0.89088414  1
  Nb  Nb117  1  0.89743404  0.49539656  0.09436005  1
  Nb  Nb118  1  0.49902672  0.29839696  0.49644637  1
  Nb  Nb119  1  0.70410853  0.49507759  0.50237848  1
  Nb  Nb120  1  0.50665766  0.29905902  0.29931215  1
  Nb  Nb121  1  0.29459845  0.69692882  0.69614380  1
  Nb  Nb122  1  0.89020372  0.49787905  0.50620107  1
  Nb  Nb123  1  0.49983666  0.30004178  0.10379226  1
  Nb  Nb124  1  0.89268911  0.90132795  0.10031267  1
  Nb  Nb125  1  0.60258136  0.20657752  0.60156142  1
  Nb  Nb126  1  0.59945600  0.60118046  0.19963917  1
  Nb  Nb127  1  0.60139362  0.39406092  0.40318597  1
  Nb  Nb128  1  0.40118674  0.20432767  0.19994672  1
  Nb  Nb129  1  0.59450537  0.39609944  0.00191130  1
  Nb  Nb130  1  0.00099755  0.00475743  0.19563215  1
  Nb  Nb131  1  0.80537165  0.80454334  0.80464724  1
  Nb  Nb132  1  -0.00102620  0.79627165  0.59453365  1
  Nb  Nb133  1  0.80123249  0.60012579  0.40996069  1
  Nb  Nb134  1  0.41009015  0.39903975  0.60077883  1
  Nb  Nb135  1  -0.00530737  0.39415832  0.19420352  1
  Nb  Nb136  1  0.20483162  0.79478261  0.79259135  1
  Nb  Nb137  1  0.19551565  0.59946861  -0.00607424  1
  Nb  Nb138  1  0.59706258  0.39641235  0.59539319  1
  Nb  Nb139  1  0.80137392  0.00164819  0.79641712  1
  Nb  Nb140  1  0.19792882  0.79545183  0.40310071  1
  Nb  Nb141  1  0.40207680  0.59828569  0.19784949  1
  Nb  Nb142  1  0.80667130  0.60121534  0.00128517  1
  Nb  Nb143  1  0.40254173  0.39751614  0.00173647  1
  Nb  Nb144  1  -0.00021934  0.81379025  0.19671244  1
  Nb  Nb145  1  0.40482011  0.39638975  0.19860710  1
  Nb  Nb146  1  0.59954727  0.58828509  0.59826662  1
  Nb  Nb147  1  -0.00292926  0.59735724  0.00147109  1
  Nb  Nb148  1  0.80009675  0.79616678  0.40470015  1
  Nb  Nb149  1  0.79892236  0.21074878  0.00291234  1
  Pd  Pd150  1  0.38986583  0.80209833  0.40621738  1
  Pd  Pd151  1  0.59681000  0.60495808  0.79194500  1
  Pd  Pd152  1  0.00191860  0.80630622  0.40311064  1
  Pd  Pd153  1  0.19972830  0.40193333  0.78957963  1
  Pd  Pd154  1  -0.01284486  0.40458224  0.38991064  1
  Pd  Pd155  1  0.79014287  -0.00520074  0.39589805  1
  Pd  Pd156  1  0.60450926  0.20009341  0.40959807  1
  Pd  Pd157  1  -0.00437926  0.19257578  0.00724208  1
  Pd  Pd158  1  -0.00575079  0.01357152  0.00747151  1
  Pd  Pd159  1  0.59489731  0.80809360  -0.00227679  1
  Pd  Pd160  1  0.20476581  0.60270721  0.40621115  1
  Pd  Pd161  1  0.21283692  0.40160469  0.60149525  1
  Pd  Pd162  1  0.19534878  -0.00375674  0.20530489  1
  Pd  Pd163  1  0.40361435  0.00876062  0.19782012  1
  Pd  Pd164  1  0.40018263  0.40606789  0.80064796  1
  Pd  Pd165  1  -0.00774867  0.20115409  0.19604603  1
  Pd  Pd166  1  0.20215160  0.39861591  0.40852118  1
  Pd  Pd167  1  0.39957130  -0.00283367  0.40463099  1
  Pd  Pd168  1  0.39904737  -0.00228502  0.00337077  1
  Pd  Pd169  1  -0.00284868  0.19495485  0.40804328  1
  Pd  Pd170  1  -0.00015130  0.00160174  0.59592551  1
  Pd  Pd171  1  0.00795529  0.40523183  -0.00077946  1
  Pd  Pd172  1  0.00128226  0.01544017  0.39743747  1
  Pd  Pd173  1  0.00208507  0.79491332  0.00726258  1
  Pd  Pd174  1  0.39545814  0.80227863  0.79283314  1
  Pd  Pd175  1  -0.00021305  0.59340332  0.19564646  1
  Pd  Pd176  1  0.19976826  0.19358185  0.79717214  1
  Pd  Pd177  1  0.80317032  0.60330117  0.80543675  1
  Pd  Pd178  1  0.79361196  0.19388644  0.81213275  1
  Pd  Pd179  1  0.61093531  0.59438546  0.00416480  1
  Pd  Pd180  1  -0.00810836  0.58374477  0.40523139  1
  Pd  Pd181  1  0.19299442  0.79322879  -0.01765071  1
  Pd  Pd182  1  0.39532659  0.19036349  0.79353053  1
  Pd  Pd183  1  0.19534879  0.60096480  0.80487462  1
  Pd  Pd184  1  0.20766186  -0.00462270  0.80037948  1
  Pd  Pd185  1  0.40871985  0.20439691  0.60703138  1
  Pd  Pd186  1  0.19120018  0.81686683  0.20823042  1
  Pd  Pd187  1  0.80620254  0.79266232  0.60785683  1
  Pd  Pd188  1  0.19415846  0.80098676  0.59706405  1
  Pd  Pd189  1  0.60794444  0.81102506  0.39497560  1
  Pd  Pd190  1  0.20353322  0.19089923  -0.00610274  1
  Pd  Pd191  1  0.40118448  0.00452076  0.59793057  1
  Pd  Pd192  1  0.80830509  0.01395224  -0.00998660  1
  Pd  Pd193  1  -0.00115475  0.20225722  0.59528082  1
  Pd  Pd194  1  0.20926799  0.59948891  0.19287630  1
  Pd  Pd195  1  0.39286634  0.59211214  0.00570485  1
  Pd  Pd196  1  0.80880523  0.39143744  0.21090721  1
  Pd  Pd197  1  0.61184420  0.20937344  -0.00116984  1
  Pd  Pd198  1  0.20789015  0.00703711  -0.00268724  1
  Pd  Pd199  1  0.60461641  -0.00576070  0.40096289  1
  Rh  Rh200  1  0.80986422  0.81302574  0.21268867  1
  Rh  Rh201  1  0.19892317  0.40476994  -0.00967558  1
  Rh  Rh202  1  0.40106980  0.79914294  0.60227128  1
  Rh  Rh203  1  0.60132795  0.19442654  0.79794361  1
  Rh  Rh204  1  0.00659296  0.19941161  0.79356220  1
  Rh  Rh205  1  0.60389052  0.79961934  0.80054998  1
  Rh  Rh206  1  0.19734910  0.20910603  0.40593975  1
  Rh  Rh207  1  0.20703078  0.20411262  0.20661062  1
  Rh  Rh208  1  0.20416091  0.00610595  0.59817459  1
  Rh  Rh209  1  0.59445135  0.19097045  0.19952265  1
  Rh  Rh210  1  0.80095548  0.40440785  0.39327959  1
  Rh  Rh211  1  -0.00840403  0.39330389  0.60245862  1
  Rh  Rh212  1  0.40524566  0.59373953  0.60340208  1
  Rh  Rh213  1  0.59358155  0.39872100  0.80336202  1
  Rh  Rh214  1  0.19628449  0.58720898  0.59461362  1
  Rh  Rh215  1  0.79569836  0.00292640  0.60786799  1
  Rh  Rh216  1  -0.00144986  0.59611916  0.59385254  1
  Rh  Rh217  1  0.20858773  -0.00355125  0.40324774  1
  Rh  Rh218  1  0.80320669  0.20679465  0.19432368  1
  Rh  Rh219  1  -0.00386418  0.59255026  0.80535908  1
  Rh  Rh220  1  0.61334777  0.58765841  0.40036927  1
  Rh  Rh221  1  0.80247552  0.39591383  0.79607193  1
  Rh  Rh222  1  0.19420926  0.39282748  0.20860979  1
  Rh  Rh223  1  0.80085425  0.39132265  0.60783919  1
  Rh  Rh224  1  0.40176384  0.19804730  0.39533236  1
  Rh  Rh225  1  0.00050878  0.39341495  0.78938698  1
  Rh  Rh226  1  0.78659683  0.39942451  -0.00913024  1
  Rh  Rh227  1  0.38846314  0.61335924  0.39288507  1
  Rh  Rh228  1  0.59795073  0.00418107  0.19777277  1
  Rh  Rh229  1  -0.00428271  0.00644789  0.79903622  1
  Rh  Rh230  1  0.59501878  0.40684488  0.20573889  1
  Rh  Rh231  1  0.59998883  0.01120638  0.59736924  1
  Rh  Rh232  1  0.59333132  0.79579805  0.20110818  1
  Rh  Rh233  1  0.80633219  -0.00204862  0.20304503  1
  Rh  Rh234  1  0.80320305  0.79695984  -0.00629031  1
  Rh  Rh235  1  0.59669343  -0.00553171  0.00154340  1
  Rh  Rh236  1  0.60925587  0.00082747  0.79959025  1
  Rh  Rh237  1  0.19841829  0.20466300  0.59907448  1
  Rh  Rh238  1  -0.00012186  0.79691580  0.78618346  1
  Rh  Rh239  1  0.79759203  0.19849510  0.59521716  1
  Rh  Rh240  1  0.41097270  0.81165499  -0.00261142  1
  Rh  Rh241  1  0.59231353  0.78612471  0.60871867  1
  Rh  Rh242  1  0.80268418  0.19376506  0.40132352  1
  Rh  Rh243  1  0.40665074  0.79667344  0.19652168  1
  Rh  Rh244  1  0.79409805  0.60086869  0.19693362  1
  Rh  Rh245  1  0.38649804  0.20588828  0.01009743  1
  Rh  Rh246  1  0.40561879  0.39377451  0.40352958  1
  Rh  Rh247  1  0.79321141  0.60053382  0.59916173  1
  Rh  Rh248  1  0.40116040  0.59712486  0.79537949  1
  Rh  Rh249  1  0.39700071  -0.00060961  0.79820359  1
