# generated using pymatgen
data_ZrScNbPdRh
_symmetry_space_group_name_H-M   'P 1'
_cell_length_a   16.54854640
_cell_length_b   16.55523981
_cell_length_c   16.55421799
_cell_angle_alpha   89.99173862
_cell_angle_beta   89.96789175
_cell_angle_gamma   89.98661129
_symmetry_Int_Tables_number   1
_chemical_formula_structural   ZrScNbPdRh
_chemical_formula_sum   'Zr50 Sc50 Nb50 Pd50 Rh50'
_cell_volume   4535.27800271
_cell_formula_units_Z   50
loop_
 _symmetry_equiv_pos_site_id
 _symmetry_equiv_pos_as_xyz
  1  'x, y, z'
loop_
 _atom_site_type_symbol
 _atom_site_label
 _atom_site_symmetry_multiplicity
 _atom_site_fract_x
 _atom_site_fract_y
 _atom_site_fract_z
 _atom_site_occupancy
  Zr  Zr0  1  0.10160571  0.30963915  0.30057506  1
  Zr  Zr1  1  0.30390573  0.09420942  0.90487371  1
  Zr  Zr2  1  0.90308665  0.50002627  0.90338744  1
  Zr  Zr3  1  0.69609499  0.49329823  0.90484450  1
  Zr  Zr4  1  0.90044644  0.70049805  0.89585762  1
  Zr  Zr5  1  0.30159378  0.30136245  0.70500293  1
  Zr  Zr6  1  0.09378889  0.29115160  0.70226471  1
  Zr  Zr7  1  0.70644270  0.29595093  0.89786293  1
  Zr  Zr8  1  0.29893848  0.10047359  0.08877210  1
  Zr  Zr9  1  0.89762736  0.09772658  0.10561416  1
  Zr  Zr10  1  0.10330106  0.09551919  0.68907902  1
  Zr  Zr11  1  0.09719594  0.89995831  0.29951895  1
  Zr  Zr12  1  0.29666641  0.49713479  0.89593642  1
  Zr  Zr13  1  0.70089122  0.69213150  0.49611599  1
  Zr  Zr14  1  0.69391256  0.90393573  0.29541314  1
  Zr  Zr15  1  0.49198752  0.29796328  0.29837887  1
  Zr  Zr16  1  0.49617255  0.70278445  0.09457819  1
  Zr  Zr17  1  0.49863662  0.49556259  0.28959960  1
  Zr  Zr18  1  0.90223890  0.50111750  0.50267531  1
  Zr  Zr19  1  0.10022786  0.08966889  0.09969319  1
  Zr  Zr20  1  0.50908514  0.09710915  0.69448687  1
  Zr  Zr21  1  0.69338192  0.30239691  0.08874736  1
  Zr  Zr22  1  0.51109310  0.50000904  0.09573909  1
  Zr  Zr23  1  0.89613757  0.70486994  0.30741261  1
  Zr  Zr24  1  0.89548713  0.50158528  0.70062843  1
  Zr  Zr25  1  0.89785141  0.70018009  0.09671561  1
  Zr  Zr26  1  0.89139003  0.29478686  0.30228866  1
  Zr  Zr27  1  0.49673271  0.29944526  0.69523022  1
  Zr  Zr28  1  0.89575897  0.50343970  0.09677741  1
  Zr  Zr29  1  0.89863227  0.48570578  0.30378597  1
  Zr  Zr30  1  0.31220528  0.49863458  0.69831378  1
  Zr  Zr31  1  0.10443368  0.10099417  0.50493705  1
  Zr  Zr32  1  0.69873376  0.71338034  0.89595821  1
  Zr  Zr33  1  0.89341443  0.89869302  0.90342337  1
  Zr  Zr34  1  0.30492708  0.29414782  0.91030835  1
  Zr  Zr35  1  0.89781868  0.10005073  0.50059573  1
  Zr  Zr36  1  0.09591666  0.91134643  0.51292746  1
  Zr  Zr37  1  0.30124935  0.89746385  0.71121919  1
  Zr  Zr38  1  0.89486166  0.70964170  0.50443341  1
  Zr  Zr39  1  0.30094771  0.89391458  0.09473182  1
  Zr  Zr40  1  0.49575285  0.50107812  0.50547055  1
  Zr  Zr41  1  0.09764307  0.09631164  0.29226331  1
  Zr  Zr42  1  0.50205438  0.70413354  0.28725799  1
  Zr  Zr43  1  0.10989932  0.70245529  0.10059221  1
  Zr  Zr44  1  0.70859638  0.70173618  0.69740126  1
  Zr  Zr45  1  0.70940123  0.10276717  0.30264798  1
  Zr  Zr46  1  0.30608206  0.09959389  0.30483868  1
  Zr  Zr47  1  0.69775708  0.49822166  0.70261728  1
  Zr  Zr48  1  0.29364792  0.90731187  0.49655972  1
  Zr  Zr49  1  0.09835794  0.30244258  0.89737158  1
  Sc  Sc50  1  0.30791068  0.30001995  0.49826851  1
  Sc  Sc51  1  0.10717278  0.49828692  0.30438086  1
  Sc  Sc52  1  0.50022096  0.90649133  0.70793296  1
  Sc  Sc53  1  0.91191731  0.87810795  0.68891877  1
  Sc  Sc54  1  0.30311188  0.70421630  0.90529341  1
  Sc  Sc55  1  0.30809095  0.09894086  0.69538427  1
  Sc  Sc56  1  0.30653425  0.89713258  0.89911261  1
  Sc  Sc57  1  0.09743751  0.49887009  0.90910528  1
  Sc  Sc58  1  0.29247043  0.69652410  0.49516494  1
  Sc  Sc59  1  0.89444285  0.90771174  0.10472730  1
  Sc  Sc60  1  0.69842269  0.90845783  0.09727043  1
  Sc  Sc61  1  0.10841876  0.09360694  0.90660690  1
  Sc  Sc62  1  0.10241054  0.69822535  0.90442058  1
  Sc  Sc63  1  0.30671022  0.90172190  0.30291990  1
  Sc  Sc64  1  0.10224153  0.50289600  0.09929403  1
  Sc  Sc65  1  0.49842651  0.69130472  0.70933400  1
  Sc  Sc66  1  0.50268407  0.90977590  0.49677886  1
  Sc  Sc67  1  0.70604302  0.30780020  0.70467235  1
  Sc  Sc68  1  0.68802514  0.89969210  0.70303234  1
  Sc  Sc69  1  0.50279866  0.09311111  0.30490716  1
  Sc  Sc70  1  0.09729815  0.70373034  0.30240378  1
  Sc  Sc71  1  0.49826807  0.69562175  0.49521287  1
  Sc  Sc72  1  0.70136770  0.10210026  0.90834750  1
  Sc  Sc73  1  0.09903692  0.68761091  0.49296161  1
  Sc  Sc74  1  0.89174268  0.31177594  0.49425497  1
  Sc  Sc75  1  0.50339631  0.50268046  0.89411874  1
  Sc  Sc76  1  0.89325047  0.10279528  0.90369518  1
  Sc  Sc77  1  0.70007684  0.29321321  0.49739519  1
  Sc  Sc78  1  0.50262050  0.90052949  0.89702167  1
  Sc  Sc79  1  0.68780085  0.09601763  0.49966597  1
  Sc  Sc80  1  0.08828656  0.50122163  0.69584783  1
  Sc  Sc81  1  0.91047350  0.11963582  0.70918961  1
  Sc  Sc82  1  0.50203136  0.09255331  0.90178967  1
  Sc  Sc83  1  0.89602892  0.30254184  0.10566462  1
  Sc  Sc84  1  0.11224416  0.89406266  0.89604496  1
  Sc  Sc85  1  0.29433275  0.49617706  0.09581778  1
  Sc  Sc86  1  0.50051696  0.09605503  0.09212061  1
  Sc  Sc87  1  0.29059033  0.70875088  0.29913099  1
  Sc  Sc88  1  0.89272940  0.89724124  0.30014433  1
  Sc  Sc89  1  0.29378293  0.50389835  0.49729185  1
  Sc  Sc90  1  0.49946912  0.10717713  0.50202189  1
  Sc  Sc91  1  0.10638492  0.30348899  0.09971684  1
  Sc  Sc92  1  0.30624714  0.69635795  0.70724218  1
  Sc  Sc93  1  0.50072702  0.89897405  0.10530340  1
  Sc  Sc94  1  0.30622099  0.30959580  0.29688951  1
  Sc  Sc95  1  0.89843913  0.30950225  0.70796933  1
  Sc  Sc96  1  0.10361533  0.29959852  0.50201070  1
  Sc  Sc97  1  0.68860868  0.70246656  0.09772564  1
  Sc  Sc98  1  0.49820951  0.70136201  0.90152491  1
  Sc  Sc99  1  0.70323065  0.90128144  0.50258550  1
  Nb  Nb100  1  0.69762575  0.90595236  0.89502407  1
  Nb  Nb101  1  0.28900778  0.10025435  0.49861408  1
  Nb  Nb102  1  0.09461422  0.70881970  0.71144023  1
  Nb  Nb103  1  0.29981032  0.49733228  0.29689237  1
  Nb  Nb104  1  0.49950760  0.49598803  0.70062659  1
  Nb  Nb105  1  0.70093463  0.10359025  0.09487915  1
  Nb  Nb106  1  0.69783705  0.50171641  0.10000833  1
  Nb  Nb107  1  0.69756677  0.10036390  0.69905790  1
  Nb  Nb108  1  0.50898912  0.29664677  0.90578051  1
  Nb  Nb109  1  0.90269389  0.90052790  0.50240427  1
  Nb  Nb110  1  0.90446800  0.29074273  0.89245009  1
  Nb  Nb111  1  0.70168011  0.30221278  0.30356265  1
  Nb  Nb112  1  0.10373793  0.49531421  0.49669599  1
  Nb  Nb113  1  0.50502319  0.30163199  0.49911440  1
  Nb  Nb114  1  0.10191726  0.89503278  0.70391013  1
  Nb  Nb115  1  0.09682365  0.90261529  0.09925391  1
  Nb  Nb116  1  0.49444677  0.29930940  0.09682158  1
  Nb  Nb117  1  0.69832540  0.49784717  0.50040214  1
  Nb  Nb118  1  0.90705120  0.69600268  0.70376206  1
  Nb  Nb119  1  0.69698135  0.69621352  0.29962972  1
  Nb  Nb120  1  0.30146637  0.70035034  0.09729858  1
  Nb  Nb121  1  0.90138860  0.10107801  0.29884743  1
  Nb  Nb122  1  0.30969416  0.29362688  0.10125142  1
  Nb  Nb123  1  0.69433524  0.50336497  0.29910168  1
  Nb  Nb124  1  0.50089175  0.89520036  0.29849150  1
  Nb  Nb125  1  0.20332241  0.20008784  0.80107149  1
  Nb  Nb126  1  0.00305219  0.80521080  0.00508352  1
  Nb  Nb127  1  -0.00057250  0.19984601  0.00130636  1
  Nb  Nb128  1  0.20674944  0.20005107  0.19899109  1
  Nb  Nb129  1  0.60001856  0.79853393  0.39564581  1
  Nb  Nb130  1  -0.00486566  0.00267063  0.40115192  1
  Nb  Nb131  1  0.79639464  0.19544092  0.60363153  1
  Nb  Nb132  1  0.39796633  0.59691200  0.38578747  1
  Nb  Nb133  1  0.39303154  0.60034810  0.19727890  1
  Nb  Nb134  1  0.59707916  0.40247557  0.59628495  1
  Nb  Nb135  1  0.60030890  0.20154307  0.79973629  1
  Nb  Nb136  1  0.00033505  0.19622277  0.39530645  1
  Nb  Nb137  1  0.80283922  0.00028755  0.79182730  1
  Nb  Nb138  1  0.20022228  0.19734771  0.39477184  1
  Nb  Nb139  1  0.39924886  0.80185093  0.59819652  1
  Nb  Nb140  1  0.19805064  0.79840455  0.60855903  1
  Nb  Nb141  1  0.19831395  0.59833917  0.79654223  1
  Nb  Nb142  1  0.60209651  0.20334308  0.19672019  1
  Nb  Nb143  1  -0.00928684  0.60102538  0.20204550  1
  Nb  Nb144  1  0.19979660  0.40289789  0.60240959  1
  Nb  Nb145  1  0.79281708  0.59729316  0.20446931  1
  Nb  Nb146  1  0.80557726  0.00225737  0.61031521  1
  Nb  Nb147  1  0.59419539  0.79562045  0.59668044  1
  Nb  Nb148  1  -0.00140656  -0.00628970  0.79508711  1
  Nb  Nb149  1  0.60147630  0.40188046  0.40038006  1
  Pd  Pd150  1  0.79823532  0.80456013  0.00745407  1
  Pd  Pd151  1  0.18983203  0.80331985  0.41021533  1
  Pd  Pd152  1  0.21087825  -0.00193263  0.20046041  1
  Pd  Pd153  1  0.01271335  0.78680972  0.59107448  1
  Pd  Pd154  1  0.39639308  0.19795954  0.59316145  1
  Pd  Pd155  1  0.40417905  0.19028650  0.19728431  1
  Pd  Pd156  1  0.79051825  0.80731190  0.40072854  1
  Pd  Pd157  1  0.40533178  0.00379642  0.40598691  1
  Pd  Pd158  1  -0.00129690  0.59432827  0.39332522  1
  Pd  Pd159  1  0.20313668  0.80807374  0.20171123  1
  Pd  Pd160  1  0.59125947  0.59811985  0.39549843  1
  Pd  Pd161  1  0.39847396  -0.00386139  0.59726160  1
  Pd  Pd162  1  0.60369179  0.60402053  0.80324399  1
  Pd  Pd163  1  -0.00314158  0.79899962  0.19521010  1
  Pd  Pd164  1  0.80233207  0.59869338  0.59963728  1
  Pd  Pd165  1  0.40080480  0.40524005  0.40465962  1
  Pd  Pd166  1  0.20194286  0.39623498  0.00441853  1
  Pd  Pd167  1  0.78775461  0.60577963  0.00054375  1
  Pd  Pd168  1  0.19839257  0.00746560  0.79707453  1
  Pd  Pd169  1  0.40038937  0.00050476  0.19599394  1
  Pd  Pd170  1  0.60484630  0.39047452  0.20296051  1
  Pd  Pd171  1  0.00724278  0.20568198  0.19665859  1
  Pd  Pd172  1  0.80139326  -0.00327526  0.40519131  1
  Pd  Pd173  1  0.40454216  0.19309663  0.80665101  1
  Pd  Pd174  1  0.39652369  0.59509509  0.00152780  1
  Pd  Pd175  1  -0.00455862  0.39099883  0.00454717  1
  Pd  Pd176  1  -0.00077850  -0.00159980  -0.01017601  1
  Pd  Pd177  1  0.00757817  0.59604895  0.80431851  1
  Pd  Pd178  1  0.79593568  0.59696251  0.80509699  1
  Pd  Pd179  1  0.78900017  0.40319278  0.19756426  1
  Pd  Pd180  1  0.59948051  0.01123753  0.19660254  1
  Pd  Pd181  1  0.80703253  0.39331862  -0.00441416  1
  Pd  Pd182  1  0.19361236  0.60097425  0.60997916  1
  Pd  Pd183  1  0.39706448  0.60900762  0.59390412  1
  Pd  Pd184  1  0.59724799  0.60121380  0.60589563  1
  Pd  Pd185  1  0.19016309  0.40303768  0.79152185  1
  Pd  Pd186  1  0.40531795  0.79550408  0.40382877  1
  Pd  Pd187  1  -0.01288367  0.21378726  0.58848060  1
  Pd  Pd188  1  0.80175036  0.81029473  0.78872800  1
  Pd  Pd189  1  0.40946505  0.39714841  0.80987867  1
  Pd  Pd190  1  0.19860386  0.59920954  0.20445536  1
  Pd  Pd191  1  0.78996131  0.79537685  0.19519228  1
  Pd  Pd192  1  0.79129099  0.20291957  0.19385706  1
  Pd  Pd193  1  0.59740363  0.20409406  0.39220232  1
  Pd  Pd194  1  0.80337759  0.59240014  0.39668512  1
  Pd  Pd195  1  0.59661511  0.80955387  -0.00117977  1
  Pd  Pd196  1  0.40612206  0.40476859  -0.00204994  1
  Pd  Pd197  1  0.00298447  0.39486118  0.59613636  1
  Pd  Pd198  1  0.00241967  0.60645009  0.59918817  1
  Pd  Pd199  1  0.00469798  0.40683137  0.19592324  1
  Rh  Rh200  1  0.39542049  0.59713849  0.80801423  1
  Rh  Rh201  1  0.60734283  0.01005047  0.80720266  1
  Rh  Rh202  1  0.20361500  0.59996046  -0.00888151  1
  Rh  Rh203  1  0.39641536  0.40754144  0.18523998  1
  Rh  Rh204  1  0.60840698  0.21288388  0.60886874  1
  Rh  Rh205  1  0.60089427  0.60260725  0.19363447  1
  Rh  Rh206  1  0.21044865  0.21128854  0.60073348  1
  Rh  Rh207  1  0.80183653  0.19696237  0.40736840  1
  Rh  Rh208  1  0.60232237  -0.00358020  -0.00080903  1
  Rh  Rh209  1  0.59324107  0.39155714  0.79437870  1
  Rh  Rh210  1  0.79130373  0.19469481  0.79439087  1
  Rh  Rh211  1  0.79714831  0.00393403  0.20088394  1
  Rh  Rh212  1  -0.01193822  -0.00040417  0.60787955  1
  Rh  Rh213  1  0.39664006  0.19732035  0.40581609  1
  Rh  Rh214  1  0.00663483  0.61035415  0.00909004  1
  Rh  Rh215  1  0.19392219  0.20530522  0.00157030  1
  Rh  Rh216  1  0.59751390  -0.00554867  0.39805250  1
  Rh  Rh217  1  -0.00165945  0.80510995  0.81308262  1
  Rh  Rh218  1  0.39351803  0.79634204  0.19815513  1
  Rh  Rh219  1  0.60424992  -0.00862683  0.59669989  1
  Rh  Rh220  1  0.59627775  0.40035023  -0.00393471  1
  Rh  Rh221  1  0.40486484  0.80362524  -0.00029411  1
  Rh  Rh222  1  0.40343047  0.00328589  0.80190837  1
  Rh  Rh223  1  0.79250573  0.80546234  0.60225625  1
  Rh  Rh224  1  0.40414734  -0.00809312  0.00077899  1
  Rh  Rh225  1  0.81031546  0.20374050  0.00471119  1
  Rh  Rh226  1  0.60438817  0.60389413  -0.00749611  1
  Rh  Rh227  1  0.20440270  0.59618381  0.39114355  1
  Rh  Rh228  1  -0.00217557  0.40723702  0.80185775  1
  Rh  Rh229  1  0.60487218  0.80296347  0.20067789  1
  Rh  Rh230  1  0.79090682  0.39668710  0.59576220  1
  Rh  Rh231  1  0.59503875  0.19654912  0.00024324  1
  Rh  Rh232  1  0.21181180  -0.00786094  0.61174592  1
  Rh  Rh233  1  0.20742190  0.39383045  0.19458220  1
  Rh  Rh234  1  0.80728777  0.40510966  0.80919073  1
  Rh  Rh235  1  0.19764585  0.80244471  0.00019286  1
  Rh  Rh236  1  0.19284611  0.00359556  0.39305869  1
  Rh  Rh237  1  -0.00952693  -0.00968683  0.20882785  1
  Rh  Rh238  1  0.79394641  0.00140071  -0.00356472  1
  Rh  Rh239  1  0.20606381  0.78836665  0.79900803  1
  Rh  Rh240  1  0.00357476  0.81082755  0.40785116  1
  Rh  Rh241  1  0.01590906  0.18457518  0.81575883  1
  Rh  Rh242  1  0.59656125  0.79679872  0.79487308  1
  Rh  Rh243  1  0.41040498  0.19689578  -0.00227932  1
  Rh  Rh244  1  0.39889893  0.39931815  0.59482462  1
  Rh  Rh245  1  0.40597937  0.79820667  0.79794632  1
  Rh  Rh246  1  0.00465116  0.39557674  0.40551155  1
  Rh  Rh247  1  0.20389599  0.39625277  0.40853164  1
  Rh  Rh248  1  0.78826658  0.40549498  0.40219773  1
  Rh  Rh249  1  0.20272684  -0.01250602  -0.00030295  1
