# generated using pymatgen
data_ZrScNbPdRh
_symmetry_space_group_name_H-M   'P 1'
_cell_length_a   16.55451770
_cell_length_b   16.55718180
_cell_length_c   16.55939918
_cell_angle_alpha   90.01612318
_cell_angle_beta   89.99690295
_cell_angle_gamma   89.98803916
_symmetry_Int_Tables_number   1
_chemical_formula_structural   ZrScNbPdRh
_chemical_formula_sum   'Zr50 Sc50 Nb50 Pd50 Rh50'
_cell_volume   4538.86742788
_cell_formula_units_Z   50
loop_
 _symmetry_equiv_pos_site_id
 _symmetry_equiv_pos_as_xyz
  1  'x, y, z'
loop_
 _atom_site_type_symbol
 _atom_site_label
 _atom_site_symmetry_multiplicity
 _atom_site_fract_x
 _atom_site_fract_y
 _atom_site_fract_z
 _atom_site_occupancy
  Zr  Zr0  1  0.69977906  0.70463699  0.31235069  1
  Zr  Zr1  1  0.09571512  0.70208053  0.09745869  1
  Zr  Zr2  1  0.31021419  0.49391907  0.30372882  1
  Zr  Zr3  1  0.29979400  0.70582975  0.10152032  1
  Zr  Zr4  1  0.89334928  0.50073774  0.10416863  1
  Zr  Zr5  1  0.09603679  0.89771553  0.30611285  1
  Zr  Zr6  1  0.70668693  0.50310145  0.89508867  1
  Zr  Zr7  1  0.30367954  0.70223587  0.69635039  1
  Zr  Zr8  1  0.70303984  0.30168881  0.89544414  1
  Zr  Zr9  1  0.09842642  0.49950909  0.69518820  1
  Zr  Zr10  1  0.30229535  0.29608174  0.11198560  1
  Zr  Zr11  1  0.09723539  0.50393926  0.09712326  1
  Zr  Zr12  1  0.89885854  0.09451234  0.69802873  1
  Zr  Zr13  1  0.70410790  0.30827350  0.50678317  1
  Zr  Zr14  1  0.70150077  0.90272003  0.69886120  1
  Zr  Zr15  1  0.69190447  0.69682775  0.70619155  1
  Zr  Zr16  1  0.09554255  0.50020923  0.49412251  1
  Zr  Zr17  1  0.90148243  0.70414994  0.10067118  1
  Zr  Zr18  1  0.90139598  0.30519849  0.09604923  1
  Zr  Zr19  1  0.69586949  0.29581240  0.30839735  1
  Zr  Zr20  1  0.10108848  0.89682663  0.89328239  1
  Zr  Zr21  1  0.89650131  0.70006690  0.90236596  1
  Zr  Zr22  1  0.10514007  0.71134413  0.69658266  1
  Zr  Zr23  1  0.90291170  0.90483306  0.69782222  1
  Zr  Zr24  1  0.30205268  0.08727029  0.89693003  1
  Zr  Zr25  1  0.09869637  0.70587313  0.30377684  1
  Zr  Zr26  1  0.50188905  0.70909827  0.09419798  1
  Zr  Zr27  1  0.10036078  0.50026970  0.30314456  1
  Zr  Zr28  1  0.48873048  0.09361907  0.50174286  1
  Zr  Zr29  1  0.50726268  0.30481021  0.09912006  1
  Zr  Zr30  1  0.69819840  0.30267926  0.70176807  1
  Zr  Zr31  1  0.10171685  0.09303755  0.89841113  1
  Zr  Zr32  1  0.49328501  0.31239712  0.29544114  1
  Zr  Zr33  1  0.09961294  0.29749901  0.10407803  1
  Zr  Zr34  1  0.29622688  0.29624609  0.30070480  1
  Zr  Zr35  1  0.50191173  0.50429181  0.91294651  1
  Zr  Zr36  1  0.69301478  0.69796950  0.90251183  1
  Zr  Zr37  1  0.30836742  0.30125722  0.89334752  1
  Zr  Zr38  1  0.49839524  0.70413325  0.50035485  1
  Zr  Zr39  1  0.89194307  0.89047518  0.10558951  1
  Zr  Zr40  1  0.50858391  0.10553394  0.30727047  1
  Zr  Zr41  1  0.09769554  0.50759835  0.90498530  1
  Zr  Zr42  1  0.10531021  0.30002327  0.30741889  1
  Zr  Zr43  1  0.89390113  0.30345323  0.90573442  1
  Zr  Zr44  1  0.90082333  0.30789833  0.30146455  1
  Zr  Zr45  1  0.09582120  0.29417829  0.69159079  1
  Zr  Zr46  1  0.09525636  0.29601630  0.90476212  1
  Zr  Zr47  1  0.30674532  0.50097458  0.89630353  1
  Zr  Zr48  1  0.50545569  0.29734243  0.69978410  1
  Zr  Zr49  1  0.30127094  0.09568627  0.10267678  1
  Sc  Sc50  1  0.30736088  0.49356285  0.69031077  1
  Sc  Sc51  1  0.89430897  0.09382507  0.89672150  1
  Sc  Sc52  1  0.90701441  0.90476154  0.50047085  1
  Sc  Sc53  1  0.29720766  0.89531231  0.70320227  1
  Sc  Sc54  1  0.30258969  0.29309896  0.69545719  1
  Sc  Sc55  1  0.70430279  0.49437445  0.69673633  1
  Sc  Sc56  1  0.90015902  0.08348878  0.30257145  1
  Sc  Sc57  1  0.69844830  0.89919302  0.49205922  1
  Sc  Sc58  1  0.70392031  0.49790740  0.30819553  1
  Sc  Sc59  1  0.10218375  0.09385737  0.09878516  1
  Sc  Sc60  1  0.90070385  0.90255401  0.90143113  1
  Sc  Sc61  1  0.29898084  0.89916341  0.09865892  1
  Sc  Sc62  1  0.09342822  0.89586195  0.69550236  1
  Sc  Sc63  1  0.09927508  0.10110051  0.49967406  1
  Sc  Sc64  1  0.89266630  0.08743976  0.09643998  1
  Sc  Sc65  1  0.89561591  0.49608670  0.50067699  1
  Sc  Sc66  1  0.50844153  0.30757389  0.89962806  1
  Sc  Sc67  1  0.49881249  0.70484654  0.30972534  1
  Sc  Sc68  1  0.70194884  0.10198892  0.90536308  1
  Sc  Sc69  1  0.09799174  0.90066969  0.10469245  1
  Sc  Sc70  1  0.70344394  0.30670615  0.08810654  1
  Sc  Sc71  1  0.29787382  0.10722728  0.30681468  1
  Sc  Sc72  1  0.69102855  0.10118314  0.49505762  1
  Sc  Sc73  1  0.09920129  0.09443461  0.29899334  1
  Sc  Sc74  1  0.10050826  0.09383257  0.69738141  1
  Sc  Sc75  1  0.49699510  0.48895512  0.68708262  1
  Sc  Sc76  1  0.30608602  0.69990343  0.90718165  1
  Sc  Sc77  1  0.69666437  0.90094631  0.10221885  1
  Sc  Sc78  1  0.08939956  0.70088642  0.89885228  1
  Sc  Sc79  1  0.30087699  0.71323624  0.30358539  1
  Sc  Sc80  1  0.50501794  0.70721181  0.89750892  1
  Sc  Sc81  1  0.30611434  0.50796800  0.08760735  1
  Sc  Sc82  1  0.30323968  0.69912718  0.50102933  1
  Sc  Sc83  1  0.30428580  0.89781678  0.89664438  1
  Sc  Sc84  1  0.90360169  0.69743261  0.49361642  1
  Sc  Sc85  1  0.30828083  0.50420349  0.49880146  1
  Sc  Sc86  1  0.70759507  0.10667818  0.70576597  1
  Sc  Sc87  1  0.30035242  0.09450446  0.68939012  1
  Sc  Sc88  1  0.49490118  0.89591770  0.90513077  1
  Sc  Sc89  1  0.51086918  0.89711417  0.30539200  1
  Sc  Sc90  1  0.48994958  0.88600306  0.70555140  1
  Sc  Sc91  1  0.89219818  0.29901449  0.68851274  1
  Sc  Sc92  1  0.10168981  0.70746556  0.49326226  1
  Sc  Sc93  1  0.50408407  0.08583022  0.90999821  1
  Sc  Sc94  1  0.70580613  0.70641455  0.09691748  1
  Sc  Sc95  1  0.90197700  0.70434248  0.29814491  1
  Sc  Sc96  1  0.90691687  0.70241742  0.70259064  1
  Sc  Sc97  1  0.70130250  0.08762037  0.30553690  1
  Sc  Sc98  1  0.50712646  0.29785761  0.50050336  1
  Sc  Sc99  1  0.89334348  0.50045027  0.70150331  1
  Nb  Nb100  1  0.70083193  0.69298273  0.50266297  1
  Nb  Nb101  1  0.49877879  0.50217733  0.30099720  1
  Nb  Nb102  1  0.91255529  0.29610775  0.50151983  1
  Nb  Nb103  1  0.69157058  0.50590948  0.09742883  1
  Nb  Nb104  1  0.29651211  0.90219937  0.29555424  1
  Nb  Nb105  1  0.71403364  0.90030613  0.30013604  1
  Nb  Nb106  1  0.90381225  0.50230993  0.29871265  1
  Nb  Nb107  1  0.49846755  0.50766944  0.48950618  1
  Nb  Nb108  1  0.49806674  0.69899746  0.69709388  1
  Nb  Nb109  1  0.09597327  0.90003538  0.49974908  1
  Nb  Nb110  1  0.69742030  0.50900947  0.50248709  1
  Nb  Nb111  1  0.90559088  0.10482425  0.50315462  1
  Nb  Nb112  1  0.30001804  0.09926025  0.50111726  1
  Nb  Nb113  1  0.50559427  0.50026364  0.10621434  1
  Nb  Nb114  1  0.69530466  0.89443990  0.89660538  1
  Nb  Nb115  1  0.30660762  0.92359387  0.49800936  1
  Nb  Nb116  1  0.50019016  0.09627815  0.70312121  1
  Nb  Nb117  1  0.49701124  0.90699014  0.50462158  1
  Nb  Nb118  1  0.28559337  0.28176005  0.49705098  1
  Nb  Nb119  1  0.69052521  0.10158469  0.10073471  1
  Nb  Nb120  1  0.50876239  0.09485821  0.09781661  1
  Nb  Nb121  1  0.89989495  0.50025672  0.89730227  1
  Nb  Nb122  1  0.08924969  0.30084162  0.49952385  1
  Nb  Nb123  1  0.50064821  0.90777558  0.09792933  1
  Nb  Nb124  1  0.89181352  0.89891115  0.29926284  1
  Nb  Nb125  1  0.40321120  0.60065032  0.79322376  1
  Nb  Nb126  1  0.00402944  0.60135395  0.59833178  1
  Nb  Nb127  1  0.20470012  0.60276903  0.20227456  1
  Nb  Nb128  1  0.79570153  0.80122178  0.79746201  1
  Nb  Nb129  1  0.20496632  0.59872718  0.79657003  1
  Nb  Nb130  1  0.40552686  0.60015350  0.20113080  1
  Nb  Nb131  1  0.59619784  0.59833809  0.20341988  1
  Nb  Nb132  1  0.59182196  -0.00262944  0.60508156  1
  Nb  Nb133  1  0.80959335  0.20202610  0.40301983  1
  Nb  Nb134  1  0.40713287  -0.00140396  0.20112818  1
  Nb  Nb135  1  0.20798001  0.20041629  -0.00228817  1
  Nb  Nb136  1  0.19598249  0.79930260  0.00006166  1
  Nb  Nb137  1  0.59914615  -0.00395293  0.79612606  1
  Nb  Nb138  1  0.19578306  0.39207883  0.59290601  1
  Nb  Nb139  1  0.40206567  0.19599334  0.00053286  1
  Nb  Nb140  1  -0.00035091  0.39724070  0.80229433  1
  Nb  Nb141  1  -0.00893354  0.20048017  0.20019746  1
  Nb  Nb142  1  0.40686964  0.19193291  0.80297230  1
  Nb  Nb143  1  0.79613040  0.79598539  0.59997496  1
  Nb  Nb144  1  0.60432821  0.19897221  0.19701529  1
  Nb  Nb145  1  0.79771500  0.19752628  0.20268967  1
  Nb  Nb146  1  -0.00286717  0.20217687  0.80005648  1
  Nb  Nb147  1  0.20086246  0.39452255  -0.00408666  1
  Nb  Nb148  1  0.19567161  0.40127317  0.79781137  1
  Nb  Nb149  1  0.59768240  0.60194668  0.59274569  1
  Pd  Pd150  1  0.80733473  0.59869605  0.39437784  1
  Pd  Pd151  1  0.60220324  0.80532513  0.40639908  1
  Pd  Pd152  1  0.80391945  0.60605028  0.60607621  1
  Pd  Pd153  1  0.20759334  0.41288141  0.19114351  1
  Pd  Pd154  1  0.58888482  0.58771579  0.78894107  1
  Pd  Pd155  1  -0.00101381  -0.00496951  0.00171896  1
  Pd  Pd156  1  0.79772659  0.19668329  0.59306088  1
  Pd  Pd157  1  0.80736340  0.80194478  0.40972245  1
  Pd  Pd158  1  0.59424966  0.18908636  0.81174522  1
  Pd  Pd159  1  -0.00422717  -0.00073687  0.19788686  1
  Pd  Pd160  1  0.19891412  0.59498130  0.59945678  1
  Pd  Pd161  1  0.20012040  -0.00555638  0.78979318  1
  Pd  Pd162  1  0.40076303  -0.00210782  0.38478440  1
  Pd  Pd163  1  -0.00075785  0.18465930  0.00251032  1
  Pd  Pd164  1  0.60198794  0.19016044  0.59879343  1
  Pd  Pd165  1  0.19539672  -0.00548744  0.60085815  1
  Pd  Pd166  1  0.60557879  0.79631865  0.20127349  1
  Pd  Pd167  1  0.79141044  -0.00194182  0.58906027  1
  Pd  Pd168  1  0.39465423  0.81116358  0.40708111  1
  Pd  Pd169  1  0.79078953  -0.00654800  0.00026846  1
  Pd  Pd170  1  0.00202022  0.59798416  0.79255276  1
  Pd  Pd171  1  0.60300241  0.80152856  0.59617944  1
  Pd  Pd172  1  0.39820938  0.39370314  0.00784557  1
  Pd  Pd173  1  0.39592660  0.38863369  0.41355566  1
  Pd  Pd174  1  0.40439964  0.80679139  0.20275387  1
  Pd  Pd175  1  0.60107040  -0.00099229  0.20612698  1
  Pd  Pd176  1  0.21029155  0.81116172  0.40942104  1
  Pd  Pd177  1  0.41255137  0.19030532  0.19677219  1
  Pd  Pd178  1  0.39346739  0.38672177  0.58723170  1
  Pd  Pd179  1  0.00380711  0.60270932  0.20414778  1
  Pd  Pd180  1  0.80503345  0.39914356  0.40682014  1
  Pd  Pd181  1  0.20321154  0.20022092  0.79999349  1
  Pd  Pd182  1  0.20788087  0.81179003  0.58669379  1
  Pd  Pd183  1  0.78987537  0.39806239  0.19889694  1
  Pd  Pd184  1  0.59676479  0.41052201  0.79987578  1
  Pd  Pd185  1  0.59859959  0.40547798  0.40559376  1
  Pd  Pd186  1  0.39167881  0.80818975  0.59188287  1
  Pd  Pd187  1  0.61143303  0.40144996  0.20329504  1
  Pd  Pd188  1  -0.00225727  0.19156432  0.39060784  1
  Pd  Pd189  1  0.40176131  0.20124139  0.60287452  1
  Pd  Pd190  1  0.20766829  0.40026255  0.40942467  1
  Pd  Pd191  1  0.20915504  0.60437548  0.39458727  1
  Pd  Pd192  1  0.79033847  0.60470111  0.20704164  1
  Pd  Pd193  1  0.19642892  0.00339432  0.40116734  1
  Pd  Pd194  1  0.80093081  0.59877242  0.00182919  1
  Pd  Pd195  1  0.00368615  0.39851606  0.20245879  1
  Pd  Pd196  1  0.40298024  0.20719620  0.40431920  1
  Pd  Pd197  1  0.20475547  0.00015842  0.20401436  1
  Pd  Pd198  1  0.80337055  0.00508660  0.41170488  1
  Pd  Pd199  1  0.79950987  0.19453396  0.00694627  1
  Rh  Rh200  1  0.00058672  0.19062010  0.60607891  1
  Rh  Rh201  1  0.00152247  0.00473408  0.79839519  1
  Rh  Rh202  1  -0.00182436  0.40789897  0.60174064  1
  Rh  Rh203  1  0.79202485  -0.00527574  0.80866474  1
  Rh  Rh204  1  0.19377910  0.79848407  0.19545582  1
  Rh  Rh205  1  0.41237635  0.60748884  0.00181673  1
  Rh  Rh206  1  0.60194172  0.20283880  0.40052323  1
  Rh  Rh207  1  0.60066716  0.41081964  0.59065042  1
  Rh  Rh208  1  0.19724531  0.60691579  -0.00129936  1
  Rh  Rh209  1  0.00538176  0.00229607  0.59466467  1
  Rh  Rh210  1  0.80610924  0.39609514  0.79691952  1
  Rh  Rh211  1  0.79521949  0.41274701  0.00016994  1
  Rh  Rh212  1  0.19310858  0.19690899  0.59506229  1
  Rh  Rh213  1  0.19976536  -0.00757927  -0.00241258  1
  Rh  Rh214  1  0.39614568  0.80615622  0.00115437  1
  Rh  Rh215  1  0.18661572  0.19184397  0.19949395  1
  Rh  Rh216  1  0.19111156  0.19216827  0.40211028  1
  Rh  Rh217  1  0.59960905  0.59839820  0.39941487  1
  Rh  Rh218  1  0.40325182  0.39728440  0.79120426  1
  Rh  Rh219  1  0.79379955  0.00131561  0.19652533  1
  Rh  Rh220  1  -0.00683636  0.59605282  0.40212527  1
  Rh  Rh221  1  0.40949829  0.60048425  0.60166266  1
  Rh  Rh222  1  0.39791112  -0.00158387  0.00920911  1
  Rh  Rh223  1  0.00027494  -0.00292403  0.40373178  1
  Rh  Rh224  1  0.60809046  0.40505347  -0.00472658  1
  Rh  Rh225  1  0.40500938  0.00131003  0.79480599  1
  Rh  Rh226  1  -0.01416547  0.59808713  0.00345474  1
  Rh  Rh227  1  0.79402703  0.79587394  0.20405442  1
  Rh  Rh228  1  0.39844628  0.60650709  0.39292472  1
  Rh  Rh229  1  0.80238285  0.40200972  0.59652746  1
  Rh  Rh230  1  0.60104903  0.80698612  0.00283832  1
  Rh  Rh231  1  0.59543717  0.20284332  0.00140818  1
  Rh  Rh232  1  0.00441396  0.80696663  -0.00172481  1
  Rh  Rh233  1  0.59881818  0.60553466  0.00814757  1
  Rh  Rh234  1  -0.00189605  0.80539457  0.20611014  1
  Rh  Rh235  1  0.59879419  0.80497376  0.80020669  1
  Rh  Rh236  1  -0.01048091  0.80504017  0.80142805  1
  Rh  Rh237  1  0.80865127  0.20290708  0.80049923  1
  Rh  Rh238  1  0.39570790  0.40953488  0.19215729  1
  Rh  Rh239  1  0.79641761  0.80478675  -0.00794634  1
  Rh  Rh240  1  -0.00581426  0.79401727  0.59191975  1
  Rh  Rh241  1  0.20228817  0.78990644  0.81147634  1
  Rh  Rh242  1  0.80113155  0.60763376  0.79819759  1
  Rh  Rh243  1  0.39825564  0.78909309  0.80361275  1
  Rh  Rh244  1  -0.00612212  0.80710293  0.39945882  1
  Rh  Rh245  1  0.40242695  -0.00563431  0.61000692  1
  Rh  Rh246  1  -0.00051331  0.41109945  -0.00219347  1
  Rh  Rh247  1  0.60713401  -0.00858149  -0.00689511  1
  Rh  Rh248  1  -0.00554145  0.40642288  0.39858373  1
  Rh  Rh249  1  0.59937594  -0.00827738  0.40535502  1
