# generated using pymatgen
data_ZrScNbPdRh
_symmetry_space_group_name_H-M   'P 1'
_cell_length_a   16.55747564
_cell_length_b   16.55735453
_cell_length_c   16.55965872
_cell_angle_alpha   89.96325309
_cell_angle_beta   90.01058298
_cell_angle_gamma   89.98318052
_symmetry_Int_Tables_number   1
_chemical_formula_structural   ZrScNbPdRh
_chemical_formula_sum   'Zr50 Sc50 Nb50 Pd50 Rh50'
_cell_volume   4539.79601850
_cell_formula_units_Z   50
loop_
 _symmetry_equiv_pos_site_id
 _symmetry_equiv_pos_as_xyz
  1  'x, y, z'
loop_
 _atom_site_type_symbol
 _atom_site_label
 _atom_site_symmetry_multiplicity
 _atom_site_fract_x
 _atom_site_fract_y
 _atom_site_fract_z
 _atom_site_occupancy
  Zr  Zr0  1  0.90425040  0.10290194  0.10586620  1
  Zr  Zr1  1  0.29410373  0.49514101  0.29169589  1
  Zr  Zr2  1  0.49221142  0.89784258  0.10336362  1
  Zr  Zr3  1  0.09467681  0.09482025  0.69203191  1
  Zr  Zr4  1  0.49807401  0.50159564  0.50018278  1
  Zr  Zr5  1  0.49796758  0.50663054  0.89828050  1
  Zr  Zr6  1  0.69746129  0.69806943  0.50108308  1
  Zr  Zr7  1  0.69734785  0.70171057  0.29079823  1
  Zr  Zr8  1  0.49908670  0.70157682  0.09581243  1
  Zr  Zr9  1  0.50202975  0.29943501  0.69754243  1
  Zr  Zr10  1  0.30423618  0.09500616  0.70572481  1
  Zr  Zr11  1  0.70229481  0.89449016  0.70381452  1
  Zr  Zr12  1  0.29495631  0.69661422  0.28874857  1
  Zr  Zr13  1  0.10554061  0.09859481  0.90537885  1
  Zr  Zr14  1  0.49781491  0.89135670  0.90528804  1
  Zr  Zr15  1  0.90571429  0.89790237  0.69849686  1
  Zr  Zr16  1  0.29788165  0.30155965  0.29512019  1
  Zr  Zr17  1  0.50558621  0.50388939  0.70527817  1
  Zr  Zr18  1  0.50073973  0.69659837  0.49409821  1
  Zr  Zr19  1  0.10838106  0.89764709  0.90112095  1
  Zr  Zr20  1  0.48966206  0.09426132  0.10358006  1
  Zr  Zr21  1  0.50965233  0.90339010  0.29436982  1
  Zr  Zr22  1  0.70054405  0.10619362  0.70516086  1
  Zr  Zr23  1  0.08960311  0.49596259  0.91426431  1
  Zr  Zr24  1  0.91512979  0.10082575  0.50595657  1
  Zr  Zr25  1  0.28817150  0.69422874  0.70919804  1
  Zr  Zr26  1  0.11989312  0.51138848  0.68461746  1
  Zr  Zr27  1  0.90892984  0.69106631  0.89033340  1
  Zr  Zr28  1  0.49612050  0.70011064  0.29837003  1
  Zr  Zr29  1  0.70711898  0.29698390  0.90228180  1
  Zr  Zr30  1  0.70228307  0.30594295  0.29748360  1
  Zr  Zr31  1  0.30177654  0.09471746  0.89954333  1
  Zr  Zr32  1  0.10332049  0.90089515  0.49694225  1
  Zr  Zr33  1  0.49440552  0.49643366  0.09061074  1
  Zr  Zr34  1  0.69785192  0.10798146  0.90546245  1
  Zr  Zr35  1  0.49178243  0.29859416  0.30612998  1
  Zr  Zr36  1  0.69376128  0.70159120  0.89945652  1
  Zr  Zr37  1  0.91243903  0.31745322  0.89847631  1
  Zr  Zr38  1  0.89636670  0.70446512  0.49975306  1
  Zr  Zr39  1  0.09220279  0.70129135  0.49767960  1
  Zr  Zr40  1  0.71323709  0.49098704  0.10913866  1
  Zr  Zr41  1  0.09825563  0.29892060  0.49783276  1
  Zr  Zr42  1  0.69840216  0.09109869  0.30401848  1
  Zr  Zr43  1  0.50578284  0.10408727  0.49822275  1
  Zr  Zr44  1  0.29340196  0.29940857  0.70304107  1
  Zr  Zr45  1  0.90100294  0.10227899  0.29394789  1
  Zr  Zr46  1  0.89024649  0.50176151  0.71118637  1
  Zr  Zr47  1  0.90281637  0.69974679  0.69610274  1
  Zr  Zr48  1  0.49960655  0.69547776  0.90845585  1
  Zr  Zr49  1  0.30131967  0.30863070  0.09740846  1
  Sc  Sc50  1  0.69879254  0.30650992  0.70338729  1
  Sc  Sc51  1  0.10064364  0.10410746  0.49249467  1
  Sc  Sc52  1  0.90018532  0.70244755  0.10994377  1
  Sc  Sc53  1  0.90542504  0.30436408  0.70264819  1
  Sc  Sc54  1  0.09950906  0.29754413  0.30097841  1
  Sc  Sc55  1  0.89253610  0.49800176  0.50318408  1
  Sc  Sc56  1  0.10098493  0.29709136  0.70681546  1
  Sc  Sc57  1  0.29435976  0.29965511  0.49294640  1
  Sc  Sc58  1  0.89805195  0.90626153  0.10044651  1
  Sc  Sc59  1  0.28591101  0.49537630  0.50138214  1
  Sc  Sc60  1  0.69703359  0.49885999  0.50439592  1
  Sc  Sc61  1  0.70219979  0.69315176  0.69834534  1
  Sc  Sc62  1  0.10029372  0.29251079  0.09654239  1
  Sc  Sc63  1  0.29960002  0.70735111  0.48362640  1
  Sc  Sc64  1  0.70659276  0.89662446  0.91009009  1
  Sc  Sc65  1  0.90447787  0.90534462  0.29346518  1
  Sc  Sc66  1  0.69734428  0.30512378  0.50337073  1
  Sc  Sc67  1  0.29551450  0.49982258  0.10112477  1
  Sc  Sc68  1  0.49317283  0.49444601  0.30337826  1
  Sc  Sc69  1  0.90541314  0.89893489  0.49650777  1
  Sc  Sc70  1  0.50241961  0.30527932  0.09789326  1
  Sc  Sc71  1  0.70146589  0.29683292  0.09540531  1
  Sc  Sc72  1  0.10049177  0.09859912  0.10307756  1
  Sc  Sc73  1  0.70434312  0.49443123  0.89002706  1
  Sc  Sc74  1  0.29698841  0.10214917  0.50231193  1
  Sc  Sc75  1  0.90674494  0.10192118  0.70490228  1
  Sc  Sc76  1  0.29790799  0.89858180  0.10108219  1
  Sc  Sc77  1  0.30080914  0.69949293  0.90752693  1
  Sc  Sc78  1  0.70059970  0.90323096  0.49184966  1
  Sc  Sc79  1  0.29529699  0.89842182  0.29693260  1
  Sc  Sc80  1  0.29803153  0.70237528  0.10123359  1
  Sc  Sc81  1  0.29806708  0.90126458  0.90046044  1
  Sc  Sc82  1  0.50248057  0.29838785  0.49505592  1
  Sc  Sc83  1  0.29805600  0.10438775  0.29618569  1
  Sc  Sc84  1  0.89606756  0.09844503  0.90621579  1
  Sc  Sc85  1  0.69275020  0.10188662  0.49546341  1
  Sc  Sc86  1  0.70093797  0.70610616  0.09579022  1
  Sc  Sc87  1  0.90318677  0.30498983  0.50017612  1
  Sc  Sc88  1  0.48972653  0.90133941  0.71057200  1
  Sc  Sc89  1  0.51076867  0.30352973  0.90533943  1
  Sc  Sc90  1  0.09756215  0.90016264  0.29781781  1
  Sc  Sc91  1  0.71192724  0.10828180  0.10028475  1
  Sc  Sc92  1  0.89693280  0.29513489  0.09804035  1
  Sc  Sc93  1  0.90673833  0.30071018  0.29623014  1
  Sc  Sc94  1  0.49201205  0.10598873  0.70224009  1
  Sc  Sc95  1  0.10540918  0.90569617  0.10458383  1
  Sc  Sc96  1  0.50346234  0.69857097  0.71792596  1
  Sc  Sc97  1  0.10601176  0.69750413  0.89703598  1
  Sc  Sc98  1  0.29573407  0.49916723  0.90965663  1
  Sc  Sc99  1  0.29571515  0.09072818  0.10658349  1
  Nb  Nb100  1  0.69562950  0.89891273  0.10781994  1
  Nb  Nb101  1  0.90487858  0.89620477  0.90000193  1
  Nb  Nb102  1  0.09156814  0.50071342  0.29558447  1
  Nb  Nb103  1  0.09764406  0.70827192  0.70213578  1
  Nb  Nb104  1  0.09527979  0.50557280  0.10551289  1
  Nb  Nb105  1  0.90512079  0.49491140  0.09257471  1
  Nb  Nb106  1  0.30400204  0.49961228  0.69888260  1
  Nb  Nb107  1  0.09117981  0.70283130  0.29164021  1
  Nb  Nb108  1  0.70067012  0.90127086  0.29411004  1
  Nb  Nb109  1  0.09617904  0.50031697  0.49370227  1
  Nb  Nb110  1  0.29575313  0.89897781  0.70149233  1
  Nb  Nb111  1  0.10319322  0.70788971  0.10510663  1
  Nb  Nb112  1  0.30265373  0.90079153  0.50116177  1
  Nb  Nb113  1  0.90234870  0.70265769  0.29918561  1
  Nb  Nb114  1  0.69863920  0.49908885  0.69975881  1
  Nb  Nb115  1  0.10200109  0.10393785  0.29405954  1
  Nb  Nb116  1  0.89337431  0.50215256  0.28125408  1
  Nb  Nb117  1  0.90143502  0.49947620  0.90426094  1
  Nb  Nb118  1  0.70989497  0.49877253  0.29319874  1
  Nb  Nb119  1  0.50114156  0.10048844  0.30364803  1
  Nb  Nb120  1  0.49591939  0.89899871  0.50209526  1
  Nb  Nb121  1  0.29041010  0.30018634  0.90282014  1
  Nb  Nb122  1  0.10853601  0.89047872  0.70544418  1
  Nb  Nb123  1  0.49874095  0.09708023  0.90608790  1
  Nb  Nb124  1  0.11190021  0.30242827  0.90306434  1
  Nb  Nb125  1  0.59416624  0.19657744  0.20709703  1
  Nb  Nb126  1  0.00203913  0.80002966  -0.00078848  1
  Nb  Nb127  1  0.39612125  0.40419666  0.60568444  1
  Nb  Nb128  1  0.59060203  0.80469471  0.59953326  1
  Nb  Nb129  1  0.39619069  0.60296394  0.60281592  1
  Nb  Nb130  1  0.00859860  0.40960772  0.59954041  1
  Nb  Nb131  1  0.80287071  0.19773974  0.40244598  1
  Nb  Nb132  1  0.60181161  0.59325540  0.19921930  1
  Nb  Nb133  1  0.79884233  0.79788376  0.39040591  1
  Nb  Nb134  1  0.59964731  0.00126436  0.00183238  1
  Nb  Nb135  1  0.39681768  0.79881763  0.60122511  1
  Nb  Nb136  1  0.80927879  0.59317944  -0.00183400  1
  Nb  Nb137  1  0.59856075  -0.00377556  0.60593297  1
  Nb  Nb138  1  0.80339785  0.60081823  0.38664248  1
  Nb  Nb139  1  -0.00493975  0.59592526  0.38984252  1
  Nb  Nb140  1  0.40458579  -0.00155008  0.40239247  1
  Nb  Nb141  1  0.39370302  0.39841115  0.80022532  1
  Nb  Nb142  1  0.80840137  0.79752263  0.80224018  1
  Nb  Nb143  1  0.80232854  0.19661416  0.59743997  1
  Nb  Nb144  1  0.79805400  0.00454024  0.60131346  1
  Nb  Nb145  1  0.00446044  -0.00819104  0.80360323  1
  Nb  Nb146  1  0.59880645  0.00198275  0.80699188  1
  Nb  Nb147  1  0.20281134  -0.01083575  0.60220865  1
  Nb  Nb148  1  0.39654161  0.20014433  -0.00424907  1
  Nb  Nb149  1  0.18414166  0.59802187  0.38850358  1
  Pd  Pd150  1  0.00477786  0.80507348  0.59770525  1
  Pd  Pd151  1  0.01587158  0.41318960  0.78833326  1
  Pd  Pd152  1  0.19447401  0.79643526  0.38997801  1
  Pd  Pd153  1  0.61007011  0.40724550  -0.00480953  1
  Pd  Pd154  1  0.00300763  -0.00586884  -0.00016573  1
  Pd  Pd155  1  0.60502901  0.80508193  0.40157665  1
  Pd  Pd156  1  0.00364764  0.00294712  0.39235495  1
  Pd  Pd157  1  -0.00115060  0.20385333  -0.00612193  1
  Pd  Pd158  1  0.60559910  0.01015092  0.19014572  1
  Pd  Pd159  1  0.60159212  0.40527785  0.39848732  1
  Pd  Pd160  1  0.39210110  0.19334809  0.40417585  1
  Pd  Pd161  1  0.40022547  -0.00289990  0.59860037  1
  Pd  Pd162  1  0.79773108  0.59446932  0.59629639  1
  Pd  Pd163  1  0.59275458  0.19877348  0.80071281  1
  Pd  Pd164  1  0.18627369  0.39698367  0.19334390  1
  Pd  Pd165  1  0.81189445  0.79045509  -0.00353697  1
  Pd  Pd166  1  0.19888533  0.19476303  0.60111166  1
  Pd  Pd167  1  0.81184186  0.20828031  0.79857005  1
  Pd  Pd168  1  0.39590600  0.20924483  0.59215668  1
  Pd  Pd169  1  -0.00450610  0.59409298  0.59803049  1
  Pd  Pd170  1  0.80466412  0.80792631  0.20218902  1
  Pd  Pd171  1  0.20749627  0.00492152  0.40028557  1
  Pd  Pd172  1  0.80557716  0.40103317  0.39756262  1
  Pd  Pd173  1  0.38333808  0.58951324  0.40376224  1
  Pd  Pd174  1  -0.00175763  0.61185474  0.01057834  1
  Pd  Pd175  1  0.79661289  -0.00049963  0.00587253  1
  Pd  Pd176  1  0.59666683  0.40039797  0.59928985  1
  Pd  Pd177  1  0.20799952  0.61519714  0.58358564  1
  Pd  Pd178  1  0.19937861  0.60042187  0.00725025  1
  Pd  Pd179  1  0.19722409  0.59208897  0.81101184  1
  Pd  Pd180  1  0.61638844  0.58811557  0.00793030  1
  Pd  Pd181  1  0.40540329  0.59501006  0.19373152  1
  Pd  Pd182  1  0.19531616  0.19178227  0.79775524  1
  Pd  Pd183  1  0.01391944  0.59091051  0.79131555  1
  Pd  Pd184  1  0.19822614  0.41037062  0.80413760  1
  Pd  Pd185  1  0.59276425  0.39891862  0.20267673  1
  Pd  Pd186  1  0.00133108  0.39152509  0.19139540  1
  Pd  Pd187  1  0.39179424  0.79564399  0.79977695  1
  Pd  Pd188  1  0.20591725  0.79606414  0.59680979  1
  Pd  Pd189  1  -0.00279081  0.60265028  0.19581669  1
  Pd  Pd190  1  -0.00980228  0.40719734  0.40008378  1
  Pd  Pd191  1  0.39984950  0.80813337  0.39367145  1
  Pd  Pd192  1  0.00134433  0.19363851  0.81018023  1
  Pd  Pd193  1  0.19704718  0.40147653  0.39500873  1
  Pd  Pd194  1  0.20813944  0.19418615  0.00881095  1
  Pd  Pd195  1  0.60844839  0.58945454  0.38808735  1
  Pd  Pd196  1  0.40409776  0.21120265  0.81214537  1
  Pd  Pd197  1  0.80273895  -0.00586532  0.79972177  1
  Pd  Pd198  1  0.40078862  0.20417392  0.19217491  1
  Pd  Pd199  1  0.80669346  -0.00047038  0.40593292  1
  Rh  Rh200  1  0.80498999  0.39532544  0.60776694  1
  Rh  Rh201  1  0.39191667  0.60047522  0.00360544  1
  Rh  Rh202  1  0.39405441  0.40277710  0.40947842  1
  Rh  Rh203  1  0.19716896  0.39198737  0.59695770  1
  Rh  Rh204  1  0.20041695  0.20134718  0.19837132  1
  Rh  Rh205  1  0.79230751  0.20217515  0.21046253  1
  Rh  Rh206  1  0.39421101  -0.00422861  0.21592533  1
  Rh  Rh207  1  0.19545864  0.79945914  0.00283743  1
  Rh  Rh208  1  0.19795701  0.19853317  0.39349795  1
  Rh  Rh209  1  0.59746489  0.79377839  0.19449366  1
  Rh  Rh210  1  0.59280836  -0.00803450  0.40603244  1
  Rh  Rh211  1  0.19752421  0.80219470  0.20057340  1
  Rh  Rh212  1  0.60624296  0.19666380  0.60194291  1
  Rh  Rh213  1  0.81075841  0.38804977  0.19604630  1
  Rh  Rh214  1  0.60922531  0.20744537  0.39130822  1
  Rh  Rh215  1  0.39727403  0.39222911  -0.01132171  1
  Rh  Rh216  1  0.19168499  0.40371668  0.00681428  1
  Rh  Rh217  1  0.00593801  -0.01112957  0.60531702  1
  Rh  Rh218  1  0.39764349  0.80096743  0.20258060  1
  Rh  Rh219  1  -0.00612142  0.79939188  0.39569642  1
  Rh  Rh220  1  0.59276505  0.60859171  0.60797794  1
  Rh  Rh221  1  0.19417676  0.00344021  0.79195809  1
  Rh  Rh222  1  0.81243996  0.20614636  -0.00722929  1
  Rh  Rh223  1  0.60726316  0.80339566  0.79957348  1
  Rh  Rh224  1  0.39328311  0.59482890  0.80229807  1
  Rh  Rh225  1  0.79824715  -0.00160204  0.19540022  1
  Rh  Rh226  1  0.59831070  0.39995797  0.80314008  1
  Rh  Rh227  1  0.00422844  0.00251576  0.20026972  1
  Rh  Rh228  1  0.00164686  0.80330199  0.80501163  1
  Rh  Rh229  1  0.00658622  0.39246759  0.00982869  1
  Rh  Rh230  1  0.20311909  -0.00017543  0.00523772  1
  Rh  Rh231  1  0.19159083  0.60096714  0.19834868  1
  Rh  Rh232  1  0.79767747  0.39658003  0.79853813  1
  Rh  Rh233  1  0.20460741  0.79569342  0.80676246  1
  Rh  Rh234  1  -0.00320462  0.19770941  0.39483887  1
  Rh  Rh235  1  0.40299673  0.40195287  0.19900673  1
  Rh  Rh236  1  0.19774522  0.00106449  0.20595366  1
  Rh  Rh237  1  -0.00397020  0.21666823  0.60012352  1
  Rh  Rh238  1  0.60922001  0.59795916  0.79973032  1
  Rh  Rh239  1  0.39261594  0.79926657  0.00246363  1
  Rh  Rh240  1  0.59989247  0.81008279  0.00748918  1
  Rh  Rh241  1  0.39937974  -0.00032729  -0.00288065  1
  Rh  Rh242  1  0.78836394  0.80699320  0.59472550  1
  Rh  Rh243  1  0.00621169  0.20018836  0.20061237  1
  Rh  Rh244  1  0.79818615  0.60412959  0.19267813  1
  Rh  Rh245  1  0.00143133  0.80644839  0.19104018  1
  Rh  Rh246  1  0.79341582  0.60436938  0.80602906  1
  Rh  Rh247  1  0.80129050  0.40148538  -0.00192653  1
  Rh  Rh248  1  0.58847767  0.19039164  0.01671408  1
  Rh  Rh249  1  0.40417800  -0.00403364  0.80580967  1
