# generated using pymatgen
data_ZrScNbPdRh
_symmetry_space_group_name_H-M   'P 1'
_cell_length_a   16.56233632
_cell_length_b   16.55971326
_cell_length_c   16.56480966
_cell_angle_alpha   89.99813675
_cell_angle_beta   90.01949865
_cell_angle_gamma   90.04075180
_symmetry_Int_Tables_number   1
_chemical_formula_structural   ZrScNbPdRh
_chemical_formula_sum   'Zr50 Sc50 Nb50 Pd50 Rh50'
_cell_volume   4543.18818746
_cell_formula_units_Z   50
loop_
 _symmetry_equiv_pos_site_id
 _symmetry_equiv_pos_as_xyz
  1  'x, y, z'
loop_
 _atom_site_type_symbol
 _atom_site_label
 _atom_site_symmetry_multiplicity
 _atom_site_fract_x
 _atom_site_fract_y
 _atom_site_fract_z
 _atom_site_occupancy
  Zr  Zr0  1  0.69111558  0.88765026  0.29732140  1
  Zr  Zr1  1  0.29431068  0.69815110  0.50027432  1
  Zr  Zr2  1  0.30566615  0.70468114  0.29986728  1
  Zr  Zr3  1  0.90347898  0.70104323  0.89707699  1
  Zr  Zr4  1  0.09673327  0.88906070  0.49836242  1
  Zr  Zr5  1  0.50510429  0.10077520  0.09246517  1
  Zr  Zr6  1  0.29951179  0.50051657  0.50348596  1
  Zr  Zr7  1  0.10187084  0.30546745  0.50529458  1
  Zr  Zr8  1  0.29649277  0.49969088  0.90038964  1
  Zr  Zr9  1  0.50331040  0.90082967  0.50730854  1
  Zr  Zr10  1  0.10309253  0.29840780  0.10255615  1
  Zr  Zr11  1  0.09537564  0.70645299  0.89434268  1
  Zr  Zr12  1  0.29859462  0.29955586  0.70188792  1
  Zr  Zr13  1  0.49607828  0.90272812  0.30821214  1
  Zr  Zr14  1  0.49733432  0.50787689  0.70603617  1
  Zr  Zr15  1  0.30286787  0.49775943  0.30121425  1
  Zr  Zr16  1  0.50018325  0.70760322  0.70100543  1
  Zr  Zr17  1  0.90205474  0.29692208  0.49950525  1
  Zr  Zr18  1  0.90093899  0.88711619  0.30721388  1
  Zr  Zr19  1  0.89850963  0.29758688  0.10010822  1
  Zr  Zr20  1  0.90343035  0.70322970  0.70359578  1
  Zr  Zr21  1  0.70357697  0.09869341  0.70193169  1
  Zr  Zr22  1  0.70189439  0.90468910  0.89963654  1
  Zr  Zr23  1  0.09812805  0.09952605  0.48654064  1
  Zr  Zr24  1  0.71114757  0.30048875  0.70340815  1
  Zr  Zr25  1  0.10231084  0.09712801  0.90729112  1
  Zr  Zr26  1  0.70558189  0.70346501  0.90126676  1
  Zr  Zr27  1  0.10078621  0.51461853  0.90194151  1
  Zr  Zr28  1  0.09699198  0.10282795  0.09857368  1
  Zr  Zr29  1  0.09899229  0.50282604  0.50159268  1
  Zr  Zr30  1  0.10673527  0.90687521  0.10355314  1
  Zr  Zr31  1  0.90161324  0.69792662  0.09108733  1
  Zr  Zr32  1  0.30411045  0.09468869  0.30097990  1
  Zr  Zr33  1  0.49513055  0.29421290  0.89994920  1
  Zr  Zr34  1  0.30228236  0.30470310  0.89390648  1
  Zr  Zr35  1  0.89331347  0.09955970  0.69824761  1
  Zr  Zr36  1  0.30180278  0.89314130  0.50613408  1
  Zr  Zr37  1  0.90066965  0.09663765  0.49681075  1
  Zr  Zr38  1  0.89114415  0.31540197  0.29189747  1
  Zr  Zr39  1  0.69899317  0.90178887  0.09454305  1
  Zr  Zr40  1  0.49996274  0.10298888  0.30206174  1
  Zr  Zr41  1  0.50026159  0.09894018  0.90486983  1
  Zr  Zr42  1  0.49542821  0.70035899  0.90042211  1
  Zr  Zr43  1  0.48960920  0.69864812  0.09498413  1
  Zr  Zr44  1  0.50789109  0.70576434  0.30033701  1
  Zr  Zr45  1  0.89699629  0.89977782  0.70458790  1
  Zr  Zr46  1  0.90363533  0.49222137  0.10347736  1
  Zr  Zr47  1  0.90659197  0.30128372  0.70315877  1
  Zr  Zr48  1  0.29169757  0.09185338  0.10556327  1
  Zr  Zr49  1  0.90141626  0.69659740  0.49145350  1
  Sc  Sc50  1  0.90256539  0.09774468  0.90333006  1
  Sc  Sc51  1  0.90499767  0.89366728  0.49690413  1
  Sc  Sc52  1  0.70443514  0.10291220  0.50562609  1
  Sc  Sc53  1  0.50003727  0.50474223  0.49292435  1
  Sc  Sc54  1  0.49754512  0.09744621  0.49682529  1
  Sc  Sc55  1  0.90301649  0.30046126  0.89759084  1
  Sc  Sc56  1  0.09843464  0.49699063  0.69630185  1
  Sc  Sc57  1  0.29644213  0.70423594  0.90637119  1
  Sc  Sc58  1  0.69634416  0.89606418  0.69734418  1
  Sc  Sc59  1  0.70792431  0.30380506  0.49462635  1
  Sc  Sc60  1  0.10162104  0.70137138  0.08495134  1
  Sc  Sc61  1  0.70260696  0.10585379  0.09429844  1
  Sc  Sc62  1  0.70713675  0.50332274  0.89573218  1
  Sc  Sc63  1  0.70475120  0.70473848  0.31030240  1
  Sc  Sc64  1  0.70026966  0.29920014  0.29687189  1
  Sc  Sc65  1  0.29809823  0.09791516  0.89423649  1
  Sc  Sc66  1  0.09592352  0.70418041  0.69983094  1
  Sc  Sc67  1  0.48238925  0.89994197  0.89655947  1
  Sc  Sc68  1  0.48950515  0.50848661  0.90173449  1
  Sc  Sc69  1  0.10665644  0.70001628  0.31356444  1
  Sc  Sc70  1  0.70986114  0.50108352  0.09055982  1
  Sc  Sc71  1  0.10092552  0.28935075  0.89134207  1
  Sc  Sc72  1  0.29745885  0.31152484  0.09928697  1
  Sc  Sc73  1  0.70104449  0.10020072  0.90687081  1
  Sc  Sc74  1  0.69166179  0.89716491  0.49961590  1
  Sc  Sc75  1  0.50032671  0.70174114  0.50285865  1
  Sc  Sc76  1  0.69285680  0.68889925  0.69972619  1
  Sc  Sc77  1  0.48595767  0.10030786  0.69558507  1
  Sc  Sc78  1  0.31229668  0.10397942  0.49795861  1
  Sc  Sc79  1  0.10363061  0.29694743  0.29479678  1
  Sc  Sc80  1  0.91003808  0.10236572  0.29925338  1
  Sc  Sc81  1  0.10143573  0.09957194  0.72128999  1
  Sc  Sc82  1  0.49012789  0.29402786  0.49261746  1
  Sc  Sc83  1  0.89544158  0.49553851  0.70338576  1
  Sc  Sc84  1  0.69709735  0.49520048  0.31278043  1
  Sc  Sc85  1  0.69893025  0.70524343  0.10247756  1
  Sc  Sc86  1  0.10497575  0.09816350  0.28831747  1
  Sc  Sc87  1  0.89964829  0.50696490  0.90027646  1
  Sc  Sc88  1  0.30344110  0.29830197  0.29989657  1
  Sc  Sc89  1  0.89926305  0.89942519  0.09331675  1
  Sc  Sc90  1  0.29321787  0.50333538  0.70342438  1
  Sc  Sc91  1  0.70350692  0.29300410  0.90184991  1
  Sc  Sc92  1  0.69543124  0.11159356  0.29325890  1
  Sc  Sc93  1  0.50364229  0.30018940  0.30240932  1
  Sc  Sc94  1  0.90230399  0.50074033  0.49822047  1
  Sc  Sc95  1  0.10083491  0.69941481  0.50863406  1
  Sc  Sc96  1  0.49277934  0.49925476  0.30693804  1
  Sc  Sc97  1  0.70828800  0.29403776  0.10405226  1
  Sc  Sc98  1  0.89239452  0.89556813  0.89760051  1
  Sc  Sc99  1  0.90349197  0.10100234  0.09633620  1
  Nb  Nb100  1  0.29358094  0.90057880  0.89422721  1
  Nb  Nb101  1  0.30102859  0.50287183  0.10243806  1
  Nb  Nb102  1  0.50000126  0.90124954  0.09551702  1
  Nb  Nb103  1  0.09862483  0.29770924  0.69691875  1
  Nb  Nb104  1  0.09979031  0.89920595  0.30243772  1
  Nb  Nb105  1  0.69639352  0.49603160  0.69318007  1
  Nb  Nb106  1  0.69872948  0.51260857  0.51653280  1
  Nb  Nb107  1  0.90213260  0.69448760  0.29937853  1
  Nb  Nb108  1  0.29819030  0.09706713  0.69244369  1
  Nb  Nb109  1  0.49464688  0.90154603  0.69912384  1
  Nb  Nb110  1  0.30434620  0.89031455  0.10443679  1
  Nb  Nb111  1  0.50205057  0.29862784  0.09590354  1
  Nb  Nb112  1  0.29933621  0.30103873  0.50286692  1
  Nb  Nb113  1  0.49619729  0.50157823  0.09891057  1
  Nb  Nb114  1  0.70242860  0.69270222  0.50804545  1
  Nb  Nb115  1  0.10354473  0.89962029  0.70169146  1
  Nb  Nb116  1  0.30250999  0.70311309  0.10317390  1
  Nb  Nb117  1  0.11224113  0.90265939  0.88573919  1
  Nb  Nb118  1  0.09928506  0.49705389  0.29706301  1
  Nb  Nb119  1  0.90837326  0.50398434  0.29817352  1
  Nb  Nb120  1  0.10682999  0.49584844  0.10344839  1
  Nb  Nb121  1  0.30063755  0.70582904  0.68425806  1
  Nb  Nb122  1  0.29451494  0.89862602  0.29762425  1
  Nb  Nb123  1  0.30518245  0.90669202  0.70258374  1
  Nb  Nb124  1  0.49882609  0.30278517  0.70319415  1
  Nb  Nb125  1  0.20163338  -0.00858476  0.40011551  1
  Nb  Nb126  1  0.00327014  0.79394923  0.20355987  1
  Nb  Nb127  1  0.00827123  0.40213862  0.00403779  1
  Nb  Nb128  1  0.79887969  0.79061477  0.59711909  1
  Nb  Nb129  1  0.59484960  0.40631215  0.18793517  1
  Nb  Nb130  1  0.19760137  0.19604218  0.60250119  1
  Nb  Nb131  1  0.00683360  0.19507101  0.60372004  1
  Nb  Nb132  1  0.59858641  -0.00398157  0.19631420  1
  Nb  Nb133  1  0.59459604  0.40005908  0.00008736  1
  Nb  Nb134  1  0.19663285  0.00233652  0.60149485  1
  Nb  Nb135  1  0.79566345  -0.00445282  0.20546062  1
  Nb  Nb136  1  0.60061059  0.59428629  0.19772218  1
  Nb  Nb137  1  0.20178884  0.59792798  0.19501587  1
  Nb  Nb138  1  0.59145001  -0.00067069  0.79767656  1
  Nb  Nb139  1  0.59697393  0.21030687  0.60689188  1
  Nb  Nb140  1  0.79809386  -0.00385229  0.39079796  1
  Nb  Nb141  1  0.00534913  0.59973783  0.20254572  1
  Nb  Nb142  1  0.20003600  0.40199445  0.40238006  1
  Nb  Nb143  1  0.59748179  0.39913220  0.60374371  1
  Nb  Nb144  1  0.59233291  0.80318060  -0.00169694  1
  Nb  Nb145  1  0.59863567  0.39891811  0.79887198  1
  Nb  Nb146  1  0.80483224  0.59846819  0.20666796  1
  Nb  Nb147  1  0.40383487  0.39736160  0.60428452  1
  Nb  Nb148  1  0.40454709  0.19829886  0.19302550  1
  Nb  Nb149  1  0.00781822  0.00097406  0.60419142  1
  Pd  Pd150  1  -0.00392839  -0.00266774  0.80299132  1
  Pd  Pd151  1  0.20586491  -0.00673911  0.00009362  1
  Pd  Pd152  1  -0.00406549  0.59620616  0.60403228  1
  Pd  Pd153  1  0.61035716  0.00756772  0.39427127  1
  Pd  Pd154  1  0.40584326  0.39240811  0.19989233  1
  Pd  Pd155  1  0.59887038  0.39737678  0.40704952  1
  Pd  Pd156  1  0.20828313  0.79267113  0.79036596  1
  Pd  Pd157  1  -0.00897242  -0.00906865  0.20276562  1
  Pd  Pd158  1  0.59990627  0.80836821  0.80526032  1
  Pd  Pd159  1  0.38796544  -0.00513305  -0.00135033  1
  Pd  Pd160  1  0.40198866  0.59942665  0.20377061  1
  Pd  Pd161  1  0.20250197  0.80785869  -0.00073968  1
  Pd  Pd162  1  0.38550574  0.19892401  0.00751770  1
  Pd  Pd163  1  0.60350078  0.20230979  0.41148810  1
  Pd  Pd164  1  0.40327130  0.59622422  0.59729743  1
  Pd  Pd165  1  0.00649197  0.81317882  -0.00325431  1
  Pd  Pd166  1  0.00610095  0.39621624  0.39734961  1
  Pd  Pd167  1  0.59855018  0.19576616  0.79578426  1
  Pd  Pd168  1  0.20144813  0.61046700  0.79118372  1
  Pd  Pd169  1  0.40107176  0.79968584  0.40490213  1
  Pd  Pd170  1  0.00607373  0.40540861  0.80908797  1
  Pd  Pd171  1  0.19121218  0.79031448  0.19982852  1
  Pd  Pd172  1  0.60509199  0.60040949  0.00299954  1
  Pd  Pd173  1  0.60256472  0.59429081  0.80688738  1
  Pd  Pd174  1  0.20621409  0.60380910  0.00603408  1
  Pd  Pd175  1  0.40291604  0.40415133  -0.00123097  1
  Pd  Pd176  1  0.19313314  0.39654472  -0.00768580  1
  Pd  Pd177  1  0.39575689  0.19227612  0.79747094  1
  Pd  Pd178  1  0.40649174  0.00052266  0.19751767  1
  Pd  Pd179  1  0.40677870  0.80489712  0.20221958  1
  Pd  Pd180  1  0.80106573  0.39618910  -0.00872456  1
  Pd  Pd181  1  0.80176546  0.40169778  0.59504204  1
  Pd  Pd182  1  0.80373161  -0.01456468  0.58837901  1
  Pd  Pd183  1  0.79826603  0.59257723  0.39834365  1
  Pd  Pd184  1  -0.00008255  -0.00940340  -0.00747676  1
  Pd  Pd185  1  0.80838214  0.79679962  0.19463509  1
  Pd  Pd186  1  -0.00046073  0.20961408  0.39287866  1
  Pd  Pd187  1  0.38547144  0.61183335  0.79883346  1
  Pd  Pd188  1  -0.00371176  0.20521385  0.20379097  1
  Pd  Pd189  1  0.38823771  0.79571245  0.79686409  1
  Pd  Pd190  1  0.60169259  0.60349559  0.39732973  1
  Pd  Pd191  1  0.20010147  0.59437071  0.39618023  1
  Pd  Pd192  1  0.80610304  0.19603179  0.80908100  1
  Pd  Pd193  1  0.20636131  0.20040470  0.40170694  1
  Pd  Pd194  1  0.18953703  0.40090921  0.80036500  1
  Pd  Pd195  1  0.79928611  0.41010039  0.40551921  1
  Pd  Pd196  1  0.20722255  0.20380629  -0.00040033  1
  Pd  Pd197  1  0.80134396  0.19341265  0.39224789  1
  Pd  Pd198  1  0.79901372  0.59914562  0.79291294  1
  Pd  Pd199  1  0.59488621  0.01098279  0.60738444  1
  Rh  Rh200  1  0.00068169  0.20760960  -0.00198479  1
  Rh  Rh201  1  0.00128278  -0.00393674  0.39900466  1
  Rh  Rh202  1  0.79506487  0.40335469  0.80433104  1
  Rh  Rh203  1  0.59263709  0.20314166  0.19402173  1
  Rh  Rh204  1  -0.00400618  0.19598980  0.79767098  1
  Rh  Rh205  1  0.19893659  0.80444438  0.60733882  1
  Rh  Rh206  1  0.00053474  0.59713409  0.79529095  1
  Rh  Rh207  1  -0.00619960  0.39759092  0.60140476  1
  Rh  Rh208  1  0.80540310  0.00390937  0.00657600  1
  Rh  Rh209  1  0.00600682  0.39883911  0.19612353  1
  Rh  Rh210  1  0.00229796  0.80950767  0.80415404  1
  Rh  Rh211  1  0.39675197  -0.00274528  0.59595522  1
  Rh  Rh212  1  0.20025241  -0.00580331  0.20524025  1
  Rh  Rh213  1  0.19573404  0.60396354  0.60609216  1
  Rh  Rh214  1  0.79454488  0.79869397  -0.00057053  1
  Rh  Rh215  1  0.39215199  -0.00839204  0.40599244  1
  Rh  Rh216  1  0.21088718  0.20289927  0.19727089  1
  Rh  Rh217  1  0.39901452  0.00375160  0.79934018  1
  Rh  Rh218  1  0.80197156  0.20589822  0.59780686  1
  Rh  Rh219  1  0.20740911  0.39651832  0.59871887  1
  Rh  Rh220  1  0.40342288  0.80156914  0.60181675  1
  Rh  Rh221  1  0.80879930  0.60377573  0.60536852  1
  Rh  Rh222  1  0.20809053  0.00105965  0.79546859  1
  Rh  Rh223  1  0.79102484  0.00332784  0.80458909  1
  Rh  Rh224  1  0.40050680  0.60944714  0.40007046  1
  Rh  Rh225  1  0.39594234  0.80538984  -0.00015798  1
  Rh  Rh226  1  0.79306823  0.80249124  0.41243940  1
  Rh  Rh227  1  0.80133628  0.60402047  0.00315957  1
  Rh  Rh228  1  0.79215303  0.79521822  0.78989032  1
  Rh  Rh229  1  -0.00779674  0.80578353  0.60568277  1
  Rh  Rh230  1  0.00522802  0.78929897  0.39633722  1
  Rh  Rh231  1  0.39955710  0.20762657  0.60009349  1
  Rh  Rh232  1  0.78403119  0.41221790  0.20728637  1
  Rh  Rh233  1  0.20516064  0.19883542  0.79648353  1
  Rh  Rh234  1  0.39785755  0.20247428  0.39141842  1
  Rh  Rh235  1  0.60708981  0.20997671  0.00116275  1
  Rh  Rh236  1  0.58924432  0.59847143  0.59963522  1
  Rh  Rh237  1  0.20342562  0.40369683  0.20887428  1
  Rh  Rh238  1  0.60399415  0.79497528  0.60187486  1
  Rh  Rh239  1  0.38806182  0.59821586  -0.00037392  1
  Rh  Rh240  1  0.80774863  0.19149947  0.20295327  1
  Rh  Rh241  1  0.59695889  -0.00793063  -0.00554042  1
  Rh  Rh242  1  0.20255214  0.80367799  0.40023715  1
  Rh  Rh243  1  0.58921015  0.79822214  0.18808908  1
  Rh  Rh244  1  0.40224923  0.40513706  0.79734277  1
  Rh  Rh245  1  0.80661286  0.19958613  -0.00114631  1
  Rh  Rh246  1  -0.00101632  0.59026849  0.00573464  1
  Rh  Rh247  1  0.60231463  0.79121828  0.41316536  1
  Rh  Rh248  1  0.39380278  0.39734036  0.40826690  1
  Rh  Rh249  1  0.00522274  0.60136225  0.39893723  1
