# generated using pymatgen
data_ZrScNbPdRh
_symmetry_space_group_name_H-M   'P 1'
_cell_length_a   16.56244868
_cell_length_b   16.56150513
_cell_length_c   16.56058936
_cell_angle_alpha   89.96664768
_cell_angle_beta   90.02922764
_cell_angle_gamma   89.96921064
_symmetry_Int_Tables_number   1
_chemical_formula_structural   ZrScNbPdRh
_chemical_formula_sum   'Zr50 Sc50 Nb50 Pd50 Rh50'
_cell_volume   4542.55238651
_cell_formula_units_Z   50
loop_
 _symmetry_equiv_pos_site_id
 _symmetry_equiv_pos_as_xyz
  1  'x, y, z'
loop_
 _atom_site_type_symbol
 _atom_site_label
 _atom_site_symmetry_multiplicity
 _atom_site_fract_x
 _atom_site_fract_y
 _atom_site_fract_z
 _atom_site_occupancy
  Zr  Zr0  1  0.09954291  0.70521984  0.69811123  1
  Zr  Zr1  1  0.90027672  0.70789611  0.69461060  1
  Zr  Zr2  1  0.09438932  0.69736532  0.50233706  1
  Zr  Zr3  1  0.29484310  0.69901455  0.89596387  1
  Zr  Zr4  1  0.69661722  0.29769310  0.30334864  1
  Zr  Zr5  1  0.30177035  0.30000275  0.29682560  1
  Zr  Zr6  1  0.49902253  0.51744738  0.69784583  1
  Zr  Zr7  1  0.90713710  0.31394191  0.89992983  1
  Zr  Zr8  1  0.10007632  0.50700711  0.30139107  1
  Zr  Zr9  1  0.09519245  0.29624708  0.09692197  1
  Zr  Zr10  1  0.89989279  0.08917704  0.69665561  1
  Zr  Zr11  1  0.49301417  0.10134076  0.09915855  1
  Zr  Zr12  1  0.49989840  0.10414190  0.69893348  1
  Zr  Zr13  1  0.50697982  0.69155561  0.08794747  1
  Zr  Zr14  1  0.09774837  0.50838481  0.50468674  1
  Zr  Zr15  1  0.90070689  0.90202217  0.89205391  1
  Zr  Zr16  1  0.69304684  0.50264826  0.30371650  1
  Zr  Zr17  1  0.10373899  0.89699986  0.50455554  1
  Zr  Zr18  1  0.69871049  0.69216742  0.70172956  1
  Zr  Zr19  1  0.70418687  0.69441140  0.09605543  1
  Zr  Zr20  1  0.50529381  0.88765801  0.89982100  1
  Zr  Zr21  1  0.50808387  0.49918297  0.49696852  1
  Zr  Zr22  1  0.30239703  0.50060780  0.70063023  1
  Zr  Zr23  1  0.29422260  0.50351193  0.50598356  1
  Zr  Zr24  1  0.89839876  0.09964559  0.50081297  1
  Zr  Zr25  1  0.50245700  0.28925817  0.70041718  1
  Zr  Zr26  1  0.70120017  0.09952027  0.70183903  1
  Zr  Zr27  1  0.10169577  0.69603358  0.90959272  1
  Zr  Zr28  1  0.10033380  0.90396449  0.09835886  1
  Zr  Zr29  1  0.30304064  0.10499847  0.30431474  1
  Zr  Zr30  1  0.30238897  0.90186848  0.09879237  1
  Zr  Zr31  1  0.70390586  0.90757870  0.29785406  1
  Zr  Zr32  1  0.31222037  0.49820243  0.09615968  1
  Zr  Zr33  1  0.29839238  0.09386649  0.10032707  1
  Zr  Zr34  1  0.49292707  0.50490296  0.90419918  1
  Zr  Zr35  1  0.90646441  0.29722680  0.10198535  1
  Zr  Zr36  1  0.49434838  0.89758742  0.09913443  1
  Zr  Zr37  1  0.70507231  0.09916645  0.30585862  1
  Zr  Zr38  1  0.49774064  0.10795930  0.49642170  1
  Zr  Zr39  1  0.89602206  0.51387884  0.10661550  1
  Zr  Zr40  1  0.08522637  0.70248986  0.10232528  1
  Zr  Zr41  1  0.49544257  0.29805938  0.09241063  1
  Zr  Zr42  1  0.69678323  0.30037447  0.90101930  1
  Zr  Zr43  1  0.90553515  0.09551370  0.89996281  1
  Zr  Zr44  1  0.49758820  0.88925465  0.69857915  1
  Zr  Zr45  1  0.29789743  0.10083018  0.69740929  1
  Zr  Zr46  1  0.50097420  0.10735757  0.29647127  1
  Zr  Zr47  1  0.10772675  0.08914967  0.69946165  1
  Zr  Zr48  1  0.10476734  0.09302246  0.49803349  1
  Zr  Zr49  1  0.91574959  0.09680645  0.10250253  1
  Sc  Sc50  1  0.49779813  0.50066642  0.29844857  1
  Sc  Sc51  1  0.28803519  0.70371474  0.50015831  1
  Sc  Sc52  1  0.09334652  0.70513015  0.31080801  1
  Sc  Sc53  1  0.69814106  0.50722947  0.09819772  1
  Sc  Sc54  1  0.50463914  0.11194236  0.90021335  1
  Sc  Sc55  1  0.09958224  0.29900611  0.28965516  1
  Sc  Sc56  1  0.10157874  0.89343871  0.89760502  1
  Sc  Sc57  1  0.69938904  0.70346675  0.90405095  1
  Sc  Sc58  1  0.09679884  0.90093237  0.30620386  1
  Sc  Sc59  1  0.29077371  0.89671131  0.90521748  1
  Sc  Sc60  1  0.30801875  0.70263642  0.09371886  1
  Sc  Sc61  1  0.30328688  0.69706062  0.69778535  1
  Sc  Sc62  1  0.29684765  0.31002417  0.89819969  1
  Sc  Sc63  1  0.70481471  0.68301612  0.50342130  1
  Sc  Sc64  1  0.90034534  0.30462535  0.29263320  1
  Sc  Sc65  1  0.28581037  0.89380062  0.69827729  1
  Sc  Sc66  1  0.71440501  0.50420048  0.90190767  1
  Sc  Sc67  1  0.10240305  0.09717650  0.29680957  1
  Sc  Sc68  1  0.10222236  0.50282421  0.09478714  1
  Sc  Sc69  1  0.49181093  0.90199057  0.30398540  1
  Sc  Sc70  1  0.69827449  0.90433763  0.09479933  1
  Sc  Sc71  1  0.69463865  0.68870280  0.30122295  1
  Sc  Sc72  1  0.29959201  0.30533718  0.09975274  1
  Sc  Sc73  1  0.29198363  0.09285812  0.89641035  1
  Sc  Sc74  1  0.69274345  0.09348673  0.10285147  1
  Sc  Sc75  1  0.09991943  0.08812376  0.89778075  1
  Sc  Sc76  1  0.89488120  0.49008215  0.70425973  1
  Sc  Sc77  1  0.09965235  0.30368436  0.51048020  1
  Sc  Sc78  1  0.29819533  0.29689137  0.70098927  1
  Sc  Sc79  1  0.29334133  0.50123669  0.90188875  1
  Sc  Sc80  1  0.69836343  0.09637620  0.90239793  1
  Sc  Sc81  1  0.89659271  0.70206556  0.91174807  1
  Sc  Sc82  1  0.90692753  0.90103069  0.10098729  1
  Sc  Sc83  1  0.50063262  0.29919360  0.90157753  1
  Sc  Sc84  1  0.10324268  0.49986157  0.69185748  1
  Sc  Sc85  1  0.70278251  0.30294345  0.69084899  1
  Sc  Sc86  1  0.70694105  0.89758208  0.90140808  1
  Sc  Sc87  1  0.89609450  0.29801449  0.51528015  1
  Sc  Sc88  1  0.30523493  0.49452394  0.29265019  1
  Sc  Sc89  1  0.69872856  0.30368115  0.09491816  1
  Sc  Sc90  1  0.49930282  0.69583445  0.30134723  1
  Sc  Sc91  1  0.10195789  0.30687945  0.70074044  1
  Sc  Sc92  1  0.30278363  0.29142458  0.49692755  1
  Sc  Sc93  1  0.30106657  0.89233191  0.49286353  1
  Sc  Sc94  1  0.49627234  0.29769622  0.30888877  1
  Sc  Sc95  1  0.30608038  0.89639655  0.30050802  1
  Sc  Sc96  1  0.72213158  0.89744145  0.70092064  1
  Sc  Sc97  1  0.90387026  0.90313567  0.51025732  1
  Sc  Sc98  1  0.90727197  0.90932247  0.29688979  1
  Sc  Sc99  1  0.49072248  0.69919043  0.50665707  1
  Nb  Nb100  1  0.69862181  0.90095673  0.49609389  1
  Nb  Nb101  1  0.69856104  0.49540516  0.50301964  1
  Nb  Nb102  1  0.90010870  0.69923247  0.29355232  1
  Nb  Nb103  1  0.50135745  0.70000537  0.70745648  1
  Nb  Nb104  1  0.09964065  0.10066028  0.09602858  1
  Nb  Nb105  1  0.89984079  0.10157158  0.30117902  1
  Nb  Nb106  1  0.29509903  0.70208198  0.30689366  1
  Nb  Nb107  1  0.90726175  0.50137599  0.89840052  1
  Nb  Nb108  1  0.69210486  0.30518760  0.49367820  1
  Nb  Nb109  1  0.90703675  0.90059352  0.70334445  1
  Nb  Nb110  1  0.70480411  0.09618258  0.49656439  1
  Nb  Nb111  1  0.09587108  0.30845272  0.90523087  1
  Nb  Nb112  1  0.90355818  0.29253398  0.70505648  1
  Nb  Nb113  1  0.08999701  0.89694126  0.69915824  1
  Nb  Nb114  1  0.29871119  0.09688735  0.50482510  1
  Nb  Nb115  1  0.89540117  0.50103352  0.29832396  1
  Nb  Nb116  1  0.90202338  0.70188644  0.10936095  1
  Nb  Nb117  1  0.69348465  0.50372689  0.69354699  1
  Nb  Nb118  1  0.50185604  0.69948593  0.88794723  1
  Nb  Nb119  1  0.90245168  0.69452406  0.49802784  1
  Nb  Nb120  1  0.50334996  0.30160876  0.50095224  1
  Nb  Nb121  1  0.49834530  0.50033773  0.09989928  1
  Nb  Nb122  1  0.89941573  0.50638348  0.49880248  1
  Nb  Nb123  1  0.09237510  0.49443775  0.90005877  1
  Nb  Nb124  1  0.50122766  0.89808749  0.50048231  1
  Nb  Nb125  1  0.60346025  0.80213019  0.59717326  1
  Nb  Nb126  1  0.60134336  -0.00506020  0.59493640  1
  Nb  Nb127  1  0.39233459  0.59988768  0.40079375  1
  Nb  Nb128  1  0.40218745  -0.00089183  0.59855420  1
  Nb  Nb129  1  0.59560147  -0.00439010  0.79162077  1
  Nb  Nb130  1  0.19041462  0.20079696  -0.00039282  1
  Nb  Nb131  1  -0.00550934  0.40343606  0.40265876  1
  Nb  Nb132  1  0.80004074  0.79657101  0.20501777  1
  Nb  Nb133  1  0.40796255  0.39631246  0.59789595  1
  Nb  Nb134  1  0.20377331  0.60939068  0.20156403  1
  Nb  Nb135  1  0.60191428  0.40828647  0.79392130  1
  Nb  Nb136  1  0.80170023  0.79519724  0.39946772  1
  Nb  Nb137  1  0.40440917  -0.00388053  0.79451491  1
  Nb  Nb138  1  0.80864635  0.19982472  0.00081732  1
  Nb  Nb139  1  -0.00011087  0.59491610  0.80544446  1
  Nb  Nb140  1  0.80378657  0.19466010  0.19768679  1
  Nb  Nb141  1  0.80133399  0.40755448  0.40706037  1
  Nb  Nb142  1  -0.00297650  0.20266136  0.40056395  1
  Nb  Nb143  1  0.00043029  0.20332816  0.79953882  1
  Nb  Nb144  1  0.60341164  0.79943822  0.20146882  1
  Nb  Nb145  1  0.19998554  0.79504878  0.20046114  1
  Nb  Nb146  1  0.19460076  0.40266579  0.40093474  1
  Nb  Nb147  1  0.60503311  0.80291443  0.40465257  1
  Nb  Nb148  1  0.59387330  0.40221064  0.19600610  1
  Nb  Nb149  1  0.80825808  0.20395361  0.80260011  1
  Pd  Pd150  1  0.60715525  0.59384322  0.81106665  1
  Pd  Pd151  1  0.39110201  0.19607751  0.80911817  1
  Pd  Pd152  1  0.38336537  0.20041755  -0.00808353  1
  Pd  Pd153  1  0.19704021  0.40855625  0.19847486  1
  Pd  Pd154  1  0.60555425  0.20655414  0.19292222  1
  Pd  Pd155  1  0.78932187  0.39768819  0.20172190  1
  Pd  Pd156  1  0.19991435  -0.00782822  0.20758783  1
  Pd  Pd157  1  0.19007373  0.20458124  0.81009282  1
  Pd  Pd158  1  0.80491129  0.80380929  0.00964052  1
  Pd  Pd159  1  0.80052144  0.40156546  0.59804916  1
  Pd  Pd160  1  0.59929433  0.40986982  -0.00257904  1
  Pd  Pd161  1  0.00903242  0.19429045  0.60270481  1
  Pd  Pd162  1  0.80811238  0.21247210  0.39829220  1
  Pd  Pd163  1  0.39669745  0.79983140  0.59819306  1
  Pd  Pd164  1  0.18940213  0.20934487  0.40203245  1
  Pd  Pd165  1  0.59244605  0.00043531  -0.00871226  1
  Pd  Pd166  1  0.59015592  -0.00713607  0.20147042  1
  Pd  Pd167  1  0.40480543  0.00230950  -0.01561580  1
  Pd  Pd168  1  0.79194289  0.39748430  0.79523589  1
  Pd  Pd169  1  -0.00145329  0.78929180  0.80957869  1
  Pd  Pd170  1  0.79290265  0.20010531  0.60142658  1
  Pd  Pd171  1  -0.00752291  0.59859527  0.39460474  1
  Pd  Pd172  1  0.80700147  0.59279235  0.60577742  1
  Pd  Pd173  1  0.80155074  0.59996878  0.39608589  1
  Pd  Pd174  1  0.80365164  0.00472309  0.00686139  1
  Pd  Pd175  1  0.40936746  0.39997856  0.79316269  1
  Pd  Pd176  1  0.61555406  0.80561704  0.79250964  1
  Pd  Pd177  1  -0.00643567  0.40594415  0.60017887  1
  Pd  Pd178  1  0.59422501  0.39946400  0.60736207  1
  Pd  Pd179  1  0.00329013  0.40965343  0.20002587  1
  Pd  Pd180  1  0.19586384  0.40430541  0.79853046  1
  Pd  Pd181  1  0.39262581  0.40476738  0.40689458  1
  Pd  Pd182  1  0.80432375  0.40172032  0.00623335  1
  Pd  Pd183  1  0.38761641  0.80336851  0.80112103  1
  Pd  Pd184  1  0.59413093  0.00018113  0.40034718  1
  Pd  Pd185  1  -0.00425356  0.41230879  0.01332476  1
  Pd  Pd186  1  0.81094511  -0.00963376  0.40370550  1
  Pd  Pd187  1  0.20285565  0.59962182  0.00952831  1
  Pd  Pd188  1  0.39714838  0.60756137  0.20497029  1
  Pd  Pd189  1  0.79827903  0.79923399  0.59033374  1
  Pd  Pd190  1  0.20243355  0.19801753  0.19202360  1
  Pd  Pd191  1  0.80776141  0.60512128  0.80005365  1
  Pd  Pd192  1  0.19796722  0.20397762  0.59879350  1
  Pd  Pd193  1  0.20627038  -0.00678718  0.39527642  1
  Pd  Pd194  1  0.19244409  0.59645223  0.79574727  1
  Pd  Pd195  1  0.39705138  0.00291000  0.40385211  1
  Pd  Pd196  1  -0.01051018  0.80475450  0.40498493  1
  Pd  Pd197  1  0.40269313  0.79171400  0.20275453  1
  Pd  Pd198  1  0.61065175  0.19559967  0.59048150  1
  Pd  Pd199  1  0.40023856  0.79424243  -0.00784772  1
  Rh  Rh200  1  0.20156213  -0.01178147  0.79754683  1
  Rh  Rh201  1  -0.00889303  0.59687579  0.61192090  1
  Rh  Rh202  1  0.39744232  0.59958160  0.59437668  1
  Rh  Rh203  1  0.80459615  0.79374954  0.80175307  1
  Rh  Rh204  1  0.20802411  0.59223260  0.39149349  1
  Rh  Rh205  1  0.19938703  0.60862344  0.60709797  1
  Rh  Rh206  1  0.00344599  -0.00128265  0.60011592  1
  Rh  Rh207  1  -0.00214438  0.80057852  0.59456575  1
  Rh  Rh208  1  0.39885102  0.60593460  -0.00841086  1
  Rh  Rh209  1  0.58985814  0.60663122  0.40830696  1
  Rh  Rh210  1  -0.00609017  0.59834188  -0.00294864  1
  Rh  Rh211  1  0.60887817  0.19563287  0.00437781  1
  Rh  Rh212  1  0.59750479  0.60951583  0.59519693  1
  Rh  Rh213  1  0.21298393  0.39310093  0.59622180  1
  Rh  Rh214  1  0.40597225  0.78991025  0.40003673  1
  Rh  Rh215  1  0.40107869  0.00473036  0.20564167  1
  Rh  Rh216  1  0.41179036  0.39190281  0.19796492  1
  Rh  Rh217  1  -0.00155537  0.00886029  0.40282827  1
  Rh  Rh218  1  -0.00044152  0.19264246  0.21160421  1
  Rh  Rh219  1  0.79710108  -0.00303362  0.59626310  1
  Rh  Rh220  1  0.19676689  0.79835563  0.60000382  1
  Rh  Rh221  1  0.79539739  0.60579085  0.20507855  1
  Rh  Rh222  1  0.59609251  0.59652798  0.19438907  1
  Rh  Rh223  1  0.39499360  0.60422402  0.80417162  1
  Rh  Rh224  1  0.19532235  0.79760191  0.79842205  1
  Rh  Rh225  1  0.00671503  0.00231349  0.20386984  1
  Rh  Rh226  1  0.19608653  0.80444717  0.39465113  1
  Rh  Rh227  1  0.00015761  0.80459796  0.20405476  1
  Rh  Rh228  1  0.39841208  0.20049166  0.40299700  1
  Rh  Rh229  1  0.00661976  0.40269842  0.79170977  1
  Rh  Rh230  1  0.19769151  0.79872515  0.01008055  1
  Rh  Rh231  1  0.60262140  0.19655894  0.40572929  1
  Rh  Rh232  1  0.60252673  0.39935496  0.39353324  1
  Rh  Rh233  1  0.00536406  -0.00871824  -0.00409843  1
  Rh  Rh234  1  0.39942075  0.39887209  -0.00340523  1
  Rh  Rh235  1  0.80711143  0.00284052  0.19472359  1
  Rh  Rh236  1  0.61158113  0.20410846  0.80229334  1
  Rh  Rh237  1  0.60057154  0.59659785  -0.00887648  1
  Rh  Rh238  1  0.60114634  0.79930673  0.00481122  1
  Rh  Rh239  1  -0.00404956  0.80482306  -0.00144212  1
  Rh  Rh240  1  0.00525855  0.59913413  0.20513041  1
  Rh  Rh241  1  0.00553985  -0.00030027  0.79666997  1
  Rh  Rh242  1  0.19598365  0.00389614  -0.00012388  1
  Rh  Rh243  1  0.20660055  -0.00794012  0.59725818  1
  Rh  Rh244  1  0.79497023  0.00372335  0.80193066  1
  Rh  Rh245  1  0.39505152  0.20136585  0.59456429  1
  Rh  Rh246  1  0.19906006  0.39669427  0.00048320  1
  Rh  Rh247  1  0.39685933  0.20336254  0.19732304  1
  Rh  Rh248  1  0.80666511  0.60100371  -0.00046600  1
  Rh  Rh249  1  0.00482541  0.19709233  -0.01379447  1
