# generated using pymatgen
data_ZrScNbPdRh
_symmetry_space_group_name_H-M   'P 1'
_cell_length_a   16.55983593
_cell_length_b   16.56192512
_cell_length_c   16.56262203
_cell_angle_alpha   90.00017134
_cell_angle_beta   89.99427644
_cell_angle_gamma   89.98393483
_symmetry_Int_Tables_number   1
_chemical_formula_structural   ZrScNbPdRh
_chemical_formula_sum   'Zr50 Sc50 Nb50 Pd50 Rh50'
_cell_volume   4542.51027508
_cell_formula_units_Z   50
loop_
 _symmetry_equiv_pos_site_id
 _symmetry_equiv_pos_as_xyz
  1  'x, y, z'
loop_
 _atom_site_type_symbol
 _atom_site_label
 _atom_site_symmetry_multiplicity
 _atom_site_fract_x
 _atom_site_fract_y
 _atom_site_fract_z
 _atom_site_occupancy
  Zr  Zr0  1  0.90260001  0.08968231  0.30357121  1
  Zr  Zr1  1  0.90385337  0.09290845  0.09741724  1
  Zr  Zr2  1  0.10354195  0.29784047  0.30305084  1
  Zr  Zr3  1  0.70316455  0.10729779  0.90613793  1
  Zr  Zr4  1  0.30680214  0.49863532  0.09701842  1
  Zr  Zr5  1  0.30080694  0.49695320  0.70200204  1
  Zr  Zr6  1  0.50450549  0.49583100  0.10101244  1
  Zr  Zr7  1  0.90535144  0.69941509  0.49382697  1
  Zr  Zr8  1  0.69561739  0.29700291  0.29291853  1
  Zr  Zr9  1  0.69633401  0.10015020  0.49426380  1
  Zr  Zr10  1  0.69090998  0.09418558  0.30182788  1
  Zr  Zr11  1  0.10605738  0.71144978  0.89278259  1
  Zr  Zr12  1  0.70187027  0.90436027  0.90173632  1
  Zr  Zr13  1  0.49338064  0.69365789  0.90186109  1
  Zr  Zr14  1  0.11083962  0.30088906  0.70434969  1
  Zr  Zr15  1  0.70061189  0.48917363  0.69946271  1
  Zr  Zr16  1  0.29438443  0.70158617  0.29816528  1
  Zr  Zr17  1  0.29770091  0.09824362  0.89758021  1
  Zr  Zr18  1  0.30487372  0.71079355  0.09784041  1
  Zr  Zr19  1  0.89754659  0.30028911  0.90974442  1
  Zr  Zr20  1  0.89754635  0.29829678  0.10076492  1
  Zr  Zr21  1  0.31089221  0.50677581  0.89708843  1
  Zr  Zr22  1  0.29116496  0.89511475  0.90210656  1
  Zr  Zr23  1  0.09643666  0.29532221  0.10533825  1
  Zr  Zr24  1  0.69051996  0.51094557  0.30364526  1
  Zr  Zr25  1  0.10186356  0.70967026  0.69205116  1
  Zr  Zr26  1  0.89437284  0.49638295  0.08582871  1
  Zr  Zr27  1  0.49925900  0.49965103  0.70841681  1
  Zr  Zr28  1  0.10099888  0.10060392  0.29311877  1
  Zr  Zr29  1  0.10212492  0.30604270  0.49702824  1
  Zr  Zr30  1  0.09817550  0.90890731  0.09801678  1
  Zr  Zr31  1  0.30566046  0.49528546  0.30700374  1
  Zr  Zr32  1  0.70372112  0.70341792  0.69471337  1
  Zr  Zr33  1  0.68939372  0.89882185  0.50246518  1
  Zr  Zr34  1  0.09671658  0.09447993  0.50072147  1
  Zr  Zr35  1  0.90223322  0.68614352  0.89244611  1
  Zr  Zr36  1  0.70964142  0.70460612  0.30280304  1
  Zr  Zr37  1  0.50006534  0.89512515  0.89619712  1
  Zr  Zr38  1  0.50939194  0.69083245  0.30651026  1
  Zr  Zr39  1  0.49755250  0.08698980  0.50094538  1
  Zr  Zr40  1  0.50510709  0.69639398  0.70335864  1
  Zr  Zr41  1  0.50666335  0.90419423  0.68666174  1
  Zr  Zr42  1  0.69640243  0.49135778  0.10379581  1
  Zr  Zr43  1  0.10346390  0.49841590  0.31011163  1
  Zr  Zr44  1  0.49906946  0.70001496  0.09988487  1
  Zr  Zr45  1  0.49215170  0.90790758  0.30443895  1
  Zr  Zr46  1  0.49564790  0.28711881  0.49418334  1
  Zr  Zr47  1  0.51149322  0.29715144  0.90150009  1
  Zr  Zr48  1  0.49871388  0.10702788  0.89038325  1
  Zr  Zr49  1  0.50806684  0.29718632  0.70301662  1
  Sc  Sc50  1  0.29344027  0.50296007  0.49503760  1
  Sc  Sc51  1  0.90523199  0.30120876  0.29264399  1
  Sc  Sc52  1  0.88941681  0.29893612  0.69787445  1
  Sc  Sc53  1  0.70113650  0.90009265  0.09988866  1
  Sc  Sc54  1  0.70715645  0.49814463  0.89913185  1
  Sc  Sc55  1  0.10383316  0.89676752  0.50260504  1
  Sc  Sc56  1  0.29289473  0.70043771  0.49855296  1
  Sc  Sc57  1  0.30166259  0.10099088  0.49914075  1
  Sc  Sc58  1  0.29582180  0.29585842  0.89144339  1
  Sc  Sc59  1  0.69914624  0.29976909  0.09557162  1
  Sc  Sc60  1  0.90003157  0.70728894  0.30453265  1
  Sc  Sc61  1  0.10148828  0.70133215  0.10935871  1
  Sc  Sc62  1  0.29807939  0.89914369  0.10124977  1
  Sc  Sc63  1  0.10512284  0.90719090  0.89839036  1
  Sc  Sc64  1  0.09804396  0.69944183  0.30369332  1
  Sc  Sc65  1  0.90406569  0.89184278  0.30387308  1
  Sc  Sc66  1  0.09798225  0.89981660  0.69570809  1
  Sc  Sc67  1  0.90519932  0.91768621  0.90476277  1
  Sc  Sc68  1  0.91137238  0.10521534  0.69288853  1
  Sc  Sc69  1  0.48764653  0.89539503  0.10554882  1
  Sc  Sc70  1  0.90706854  0.50148398  0.30922003  1
  Sc  Sc71  1  0.30206984  0.10080668  0.29850206  1
  Sc  Sc72  1  0.30692188  0.29231985  0.10016508  1
  Sc  Sc73  1  0.29631529  0.29379512  0.49220810  1
  Sc  Sc74  1  0.89999232  0.70152743  0.11038501  1
  Sc  Sc75  1  0.69757535  0.29896987  0.51895711  1
  Sc  Sc76  1  0.29827358  0.10214521  0.10482188  1
  Sc  Sc77  1  0.10226433  0.09894951  0.10395743  1
  Sc  Sc78  1  0.28999654  0.69152030  0.69947796  1
  Sc  Sc79  1  0.90137896  0.30323630  0.50909059  1
  Sc  Sc80  1  0.69653291  0.10709430  0.10427965  1
  Sc  Sc81  1  0.70205024  0.70132200  0.48806158  1
  Sc  Sc82  1  0.49565484  0.10565429  0.11171151  1
  Sc  Sc83  1  0.10304688  0.49913714  0.68905273  1
  Sc  Sc84  1  0.69146096  0.69569602  0.89471701  1
  Sc  Sc85  1  0.90179574  0.10442660  0.90455919  1
  Sc  Sc86  1  0.50499381  0.30096151  0.10280309  1
  Sc  Sc87  1  0.90828130  0.70272903  0.69642104  1
  Sc  Sc88  1  0.30277593  0.09904335  0.69953691  1
  Sc  Sc89  1  0.91098516  0.90043417  0.49520344  1
  Sc  Sc90  1  0.49899188  0.10552618  0.30449278  1
  Sc  Sc91  1  0.69876410  0.69900677  0.10115526  1
  Sc  Sc92  1  0.09425411  0.50529014  0.10595745  1
  Sc  Sc93  1  0.70317876  0.11538150  0.69435563  1
  Sc  Sc94  1  0.30007617  0.90307934  0.49214197  1
  Sc  Sc95  1  0.48868886  0.50314755  0.49423598  1
  Sc  Sc96  1  0.10213489  0.10065862  0.69887296  1
  Sc  Sc97  1  0.08912842  0.50998847  0.90429655  1
  Sc  Sc98  1  0.10295346  0.10251321  0.89722563  1
  Sc  Sc99  1  0.50488421  0.49980530  0.90186052  1
  Nb  Nb100  1  0.69745382  0.30384384  0.70547125  1
  Nb  Nb101  1  0.49660546  0.89871456  0.50234256  1
  Nb  Nb102  1  0.89892682  0.10025499  0.50045995  1
  Nb  Nb103  1  0.69762090  0.29311912  0.89658461  1
  Nb  Nb104  1  0.70386571  0.89757487  0.30001222  1
  Nb  Nb105  1  0.70311103  0.89993447  0.69604444  1
  Nb  Nb106  1  0.30046747  0.29717356  0.30495353  1
  Nb  Nb107  1  0.49722337  0.09455986  0.69735343  1
  Nb  Nb108  1  0.70389331  0.49925470  0.49883715  1
  Nb  Nb109  1  0.89796250  0.50211424  0.89363454  1
  Nb  Nb110  1  0.89345987  0.50077929  0.70694614  1
  Nb  Nb111  1  0.08436413  0.50001859  0.49099686  1
  Nb  Nb112  1  0.49235122  0.30299967  0.30366661  1
  Nb  Nb113  1  0.50177316  0.70443701  0.50381184  1
  Nb  Nb114  1  0.29509835  0.30828058  0.69768512  1
  Nb  Nb115  1  0.30359471  0.89754353  0.29598504  1
  Nb  Nb116  1  0.50155754  0.49481902  0.29882822  1
  Nb  Nb117  1  0.29719769  0.70395401  0.90131779  1
  Nb  Nb118  1  0.09613537  0.69609185  0.50255028  1
  Nb  Nb119  1  0.89841978  0.90161060  0.09815202  1
  Nb  Nb120  1  0.10044286  0.30330267  0.89958348  1
  Nb  Nb121  1  0.89915220  0.90076622  0.69505091  1
  Nb  Nb122  1  0.90221488  0.49754175  0.50342970  1
  Nb  Nb123  1  0.30208420  0.89492075  0.69494197  1
  Nb  Nb124  1  0.10098464  0.90627084  0.30404555  1
  Nb  Nb125  1  0.80249506  0.20155717  0.40181217  1
  Nb  Nb126  1  0.60364413  0.59712453  0.59507289  1
  Nb  Nb127  1  0.39585275  0.39393037  0.60410529  1
  Nb  Nb128  1  0.20412869  0.39777175  0.20066662  1
  Nb  Nb129  1  0.80168191  0.59196695  0.59654580  1
  Nb  Nb130  1  0.80414408  0.80852409  0.80051949  1
  Nb  Nb131  1  0.79838867  -0.00105163  0.78879782  1
  Nb  Nb132  1  -0.00605959  0.40263294  0.80266130  1
  Nb  Nb133  1  0.60114749  0.80265753  0.20836992  1
  Nb  Nb134  1  0.80783017  0.80012010  -0.00578092  1
  Nb  Nb135  1  -0.00518543  0.80265462  0.00027211  1
  Nb  Nb136  1  0.59115300  0.00314253  -0.00353864  1
  Nb  Nb137  1  0.40213267  0.00178434  -0.00536278  1
  Nb  Nb138  1  0.80030572  -0.00679289  0.20257232  1
  Nb  Nb139  1  0.20594004  0.60303694  -0.00137478  1
  Nb  Nb140  1  0.40235871  0.80014017  0.60006490  1
  Nb  Nb141  1  0.59897993  0.40021406  0.39985710  1
  Nb  Nb142  1  -0.00393998  0.19553703  0.40358314  1
  Nb  Nb143  1  0.79819268  0.59523307  0.20266906  1
  Nb  Nb144  1  0.19779115  0.40285785  0.00153341  1
  Nb  Nb145  1  0.60390213  0.00416610  0.79464072  1
  Nb  Nb146  1  0.40452368  0.59635667  0.20375509  1
  Nb  Nb147  1  0.39486608  0.79929157  0.79422806  1
  Nb  Nb148  1  0.80169609  -0.00111923  0.60008390  1
  Nb  Nb149  1  0.79452172  0.39908365  0.40459746  1
  Pd  Pd150  1  0.80402868  0.18902514  0.20436513  1
  Pd  Pd151  1  0.40344768  0.39057062  0.80199035  1
  Pd  Pd152  1  0.00945719  0.59409707  0.78680512  1
  Pd  Pd153  1  0.19314651  0.59387726  0.80481655  1
  Pd  Pd154  1  0.20718147  -0.00332160  0.20126351  1
  Pd  Pd155  1  0.20246011  0.19603731  0.59932099  1
  Pd  Pd156  1  0.00231164  0.40662436  0.20043187  1
  Pd  Pd157  1  0.59552169  0.19406821  0.60135232  1
  Pd  Pd158  1  0.80679554  0.19491038  0.79768002  1
  Pd  Pd159  1  0.39719642  0.39699543  0.20043541  1
  Pd  Pd160  1  -0.00251111  0.39681467  0.61188693  1
  Pd  Pd161  1  0.40231289  -0.00784555  0.79894301  1
  Pd  Pd162  1  0.60202670  0.80416630  0.79634510  1
  Pd  Pd163  1  0.00690974  0.19414753  0.00091170  1
  Pd  Pd164  1  0.19797066  -0.00156037  0.79122009  1
  Pd  Pd165  1  0.59656017  0.80658831  0.39519597  1
  Pd  Pd166  1  0.39430316  0.20670791  0.79038182  1
  Pd  Pd167  1  0.39744285  0.38823963  -0.00864933  1
  Pd  Pd168  1  0.60062906  -0.00636819  0.19325353  1
  Pd  Pd169  1  0.18982577  0.41234909  0.81193448  1
  Pd  Pd170  1  -0.00464121  0.59742531  0.60522956  1
  Pd  Pd171  1  0.40353654  0.19630917  0.00157707  1
  Pd  Pd172  1  -0.00887498  0.59689121  0.20497903  1
  Pd  Pd173  1  -0.00233575  0.00286694  0.79570730  1
  Pd  Pd174  1  0.20345215  0.00253808  0.39698828  1
  Pd  Pd175  1  0.39806304  0.60594608  0.39833291  1
  Pd  Pd176  1  0.39918542  0.79486680  0.40384387  1
  Pd  Pd177  1  0.40222257  0.60079137  0.60017548  1
  Pd  Pd178  1  0.00611046  0.40153996  -0.00396575  1
  Pd  Pd179  1  0.60539473  0.59568116  -0.00106298  1
  Pd  Pd180  1  0.58550666  0.40679302  0.59001469  1
  Pd  Pd181  1  0.19502741  0.59473183  0.59144769  1
  Pd  Pd182  1  0.00557316  0.20687789  0.59747554  1
  Pd  Pd183  1  0.20820965  0.59282787  0.19608148  1
  Pd  Pd184  1  0.19444277  0.79917911  0.40139220  1
  Pd  Pd185  1  0.00626203  0.61273626  0.00537022  1
  Pd  Pd186  1  -0.00690386  0.81123158  0.80728120  1
  Pd  Pd187  1  0.20402846  0.40533286  0.58721612  1
  Pd  Pd188  1  -0.00015518  0.20936014  0.80019114  1
  Pd  Pd189  1  0.19733462  0.20403607  -0.00080727  1
  Pd  Pd190  1  0.80671347  0.79927534  0.59407288  1
  Pd  Pd191  1  0.19288117  0.80825515  0.20131604  1
  Pd  Pd192  1  0.80010022  -0.00532099  0.40277279  1
  Pd  Pd193  1  0.00537738  0.80690818  0.19960366  1
  Pd  Pd194  1  0.80096054  0.39258007  0.80669937  1
  Pd  Pd195  1  0.20393838  -0.00115987  0.60111108  1
  Pd  Pd196  1  0.80360621  0.40938526  0.21049373  1
  Pd  Pd197  1  0.39433698  0.20395197  0.60602991  1
  Pd  Pd198  1  0.79580547  0.60688945  0.00441573  1
  Pd  Pd199  1  0.60301715  0.80379251  0.00859514  1
  Rh  Rh200  1  0.01166858  0.80085806  0.40017529  1
  Rh  Rh201  1  -0.00983386  0.38859370  0.40213969  1
  Rh  Rh202  1  0.79871358  0.20265471  0.00678267  1
  Rh  Rh203  1  0.59712750  0.79148827  0.59631873  1
  Rh  Rh204  1  0.19341878  0.19245435  0.39972781  1
  Rh  Rh205  1  0.60606913  0.20957347  0.39797833  1
  Rh  Rh206  1  0.80416759  0.40246299  0.59903366  1
  Rh  Rh207  1  0.00841740  0.00151779  -0.00221885  1
  Rh  Rh208  1  0.80028819  0.19651971  0.59446233  1
  Rh  Rh209  1  0.60701027  0.39715197  -0.00547957  1
  Rh  Rh210  1  0.40053049  0.20408838  0.20775192  1
  Rh  Rh211  1  0.59242765  0.20446042  0.20233324  1
  Rh  Rh212  1  0.20474620  0.80067719  0.59569950  1
  Rh  Rh213  1  0.60574435  0.40124940  0.80913094  1
  Rh  Rh214  1  0.60348406  0.19491369  0.79253171  1
  Rh  Rh215  1  0.39721197  0.60435348  0.00533147  1
  Rh  Rh216  1  0.59972213  0.60625152  0.19418899  1
  Rh  Rh217  1  0.79369021  0.80048219  0.19201848  1
  Rh  Rh218  1  0.60936996  0.01101260  0.60452880  1
  Rh  Rh219  1  -0.00578468  -0.00793034  0.20386268  1
  Rh  Rh220  1  -0.00602178  0.19434799  0.20326342  1
  Rh  Rh221  1  0.59420359  0.59276491  0.41325153  1
  Rh  Rh222  1  0.59531351  -0.00745110  0.39874956  1
  Rh  Rh223  1  0.39659423  0.60968583  0.79719935  1
  Rh  Rh224  1  0.81130028  0.59350647  0.40159616  1
  Rh  Rh225  1  0.20470851  0.80483294  0.78985957  1
  Rh  Rh226  1  0.39526141  0.00189724  0.39937832  1
  Rh  Rh227  1  0.59785190  0.19662749  0.00584910  1
  Rh  Rh228  1  -0.00338333  -0.00241405  0.60026467  1
  Rh  Rh229  1  0.00682384  0.00043692  0.40103464  1
  Rh  Rh230  1  0.39590869  0.19342313  0.39667579  1
  Rh  Rh231  1  0.79377445  0.39638712  -0.00598872  1
  Rh  Rh232  1  0.79151378  0.00112464  0.00835373  1
  Rh  Rh233  1  0.59588515  0.39296306  0.20630916  1
  Rh  Rh234  1  0.19205113  0.60301931  0.40548876  1
  Rh  Rh235  1  -0.00005839  0.60554233  0.39769617  1
  Rh  Rh236  1  0.40826928  0.79020795  0.21675318  1
  Rh  Rh237  1  0.39390711  0.00135783  0.19645745  1
  Rh  Rh238  1  0.20720255  0.00757494  0.00215468  1
  Rh  Rh239  1  0.00214016  0.80238716  0.59447607  1
  Rh  Rh240  1  0.39296344  -0.00574361  0.59612324  1
  Rh  Rh241  1  0.80322644  0.80868078  0.40942347  1
  Rh  Rh242  1  0.20665331  0.20777955  0.20223626  1
  Rh  Rh243  1  0.20258558  0.40149115  0.40028099  1
  Rh  Rh244  1  0.60733888  0.59254801  0.79577942  1
  Rh  Rh245  1  0.18784137  0.79414260  0.00847152  1
  Rh  Rh246  1  0.39901429  0.80639844  -0.01024245  1
  Rh  Rh247  1  0.79636381  0.60689277  0.79058314  1
  Rh  Rh248  1  0.20160782  0.19720055  0.79736570  1
  Rh  Rh249  1  0.40279886  0.39451106  0.40862183  1
