# generated using pymatgen
data_ZrScNbPdRh
_symmetry_space_group_name_H-M   'P 1'
_cell_length_a   16.55489765
_cell_length_b   16.55748429
_cell_length_c   16.55813479
_cell_angle_alpha   90.01078440
_cell_angle_beta   90.01708687
_cell_angle_gamma   90.01427506
_symmetry_Int_Tables_number   1
_chemical_formula_structural   ZrScNbPdRh
_chemical_formula_sum   'Zr50 Sc50 Nb50 Pd50 Rh50'
_cell_volume   4538.70781011
_cell_formula_units_Z   50
loop_
 _symmetry_equiv_pos_site_id
 _symmetry_equiv_pos_as_xyz
  1  'x, y, z'
loop_
 _atom_site_type_symbol
 _atom_site_label
 _atom_site_symmetry_multiplicity
 _atom_site_fract_x
 _atom_site_fract_y
 _atom_site_fract_z
 _atom_site_occupancy
  Zr  Zr0  1  0.49338040  0.70519920  0.89758875  1
  Zr  Zr1  1  0.50056547  0.29968551  0.50141894  1
  Zr  Zr2  1  0.28659894  0.10567174  0.09925932  1
  Zr  Zr3  1  0.90418087  0.51476858  0.49752489  1
  Zr  Zr4  1  0.69560435  0.89952967  0.90085403  1
  Zr  Zr5  1  0.49707464  0.50560456  0.29593469  1
  Zr  Zr6  1  0.70015307  0.50917481  0.69518483  1
  Zr  Zr7  1  0.30470312  0.29873974  0.90882285  1
  Zr  Zr8  1  0.09118940  0.30586748  0.89620473  1
  Zr  Zr9  1  0.29383248  0.29803716  0.29405581  1
  Zr  Zr10  1  0.70022308  0.09754519  0.28523369  1
  Zr  Zr11  1  0.89697619  0.90020445  0.49651030  1
  Zr  Zr12  1  0.09727719  0.69983713  0.89274424  1
  Zr  Zr13  1  0.90085952  0.69610694  0.09557190  1
  Zr  Zr14  1  0.50515590  0.50275142  0.49864674  1
  Zr  Zr15  1  0.29952843  0.69437116  0.09867686  1
  Zr  Zr16  1  0.71018014  0.69148294  0.50369249  1
  Zr  Zr17  1  0.29977871  0.09825438  0.50650931  1
  Zr  Zr18  1  0.29933176  0.10787580  0.30119566  1
  Zr  Zr19  1  0.90242185  0.49331037  0.90675204  1
  Zr  Zr20  1  0.69954131  0.50776475  0.29747230  1
  Zr  Zr21  1  0.29793728  0.49699364  0.10944837  1
  Zr  Zr22  1  0.90217544  0.29499363  0.49975099  1
  Zr  Zr23  1  0.71253516  0.90188707  0.29661787  1
  Zr  Zr24  1  0.29898067  0.10156666  0.70151679  1
  Zr  Zr25  1  0.50199398  0.89836446  0.70283048  1
  Zr  Zr26  1  0.49544112  0.49874434  0.10081856  1
  Zr  Zr27  1  0.51136697  0.89643666  0.31255976  1
  Zr  Zr28  1  0.10484236  0.09986839  0.70394724  1
  Zr  Zr29  1  0.29778917  0.09851890  0.89772424  1
  Zr  Zr30  1  0.90117103  0.89263768  0.10938367  1
  Zr  Zr31  1  0.10122982  0.30318712  0.69714652  1
  Zr  Zr32  1  0.09882353  0.90551473  0.89702064  1
  Zr  Zr33  1  0.50834440  0.10396331  0.10208440  1
  Zr  Zr34  1  0.09164865  0.90388646  0.29095652  1
  Zr  Zr35  1  0.70212229  0.50106145  0.49881336  1
  Zr  Zr36  1  0.68749109  0.89325086  0.49600628  1
  Zr  Zr37  1  0.69801785  0.29809975  0.29523259  1
  Zr  Zr38  1  0.88808050  0.10309541  0.70037035  1
  Zr  Zr39  1  0.09560476  0.69185780  0.50796405  1
  Zr  Zr40  1  0.69488314  0.29884500  0.50632956  1
  Zr  Zr41  1  0.50336401  0.89852892  0.08339617  1
  Zr  Zr42  1  0.30255687  0.70470928  0.49141622  1
  Zr  Zr43  1  0.10930472  0.50232181  0.69677711  1
  Zr  Zr44  1  0.49891021  0.10449470  0.30020311  1
  Zr  Zr45  1  0.49024295  0.89704933  0.50745631  1
  Zr  Zr46  1  0.90494039  0.10743950  0.91273573  1
  Zr  Zr47  1  0.50054396  0.48618591  0.90045147  1
  Zr  Zr48  1  0.90578327  0.29377005  0.70583550  1
  Zr  Zr49  1  0.90050885  0.90020883  0.70052934  1
  Sc  Sc50  1  0.90298385  0.28959878  0.28707710  1
  Sc  Sc51  1  0.29242758  0.28534766  0.49429555  1
  Sc  Sc52  1  0.09733643  0.09731061  0.28668627  1
  Sc  Sc53  1  0.11095982  0.70883539  0.29148110  1
  Sc  Sc54  1  0.50091886  0.09861593  0.70244590  1
  Sc  Sc55  1  0.50907455  0.29683071  0.70405927  1
  Sc  Sc56  1  0.30186361  0.69395696  0.29782727  1
  Sc  Sc57  1  0.69572130  0.49701872  0.90196473  1
  Sc  Sc58  1  0.49772873  0.70025463  0.09307386  1
  Sc  Sc59  1  0.49695315  0.29938193  0.09194409  1
  Sc  Sc60  1  0.09276192  0.89661775  0.70641112  1
  Sc  Sc61  1  0.28794167  0.88665571  0.29733967  1
  Sc  Sc62  1  0.50230112  0.71270515  0.49478183  1
  Sc  Sc63  1  0.10465118  0.10415713  0.50333906  1
  Sc  Sc64  1  0.70181029  0.09636650  0.89865965  1
  Sc  Sc65  1  0.50343589  0.50341402  0.70825737  1
  Sc  Sc66  1  0.69929002  0.70548766  0.90120587  1
  Sc  Sc67  1  0.89554895  0.50309788  0.08868253  1
  Sc  Sc68  1  0.90985926  0.70248955  0.69925964  1
  Sc  Sc69  1  0.29231300  0.49815379  0.70565372  1
  Sc  Sc70  1  0.69674960  0.29095351  0.09374359  1
  Sc  Sc71  1  0.11112165  0.29561576  0.10443088  1
  Sc  Sc72  1  0.10120901  0.90151645  0.10359384  1
  Sc  Sc73  1  0.49834231  0.90364686  0.89532544  1
  Sc  Sc74  1  0.09085172  0.90515115  0.50373983  1
  Sc  Sc75  1  0.09735812  0.49896151  0.90168620  1
  Sc  Sc76  1  0.90403672  0.50402222  0.30685314  1
  Sc  Sc77  1  0.10646204  0.49519074  0.31434616  1
  Sc  Sc78  1  0.70194944  0.69588884  0.29440642  1
  Sc  Sc79  1  0.30817839  0.90587822  0.89430295  1
  Sc  Sc80  1  0.29774863  0.49799125  0.90287812  1
  Sc  Sc81  1  0.89834171  0.29379492  0.09015743  1
  Sc  Sc82  1  0.30809723  0.90857342  0.70030706  1
  Sc  Sc83  1  0.70682051  0.69478739  0.10317619  1
  Sc  Sc84  1  0.29130735  0.30061864  0.70470694  1
  Sc  Sc85  1  0.10417979  0.09826154  0.90811244  1
  Sc  Sc86  1  0.89140908  0.70307718  0.29369048  1
  Sc  Sc87  1  0.29577065  0.90720054  0.09132753  1
  Sc  Sc88  1  0.70385317  0.50417345  0.09456447  1
  Sc  Sc89  1  0.29431089  0.69550148  0.71194020  1
  Sc  Sc90  1  0.49015134  0.29564304  0.29017779  1
  Sc  Sc91  1  0.70012041  0.09802812  0.51290688  1
  Sc  Sc92  1  0.09951111  0.70020407  0.70367677  1
  Sc  Sc93  1  0.69461066  0.70076202  0.70535328  1
  Sc  Sc94  1  0.10249969  0.70208057  0.10085693  1
  Sc  Sc95  1  0.49478031  0.10368159  0.50747891  1
  Sc  Sc96  1  0.49971661  0.69577741  0.29987491  1
  Sc  Sc97  1  0.90620773  0.50045251  0.69983894  1
  Sc  Sc98  1  0.89935848  0.89256434  0.90181183  1
  Sc  Sc99  1  0.90379290  0.09069986  0.50219958  1
  Nb  Nb100  1  0.30186139  0.30085453  0.10516482  1
  Nb  Nb101  1  0.90066807  0.09313037  0.29629311  1
  Nb  Nb102  1  0.10156647  0.50371675  0.10424374  1
  Nb  Nb103  1  0.69389238  0.30741234  0.89866185  1
  Nb  Nb104  1  0.10090244  0.49826696  0.50251023  1
  Nb  Nb105  1  0.09621348  0.29918919  0.30684662  1
  Nb  Nb106  1  0.89854345  0.30717956  0.89802730  1
  Nb  Nb107  1  0.69821502  0.90561485  0.09650968  1
  Nb  Nb108  1  0.09905331  0.09539389  0.09925116  1
  Nb  Nb109  1  0.09843781  0.30408035  0.48827479  1
  Nb  Nb110  1  0.90271920  0.70284018  0.50506202  1
  Nb  Nb111  1  0.70010115  0.09881936  0.70389917  1
  Nb  Nb112  1  0.70815843  0.28417333  0.69901198  1
  Nb  Nb113  1  0.90039051  0.10732239  0.10883972  1
  Nb  Nb114  1  0.30094322  0.89874230  0.49899782  1
  Nb  Nb115  1  0.49410136  0.69772498  0.70605206  1
  Nb  Nb116  1  0.49451432  0.10738093  0.89606691  1
  Nb  Nb117  1  0.70088691  0.91004358  0.70638778  1
  Nb  Nb118  1  0.30783227  0.50241158  0.30266794  1
  Nb  Nb119  1  0.70768604  0.09176365  0.10020289  1
  Nb  Nb120  1  0.29891663  0.70386267  0.90091173  1
  Nb  Nb121  1  0.29576367  0.50939749  0.49985597  1
  Nb  Nb122  1  0.90124867  0.68997359  0.90556353  1
  Nb  Nb123  1  0.50828295  0.30124427  0.90534247  1
  Nb  Nb124  1  0.90394928  0.90559477  0.30317033  1
  Nb  Nb125  1  -0.00199902  0.19659683  0.39344441  1
  Nb  Nb126  1  0.80052965  0.19673656  0.39625856  1
  Nb  Nb127  1  0.79759133  0.39518209  0.79721052  1
  Nb  Nb128  1  0.60240108  0.40313849  0.19751472  1
  Nb  Nb129  1  0.00393139  0.40184717  0.58989729  1
  Nb  Nb130  1  0.80464758  0.59734246  0.80591748  1
  Nb  Nb131  1  0.60438974  0.19929856  0.39866344  1
  Nb  Nb132  1  0.40643888  0.80831221  0.19600169  1
  Nb  Nb133  1  0.20315067  -0.00225117  0.40060841  1
  Nb  Nb134  1  -0.00688016  0.80144742  0.39856840  1
  Nb  Nb135  1  0.00569433  0.59338044  0.19726892  1
  Nb  Nb136  1  0.20303468  0.79777043  -0.01007961  1
  Nb  Nb137  1  0.59389110  0.59899920  -0.00515610  1
  Nb  Nb138  1  0.80108692  0.39508891  0.40019220  1
  Nb  Nb139  1  0.39785485  0.59902158  0.59893250  1
  Nb  Nb140  1  0.20325355  0.80201597  0.59716249  1
  Nb  Nb141  1  0.40178373  -0.00394988  0.20350231  1
  Nb  Nb142  1  0.00195153  0.40303227  0.19950691  1
  Nb  Nb143  1  0.39518121  0.40660891  0.59291411  1
  Nb  Nb144  1  0.80346344  0.39650825  0.60173670  1
  Nb  Nb145  1  0.60147620  0.80600782  0.19397499  1
  Nb  Nb146  1  0.79811339  0.80371277  0.60279970  1
  Nb  Nb147  1  0.80097052  0.39995555  0.20092525  1
  Nb  Nb148  1  0.39389351  0.40545872  0.40241783  1
  Nb  Nb149  1  0.39303552  -0.00424077  0.39813088  1
  Pd  Pd150  1  0.79701609  0.20320112  0.81472315  1
  Pd  Pd151  1  0.59380403  -0.00772991  0.19757439  1
  Pd  Pd152  1  0.21053482  0.40016221  0.40352869  1
  Pd  Pd153  1  0.00634649  0.61536921  0.38623540  1
  Pd  Pd154  1  0.00917156  0.79893492  -0.00120013  1
  Pd  Pd155  1  0.59611896  0.01187065  0.40959580  1
  Pd  Pd156  1  0.59663400  0.00223202  0.60334250  1
  Pd  Pd157  1  -0.00445617  -0.00303005  0.00843648  1
  Pd  Pd158  1  0.79651002  0.79896672  0.00420440  1
  Pd  Pd159  1  0.00253637  0.00432898  0.60614240  1
  Pd  Pd160  1  0.00441659  0.19166632  0.80445165  1
  Pd  Pd161  1  0.60092218  0.19474072  0.80349727  1
  Pd  Pd162  1  0.60665254  0.19402326  -0.00501973  1
  Pd  Pd163  1  0.40179474  0.59403062  -0.00609574  1
  Pd  Pd164  1  0.40251729  0.20920735  0.79771052  1
  Pd  Pd165  1  0.00671709  0.20046345  0.59438406  1
  Pd  Pd166  1  0.58780188  0.61129943  0.60022615  1
  Pd  Pd167  1  0.19566331  0.60404557  0.39561629  1
  Pd  Pd168  1  0.20606448  0.81030519  0.79646666  1
  Pd  Pd169  1  0.39927919  0.01053928  0.00376548  1
  Pd  Pd170  1  0.20354176  0.39394554  0.58837968  1
  Pd  Pd171  1  0.00923495  0.20540614  0.00669854  1
  Pd  Pd172  1  0.60503845  0.79560787  0.60771141  1
  Pd  Pd173  1  0.59534059  0.39401657  0.38877581  1
  Pd  Pd174  1  0.59659328  0.01029546  -0.01044247  1
  Pd  Pd175  1  0.19689195  -0.00957383  0.60120563  1
  Pd  Pd176  1  0.39626371  0.59465454  0.80035580  1
  Pd  Pd177  1  0.60114155  0.39927428  0.61133106  1
  Pd  Pd178  1  0.19440117  0.60273946  -0.00478875  1
  Pd  Pd179  1  0.39754314  0.21104850  0.61003416  1
  Pd  Pd180  1  0.80672389  0.00140756  0.80968067  1
  Pd  Pd181  1  0.59803822  0.79915546  0.79853591  1
  Pd  Pd182  1  -0.00796691  0.00753051  0.80172868  1
  Pd  Pd183  1  -0.00211953  0.59473713  0.79855142  1
  Pd  Pd184  1  0.39873608  0.39286753  0.79280706  1
  Pd  Pd185  1  0.79308415  0.20237673  -0.00552709  1
  Pd  Pd186  1  0.80143725  0.79387671  0.40266982  1
  Pd  Pd187  1  0.79495550  -0.00759610  0.59840056  1
  Pd  Pd188  1  0.19378599  0.40379058  0.20747755  1
  Pd  Pd189  1  0.80854113  -0.00350674  0.00260572  1
  Pd  Pd190  1  0.00506042  0.39587577  0.01347856  1
  Pd  Pd191  1  0.19883329  0.39786956  0.00014923  1
  Pd  Pd192  1  0.59931619  0.60950936  0.40142564  1
  Pd  Pd193  1  0.19583702  0.20361467  0.80857139  1
  Pd  Pd194  1  0.39985528  0.19625931  0.00354117  1
  Pd  Pd195  1  0.60858048  0.39757020  0.78995251  1
  Pd  Pd196  1  0.79355828  0.00939537  0.40404370  1
  Pd  Pd197  1  0.18480070  0.80722552  0.40907740  1
  Pd  Pd198  1  0.80518579  0.79131780  0.79493584  1
  Pd  Pd199  1  0.39016633  0.78930428  0.61190309  1
  Rh  Rh200  1  0.79468597  0.39130621  -0.00187744  1
  Rh  Rh201  1  0.40624871  0.00658975  0.79954596  1
  Rh  Rh202  1  0.38740428  0.80165407  0.00264544  1
  Rh  Rh203  1  0.20683205  0.00059776  0.20396906  1
  Rh  Rh204  1  0.19687329  0.20488161  -0.00177224  1
  Rh  Rh205  1  0.18517745  0.18915445  0.39336134  1
  Rh  Rh206  1  0.39493283  0.39728970  0.00368448  1
  Rh  Rh207  1  0.20097381  -0.00138212  0.79782477  1
  Rh  Rh208  1  0.61118952  0.79132050  0.00787142  1
  Rh  Rh209  1  0.40208971  0.39789478  0.20221041  1
  Rh  Rh210  1  -0.00788231  0.39124774  0.39805461  1
  Rh  Rh211  1  0.59768910  0.00425224  0.80272718  1
  Rh  Rh212  1  0.00107505  0.80185190  0.59504538  1
  Rh  Rh213  1  0.19471373  0.20565334  0.60004930  1
  Rh  Rh214  1  0.80240896  0.60059777  0.39649100  1
  Rh  Rh215  1  0.40217176  0.59805494  0.40614157  1
  Rh  Rh216  1  0.79462748  0.80338542  0.19482907  1
  Rh  Rh217  1  0.61303942  0.79043291  0.38984263  1
  Rh  Rh218  1  -0.00454065  0.79047176  0.20712083  1
  Rh  Rh219  1  0.39828228  0.80485742  0.38715951  1
  Rh  Rh220  1  0.21056354  0.80212160  0.18225836  1
  Rh  Rh221  1  0.20011784  0.39870250  0.81132934  1
  Rh  Rh222  1  0.39989776  0.60923288  0.19932881  1
  Rh  Rh223  1  0.60120540  0.19302506  0.60284700  1
  Rh  Rh224  1  0.20772179  0.61072599  0.60023263  1
  Rh  Rh225  1  0.00143783  0.59396261  0.60632922  1
  Rh  Rh226  1  0.40159913  0.00211854  0.59933701  1
  Rh  Rh227  1  -0.00115012  0.40475921  0.79151642  1
  Rh  Rh228  1  0.60184862  0.20482633  0.19642637  1
  Rh  Rh229  1  0.80881948  -0.00162569  0.19209938  1
  Rh  Rh230  1  0.00969406  0.00276131  0.39605098  1
  Rh  Rh231  1  0.80860896  0.60667741  0.61321413  1
  Rh  Rh232  1  0.79966903  0.19998795  0.19766739  1
  Rh  Rh233  1  -0.00647289  0.00392045  0.19070579  1
  Rh  Rh234  1  0.19644905  -0.00595152  -0.00374612  1
  Rh  Rh235  1  0.60290181  0.60536740  0.80998027  1
  Rh  Rh236  1  0.59377612  0.60327246  0.18553971  1
  Rh  Rh237  1  0.80043238  0.19710717  0.59554937  1
  Rh  Rh238  1  0.39572463  0.19530890  0.18755683  1
  Rh  Rh239  1  0.39715391  0.80109320  0.79776305  1
  Rh  Rh240  1  0.81418835  0.59008908  0.20073603  1
  Rh  Rh241  1  0.00529177  0.20152713  0.19712754  1
  Rh  Rh242  1  0.19961270  0.59531069  0.80732280  1
  Rh  Rh243  1  -0.00757950  0.79767245  0.80650369  1
  Rh  Rh244  1  0.19625128  0.59217883  0.20826123  1
  Rh  Rh245  1  0.00835413  0.60131860  0.00662512  1
  Rh  Rh246  1  0.40933214  0.20302242  0.40376768  1
  Rh  Rh247  1  0.78908642  0.60241364  -0.01151215  1
  Rh  Rh248  1  0.19391568  0.20033411  0.20113160  1
  Rh  Rh249  1  0.60145697  0.40458992  0.00905303  1
