# generated using pymatgen
data_ZrScNbPdRh
_symmetry_space_group_name_H-M   'P 1'
_cell_length_a   16.55821929
_cell_length_b   16.55773363
_cell_length_c   16.55842740
_cell_angle_alpha   89.98633592
_cell_angle_beta   90.00036021
_cell_angle_gamma   89.98831191
_symmetry_Int_Tables_number   1
_chemical_formula_structural   ZrScNbPdRh
_chemical_formula_sum   'Zr50 Sc50 Nb50 Pd50 Rh50'
_cell_volume   4539.76726056
_cell_formula_units_Z   50
loop_
 _symmetry_equiv_pos_site_id
 _symmetry_equiv_pos_as_xyz
  1  'x, y, z'
loop_
 _atom_site_type_symbol
 _atom_site_label
 _atom_site_symmetry_multiplicity
 _atom_site_fract_x
 _atom_site_fract_y
 _atom_site_fract_z
 _atom_site_occupancy
  Zr  Zr0  1  0.09489601  0.90849667  0.10174067  1
  Zr  Zr1  1  0.70195890  0.29778062  0.28877896  1
  Zr  Zr2  1  0.49495385  0.30440415  0.51092975  1
  Zr  Zr3  1  0.30926981  0.29506882  0.90230562  1
  Zr  Zr4  1  0.09906058  0.08837259  0.70252569  1
  Zr  Zr5  1  0.50951385  0.89857735  0.50627999  1
  Zr  Zr6  1  0.90283749  0.69245379  0.50314003  1
  Zr  Zr7  1  0.51021181  0.89523853  0.70869846  1
  Zr  Zr8  1  0.09846613  0.30205450  0.10481532  1
  Zr  Zr9  1  0.30130352  0.30603611  0.69599999  1
  Zr  Zr10  1  0.30639320  0.70093976  0.10478921  1
  Zr  Zr11  1  0.70200794  0.90164465  0.69502250  1
  Zr  Zr12  1  0.49711529  0.30974206  0.09487940  1
  Zr  Zr13  1  0.89391218  0.29952626  0.10392186  1
  Zr  Zr14  1  0.09130246  0.69407207  0.90928602  1
  Zr  Zr15  1  0.30171254  0.09384691  0.69855899  1
  Zr  Zr16  1  0.70389619  0.10302233  0.69661318  1
  Zr  Zr17  1  0.29642911  0.89432349  0.70502175  1
  Zr  Zr18  1  0.89637288  0.89838129  0.29966423  1
  Zr  Zr19  1  0.50159590  0.69780503  0.70830053  1
  Zr  Zr20  1  0.30744756  0.09942825  0.50372172  1
  Zr  Zr21  1  0.49699859  0.29783205  0.70477902  1
  Zr  Zr22  1  0.51020505  0.90575724  0.09229496  1
  Zr  Zr23  1  0.49796325  0.09201992  0.50059306  1
  Zr  Zr24  1  0.49853920  0.10306297  0.70078999  1
  Zr  Zr25  1  0.31489062  0.09912284  0.30275365  1
  Zr  Zr26  1  0.49944620  0.30057263  0.29392120  1
  Zr  Zr27  1  0.91304218  0.29632853  0.49294096  1
  Zr  Zr28  1  0.49981944  0.49859677  0.30254858  1
  Zr  Zr29  1  0.10250607  0.90009459  0.70916500  1
  Zr  Zr30  1  0.09937830  0.49963239  0.90048797  1
  Zr  Zr31  1  0.49695606  0.49416463  0.68776829  1
  Zr  Zr32  1  0.30058692  0.69196015  0.50467473  1
  Zr  Zr33  1  0.89139959  0.29079565  0.89854741  1
  Zr  Zr34  1  0.90694268  0.09626455  0.09118125  1
  Zr  Zr35  1  0.30793598  0.30496596  0.29792553  1
  Zr  Zr36  1  0.70247685  0.70968368  0.50053626  1
  Zr  Zr37  1  0.29759702  0.50218873  0.69460528  1
  Zr  Zr38  1  0.69183063  0.30147989  0.09302007  1
  Zr  Zr39  1  0.29880388  0.89539368  0.89527144  1
  Zr  Zr40  1  0.70778475  0.90336182  0.09890818  1
  Zr  Zr41  1  0.10067614  0.48767846  0.70405132  1
  Zr  Zr42  1  0.70460959  0.70290236  0.10101311  1
  Zr  Zr43  1  0.89243195  0.69072680  0.70068508  1
  Zr  Zr44  1  0.09557144  0.90211586  0.29989786  1
  Zr  Zr45  1  0.09429451  0.50563360  0.28616247  1
  Zr  Zr46  1  0.90117151  0.51057310  0.88264558  1
  Zr  Zr47  1  0.69972785  0.70687616  0.70208219  1
  Zr  Zr48  1  0.09988895  0.09600500  0.90071621  1
  Zr  Zr49  1  0.09829965  0.68457792  0.10597522  1
  Sc  Sc50  1  0.30950143  0.91037586  0.10429050  1
  Sc  Sc51  1  0.31276174  0.90864794  0.50294199  1
  Sc  Sc52  1  0.88909886  0.89299110  0.49893649  1
  Sc  Sc53  1  0.50718272  0.69707533  0.09198359  1
  Sc  Sc54  1  0.69727726  0.50552902  0.69487434  1
  Sc  Sc55  1  0.09221514  0.31010181  0.30736116  1
  Sc  Sc56  1  0.29770923  0.49961957  0.30313342  1
  Sc  Sc57  1  0.10516607  0.70244940  0.68776968  1
  Sc  Sc58  1  0.70314515  0.50497763  0.29730497  1
  Sc  Sc59  1  0.89809663  0.09022611  0.69813398  1
  Sc  Sc60  1  0.70210206  0.11313426  0.89363879  1
  Sc  Sc61  1  0.90376957  0.30318772  0.29611873  1
  Sc  Sc62  1  0.10239462  0.90303337  0.89602225  1
  Sc  Sc63  1  0.29922735  0.69526195  0.89153826  1
  Sc  Sc64  1  0.70245346  0.69970350  0.30666086  1
  Sc  Sc65  1  0.10245206  0.09939616  0.09518630  1
  Sc  Sc66  1  0.49770773  0.50444239  0.91089046  1
  Sc  Sc67  1  0.89738085  0.30830726  0.68637707  1
  Sc  Sc68  1  0.09457965  0.69576280  0.50057267  1
  Sc  Sc69  1  0.69301142  0.50531851  0.09926195  1
  Sc  Sc70  1  0.89516735  0.70459434  0.08889863  1
  Sc  Sc71  1  0.30940819  0.70087717  0.30188544  1
  Sc  Sc72  1  0.89184498  0.90059605  0.70618275  1
  Sc  Sc73  1  0.89533277  0.50126446  0.11411672  1
  Sc  Sc74  1  0.09519735  0.10013417  0.29272426  1
  Sc  Sc75  1  0.70519197  0.68974780  0.89797248  1
  Sc  Sc76  1  0.08940583  0.69310300  0.30707627  1
  Sc  Sc77  1  0.90241119  0.49837234  0.30648361  1
  Sc  Sc78  1  0.89780301  0.10339207  0.29659279  1
  Sc  Sc79  1  0.10223185  0.30412149  0.89470232  1
  Sc  Sc80  1  0.09249789  0.10499231  0.50983095  1
  Sc  Sc81  1  0.50379345  0.69380019  0.49207512  1
  Sc  Sc82  1  0.50292568  0.09823620  0.09639948  1
  Sc  Sc83  1  0.89704444  0.70061902  0.30802768  1
  Sc  Sc84  1  0.69235475  0.09938287  0.10683289  1
  Sc  Sc85  1  0.69483814  0.50822045  0.50508279  1
  Sc  Sc86  1  0.70782218  0.90773994  0.30184527  1
  Sc  Sc87  1  0.49764468  0.90319562  0.29694028  1
  Sc  Sc88  1  0.50132966  0.70559273  0.30386248  1
  Sc  Sc89  1  0.30358146  0.10503827  0.91282744  1
  Sc  Sc90  1  0.70182234  0.29785876  0.52276464  1
  Sc  Sc91  1  0.30285973  0.50195486  0.49885231  1
  Sc  Sc92  1  0.29680824  0.50146920  0.89385016  1
  Sc  Sc93  1  0.69750137  0.90792740  0.89851903  1
  Sc  Sc94  1  0.29826476  0.69633847  0.70222922  1
  Sc  Sc95  1  0.09872353  0.50213628  0.49164988  1
  Sc  Sc96  1  0.31053054  0.89956984  0.29497651  1
  Sc  Sc97  1  0.89154121  0.90521782  0.90366304  1
  Sc  Sc98  1  0.08905914  0.88946433  0.50704395  1
  Sc  Sc99  1  0.29698254  0.50126401  0.10252337  1
  Nb  Nb100  1  0.50498510  0.29215298  0.90302647  1
  Nb  Nb101  1  0.89886233  0.50097001  0.68919825  1
  Nb  Nb102  1  0.50002283  0.10153648  0.90259153  1
  Nb  Nb103  1  0.90148343  0.10271900  0.89052466  1
  Nb  Nb104  1  0.29398781  0.29664372  0.49711658  1
  Nb  Nb105  1  0.49709060  0.50313533  0.10118406  1
  Nb  Nb106  1  0.70132561  0.49164274  0.89939402  1
  Nb  Nb107  1  0.10403893  0.29478523  0.69768641  1
  Nb  Nb108  1  0.89683863  0.09900728  0.49444545  1
  Nb  Nb109  1  0.69661706  0.29706611  0.70946264  1
  Nb  Nb110  1  0.70404097  0.08961803  0.49750419  1
  Nb  Nb111  1  0.51104578  0.10309155  0.29984010  1
  Nb  Nb112  1  0.49981595  0.90683549  0.90476786  1
  Nb  Nb113  1  0.89857008  0.70056473  0.89136839  1
  Nb  Nb114  1  0.09713687  0.49967251  0.10036166  1
  Nb  Nb115  1  0.29949062  0.29441493  0.09647825  1
  Nb  Nb116  1  0.70094039  0.90552130  0.50437799  1
  Nb  Nb117  1  0.89600883  0.49333099  0.51340481  1
  Nb  Nb118  1  0.10180049  0.29246536  0.49984618  1
  Nb  Nb119  1  0.89454204  0.89878159  0.10427143  1
  Nb  Nb120  1  0.49348775  0.70638019  0.89919517  1
  Nb  Nb121  1  0.50183529  0.50048007  0.49904012  1
  Nb  Nb122  1  0.29827559  0.11056186  0.09752740  1
  Nb  Nb123  1  0.69712847  0.30050145  0.89816741  1
  Nb  Nb124  1  0.69142013  0.10265034  0.30463663  1
  Nb  Nb125  1  0.60090274  0.39490895  0.80495132  1
  Nb  Nb126  1  0.20128322  0.19956131  0.39979907  1
  Nb  Nb127  1  0.79533913  0.39372855  0.40815558  1
  Nb  Nb128  1  0.60673580  0.80447598  0.19415721  1
  Nb  Nb129  1  0.19807674  0.20043094  0.79424321  1
  Nb  Nb130  1  0.19559233  0.39937392  0.00467358  1
  Nb  Nb131  1  0.40166950  0.80143729  -0.00613918  1
  Nb  Nb132  1  0.19300172  0.79947489  0.20029856  1
  Nb  Nb133  1  -0.00225177  0.80265525  0.19389674  1
  Nb  Nb134  1  0.20053581  0.80548083  0.39698220  1
  Nb  Nb135  1  0.20882919  0.20210551  0.20270927  1
  Nb  Nb136  1  0.79171370  0.19841234  0.40375530  1
  Nb  Nb137  1  0.19609261  0.00135481  0.40095714  1
  Nb  Nb138  1  0.40732721  0.59655700  0.19747915  1
  Nb  Nb139  1  0.40618123  -0.00064605  0.80744928  1
  Nb  Nb140  1  0.20055230  0.79790584  0.00813571  1
  Nb  Nb141  1  -0.00428987  0.40386292  0.00037073  1
  Nb  Nb142  1  0.00219096  0.19932256  0.79432154  1
  Nb  Nb143  1  0.60358290  0.20027075  0.40315934  1
  Nb  Nb144  1  0.60381838  0.39411676  0.40472156  1
  Nb  Nb145  1  -0.00257636  0.00164210  0.40262356  1
  Nb  Nb146  1  0.79975902  0.40152307  -0.00744856  1
  Nb  Nb147  1  0.79361273  0.39916825  0.79828573  1
  Nb  Nb148  1  0.40595617  0.79694853  0.60540454  1
  Nb  Nb149  1  -0.00559018  0.79373958  0.80410092  1
  Pd  Pd150  1  0.40344362  0.40230017  0.40655870  1
  Pd  Pd151  1  0.60888972  0.79808441  0.81445291  1
  Pd  Pd152  1  0.59583466  0.60993731  0.20497695  1
  Pd  Pd153  1  0.00529304  0.20103365  0.20230370  1
  Pd  Pd154  1  0.40499895  0.19654773  0.19176558  1
  Pd  Pd155  1  0.80492896  0.59109178  -0.00037569  1
  Pd  Pd156  1  0.59695270  0.59028433  0.80612568  1
  Pd  Pd157  1  0.80451084  0.60643603  0.20362666  1
  Pd  Pd158  1  0.40432856  0.59090840  0.79957033  1
  Pd  Pd159  1  -0.01033621  -0.00922479  0.59403626  1
  Pd  Pd160  1  0.20746321  0.00486147  0.20623378  1
  Pd  Pd161  1  0.59855181  -0.00393310  0.39677804  1
  Pd  Pd162  1  0.60690016  0.80950096  0.39027710  1
  Pd  Pd163  1  0.79478448  0.01282168  -0.00430748  1
  Pd  Pd164  1  0.60391949  0.40684424  0.20130103  1
  Pd  Pd165  1  0.40862214  0.00801537  0.19567307  1
  Pd  Pd166  1  0.01243400  0.40055564  0.59269406  1
  Pd  Pd167  1  0.60351622  0.79651143  -0.00480641  1
  Pd  Pd168  1  0.20459769  0.39641221  0.19689845  1
  Pd  Pd169  1  0.20078430  0.60710408  0.39407290  1
  Pd  Pd170  1  0.40758540  0.40666631  0.80697527  1
  Pd  Pd171  1  -0.00689370  0.19670504  0.60921793  1
  Pd  Pd172  1  0.79668750  0.79968235  -0.01131503  1
  Pd  Pd173  1  0.79282099  0.19514051  0.00618275  1
  Pd  Pd174  1  0.20732214  -0.00551327  0.00108486  1
  Pd  Pd175  1  0.80129265  0.01139981  0.20085689  1
  Pd  Pd176  1  0.40574754  0.20297284  0.40524018  1
  Pd  Pd177  1  0.79999343  0.19264381  0.19895129  1
  Pd  Pd178  1  0.20879531  0.59798328  0.00036764  1
  Pd  Pd179  1  0.60142174  0.60074800  -0.00607593  1
  Pd  Pd180  1  0.01092871  0.60687243  0.78493432  1
  Pd  Pd181  1  0.20982724  0.80476668  0.58804911  1
  Pd  Pd182  1  0.20255254  0.19608899  0.60034920  1
  Pd  Pd183  1  0.00084626  0.80714008  -0.00078222  1
  Pd  Pd184  1  0.19662333  0.40360528  0.58853379  1
  Pd  Pd185  1  0.00574645  0.20677462  -0.00668884  1
  Pd  Pd186  1  0.80204428  0.59017677  0.40678956  1
  Pd  Pd187  1  0.39571639  0.80121471  0.41067131  1
  Pd  Pd188  1  0.59727868  0.60888042  0.59743161  1
  Pd  Pd189  1  0.80847258  0.19687518  0.59885199  1
  Pd  Pd190  1  0.19533095  -0.00936309  0.58822694  1
  Pd  Pd191  1  0.59882076  0.19310545  0.59573683  1
  Pd  Pd192  1  0.39210884  0.40689074  -0.00033344  1
  Pd  Pd193  1  -0.01040834  0.38915054  0.80032871  1
  Pd  Pd194  1  0.19168237  0.60455935  0.79345312  1
  Pd  Pd195  1  -0.00446144  -0.00682212  -0.00749891  1
  Pd  Pd196  1  0.19568551  0.39661854  0.40229338  1
  Pd  Pd197  1  0.60232341  0.00870994  0.80280830  1
  Pd  Pd198  1  -0.01110593  0.80163958  0.61221078  1
  Pd  Pd199  1  -0.01560868  0.59003568  0.00663715  1
  Rh  Rh200  1  0.60196104  0.00534041  0.60403730  1
  Rh  Rh201  1  0.80053615  0.79538669  0.20279430  1
  Rh  Rh202  1  0.41177012  0.19853128  0.00612800  1
  Rh  Rh203  1  0.40901918  -0.01362349  0.61720678  1
  Rh  Rh204  1  0.59566191  0.20095480  0.80163357  1
  Rh  Rh205  1  0.19414915  0.59134400  0.60081852  1
  Rh  Rh206  1  -0.01236866  -0.00165342  0.20167528  1
  Rh  Rh207  1  0.39673410  -0.00048454  -0.00267516  1
  Rh  Rh208  1  0.40581688  0.60555378  0.59853177  1
  Rh  Rh209  1  0.40293163  0.59744153  0.39475534  1
  Rh  Rh210  1  0.39750400  0.20380388  0.59967187  1
  Rh  Rh211  1  0.20984076  0.60569134  0.20871354  1
  Rh  Rh212  1  0.79546744  0.00456946  0.80229169  1
  Rh  Rh213  1  0.00120564  0.80414543  0.39468748  1
  Rh  Rh214  1  0.19324567  0.20870360  0.00096650  1
  Rh  Rh215  1  0.60023162  0.40339648  -0.00414997  1
  Rh  Rh216  1  0.79534025  0.40350907  0.19936093  1
  Rh  Rh217  1  0.60079238  -0.00648721  0.20376571  1
  Rh  Rh218  1  0.41545302  0.79283205  0.18690657  1
  Rh  Rh219  1  0.60003782  0.59121763  0.39834004  1
  Rh  Rh220  1  0.79149755  0.59343483  0.79273088  1
  Rh  Rh221  1  0.39741756  0.60559879  0.00313122  1
  Rh  Rh222  1  0.80532420  0.00467502  0.39930168  1
  Rh  Rh223  1  0.80149287  0.79945448  0.60026795  1
  Rh  Rh224  1  0.79522318  0.80163351  0.40303822  1
  Rh  Rh225  1  0.79071918  0.40441281  0.60304733  1
  Rh  Rh226  1  0.20689655  0.39072905  0.80686812  1
  Rh  Rh227  1  0.40571940  -0.00335875  0.39579471  1
  Rh  Rh228  1  0.39060328  0.40200577  0.59242309  1
  Rh  Rh229  1  0.59805756  0.19697768  0.00065308  1
  Rh  Rh230  1  0.60376116  0.40110346  0.60324197  1
  Rh  Rh231  1  0.59299743  0.20086358  0.19809412  1
  Rh  Rh232  1  0.00581811  0.59117922  0.60114768  1
  Rh  Rh233  1  0.79416060  0.60214370  0.59823163  1
  Rh  Rh234  1  0.18274536  0.78615022  0.81051478  1
  Rh  Rh235  1  0.21354214  0.01281313  0.81063858  1
  Rh  Rh236  1  0.40452394  0.80552093  0.80036235  1
  Rh  Rh237  1  -0.00478656  0.40256543  0.19721727  1
  Rh  Rh238  1  0.39598044  0.40814553  0.19159915  1
  Rh  Rh239  1  0.80153482  -0.00238477  0.59740615  1
  Rh  Rh240  1  0.80080551  0.80204658  0.80404644  1
  Rh  Rh241  1  -0.00794823  0.59219268  0.40604839  1
  Rh  Rh242  1  0.60896929  0.01124363  -0.00721190  1
  Rh  Rh243  1  0.00272058  0.19127446  0.39662737  1
  Rh  Rh244  1  0.39413126  0.19144683  0.80120850  1
  Rh  Rh245  1  -0.01242477  0.60843476  0.20089994  1
  Rh  Rh246  1  -0.00339769  0.40586584  0.40401260  1
  Rh  Rh247  1  0.81062912  0.20327598  0.78667972  1
  Rh  Rh248  1  -0.00778934  -0.00401488  0.80429473  1
  Rh  Rh249  1  0.59572818  0.79326880  0.59805390  1
