# generated using pymatgen
data_ZrScNbPdRh
_symmetry_space_group_name_H-M   'P 1'
_cell_length_a   16.55459334
_cell_length_b   16.54999745
_cell_length_c   16.55475411
_cell_angle_alpha   89.97124035
_cell_angle_beta   89.96870119
_cell_angle_gamma   90.00274717
_symmetry_Int_Tables_number   1
_chemical_formula_structural   ZrScNbPdRh
_chemical_formula_sum   'Zr50 Sc50 Nb50 Pd50 Rh50'
_cell_volume   4535.64507484
_cell_formula_units_Z   50
loop_
 _symmetry_equiv_pos_site_id
 _symmetry_equiv_pos_as_xyz
  1  'x, y, z'
loop_
 _atom_site_type_symbol
 _atom_site_label
 _atom_site_symmetry_multiplicity
 _atom_site_fract_x
 _atom_site_fract_y
 _atom_site_fract_z
 _atom_site_occupancy
  Zr  Zr0  1  0.10045672  0.69311599  0.50090637  1
  Zr  Zr1  1  0.10006035  0.90232402  0.70289425  1
  Zr  Zr2  1  0.90345308  0.69056979  0.29913656  1
  Zr  Zr3  1  0.89830720  0.09953594  0.10130465  1
  Zr  Zr4  1  0.90303859  0.48750297  0.90638103  1
  Zr  Zr5  1  0.69728328  0.09604344  0.70140680  1
  Zr  Zr6  1  0.09656286  0.50189866  0.50980729  1
  Zr  Zr7  1  0.29411310  0.90353260  0.29320388  1
  Zr  Zr8  1  0.69115161  0.29755526  0.10297085  1
  Zr  Zr9  1  0.69745444  0.70294400  0.28889289  1
  Zr  Zr10  1  0.29549746  0.50963829  0.49673137  1
  Zr  Zr11  1  0.10084426  0.50241818  0.30067209  1
  Zr  Zr12  1  0.50825885  0.68401880  0.90011142  1
  Zr  Zr13  1  0.90078991  0.10346668  0.50215517  1
  Zr  Zr14  1  0.69704925  0.29939506  0.49473717  1
  Zr  Zr15  1  0.70617773  0.70129876  0.70738582  1
  Zr  Zr16  1  0.89635806  0.70071511  0.89396459  1
  Zr  Zr17  1  0.11044905  0.11212923  0.10022188  1
  Zr  Zr18  1  0.70814816  0.30298881  0.29878834  1
  Zr  Zr19  1  0.10019069  0.10903796  0.49694331  1
  Zr  Zr20  1  0.69847169  0.29941437  0.89481943  1
  Zr  Zr21  1  0.10050536  0.30623816  0.70449357  1
  Zr  Zr22  1  0.10429657  0.49398322  0.90376322  1
  Zr  Zr23  1  0.10100573  0.88913359  0.10462883  1
  Zr  Zr24  1  0.89784255  0.48877322  0.29605266  1
  Zr  Zr25  1  0.90449874  0.90133281  0.89405780  1
  Zr  Zr26  1  0.09892969  0.68929798  0.10056887  1
  Zr  Zr27  1  0.49772763  0.10686997  0.50056763  1
  Zr  Zr28  1  0.29954890  0.49894753  0.89723432  1
  Zr  Zr29  1  0.09595898  0.70952381  0.30110564  1
  Zr  Zr30  1  0.30673601  0.90223745  0.89776073  1
  Zr  Zr31  1  0.89992484  0.49887363  0.49898512  1
  Zr  Zr32  1  0.70653388  0.10173644  0.49592773  1
  Zr  Zr33  1  0.90123525  0.29845880  0.49211166  1
  Zr  Zr34  1  0.90608185  0.69699104  0.50145734  1
  Zr  Zr35  1  0.10630752  0.69878541  0.89869177  1
  Zr  Zr36  1  0.09393900  0.29903018  0.49999472  1
  Zr  Zr37  1  0.69335074  0.89382003  0.49787996  1
  Zr  Zr38  1  0.48478932  0.90750230  0.09755890  1
  Zr  Zr39  1  0.30518133  0.70319642  0.71476923  1
  Zr  Zr40  1  0.89156364  0.90290792  0.10097647  1
  Zr  Zr41  1  0.50087492  0.49704941  0.50344695  1
  Zr  Zr42  1  0.49754686  0.49815487  0.71310360  1
  Zr  Zr43  1  0.30386484  0.69807951  0.09834397  1
  Zr  Zr44  1  0.50558177  0.69979964  0.70328854  1
  Zr  Zr45  1  0.09856179  0.29573992  0.30842278  1
  Zr  Zr46  1  0.69916521  0.70739976  0.50571610  1
  Zr  Zr47  1  0.88828339  0.90618053  0.50045565  1
  Zr  Zr48  1  0.28921234  0.10166060  0.29847995  1
  Zr  Zr49  1  0.69281682  0.49187752  0.29367846  1
  Sc  Sc50  1  0.30064002  0.69404251  0.30599382  1
  Sc  Sc51  1  0.29160987  0.49577029  0.10905761  1
  Sc  Sc52  1  0.69877270  0.29668739  0.70336230  1
  Sc  Sc53  1  0.88560999  0.09971007  0.30157804  1
  Sc  Sc54  1  0.70710944  0.89809596  0.69866673  1
  Sc  Sc55  1  0.29508704  0.30031618  0.50521645  1
  Sc  Sc56  1  0.50110545  0.29894419  0.50916931  1
  Sc  Sc57  1  0.49751634  0.30091400  0.70675518  1
  Sc  Sc58  1  0.29916792  0.10023142  0.70176282  1
  Sc  Sc59  1  0.69863254  0.10979308  0.29815923  1
  Sc  Sc60  1  0.10364912  0.10620294  0.89303766  1
  Sc  Sc61  1  0.69754980  0.50863332  0.90179651  1
  Sc  Sc62  1  0.89191093  0.89496437  0.29697562  1
  Sc  Sc63  1  0.69723474  0.90017306  0.09903628  1
  Sc  Sc64  1  0.09798602  0.29994004  0.90312055  1
  Sc  Sc65  1  0.90481594  0.09636757  0.69780501  1
  Sc  Sc66  1  0.70454875  0.50501731  0.09744183  1
  Sc  Sc67  1  0.30020024  0.10352077  0.89293659  1
  Sc  Sc68  1  0.70195813  0.09599100  0.09784231  1
  Sc  Sc69  1  0.09735384  0.90037674  0.89283055  1
  Sc  Sc70  1  0.90486061  0.31190205  0.09870458  1
  Sc  Sc71  1  0.68991104  0.09839318  0.89752220  1
  Sc  Sc72  1  0.69861937  0.91059147  0.89661919  1
  Sc  Sc73  1  0.49151337  0.10431099  0.70241265  1
  Sc  Sc74  1  0.90162922  0.90110558  0.70228045  1
  Sc  Sc75  1  0.29870705  0.49187826  0.70421809  1
  Sc  Sc76  1  0.29561628  0.09997627  0.51110604  1
  Sc  Sc77  1  0.10272114  0.09581081  0.69586897  1
  Sc  Sc78  1  0.50256697  0.91581300  0.90418046  1
  Sc  Sc79  1  0.49397741  0.90364279  0.70316458  1
  Sc  Sc80  1  0.30403289  0.29657074  0.70382884  1
  Sc  Sc81  1  0.89903664  0.49707419  0.69618455  1
  Sc  Sc82  1  0.89991043  0.29752553  0.70786067  1
  Sc  Sc83  1  0.49497729  0.88930588  0.29868598  1
  Sc  Sc84  1  0.89899796  0.70688420  0.69828073  1
  Sc  Sc85  1  0.49617951  0.10150080  0.29606187  1
  Sc  Sc86  1  0.49777849  0.10000112  0.08385571  1
  Sc  Sc87  1  0.50768326  0.70239681  0.09909038  1
  Sc  Sc88  1  0.10610321  0.89786737  0.49895692  1
  Sc  Sc89  1  0.70580797  0.89667379  0.29843467  1
  Sc  Sc90  1  0.49798790  0.69450666  0.29241554  1
  Sc  Sc91  1  0.51449031  0.30367437  0.29020707  1
  Sc  Sc92  1  0.50122789  0.71930166  0.49657168  1
  Sc  Sc93  1  0.29119348  0.29711851  0.89416332  1
  Sc  Sc94  1  0.90177032  0.69592647  0.10242897  1
  Sc  Sc95  1  0.90612254  0.50197449  0.10061285  1
  Sc  Sc96  1  0.30255944  0.91118984  0.70241681  1
  Sc  Sc97  1  0.49863685  0.50248979  0.11482569  1
  Sc  Sc98  1  0.70132734  0.49509598  0.70169717  1
  Sc  Sc99  1  0.29054190  0.30743804  0.29531971  1
  Nb  Nb100  1  0.49821123  0.90318484  0.50114689  1
  Nb  Nb101  1  0.10068074  0.90419647  0.30049441  1
  Nb  Nb102  1  0.09427661  0.50077870  0.70239822  1
  Nb  Nb103  1  0.30100674  0.69528884  0.90240473  1
  Nb  Nb104  1  0.49986442  0.49246251  0.90014896  1
  Nb  Nb105  1  0.69835378  0.69633075  0.08744562  1
  Nb  Nb106  1  0.90342552  0.30315231  0.30062381  1
  Nb  Nb107  1  0.90160240  0.29649355  0.90085860  1
  Nb  Nb108  1  0.69858728  0.69671601  0.90590456  1
  Nb  Nb109  1  0.10111908  0.10114533  0.30271917  1
  Nb  Nb110  1  0.50118753  0.29380587  0.90123859  1
  Nb  Nb111  1  0.29336097  0.29310832  0.09677977  1
  Nb  Nb112  1  0.49571089  0.29674278  0.09289239  1
  Nb  Nb113  1  0.09814947  0.69946085  0.69849435  1
  Nb  Nb114  1  0.30209850  0.09678940  0.10218556  1
  Nb  Nb115  1  0.30828191  0.89829344  0.50439896  1
  Nb  Nb116  1  0.90800293  0.10329837  0.90369879  1
  Nb  Nb117  1  0.49573726  0.50370108  0.29980798  1
  Nb  Nb118  1  0.29941867  0.70170419  0.50685232  1
  Nb  Nb119  1  0.11370696  0.30313968  0.09775907  1
  Nb  Nb120  1  0.30370320  0.90534275  0.09549700  1
  Nb  Nb121  1  0.31377398  0.50274170  0.30078670  1
  Nb  Nb122  1  0.70036490  0.49807365  0.49874025  1
  Nb  Nb123  1  0.10114793  0.49795601  0.09225178  1
  Nb  Nb124  1  0.50440643  0.10606664  0.89450850  1
  Nb  Nb125  1  0.00386340  0.00068612  0.39195924  1
  Nb  Nb126  1  0.60372506  0.79623146  0.80707763  1
  Nb  Nb127  1  0.79178088  0.59472948  0.40054876  1
  Nb  Nb128  1  0.39454541  0.20255504  0.19292198  1
  Nb  Nb129  1  0.40046136  0.59133120  -0.00328222  1
  Nb  Nb130  1  0.40145589  0.40270325  0.39455291  1
  Nb  Nb131  1  0.80592909  0.20249949  -0.00778129  1
  Nb  Nb132  1  0.00516505  0.00365631  0.00526676  1
  Nb  Nb133  1  0.39894497  -0.00012450  0.40330870  1
  Nb  Nb134  1  0.59376398  -0.00174945  0.20234335  1
  Nb  Nb135  1  0.00525953  0.59811334  0.79771289  1
  Nb  Nb136  1  0.40122443  0.39475987  0.00241844  1
  Nb  Nb137  1  0.20767886  0.80117507  -0.00075579  1
  Nb  Nb138  1  0.20214224  -0.00362736  0.00457230  1
  Nb  Nb139  1  0.00651060  0.00430632  0.20335108  1
  Nb  Nb140  1  0.00285639  0.20086372  0.20416893  1
  Nb  Nb141  1  0.20620820  0.79458972  0.60195708  1
  Nb  Nb142  1  0.40216924  0.60533497  0.60075245  1
  Nb  Nb143  1  0.59668026  -0.00117215  0.59333541  1
  Nb  Nb144  1  0.59882406  0.59902865  0.59651998  1
  Nb  Nb145  1  0.39746282  0.20469877  0.39377179  1
  Nb  Nb146  1  0.59406109  -0.00189566  0.40006822  1
  Nb  Nb147  1  0.58981470  0.39697564  -0.00071000  1
  Nb  Nb148  1  0.60322624  0.59701611  0.40303249  1
  Nb  Nb149  1  0.79485167  0.79477169  -0.00433216  1
  Pd  Pd150  1  0.79066587  0.39489130  0.00366289  1
  Pd  Pd151  1  0.40342898  0.79129438  -0.00759006  1
  Pd  Pd152  1  0.80278202  0.20409669  0.60569175  1
  Pd  Pd153  1  0.80320952  0.78991358  0.39811555  1
  Pd  Pd154  1  0.00388811  0.80602797  0.59693987  1
  Pd  Pd155  1  0.60150972  0.81073938  -0.00644282  1
  Pd  Pd156  1  0.20302669  0.40027254  0.60252046  1
  Pd  Pd157  1  0.19899345  0.20322798  0.60673775  1
  Pd  Pd158  1  -0.00819733  0.80387345  0.20163759  1
  Pd  Pd159  1  0.20458347  0.40281751  0.40246958  1
  Pd  Pd160  1  -0.00715993  0.39426889  0.60304461  1
  Pd  Pd161  1  0.41074035  0.60378124  0.40911812  1
  Pd  Pd162  1  0.59014616  0.18749760  0.19284815  1
  Pd  Pd163  1  0.20101317  0.60058777  0.20573979  1
  Pd  Pd164  1  0.80005930  0.40394436  0.80023327  1
  Pd  Pd165  1  0.79769214  0.59772468  0.19934317  1
  Pd  Pd166  1  0.20039138  0.80566883  0.79974616  1
  Pd  Pd167  1  0.40073892  0.39089965  0.19971289  1
  Pd  Pd168  1  -0.00055904  0.20373620  0.00775579  1
  Pd  Pd169  1  0.59844797  0.80645076  0.19489502  1
  Pd  Pd170  1  -0.00492168  0.60006884  -0.00651634  1
  Pd  Pd171  1  0.20194775  -0.00114836  0.41057638  1
  Pd  Pd172  1  0.80505870  0.00616519  0.80065749  1
  Pd  Pd173  1  0.19489043  0.40240293  0.20284258  1
  Pd  Pd174  1  0.19668469  0.59442593  0.79356104  1
  Pd  Pd175  1  0.79935483  0.39119742  0.60126096  1
  Pd  Pd176  1  -0.00137631  0.80282908  -0.00132633  1
  Pd  Pd177  1  0.39423367  0.80224890  0.39499158  1
  Pd  Pd178  1  0.00450082  -0.00290578  0.58984598  1
  Pd  Pd179  1  0.39516143  0.79461480  0.20290840  1
  Pd  Pd180  1  0.41466543  0.80241021  0.81335217  1
  Pd  Pd181  1  0.59232957  0.39915421  0.39949729  1
  Pd  Pd182  1  0.01164626  0.39633942  0.19432401  1
  Pd  Pd183  1  0.80675087  0.58971078  0.80260879  1
  Pd  Pd184  1  0.39386550  0.40338617  0.59643716  1
  Pd  Pd185  1  0.39797583  0.79926124  0.60696618  1
  Pd  Pd186  1  0.39091898  0.19955909  -0.00362851  1
  Pd  Pd187  1  0.20799077  0.60375597  0.61354743  1
  Pd  Pd188  1  0.80817047  0.20949734  0.19134370  1
  Pd  Pd189  1  0.80201816  0.00169092  -0.00815700  1
  Pd  Pd190  1  0.20768560  0.79384129  0.19683980  1
  Pd  Pd191  1  0.79620746  0.60087429  0.59760301  1
  Pd  Pd192  1  0.59832904  0.19659812  0.60718225  1
  Pd  Pd193  1  0.00459146  0.19708781  0.79313748  1
  Pd  Pd194  1  0.60280487  0.40109236  0.60854684  1
  Pd  Pd195  1  0.20581506  0.80069361  0.40555744  1
  Pd  Pd196  1  0.80090794  0.18991280  0.80428295  1
  Pd  Pd197  1  0.19476427  -0.00065788  0.19294927  1
  Pd  Pd198  1  0.19726174  0.60238842  0.39427502  1
  Pd  Pd199  1  -0.00478773  0.81061604  0.40214934  1
  Rh  Rh200  1  0.79319663  0.00051129  0.60135900  1
  Rh  Rh201  1  0.80793174  0.60434216  -0.00058929  1
  Rh  Rh202  1  0.80262704  0.20525286  0.39676376  1
  Rh  Rh203  1  0.19957036  0.00053832  0.80465613  1
  Rh  Rh204  1  0.39897615  0.38934630  0.80904944  1
  Rh  Rh205  1  0.59816266  0.00146155  0.00744623  1
  Rh  Rh206  1  0.40072247  0.20167569  0.80240026  1
  Rh  Rh207  1  0.79932804  0.79304841  0.18718364  1
  Rh  Rh208  1  -0.00114638  0.40377542  0.80194870  1
  Rh  Rh209  1  0.20124784  -0.00861250  0.59936219  1
  Rh  Rh210  1  0.00239786  0.79195811  0.79502525  1
  Rh  Rh211  1  0.39606104  0.20294824  0.59726192  1
  Rh  Rh212  1  0.00312612  0.40586838  0.40247577  1
  Rh  Rh213  1  0.20053117  0.20593430  0.20338609  1
  Rh  Rh214  1  0.39831748  0.60355425  0.19339724  1
  Rh  Rh215  1  0.80666852  0.80225858  0.60119890  1
  Rh  Rh216  1  0.20858135  0.60106049  0.00371310  1
  Rh  Rh217  1  0.00580049  0.59349467  0.20060112  1
  Rh  Rh218  1  0.40384904  0.00630187  0.20510649  1
  Rh  Rh219  1  0.60166758  0.39837895  0.80543115  1
  Rh  Rh220  1  0.60910074  0.59862351  0.79370800  1
  Rh  Rh221  1  0.20534445  0.39780940  0.00018512  1
  Rh  Rh222  1  0.39346508  0.01310527  -0.00870004  1
  Rh  Rh223  1  0.40387352  0.00933275  0.80325297  1
  Rh  Rh224  1  0.00062463  0.20404536  0.60686856  1
  Rh  Rh225  1  0.40214336  0.00433990  0.59710593  1
  Rh  Rh226  1  -0.00316388  0.60055969  0.60959698  1
  Rh  Rh227  1  0.19741274  0.39825289  0.79928398  1
  Rh  Rh228  1  0.59738502  0.79967191  0.38968401  1
  Rh  Rh229  1  0.59534091  0.20081630  0.39807309  1
  Rh  Rh230  1  0.19506891  0.20102508  0.79443962  1
  Rh  Rh231  1  0.59089437  0.58621615  0.00966319  1
  Rh  Rh232  1  0.39790430  0.59556224  0.80273523  1
  Rh  Rh233  1  0.59566351  -0.00348118  0.78831137  1
  Rh  Rh234  1  0.20560278  0.19469871  -0.00641945  1
  Rh  Rh235  1  0.59645159  0.80724073  0.61613598  1
  Rh  Rh236  1  0.20813689  0.20399322  0.40362477  1
  Rh  Rh237  1  0.59631170  0.19978199  0.79567038  1
  Rh  Rh238  1  0.79212838  0.80619631  0.80879014  1
  Rh  Rh239  1  0.00703792  0.39405439  0.00322319  1
  Rh  Rh240  1  0.00156256  0.00684009  0.80514546  1
  Rh  Rh241  1  0.60985719  0.20179733  -0.00339057  1
  Rh  Rh242  1  0.79038887  -0.00115412  0.20545860  1
  Rh  Rh243  1  0.80033050  0.40097842  0.40114925  1
  Rh  Rh244  1  0.59848881  0.40307326  0.19052250  1
  Rh  Rh245  1  0.60315340  0.59991751  0.19930152  1
  Rh  Rh246  1  -0.00340571  0.59175261  0.39631937  1
  Rh  Rh247  1  0.79551497  0.00119034  0.39649417  1
  Rh  Rh248  1  -0.01058599  0.18995373  0.39007212  1
  Rh  Rh249  1  0.79979094  0.39769334  0.19242760  1
