# generated using pymatgen
data_ZrScNbPdRh
_symmetry_space_group_name_H-M   'P 1'
_cell_length_a   16.55680480
_cell_length_b   16.55108176
_cell_length_c   16.55973369
_cell_angle_alpha   89.99570579
_cell_angle_beta   89.96819625
_cell_angle_gamma   89.98424093
_symmetry_Int_Tables_number   1
_chemical_formula_structural   ZrScNbPdRh
_chemical_formula_sum   'Zr50 Sc50 Nb50 Pd50 Rh50'
_cell_volume   4537.91311380
_cell_formula_units_Z   50
loop_
 _symmetry_equiv_pos_site_id
 _symmetry_equiv_pos_as_xyz
  1  'x, y, z'
loop_
 _atom_site_type_symbol
 _atom_site_label
 _atom_site_symmetry_multiplicity
 _atom_site_fract_x
 _atom_site_fract_y
 _atom_site_fract_z
 _atom_site_occupancy
  Zr  Zr0  1  0.70040758  0.08479652  0.90995381  1
  Zr  Zr1  1  0.90244170  0.89970989  0.50098496  1
  Zr  Zr2  1  0.90352233  0.50381648  0.29817365  1
  Zr  Zr3  1  0.89962759  0.09308344  0.88967020  1
  Zr  Zr4  1  0.49324409  0.70764152  0.90930881  1
  Zr  Zr5  1  0.89969481  0.29727452  0.10175731  1
  Zr  Zr6  1  0.69934372  0.50619787  0.89528695  1
  Zr  Zr7  1  0.90119559  0.70134628  0.29699309  1
  Zr  Zr8  1  0.28625172  0.90165382  0.49998138  1
  Zr  Zr9  1  0.30935940  0.69780633  0.09433939  1
  Zr  Zr10  1  0.89810558  0.89308531  0.89612271  1
  Zr  Zr11  1  0.89840765  0.50675713  0.89513167  1
  Zr  Zr12  1  0.50639058  0.29447401  0.10415035  1
  Zr  Zr13  1  0.30996509  0.09313012  0.10204943  1
  Zr  Zr14  1  0.91190686  0.29246460  0.90689083  1
  Zr  Zr15  1  0.70291060  0.70918763  0.30300161  1
  Zr  Zr16  1  0.10740564  0.09398451  0.10796919  1
  Zr  Zr17  1  0.30172620  0.29096956  0.10350799  1
  Zr  Zr18  1  0.70277799  0.48976036  0.70303626  1
  Zr  Zr19  1  0.09112901  0.29737509  0.29850701  1
  Zr  Zr20  1  0.51039490  0.48817082  0.49753477  1
  Zr  Zr21  1  0.10295568  0.90495430  0.68482542  1
  Zr  Zr22  1  0.71200856  0.70306675  0.90200698  1
  Zr  Zr23  1  0.49853718  0.49845482  0.30045528  1
  Zr  Zr24  1  0.69692132  0.29036150  0.10526100  1
  Zr  Zr25  1  0.50863186  0.90721800  0.49411158  1
  Zr  Zr26  1  0.90106375  0.70220464  0.70698656  1
  Zr  Zr27  1  0.09859600  0.69607129  0.49221743  1
  Zr  Zr28  1  0.29577488  0.49505326  0.70180555  1
  Zr  Zr29  1  0.30185014  0.71181625  0.90256249  1
  Zr  Zr30  1  0.49472009  0.09067050  0.89671945  1
  Zr  Zr31  1  0.29679482  0.09741051  0.29157163  1
  Zr  Zr32  1  0.30398169  0.10336836  0.49502360  1
  Zr  Zr33  1  0.09837733  0.89689284  0.48893855  1
  Zr  Zr34  1  0.10264864  0.71586873  0.09694541  1
  Zr  Zr35  1  0.09365428  0.29564115  0.09142613  1
  Zr  Zr36  1  0.71051827  0.10398146  0.70139495  1
  Zr  Zr37  1  0.30194444  0.29803909  0.30074135  1
  Zr  Zr38  1  0.30326330  0.50056259  0.29810185  1
  Zr  Zr39  1  0.89907091  0.50697156  0.69845076  1
  Zr  Zr40  1  0.70249197  0.69627109  0.69253138  1
  Zr  Zr41  1  0.49555784  0.70869291  0.29649677  1
  Zr  Zr42  1  0.69384496  0.49333383  0.30513146  1
  Zr  Zr43  1  0.89909393  0.89873439  0.30472649  1
  Zr  Zr44  1  0.69897311  0.91519538  0.09653327  1
  Zr  Zr45  1  0.09672802  0.09851704  0.29823470  1
  Zr  Zr46  1  0.70258332  0.89365123  0.49796429  1
  Zr  Zr47  1  0.29829209  0.29752060  0.88070282  1
  Zr  Zr48  1  0.69452514  0.30991027  0.90266398  1
  Zr  Zr49  1  0.51565830  0.70718415  0.49862258  1
  Sc  Sc50  1  0.30038103  0.29371795  0.50327272  1
  Sc  Sc51  1  0.10069649  0.49409794  0.89880806  1
  Sc  Sc52  1  0.29613603  0.49755094  0.90549510  1
  Sc  Sc53  1  0.70036169  0.09916340  0.29854050  1
  Sc  Sc54  1  0.48966735  0.49994053  0.10902096  1
  Sc  Sc55  1  0.50436161  0.90673373  0.70407629  1
  Sc  Sc56  1  0.09615184  0.70108619  0.29988995  1
  Sc  Sc57  1  0.70161659  0.29923006  0.50699781  1
  Sc  Sc58  1  0.49857681  0.29817576  0.89626117  1
  Sc  Sc59  1  0.51006324  0.69999226  0.70092717  1
  Sc  Sc60  1  0.70033456  0.09715822  0.49815797  1
  Sc  Sc61  1  0.09824524  0.50642226  0.69518795  1
  Sc  Sc62  1  0.91029386  0.89959450  0.10442881  1
  Sc  Sc63  1  0.50322762  0.10118872  0.69675539  1
  Sc  Sc64  1  0.50950848  0.49556036  0.89443019  1
  Sc  Sc65  1  0.10064334  0.49858829  0.08505593  1
  Sc  Sc66  1  0.09768777  0.30042549  0.49376479  1
  Sc  Sc67  1  0.29680157  0.70493298  0.29816865  1
  Sc  Sc68  1  0.70563575  0.71499138  0.10461903  1
  Sc  Sc69  1  0.69736643  0.29867851  0.29862655  1
  Sc  Sc70  1  0.28403886  0.50369844  0.49842359  1
  Sc  Sc71  1  0.70397855  0.90654774  0.30415906  1
  Sc  Sc72  1  0.29474598  0.10918777  0.70404787  1
  Sc  Sc73  1  0.51423171  0.49909995  0.70255765  1
  Sc  Sc74  1  0.29317113  0.90149113  0.70563349  1
  Sc  Sc75  1  0.09405134  0.70692556  0.89850023  1
  Sc  Sc76  1  0.69778575  0.89862396  0.69564623  1
  Sc  Sc77  1  0.49262490  0.08917281  0.30054631  1
  Sc  Sc78  1  0.10135788  0.08790825  0.50374660  1
  Sc  Sc79  1  0.90353860  0.50118681  0.49978187  1
  Sc  Sc80  1  0.89374197  0.10559037  0.09882378  1
  Sc  Sc81  1  0.70029940  0.49520901  0.50750402  1
  Sc  Sc82  1  0.89949723  0.70022079  0.50820432  1
  Sc  Sc83  1  0.30056274  0.90042666  0.29931681  1
  Sc  Sc84  1  0.10420696  0.09230268  0.70273487  1
  Sc  Sc85  1  0.49823504  0.31106395  0.30315756  1
  Sc  Sc86  1  0.09392586  0.70198928  0.69856657  1
  Sc  Sc87  1  0.89738972  0.70498860  0.10697394  1
  Sc  Sc88  1  0.49904569  0.89699077  0.10323295  1
  Sc  Sc89  1  0.70088732  0.49456593  0.10724159  1
  Sc  Sc90  1  0.09337534  0.50222702  0.49085340  1
  Sc  Sc91  1  0.89849775  0.10579135  0.49367200  1
  Sc  Sc92  1  0.28869266  0.70419418  0.49432485  1
  Sc  Sc93  1  0.49842106  0.29435310  0.69919030  1
  Sc  Sc94  1  0.29429347  0.71072026  0.69714214  1
  Sc  Sc95  1  0.10393445  0.90018285  0.91030008  1
  Sc  Sc96  1  0.10009802  0.09365174  0.89494172  1
  Sc  Sc97  1  0.89577344  0.29371607  0.30254704  1
  Sc  Sc98  1  0.89500146  0.10650352  0.30322079  1
  Sc  Sc99  1  0.89750892  0.29564729  0.49048126  1
  Nb  Nb100  1  0.90520514  0.90429258  0.69432010  1
  Nb  Nb101  1  0.70459368  0.70600147  0.50222832  1
  Nb  Nb102  1  0.31157570  0.90513049  0.90273684  1
  Nb  Nb103  1  0.70712582  0.29758564  0.70004807  1
  Nb  Nb104  1  0.10409103  0.89966739  0.10550901  1
  Nb  Nb105  1  0.09867596  0.89826309  0.29142145  1
  Nb  Nb106  1  0.11236898  0.29718151  0.70646810  1
  Nb  Nb107  1  0.68808526  0.10514628  0.10374387  1
  Nb  Nb108  1  0.50956461  0.10042979  0.10348621  1
  Nb  Nb109  1  0.90077893  0.69852594  0.89803423  1
  Nb  Nb110  1  0.30181829  0.09702415  0.89871447  1
  Nb  Nb111  1  0.28717079  0.89854983  0.09683413  1
  Nb  Nb112  1  0.10332906  0.29967021  0.89969293  1
  Nb  Nb113  1  0.89316082  0.28831615  0.70261701  1
  Nb  Nb114  1  0.49529579  0.10558649  0.50094632  1
  Nb  Nb115  1  0.90171068  0.49960772  0.09857429  1
  Nb  Nb116  1  0.09965794  0.50170137  0.30018707  1
  Nb  Nb117  1  0.29954670  0.49985290  0.10129743  1
  Nb  Nb118  1  0.90161221  0.09895462  0.70233770  1
  Nb  Nb119  1  0.49259115  0.29142391  0.50316004  1
  Nb  Nb120  1  0.69309258  0.90121194  0.90465872  1
  Nb  Nb121  1  0.29646436  0.30025513  0.69926365  1
  Nb  Nb122  1  0.49799804  0.69768129  0.10258967  1
  Nb  Nb123  1  0.50004732  0.89871367  0.30434810  1
  Nb  Nb124  1  0.50063395  0.90131211  0.89764296  1
  Nb  Nb125  1  0.60302564  0.80491314  0.81160568  1
  Nb  Nb126  1  0.20531455  0.19545454  -0.00713532  1
  Nb  Nb127  1  0.19538730  0.40366045  0.19832612  1
  Nb  Nb128  1  0.59626010  0.60784237  0.19935611  1
  Nb  Nb129  1  0.39888483  0.00023771  0.59457632  1
  Nb  Nb130  1  -0.00890965  0.60521751  -0.00212651  1
  Nb  Nb131  1  0.39707787  0.40084830  0.60249660  1
  Nb  Nb132  1  0.39688553  0.39558034  0.00349148  1
  Nb  Nb133  1  0.79442275  0.60430382  0.40106181  1
  Nb  Nb134  1  0.58794576  0.19823321  0.40660822  1
  Nb  Nb135  1  0.59868398  0.60675862  0.00957437  1
  Nb  Nb136  1  -0.00152004  0.20259186  0.60979686  1
  Nb  Nb137  1  0.80455730  0.40069596  0.00188397  1
  Nb  Nb138  1  -0.00220938  0.38693925  0.61107845  1
  Nb  Nb139  1  0.60962312  0.19682463  0.79968061  1
  Nb  Nb140  1  0.19971866  0.19485330  0.39388938  1
  Nb  Nb141  1  0.39595726  0.60212233  0.79643694  1
  Nb  Nb142  1  0.00153339  0.38811858  0.79367320  1
  Nb  Nb143  1  0.40219155  0.60017486  0.59736762  1
  Nb  Nb144  1  0.00229404  0.40589096  0.19776361  1
  Nb  Nb145  1  0.80877102  0.00055459  0.60371898  1
  Nb  Nb146  1  0.19959206  0.59410478  0.19374509  1
  Nb  Nb147  1  0.20494686  0.60408531  0.80239868  1
  Nb  Nb148  1  0.40463840  0.60143119  0.40700373  1
  Nb  Nb149  1  0.40373601  0.80403180  0.59511969  1
  Pd  Pd150  1  0.19495628  0.39696523  0.59442564  1
  Pd  Pd151  1  0.00891121  0.18120817  -0.00068145  1
  Pd  Pd152  1  0.19179946  0.19835921  0.59162616  1
  Pd  Pd153  1  0.39745538  -0.00412050  0.40179394  1
  Pd  Pd154  1  0.19131227  0.60764366  -0.00348253  1
  Pd  Pd155  1  0.80058174  0.40365924  0.40297730  1
  Pd  Pd156  1  0.60395320  0.80606523  0.20150264  1
  Pd  Pd157  1  0.59591816  0.41096644  0.01142275  1
  Pd  Pd158  1  0.20885947  0.38885669  0.00152523  1
  Pd  Pd159  1  -0.00317408  0.00441385  0.39788145  1
  Pd  Pd160  1  0.60270205  0.59515872  0.59762994  1
  Pd  Pd161  1  -0.00272011  0.00156042  0.00269579  1
  Pd  Pd162  1  0.39098252  0.40499108  0.41415362  1
  Pd  Pd163  1  0.40646888  0.40604836  0.79782680  1
  Pd  Pd164  1  0.01022686  0.19937108  0.79543735  1
  Pd  Pd165  1  0.59974261  0.79992828  0.00242271  1
  Pd  Pd166  1  0.20226558  0.00379154  -0.00382210  1
  Pd  Pd167  1  0.39204255  0.80862233  0.19395402  1
  Pd  Pd168  1  0.60358925  0.00398351  0.59931561  1
  Pd  Pd169  1  0.00770263  -0.01061410  0.79905675  1
  Pd  Pd170  1  0.60323552  0.60405603  0.39610606  1
  Pd  Pd171  1  0.00755325  0.80994730  0.79876395  1
  Pd  Pd172  1  0.79541922  -0.01244039  0.79385839  1
  Pd  Pd173  1  0.40851494  0.58585765  -0.00901155  1
  Pd  Pd174  1  0.20033844  0.60704146  0.60534670  1
  Pd  Pd175  1  0.39366086  0.00366949  0.78710626  1
  Pd  Pd176  1  0.59555658  0.19315740  -0.01051504  1
  Pd  Pd177  1  -0.00870001  0.00516172  0.20148995  1
  Pd  Pd178  1  0.40606289  -0.00624246  0.00834181  1
  Pd  Pd179  1  0.80497626  0.39698035  0.19877104  1
  Pd  Pd180  1  0.79480921  0.20176856  -0.00495808  1
  Pd  Pd181  1  0.01195868  0.59742769  0.18735778  1
  Pd  Pd182  1  0.79728748  0.59787194  0.01188659  1
  Pd  Pd183  1  0.39883448  0.20295206  -0.00749957  1
  Pd  Pd184  1  0.40865025  0.79826236  0.78819637  1
  Pd  Pd185  1  0.79333028  0.20193393  0.81489162  1
  Pd  Pd186  1  0.81256250  -0.00433521  0.00516513  1
  Pd  Pd187  1  0.39712467  0.79801958  0.40826677  1
  Pd  Pd188  1  0.00247393  0.79495408  0.59704802  1
  Pd  Pd189  1  0.81057700  0.39649627  0.59613630  1
  Pd  Pd190  1  0.80717949  0.80847882  0.00730231  1
  Pd  Pd191  1  0.60400368  0.20155251  0.60142444  1
  Pd  Pd192  1  0.79421647  0.80695306  0.79326606  1
  Pd  Pd193  1  0.19967162  0.39372011  0.39728536  1
  Pd  Pd194  1  0.80435042  0.00436442  0.19748699  1
  Pd  Pd195  1  0.19272433  0.80458189  0.80391930  1
  Pd  Pd196  1  0.59589176  -0.00237231  0.20763040  1
  Pd  Pd197  1  0.78990496  0.59880990  0.20273361  1
  Pd  Pd198  1  0.41277080  0.19943554  0.20881130  1
  Pd  Pd199  1  0.80924285  0.39387412  0.80730029  1
  Rh  Rh200  1  0.39541636  0.20049651  0.60907728  1
  Rh  Rh201  1  0.21066549  0.00590887  0.60547839  1
  Rh  Rh202  1  0.39933140  0.19896622  0.39158370  1
  Rh  Rh203  1  0.80671494  0.19342886  0.59520875  1
  Rh  Rh204  1  0.59533631  0.61697138  0.81655927  1
  Rh  Rh205  1  0.79985127  0.81558077  0.19824430  1
  Rh  Rh206  1  0.79676166  0.60374042  0.79160044  1
  Rh  Rh207  1  0.40628879  0.19377649  0.79487079  1
  Rh  Rh208  1  0.20325445  0.79777632  0.20054127  1
  Rh  Rh209  1  0.19164915  0.40807307  0.79724090  1
  Rh  Rh210  1  0.59422967  0.19461773  0.21525839  1
  Rh  Rh211  1  0.19686284  0.00259711  0.38954894  1
  Rh  Rh212  1  -0.00714069  0.00974315  0.59841643  1
  Rh  Rh213  1  -0.00850889  0.40981814  -0.00504087  1
  Rh  Rh214  1  0.59964129  0.38520731  0.78868664  1
  Rh  Rh215  1  0.01079967  0.59575805  0.80787070  1
  Rh  Rh216  1  0.39724660  0.60443737  0.20851659  1
  Rh  Rh217  1  -0.00717529  0.79670915  -0.00033076  1
  Rh  Rh218  1  0.60497415  0.00018496  0.80180951  1
  Rh  Rh219  1  0.60495252  0.38313079  0.40744164  1
  Rh  Rh220  1  -0.00528924  0.40228264  0.39557261  1
  Rh  Rh221  1  0.79706728  0.59829622  0.59525423  1
  Rh  Rh222  1  0.78288347  0.20098432  0.39985386  1
  Rh  Rh223  1  -0.00190700  0.79695378  0.39752025  1
  Rh  Rh224  1  0.79511301  0.19598917  0.20229610  1
  Rh  Rh225  1  0.19629953  0.19184491  0.80610210  1
  Rh  Rh226  1  0.00085244  0.59685805  0.59655006  1
  Rh  Rh227  1  0.60044732  0.00751473  0.39641359  1
  Rh  Rh228  1  0.79997788  0.00107458  0.40788519  1
  Rh  Rh229  1  0.59555025  0.80482878  0.60942757  1
  Rh  Rh230  1  0.39559535  0.39429492  0.19143323  1
  Rh  Rh231  1  0.00964021  0.19421036  0.40898025  1
  Rh  Rh232  1  0.39809078  0.81337007  0.00886666  1
  Rh  Rh233  1  0.20431988  -0.00463896  0.80534973  1
  Rh  Rh234  1  0.19437635  0.20547882  0.19853812  1
  Rh  Rh235  1  -0.00902481  0.60384231  0.40187670  1
  Rh  Rh236  1  0.19225101  0.80221405  0.38919378  1
  Rh  Rh237  1  0.00147028  0.80297494  0.20304439  1
  Rh  Rh238  1  0.20389258  0.60222479  0.38692820  1
  Rh  Rh239  1  0.59624224  0.40403436  0.19810548  1
  Rh  Rh240  1  -0.00507076  0.20113852  0.19858735  1
  Rh  Rh241  1  0.20233234  -0.01037456  0.20388943  1
  Rh  Rh242  1  0.60446019  0.80711053  0.39260579  1
  Rh  Rh243  1  0.58926481  0.00007259  0.00353092  1
  Rh  Rh244  1  0.59505401  0.38832899  0.60311595  1
  Rh  Rh245  1  0.19846698  0.79754343  0.59694980  1
  Rh  Rh246  1  0.20456902  0.80491529  -0.00346938  1
  Rh  Rh247  1  0.80443187  0.80591918  0.60552979  1
  Rh  Rh248  1  0.80660413  0.79440389  0.40331475  1
  Rh  Rh249  1  0.40218350  -0.00867645  0.19488574  1
