# generated using pymatgen
data_ZrScNbPdRh
_symmetry_space_group_name_H-M   'P 1'
_cell_length_a   16.55206902
_cell_length_b   16.55819832
_cell_length_c   16.56006845
_cell_angle_alpha   90.04763493
_cell_angle_beta   90.01147427
_cell_angle_gamma   89.98942082
_symmetry_Int_Tables_number   1
_chemical_formula_structural   ZrScNbPdRh
_chemical_formula_sum   'Zr50 Sc50 Nb50 Pd50 Rh50'
_cell_volume   4538.65665134
_cell_formula_units_Z   50
loop_
 _symmetry_equiv_pos_site_id
 _symmetry_equiv_pos_as_xyz
  1  'x, y, z'
loop_
 _atom_site_type_symbol
 _atom_site_label
 _atom_site_symmetry_multiplicity
 _atom_site_fract_x
 _atom_site_fract_y
 _atom_site_fract_z
 _atom_site_occupancy
  Zr  Zr0  1  0.49789283  0.70033911  0.50188842  1
  Zr  Zr1  1  0.09955597  0.90473993  0.50034883  1
  Zr  Zr2  1  0.90412268  0.49636808  0.09892764  1
  Zr  Zr3  1  0.70088102  0.29671003  0.29465208  1
  Zr  Zr4  1  0.49712744  0.90216099  0.30038308  1
  Zr  Zr5  1  0.29273321  0.89337953  0.69938509  1
  Zr  Zr6  1  0.49762476  0.09782947  0.70068502  1
  Zr  Zr7  1  0.09882353  0.49111848  0.69463507  1
  Zr  Zr8  1  0.50727569  0.69593857  0.89588490  1
  Zr  Zr9  1  0.70320966  0.70330628  0.89394269  1
  Zr  Zr10  1  0.89720180  0.08800835  0.09831108  1
  Zr  Zr11  1  0.69882897  0.89336064  0.49519721  1
  Zr  Zr12  1  0.50377863  0.89597412  0.10940274  1
  Zr  Zr13  1  0.51135020  0.30187806  0.09496714  1
  Zr  Zr14  1  0.49644772  0.09818055  0.49936281  1
  Zr  Zr15  1  0.89918608  0.50022235  0.89584808  1
  Zr  Zr16  1  0.90312300  0.49720402  0.70770102  1
  Zr  Zr17  1  0.70310255  0.30323063  0.09890555  1
  Zr  Zr18  1  0.09863895  0.30587513  0.50072047  1
  Zr  Zr19  1  0.69916274  0.09569120  0.71463290  1
  Zr  Zr20  1  0.89640791  0.70142758  0.71390538  1
  Zr  Zr21  1  0.49285595  0.50110851  0.30918679  1
  Zr  Zr22  1  0.90177511  0.49553781  0.50857332  1
  Zr  Zr23  1  0.49659875  0.90555841  0.49416550  1
  Zr  Zr24  1  0.68748387  0.70568657  0.70136220  1
  Zr  Zr25  1  0.29703853  0.90099814  0.09645446  1
  Zr  Zr26  1  0.50776683  0.30237897  0.30321882  1
  Zr  Zr27  1  0.10588684  0.10190540  0.50091007  1
  Zr  Zr28  1  0.09983648  0.90372105  0.09948703  1
  Zr  Zr29  1  0.90822764  0.09491481  0.48151933  1
  Zr  Zr30  1  0.90532179  0.09382284  0.71119697  1
  Zr  Zr31  1  0.50155244  0.89408506  0.69814592  1
  Zr  Zr32  1  0.29906131  0.70365140  0.90280553  1
  Zr  Zr33  1  0.69762917  0.49431334  0.30200786  1
  Zr  Zr34  1  0.29817536  0.70223456  0.10326371  1
  Zr  Zr35  1  0.09635434  0.69993696  0.89752826  1
  Zr  Zr36  1  0.10209617  0.50342532  0.29543945  1
  Zr  Zr37  1  0.49933841  0.69960753  0.69888434  1
  Zr  Zr38  1  0.30451638  0.10061503  0.49725057  1
  Zr  Zr39  1  0.49926316  0.49804193  0.69483913  1
  Zr  Zr40  1  0.50628221  0.09216421  0.09249868  1
  Zr  Zr41  1  0.89729663  0.91075774  0.29966491  1
  Zr  Zr42  1  0.29561348  0.29794868  0.49881796  1
  Zr  Zr43  1  0.09910236  0.10270085  0.30016863  1
  Zr  Zr44  1  0.70283021  0.50246896  0.50063583  1
  Zr  Zr45  1  0.29714354  0.10836069  0.90324626  1
  Zr  Zr46  1  0.30411664  0.29635655  0.09445862  1
  Zr  Zr47  1  0.29643737  0.29969707  0.30296297  1
  Zr  Zr48  1  0.49704327  0.70579748  0.29423608  1
  Zr  Zr49  1  0.90053421  0.69424635  0.90430763  1
  Sc  Sc50  1  0.90125868  0.30605620  0.70948110  1
  Sc  Sc51  1  0.49904449  0.49884243  0.50065913  1
  Sc  Sc52  1  0.29015834  0.09758765  0.09643879  1
  Sc  Sc53  1  0.90048965  0.90057443  0.89771841  1
  Sc  Sc54  1  0.90735136  0.50183911  0.29571355  1
  Sc  Sc55  1  0.30869275  0.49326957  0.89994846  1
  Sc  Sc56  1  0.69783274  0.10051043  0.48558419  1
  Sc  Sc57  1  0.08985892  0.30166641  0.09658606  1
  Sc  Sc58  1  0.50004607  0.29991608  0.70048938  1
  Sc  Sc59  1  0.30049020  0.31014560  0.70611858  1
  Sc  Sc60  1  0.10012455  0.30234348  0.70555297  1
  Sc  Sc61  1  0.70472807  0.68951128  0.10642146  1
  Sc  Sc62  1  0.08514987  0.49476135  0.89703383  1
  Sc  Sc63  1  0.49746739  0.90855347  0.91037859  1
  Sc  Sc64  1  0.29149850  0.10274337  0.29947898  1
  Sc  Sc65  1  0.50905859  0.10341273  0.89835407  1
  Sc  Sc66  1  0.29524160  0.89681962  0.90757433  1
  Sc  Sc67  1  0.68949233  0.89812679  0.29722025  1
  Sc  Sc68  1  0.29970714  0.70619341  0.69134719  1
  Sc  Sc69  1  0.70097268  0.10217108  0.90275527  1
  Sc  Sc70  1  0.70417871  0.30041702  0.70776903  1
  Sc  Sc71  1  0.30131614  0.10934756  0.68910227  1
  Sc  Sc72  1  0.88765213  0.69193106  0.49090914  1
  Sc  Sc73  1  0.49238845  0.69602446  0.10195757  1
  Sc  Sc74  1  0.10112178  0.89421288  0.90359886  1
  Sc  Sc75  1  0.89837861  0.30190605  0.90594868  1
  Sc  Sc76  1  0.70035139  0.30989542  0.49739932  1
  Sc  Sc77  1  0.30018277  0.90248147  0.49655896  1
  Sc  Sc78  1  0.70032835  0.49460264  0.69575365  1
  Sc  Sc79  1  0.29733468  0.89608326  0.29631415  1
  Sc  Sc80  1  0.90124849  0.10087258  0.90471116  1
  Sc  Sc81  1  0.10929651  0.69746340  0.49546868  1
  Sc  Sc82  1  0.50186753  0.30495465  0.49669448  1
  Sc  Sc83  1  0.29817134  0.69287024  0.29690801  1
  Sc  Sc84  1  0.51057065  0.10182796  0.30783457  1
  Sc  Sc85  1  0.10259364  0.49873890  0.49772477  1
  Sc  Sc86  1  0.10382951  0.69392474  0.29590726  1
  Sc  Sc87  1  0.69975802  0.50463852  0.90767609  1
  Sc  Sc88  1  0.69847694  0.91296066  0.10976862  1
  Sc  Sc89  1  0.90171772  0.29936322  0.48982828  1
  Sc  Sc90  1  0.70076233  0.89590847  0.71069032  1
  Sc  Sc91  1  0.10850772  0.71279480  0.69971548  1
  Sc  Sc92  1  0.70161049  0.09975740  0.29292952  1
  Sc  Sc93  1  0.50265077  0.50298125  0.91185735  1
  Sc  Sc94  1  0.09526451  0.70254328  0.10486552  1
  Sc  Sc95  1  0.69866304  0.90694998  0.89481104  1
  Sc  Sc96  1  0.30154551  0.50284449  0.50047976  1
  Sc  Sc97  1  0.31089012  0.51126414  0.10039506  1
  Sc  Sc98  1  0.69913704  0.10427449  0.09728448  1
  Sc  Sc99  1  0.10609602  0.89944037  0.29424943  1
  Nb  Nb100  1  0.09860356  0.30214866  0.29832708  1
  Nb  Nb101  1  0.30165083  0.50290248  0.29682234  1
  Nb  Nb102  1  0.09420167  0.11058238  0.89463645  1
  Nb  Nb103  1  0.69470284  0.29670512  0.90371062  1
  Nb  Nb104  1  0.90012066  0.89718652  0.10144168  1
  Nb  Nb105  1  0.89898156  0.90030740  0.49691111  1
  Nb  Nb106  1  0.09764421  0.90678592  0.69531394  1
  Nb  Nb107  1  0.29989964  0.30059824  0.90366525  1
  Nb  Nb108  1  0.29822993  0.69553524  0.49991936  1
  Nb  Nb109  1  0.29977584  0.50373378  0.70027456  1
  Nb  Nb110  1  0.89953854  0.90025883  0.69527595  1
  Nb  Nb111  1  0.10238474  0.29368163  0.89886563  1
  Nb  Nb112  1  0.89906482  0.69802489  0.10755842  1
  Nb  Nb113  1  0.50690852  0.49918981  0.10447434  1
  Nb  Nb114  1  0.89872386  0.30066373  0.10392387  1
  Nb  Nb115  1  0.70057918  0.69844224  0.49838781  1
  Nb  Nb116  1  0.90076201  0.69638581  0.29072983  1
  Nb  Nb117  1  0.09443710  0.09914093  0.70339722  1
  Nb  Nb118  1  0.09448179  0.09553520  0.09425229  1
  Nb  Nb119  1  0.90717867  0.29147501  0.29387173  1
  Nb  Nb120  1  0.70574899  0.69530755  0.30260340  1
  Nb  Nb121  1  0.90288375  0.10689197  0.30064327  1
  Nb  Nb122  1  0.10152258  0.49472012  0.09997379  1
  Nb  Nb123  1  0.49955201  0.30063890  0.90190919  1
  Nb  Nb124  1  0.69573115  0.49433418  0.10736364  1
  Nb  Nb125  1  0.80258529  0.80195950  0.59752221  1
  Nb  Nb126  1  0.80133821  -0.00108149  0.59809561  1
  Nb  Nb127  1  0.19611468  0.59278697  -0.00267661  1
  Nb  Nb128  1  -0.00778600  0.80204569  0.59533888  1
  Nb  Nb129  1  0.40027808  0.00567426  0.19732009  1
  Nb  Nb130  1  0.20304283  0.40210782  0.19629129  1
  Nb  Nb131  1  -0.00771587  0.80063691  0.40020873  1
  Nb  Nb132  1  0.19342296  0.00713093  0.79580602  1
  Nb  Nb133  1  0.20420528  0.59515856  0.80042206  1
  Nb  Nb134  1  0.39045384  0.00148077  0.79970459  1
  Nb  Nb135  1  0.60776820  0.19413653  0.60210474  1
  Nb  Nb136  1  0.80591831  0.79697712  0.20031055  1
  Nb  Nb137  1  0.39990417  0.39823906  0.20092858  1
  Nb  Nb138  1  0.40514094  0.19996232  0.19733526  1
  Nb  Nb139  1  0.39704745  0.59906024  0.79489646  1
  Nb  Nb140  1  0.19921622  0.39899100  -0.00089672  1
  Nb  Nb141  1  0.80398199  0.18975827  0.59998319  1
  Nb  Nb142  1  0.59765676  0.39577406  0.81010580  1
  Nb  Nb143  1  0.80229425  0.79954063  0.01003417  1
  Nb  Nb144  1  0.60096721  0.59395805  0.20479901  1
  Nb  Nb145  1  -0.00266519  0.60740833  0.60351242  1
  Nb  Nb146  1  -0.00312288  0.19751190  0.19851080  1
  Nb  Nb147  1  0.60552322  0.00150808  0.60030644  1
  Nb  Nb148  1  -0.00340177  0.19449086  0.60277754  1
  Nb  Nb149  1  0.60862663  0.79870078  0.00601155  1
  Pd  Pd150  1  0.39986796  0.40471558  0.00618092  1
  Pd  Pd151  1  0.19775980  0.40523093  0.80999881  1
  Pd  Pd152  1  -0.00065619  0.80184218  0.20856224  1
  Pd  Pd153  1  0.79598542  -0.00654137  -0.00337250  1
  Pd  Pd154  1  -0.00735582  0.20079306  0.00530600  1
  Pd  Pd155  1  0.20384785  0.19924044  0.79181901  1
  Pd  Pd156  1  0.19240247  0.20710779  0.60757279  1
  Pd  Pd157  1  0.60093691  0.59846296  0.59676836  1
  Pd  Pd158  1  0.80358134  0.38746697  0.60339853  1
  Pd  Pd159  1  0.80355958  0.79883150  0.39354563  1
  Pd  Pd160  1  0.39537110  0.39741191  0.59515770  1
  Pd  Pd161  1  0.19145158  0.20505271  0.00599497  1
  Pd  Pd162  1  -0.00596741  0.80074715  0.00238952  1
  Pd  Pd163  1  0.80224434  0.60782812  0.60876004  1
  Pd  Pd164  1  0.78742723  0.59339488  0.79456647  1
  Pd  Pd165  1  0.19719088  0.79623440  0.39740631  1
  Pd  Pd166  1  0.00204876  0.00401704  0.20309427  1
  Pd  Pd167  1  0.20307676  0.40803180  0.39660637  1
  Pd  Pd168  1  0.80726638  0.40282866  0.20507289  1
  Pd  Pd169  1  0.40715035  0.19404590  0.00111722  1
  Pd  Pd170  1  0.40991753  0.79859581  0.00183858  1
  Pd  Pd171  1  0.00484162  0.59856917  0.00687344  1
  Pd  Pd172  1  -0.00622559  0.00276180  0.59602552  1
  Pd  Pd173  1  0.79807616  0.40078228  -0.00202313  1
  Pd  Pd174  1  0.59812045  0.60372136  0.39842125  1
  Pd  Pd175  1  0.39076391  0.79457995  0.39885480  1
  Pd  Pd176  1  0.79992313  0.59934353  0.00652397  1
  Pd  Pd177  1  0.20713866  0.00251970  0.60425694  1
  Pd  Pd178  1  0.80387947  0.19422271  0.19300997  1
  Pd  Pd179  1  0.39881399  0.19866202  0.80143420  1
  Pd  Pd180  1  0.40679203  0.21159693  0.59809868  1
  Pd  Pd181  1  0.40888405  0.40455726  0.80369600  1
  Pd  Pd182  1  0.79111649  0.00041325  0.39491521  1
  Pd  Pd183  1  0.19066617  0.00407856  -0.01159020  1
  Pd  Pd184  1  0.00540943  -0.00740247  0.81099427  1
  Pd  Pd185  1  0.40143081  0.80265904  0.80653699  1
  Pd  Pd186  1  0.60282485  0.60548423  0.01079054  1
  Pd  Pd187  1  0.39508364  0.80239227  0.59161208  1
  Pd  Pd188  1  0.00313280  0.80724769  0.79498321  1
  Pd  Pd189  1  0.19425675  0.59967666  0.60473820  1
  Pd  Pd190  1  0.79498187  0.20467392  0.40203698  1
  Pd  Pd191  1  -0.00231613  0.40197203  0.39513500  1
  Pd  Pd192  1  0.80585431  0.20227625  0.80443988  1
  Pd  Pd193  1  0.80537307  0.59001291  0.39388505  1
  Pd  Pd194  1  0.20292427  -0.00160054  0.39484163  1
  Pd  Pd195  1  0.40234976  0.19841414  0.39243262  1
  Pd  Pd196  1  0.19327731  0.20489113  0.19136916  1
  Pd  Pd197  1  0.80908693  0.40016892  0.39135592  1
  Pd  Pd198  1  0.00095120  0.60649006  0.40605112  1
  Pd  Pd199  1  0.59828336  0.79345109  0.39791366  1
  Rh  Rh200  1  0.40859369  0.59439561  0.20268013  1
  Rh  Rh201  1  0.79985459  0.00098776  0.20357566  1
  Rh  Rh202  1  0.00375405  0.39373445  0.20133198  1
  Rh  Rh203  1  0.00339180  0.59724885  0.19399629  1
  Rh  Rh204  1  0.60787429  -0.00569317  -0.00135595  1
  Rh  Rh205  1  0.19917435  0.79766804  0.19832113  1
  Rh  Rh206  1  0.59259620  0.80979075  0.81524780  1
  Rh  Rh207  1  0.60465629  0.40130941  -0.00524385  1
  Rh  Rh208  1  0.39343911  0.40069926  0.39941391  1
  Rh  Rh209  1  0.19782557  0.59437086  0.19129088  1
  Rh  Rh210  1  0.19277102  0.79028274  0.00531838  1
  Rh  Rh211  1  0.39442317  0.00566187  -0.00086465  1
  Rh  Rh212  1  0.59404944  0.40452844  0.20483281  1
  Rh  Rh213  1  0.20661048  0.39839838  0.59855377  1
  Rh  Rh214  1  -0.00288815  0.20570551  0.79938867  1
  Rh  Rh215  1  0.39164554  0.80670224  0.19854110  1
  Rh  Rh216  1  0.59337282  0.00880165  0.20365130  1
  Rh  Rh217  1  0.60339694  0.20005660  -0.00209722  1
  Rh  Rh218  1  0.39265652  0.00451717  0.38690351  1
  Rh  Rh219  1  0.80635689  -0.00205919  0.80227376  1
  Rh  Rh220  1  0.20333438  0.00155402  0.19680824  1
  Rh  Rh221  1  0.59869967  0.21042024  0.79876619  1
  Rh  Rh222  1  0.61340361  0.78444105  0.19651930  1
  Rh  Rh223  1  0.80154908  0.20329669  0.00294159  1
  Rh  Rh224  1  -0.00365936  0.39610214  0.59963857  1
  Rh  Rh225  1  0.01424864  0.60182386  0.78651786  1
  Rh  Rh226  1  0.39748158  0.60148002  0.60149710  1
  Rh  Rh227  1  0.39505631  0.60544787  0.40473280  1
  Rh  Rh228  1  0.79660955  0.59636579  0.20362639  1
  Rh  Rh229  1  0.00935741  0.20556195  0.39881488  1
  Rh  Rh230  1  0.60181699  0.40261982  0.40584671  1
  Rh  Rh231  1  0.00127803  0.39018968  0.80788854  1
  Rh  Rh232  1  0.60285768  0.39167446  0.60765074  1
  Rh  Rh233  1  0.80248161  0.80405286  0.80418709  1
  Rh  Rh234  1  0.59705375  0.19810515  0.19728452  1
  Rh  Rh235  1  0.39595334  0.60202142  -0.00695326  1
  Rh  Rh236  1  0.00425721  -0.00087835  -0.00495965  1
  Rh  Rh237  1  0.19511385  0.20145757  0.40259862  1
  Rh  Rh238  1  0.00861161  -0.00730502  0.39069203  1
  Rh  Rh239  1  0.59456625  0.58533394  0.79605920  1
  Rh  Rh240  1  0.60529802  0.80383919  0.59412671  1
  Rh  Rh241  1  0.40082610  -0.00790063  0.60746209  1
  Rh  Rh242  1  0.58587066  -0.00540014  0.79786679  1
  Rh  Rh243  1  0.19494818  0.80332437  0.59068935  1
  Rh  Rh244  1  0.60247843  -0.00139559  0.40148523  1
  Rh  Rh245  1  0.79058919  0.40195141  0.81040601  1
  Rh  Rh246  1  0.00072184  0.39539058  -0.00308582  1
  Rh  Rh247  1  0.19694136  0.80499772  0.80120969  1
  Rh  Rh248  1  0.20642690  0.59726623  0.39888135  1
  Rh  Rh249  1  0.60716003  0.20670131  0.40574904  1
