# generated using pymatgen
data_ZrScNbPdRh
_symmetry_space_group_name_H-M   'P 1'
_cell_length_a   16.55824606
_cell_length_b   16.55957594
_cell_length_c   16.56096418
_cell_angle_alpha   89.99913697
_cell_angle_beta   90.00823427
_cell_angle_gamma   89.99282791
_symmetry_Int_Tables_number   1
_chemical_formula_structural   ZrScNbPdRh
_chemical_formula_sum   'Zr50 Sc50 Nb50 Pd50 Rh50'
_cell_volume   4540.97543818
_cell_formula_units_Z   50
loop_
 _symmetry_equiv_pos_site_id
 _symmetry_equiv_pos_as_xyz
  1  'x, y, z'
loop_
 _atom_site_type_symbol
 _atom_site_label
 _atom_site_symmetry_multiplicity
 _atom_site_fract_x
 _atom_site_fract_y
 _atom_site_fract_z
 _atom_site_occupancy
  Zr  Zr0  1  0.30483322  0.29934243  0.09734047  1
  Zr  Zr1  1  0.09655710  0.10900183  0.50308323  1
  Zr  Zr2  1  0.31063768  0.10634950  0.70567307  1
  Zr  Zr3  1  0.89394731  0.70222438  0.49943953  1
  Zr  Zr4  1  0.30303064  0.70272438  0.89392846  1
  Zr  Zr5  1  0.50235214  0.29671046  0.69338437  1
  Zr  Zr6  1  0.49867291  0.70354631  0.10611210  1
  Zr  Zr7  1  0.10042479  0.30021028  0.50157374  1
  Zr  Zr8  1  0.70699194  0.49768686  0.10794833  1
  Zr  Zr9  1  0.50029026  0.50386575  0.29883398  1
  Zr  Zr10  1  0.49570558  0.50628563  0.89226815  1
  Zr  Zr11  1  0.09353868  0.88972601  0.29718838  1
  Zr  Zr12  1  0.30244496  0.09970829  0.89721465  1
  Zr  Zr13  1  0.49882802  0.89513322  0.30336903  1
  Zr  Zr14  1  0.89156469  0.30559965  0.09829674  1
  Zr  Zr15  1  0.30750486  0.50457280  0.70146881  1
  Zr  Zr16  1  0.50137613  0.70648786  0.49680883  1
  Zr  Zr17  1  0.50695360  0.90707787  0.70262250  1
  Zr  Zr18  1  0.89086655  0.89594338  0.50085655  1
  Zr  Zr19  1  0.69417783  0.10483509  0.09459151  1
  Zr  Zr20  1  0.69003508  0.90161574  0.10296130  1
  Zr  Zr21  1  0.30100316  0.69388298  0.30180228  1
  Zr  Zr22  1  0.30183995  0.90617557  0.30115274  1
  Zr  Zr23  1  0.69659252  0.90061053  0.30577530  1
  Zr  Zr24  1  0.50526223  0.30734018  0.90412856  1
  Zr  Zr25  1  0.09543292  0.49994157  0.90741281  1
  Zr  Zr26  1  0.69093259  0.09947407  0.70736226  1
  Zr  Zr27  1  0.29784086  0.09681140  0.50821227  1
  Zr  Zr28  1  0.90281067  0.90163354  0.89775286  1
  Zr  Zr29  1  0.30405793  0.50266777  0.89797590  1
  Zr  Zr30  1  0.09724498  0.29789608  0.30775816  1
  Zr  Zr31  1  0.49777376  0.09180908  0.88571442  1
  Zr  Zr32  1  0.70757863  0.28283453  0.90726767  1
  Zr  Zr33  1  0.69902622  0.50492262  0.49694528  1
  Zr  Zr34  1  0.88487470  0.10182798  0.89962818  1
  Zr  Zr35  1  0.49770244  0.90101545  0.10222590  1
  Zr  Zr36  1  0.69820984  0.51034782  0.69563467  1
  Zr  Zr37  1  0.90019755  0.69492602  0.09844051  1
  Zr  Zr38  1  0.89953353  0.50071210  0.50369390  1
  Zr  Zr39  1  0.10282107  0.69849870  0.51147756  1
  Zr  Zr40  1  0.89598180  0.88598661  0.30815269  1
  Zr  Zr41  1  0.10017673  0.31118008  0.09158491  1
  Zr  Zr42  1  0.70412791  0.69651659  0.10010950  1
  Zr  Zr43  1  0.30870077  0.30655871  0.48542005  1
  Zr  Zr44  1  0.69749416  0.88317097  0.50230638  1
  Zr  Zr45  1  0.10103538  0.51090003  0.29761294  1
  Zr  Zr46  1  0.30739875  0.10409364  0.29794899  1
  Zr  Zr47  1  0.89589539  0.10495209  0.69566270  1
  Zr  Zr48  1  0.49403606  0.29402298  0.30227477  1
  Zr  Zr49  1  0.09255654  0.10158628  0.29962865  1
  Sc  Sc50  1  0.09648574  0.89705538  0.90095870  1
  Sc  Sc51  1  0.49621485  0.70460978  0.89965054  1
  Sc  Sc52  1  0.69861925  0.70042772  0.70118120  1
  Sc  Sc53  1  0.89835601  0.49579372  0.31152904  1
  Sc  Sc54  1  0.50566169  0.09757512  0.10709734  1
  Sc  Sc55  1  0.70758747  0.69716014  0.29668567  1
  Sc  Sc56  1  0.09071548  0.50543239  0.68416701  1
  Sc  Sc57  1  0.70062156  0.08466489  0.50141634  1
  Sc  Sc58  1  0.09686712  0.90037578  0.10190471  1
  Sc  Sc59  1  0.89527448  0.29591795  0.30165579  1
  Sc  Sc60  1  0.30491437  0.30037780  0.88941069  1
  Sc  Sc61  1  0.29553076  0.50524708  0.09321376  1
  Sc  Sc62  1  0.69957922  0.89153042  0.70220307  1
  Sc  Sc63  1  0.10382709  0.88331740  0.70007554  1
  Sc  Sc64  1  0.70256282  0.30540823  0.29718260  1
  Sc  Sc65  1  0.90182899  0.09974399  0.10367222  1
  Sc  Sc66  1  0.29779383  0.89110033  0.70112980  1
  Sc  Sc67  1  0.70042215  0.49634431  0.30002678  1
  Sc  Sc68  1  0.90293662  0.69606939  0.89634754  1
  Sc  Sc69  1  0.30284659  0.69478691  0.10350848  1
  Sc  Sc70  1  0.90552883  0.90148659  0.09667972  1
  Sc  Sc71  1  0.30271643  0.91042436  0.09774796  1
  Sc  Sc72  1  0.49856848  0.89616949  0.90126424  1
  Sc  Sc73  1  0.90511498  0.30263312  0.49174724  1
  Sc  Sc74  1  0.11392889  0.11451158  0.69060948  1
  Sc  Sc75  1  0.09469522  0.08917440  0.10064964  1
  Sc  Sc76  1  0.30872585  0.90062198  0.90178198  1
  Sc  Sc77  1  0.50531085  0.49353796  0.09896006  1
  Sc  Sc78  1  0.49964879  0.09663310  0.29875548  1
  Sc  Sc79  1  0.10295850  0.29954066  0.68991812  1
  Sc  Sc80  1  0.70459401  0.49939845  0.89303960  1
  Sc  Sc81  1  0.30675542  0.50569998  0.30612603  1
  Sc  Sc82  1  0.09604808  0.49371057  0.49703764  1
  Sc  Sc83  1  0.30228549  0.29805961  0.69840258  1
  Sc  Sc84  1  0.50267392  0.50239530  0.70326816  1
  Sc  Sc85  1  0.69635415  0.10560935  0.30166674  1
  Sc  Sc86  1  0.89336891  0.88753199  0.69899918  1
  Sc  Sc87  1  0.30800311  0.89598886  0.50674286  1
  Sc  Sc88  1  0.89867871  0.30145545  0.69449376  1
  Sc  Sc89  1  0.69306479  0.30188162  0.70611540  1
  Sc  Sc90  1  0.10164030  0.50997770  0.09474411  1
  Sc  Sc91  1  0.69228466  0.29991215  0.10365623  1
  Sc  Sc92  1  0.89770687  0.50641831  0.90002749  1
  Sc  Sc93  1  0.10877013  0.30374487  0.89907486  1
  Sc  Sc94  1  0.50893359  0.70021268  0.70782036  1
  Sc  Sc95  1  0.08935267  0.70309200  0.89370008  1
  Sc  Sc96  1  0.29831168  0.50351430  0.49621756  1
  Sc  Sc97  1  0.10094275  0.09741171  0.90150485  1
  Sc  Sc98  1  0.50377699  0.49884387  0.49906478  1
  Sc  Sc99  1  0.89993495  0.50194567  0.08862001  1
  Nb  Nb100  1  0.69435812  0.70323857  0.89821774  1
  Nb  Nb101  1  0.89774660  0.10152941  0.30655189  1
  Nb  Nb102  1  0.48516205  0.69258931  0.29699791  1
  Nb  Nb103  1  0.28267838  0.70534562  0.69061322  1
  Nb  Nb104  1  0.50887684  0.90217904  0.50246880  1
  Nb  Nb105  1  0.09542747  0.90208266  0.49583111  1
  Nb  Nb106  1  0.89805012  0.10101482  0.50020948  1
  Nb  Nb107  1  0.89821136  0.50058967  0.69969507  1
  Nb  Nb108  1  0.69255909  0.30651484  0.50688670  1
  Nb  Nb109  1  0.70350129  0.90121562  0.89969014  1
  Nb  Nb110  1  0.69821784  0.69203728  0.51065788  1
  Nb  Nb111  1  0.50564517  0.29386811  0.10141028  1
  Nb  Nb112  1  0.70139890  0.09477859  0.90118907  1
  Nb  Nb113  1  0.50769741  0.30187642  0.50360614  1
  Nb  Nb114  1  0.10258386  0.69807435  0.70099492  1
  Nb  Nb115  1  0.90004133  0.29992323  0.89881743  1
  Nb  Nb116  1  0.50168216  0.09926308  0.69548080  1
  Nb  Nb117  1  0.29900809  0.70109402  0.50490845  1
  Nb  Nb118  1  0.30411851  0.09976309  0.09825487  1
  Nb  Nb119  1  0.10147632  0.69971242  0.11467692  1
  Nb  Nb120  1  0.91449842  0.70510315  0.30011416  1
  Nb  Nb121  1  0.09805116  0.70297104  0.29098858  1
  Nb  Nb122  1  0.91495351  0.68873068  0.70061543  1
  Nb  Nb123  1  0.50401731  0.09641866  0.52097532  1
  Nb  Nb124  1  0.30348138  0.29824589  0.29803430  1
  Nb  Nb125  1  0.79944048  -0.00030902  0.20676732  1
  Nb  Nb126  1  -0.00068051  0.39914995  0.79922531  1
  Nb  Nb127  1  0.19762005  0.79889094  0.40062755  1
  Nb  Nb128  1  0.59629069  0.20312048  0.41559253  1
  Nb  Nb129  1  -0.00075191  -0.00011827  0.59817757  1
  Nb  Nb130  1  -0.00160411  0.20481931  -0.00541036  1
  Nb  Nb131  1  0.39838077  0.39352466  0.20010900  1
  Nb  Nb132  1  0.79261549  0.80173989  -0.00548655  1
  Nb  Nb133  1  0.79291745  0.20322066  0.59312258  1
  Nb  Nb134  1  0.19878718  0.00134375  0.79685845  1
  Nb  Nb135  1  0.20370687  0.19613183  0.00480803  1
  Nb  Nb136  1  0.00316206  0.00555185  0.78914097  1
  Nb  Nb137  1  0.20268494  0.20293826  0.19693285  1
  Nb  Nb138  1  0.19848918  0.79549731  0.00409899  1
  Nb  Nb139  1  -0.00220856  0.20273740  0.80328119  1
  Nb  Nb140  1  0.20293970  0.39650803  0.20414450  1
  Nb  Nb141  1  0.19578168  0.60175950  0.79321350  1
  Nb  Nb142  1  0.40318554  0.19688860  0.00141080  1
  Nb  Nb143  1  0.79474258  0.40190743  0.59796010  1
  Nb  Nb144  1  0.19585242  0.41178491  0.79600539  1
  Nb  Nb145  1  0.19302210  -0.00332658  0.40234112  1
  Nb  Nb146  1  0.00425637  0.40099840  0.19966804  1
  Nb  Nb147  1  0.39536549  0.61172250  0.59942700  1
  Nb  Nb148  1  -0.00497666  0.00117211  0.40465008  1
  Nb  Nb149  1  0.60515813  0.60299599  -0.00044467  1
  Pd  Pd150  1  0.19522132  0.60631800  0.40351338  1
  Pd  Pd151  1  0.80035496  -0.00509311  0.01156841  1
  Pd  Pd152  1  0.19785498  -0.00480172  -0.00573492  1
  Pd  Pd153  1  0.00329396  0.60610860  0.40489257  1
  Pd  Pd154  1  0.80200391  0.60479612  0.39414110  1
  Pd  Pd155  1  0.20578811  0.40176374  0.60246743  1
  Pd  Pd156  1  -0.01168354  -0.00619368  0.21013826  1
  Pd  Pd157  1  -0.00296006  0.80292675  0.60150239  1
  Pd  Pd158  1  0.60178320  0.40236806  0.79942044  1
  Pd  Pd159  1  0.80414391  0.78963310  0.80206590  1
  Pd  Pd160  1  0.20366624  0.19373394  0.39903504  1
  Pd  Pd161  1  0.59231850  0.00689278  0.40331147  1
  Pd  Pd162  1  0.39890710  -0.00713066  0.60636676  1
  Pd  Pd163  1  0.59362850  0.00163279  -0.00702938  1
  Pd  Pd164  1  0.41087542  0.18765172  0.41435190  1
  Pd  Pd165  1  0.39464905  0.80134499  0.40264341  1
  Pd  Pd166  1  0.78961317  0.20487609  0.40813732  1
  Pd  Pd167  1  -0.00966071  0.59015234  0.19845385  1
  Pd  Pd168  1  0.20024965  0.40597847  0.39314163  1
  Pd  Pd169  1  0.00217063  0.79421665  0.00447061  1
  Pd  Pd170  1  0.40190768  0.79964039  0.79052030  1
  Pd  Pd171  1  0.80065983  -0.00013614  0.39578284  1
  Pd  Pd172  1  0.80426912  0.39559729  0.79441760  1
  Pd  Pd173  1  0.00301248  0.20868561  0.18982726  1
  Pd  Pd174  1  0.79303506  0.40184953  -0.00502349  1
  Pd  Pd175  1  0.79589851  0.19403922  0.19785031  1
  Pd  Pd176  1  0.80072279  -0.00502426  0.79146984  1
  Pd  Pd177  1  0.40099230  0.39781231  0.00380223  1
  Pd  Pd178  1  0.39044354  0.80454748  0.19707199  1
  Pd  Pd179  1  0.59863183  0.60735971  0.39502705  1
  Pd  Pd180  1  0.60336339  0.78547594  0.39194258  1
  Pd  Pd181  1  0.59945035  0.39617029  0.39314138  1
  Pd  Pd182  1  0.41112283  0.60162464  0.00532949  1
  Pd  Pd183  1  0.19284623  0.61379325  -0.00882881  1
  Pd  Pd184  1  0.39731781  0.20635896  0.59317167  1
  Pd  Pd185  1  0.81240296  0.59314558  0.21013500  1
  Pd  Pd186  1  0.19951800  0.00601436  0.20439091  1
  Pd  Pd187  1  0.61062103  0.40810999  -0.00161812  1
  Pd  Pd188  1  0.40375482  0.00340738  0.40865129  1
  Pd  Pd189  1  0.80043034  0.60810357  0.79887706  1
  Pd  Pd190  1  0.41060162  0.79712824  0.60805738  1
  Pd  Pd191  1  0.59837465  0.79229235  0.21087365  1
  Pd  Pd192  1  0.21019123  0.80175367  0.19619337  1
  Pd  Pd193  1  0.19425859  -0.00830838  0.60447860  1
  Pd  Pd194  1  0.80443197  0.80604750  0.19141621  1
  Pd  Pd195  1  0.59945186  0.79672326  -0.00364334  1
  Pd  Pd196  1  0.59640718  0.20173494  0.80507672  1
  Pd  Pd197  1  0.40296216  0.40809842  0.59898577  1
  Pd  Pd198  1  0.79776116  0.00017975  0.60645712  1
  Pd  Pd199  1  0.59911670  0.60110341  0.19737722  1
  Rh  Rh200  1  0.79926918  0.78515477  0.60706887  1
  Rh  Rh201  1  0.79630433  0.39711578  0.40732870  1
  Rh  Rh202  1  0.19716439  0.79951643  0.81286668  1
  Rh  Rh203  1  -0.00649232  0.19823431  0.40273869  1
  Rh  Rh204  1  0.00431054  0.60902979  0.00301487  1
  Rh  Rh205  1  0.58967129  0.19040028  -0.00891045  1
  Rh  Rh206  1  0.80408388  0.19768108  0.01028574  1
  Rh  Rh207  1  0.19263389  0.19999919  0.80550497  1
  Rh  Rh208  1  -0.00321198  0.80388665  0.79382155  1
  Rh  Rh209  1  0.60585080  -0.00645421  0.80390428  1
  Rh  Rh210  1  0.81096835  0.40528547  0.20283840  1
  Rh  Rh211  1  -0.00972508  0.39771754  0.60283353  1
  Rh  Rh212  1  0.79943817  0.20563954  0.78984284  1
  Rh  Rh213  1  0.39212974  0.61542074  0.78670204  1
  Rh  Rh214  1  0.58852654  0.60319105  0.59729876  1
  Rh  Rh215  1  0.00696257  0.79284913  0.40695174  1
  Rh  Rh216  1  0.19665241  0.80825295  0.58844708  1
  Rh  Rh217  1  -0.00837814  0.39734754  -0.00287419  1
  Rh  Rh218  1  0.20558279  0.59461914  0.20159216  1
  Rh  Rh219  1  0.59809135  0.79813634  0.60308405  1
  Rh  Rh220  1  0.00501178  0.58873191  0.79692488  1
  Rh  Rh221  1  0.40515206  0.60046488  0.41204860  1
  Rh  Rh222  1  0.60808383  -0.00778840  0.60215834  1
  Rh  Rh223  1  0.40948414  0.00674736  0.00337447  1
  Rh  Rh224  1  0.39961760  0.58682594  0.19344675  1
  Rh  Rh225  1  0.39299745  -0.00795608  0.79144405  1
  Rh  Rh226  1  -0.00315780  0.60085084  0.59418236  1
  Rh  Rh227  1  -0.00938504  0.20103703  0.60152151  1
  Rh  Rh228  1  0.79191412  0.60743259  -0.00927149  1
  Rh  Rh229  1  0.60234820  0.40966464  0.60468464  1
  Rh  Rh230  1  0.60039682  0.80592447  0.80489474  1
  Rh  Rh231  1  0.60252809  0.60079814  0.80898544  1
  Rh  Rh232  1  0.40095080  0.39333073  0.79262446  1
  Rh  Rh233  1  0.60823358  0.19449426  0.59765745  1
  Rh  Rh234  1  0.60098654  0.20283151  0.21121065  1
  Rh  Rh235  1  0.39217846  0.80048014  0.00702326  1
  Rh  Rh236  1  0.79159094  0.78616085  0.40155232  1
  Rh  Rh237  1  0.60552080  0.00106791  0.20798193  1
  Rh  Rh238  1  0.40184124  0.19988432  0.19202194  1
  Rh  Rh239  1  0.59178169  0.39526114  0.20375559  1
  Rh  Rh240  1  0.80519084  0.60040620  0.60561494  1
  Rh  Rh241  1  -0.00713949  0.79960031  0.19070568  1
  Rh  Rh242  1  0.21260338  0.39696782  -0.00843406  1
  Rh  Rh243  1  0.41319299  0.20823030  0.80237609  1
  Rh  Rh244  1  -0.00558775  0.00951267  -0.01148011  1
  Rh  Rh245  1  0.20434464  0.59106328  0.60109127  1
  Rh  Rh246  1  0.21507998  0.21424996  0.58908992  1
  Rh  Rh247  1  0.40604092  0.40595155  0.39568231  1
  Rh  Rh248  1  0.00148358  0.40030308  0.39389544  1
  Rh  Rh249  1  0.40488941  -0.00028565  0.19924020  1
