# generated using pymatgen
data_ZrScNbPdRh
_symmetry_space_group_name_H-M   'P 1'
_cell_length_a   16.55697201
_cell_length_b   16.55796219
_cell_length_c   16.55455921
_cell_angle_alpha   89.99417538
_cell_angle_beta   89.99298153
_cell_angle_gamma   90.05627511
_symmetry_Int_Tables_number   1
_chemical_formula_structural   ZrScNbPdRh
_chemical_formula_sum   'Zr50 Sc50 Nb50 Pd50 Rh50'
_cell_volume   4538.42546855
_cell_formula_units_Z   50
loop_
 _symmetry_equiv_pos_site_id
 _symmetry_equiv_pos_as_xyz
  1  'x, y, z'
loop_
 _atom_site_type_symbol
 _atom_site_label
 _atom_site_symmetry_multiplicity
 _atom_site_fract_x
 _atom_site_fract_y
 _atom_site_fract_z
 _atom_site_occupancy
  Zr  Zr0  1  0.09626853  0.70251494  0.89356159  1
  Zr  Zr1  1  0.70036616  0.10026155  0.10742154  1
  Zr  Zr2  1  0.50347293  0.90225406  0.89515805  1
  Zr  Zr3  1  0.68919537  0.30400799  0.51366930  1
  Zr  Zr4  1  0.89731254  0.69875956  0.70021013  1
  Zr  Zr5  1  0.31070977  0.89898733  0.69781077  1
  Zr  Zr6  1  0.50195848  0.10132648  0.29666245  1
  Zr  Zr7  1  0.51417582  0.30359729  0.69623645  1
  Zr  Zr8  1  0.89641369  0.50196927  0.10494010  1
  Zr  Zr9  1  0.10842553  0.50188831  0.70076947  1
  Zr  Zr10  1  0.89607637  0.09640782  0.50457719  1
  Zr  Zr11  1  0.28871306  0.70316335  0.09871253  1
  Zr  Zr12  1  0.70236626  0.30317383  0.89615468  1
  Zr  Zr13  1  0.10665847  0.30204083  0.30952025  1
  Zr  Zr14  1  0.09301547  0.29355065  0.09977836  1
  Zr  Zr15  1  0.29150030  0.89578869  0.30106118  1
  Zr  Zr16  1  0.69939539  0.90256886  0.90164565  1
  Zr  Zr17  1  0.31153804  0.49832654  0.29797198  1
  Zr  Zr18  1  0.50189321  0.68795176  0.09921076  1
  Zr  Zr19  1  0.50672099  0.89448129  0.29877945  1
  Zr  Zr20  1  0.90606637  0.10842398  0.69854666  1
  Zr  Zr21  1  0.70162971  0.50073041  0.09588315  1
  Zr  Zr22  1  0.49045865  0.29479291  0.29680905  1
  Zr  Zr23  1  0.50311299  0.10729165  0.49195063  1
  Zr  Zr24  1  0.69862078  0.09474852  0.30207763  1
  Zr  Zr25  1  0.30441210  0.70511605  0.69529120  1
  Zr  Zr26  1  0.70079551  0.50670947  0.29961906  1
  Zr  Zr27  1  0.91356322  0.10604669  0.10418201  1
  Zr  Zr28  1  0.10074287  0.49099867  0.49705794  1
  Zr  Zr29  1  0.70581905  0.50253918  0.89697821  1
  Zr  Zr30  1  0.09626579  0.50072734  0.09188120  1
  Zr  Zr31  1  0.89912179  0.50606328  0.90554204  1
  Zr  Zr32  1  0.69678724  0.50149592  0.50090050  1
  Zr  Zr33  1  0.89722786  0.70133064  0.89801138  1
  Zr  Zr34  1  0.89603442  0.30345486  0.50456126  1
  Zr  Zr35  1  0.50152707  0.70203886  0.89287815  1
  Zr  Zr36  1  0.10114770  0.90317384  0.09524312  1
  Zr  Zr37  1  0.89166689  0.09919726  0.30329648  1
  Zr  Zr38  1  0.69927739  0.90264790  0.10014893  1
  Zr  Zr39  1  0.71273947  0.30575010  0.70141093  1
  Zr  Zr40  1  0.09999353  0.09551993  0.49797174  1
  Zr  Zr41  1  0.91224000  0.09530587  0.89397191  1
  Zr  Zr42  1  0.70296383  0.09972069  0.49814048  1
  Zr  Zr43  1  0.69705749  0.88884454  0.50041249  1
  Zr  Zr44  1  0.90366081  0.90065078  0.90222296  1
  Zr  Zr45  1  0.30673314  0.09981281  0.89855043  1
  Zr  Zr46  1  0.69567499  0.69957563  0.50262212  1
  Zr  Zr47  1  0.09815166  0.09729767  0.70754612  1
  Zr  Zr48  1  0.50802716  0.50681384  0.90064889  1
  Zr  Zr49  1  0.29476859  0.89044410  0.50218195  1
  Sc  Sc50  1  0.88803698  0.50487610  0.70339058  1
  Sc  Sc51  1  0.09883215  0.90252001  0.30304487  1
  Sc  Sc52  1  0.49783942  0.69722074  0.69901979  1
  Sc  Sc53  1  0.28119670  0.50167979  0.90112027  1
  Sc  Sc54  1  0.89765463  0.89778993  0.09775394  1
  Sc  Sc55  1  0.69488171  0.50125607  0.70081522  1
  Sc  Sc56  1  0.69739687  0.70325045  0.89510535  1
  Sc  Sc57  1  0.49191516  0.09394183  0.70859681  1
  Sc  Sc58  1  0.09322620  0.71133770  0.29516040  1
  Sc  Sc59  1  0.29677844  0.69954104  0.89952217  1
  Sc  Sc60  1  0.70446870  0.70180530  0.10375776  1
  Sc  Sc61  1  0.49822300  0.09766779  0.10160073  1
  Sc  Sc62  1  0.10293457  0.29162077  0.69941608  1
  Sc  Sc63  1  0.29969700  0.10066685  0.49153609  1
  Sc  Sc64  1  0.09957600  0.89681759  0.49028147  1
  Sc  Sc65  1  0.29565363  0.90627982  0.10010494  1
  Sc  Sc66  1  0.10201769  0.30381131  0.90499848  1
  Sc  Sc67  1  0.90192785  0.70114661  0.10114966  1
  Sc  Sc68  1  0.50097462  0.29114549  0.10319446  1
  Sc  Sc69  1  0.89637640  0.70179325  0.29401768  1
  Sc  Sc70  1  0.29126503  0.29934278  0.49203680  1
  Sc  Sc71  1  0.70065571  0.29607838  0.29214683  1
  Sc  Sc72  1  0.50882500  0.50808261  0.49900394  1
  Sc  Sc73  1  0.70453845  0.30412210  0.10252732  1
  Sc  Sc74  1  0.70099192  0.89425856  0.29955915  1
  Sc  Sc75  1  0.50115516  0.09618022  0.90495580  1
  Sc  Sc76  1  0.50259507  0.91026493  0.09761603  1
  Sc  Sc77  1  0.89504894  0.50633433  0.50461654  1
  Sc  Sc78  1  0.29925545  0.90294241  0.89615243  1
  Sc  Sc79  1  0.10698489  0.30224080  0.50038821  1
  Sc  Sc80  1  0.89761965  0.89686937  0.30300355  1
  Sc  Sc81  1  0.10892605  0.89486164  0.70690816  1
  Sc  Sc82  1  0.70083613  0.09639238  0.90019062  1
  Sc  Sc83  1  0.09370804  0.49606675  0.30533179  1
  Sc  Sc84  1  0.90779074  0.29957081  0.89966295  1
  Sc  Sc85  1  0.30292143  0.49926228  0.50087310  1
  Sc  Sc86  1  0.30802352  0.29556975  0.11007893  1
  Sc  Sc87  1  0.29914833  0.09893557  0.70667589  1
  Sc  Sc88  1  0.89351734  0.90698709  0.70122239  1
  Sc  Sc89  1  0.09436813  0.70726834  0.09880674  1
  Sc  Sc90  1  0.30039546  0.50214135  0.09267436  1
  Sc  Sc91  1  0.69815270  0.89333074  0.70316758  1
  Sc  Sc92  1  0.29086083  0.29886815  0.70192309  1
  Sc  Sc93  1  0.71303501  0.09989714  0.70104561  1
  Sc  Sc94  1  0.29538294  0.10674180  0.29625217  1
  Sc  Sc95  1  0.89328415  0.30050801  0.29781183  1
  Sc  Sc96  1  0.50819757  0.29019981  0.89660621  1
  Sc  Sc97  1  0.49795286  0.88984369  0.50620740  1
  Sc  Sc98  1  0.89649501  0.89906084  0.49676463  1
  Sc  Sc99  1  0.10248881  0.70943231  0.49694686  1
  Nb  Nb100  1  0.49888568  0.49666123  0.10052092  1
  Nb  Nb101  1  0.09755337  0.09250423  0.90316617  1
  Nb  Nb102  1  0.49834721  0.69533741  0.49902686  1
  Nb  Nb103  1  0.10509543  0.10251831  0.10277185  1
  Nb  Nb104  1  0.49785484  0.89725885  0.69912136  1
  Nb  Nb105  1  0.69592981  0.70327720  0.69746064  1
  Nb  Nb106  1  0.30598731  0.30098069  0.90268311  1
  Nb  Nb107  1  0.90185641  0.30167855  0.09961809  1
  Nb  Nb108  1  0.90096491  0.49805248  0.30163105  1
  Nb  Nb109  1  0.49811753  0.68796921  0.30061038  1
  Nb  Nb110  1  0.68723525  0.70224088  0.29883981  1
  Nb  Nb111  1  0.49109193  0.50652428  0.70013468  1
  Nb  Nb112  1  0.90311399  0.30305339  0.70280409  1
  Nb  Nb113  1  0.09286383  0.91040843  0.89900033  1
  Nb  Nb114  1  0.30176072  0.69620904  0.30073900  1
  Nb  Nb115  1  0.09888443  0.10399107  0.29724546  1
  Nb  Nb116  1  0.09591855  0.49933894  0.90151484  1
  Nb  Nb117  1  0.30415338  0.49926650  0.69532729  1
  Nb  Nb118  1  0.10136027  0.69996626  0.69589575  1
  Nb  Nb119  1  0.29699656  0.09794554  0.09785137  1
  Nb  Nb120  1  0.30141717  0.29964719  0.29984067  1
  Nb  Nb121  1  0.50064681  0.50703946  0.29530539  1
  Nb  Nb122  1  0.90070458  0.70231336  0.50377845  1
  Nb  Nb123  1  0.50101086  0.30175040  0.50069378  1
  Nb  Nb124  1  0.30178405  0.70068759  0.49810798  1
  Nb  Nb125  1  0.40058761  -0.00857446  0.39739313  1
  Nb  Nb126  1  0.40378293  0.39804164  0.60107694  1
  Nb  Nb127  1  0.80842422  0.19978712  0.00330920  1
  Nb  Nb128  1  0.40417212  0.20794846  0.59593863  1
  Nb  Nb129  1  0.59164761  0.40890191  0.20093631  1
  Nb  Nb130  1  0.40047322  0.79318817  0.20088832  1
  Nb  Nb131  1  -0.00178953  0.60306444  0.40184306  1
  Nb  Nb132  1  0.20165529  0.60382628  0.39826365  1
  Nb  Nb133  1  0.40322499  0.39884377  -0.00781769  1
  Nb  Nb134  1  -0.00183327  0.40166076  0.60804589  1
  Nb  Nb135  1  0.39823673  0.40343318  0.80005596  1
  Nb  Nb136  1  0.40151536  0.79055715  0.39505579  1
  Nb  Nb137  1  0.20148443  0.19156531  0.00319034  1
  Nb  Nb138  1  0.59598382  -0.00329895  0.60119888  1
  Nb  Nb139  1  0.20175491  -0.00306874  0.59943521  1
  Nb  Nb140  1  0.79514554  0.40485963  0.40109949  1
  Nb  Nb141  1  -0.00155525  0.39986833  0.19871932  1
  Nb  Nb142  1  0.00281775  0.40603282  0.79781657  1
  Nb  Nb143  1  0.19717270  0.59720083  0.20525208  1
  Nb  Nb144  1  -0.00096971  0.19729742  0.40042953  1
  Nb  Nb145  1  0.19892562  0.40068762  0.20186689  1
  Nb  Nb146  1  0.40873656  0.39770069  0.40023213  1
  Nb  Nb147  1  0.20298821  0.60552384  0.59818476  1
  Nb  Nb148  1  -0.00107597  0.79436194  0.60246865  1
  Nb  Nb149  1  0.40253001  0.79889919  0.00436146  1
  Pd  Pd150  1  0.79146129  0.60160583  0.60401712  1
  Pd  Pd151  1  0.79737505  0.21061549  0.40488475  1
  Pd  Pd152  1  0.80080015  0.79297079  0.39599949  1
  Pd  Pd153  1  0.80472318  -0.00565758  0.20104392  1
  Pd  Pd154  1  0.59315674  0.39173405  0.00602998  1
  Pd  Pd155  1  0.59544421  0.79872385  0.00484956  1
  Pd  Pd156  1  0.39608742  -0.00248740  0.20567738  1
  Pd  Pd157  1  0.59941065  0.39627842  0.38914687  1
  Pd  Pd158  1  0.20284187  0.80200270  0.80418114  1
  Pd  Pd159  1  0.80566273  0.19878755  0.80908116  1
  Pd  Pd160  1  0.40308462  0.21005832  0.79103481  1
  Pd  Pd161  1  0.61055244  0.19838336  0.00316383  1
  Pd  Pd162  1  0.20443168  0.60418909  0.79552787  1
  Pd  Pd163  1  0.60552399  0.18962427  0.79414874  1
  Pd  Pd164  1  0.80623266  0.39325253  -0.00405756  1
  Pd  Pd165  1  0.59741408  0.40720816  0.79806989  1
  Pd  Pd166  1  0.19601331  0.00214251  0.20484805  1
  Pd  Pd167  1  0.59595974  -0.00897055  0.40774486  1
  Pd  Pd168  1  0.38951607  0.59443886  0.80887141  1
  Pd  Pd169  1  0.40062388  0.01040122  0.59030446  1
  Pd  Pd170  1  0.19487420  0.19874519  0.81337344  1
  Pd  Pd171  1  -0.00275827  0.80932086  0.19804125  1
  Pd  Pd172  1  0.00993123  -0.01592327  0.60469314  1
  Pd  Pd173  1  -0.00036425  0.59446209  0.79777680  1
  Pd  Pd174  1  0.39836235  0.20232633  0.00477998  1
  Pd  Pd175  1  0.59838567  0.18468715  0.61151972  1
  Pd  Pd176  1  0.79923707  0.79602494  0.00193991  1
  Pd  Pd177  1  0.60459753  0.00370177  0.79124329  1
  Pd  Pd178  1  0.00780017  0.59998774  0.59359399  1
  Pd  Pd179  1  0.80438674  0.60364575  0.39733930  1
  Pd  Pd180  1  0.00025781  0.60855275  0.00123536  1
  Pd  Pd181  1  0.60731038  0.20940144  0.39472202  1
  Pd  Pd182  1  0.00340959  0.20787310  0.59250242  1
  Pd  Pd183  1  0.19994635  0.80551752  -0.00971326  1
  Pd  Pd184  1  0.20885034  0.19076376  0.59771866  1
  Pd  Pd185  1  0.39140840  0.60219515  0.18985006  1
  Pd  Pd186  1  -0.00277815  0.00351976  0.39530896  1
  Pd  Pd187  1  0.20896989  0.38783435  0.01061089  1
  Pd  Pd188  1  0.19913996  0.39678994  0.80047442  1
  Pd  Pd189  1  0.79038110  -0.00841591  0.60012618  1
  Pd  Pd190  1  0.60940285  0.60518188  -0.00109491  1
  Pd  Pd191  1  -0.00106322  0.20720724  0.21342775  1
  Pd  Pd192  1  0.79762886  0.80213836  0.79922340  1
  Pd  Pd193  1  0.59446379  0.79642362  0.19260016  1
  Pd  Pd194  1  0.79928060  0.60639576  0.20247119  1
  Pd  Pd195  1  0.20224974  0.00204374  -0.00618835  1
  Pd  Pd196  1  0.80672392  0.00976543  0.00063553  1
  Pd  Pd197  1  -0.00230358  0.80623338  0.79192257  1
  Pd  Pd198  1  0.00055789  -0.00610722  0.20109495  1
  Pd  Pd199  1  0.39457356  0.59839436  -0.00695438  1
  Rh  Rh200  1  0.60138618  0.60577413  0.39922399  1
  Rh  Rh201  1  0.39631210  0.59781077  0.59415375  1
  Rh  Rh202  1  -0.00726018  0.79359061  0.40532377  1
  Rh  Rh203  1  0.39889664  -0.00557264  -0.00087256  1
  Rh  Rh204  1  0.80091736  0.40091969  0.20640598  1
  Rh  Rh205  1  0.79666626  0.60905367  -0.00112041  1
  Rh  Rh206  1  0.40837412  0.79035628  0.59581903  1
  Rh  Rh207  1  0.59357185  0.79919839  0.60576207  1
  Rh  Rh208  1  0.20246324  0.20428633  0.19581004  1
  Rh  Rh209  1  0.00468588  0.59147478  0.20800035  1
  Rh  Rh210  1  0.79981640  0.20225854  0.60174018  1
  Rh  Rh211  1  0.40051605  -0.00446257  0.80471356  1
  Rh  Rh212  1  -0.00635236  0.40317200  -0.00102714  1
  Rh  Rh213  1  0.39972374  0.59706991  0.40800308  1
  Rh  Rh214  1  0.79520719  -0.00769466  0.40088389  1
  Rh  Rh215  1  0.19238816  0.80043961  0.60194105  1
  Rh  Rh216  1  0.39555318  0.18850941  0.19744516  1
  Rh  Rh217  1  0.00739716  0.20825801  0.80569271  1
  Rh  Rh218  1  0.80117596  0.19999569  0.19116162  1
  Rh  Rh219  1  0.80409087  0.40442520  0.59804208  1
  Rh  Rh220  1  0.59311769  0.78957562  0.40011266  1
  Rh  Rh221  1  0.80937808  0.40164605  0.80460051  1
  Rh  Rh222  1  0.18779037  0.60753661  0.00155510  1
  Rh  Rh223  1  0.00191724  0.80170606  -0.00325954  1
  Rh  Rh224  1  0.39546765  0.20188356  0.40403578  1
  Rh  Rh225  1  0.79970659  -0.00061666  0.80320311  1
  Rh  Rh226  1  -0.00014280  -0.00072759  0.00910581  1
  Rh  Rh227  1  0.60061279  0.20329739  0.19963072  1
  Rh  Rh228  1  0.20156455  0.40370089  0.60334467  1
  Rh  Rh229  1  0.60433493  0.59605583  0.19662780  1
  Rh  Rh230  1  0.19531780  0.19375468  0.39714671  1
  Rh  Rh231  1  0.59755532  0.79787057  0.79280660  1
  Rh  Rh232  1  0.20388109  0.00471242  0.40101459  1
  Rh  Rh233  1  0.59310080  0.41371703  0.60528656  1
  Rh  Rh234  1  0.40207893  0.40112557  0.19683412  1
  Rh  Rh235  1  0.00388255  0.19525011  -0.00664151  1
  Rh  Rh236  1  0.20166733  -0.00064323  0.79667777  1
  Rh  Rh237  1  0.19974080  0.79637208  0.20274651  1
  Rh  Rh238  1  0.40212856  0.80199823  0.80697467  1
  Rh  Rh239  1  -0.01692373  0.39910655  0.40404929  1
  Rh  Rh240  1  0.20084846  0.79134353  0.39294301  1
  Rh  Rh241  1  0.60146951  0.00358458  0.00096128  1
  Rh  Rh242  1  0.00092783  -0.00589725  0.79198757  1
  Rh  Rh243  1  0.21600988  0.40748876  0.39302270  1
  Rh  Rh244  1  0.60274840  -0.00070846  0.20046345  1
  Rh  Rh245  1  0.80576326  0.79899090  0.60213421  1
  Rh  Rh246  1  0.59874693  0.60337595  0.60581183  1
  Rh  Rh247  1  0.79633673  0.79938695  0.20177895  1
  Rh  Rh248  1  0.60413184  0.60326154  0.79311634  1
  Rh  Rh249  1  0.79206935  0.60596399  0.79791645  1
