# generated using pymatgen
data_ZrScNbPdRh
_symmetry_space_group_name_H-M   'P 1'
_cell_length_a   16.56085641
_cell_length_b   16.55738404
_cell_length_c   16.55617739
_cell_angle_alpha   89.99958225
_cell_angle_beta   89.98512360
_cell_angle_gamma   89.99818616
_symmetry_Int_Tables_number   1
_chemical_formula_structural   ZrScNbPdRh
_chemical_formula_sum   'Zr50 Sc50 Nb50 Pd50 Rh50'
_cell_volume   4539.77752032
_cell_formula_units_Z   50
loop_
 _symmetry_equiv_pos_site_id
 _symmetry_equiv_pos_as_xyz
  1  'x, y, z'
loop_
 _atom_site_type_symbol
 _atom_site_label
 _atom_site_symmetry_multiplicity
 _atom_site_fract_x
 _atom_site_fract_y
 _atom_site_fract_z
 _atom_site_occupancy
  Zr  Zr0  1  0.49662278  0.50035698  0.69286473  1
  Zr  Zr1  1  0.69941099  0.89520993  0.50245083  1
  Zr  Zr2  1  0.69463235  0.09967019  0.09216391  1
  Zr  Zr3  1  0.91221243  0.70334780  0.09872006  1
  Zr  Zr4  1  0.29845495  0.89546303  0.10699091  1
  Zr  Zr5  1  0.10220287  0.50716622  0.49372236  1
  Zr  Zr6  1  0.89177409  0.49775674  0.69555071  1
  Zr  Zr7  1  0.69207786  0.89389143  0.30560009  1
  Zr  Zr8  1  0.90283778  0.28512708  0.29797843  1
  Zr  Zr9  1  0.69363984  0.69766498  0.10186114  1
  Zr  Zr10  1  0.89238238  0.10287476  0.10637003  1
  Zr  Zr11  1  0.50115285  0.29513400  0.89429586  1
  Zr  Zr12  1  0.49865425  0.89980701  0.49728897  1
  Zr  Zr13  1  0.89852673  0.10540671  0.70480300  1
  Zr  Zr14  1  0.70434759  0.29729733  0.69650101  1
  Zr  Zr15  1  0.09709083  0.69222044  0.30107243  1
  Zr  Zr16  1  0.49109384  0.89992753  0.30421350  1
  Zr  Zr17  1  0.90902114  0.89616365  0.09533970  1
  Zr  Zr18  1  0.90015286  0.50431387  0.30497674  1
  Zr  Zr19  1  0.90251563  0.69949613  0.70153223  1
  Zr  Zr20  1  0.29375275  0.69333509  0.89600896  1
  Zr  Zr21  1  0.70137117  0.50653670  0.30248220  1
  Zr  Zr22  1  0.10297211  0.29699754  0.10240631  1
  Zr  Zr23  1  0.69996625  0.70165124  0.30555546  1
  Zr  Zr24  1  0.29937856  0.90708991  0.69594896  1
  Zr  Zr25  1  0.29548651  0.10621222  0.29526600  1
  Zr  Zr26  1  0.10422251  0.70218723  0.49706289  1
  Zr  Zr27  1  0.49809617  0.10387767  0.50389996  1
  Zr  Zr28  1  0.10312567  0.70182674  0.09476636  1
  Zr  Zr29  1  0.09980464  0.30065935  0.89814595  1
  Zr  Zr30  1  0.90050396  0.29588786  0.88905578  1
  Zr  Zr31  1  0.90182004  0.09810060  0.89643328  1
  Zr  Zr32  1  0.30236055  0.89955024  0.49542850  1
  Zr  Zr33  1  0.70376657  0.09737840  0.29632931  1
  Zr  Zr34  1  0.49663148  0.70712397  0.09237422  1
  Zr  Zr35  1  0.30773184  0.69378243  0.70167956  1
  Zr  Zr36  1  0.29949934  0.29912720  0.70750606  1
  Zr  Zr37  1  0.69885990  0.50071809  0.09539776  1
  Zr  Zr38  1  0.10770190  0.28865428  0.29903337  1
  Zr  Zr39  1  0.49238581  0.30882516  0.30174078  1
  Zr  Zr40  1  0.49350428  0.09752093  0.30069319  1
  Zr  Zr41  1  0.90521380  0.49454919  0.89156900  1
  Zr  Zr42  1  0.49918382  0.90236833  0.70634142  1
  Zr  Zr43  1  0.70402968  0.09965518  0.69894024  1
  Zr  Zr44  1  0.69293736  0.49539615  0.70043766  1
  Zr  Zr45  1  0.90819451  0.90356469  0.89479660  1
  Zr  Zr46  1  0.10378330  0.90423053  0.70488234  1
  Zr  Zr47  1  0.89957988  0.90301061  0.50035193  1
  Zr  Zr48  1  0.09070978  0.10435270  0.31025973  1
  Zr  Zr49  1  0.09838906  0.89794358  0.09830495  1
  Sc  Sc50  1  0.50599385  0.29765447  0.69826528  1
  Sc  Sc51  1  0.90155144  0.90888328  0.70303569  1
  Sc  Sc52  1  0.10525660  0.29485832  0.70037625  1
  Sc  Sc53  1  0.49906029  0.48919868  0.89434658  1
  Sc  Sc54  1  0.90006901  0.29480738  0.09128975  1
  Sc  Sc55  1  0.90704277  0.09902185  0.50713963  1
  Sc  Sc56  1  0.70396076  0.90293739  0.69964270  1
  Sc  Sc57  1  0.70749828  0.49662011  0.49886202  1
  Sc  Sc58  1  0.30014251  0.09102325  0.09976863  1
  Sc  Sc59  1  0.30165541  0.90518837  0.30404895  1
  Sc  Sc60  1  0.50062915  0.30026706  0.09578197  1
  Sc  Sc61  1  0.30643185  0.90480170  0.89457067  1
  Sc  Sc62  1  0.92083089  0.69830493  0.89787575  1
  Sc  Sc63  1  0.90563400  0.50614011  0.09610657  1
  Sc  Sc64  1  0.67474376  0.70461097  0.90313986  1
  Sc  Sc65  1  0.30805215  0.48107662  0.29562373  1
  Sc  Sc66  1  0.10392777  0.09977998  0.09557197  1
  Sc  Sc67  1  0.69282639  0.48810379  0.89943330  1
  Sc  Sc68  1  0.10352221  0.70431506  0.70612424  1
  Sc  Sc69  1  0.69562626  0.10308750  0.89595573  1
  Sc  Sc70  1  0.10346023  0.90536277  0.30843030  1
  Sc  Sc71  1  0.09791075  0.90352287  0.89961392  1
  Sc  Sc72  1  0.70423713  0.29370066  0.31903822  1
  Sc  Sc73  1  0.50713641  0.69551619  0.70200432  1
  Sc  Sc74  1  0.48977053  0.90399941  0.09275072  1
  Sc  Sc75  1  0.68713438  0.90702489  0.89438009  1
  Sc  Sc76  1  0.69756303  0.29603230  0.89533563  1
  Sc  Sc77  1  0.50162448  0.69718249  0.50847019  1
  Sc  Sc78  1  0.89665182  0.69406314  0.51495446  1
  Sc  Sc79  1  0.50430788  0.49700445  0.09796459  1
  Sc  Sc80  1  0.29934448  0.10101631  0.70223690  1
  Sc  Sc81  1  0.29837430  0.70255389  0.49529339  1
  Sc  Sc82  1  0.49498285  0.10702314  0.70363207  1
  Sc  Sc83  1  0.30197293  0.49892812  0.71074808  1
  Sc  Sc84  1  0.10377544  0.49218375  0.70669274  1
  Sc  Sc85  1  0.89782485  0.89342220  0.29717519  1
  Sc  Sc86  1  0.10167371  0.50109766  0.89907446  1
  Sc  Sc87  1  0.09947731  0.10127066  0.89913439  1
  Sc  Sc88  1  0.68956618  0.90049038  0.10300931  1
  Sc  Sc89  1  0.89934144  0.69928295  0.28931135  1
  Sc  Sc90  1  0.50492989  0.09370408  0.90052914  1
  Sc  Sc91  1  0.49516140  0.09452201  0.09428756  1
  Sc  Sc92  1  0.50783463  0.49311504  0.49466650  1
  Sc  Sc93  1  0.30095002  0.09685321  0.51107089  1
  Sc  Sc94  1  0.50315136  0.70535128  0.30175374  1
  Sc  Sc95  1  0.10364309  0.91093810  0.50449454  1
  Sc  Sc96  1  0.50529241  0.49605627  0.30364414  1
  Sc  Sc97  1  0.10001207  0.49885785  0.09598326  1
  Sc  Sc98  1  0.29893724  0.71517099  0.30649172  1
  Sc  Sc99  1  0.70253154  0.29615376  0.08092021  1
  Nb  Nb100  1  0.89939551  0.09602314  0.29863407  1
  Nb  Nb101  1  0.90308209  0.49519441  0.50406762  1
  Nb  Nb102  1  0.50369738  0.30253142  0.49862897  1
  Nb  Nb103  1  0.30098097  0.50142160  0.49984138  1
  Nb  Nb104  1  0.10123039  0.10263838  0.69028098  1
  Nb  Nb105  1  0.30204424  0.49776177  0.09811971  1
  Nb  Nb106  1  0.30268611  0.30497051  0.90105832  1
  Nb  Nb107  1  0.30114133  0.29792585  0.29665877  1
  Nb  Nb108  1  0.89719333  0.30331511  0.70091914  1
  Nb  Nb109  1  0.69363045  0.29442243  0.50716605  1
  Nb  Nb110  1  0.30461405  0.10980541  0.90256820  1
  Nb  Nb111  1  0.69788880  0.70781671  0.51093105  1
  Nb  Nb112  1  0.10190335  0.29856837  0.50181041  1
  Nb  Nb113  1  0.29694381  0.69726572  0.10227127  1
  Nb  Nb114  1  0.10039130  0.10952081  0.50922277  1
  Nb  Nb115  1  0.49983245  0.89297261  0.90029393  1
  Nb  Nb116  1  0.49091622  0.71699282  0.89935119  1
  Nb  Nb117  1  0.69912963  0.10518923  0.50151883  1
  Nb  Nb118  1  0.29739465  0.30561023  0.50109001  1
  Nb  Nb119  1  0.10441416  0.69843835  0.89745759  1
  Nb  Nb120  1  0.29919538  0.31027155  0.11166043  1
  Nb  Nb121  1  0.09797802  0.50216531  0.30433860  1
  Nb  Nb122  1  0.89096903  0.30668150  0.50568300  1
  Nb  Nb123  1  0.30168783  0.49192016  0.89939513  1
  Nb  Nb124  1  0.70274705  0.69627359  0.69291449  1
  Nb  Nb125  1  0.79836693  0.79745602  -0.00710415  1
  Nb  Nb126  1  0.79799673  0.79062303  0.80610391  1
  Nb  Nb127  1  0.20809697  0.59611824  0.20078023  1
  Nb  Nb128  1  -0.00120596  0.39891107  0.20897733  1
  Nb  Nb129  1  0.60051335  0.00440268  0.59728993  1
  Nb  Nb130  1  0.79888761  0.00377006  0.39834598  1
  Nb  Nb131  1  0.39336354  0.60206626  0.19706302  1
  Nb  Nb132  1  0.19918431  0.39470215  0.40058116  1
  Nb  Nb133  1  0.39245600  0.59899297  -0.00023241  1
  Nb  Nb134  1  0.39624662  0.59509309  0.39731872  1
  Nb  Nb135  1  0.80128605  0.39948758  0.20185936  1
  Nb  Nb136  1  0.80159276  -0.00550183  -0.00040662  1
  Nb  Nb137  1  0.00157848  0.39451394  0.40365649  1
  Nb  Nb138  1  0.39714868  0.39795522  0.59346344  1
  Nb  Nb139  1  -0.00009191  0.79830988  0.40532711  1
  Nb  Nb140  1  0.39975814  0.80159835  0.60419004  1
  Nb  Nb141  1  -0.00221975  0.39670920  0.59350353  1
  Nb  Nb142  1  0.61237568  0.39334240  0.20218311  1
  Nb  Nb143  1  -0.00314138  0.00415689  0.20353702  1
  Nb  Nb144  1  0.39002920  0.20652032  -0.00255453  1
  Nb  Nb145  1  0.59957152  0.20267674  0.20195893  1
  Nb  Nb146  1  0.20441449  0.59738873  0.59879221  1
  Nb  Nb147  1  0.79980391  0.60877809  -0.01072190  1
  Nb  Nb148  1  0.79200281  0.60712559  0.80372904  1
  Nb  Nb149  1  0.39427045  0.21162818  0.40367868  1
  Pd  Pd150  1  0.80242406  -0.01318747  0.19875569  1
  Pd  Pd151  1  0.20500731  -0.00400447  -0.00646829  1
  Pd  Pd152  1  0.20672070  0.79555034  0.60088470  1
  Pd  Pd153  1  0.19136270  0.40694490  0.20551708  1
  Pd  Pd154  1  0.19969407  0.40564176  0.59891893  1
  Pd  Pd155  1  0.20389544  0.80333121  0.80383185  1
  Pd  Pd156  1  0.59646122  0.60506596  0.40801693  1
  Pd  Pd157  1  0.59039404  0.00232786  0.19721926  1
  Pd  Pd158  1  0.40353278  0.20105461  0.19151320  1
  Pd  Pd159  1  0.80177264  0.39784894  0.39837798  1
  Pd  Pd160  1  0.59603771  0.59916151  0.80604980  1
  Pd  Pd161  1  0.38593616  0.79966073  -0.00239076  1
  Pd  Pd162  1  0.80599214  0.40587021  -0.00026901  1
  Pd  Pd163  1  0.00212800  0.00034022  0.60502520  1
  Pd  Pd164  1  0.20830688  0.19741036  0.41064505  1
  Pd  Pd165  1  0.79536218  0.80174426  0.19078906  1
  Pd  Pd166  1  0.58955748  0.59561691  -0.01058051  1
  Pd  Pd167  1  0.19046800  0.00422167  0.20328439  1
  Pd  Pd168  1  0.58891759  0.80416732  0.19685223  1
  Pd  Pd169  1  0.19845877  0.40026176  -0.00259468  1
  Pd  Pd170  1  0.41038781  0.59854605  0.81129571  1
  Pd  Pd171  1  0.00438082  0.59615669  0.79307646  1
  Pd  Pd172  1  0.80371640  0.59777328  0.18981387  1
  Pd  Pd173  1  0.78646054  0.21227380  0.19577140  1
  Pd  Pd174  1  0.80918328  0.79508398  0.40292245  1
  Pd  Pd175  1  0.40245921  0.00705390  0.80475678  1
  Pd  Pd176  1  0.80428192  0.80535104  0.61118296  1
  Pd  Pd177  1  0.00269874  0.80578440  0.59948376  1
  Pd  Pd178  1  0.59092422  0.20031739  0.39431181  1
  Pd  Pd179  1  0.58896839  0.59643021  0.20184985  1
  Pd  Pd180  1  0.60520371  0.59372765  0.59059199  1
  Pd  Pd181  1  -0.00156926  0.19635863  0.00074679  1
  Pd  Pd182  1  0.20316299  0.80704944  -0.01036004  1
  Pd  Pd183  1  0.60487803  0.00326331  0.40586266  1
  Pd  Pd184  1  0.60599201  0.80020824  0.78982858  1
  Pd  Pd185  1  0.20258202  0.01035166  0.40698404  1
  Pd  Pd186  1  0.19735091  0.19507815  0.79967227  1
  Pd  Pd187  1  0.20144554  0.59236802  0.00129806  1
  Pd  Pd188  1  -0.00741088  0.20308098  0.41219945  1
  Pd  Pd189  1  0.20869515  0.20480139  0.00541319  1
  Pd  Pd190  1  0.39671741  0.20990894  0.59853748  1
  Pd  Pd191  1  -0.00371905  0.20911917  0.60427463  1
  Pd  Pd192  1  0.80810360  0.19098477  0.41196134  1
  Pd  Pd193  1  0.19906439  0.01055002  0.80446365  1
  Pd  Pd194  1  0.19549696  0.79732280  0.20886161  1
  Pd  Pd195  1  0.01174176  0.59319954  0.60961071  1
  Pd  Pd196  1  -0.00181378  0.39936973  0.00462916  1
  Pd  Pd197  1  0.80353356  0.61157955  0.41011038  1
  Pd  Pd198  1  0.40436215  0.39886988  0.00300128  1
  Pd  Pd199  1  -0.01330006  0.60795756  0.40459504  1
  Rh  Rh200  1  0.19141034  0.80689627  0.40056068  1
  Rh  Rh201  1  0.01014029  0.59374828  0.19454153  1
  Rh  Rh202  1  0.60102468  -0.00364710  -0.00211265  1
  Rh  Rh203  1  0.20445555  0.19918679  0.60099321  1
  Rh  Rh204  1  0.79343078  0.59478072  0.60097033  1
  Rh  Rh205  1  0.80436579  0.19927480  0.59717459  1
  Rh  Rh206  1  0.40271422  0.39679513  0.78993938  1
  Rh  Rh207  1  0.01178294  0.80884821  0.21405593  1
  Rh  Rh208  1  0.39757232  0.80023933  0.79382990  1
  Rh  Rh209  1  0.79648966  0.39847975  0.60001405  1
  Rh  Rh210  1  0.61194638  0.39802863  0.39923577  1
  Rh  Rh211  1  0.79606074  0.40287739  0.80080680  1
  Rh  Rh212  1  0.19787620  0.59466846  0.79562913  1
  Rh  Rh213  1  0.40035584  0.79875312  0.20077677  1
  Rh  Rh214  1  0.79350319  0.00451457  0.59028355  1
  Rh  Rh215  1  0.60112219  0.19594142  0.60253589  1
  Rh  Rh216  1  0.39055063  0.01321284  0.39958784  1
  Rh  Rh217  1  0.19763136  0.00606756  0.59864316  1
  Rh  Rh218  1  0.59700315  0.00347444  0.79158965  1
  Rh  Rh219  1  0.19953719  0.39859241  0.80837354  1
  Rh  Rh220  1  0.58783224  0.19801401  0.00221305  1
  Rh  Rh221  1  0.79762479  0.20203849  0.80000011  1
  Rh  Rh222  1  0.00882830  0.79618365  -0.01013308  1
  Rh  Rh223  1  0.20422900  0.19471236  0.19005990  1
  Rh  Rh224  1  0.59825805  0.39347951  0.79414634  1
  Rh  Rh225  1  -0.00512445  0.00993997  0.00964901  1
  Rh  Rh226  1  0.41105559  0.40559037  0.19227437  1
  Rh  Rh227  1  0.00335133  0.19540156  0.19308936  1
  Rh  Rh228  1  0.21602583  0.58935739  0.39202316  1
  Rh  Rh229  1  0.40776335  -0.00629149  0.60231545  1
  Rh  Rh230  1  0.59375759  0.80740173  0.60566997  1
  Rh  Rh231  1  0.80249603  0.19022007  -0.01058037  1
  Rh  Rh232  1  0.40015081  0.19917542  0.80661173  1
  Rh  Rh233  1  0.60141173  0.19787445  0.79576480  1
  Rh  Rh234  1  0.39456559  0.59773398  0.59095105  1
  Rh  Rh235  1  0.39408870  0.40019225  0.40808814  1
  Rh  Rh236  1  0.59780869  0.39814708  0.59628233  1
  Rh  Rh237  1  0.00279963  0.59971913  -0.00275271  1
  Rh  Rh238  1  0.00303158  0.39321529  0.79016133  1
  Rh  Rh239  1  -0.00929552  -0.00601191  0.39511328  1
  Rh  Rh240  1  0.79752569  -0.00584962  0.81006892  1
  Rh  Rh241  1  0.00211708  0.80163597  0.79847248  1
  Rh  Rh242  1  0.40773444  0.78930000  0.40916239  1
  Rh  Rh243  1  0.59737746  0.79153231  0.40502743  1
  Rh  Rh244  1  0.59832126  0.39524222  0.00205653  1
  Rh  Rh245  1  0.59989794  0.80936267  0.00349168  1
  Rh  Rh246  1  0.39783996  -0.00552228  0.20079281  1
  Rh  Rh247  1  0.39663137  0.00426112  -0.00753257  1
  Rh  Rh248  1  0.01044022  0.00904252  0.79170608  1
  Rh  Rh249  1  0.00590479  0.20020699  0.79360437  1
