# generated using pymatgen
data_ZrScNbPdRh
_symmetry_space_group_name_H-M   'P 1'
_cell_length_a   16.55938045
_cell_length_b   16.55889031
_cell_length_c   16.56158706
_cell_angle_alpha   90.02123148
_cell_angle_beta   90.02140661
_cell_angle_gamma   89.97977190
_symmetry_Int_Tables_number   1
_chemical_formula_structural   ZrScNbPdRh
_chemical_formula_sum   'Zr50 Sc50 Nb50 Pd50 Rh50'
_cell_volume   4541.26847663
_cell_formula_units_Z   50
loop_
 _symmetry_equiv_pos_site_id
 _symmetry_equiv_pos_as_xyz
  1  'x, y, z'
loop_
 _atom_site_type_symbol
 _atom_site_label
 _atom_site_symmetry_multiplicity
 _atom_site_fract_x
 _atom_site_fract_y
 _atom_site_fract_z
 _atom_site_occupancy
  Zr  Zr0  1  0.50945478  0.90009431  0.49962703  1
  Zr  Zr1  1  0.70932308  0.49816383  0.30290084  1
  Zr  Zr2  1  0.29120279  0.09931871  0.70319411  1
  Zr  Zr3  1  0.49296871  0.69755877  0.90074817  1
  Zr  Zr4  1  0.90066455  0.50400014  0.49036510  1
  Zr  Zr5  1  0.10119760  0.69656195  0.29430080  1
  Zr  Zr6  1  0.09692089  0.49398810  0.50107904  1
  Zr  Zr7  1  0.10619537  0.90628098  0.70465774  1
  Zr  Zr8  1  0.29841009  0.89773833  0.30278909  1
  Zr  Zr9  1  0.90099067  0.90314378  0.10603012  1
  Zr  Zr10  1  0.49879158  0.30250705  0.70022756  1
  Zr  Zr11  1  0.08880190  0.49684194  0.90027542  1
  Zr  Zr12  1  0.89646586  0.31138290  0.89878162  1
  Zr  Zr13  1  0.69763778  0.29958628  0.10708156  1
  Zr  Zr14  1  0.09611025  0.70999680  0.90267343  1
  Zr  Zr15  1  0.29659521  0.49566597  0.10500526  1
  Zr  Zr16  1  0.49810166  0.30204135  0.89160583  1
  Zr  Zr17  1  0.69514181  0.50196310  0.69126458  1
  Zr  Zr18  1  0.90349148  0.29660675  0.69599592  1
  Zr  Zr19  1  0.50629206  0.50242740  0.70041049  1
  Zr  Zr20  1  0.49087110  0.89381272  0.68949836  1
  Zr  Zr21  1  0.29776000  0.30891773  0.10304061  1
  Zr  Zr22  1  0.70743297  0.89620024  0.10094996  1
  Zr  Zr23  1  0.30115752  0.30260224  0.70379373  1
  Zr  Zr24  1  0.70856896  0.90499571  0.89085567  1
  Zr  Zr25  1  0.10134517  0.30508242  0.09873108  1
  Zr  Zr26  1  0.10397786  0.09910739  0.10298218  1
  Zr  Zr27  1  0.89548904  0.89530504  0.90498144  1
  Zr  Zr28  1  0.90653339  0.50360628  0.09279494  1
  Zr  Zr29  1  0.50682153  0.09919199  0.49635865  1
  Zr  Zr30  1  0.49993179  0.10338103  0.29541312  1
  Zr  Zr31  1  0.09772834  0.50807485  0.29916339  1
  Zr  Zr32  1  0.10036361  0.69281712  0.70226646  1
  Zr  Zr33  1  0.30602007  0.11091151  0.49064095  1
  Zr  Zr34  1  0.90040589  0.09732209  0.10853805  1
  Zr  Zr35  1  0.70919681  0.70562596  0.90147960  1
  Zr  Zr36  1  0.70335773  0.29651133  0.89748068  1
  Zr  Zr37  1  0.89721722  0.29817509  0.10271903  1
  Zr  Zr38  1  0.09444214  0.90432724  0.50194753  1
  Zr  Zr39  1  0.30069913  0.09774502  0.29291345  1
  Zr  Zr40  1  0.50881165  0.50409436  0.30372615  1
  Zr  Zr41  1  0.10048617  0.89653040  0.10077574  1
  Zr  Zr42  1  0.09327380  0.69555818  0.10362193  1
  Zr  Zr43  1  0.28962010  0.50544655  0.70072553  1
  Zr  Zr44  1  0.10259887  0.50174152  0.10402500  1
  Zr  Zr45  1  0.89024358  0.88826066  0.49941267  1
  Zr  Zr46  1  0.70284681  0.49257879  0.89405440  1
  Zr  Zr47  1  0.71294409  0.70347998  0.50572008  1
  Zr  Zr48  1  0.29701672  0.09721719  0.09335641  1
  Zr  Zr49  1  0.48116733  0.30443962  0.49838873  1
  Sc  Sc50  1  0.90237829  0.10258114  0.30122383  1
  Sc  Sc51  1  0.50041718  0.30300092  0.29434192  1
  Sc  Sc52  1  0.30226639  0.70137696  0.49400825  1
  Sc  Sc53  1  0.49741346  0.70651591  0.49094006  1
  Sc  Sc54  1  0.89124205  0.90028516  0.70588459  1
  Sc  Sc55  1  0.90331659  0.70382870  0.90098543  1
  Sc  Sc56  1  0.89924923  0.11016945  0.50492636  1
  Sc  Sc57  1  0.50110502  0.30491893  0.10491208  1
  Sc  Sc58  1  0.90286158  0.89609814  0.29967718  1
  Sc  Sc59  1  0.09552372  0.30124338  0.31190209  1
  Sc  Sc60  1  0.49515589  0.09737908  0.10620343  1
  Sc  Sc61  1  0.70739721  0.30792426  0.69928943  1
  Sc  Sc62  1  0.70120631  0.09499069  0.70277625  1
  Sc  Sc63  1  0.70054666  0.88668512  0.29977075  1
  Sc  Sc64  1  0.09939775  0.89804180  0.29636422  1
  Sc  Sc65  1  0.29638214  0.49400910  0.29851133  1
  Sc  Sc66  1  0.90453722  0.29809142  0.50064146  1
  Sc  Sc67  1  0.89809182  0.70099197  0.09737166  1
  Sc  Sc68  1  0.51148618  0.89263335  0.30439346  1
  Sc  Sc69  1  0.50347071  0.49204925  0.10296077  1
  Sc  Sc70  1  0.29494252  0.69758262  0.30682906  1
  Sc  Sc71  1  0.70530248  0.09989912  0.10717049  1
  Sc  Sc72  1  0.91059259  0.49444895  0.69791774  1
  Sc  Sc73  1  0.69786983  0.89926990  0.69048198  1
  Sc  Sc74  1  0.49147194  0.89918820  0.89535742  1
  Sc  Sc75  1  0.89595187  0.29678611  0.30888272  1
  Sc  Sc76  1  0.69671940  0.11277747  0.30255136  1
  Sc  Sc77  1  0.30381560  0.69954834  0.09023799  1
  Sc  Sc78  1  0.87984393  0.09720990  0.90250678  1
  Sc  Sc79  1  0.49943433  0.50141510  0.50269068  1
  Sc  Sc80  1  0.30821315  0.89606775  0.50262454  1
  Sc  Sc81  1  0.09836437  0.49985333  0.70025502  1
  Sc  Sc82  1  0.11116344  0.30394623  0.89892643  1
  Sc  Sc83  1  0.89878837  0.10216149  0.69370646  1
  Sc  Sc84  1  0.09186329  0.09973316  0.49968150  1
  Sc  Sc85  1  0.09550564  0.09305318  0.30571278  1
  Sc  Sc86  1  0.49761649  0.90603641  0.10360634  1
  Sc  Sc87  1  0.70582333  0.29952219  0.29742628  1
  Sc  Sc88  1  0.49805687  0.49649284  0.89800974  1
  Sc  Sc89  1  0.10348795  0.10124677  0.69521793  1
  Sc  Sc90  1  0.09744688  0.68792481  0.49339900  1
  Sc  Sc91  1  0.90281669  0.69834151  0.30811822  1
  Sc  Sc92  1  0.70516785  0.50044553  0.11042385  1
  Sc  Sc93  1  0.29911694  0.90915940  0.10244578  1
  Sc  Sc94  1  0.69074249  0.69625002  0.29359188  1
  Sc  Sc95  1  0.50039044  0.09980346  0.69501376  1
  Sc  Sc96  1  0.49854777  0.10283540  0.88387696  1
  Sc  Sc97  1  0.09662324  0.30729320  0.70060707  1
  Sc  Sc98  1  0.30503155  0.70030709  0.89390482  1
  Sc  Sc99  1  0.29163358  0.90018350  0.90504933  1
  Nb  Nb100  1  0.30407153  0.70581639  0.69865794  1
  Nb  Nb101  1  0.69826111  0.10147271  0.50059702  1
  Nb  Nb102  1  0.49348934  0.69845485  0.70419771  1
  Nb  Nb103  1  0.89848762  0.49961576  0.89895508  1
  Nb  Nb104  1  0.70983193  0.29521337  0.49692233  1
  Nb  Nb105  1  0.30435880  0.29952327  0.30697016  1
  Nb  Nb106  1  0.89519777  0.69990649  0.69355392  1
  Nb  Nb107  1  0.69649900  0.90210786  0.49775044  1
  Nb  Nb108  1  0.69931951  0.69455504  0.70095622  1
  Nb  Nb109  1  0.50638424  0.69872277  0.10157260  1
  Nb  Nb110  1  0.11197519  0.10257335  0.90131843  1
  Nb  Nb111  1  0.28914278  0.10873550  0.89809100  1
  Nb  Nb112  1  0.09788329  0.29883364  0.50051395  1
  Nb  Nb113  1  0.29825946  0.30743568  0.49383070  1
  Nb  Nb114  1  0.69336059  0.70105324  0.09962923  1
  Nb  Nb115  1  0.70215370  0.49508712  0.49925101  1
  Nb  Nb116  1  0.29371445  0.49339328  0.90381070  1
  Nb  Nb117  1  0.50274533  0.69920418  0.29657922  1
  Nb  Nb118  1  0.29943616  0.89714399  0.69863224  1
  Nb  Nb119  1  0.90311347  0.70101041  0.50728247  1
  Nb  Nb120  1  0.30814990  0.48653731  0.50305153  1
  Nb  Nb121  1  0.09493692  0.90155720  0.90322334  1
  Nb  Nb122  1  0.69370580  0.09692692  0.89995418  1
  Nb  Nb123  1  0.29832255  0.29729915  0.89795842  1
  Nb  Nb124  1  0.90040274  0.49389094  0.29841415  1
  Nb  Nb125  1  0.20346042  0.20418027  0.20557928  1
  Nb  Nb126  1  0.00364896  0.00537909  -0.00551201  1
  Nb  Nb127  1  0.00342023  0.00572878  0.81109457  1
  Nb  Nb128  1  0.19786463  0.59494425  -0.00389398  1
  Nb  Nb129  1  0.60071216  0.80116885  -0.00247339  1
  Nb  Nb130  1  0.60888044  0.39916399  0.40890524  1
  Nb  Nb131  1  0.39753643  0.60291852  0.60460013  1
  Nb  Nb132  1  0.38712153  -0.00098138  0.79445928  1
  Nb  Nb133  1  0.80285631  0.59977220  0.79485470  1
  Nb  Nb134  1  0.60255557  0.60469616  0.00250068  1
  Nb  Nb135  1  0.20308035  0.21055018  0.58918666  1
  Nb  Nb136  1  0.60390953  0.00186967  -0.00617702  1
  Nb  Nb137  1  0.40624162  0.79196575  0.20311868  1
  Nb  Nb138  1  0.79145048  -0.00023916  0.40767137  1
  Nb  Nb139  1  -0.00212901  0.40385768  0.20246870  1
  Nb  Nb140  1  0.00168730  0.19378820  0.81063581  1
  Nb  Nb141  1  0.59805239  0.19563018  -0.00419690  1
  Nb  Nb142  1  0.39723471  0.20330731  -0.00811530  1
  Nb  Nb143  1  0.40686760  0.60544117  0.20144768  1
  Nb  Nb144  1  0.60495672  0.20418817  0.59136084  1
  Nb  Nb145  1  0.59729938  0.79199683  0.79666080  1
  Nb  Nb146  1  0.00084679  0.19466471  -0.00679831  1
  Nb  Nb147  1  0.19741599  0.79794077  0.60467899  1
  Nb  Nb148  1  0.00030659  0.79480509  0.60291426  1
  Nb  Nb149  1  0.40560076  0.00158916  0.39815436  1
  Pd  Pd150  1  0.59040093  -0.01034212  0.79589057  1
  Pd  Pd151  1  0.39515275  0.40970611  0.79774768  1
  Pd  Pd152  1  0.20736594  0.00195126  0.58730122  1
  Pd  Pd153  1  -0.01563432  0.00045112  0.40272016  1
  Pd  Pd154  1  0.20389782  0.80124607  0.79924906  1
  Pd  Pd155  1  0.60784574  0.60091058  0.40904689  1
  Pd  Pd156  1  0.80260807  0.19604373  0.79438132  1
  Pd  Pd157  1  0.40614932  0.01048355  -0.01369458  1
  Pd  Pd158  1  0.19761378  0.40381203  0.39732348  1
  Pd  Pd159  1  -0.00394783  0.80634575  0.79155562  1
  Pd  Pd160  1  0.19332305  0.19870635  0.39839690  1
  Pd  Pd161  1  0.40214612  0.39597362  -0.00099767  1
  Pd  Pd162  1  0.20669147  0.60510417  0.58991092  1
  Pd  Pd163  1  0.79329158  0.00276411  0.21888387  1
  Pd  Pd164  1  0.19946386  0.60143246  0.81068987  1
  Pd  Pd165  1  -0.00864582  0.60152487  0.80175733  1
  Pd  Pd166  1  0.19734019  0.39567884  0.60120704  1
  Pd  Pd167  1  0.79696475  0.59748865  -0.00414396  1
  Pd  Pd168  1  0.60598130  -0.00186921  0.19886561  1
  Pd  Pd169  1  0.40116364  0.59050492  0.00668880  1
  Pd  Pd170  1  0.20841736  0.58868873  0.40740834  1
  Pd  Pd171  1  0.80022829  0.00142839  0.59513418  1
  Pd  Pd172  1  0.80535104  0.60685901  0.20143219  1
  Pd  Pd173  1  0.60734353  0.20396988  0.79170315  1
  Pd  Pd174  1  0.80894852  0.40302826  0.59687428  1
  Pd  Pd175  1  0.60025913  0.79010394  0.60267216  1
  Pd  Pd176  1  0.59985145  0.39007305  0.59161369  1
  Pd  Pd177  1  0.60579628  0.60411664  0.80951704  1
  Pd  Pd178  1  0.00588344  0.79594296  0.40384177  1
  Pd  Pd179  1  0.20505534  -0.00267144  0.40557955  1
  Pd  Pd180  1  -0.00998778  -0.00740672  0.60753159  1
  Pd  Pd181  1  0.80797743  0.59008993  0.60436635  1
  Pd  Pd182  1  0.40328554  0.80680579  0.00760257  1
  Pd  Pd183  1  0.20357193  0.79572516  0.00311267  1
  Pd  Pd184  1  0.79647625  0.19672851  0.00464527  1
  Pd  Pd185  1  0.39393861  0.59202498  0.79735868  1
  Pd  Pd186  1  0.59208000  0.61048583  0.58898533  1
  Pd  Pd187  1  0.60298170  0.39954887  -0.00034186  1
  Pd  Pd188  1  0.39546477  0.00423098  0.59676651  1
  Pd  Pd189  1  0.39541068  0.20634330  0.19261264  1
  Pd  Pd190  1  0.60547645  -0.00044817  0.38953496  1
  Pd  Pd191  1  0.39502609  0.59409386  0.40006735  1
  Pd  Pd192  1  0.00725464  0.20820512  0.20326853  1
  Pd  Pd193  1  0.79447690  0.40342383  0.00797324  1
  Pd  Pd194  1  0.19216959  0.80160289  0.41014913  1
  Pd  Pd195  1  0.59524362  0.21466977  0.40293190  1
  Pd  Pd196  1  0.80442892  0.78877273  0.20620828  1
  Pd  Pd197  1  0.79964581  0.60680796  0.39751686  1
  Pd  Pd198  1  0.39765418  0.19891537  0.60386086  1
  Pd  Pd199  1  0.21141733  0.79377571  0.19485143  1
  Rh  Rh200  1  0.79893955  0.39715587  0.40352397  1
  Rh  Rh201  1  0.00487654  -0.00347273  0.19900823  1
  Rh  Rh202  1  -0.00204038  0.60119200  0.59938210  1
  Rh  Rh203  1  0.80182277  0.20022169  0.20441509  1
  Rh  Rh204  1  0.59733130  0.59191995  0.19330346  1
  Rh  Rh205  1  0.79963176  0.80250106  0.60613566  1
  Rh  Rh206  1  0.19946198  0.40220255  0.80159108  1
  Rh  Rh207  1  0.19553072  -0.00525635  -0.00214586  1
  Rh  Rh208  1  0.59775147  0.20045064  0.19071137  1
  Rh  Rh209  1  -0.01176593  0.59659481  0.20491677  1
  Rh  Rh210  1  -0.00279294  0.60055015  0.39823886  1
  Rh  Rh211  1  0.20147048  -0.00429776  0.80784959  1
  Rh  Rh212  1  0.39912322  0.80830387  0.80047537  1
  Rh  Rh213  1  0.79073938  0.19963892  0.60328426  1
  Rh  Rh214  1  0.40466480  -0.01560990  0.21319295  1
  Rh  Rh215  1  0.19763917  0.40466657  -0.00605439  1
  Rh  Rh216  1  -0.00335402  0.79653132  0.20245754  1
  Rh  Rh217  1  0.60353876  0.00631259  0.60350936  1
  Rh  Rh218  1  0.80366888  0.19278626  0.40086892  1
  Rh  Rh219  1  0.60239800  0.39713523  0.79725029  1
  Rh  Rh220  1  -0.00239246  0.40041628  0.39774620  1
  Rh  Rh221  1  0.60497061  0.40152460  0.21229668  1
  Rh  Rh222  1  0.80415672  0.41070226  0.78907406  1
  Rh  Rh223  1  0.19005910  0.38829300  0.21503177  1
  Rh  Rh224  1  0.80910952  0.39900420  0.19932598  1
  Rh  Rh225  1  0.79488400  0.79253209  0.78932883  1
  Rh  Rh226  1  0.20350013  0.20751063  0.00871839  1
  Rh  Rh227  1  0.79775703  0.00064658  0.00421078  1
  Rh  Rh228  1  -0.00053737  0.39944499  0.59359791  1
  Rh  Rh229  1  0.60867894  0.78938738  0.40584808  1
  Rh  Rh230  1  0.39320325  0.19244053  0.80122073  1
  Rh  Rh231  1  0.40405182  0.80785460  0.39157978  1
  Rh  Rh232  1  -0.00569047  0.80533374  0.00713637  1
  Rh  Rh233  1  0.21451885  0.61032609  0.19085641  1
  Rh  Rh234  1  0.59472495  0.80542584  0.19127932  1
  Rh  Rh235  1  -0.00092465  0.39334057  0.00210427  1
  Rh  Rh236  1  0.40266660  0.40820910  0.20806683  1
  Rh  Rh237  1  0.39507588  0.79078519  0.59498187  1
  Rh  Rh238  1  0.80412369  0.00434368  0.79562929  1
  Rh  Rh239  1  0.01167695  0.20350050  0.60638619  1
  Rh  Rh240  1  0.80068717  0.79986366  0.00640279  1
  Rh  Rh241  1  0.00000777  0.39324423  0.80231289  1
  Rh  Rh242  1  0.40540680  0.40626175  0.39116158  1
  Rh  Rh243  1  0.40546299  0.19891198  0.39165792  1
  Rh  Rh244  1  0.39815436  0.40986616  0.61124123  1
  Rh  Rh245  1  -0.00102589  0.19794385  0.40355734  1
  Rh  Rh246  1  0.00342061  0.60494029  -0.00696991  1
  Rh  Rh247  1  0.19227814  0.20759393  0.78859117  1
  Rh  Rh248  1  0.79548966  0.79779819  0.39668279  1
  Rh  Rh249  1  0.19461165  0.00425213  0.20399238  1
