# generated using pymatgen
data_ZrScNbPdRh
_symmetry_space_group_name_H-M   'P 1'
_cell_length_a   16.55382280
_cell_length_b   16.55535465
_cell_length_c   16.55170724
_cell_angle_alpha   89.97781055
_cell_angle_beta   89.99954713
_cell_angle_gamma   90.02251083
_symmetry_Int_Tables_number   1
_chemical_formula_structural   ZrScNbPdRh
_chemical_formula_sum   'Zr50 Sc50 Nb50 Pd50 Rh50'
_cell_volume   4536.06762572
_cell_formula_units_Z   50
loop_
 _symmetry_equiv_pos_site_id
 _symmetry_equiv_pos_as_xyz
  1  'x, y, z'
loop_
 _atom_site_type_symbol
 _atom_site_label
 _atom_site_symmetry_multiplicity
 _atom_site_fract_x
 _atom_site_fract_y
 _atom_site_fract_z
 _atom_site_occupancy
  Zr  Zr0  1  0.10209471  0.29561040  0.70198321  1
  Zr  Zr1  1  0.89625449  0.30043173  0.90144413  1
  Zr  Zr2  1  0.69303323  0.30137277  0.91156087  1
  Zr  Zr3  1  0.50627861  0.49672703  0.90020296  1
  Zr  Zr4  1  0.29794049  0.69522643  0.49962402  1
  Zr  Zr5  1  0.69250486  0.89628782  0.90139538  1
  Zr  Zr6  1  0.89997884  0.50419560  0.90248730  1
  Zr  Zr7  1  0.50207675  0.70961593  0.69861362  1
  Zr  Zr8  1  0.29664097  0.29738665  0.50506965  1
  Zr  Zr9  1  0.50527121  0.49621998  0.49693833  1
  Zr  Zr10  1  0.09653201  0.69294559  0.69736719  1
  Zr  Zr11  1  0.90635747  0.70516925  0.09535538  1
  Zr  Zr12  1  0.69747753  0.50827985  0.30126991  1
  Zr  Zr13  1  0.29285287  0.29951890  0.69688634  1
  Zr  Zr14  1  0.50908299  0.29462300  0.29854677  1
  Zr  Zr15  1  0.30286178  0.09196224  0.29124789  1
  Zr  Zr16  1  0.90021238  0.09970067  0.30289567  1
  Zr  Zr17  1  0.10345525  0.89648260  0.29272000  1
  Zr  Zr18  1  0.10383472  0.30332567  0.50069809  1
  Zr  Zr19  1  0.50644022  0.30079011  0.08685207  1
  Zr  Zr20  1  0.10615666  0.49806769  0.70414465  1
  Zr  Zr21  1  0.49190087  0.29510976  0.69399269  1
  Zr  Zr22  1  0.50172841  0.10458832  0.89527338  1
  Zr  Zr23  1  0.89223283  0.70537529  0.90548566  1
  Zr  Zr24  1  0.29003932  0.30386345  0.29899585  1
  Zr  Zr25  1  0.50846375  0.89519439  0.51003308  1
  Zr  Zr26  1  0.30517732  0.30173938  0.09445730  1
  Zr  Zr27  1  0.70551692  0.30157725  0.30474713  1
  Zr  Zr28  1  0.69636744  0.09091520  0.89354993  1
  Zr  Zr29  1  0.09916703  0.70328921  0.10331849  1
  Zr  Zr30  1  0.69774296  0.90051701  0.09423656  1
  Zr  Zr31  1  0.69816689  0.90064239  0.30336880  1
  Zr  Zr32  1  0.90872340  0.69995341  0.50446946  1
  Zr  Zr33  1  0.89720929  0.30237777  0.50009694  1
  Zr  Zr34  1  0.89281411  0.09639764  0.69937449  1
  Zr  Zr35  1  0.90771693  0.49498104  0.70160674  1
  Zr  Zr36  1  0.89688027  0.29878672  0.09127094  1
  Zr  Zr37  1  0.30305267  0.89624168  0.28985588  1
  Zr  Zr38  1  0.29441702  0.49693935  0.10262470  1
  Zr  Zr39  1  0.90357921  0.29792097  0.70586512  1
  Zr  Zr40  1  0.30171518  0.90860965  0.09711738  1
  Zr  Zr41  1  0.49588842  0.70298863  0.50351868  1
  Zr  Zr42  1  0.90038169  0.50040746  0.30377705  1
  Zr  Zr43  1  0.29154714  0.10498394  0.70234552  1
  Zr  Zr44  1  0.10660513  0.51106797  0.09449322  1
  Zr  Zr45  1  0.09746885  0.08679310  0.30353751  1
  Zr  Zr46  1  0.90060504  0.30925084  0.30531578  1
  Zr  Zr47  1  0.89664952  0.09987266  0.09491304  1
  Zr  Zr48  1  0.29624739  0.90160992  0.70319893  1
  Zr  Zr49  1  0.10099557  0.69214280  0.49957312  1
  Sc  Sc50  1  0.90033847  0.89596516  0.50655648  1
  Sc  Sc51  1  0.09210897  0.89674922  0.09867091  1
  Sc  Sc52  1  0.69592301  0.10153930  0.08627495  1
  Sc  Sc53  1  0.50004919  0.29620410  0.89781989  1
  Sc  Sc54  1  0.09637217  0.50179810  0.50604838  1
  Sc  Sc55  1  0.70459110  0.10256905  0.51360655  1
  Sc  Sc56  1  0.70382461  0.49871662  0.89210210  1
  Sc  Sc57  1  0.90308453  0.89705992  0.09719478  1
  Sc  Sc58  1  0.90515422  0.69475803  0.30607554  1
  Sc  Sc59  1  0.50025237  0.69185768  0.29646137  1
  Sc  Sc60  1  0.10074692  0.31418596  0.09585294  1
  Sc  Sc61  1  0.70162781  0.30137462  0.49640224  1
  Sc  Sc62  1  0.69693316  0.50033890  0.50174534  1
  Sc  Sc63  1  0.89029445  0.89851418  0.90517289  1
  Sc  Sc64  1  0.71086057  0.70333455  0.50946182  1
  Sc  Sc65  1  0.09934579  0.49667037  0.29361263  1
  Sc  Sc66  1  0.90090222  0.10484383  0.90086332  1
  Sc  Sc67  1  0.48650024  0.10834515  0.10263590  1
  Sc  Sc68  1  0.30014919  0.69383180  0.70562463  1
  Sc  Sc69  1  0.70320208  0.29664639  0.70866679  1
  Sc  Sc70  1  0.09992283  0.91930004  0.89888322  1
  Sc  Sc71  1  0.69670193  0.90268182  0.69911763  1
  Sc  Sc72  1  0.29475441  0.50665219  0.90318965  1
  Sc  Sc73  1  0.08963205  0.90132448  0.50046250  1
  Sc  Sc74  1  0.69996188  0.50479049  0.70355965  1
  Sc  Sc75  1  0.51403142  0.10320436  0.70135271  1
  Sc  Sc76  1  0.49319662  0.89535519  0.09911077  1
  Sc  Sc77  1  0.69841152  0.69953937  0.10020938  1
  Sc  Sc78  1  0.09405221  0.29735453  0.89674444  1
  Sc  Sc79  1  0.70442281  0.50602681  0.10098296  1
  Sc  Sc80  1  0.51300494  0.10279072  0.50627222  1
  Sc  Sc81  1  0.29935834  0.09506064  0.90100231  1
  Sc  Sc82  1  0.89253285  0.70131328  0.69577076  1
  Sc  Sc83  1  0.29421050  0.10111283  0.49982758  1
  Sc  Sc84  1  0.09336522  0.69318752  0.90780686  1
  Sc  Sc85  1  0.10283373  0.69767855  0.29404618  1
  Sc  Sc86  1  0.90692721  0.50096792  0.49568861  1
  Sc  Sc87  1  0.10321396  0.09224891  0.50265145  1
  Sc  Sc88  1  0.50894892  0.49936154  0.69750634  1
  Sc  Sc89  1  0.29117674  0.49763030  0.49963239  1
  Sc  Sc90  1  0.49930787  0.70654063  0.88867667  1
  Sc  Sc91  1  0.09226099  0.09073252  0.08880428  1
  Sc  Sc92  1  0.29673136  0.70048806  0.30037718  1
  Sc  Sc93  1  0.30623414  0.69588264  0.89586887  1
  Sc  Sc94  1  0.30044935  0.69861301  0.10535854  1
  Sc  Sc95  1  0.91259486  0.90116380  0.30406155  1
  Sc  Sc96  1  0.49351077  0.49986340  0.10094694  1
  Sc  Sc97  1  0.50114093  0.70003796  0.10453352  1
  Sc  Sc98  1  0.90200437  0.50432643  0.10151195  1
  Sc  Sc99  1  0.30763522  0.88723319  0.49680576  1
  Nb  Nb100  1  0.50438168  0.49696746  0.30077995  1
  Nb  Nb101  1  0.50226997  0.10053823  0.30222552  1
  Nb  Nb102  1  0.69870107  0.30067441  0.10008957  1
  Nb  Nb103  1  0.70002797  0.09883750  0.70305984  1
  Nb  Nb104  1  0.30766439  0.49607563  0.29294338  1
  Nb  Nb105  1  0.69748975  0.90048538  0.49864997  1
  Nb  Nb106  1  0.69515311  0.70211821  0.71305404  1
  Nb  Nb107  1  0.89739242  0.10489513  0.50178719  1
  Nb  Nb108  1  0.09789649  0.29496826  0.29961794  1
  Nb  Nb109  1  0.50108555  0.90414403  0.30064968  1
  Nb  Nb110  1  0.09522553  0.08643757  0.70879217  1
  Nb  Nb111  1  0.09704388  0.90741838  0.70074612  1
  Nb  Nb112  1  0.49492245  0.30497428  0.49852969  1
  Nb  Nb113  1  0.10286974  0.50910611  0.90283770  1
  Nb  Nb114  1  0.09853342  0.10387844  0.89594989  1
  Nb  Nb115  1  0.91731885  0.90399537  0.69736575  1
  Nb  Nb116  1  0.49902478  0.89508857  0.69942108  1
  Nb  Nb117  1  0.29665601  0.50106166  0.70247033  1
  Nb  Nb118  1  0.49414737  0.89990425  0.89236738  1
  Nb  Nb119  1  0.30281789  0.89877162  0.89983958  1
  Nb  Nb120  1  0.69754030  0.10328153  0.30376880  1
  Nb  Nb121  1  0.29652623  0.10379872  0.09862013  1
  Nb  Nb122  1  0.69914016  0.70156655  0.29685542  1
  Nb  Nb123  1  0.30216536  0.28865329  0.89050690  1
  Nb  Nb124  1  0.70218364  0.70006176  0.89689379  1
  Nb  Nb125  1  0.19384786  0.19722816  0.19393552  1
  Nb  Nb126  1  0.79575674  0.00154579  0.40254021  1
  Nb  Nb127  1  0.40329810  0.39747373  0.39774088  1
  Nb  Nb128  1  0.19238659  0.80357453  0.80214651  1
  Nb  Nb129  1  0.40473354  -0.00312169  0.60279973  1
  Nb  Nb130  1  0.00342159  0.80654198  0.79704706  1
  Nb  Nb131  1  0.79840627  0.19952851  0.19991191  1
  Nb  Nb132  1  0.00137777  0.20083546  0.40137055  1
  Nb  Nb133  1  0.39983669  0.59676574  0.60042709  1
  Nb  Nb134  1  0.60158599  0.60289718  -0.00801586  1
  Nb  Nb135  1  0.00105434  0.20289605  0.20197452  1
  Nb  Nb136  1  0.40398131  -0.00433809  0.79609997  1
  Nb  Nb137  1  0.80538469  0.39872276  0.60447600  1
  Nb  Nb138  1  0.60397549  0.80015135  0.39881703  1
  Nb  Nb139  1  0.40921632  0.00198989  0.39989666  1
  Nb  Nb140  1  0.59786559  0.00575425  0.20618358  1
  Nb  Nb141  1  0.40415182  0.20075011  0.39939463  1
  Nb  Nb142  1  0.20377581  0.80637506  -0.00735990  1
  Nb  Nb143  1  0.19312094  0.79997226  0.60693017  1
  Nb  Nb144  1  0.39221693  0.39840437  0.79620345  1
  Nb  Nb145  1  -0.00167714  0.19387801  0.59970602  1
  Nb  Nb146  1  0.79744360  0.80208724  0.20577479  1
  Nb  Nb147  1  0.20129058  0.19804609  0.00055449  1
  Nb  Nb148  1  0.60257930  0.39878148  0.20095310  1
  Nb  Nb149  1  0.79301421  0.00206295  0.20466528  1
  Pd  Pd150  1  0.39378535  0.40085803  -0.01404861  1
  Pd  Pd151  1  0.80321407  0.59107291  0.60114763  1
  Pd  Pd152  1  0.39482659  0.20656713  0.20504411  1
  Pd  Pd153  1  0.80409018  0.59947653  0.79680399  1
  Pd  Pd154  1  0.40933727  0.80132970  0.39114845  1
  Pd  Pd155  1  0.39780248  0.59046204  0.40187048  1
  Pd  Pd156  1  0.79579310  0.39909442  0.19536814  1
  Pd  Pd157  1  0.40129822  0.18652109  0.59411312  1
  Pd  Pd158  1  0.80543408  0.80944921  0.79038309  1
  Pd  Pd159  1  0.39481133  0.41009262  0.60079817  1
  Pd  Pd160  1  0.40619993  0.60410774  0.00087562  1
  Pd  Pd161  1  0.00579111  0.40309337  0.81030117  1
  Pd  Pd162  1  0.59964503  0.80453268  0.20374735  1
  Pd  Pd163  1  0.60891534  0.20966182  0.60024739  1
  Pd  Pd164  1  0.80626635  0.61138258  0.19852544  1
  Pd  Pd165  1  -0.00609299  0.60868778  0.80181250  1
  Pd  Pd166  1  0.60449259  0.61239141  0.40536474  1
  Pd  Pd167  1  0.19917144  0.19247873  0.39297553  1
  Pd  Pd168  1  0.20605986  -0.00853344  0.59050833  1
  Pd  Pd169  1  0.19811014  0.40890528  0.39739827  1
  Pd  Pd170  1  0.60100818  0.20157760  0.41064440  1
  Pd  Pd171  1  0.79970187  -0.00784705  0.59731022  1
  Pd  Pd172  1  0.79483632  0.19979649  0.80811511  1
  Pd  Pd173  1  0.20305335  0.40164887  0.80939234  1
  Pd  Pd174  1  0.39908166  0.60166903  0.20062082  1
  Pd  Pd175  1  0.79784294  0.80749696  0.61013865  1
  Pd  Pd176  1  0.19324376  0.80404488  0.40630643  1
  Pd  Pd177  1  0.61147247  0.39214466  0.60548189  1
  Pd  Pd178  1  0.19823978  0.59045907  0.39035580  1
  Pd  Pd179  1  0.79561568  0.40895126  0.00026810  1
  Pd  Pd180  1  0.40963190  0.39323318  0.20320202  1
  Pd  Pd181  1  0.40500523  0.00596642  -0.00537750  1
  Pd  Pd182  1  0.20197968  0.39305790  -0.01339482  1
  Pd  Pd183  1  0.60126197  0.00044668  0.40321271  1
  Pd  Pd184  1  0.19082374  0.00206544  0.18712754  1
  Pd  Pd185  1  -0.00847271  -0.00323831  -0.00689753  1
  Pd  Pd186  1  0.80318491  -0.00848414  0.79996016  1
  Pd  Pd187  1  0.40744429  0.58974767  0.79293406  1
  Pd  Pd188  1  0.80041025  0.80287567  0.39667586  1
  Pd  Pd189  1  0.00614011  0.79632362  0.39675736  1
  Pd  Pd190  1  0.60761508  0.19656839  0.19150190  1
  Pd  Pd191  1  0.79772318  0.60172170  0.40673689  1
  Pd  Pd192  1  0.59311020  0.79132209  -0.00475020  1
  Pd  Pd193  1  0.39710322  0.79201829  0.00067861  1
  Pd  Pd194  1  0.59416311  0.39235285  0.79399580  1
  Pd  Pd195  1  0.00167407  0.40080602  0.19573865  1
  Pd  Pd196  1  0.21100873  -0.01280390  0.40683907  1
  Pd  Pd197  1  0.59927015  0.60721140  0.60151114  1
  Pd  Pd198  1  0.00292726  0.40648897  -0.00439456  1
  Pd  Pd199  1  0.58379812  0.00255654  0.00798648  1
  Rh  Rh200  1  0.00090748  0.19144199  0.79363931  1
  Rh  Rh201  1  0.79969620  -0.00028660  0.00043198  1
  Rh  Rh202  1  -0.00537121  0.00096935  0.19406057  1
  Rh  Rh203  1  0.80053831  0.39984430  0.79735766  1
  Rh  Rh204  1  0.60194071  0.80415657  0.80132784  1
  Rh  Rh205  1  0.79397487  0.60344979  -0.00091434  1
  Rh  Rh206  1  -0.01060985  0.00057695  0.80806532  1
  Rh  Rh207  1  0.19572895  0.39925792  0.19921265  1
  Rh  Rh208  1  0.19664046  0.60439855  0.80625056  1
  Rh  Rh209  1  0.60547794  0.20381445  0.80011699  1
  Rh  Rh210  1  0.20712933  0.60121286  0.60390162  1
  Rh  Rh211  1  0.40100656  0.79714905  0.20237229  1
  Rh  Rh212  1  0.60033711  0.60537502  0.80534999  1
  Rh  Rh213  1  0.60172422  -0.00024154  0.60761573  1
  Rh  Rh214  1  0.39310235  0.80495714  0.79725312  1
  Rh  Rh215  1  -0.00066473  0.60034610  0.20046617  1
  Rh  Rh216  1  0.40066758  0.19669293  0.79578807  1
  Rh  Rh217  1  0.20570933  0.00046415  0.80684360  1
  Rh  Rh218  1  0.38661939  0.79440485  0.60967606  1
  Rh  Rh219  1  0.60700775  0.41429106  0.01040866  1
  Rh  Rh220  1  0.00731363  0.59689931  0.39676966  1
  Rh  Rh221  1  0.20598742  0.59638395  0.20395607  1
  Rh  Rh222  1  -0.00291536  0.00861151  0.59550438  1
  Rh  Rh223  1  0.79441848  0.79804423  0.00896012  1
  Rh  Rh224  1  0.80107686  0.19262242  0.39804135  1
  Rh  Rh225  1  0.19786607  0.40459710  0.60127333  1
  Rh  Rh226  1  0.59450147  -0.00659814  0.79436236  1
  Rh  Rh227  1  -0.00752224  0.79782128  0.20666843  1
  Rh  Rh228  1  0.40892973  -0.00086838  0.20036800  1
  Rh  Rh229  1  -0.00477045  0.59644346  0.60200445  1
  Rh  Rh230  1  0.80070272  0.20736064  0.60590724  1
  Rh  Rh231  1  0.39383442  0.19761379  -0.00614161  1
  Rh  Rh232  1  0.79244050  0.19763628  -0.00315128  1
  Rh  Rh233  1  0.18564542  0.19036933  0.60516067  1
  Rh  Rh234  1  0.20131033  0.00172700  -0.00128779  1
  Rh  Rh235  1  -0.00943896  0.00317915  0.41180807  1
  Rh  Rh236  1  0.01044029  0.80774478  -0.01543168  1
  Rh  Rh237  1  0.61344752  0.79584855  0.59966897  1
  Rh  Rh238  1  0.00880602  0.39877053  0.40095999  1
  Rh  Rh239  1  -0.00310695  0.59658956  0.00222265  1
  Rh  Rh240  1  0.59963602  0.39941231  0.39524332  1
  Rh  Rh241  1  0.79627906  0.41371304  0.41055688  1
  Rh  Rh242  1  0.20241753  0.80187995  0.18821862  1
  Rh  Rh243  1  0.00624451  0.79623610  0.60515524  1
  Rh  Rh244  1  0.20502336  0.61330420  -0.00049875  1
  Rh  Rh245  1  0.19404004  0.19431727  0.80461175  1
  Rh  Rh246  1  -0.00147466  0.39420737  0.59913619  1
  Rh  Rh247  1  0.59885307  0.19373469  -0.00103988  1
  Rh  Rh248  1  0.59759761  0.59179698  0.19247147  1
  Rh  Rh249  1  0.01065128  0.20416819  0.00491123  1
