# generated using pymatgen
data_ZrScNbPdRh
_symmetry_space_group_name_H-M   'P 1'
_cell_length_a   16.55893667
_cell_length_b   16.55680978
_cell_length_c   16.55840855
_cell_angle_alpha   90.02312588
_cell_angle_beta   90.01639989
_cell_angle_gamma   90.02478705
_symmetry_Int_Tables_number   1
_chemical_formula_structural   ZrScNbPdRh
_chemical_formula_sum   'Zr50 Sc50 Nb50 Pd50 Rh50'
_cell_volume   4539.70470636
_cell_formula_units_Z   50
loop_
 _symmetry_equiv_pos_site_id
 _symmetry_equiv_pos_as_xyz
  1  'x, y, z'
loop_
 _atom_site_type_symbol
 _atom_site_label
 _atom_site_symmetry_multiplicity
 _atom_site_fract_x
 _atom_site_fract_y
 _atom_site_fract_z
 _atom_site_occupancy
  Zr  Zr0  1  0.29522252  0.49993830  0.30705655  1
  Zr  Zr1  1  0.70697508  0.29475593  0.29770638  1
  Zr  Zr2  1  0.70381478  0.89611276  0.30175137  1
  Zr  Zr3  1  0.09855732  0.10524881  0.30080802  1
  Zr  Zr4  1  0.50311636  0.30273049  0.10502683  1
  Zr  Zr5  1  0.69795815  0.69847257  0.10073104  1
  Zr  Zr6  1  0.70105251  0.89128011  0.09157203  1
  Zr  Zr7  1  0.09160256  0.49851810  0.90446897  1
  Zr  Zr8  1  0.71516533  0.69613628  0.29786976  1
  Zr  Zr9  1  0.10858124  0.70441619  0.09354638  1
  Zr  Zr10  1  0.30068595  0.10086350  0.90433442  1
  Zr  Zr11  1  0.10524564  0.49054718  0.29419238  1
  Zr  Zr12  1  0.29345088  0.69584978  0.90630023  1
  Zr  Zr13  1  0.89954593  0.51101372  0.70279832  1
  Zr  Zr14  1  0.29398010  0.31309378  0.30205961  1
  Zr  Zr15  1  0.90356123  0.10240867  0.10373366  1
  Zr  Zr16  1  0.09590622  0.09259360  0.09788350  1
  Zr  Zr17  1  0.09467402  0.70369621  0.89735884  1
  Zr  Zr18  1  0.89870200  0.90410059  0.69400183  1
  Zr  Zr19  1  0.70482082  0.30571947  0.10159519  1
  Zr  Zr20  1  0.90281123  0.29492837  0.49303930  1
  Zr  Zr21  1  0.89999273  0.29712252  0.90310626  1
  Zr  Zr22  1  0.70671701  0.90194001  0.71031220  1
  Zr  Zr23  1  0.09786191  0.89761628  0.90769581  1
  Zr  Zr24  1  0.49836484  0.90388163  0.30617414  1
  Zr  Zr25  1  0.49216270  0.50551784  0.10170913  1
  Zr  Zr26  1  0.69616311  0.49368575  0.69772860  1
  Zr  Zr27  1  0.51142494  0.90208901  0.89845809  1
  Zr  Zr28  1  0.50724482  0.89656593  0.09456928  1
  Zr  Zr29  1  0.28950739  0.50756584  0.10391722  1
  Zr  Zr30  1  0.10963082  0.10179091  0.90023682  1
  Zr  Zr31  1  0.30391584  0.70966592  0.49749139  1
  Zr  Zr32  1  0.90032675  0.88387093  0.30575641  1
  Zr  Zr33  1  0.89829414  0.89160073  0.89585885  1
  Zr  Zr34  1  0.29828082  0.89666403  0.50185257  1
  Zr  Zr35  1  0.29410339  0.29347169  0.89363376  1
  Zr  Zr36  1  0.48725825  0.10279219  0.10018515  1
  Zr  Zr37  1  0.50124754  0.49790110  0.69598027  1
  Zr  Zr38  1  0.50363357  0.09917490  0.30178606  1
  Zr  Zr39  1  0.90121606  0.50052104  0.30300163  1
  Zr  Zr40  1  0.09768292  0.49928167  0.70332822  1
  Zr  Zr41  1  0.29634803  0.10424871  0.70830145  1
  Zr  Zr42  1  0.30502265  0.09621865  0.30195672  1
  Zr  Zr43  1  0.90594082  0.69329939  0.49590310  1
  Zr  Zr44  1  0.50061259  0.30120198  0.29836215  1
  Zr  Zr45  1  0.29302441  0.10718864  0.50706185  1
  Zr  Zr46  1  0.70296084  0.29849739  0.90125745  1
  Zr  Zr47  1  0.30348596  0.89575696  0.31034329  1
  Zr  Zr48  1  0.70725716  0.50431991  0.89198811  1
  Zr  Zr49  1  0.29613500  0.70109753  0.30249745  1
  Sc  Sc50  1  0.29648041  0.30850069  0.50929475  1
  Sc  Sc51  1  0.30661303  0.30141245  0.09320774  1
  Sc  Sc52  1  0.09995993  0.89345643  0.69754388  1
  Sc  Sc53  1  0.09887443  0.70266727  0.50448957  1
  Sc  Sc54  1  0.91407704  0.89823036  0.09660732  1
  Sc  Sc55  1  0.90206692  0.70821127  0.70199423  1
  Sc  Sc56  1  0.89392798  0.29881606  0.10738994  1
  Sc  Sc57  1  0.09965261  0.30788046  0.89196742  1
  Sc  Sc58  1  0.90236479  0.50889061  0.90120332  1
  Sc  Sc59  1  0.49515513  0.09595259  0.89968996  1
  Sc  Sc60  1  0.71167978  0.30321489  0.50243133  1
  Sc  Sc61  1  0.10291821  0.50774915  0.50312181  1
  Sc  Sc62  1  0.49112050  0.49428147  0.29816564  1
  Sc  Sc63  1  0.09747450  0.70448755  0.30730709  1
  Sc  Sc64  1  0.49622775  0.49929903  0.89461575  1
  Sc  Sc65  1  0.49026446  0.29970438  0.90126187  1
  Sc  Sc66  1  0.89387498  0.29221316  0.70052206  1
  Sc  Sc67  1  0.50482727  0.70377243  0.70140611  1
  Sc  Sc68  1  0.29968252  0.90070207  0.10025513  1
  Sc  Sc69  1  0.71455052  0.90743073  0.49813928  1
  Sc  Sc70  1  0.89457773  0.69502659  0.09040162  1
  Sc  Sc71  1  0.89821903  0.49724848  0.09424735  1
  Sc  Sc72  1  0.90519357  0.11231375  0.29981013  1
  Sc  Sc73  1  0.50529966  0.50414932  0.50160012  1
  Sc  Sc74  1  0.48916965  0.89418472  0.49677072  1
  Sc  Sc75  1  0.29504997  0.49375804  0.91022072  1
  Sc  Sc76  1  0.09734273  0.89257917  0.30050456  1
  Sc  Sc77  1  0.29706258  0.89947021  0.70178004  1
  Sc  Sc78  1  0.09207444  0.70162102  0.69500943  1
  Sc  Sc79  1  0.29580513  0.29552819  0.69461778  1
  Sc  Sc80  1  0.71069251  0.50163356  0.29782524  1
  Sc  Sc81  1  0.70445499  0.11626323  0.09642206  1
  Sc  Sc82  1  0.49060570  0.10216677  0.70639193  1
  Sc  Sc83  1  0.09429527  0.90365902  0.50166844  1
  Sc  Sc84  1  0.90506930  0.90338163  0.50434677  1
  Sc  Sc85  1  0.70821371  0.70755239  0.89825179  1
  Sc  Sc86  1  0.70558842  0.09684667  0.48934437  1
  Sc  Sc87  1  0.29239408  0.48470328  0.68868340  1
  Sc  Sc88  1  0.69737695  0.09670175  0.89748696  1
  Sc  Sc89  1  0.48546903  0.30433906  0.69610239  1
  Sc  Sc90  1  0.29104391  0.71663090  0.69599731  1
  Sc  Sc91  1  0.50429021  0.70047767  0.89432334  1
  Sc  Sc92  1  0.09135970  0.31158991  0.10695573  1
  Sc  Sc93  1  0.50413138  0.09657960  0.49225049  1
  Sc  Sc94  1  0.89590548  0.10167271  0.69724768  1
  Sc  Sc95  1  0.09230015  0.30264208  0.30433811  1
  Sc  Sc96  1  0.49715859  0.89723801  0.71093493  1
  Sc  Sc97  1  0.89830635  0.49802564  0.49374942  1
  Sc  Sc98  1  0.50771630  0.69087592  0.29614661  1
  Sc  Sc99  1  0.09569126  0.10158717  0.50033429  1
  Nb  Nb100  1  0.90549632  0.09513481  0.50514922  1
  Nb  Nb101  1  0.69159727  0.68681661  0.50153869  1
  Nb  Nb102  1  0.09967236  0.10286438  0.70132369  1
  Nb  Nb103  1  0.69612926  0.09817032  0.69725429  1
  Nb  Nb104  1  0.49792830  0.29515422  0.50140298  1
  Nb  Nb105  1  0.90368145  0.69841370  0.89763708  1
  Nb  Nb106  1  0.70504206  0.50320342  0.09679772  1
  Nb  Nb107  1  0.29518131  0.10293578  0.10055018  1
  Nb  Nb108  1  0.70201502  0.69939673  0.69788755  1
  Nb  Nb109  1  0.69803748  0.50074579  0.50150443  1
  Nb  Nb110  1  0.09282710  0.50197901  0.09976535  1
  Nb  Nb111  1  0.10285939  0.30430808  0.69730553  1
  Nb  Nb112  1  0.50352261  0.70007222  0.50557472  1
  Nb  Nb113  1  0.69956111  0.90136197  0.90120013  1
  Nb  Nb114  1  0.69708334  0.09157338  0.29933766  1
  Nb  Nb115  1  0.90280062  0.68995761  0.30195882  1
  Nb  Nb116  1  0.10140244  0.29810373  0.50423177  1
  Nb  Nb117  1  0.30379832  0.89790684  0.89092715  1
  Nb  Nb118  1  0.30665872  0.69525326  0.09564077  1
  Nb  Nb119  1  0.69863866  0.29620250  0.70041171  1
  Nb  Nb120  1  0.50007769  0.69746884  0.09549492  1
  Nb  Nb121  1  0.09838397  0.90191349  0.10213081  1
  Nb  Nb122  1  0.90062116  0.30710498  0.29955048  1
  Nb  Nb123  1  0.30003643  0.50448846  0.49980657  1
  Nb  Nb124  1  0.90705191  0.09804866  0.90404557  1
  Nb  Nb125  1  0.00253857  0.59884350  0.19872860  1
  Nb  Nb126  1  0.39709570  0.60373910  0.59952498  1
  Nb  Nb127  1  0.60414932  0.39826897  0.40301607  1
  Nb  Nb128  1  0.59937420  -0.00147915  0.60362929  1
  Nb  Nb129  1  0.60654793  0.00144592  0.19837793  1
  Nb  Nb130  1  0.60469535  0.40681476  0.00355627  1
  Nb  Nb131  1  0.60481929  0.79183596  0.40777144  1
  Nb  Nb132  1  0.60297041  0.20363708  0.79106849  1
  Nb  Nb133  1  0.80318883  -0.00181550  -0.00038739  1
  Nb  Nb134  1  0.79819065  -0.00100061  0.19832802  1
  Nb  Nb135  1  0.20160123  0.19547814  0.19731563  1
  Nb  Nb136  1  0.38801380  0.59886969  0.79078684  1
  Nb  Nb137  1  0.00209513  0.00445240  0.80089434  1
  Nb  Nb138  1  0.00210062  0.39502793  0.60171376  1
  Nb  Nb139  1  0.20000718  0.59772346  0.79905663  1
  Nb  Nb140  1  0.79089087  0.60004067  0.59884641  1
  Nb  Nb141  1  0.40047409  0.79663575  0.00068536  1
  Nb  Nb142  1  0.39921341  0.20557966  0.40112685  1
  Nb  Nb143  1  0.00107932  0.19823420  -0.00072500  1
  Nb  Nb144  1  0.60716265  0.80097478  0.59609766  1
  Nb  Nb145  1  0.39953526  0.00150345  0.60142564  1
  Nb  Nb146  1  0.60317082  0.59651494  0.00280697  1
  Nb  Nb147  1  0.19885768  0.00119680  0.19828760  1
  Nb  Nb148  1  0.60267046  0.19818552  0.60375413  1
  Nb  Nb149  1  0.40196199  0.79225542  0.19310250  1
  Pd  Pd150  1  0.19454878  0.39533407  0.00419398  1
  Pd  Pd151  1  0.79754599  0.79208227  0.59219125  1
  Pd  Pd152  1  0.40446544  0.60259581  0.40622680  1
  Pd  Pd153  1  0.19441155  -0.00406744  0.39650543  1
  Pd  Pd154  1  0.60637286  0.40990411  0.20352583  1
  Pd  Pd155  1  0.18933255  0.21309951  0.01036708  1
  Pd  Pd156  1  0.80463325  0.19434954  0.39802662  1
  Pd  Pd157  1  0.79809843  0.79067554  0.41281399  1
  Pd  Pd158  1  0.60210782  0.20732356  0.40726296  1
  Pd  Pd159  1  0.00464222  0.19696692  0.80191875  1
  Pd  Pd160  1  0.19288785  0.60324722  0.40209082  1
  Pd  Pd161  1  0.59800733  0.60296075  0.80124832  1
  Pd  Pd162  1  0.80235261  0.40327864  -0.00298874  1
  Pd  Pd163  1  0.59431595  0.80206720  0.20964340  1
  Pd  Pd164  1  0.39809334  0.79268677  0.80422313  1
  Pd  Pd165  1  -0.00349229  0.00080498  0.39467976  1
  Pd  Pd166  1  0.20759974  0.60518374  0.60616217  1
  Pd  Pd167  1  0.80747114  0.39851912  0.79765124  1
  Pd  Pd168  1  0.39571953  0.60318005  0.20670641  1
  Pd  Pd169  1  0.81064161  0.40473921  0.60177189  1
  Pd  Pd170  1  0.79559362  0.19247491  0.59387764  1
  Pd  Pd171  1  0.79476320  0.19166294  0.80395513  1
  Pd  Pd172  1  0.19421614  -0.00793963  0.79720019  1
  Pd  Pd173  1  0.20818511  0.80878241  0.00012926  1
  Pd  Pd174  1  -0.00304380  -0.00654154  0.21221374  1
  Pd  Pd175  1  -0.01093195  0.39780403  0.79349119  1
  Pd  Pd176  1  0.40633425  0.39807892  0.41097937  1
  Pd  Pd177  1  -0.00371084  0.78669010  0.19457565  1
  Pd  Pd178  1  0.81180360  0.80113180  0.18977045  1
  Pd  Pd179  1  0.19914197  -0.00092560  0.60499092  1
  Pd  Pd180  1  0.80638976  0.00708107  0.80590711  1
  Pd  Pd181  1  0.59221929  0.20411361  -0.00871881  1
  Pd  Pd182  1  0.39340709  -0.00797314  -0.00318931  1
  Pd  Pd183  1  0.81634784  0.00558214  0.39151908  1
  Pd  Pd184  1  0.38907039  0.40450869  0.79744729  1
  Pd  Pd185  1  0.60359027  0.59179070  0.20022509  1
  Pd  Pd186  1  0.20690117  -0.00776527  0.00322494  1
  Pd  Pd187  1  0.19155336  0.60579910  0.20313528  1
  Pd  Pd188  1  0.00790916  0.40376584  0.40978449  1
  Pd  Pd189  1  0.20298191  0.20848099  0.39837220  1
  Pd  Pd190  1  0.59792192  0.38904536  0.59297558  1
  Pd  Pd191  1  0.59471964  0.38970966  0.80676173  1
  Pd  Pd192  1  0.00248583  0.20191303  0.60136830  1
  Pd  Pd193  1  0.39095229  0.20741768  0.20628747  1
  Pd  Pd194  1  0.40307283  0.40211395  0.00152442  1
  Pd  Pd195  1  0.40003901  -0.00955360  0.19524849  1
  Pd  Pd196  1  0.60057075  0.59295812  0.39052787  1
  Pd  Pd197  1  0.60274930  0.19361967  0.19834824  1
  Pd  Pd198  1  0.20696245  0.80527639  0.19904073  1
  Pd  Pd199  1  0.60929903  0.01223856  0.00795471  1
  Rh  Rh200  1  0.79717599  0.00779386  0.59746634  1
  Rh  Rh201  1  0.79333014  0.39985569  0.39734205  1
  Rh  Rh202  1  0.39777626  -0.00069891  0.79818805  1
  Rh  Rh203  1  0.41451654  0.78418992  0.38639180  1
  Rh  Rh204  1  -0.00134811  0.20064596  0.40275087  1
  Rh  Rh205  1  -0.00982614  0.40619841  0.19909388  1
  Rh  Rh206  1  0.79835540  0.59803885  0.40848515  1
  Rh  Rh207  1  0.19430803  0.40182298  0.41087802  1
  Rh  Rh208  1  0.00265933  0.60446165  0.00616836  1
  Rh  Rh209  1  0.40244100  0.20226465  0.80446821  1
  Rh  Rh210  1  -0.00076122  0.79748238  0.40575898  1
  Rh  Rh211  1  -0.00248922  0.79405690  0.00387925  1
  Rh  Rh212  1  0.19428893  0.79756931  0.80195333  1
  Rh  Rh213  1  0.59762490  0.00624942  0.79503731  1
  Rh  Rh214  1  0.19016396  0.59609840  -0.00496420  1
  Rh  Rh215  1  0.61020360  0.79990090  0.79718235  1
  Rh  Rh216  1  0.59882993  0.60345857  0.61116199  1
  Rh  Rh217  1  0.40304745  0.41092948  0.59216344  1
  Rh  Rh218  1  0.19030686  0.40041774  0.59330380  1
  Rh  Rh219  1  0.19173795  0.80411881  0.40667871  1
  Rh  Rh220  1  0.00411694  0.60601465  0.80023453  1
  Rh  Rh221  1  0.80490071  0.80284360  -0.00226651  1
  Rh  Rh222  1  0.40759528  0.18949685  0.59036993  1
  Rh  Rh223  1  0.80063936  0.19524518  0.20757568  1
  Rh  Rh224  1  0.41024934  0.60494900  -0.01348798  1
  Rh  Rh225  1  0.00467337  0.21093659  0.19814904  1
  Rh  Rh226  1  0.19144484  0.20076503  0.60487617  1
  Rh  Rh227  1  0.40987219  0.80313392  0.60707840  1
  Rh  Rh228  1  0.19325037  0.80402929  0.59565016  1
  Rh  Rh229  1  0.80888214  0.19265009  -0.00520078  1
  Rh  Rh230  1  0.19488984  0.20556346  0.79419182  1
  Rh  Rh231  1  0.59654533  0.78804687  -0.01065980  1
  Rh  Rh232  1  0.20303916  0.40281077  0.80042785  1
  Rh  Rh233  1  0.40021681  0.19988265  -0.00152215  1
  Rh  Rh234  1  0.81170949  0.59727147  0.19506492  1
  Rh  Rh235  1  -0.00261187  0.00028851  -0.00784196  1
  Rh  Rh236  1  0.80109715  0.60947266  0.79359706  1
  Rh  Rh237  1  0.20301852  0.39510316  0.19138188  1
  Rh  Rh238  1  0.39218115  0.01160317  0.41496885  1
  Rh  Rh239  1  0.80100315  0.79688558  0.80142034  1
  Rh  Rh240  1  -0.00885464  0.59360701  0.59727681  1
  Rh  Rh241  1  0.39011529  0.40564192  0.19411151  1
  Rh  Rh242  1  0.60320959  -0.01399079  0.40333668  1
  Rh  Rh243  1  -0.00147778  0.80637532  0.79618950  1
  Rh  Rh244  1  0.00796460  0.59610445  0.39322051  1
  Rh  Rh245  1  -0.00289189  0.80227787  0.59738380  1
  Rh  Rh246  1  -0.00643740  0.39397970  0.00123960  1
  Rh  Rh247  1  0.00237711  0.00601970  0.61001046  1
  Rh  Rh248  1  0.79506166  0.60263540  -0.00528584  1
  Rh  Rh249  1  0.80322194  0.40339487  0.20208962  1
