# generated using pymatgen
data_ZrScNbPdRh
_symmetry_space_group_name_H-M   'P 1'
_cell_length_a   16.56381201
_cell_length_b   16.56281371
_cell_length_c   16.56371178
_cell_angle_alpha   90.00629719
_cell_angle_beta   90.00107706
_cell_angle_gamma   89.99771860
_symmetry_Int_Tables_number   1
_chemical_formula_structural   ZrScNbPdRh
_chemical_formula_sum   'Zr50 Sc50 Nb50 Pd50 Rh50'
_cell_volume   4544.14385974
_cell_formula_units_Z   50
loop_
 _symmetry_equiv_pos_site_id
 _symmetry_equiv_pos_as_xyz
  1  'x, y, z'
loop_
 _atom_site_type_symbol
 _atom_site_label
 _atom_site_symmetry_multiplicity
 _atom_site_fract_x
 _atom_site_fract_y
 _atom_site_fract_z
 _atom_site_occupancy
  Zr  Zr0  1  0.30529092  0.29451597  0.30906951  1
  Zr  Zr1  1  0.70459242  0.90653047  0.69994559  1
  Zr  Zr2  1  0.50227903  0.30319977  0.89658759  1
  Zr  Zr3  1  0.50304044  0.30160299  0.69628706  1
  Zr  Zr4  1  0.70560080  0.50762865  0.89915465  1
  Zr  Zr5  1  0.09075105  0.30726233  0.10310966  1
  Zr  Zr6  1  0.91090269  0.70066799  0.69621467  1
  Zr  Zr7  1  0.70542767  0.89862790  0.49401123  1
  Zr  Zr8  1  0.49315197  0.69832015  0.70440298  1
  Zr  Zr9  1  0.89498076  0.89811226  0.90127325  1
  Zr  Zr10  1  0.50738586  0.09465809  0.90177558  1
  Zr  Zr11  1  0.30537210  0.09567517  0.49844868  1
  Zr  Zr12  1  0.10672800  0.50471825  0.69582927  1
  Zr  Zr13  1  0.90209598  0.10385191  0.50074626  1
  Zr  Zr14  1  0.69446438  0.49523421  0.50007919  1
  Zr  Zr15  1  0.29506687  0.69559773  0.70669408  1
  Zr  Zr16  1  0.30556904  0.90830005  0.29955148  1
  Zr  Zr17  1  0.30776305  0.50563679  0.90206155  1
  Zr  Zr18  1  0.10485600  0.29880107  0.90016295  1
  Zr  Zr19  1  0.48743636  0.90257628  0.10523598  1
  Zr  Zr20  1  0.90083387  0.69751417  0.29655632  1
  Zr  Zr21  1  0.49873275  0.50024171  0.70031468  1
  Zr  Zr22  1  0.29983485  0.50529129  0.09623175  1
  Zr  Zr23  1  0.50193915  0.70171717  0.90274393  1
  Zr  Zr24  1  0.49489851  0.90313380  0.50388219  1
  Zr  Zr25  1  0.49086692  0.10061295  0.29625041  1
  Zr  Zr26  1  0.10251609  0.49933751  0.90232918  1
  Zr  Zr27  1  0.69674097  0.90619982  0.89838410  1
  Zr  Zr28  1  0.29351900  0.10073015  0.30952169  1
  Zr  Zr29  1  0.90158302  0.30138029  0.49634875  1
  Zr  Zr30  1  0.49846062  0.49587484  0.50573607  1
  Zr  Zr31  1  0.89620152  0.50089950  0.10650215  1
  Zr  Zr32  1  0.70215823  0.10127124  0.29923884  1
  Zr  Zr33  1  0.50729696  0.90218457  0.91286568  1
  Zr  Zr34  1  0.90378420  0.69964806  0.49870271  1
  Zr  Zr35  1  0.09696568  0.70207272  0.50537358  1
  Zr  Zr36  1  0.50148950  0.29598925  0.29978073  1
  Zr  Zr37  1  0.09028238  0.90843158  0.30422461  1
  Zr  Zr38  1  0.30033106  0.09819736  0.69685472  1
  Zr  Zr39  1  0.49884108  0.29996368  0.50096884  1
  Zr  Zr40  1  0.09769578  0.30232489  0.29789545  1
  Zr  Zr41  1  0.90034808  0.31005111  0.29945485  1
  Zr  Zr42  1  0.09667557  0.69600961  0.30450602  1
  Zr  Zr43  1  0.30081842  0.09020647  0.09400583  1
  Zr  Zr44  1  0.89577590  0.10086607  0.69568385  1
  Zr  Zr45  1  0.29231662  0.29619797  0.69818627  1
  Zr  Zr46  1  0.29342027  0.50215053  0.30456205  1
  Zr  Zr47  1  0.09997568  0.69922876  0.90827729  1
  Zr  Zr48  1  0.10529750  0.09880536  0.70524195  1
  Zr  Zr49  1  0.09420788  0.50001321  0.29506912  1
  Sc  Sc50  1  0.10476637  0.09955366  0.49477682  1
  Sc  Sc51  1  0.09521194  0.50445953  0.49949199  1
  Sc  Sc52  1  0.70061583  0.10045191  0.89947677  1
  Sc  Sc53  1  0.70169334  0.89782740  0.29939107  1
  Sc  Sc54  1  0.50539327  0.50375905  0.09656859  1
  Sc  Sc55  1  0.50680678  0.71058262  0.29026867  1
  Sc  Sc56  1  0.10291729  0.29803892  0.50911528  1
  Sc  Sc57  1  0.30165156  0.50358856  0.70387674  1
  Sc  Sc58  1  0.29505728  0.90210363  0.91000806  1
  Sc  Sc59  1  0.28573590  0.70358524  0.50184969  1
  Sc  Sc60  1  0.50018322  0.70569747  0.09544010  1
  Sc  Sc61  1  0.70196188  0.29423382  0.70387861  1
  Sc  Sc62  1  0.69127071  0.69396650  0.70108322  1
  Sc  Sc63  1  0.28290902  0.09635839  0.89633584  1
  Sc  Sc64  1  0.28904164  0.69947455  0.30272403  1
  Sc  Sc65  1  0.49837207  0.10154603  0.51335663  1
  Sc  Sc66  1  0.89712500  0.30581196  0.89385732  1
  Sc  Sc67  1  0.50345646  0.89855228  0.70005317  1
  Sc  Sc68  1  0.50814312  0.29226550  0.10795297  1
  Sc  Sc69  1  0.70420580  0.49715484  0.28075823  1
  Sc  Sc70  1  0.09746350  0.89566391  0.70468567  1
  Sc  Sc71  1  0.90238640  0.09237352  0.29351675  1
  Sc  Sc72  1  0.70582897  0.68216175  0.09560459  1
  Sc  Sc73  1  0.89252609  0.09075343  0.90519644  1
  Sc  Sc74  1  0.50550641  0.70237111  0.51000992  1
  Sc  Sc75  1  0.69299323  0.90906670  0.09852767  1
  Sc  Sc76  1  0.89607383  0.90519227  0.30739421  1
  Sc  Sc77  1  0.09926849  0.90787554  0.90210744  1
  Sc  Sc78  1  0.30096066  0.89024698  0.70203521  1
  Sc  Sc79  1  0.10344662  0.29943823  0.69581878  1
  Sc  Sc80  1  0.90417458  0.70096125  0.09110838  1
  Sc  Sc81  1  0.90344924  0.50484522  0.89629227  1
  Sc  Sc82  1  0.70283534  0.10250799  0.50494176  1
  Sc  Sc83  1  0.70073524  0.70298234  0.29584087  1
  Sc  Sc84  1  0.70338003  0.29037046  0.49321697  1
  Sc  Sc85  1  0.30053246  0.29180716  0.50288159  1
  Sc  Sc86  1  0.50514613  0.09316692  0.10056647  1
  Sc  Sc87  1  0.90740050  0.90985832  0.09647818  1
  Sc  Sc88  1  0.90109892  0.90117204  0.50004562  1
  Sc  Sc89  1  0.68937519  0.49769540  0.69737679  1
  Sc  Sc90  1  0.29959353  0.31068479  0.89751909  1
  Sc  Sc91  1  0.90373264  0.90293035  0.69740011  1
  Sc  Sc92  1  0.29637702  0.30253932  0.09654932  1
  Sc  Sc93  1  0.30157282  0.69858590  0.90144520  1
  Sc  Sc94  1  0.90896349  0.49850283  0.70384060  1
  Sc  Sc95  1  0.29696769  0.49906375  0.50543743  1
  Sc  Sc96  1  0.90252507  0.29349719  0.69481447  1
  Sc  Sc97  1  0.70108823  0.70734301  0.49836813  1
  Sc  Sc98  1  0.30161415  0.70471383  0.08774918  1
  Sc  Sc99  1  0.10340519  0.70214702  0.69701127  1
  Nb  Nb100  1  0.10564199  0.89719203  0.50042579  1
  Nb  Nb101  1  0.09726840  0.10198650  0.29871462  1
  Nb  Nb102  1  0.49688882  0.49713949  0.30220528  1
  Nb  Nb103  1  0.89809256  0.49476170  0.49056223  1
  Nb  Nb104  1  0.10023434  0.50585171  0.09896814  1
  Nb  Nb105  1  0.29941190  0.90398792  0.49655081  1
  Nb  Nb106  1  0.70001165  0.49294727  0.09638806  1
  Nb  Nb107  1  0.50084297  0.09971677  0.70024907  1
  Nb  Nb108  1  0.09886170  0.10043562  0.90302888  1
  Nb  Nb109  1  0.88982348  0.69881025  0.89936380  1
  Nb  Nb110  1  0.90216559  0.10854761  0.10204719  1
  Nb  Nb111  1  0.69452044  0.29889708  0.29151160  1
  Nb  Nb112  1  0.70151558  0.29922532  0.90787644  1
  Nb  Nb113  1  0.70421707  0.29663620  0.10608539  1
  Nb  Nb114  1  0.50032276  0.90274754  0.29686610  1
  Nb  Nb115  1  0.70939380  0.69999025  0.90074197  1
  Nb  Nb116  1  0.09103514  0.09694647  0.10095047  1
  Nb  Nb117  1  0.90255220  0.49837149  0.31055006  1
  Nb  Nb118  1  0.69620633  0.09855376  0.70135342  1
  Nb  Nb119  1  0.71672489  0.11845116  0.10016864  1
  Nb  Nb120  1  0.89534283  0.28898719  0.10202000  1
  Nb  Nb121  1  0.10115058  0.70426751  0.10095144  1
  Nb  Nb122  1  0.49427412  0.49429051  0.89804860  1
  Nb  Nb123  1  0.10005781  0.90103541  0.09752237  1
  Nb  Nb124  1  0.29457450  0.90022812  0.10016547  1
  Nb  Nb125  1  0.40073577  0.80238239  0.39856074  1
  Nb  Nb126  1  0.80445960  0.59343346  0.59308538  1
  Nb  Nb127  1  0.40006957  0.59792083  0.20516717  1
  Nb  Nb128  1  0.00081453  0.20060695  0.39490298  1
  Nb  Nb129  1  0.79513510  0.39442910  0.00521652  1
  Nb  Nb130  1  0.59507941  -0.00221109  0.39738372  1
  Nb  Nb131  1  0.19312018  0.19230335  0.19836648  1
  Nb  Nb132  1  -0.00168964  0.19731982  0.00041683  1
  Nb  Nb133  1  0.19247435  0.00020783  0.19695133  1
  Nb  Nb134  1  0.40227577  0.19591003  0.80147085  1
  Nb  Nb135  1  0.40394956  0.00458315  0.80079420  1
  Nb  Nb136  1  0.40161505  0.40491537  0.20477942  1
  Nb  Nb137  1  0.00412344  0.19410359  0.80739306  1
  Nb  Nb138  1  0.19266670  0.80673605  0.19412839  1
  Nb  Nb139  1  0.40021863  0.19666340  -0.00820765  1
  Nb  Nb140  1  0.40605973  0.60478903  0.39720361  1
  Nb  Nb141  1  0.19886563  0.39893525  0.39948698  1
  Nb  Nb142  1  0.59999615  0.39883627  0.38986688  1
  Nb  Nb143  1  0.80365686  0.80005360  0.19471846  1
  Nb  Nb144  1  0.60856731  0.39759412  0.00027885  1
  Nb  Nb145  1  0.79889538  0.59243178  0.39913894  1
  Nb  Nb146  1  0.80266954  0.40340555  0.59408469  1
  Nb  Nb147  1  0.59792288  0.59429036  0.39525086  1
  Nb  Nb148  1  0.20311089  -0.00779356  0.59501639  1
  Nb  Nb149  1  0.79937915  0.79430871  0.80391084  1
  Pd  Pd150  1  0.00435618  0.39158599  0.79511895  1
  Pd  Pd151  1  0.41194725  0.39185479  0.01272434  1
  Pd  Pd152  1  0.60509738  0.00567937  0.20114551  1
  Pd  Pd153  1  0.80239125  0.60284306  0.78511151  1
  Pd  Pd154  1  0.19901310  0.20004238  0.00600999  1
  Pd  Pd155  1  0.39010260  0.39774744  0.60474805  1
  Pd  Pd156  1  0.59439733  0.59836501  0.80693829  1
  Pd  Pd157  1  0.20679256  0.39449977  0.20300261  1
  Pd  Pd158  1  0.60614427  0.80068549  0.79953441  1
  Pd  Pd159  1  0.79612378  0.00294833  0.00855894  1
  Pd  Pd160  1  0.20449913  0.61129753  0.19092191  1
  Pd  Pd161  1  0.79888657  0.79159967  0.60959613  1
  Pd  Pd162  1  0.59335067  0.80151581  0.39907567  1
  Pd  Pd163  1  0.60327175  0.80110747  0.60506081  1
  Pd  Pd164  1  0.79658387  0.40187026  0.79452100  1
  Pd  Pd165  1  -0.00382101  0.79768952  0.80691234  1
  Pd  Pd166  1  0.59883641  0.19965648  0.00602199  1
  Pd  Pd167  1  -0.00247026  0.40332613  0.60000572  1
  Pd  Pd168  1  -0.00371210  0.80495739  0.19800335  1
  Pd  Pd169  1  -0.00417471  0.80418006  0.40234512  1
  Pd  Pd170  1  0.59718472  0.59556682  -0.00568518  1
  Pd  Pd171  1  0.20233230  0.80629000  0.39251383  1
  Pd  Pd172  1  -0.00538786  0.00440605  0.80310355  1
  Pd  Pd173  1  0.80553373  0.19543489  0.80460996  1
  Pd  Pd174  1  0.60379723  0.00022270  0.59546606  1
  Pd  Pd175  1  0.60040140  0.19778648  0.79737511  1
  Pd  Pd176  1  0.19986757  0.40474942  0.00186135  1
  Pd  Pd177  1  0.19644791  0.80241812  0.80880997  1
  Pd  Pd178  1  0.00090079  0.80363806  -0.00449906  1
  Pd  Pd179  1  0.40050685  0.81017141  0.81171703  1
  Pd  Pd180  1  0.59592106  0.19482445  0.40187511  1
  Pd  Pd181  1  0.79981546  0.00197207  0.59587500  1
  Pd  Pd182  1  -0.00277972  0.59918515  0.19523763  1
  Pd  Pd183  1  0.61130839  0.79879857  0.18852799  1
  Pd  Pd184  1  0.59557329  0.59916944  0.20159761  1
  Pd  Pd185  1  0.38841817  0.79111440  0.20363886  1
  Pd  Pd186  1  0.80841860  0.19722998  0.39123279  1
  Pd  Pd187  1  0.39013400  0.20166577  0.18754061  1
  Pd  Pd188  1  0.61111063  0.79501969  0.00815646  1
  Pd  Pd189  1  0.00733049  0.60563382  0.80223260  1
  Pd  Pd190  1  0.60700489  0.40183781  0.80539453  1
  Pd  Pd191  1  0.79355455  0.80255632  0.00532986  1
  Pd  Pd192  1  0.39189887  0.79541530  0.59374087  1
  Pd  Pd193  1  0.80364057  0.39767456  0.19798878  1
  Pd  Pd194  1  0.01057585  -0.00112883  0.59514640  1
  Pd  Pd195  1  0.80164553  -0.00507233  0.19497928  1
  Pd  Pd196  1  0.20307876  0.40610357  0.79835713  1
  Pd  Pd197  1  -0.00352647  0.59862011  0.00119844  1
  Pd  Pd198  1  -0.01135541  0.39687985  0.00195024  1
  Pd  Pd199  1  0.39239935  0.60760040  0.59258619  1
  Rh  Rh200  1  0.79283378  0.00385403  0.40386348  1
  Rh  Rh201  1  0.19630276  0.79981954  0.00160275  1
  Rh  Rh202  1  0.00349855  0.80822491  0.59767370  1
  Rh  Rh203  1  0.19727630  0.60087609  0.00202369  1
  Rh  Rh204  1  -0.00011944  0.00563799  -0.00185432  1
  Rh  Rh205  1  0.20148328  0.40396070  0.59471566  1
  Rh  Rh206  1  -0.00638038  0.40611788  0.19502692  1
  Rh  Rh207  1  0.59348231  0.39941211  0.19728565  1
  Rh  Rh208  1  0.80113940  -0.00271395  0.79700329  1
  Rh  Rh209  1  0.80779818  0.20503120  -0.00728395  1
  Rh  Rh210  1  0.19694547  0.60089251  0.80559376  1
  Rh  Rh211  1  0.39403728  0.00353024  0.19920801  1
  Rh  Rh212  1  -0.00158445  0.60021286  0.40138143  1
  Rh  Rh213  1  0.19060347  0.20933434  0.39772436  1
  Rh  Rh214  1  0.19158240  -0.00168639  0.00495143  1
  Rh  Rh215  1  0.39787901  0.00266372  -0.00816026  1
  Rh  Rh216  1  -0.00476774  0.59343505  0.59763375  1
  Rh  Rh217  1  0.80669351  0.59151282  0.00004920  1
  Rh  Rh218  1  0.59692063  0.00041876  0.79451354  1
  Rh  Rh219  1  0.78583435  0.40292420  0.39593879  1
  Rh  Rh220  1  0.39811882  0.80478915  -0.00227650  1
  Rh  Rh221  1  0.20696868  -0.00783714  0.79181653  1
  Rh  Rh222  1  0.20063986  0.60118147  0.60044827  1
  Rh  Rh223  1  0.60502047  0.60701823  0.59399611  1
  Rh  Rh224  1  0.19803813  0.59220649  0.40807372  1
  Rh  Rh225  1  0.39689430  0.40513115  0.39955784  1
  Rh  Rh226  1  0.00427603  0.19440448  0.60130572  1
  Rh  Rh227  1  0.60549637  0.19913270  0.60453036  1
  Rh  Rh228  1  0.19909651  0.80620211  0.60260001  1
  Rh  Rh229  1  0.40839002  0.19210558  0.40995244  1
  Rh  Rh230  1  0.39643693  0.39637239  0.79173662  1
  Rh  Rh231  1  0.80374473  0.20133934  0.21182504  1
  Rh  Rh232  1  0.00010619  0.20032632  0.20118528  1
  Rh  Rh233  1  0.39365655  -0.00727305  0.61132783  1
  Rh  Rh234  1  0.40814053  0.60332386  0.00242644  1
  Rh  Rh235  1  0.01248110  0.39345608  0.40588934  1
  Rh  Rh236  1  -0.00019573  0.00731263  0.40752505  1
  Rh  Rh237  1  0.40531408  0.59927104  0.80463806  1
  Rh  Rh238  1  0.80442278  0.60398540  0.20369903  1
  Rh  Rh239  1  0.60419421  0.19033375  0.19719262  1
  Rh  Rh240  1  -0.00067531  -0.00178596  0.19795608  1
  Rh  Rh241  1  0.80435112  0.79301525  0.38880745  1
  Rh  Rh242  1  0.19866312  0.20268458  0.80167936  1
  Rh  Rh243  1  0.61144389  0.01266502  0.00957564  1
  Rh  Rh244  1  0.79502348  0.20526405  0.60362888  1
  Rh  Rh245  1  0.19879101  0.18780235  0.59693306  1
  Rh  Rh246  1  0.41135142  -0.00110354  0.40097883  1
  Rh  Rh247  1  0.40028047  0.20403196  0.60566931  1
  Rh  Rh248  1  0.61244582  0.38269887  0.59151714  1
  Rh  Rh249  1  0.19345171  -0.00450343  0.40063709  1
