# generated using pymatgen
data_ZrScNbPdRh
_symmetry_space_group_name_H-M   'P 1'
_cell_length_a   16.56581444
_cell_length_b   16.55969468
_cell_length_c   16.56500701
_cell_angle_alpha   90.01250355
_cell_angle_beta   89.97278806
_cell_angle_gamma   89.98939345
_symmetry_Int_Tables_number   1
_chemical_formula_structural   ZrScNbPdRh
_chemical_formula_sum   'Zr50 Sc50 Nb50 Pd50 Rh50'
_cell_volume   4544.19201982
_cell_formula_units_Z   50
loop_
 _symmetry_equiv_pos_site_id
 _symmetry_equiv_pos_as_xyz
  1  'x, y, z'
loop_
 _atom_site_type_symbol
 _atom_site_label
 _atom_site_symmetry_multiplicity
 _atom_site_fract_x
 _atom_site_fract_y
 _atom_site_fract_z
 _atom_site_occupancy
  Zr  Zr0  1  0.10157814  0.70306954  0.30504577  1
  Zr  Zr1  1  0.90809587  0.68950484  0.69519807  1
  Zr  Zr2  1  0.89964744  0.49745314  0.89717010  1
  Zr  Zr3  1  0.89364712  0.29250422  0.89881529  1
  Zr  Zr4  1  0.30149921  0.31100134  0.70553354  1
  Zr  Zr5  1  0.10164100  0.09053424  0.90937196  1
  Zr  Zr6  1  0.70019806  0.69831771  0.30441506  1
  Zr  Zr7  1  0.90636303  0.29937543  0.30080725  1
  Zr  Zr8  1  0.28949079  0.29498324  0.49733622  1
  Zr  Zr9  1  0.30897818  0.89226627  0.89633439  1
  Zr  Zr10  1  0.69265783  0.09738145  0.50555987  1
  Zr  Zr11  1  0.10051932  0.10090423  0.70506991  1
  Zr  Zr12  1  0.49504090  0.90224945  0.70126571  1
  Zr  Zr13  1  0.49543103  0.29354819  0.28676800  1
  Zr  Zr14  1  0.10123877  0.29829296  0.69420726  1
  Zr  Zr15  1  0.90647998  0.70124568  0.89143575  1
  Zr  Zr16  1  0.49402207  0.49360791  0.09331358  1
  Zr  Zr17  1  0.30247568  0.70166909  0.49947769  1
  Zr  Zr18  1  0.48920902  0.69737479  0.09579437  1
  Zr  Zr19  1  0.30308988  0.90364096  0.50156243  1
  Zr  Zr20  1  0.09722291  0.89305074  0.90326023  1
  Zr  Zr21  1  0.30260913  0.09548455  0.90372768  1
  Zr  Zr22  1  0.50107976  0.70090988  0.49784426  1
  Zr  Zr23  1  0.69747321  0.50609839  0.50089737  1
  Zr  Zr24  1  0.69586749  0.49715966  0.89605050  1
  Zr  Zr25  1  0.70326710  0.10005714  0.10454243  1
  Zr  Zr26  1  0.29742823  0.49962820  0.89284153  1
  Zr  Zr27  1  0.89730075  0.09742216  0.50334671  1
  Zr  Zr28  1  0.30321532  0.09911441  0.49260651  1
  Zr  Zr29  1  0.10536167  0.90964379  0.09627814  1
  Zr  Zr30  1  0.69972474  0.90014270  0.90232842  1
  Zr  Zr31  1  0.09961419  0.70399281  0.50182324  1
  Zr  Zr32  1  0.90082629  0.50275878  0.30101272  1
  Zr  Zr33  1  0.69445570  0.70630121  0.89189288  1
  Zr  Zr34  1  0.89297219  0.90427135  0.10037184  1
  Zr  Zr35  1  0.10054040  0.30940389  0.10529617  1
  Zr  Zr36  1  0.69863983  0.90513836  0.08986203  1
  Zr  Zr37  1  0.30373781  0.50921276  0.70330522  1
  Zr  Zr38  1  0.30307639  0.51004175  0.49878707  1
  Zr  Zr39  1  0.10485199  0.90035536  0.30163863  1
  Zr  Zr40  1  0.69852416  0.70109388  0.69842621  1
  Zr  Zr41  1  0.10793017  0.89122431  0.69882310  1
  Zr  Zr42  1  0.90014870  0.10552997  0.29668961  1
  Zr  Zr43  1  0.29895027  0.29378955  0.30155924  1
  Zr  Zr44  1  0.49963373  0.08869107  0.90097393  1
  Zr  Zr45  1  0.10594663  0.89601765  0.49687115  1
  Zr  Zr46  1  0.69688201  0.69775945  0.50056546  1
  Zr  Zr47  1  0.09968725  0.50426621  0.70487160  1
  Zr  Zr48  1  0.69878198  0.90576642  0.70311231  1
  Zr  Zr49  1  0.10565752  0.70200718  0.89832785  1
  Sc  Sc50  1  0.69657205  0.89577230  0.28209683  1
  Sc  Sc51  1  0.49065734  0.10261149  0.29556550  1
  Sc  Sc52  1  0.50215627  0.70369440  0.69893641  1
  Sc  Sc53  1  0.30010353  0.70227171  0.08778672  1
  Sc  Sc54  1  0.49048941  0.89843319  0.29680270  1
  Sc  Sc55  1  0.29987208  0.70417044  0.30745214  1
  Sc  Sc56  1  0.10254959  0.10879541  0.50778098  1
  Sc  Sc57  1  0.49610007  0.09991450  0.10024837  1
  Sc  Sc58  1  0.09906881  0.49715094  0.49691791  1
  Sc  Sc59  1  0.30576712  0.50638028  0.09218141  1
  Sc  Sc60  1  0.70628749  0.50684168  0.29717615  1
  Sc  Sc61  1  0.50759360  0.09115006  0.70142713  1
  Sc  Sc62  1  0.90514489  0.69424033  0.10304098  1
  Sc  Sc63  1  0.10521352  0.50460620  0.90842535  1
  Sc  Sc64  1  0.09853124  0.49198209  0.30031150  1
  Sc  Sc65  1  0.49503433  0.89571833  0.50164805  1
  Sc  Sc66  1  0.69449619  0.90200840  0.51055762  1
  Sc  Sc67  1  0.50112392  0.89781786  0.09805047  1
  Sc  Sc68  1  0.09529798  0.30155440  0.49572287  1
  Sc  Sc69  1  0.89657497  0.69552383  0.29736877  1
  Sc  Sc70  1  0.70111580  0.71270408  0.10124074  1
  Sc  Sc71  1  0.89920792  0.09973501  0.71236461  1
  Sc  Sc72  1  0.49706618  0.09640848  0.50155573  1
  Sc  Sc73  1  0.90916759  0.49873792  0.10846882  1
  Sc  Sc74  1  0.89787006  0.90660474  0.90161718  1
  Sc  Sc75  1  0.69776306  0.49580643  0.70000804  1
  Sc  Sc76  1  0.89802167  0.50068419  0.50910763  1
  Sc  Sc77  1  0.50668566  0.30307265  0.51289173  1
  Sc  Sc78  1  0.49515981  0.70382538  0.30534628  1
  Sc  Sc79  1  0.70599258  0.09765720  0.89851847  1
  Sc  Sc80  1  0.90083676  0.09987362  0.10378410  1
  Sc  Sc81  1  0.89817631  0.49789978  0.69557666  1
  Sc  Sc82  1  0.30989746  0.30328680  0.09343306  1
  Sc  Sc83  1  0.89709907  0.29528072  0.11136714  1
  Sc  Sc84  1  0.91370424  0.90232045  0.50138576  1
  Sc  Sc85  1  0.90702310  0.30517296  0.50346104  1
  Sc  Sc86  1  0.29903831  0.89733818  0.10727064  1
  Sc  Sc87  1  0.69174111  0.29304946  0.89680452  1
  Sc  Sc88  1  0.30467887  0.09085315  0.69451584  1
  Sc  Sc89  1  0.11034664  0.30779465  0.90613924  1
  Sc  Sc90  1  0.29945154  0.08992348  0.09853047  1
  Sc  Sc91  1  0.90059108  0.90736118  0.70236829  1
  Sc  Sc92  1  0.09268705  0.09997263  0.29471451  1
  Sc  Sc93  1  0.49738032  0.49869726  0.89555582  1
  Sc  Sc94  1  0.10004927  0.70072282  0.70432249  1
  Sc  Sc95  1  0.09786152  0.30461200  0.30590350  1
  Sc  Sc96  1  0.89652549  0.29859692  0.70167528  1
  Sc  Sc97  1  0.29744506  0.50338528  0.30435434  1
  Sc  Sc98  1  0.10202382  0.70422507  0.09051027  1
  Sc  Sc99  1  0.68798613  0.29851856  0.50631406  1
  Nb  Nb100  1  0.69908370  0.29494511  0.29582864  1
  Nb  Nb101  1  0.90268100  0.10405046  0.90117451  1
  Nb  Nb102  1  0.49705430  0.49731233  0.29461445  1
  Nb  Nb103  1  0.30666798  0.09899455  0.29722937  1
  Nb  Nb104  1  0.49712413  0.29503439  0.90676863  1
  Nb  Nb105  1  0.29631297  0.70726582  0.70444289  1
  Nb  Nb106  1  0.70212224  0.09191179  0.69637832  1
  Nb  Nb107  1  0.68977613  0.28993641  0.69868805  1
  Nb  Nb108  1  0.90637602  0.90235820  0.30491566  1
  Nb  Nb109  1  0.29785322  0.91433767  0.30475469  1
  Nb  Nb110  1  0.30144264  0.30035918  0.89622690  1
  Nb  Nb111  1  0.50385821  0.30308238  0.08845468  1
  Nb  Nb112  1  0.69480666  0.49857465  0.09479074  1
  Nb  Nb113  1  0.30368341  0.69426608  0.89876522  1
  Nb  Nb114  1  0.30325724  0.89438209  0.69681067  1
  Nb  Nb115  1  0.10051473  0.50672705  0.10590782  1
  Nb  Nb116  1  0.69568646  0.30268865  0.10029034  1
  Nb  Nb117  1  0.50717082  0.89586620  0.90016440  1
  Nb  Nb118  1  0.89901710  0.69908633  0.49890943  1
  Nb  Nb119  1  0.69553742  0.10477293  0.30275657  1
  Nb  Nb120  1  0.50543612  0.29950946  0.70096161  1
  Nb  Nb121  1  0.49428863  0.48634336  0.68707361  1
  Nb  Nb122  1  0.49943763  0.50025412  0.49610667  1
  Nb  Nb123  1  0.10522943  0.10090437  0.09783696  1
  Nb  Nb124  1  0.49994027  0.70839628  0.90440115  1
  Nb  Nb125  1  -0.00216208  0.60418679  0.40262503  1
  Nb  Nb126  1  0.79568978  -0.00112849  0.39523328  1
  Nb  Nb127  1  0.79322374  0.40074070  0.00535584  1
  Nb  Nb128  1  0.59735948  0.40138741  0.39010212  1
  Nb  Nb129  1  0.79128603  0.39363433  0.39746077  1
  Nb  Nb130  1  0.80383260  0.79676446  0.59592952  1
  Nb  Nb131  1  0.59498004  0.59478829  0.19425971  1
  Nb  Nb132  1  0.40788460  0.40159245  0.40022177  1
  Nb  Nb133  1  0.60070127  0.60273332  -0.00015207  1
  Nb  Nb134  1  0.00385399  0.19742915  0.00118778  1
  Nb  Nb135  1  0.40063056  0.20456662  0.60922122  1
  Nb  Nb136  1  0.19625225  0.60023557  0.19629725  1
  Nb  Nb137  1  0.20830817  0.19643608  0.80335494  1
  Nb  Nb138  1  0.00088366  0.39908602  0.80360814  1
  Nb  Nb139  1  0.40315128  0.20480149  0.80146753  1
  Nb  Nb140  1  0.60471905  0.00247989  0.39297089  1
  Nb  Nb141  1  0.20361766  0.40457809  0.60240402  1
  Nb  Nb142  1  0.79423116  0.59553199  -0.00269750  1
  Nb  Nb143  1  0.20299528  0.19706823  0.19778063  1
  Nb  Nb144  1  0.00098188  0.80747164  0.20340475  1
  Nb  Nb145  1  0.79298304  0.20064855  0.40145473  1
  Nb  Nb146  1  0.80293194  0.80609724  0.40274661  1
  Nb  Nb147  1  0.79191311  0.19544310  0.60198882  1
  Nb  Nb148  1  0.60104301  0.39878087  0.19670453  1
  Nb  Nb149  1  0.20442778  -0.00514587  0.80038882  1
  Pd  Pd150  1  0.60522931  0.81395965  0.39836674  1
  Pd  Pd151  1  0.19986852  0.00125203  0.60289916  1
  Pd  Pd152  1  0.39963302  0.19712139  0.00056660  1
  Pd  Pd153  1  0.21021976  0.40294825  0.19706169  1
  Pd  Pd154  1  0.59633635  0.19989988  0.19089728  1
  Pd  Pd155  1  0.79973127  0.59895366  0.79907268  1
  Pd  Pd156  1  0.39461845  0.39912985  0.20133992  1
  Pd  Pd157  1  0.19515630  0.60118314  0.60287444  1
  Pd  Pd158  1  0.79890994  0.39133732  0.79917730  1
  Pd  Pd159  1  0.00436740  0.00946698  0.40427260  1
  Pd  Pd160  1  0.59652003  0.18945190  0.80084085  1
  Pd  Pd161  1  0.00090552  -0.00292839  0.19551471  1
  Pd  Pd162  1  -0.00722686  0.80155644  0.00738295  1
  Pd  Pd163  1  0.39229534  0.60489118  0.20573973  1
  Pd  Pd164  1  0.00554469  -0.00627626  0.80154742  1
  Pd  Pd165  1  0.79598545  0.40039003  0.20033917  1
  Pd  Pd166  1  0.79863410  0.00204149  0.20688733  1
  Pd  Pd167  1  0.40706500  0.60785032  0.60499785  1
  Pd  Pd168  1  0.60196501  0.19124447  0.00092468  1
  Pd  Pd169  1  0.01269160  0.20839181  0.81161927  1
  Pd  Pd170  1  0.79111038  0.38967607  0.59624246  1
  Pd  Pd171  1  0.59386031  0.20075500  0.40161524  1
  Pd  Pd172  1  -0.00452509  0.80220689  0.60607419  1
  Pd  Pd173  1  0.41065546  0.39654235  0.80559915  1
  Pd  Pd174  1  0.59437261  0.39736626  0.79918697  1
  Pd  Pd175  1  0.19930118  0.79359952  0.19834535  1
  Pd  Pd176  1  0.40459889  0.79286047  0.79887176  1
  Pd  Pd177  1  0.79218806  0.60153462  0.18776854  1
  Pd  Pd178  1  -0.00970484  0.39277861  0.00024751  1
  Pd  Pd179  1  0.40017545  -0.01096833  0.00715734  1
  Pd  Pd180  1  0.80782179  0.80269171  0.79052281  1
  Pd  Pd181  1  0.58825818  0.59612565  0.79697040  1
  Pd  Pd182  1  0.40984364  0.60430890  0.79688881  1
  Pd  Pd183  1  0.41202570  0.20889634  0.41174881  1
  Pd  Pd184  1  0.39286477  0.79939562  0.20313443  1
  Pd  Pd185  1  -0.01119738  0.19869976  0.60176834  1
  Pd  Pd186  1  0.19252757  0.01144667  0.39801533  1
  Pd  Pd187  1  0.59093277  0.79237507  0.19681017  1
  Pd  Pd188  1  0.00507034  0.00097511  0.60407294  1
  Pd  Pd189  1  0.18904520  0.19179236  0.38945410  1
  Pd  Pd190  1  -0.00359157  0.59952079  -0.00119742  1
  Pd  Pd191  1  0.80735770  0.79032191  -0.00257909  1
  Pd  Pd192  1  0.59184926  0.59490999  0.60765316  1
  Pd  Pd193  1  0.59128474  0.00208372  0.20367169  1
  Pd  Pd194  1  0.20022177  0.20464674  0.00406533  1
  Pd  Pd195  1  0.80880696  0.79973272  0.20594265  1
  Pd  Pd196  1  0.80215363  0.20240728  0.00642931  1
  Pd  Pd197  1  0.39307868  0.39444441  0.58995327  1
  Pd  Pd198  1  0.59263502  0.59411033  0.38936736  1
  Pd  Pd199  1  0.20797003  0.40641151  0.00675298  1
  Rh  Rh200  1  0.39755101  0.79519327  0.60115399  1
  Rh  Rh201  1  0.20871797  0.40658626  0.40903088  1
  Rh  Rh202  1  0.20443419  0.80053457  0.80369353  1
  Rh  Rh203  1  -0.00278830  0.19853546  0.40397605  1
  Rh  Rh204  1  0.40148719  0.00396124  0.59908647  1
  Rh  Rh205  1  0.60090160  0.39914193  -0.00247422  1
  Rh  Rh206  1  0.80402197  0.00849652  -0.00326547  1
  Rh  Rh207  1  0.20380022  0.00844830  0.20588198  1
  Rh  Rh208  1  0.60503765  0.40702174  0.59902829  1
  Rh  Rh209  1  0.20971559  -0.01204275  -0.00571834  1
  Rh  Rh210  1  0.39685125  0.40079116  -0.01109766  1
  Rh  Rh211  1  0.20843663  0.80171825  -0.00520372  1
  Rh  Rh212  1  0.20641919  0.79486649  0.59738266  1
  Rh  Rh213  1  0.21066760  0.80579675  0.40260583  1
  Rh  Rh214  1  0.18953148  0.59535764  0.39133401  1
  Rh  Rh215  1  0.59558006  0.80643696  0.79649199  1
  Rh  Rh216  1  0.60346271  0.80398064  0.60447376  1
  Rh  Rh217  1  -0.01238547  0.40836455  0.40251828  1
  Rh  Rh218  1  0.20185545  0.59866338  0.00317404  1
  Rh  Rh219  1  0.01263452  0.60846986  0.20698479  1
  Rh  Rh220  1  0.60033584  0.00293827  -0.00031354  1
  Rh  Rh221  1  0.39933467  -0.00177025  0.19914775  1
  Rh  Rh222  1  0.59001054  -0.00495449  0.59443103  1
  Rh  Rh223  1  0.59574801  0.19081544  0.60910858  1
  Rh  Rh224  1  0.21072019  0.20488574  0.60986816  1
  Rh  Rh225  1  0.79634429  0.19976668  0.20194064  1
  Rh  Rh226  1  0.80908318  0.59639177  0.40661132  1
  Rh  Rh227  1  0.40451070  0.60029673  -0.01388034  1
  Rh  Rh228  1  0.80556812  -0.00189658  0.59796157  1
  Rh  Rh229  1  0.79716367  0.60529844  0.60302077  1
  Rh  Rh230  1  0.40872965  -0.00203633  0.39649719  1
  Rh  Rh231  1  0.00382234  0.59194948  0.80566617  1
  Rh  Rh232  1  0.40026573  0.80387582  -0.00115640  1
  Rh  Rh233  1  0.79022079  0.19601442  0.79041334  1
  Rh  Rh234  1  0.60483660  -0.00217026  0.80561577  1
  Rh  Rh235  1  -0.00950554  0.79165417  0.39204573  1
  Rh  Rh236  1  0.40663890  0.59794636  0.39599315  1
  Rh  Rh237  1  0.18943434  0.39710060  0.79535550  1
  Rh  Rh238  1  0.39622930  0.00029952  0.79750424  1
  Rh  Rh239  1  0.39102095  0.19811664  0.18628475  1
  Rh  Rh240  1  0.00117207  0.39998181  0.20230422  1
  Rh  Rh241  1  0.80145684  0.00376656  0.80642430  1
  Rh  Rh242  1  0.39473352  0.80693600  0.39984115  1
  Rh  Rh243  1  -0.00355484  0.80318403  0.79579369  1
  Rh  Rh244  1  0.00444633  0.59826662  0.59098770  1
  Rh  Rh245  1  0.20138717  0.60820526  0.80138830  1
  Rh  Rh246  1  -0.00858285  0.00736726  0.00496390  1
  Rh  Rh247  1  0.59616352  0.79624753  0.00460785  1
  Rh  Rh248  1  0.01362255  0.20224344  0.19148273  1
  Rh  Rh249  1  0.00925303  0.40385902  0.60956595  1
