# generated using pymatgen
data_ZrScNbPdRh
_symmetry_space_group_name_H-M   'P 1'
_cell_length_a   16.56133628
_cell_length_b   16.55969847
_cell_length_c   16.56047558
_cell_angle_alpha   90.00860209
_cell_angle_beta   90.02449931
_cell_angle_gamma   90.01087844
_symmetry_Int_Tables_number   1
_chemical_formula_structural   ZrScNbPdRh
_chemical_formula_sum   'Zr50 Sc50 Nb50 Pd50 Rh50'
_cell_volume   4541.72205147
_cell_formula_units_Z   50
loop_
 _symmetry_equiv_pos_site_id
 _symmetry_equiv_pos_as_xyz
  1  'x, y, z'
loop_
 _atom_site_type_symbol
 _atom_site_label
 _atom_site_symmetry_multiplicity
 _atom_site_fract_x
 _atom_site_fract_y
 _atom_site_fract_z
 _atom_site_occupancy
  Zr  Zr0  1  0.69457849  0.09836218  0.71364230  1
  Zr  Zr1  1  0.49190643  0.10061864  0.70520910  1
  Zr  Zr2  1  0.49379752  0.30445517  0.10101845  1
  Zr  Zr3  1  0.10168301  0.30333115  0.70576341  1
  Zr  Zr4  1  0.89503399  0.09462174  0.50088186  1
  Zr  Zr5  1  0.49768640  0.49487337  0.29566066  1
  Zr  Zr6  1  0.49762061  0.88969866  0.50273319  1
  Zr  Zr7  1  0.90241614  0.49483446  0.09791857  1
  Zr  Zr8  1  0.49058452  0.49529685  0.49647453  1
  Zr  Zr9  1  0.70780608  0.90043472  0.70475290  1
  Zr  Zr10  1  0.29967373  0.89902182  0.10006205  1
  Zr  Zr11  1  0.90965112  0.29968732  0.89704298  1
  Zr  Zr12  1  0.49752401  0.69165338  0.89788779  1
  Zr  Zr13  1  0.89973206  0.70953910  0.70374274  1
  Zr  Zr14  1  0.69890426  0.69315846  0.10024405  1
  Zr  Zr15  1  0.70623644  0.30275559  0.70251277  1
  Zr  Zr16  1  0.70584066  0.09657951  0.09264281  1
  Zr  Zr17  1  0.10464867  0.09692895  0.30244873  1
  Zr  Zr18  1  0.10476253  0.29636079  0.08826582  1
  Zr  Zr19  1  0.69790921  0.69527084  0.50908064  1
  Zr  Zr20  1  0.50673695  0.10290405  0.30005128  1
  Zr  Zr21  1  0.29062878  0.10333428  0.10240216  1
  Zr  Zr22  1  0.49973571  0.69823392  0.69629459  1
  Zr  Zr23  1  0.10262067  0.90391335  0.89478849  1
  Zr  Zr24  1  0.28759702  0.89529269  0.30328238  1
  Zr  Zr25  1  0.10125204  0.49986263  0.69018528  1
  Zr  Zr26  1  0.70622068  0.09927866  0.29415116  1
  Zr  Zr27  1  0.89557014  0.49501446  0.30780206  1
  Zr  Zr28  1  0.10305765  0.30097353  0.50310757  1
  Zr  Zr29  1  0.29916553  0.70537749  0.89922714  1
  Zr  Zr30  1  0.50861292  0.10357201  0.89819593  1
  Zr  Zr31  1  0.49243098  0.88898964  0.30276152  1
  Zr  Zr32  1  0.49855693  0.50313183  0.70762623  1
  Zr  Zr33  1  0.70113785  0.29029292  0.89817369  1
  Zr  Zr34  1  0.10534834  0.90517243  0.69565678  1
  Zr  Zr35  1  0.30677213  0.50203879  0.30382301  1
  Zr  Zr36  1  0.90775525  0.51349748  0.49633985  1
  Zr  Zr37  1  0.69662135  0.29782074  0.49553578  1
  Zr  Zr38  1  0.30807989  0.30115003  0.29853031  1
  Zr  Zr39  1  0.29755680  0.90207037  0.89606660  1
  Zr  Zr40  1  0.89681087  0.89043138  0.88646766  1
  Zr  Zr41  1  0.69950157  0.50735956  0.69385650  1
  Zr  Zr42  1  0.70074167  0.91057693  0.90186398  1
  Zr  Zr43  1  0.29743153  0.90142929  0.50221696  1
  Zr  Zr44  1  0.70459109  0.29792340  0.29974765  1
  Zr  Zr45  1  0.30067130  0.09554607  0.69575188  1
  Zr  Zr46  1  0.29268281  0.09846952  0.30766457  1
  Zr  Zr47  1  0.88943368  0.90171959  0.50586996  1
  Zr  Zr48  1  0.49386192  0.90841278  0.90117140  1
  Zr  Zr49  1  0.49659026  0.70111418  0.10771399  1
  Sc  Sc50  1  0.68469816  0.50458999  0.90470666  1
  Sc  Sc51  1  0.89698236  0.89777398  0.09916368  1
  Sc  Sc52  1  0.09688747  0.28628143  0.31057464  1
  Sc  Sc53  1  0.70880363  0.90575287  0.10393829  1
  Sc  Sc54  1  0.30008432  0.50169577  0.50889693  1
  Sc  Sc55  1  0.10643661  0.90665574  0.09619925  1
  Sc  Sc56  1  0.89801122  0.09446062  0.70465951  1
  Sc  Sc57  1  0.10124793  0.09994481  0.09186857  1
  Sc  Sc58  1  0.70307827  0.30254609  0.10510388  1
  Sc  Sc59  1  0.49510628  0.90539706  0.09920747  1
  Sc  Sc60  1  0.50951916  0.30492810  0.30289607  1
  Sc  Sc61  1  0.50113870  0.90741289  0.69469538  1
  Sc  Sc62  1  0.30115418  0.29848802  0.89930543  1
  Sc  Sc63  1  0.10642744  0.69577429  0.09489345  1
  Sc  Sc64  1  0.90187945  0.29115497  0.10095081  1
  Sc  Sc65  1  0.30744716  0.30269896  0.51077435  1
  Sc  Sc66  1  0.10742024  0.09811777  0.70151801  1
  Sc  Sc67  1  0.09740481  0.71361056  0.30257081  1
  Sc  Sc68  1  0.10641115  0.10279324  0.90181593  1
  Sc  Sc69  1  0.49686741  0.08627440  0.51225672  1
  Sc  Sc70  1  0.69278570  0.89681550  0.51149621  1
  Sc  Sc71  1  0.89633615  0.90596014  0.70091832  1
  Sc  Sc72  1  0.30309815  0.29617933  0.70275596  1
  Sc  Sc73  1  0.30456502  0.10268636  0.89088275  1
  Sc  Sc74  1  0.89520677  0.89266739  0.29348586  1
  Sc  Sc75  1  0.69881233  0.09443312  0.49568329  1
  Sc  Sc76  1  0.90010039  0.70245783  0.09572806  1
  Sc  Sc77  1  0.90472281  0.70164991  0.30401673  1
  Sc  Sc78  1  0.90088332  0.10321859  0.90650943  1
  Sc  Sc79  1  0.29767985  0.50412306  0.10146514  1
  Sc  Sc80  1  0.89471766  0.31279823  0.49235145  1
  Sc  Sc81  1  0.10347082  0.30176368  0.89502286  1
  Sc  Sc82  1  0.49513372  0.69151774  0.30793930  1
  Sc  Sc83  1  0.71723661  0.50165786  0.49967370  1
  Sc  Sc84  1  0.50721550  0.49926431  0.09841397  1
  Sc  Sc85  1  0.69552926  0.69671650  0.69806603  1
  Sc  Sc86  1  0.70622769  0.69819995  0.90295880  1
  Sc  Sc87  1  0.90352217  0.30301554  0.70460498  1
  Sc  Sc88  1  0.90575679  0.49975882  0.68772047  1
  Sc  Sc89  1  0.69522386  0.49182665  0.29655732  1
  Sc  Sc90  1  0.68958402  0.68942459  0.30821797  1
  Sc  Sc91  1  0.10446878  0.50447972  0.08395003  1
  Sc  Sc92  1  0.50352058  0.10213155  0.09602332  1
  Sc  Sc93  1  0.11168543  0.10094073  0.49759873  1
  Sc  Sc94  1  0.29787127  0.69956428  0.10045293  1
  Sc  Sc95  1  0.09683730  0.70056407  0.69661959  1
  Sc  Sc96  1  0.30074830  0.29985134  0.09757212  1
  Sc  Sc97  1  0.30085061  0.70270062  0.51116286  1
  Sc  Sc98  1  0.30298029  0.49982854  0.90160666  1
  Sc  Sc99  1  0.09241998  0.69895615  0.49386260  1
  Nb  Nb100  1  0.89659166  0.29629669  0.29195612  1
  Nb  Nb101  1  0.90160280  0.09798643  0.11016810  1
  Nb  Nb102  1  0.69650838  0.89724874  0.29916608  1
  Nb  Nb103  1  0.29635844  0.51431396  0.69360384  1
  Nb  Nb104  1  0.09093163  0.69017518  0.89391837  1
  Nb  Nb105  1  0.09882466  0.50378159  0.49713610  1
  Nb  Nb106  1  0.51175625  0.70557175  0.50299131  1
  Nb  Nb107  1  0.89599861  0.70056730  0.49828338  1
  Nb  Nb108  1  0.50004628  0.49141600  0.89748697  1
  Nb  Nb109  1  0.49560528  0.30293918  0.69570094  1
  Nb  Nb110  1  0.09380201  0.50943848  0.89340167  1
  Nb  Nb111  1  0.91054615  0.69630074  0.89333147  1
  Nb  Nb112  1  0.29595391  0.89060211  0.69787698  1
  Nb  Nb113  1  0.09808408  0.89644412  0.49055633  1
  Nb  Nb114  1  0.90227338  0.10558135  0.29483095  1
  Nb  Nb115  1  0.09623587  0.50262685  0.30505534  1
  Nb  Nb116  1  0.49906949  0.29809135  0.50381632  1
  Nb  Nb117  1  0.69750478  0.10093379  0.90056949  1
  Nb  Nb118  1  0.91433987  0.50611396  0.90063054  1
  Nb  Nb119  1  0.49589488  0.31471389  0.89516580  1
  Nb  Nb120  1  0.09659505  0.90108717  0.30794989  1
  Nb  Nb121  1  0.29547527  0.70069207  0.29594409  1
  Nb  Nb122  1  0.29781468  0.69963066  0.70074803  1
  Nb  Nb123  1  0.30417464  0.10112328  0.50202350  1
  Nb  Nb124  1  0.70467493  0.49948873  0.10389151  1
  Nb  Nb125  1  0.59835035  0.80235268  0.80726839  1
  Nb  Nb126  1  0.00609149  0.39868863  0.20437168  1
  Nb  Nb127  1  0.00066493  0.59254994  0.20136267  1
  Nb  Nb128  1  -0.00265794  0.80663911  0.59409639  1
  Nb  Nb129  1  0.59979959  0.79918743  0.19965842  1
  Nb  Nb130  1  0.80217503  0.40529139  -0.00662303  1
  Nb  Nb131  1  0.59920380  0.80205906  0.00126498  1
  Nb  Nb132  1  0.00274210  0.79700918  -0.01239459  1
  Nb  Nb133  1  -0.00370732  0.19955553  0.59731145  1
  Nb  Nb134  1  0.59922659  -0.00904708  0.39422485  1
  Nb  Nb135  1  0.80256652  0.59384210  0.19876090  1
  Nb  Nb136  1  0.19764639  0.40559782  0.39971913  1
  Nb  Nb137  1  -0.00248485  -0.00201877  0.39511694  1
  Nb  Nb138  1  0.80921300  0.59395051  0.80567153  1
  Nb  Nb139  1  0.20016406  0.60053290  0.79666483  1
  Nb  Nb140  1  0.79230526  0.79801110  0.40408827  1
  Nb  Nb141  1  0.80410105  0.41162485  0.80906642  1
  Nb  Nb142  1  0.39300098  0.00105612  0.20558154  1
  Nb  Nb143  1  0.19054419  0.40339197  0.20852779  1
  Nb  Nb144  1  0.79891536  0.20041650  0.60122202  1
  Nb  Nb145  1  0.19950959  0.59831809  0.39738810  1
  Nb  Nb146  1  0.59791569  0.20378780  0.60281085  1
  Nb  Nb147  1  0.40432071  0.19738671  0.40829527  1
  Nb  Nb148  1  0.00001747  0.00309665  0.20543938  1
  Nb  Nb149  1  0.59549696  0.39673476  0.60043373  1
  Pd  Pd150  1  0.19148664  0.80094747  0.19683340  1
  Pd  Pd151  1  0.00342446  0.19123752  0.79393291  1
  Pd  Pd152  1  0.19351860  0.20868648  0.20102339  1
  Pd  Pd153  1  0.39427459  0.01175083  0.00523633  1
  Pd  Pd154  1  0.80600647  0.59434783  -0.00236263  1
  Pd  Pd155  1  0.20264486  0.40413177  -0.00373712  1
  Pd  Pd156  1  0.59399912  0.60185046  0.00154487  1
  Pd  Pd157  1  0.00988476  0.19994534  0.19469501  1
  Pd  Pd158  1  0.39570871  0.40550650  0.00444439  1
  Pd  Pd159  1  0.00833110  0.00234046  0.59280414  1
  Pd  Pd160  1  0.20582418  0.40006481  0.59773994  1
  Pd  Pd161  1  0.60633278  0.40010093  0.79619753  1
  Pd  Pd162  1  0.40378089  0.79912245  0.00297748  1
  Pd  Pd163  1  0.59620351  0.20900474  0.00330690  1
  Pd  Pd164  1  0.40567140  0.00406721  0.39701310  1
  Pd  Pd165  1  0.40279213  0.19478169  0.20557537  1
  Pd  Pd166  1  0.40562389  0.60469174  0.59445731  1
  Pd  Pd167  1  0.81098314  0.00038654  -0.00378450  1
  Pd  Pd168  1  0.40032105  0.59422426  0.00266462  1
  Pd  Pd169  1  0.18935819  0.79428275  0.59284824  1
  Pd  Pd170  1  0.19228064  0.59791341  0.20656460  1
  Pd  Pd171  1  0.19210027  0.79183305  0.79889275  1
  Pd  Pd172  1  0.39932230  0.59804195  0.19647359  1
  Pd  Pd173  1  0.39275134  0.60960279  0.40963552  1
  Pd  Pd174  1  -0.00513555  -0.00661856  0.00415878  1
  Pd  Pd175  1  0.19766929  0.20018164  0.60287967  1
  Pd  Pd176  1  0.19194041  0.79650335  -0.00415029  1
  Pd  Pd177  1  0.80185399  0.79918871  -0.00487741  1
  Pd  Pd178  1  0.39242865  0.59723998  0.80231664  1
  Pd  Pd179  1  0.60390629  0.40675254  0.40675472  1
  Pd  Pd180  1  0.39088209  0.78761007  0.40291092  1
  Pd  Pd181  1  0.78987264  0.78474848  0.21035616  1
  Pd  Pd182  1  0.60135182  0.58778633  0.40673600  1
  Pd  Pd183  1  0.59006290  0.21019009  0.79704229  1
  Pd  Pd184  1  0.80493234  0.20368860  0.00238016  1
  Pd  Pd185  1  0.00825807  0.80208307  0.18607879  1
  Pd  Pd186  1  0.59371901  -0.00803160  0.20021891  1
  Pd  Pd187  1  0.00264684  0.39375073  0.39643405  1
  Pd  Pd188  1  0.38831785  0.40280943  0.79319653  1
  Pd  Pd189  1  0.60706667  0.39410739  0.00444654  1
  Pd  Pd190  1  0.60374623  0.20292626  0.19150892  1
  Pd  Pd191  1  0.20615343  0.40907129  0.80112766  1
  Pd  Pd192  1  0.80623977  0.20132426  0.40309485  1
  Pd  Pd193  1  0.79831163  -0.00940941  0.39165903  1
  Pd  Pd194  1  -0.00401172  0.39318817  0.59643917  1
  Pd  Pd195  1  0.40674571  0.80525048  0.79196133  1
  Pd  Pd196  1  0.00048326  0.00556646  0.80158436  1
  Pd  Pd197  1  0.00116194  0.39676891  0.00159817  1
  Pd  Pd198  1  0.40029231  0.19859322  -0.00661678  1
  Pd  Pd199  1  -0.00862806  0.19560967  0.40884456  1
  Rh  Rh200  1  0.20790509  0.00445337  -0.00645197  1
  Rh  Rh201  1  0.79717181  0.39666329  0.60468168  1
  Rh  Rh202  1  0.79649844  0.39769189  0.39539287  1
  Rh  Rh203  1  0.80569728  0.20072041  0.79990048  1
  Rh  Rh204  1  0.40624621  0.20827539  0.80571389  1
  Rh  Rh205  1  0.00015876  0.59285871  0.78390135  1
  Rh  Rh206  1  0.59985490  0.80256328  0.61344661  1
  Rh  Rh207  1  -0.00028805  0.40714956  0.79859324  1
  Rh  Rh208  1  0.19628950  -0.00247648  0.40814329  1
  Rh  Rh209  1  0.00023010  0.19660126  0.00179343  1
  Rh  Rh210  1  0.20570677  0.78903337  0.40380740  1
  Rh  Rh211  1  0.60228588  -0.00237823  0.00348231  1
  Rh  Rh212  1  -0.01541640  0.80942144  0.40740208  1
  Rh  Rh213  1  0.20421399  0.60182346  -0.01411849  1
  Rh  Rh214  1  0.20485066  0.19983258  -0.00783354  1
  Rh  Rh215  1  0.60547124  0.00331074  0.59957908  1
  Rh  Rh216  1  0.80264317  0.79373259  0.59712859  1
  Rh  Rh217  1  0.59121823  0.58753131  0.58931942  1
  Rh  Rh218  1  0.79570593  0.19852463  0.19460218  1
  Rh  Rh219  1  0.58838937  0.18368928  0.41488943  1
  Rh  Rh220  1  0.39239573  -0.00716154  0.79211401  1
  Rh  Rh221  1  0.39550679  0.38962068  0.40276138  1
  Rh  Rh222  1  0.00897438  0.80789319  0.79455415  1
  Rh  Rh223  1  0.80718613  0.40052456  0.19655430  1
  Rh  Rh224  1  0.20193009  -0.00195242  0.59461568  1
  Rh  Rh225  1  0.00015815  0.60914753  0.00986631  1
  Rh  Rh226  1  0.40589122  0.19608326  0.59752265  1
  Rh  Rh227  1  0.60397634  0.60005336  0.20022317  1
  Rh  Rh228  1  0.59890508  0.39687182  0.19539069  1
  Rh  Rh229  1  0.80396208  0.01047914  0.80970114  1
  Rh  Rh230  1  0.19714247  -0.00363743  0.19964794  1
  Rh  Rh231  1  0.39605122  0.40443929  0.19308865  1
  Rh  Rh232  1  0.78885604  0.01095514  0.60861562  1
  Rh  Rh233  1  -0.00048741  0.61108040  0.59854715  1
  Rh  Rh234  1  0.39849261  0.80065855  0.20128300  1
  Rh  Rh235  1  0.59751862  -0.00681920  0.80207983  1
  Rh  Rh236  1  0.00401657  0.60775646  0.39421062  1
  Rh  Rh237  1  0.39056309  -0.00997954  0.60576529  1
  Rh  Rh238  1  0.80020438  0.60720710  0.39229216  1
  Rh  Rh239  1  0.60486529  0.60694019  0.80719562  1
  Rh  Rh240  1  0.40130137  0.40578026  0.60944737  1
  Rh  Rh241  1  0.60498463  0.80285845  0.39568213  1
  Rh  Rh242  1  0.20584101  0.00193392  0.79796620  1
  Rh  Rh243  1  0.20101064  0.20127575  0.79873552  1
  Rh  Rh244  1  0.19384786  0.60664552  0.59830006  1
  Rh  Rh245  1  0.21766157  0.21233945  0.40809340  1
  Rh  Rh246  1  0.80754230  0.00108771  0.20426918  1
  Rh  Rh247  1  0.78882281  0.78755788  0.80116429  1
  Rh  Rh248  1  0.80952090  0.60601271  0.60990644  1
  Rh  Rh249  1  0.40188120  0.79851265  0.60481580  1
