# generated using pymatgen
data_ZrScNbPdRh
_symmetry_space_group_name_H-M   'P 1'
_cell_length_a   16.55389215
_cell_length_b   16.55716815
_cell_length_c   16.55266038
_cell_angle_alpha   89.98834475
_cell_angle_beta   90.01375767
_cell_angle_gamma   89.96954926
_symmetry_Int_Tables_number   1
_chemical_formula_structural   ZrScNbPdRh
_chemical_formula_sum   'Zr50 Sc50 Nb50 Pd50 Rh50'
_cell_volume   4536.84458736
_cell_formula_units_Z   50
loop_
 _symmetry_equiv_pos_site_id
 _symmetry_equiv_pos_as_xyz
  1  'x, y, z'
loop_
 _atom_site_type_symbol
 _atom_site_label
 _atom_site_symmetry_multiplicity
 _atom_site_fract_x
 _atom_site_fract_y
 _atom_site_fract_z
 _atom_site_occupancy
  Zr  Zr0  1  0.90071913  0.89978725  0.29828474  1
  Zr  Zr1  1  0.51721114  0.29580002  0.31238974  1
  Zr  Zr2  1  0.29848427  0.30495734  0.69791062  1
  Zr  Zr3  1  0.10695405  0.69627552  0.29369059  1
  Zr  Zr4  1  0.49576078  0.09631761  0.09733072  1
  Zr  Zr5  1  0.69984412  0.49375875  0.90429043  1
  Zr  Zr6  1  0.09478079  0.49724539  0.30720808  1
  Zr  Zr7  1  0.70095099  0.69488410  0.50124467  1
  Zr  Zr8  1  0.30237723  0.09891837  0.10000179  1
  Zr  Zr9  1  0.10026526  0.89996455  0.29642751  1
  Zr  Zr10  1  0.50497117  0.71059845  0.89648099  1
  Zr  Zr11  1  0.90079332  0.10137001  0.51019231  1
  Zr  Zr12  1  0.29468630  0.49987040  0.70187517  1
  Zr  Zr13  1  0.10102233  0.68746827  0.70070947  1
  Zr  Zr14  1  0.70072714  0.90184013  0.09671572  1
  Zr  Zr15  1  0.89612985  0.69744070  0.49963835  1
  Zr  Zr16  1  0.29457813  0.70016053  0.69503629  1
  Zr  Zr17  1  0.10031992  0.69696847  0.50673649  1
  Zr  Zr18  1  0.70876572  0.30692398  0.70247355  1
  Zr  Zr19  1  0.69709438  0.49794168  0.09682470  1
  Zr  Zr20  1  0.90214318  0.29853392  0.70520969  1
  Zr  Zr21  1  0.30018514  0.49817561  0.09692477  1
  Zr  Zr22  1  0.50217418  0.10367578  0.70788719  1
  Zr  Zr23  1  0.30765255  0.70218471  0.29692797  1
  Zr  Zr24  1  0.89505515  0.29747059  0.90717997  1
  Zr  Zr25  1  0.29608418  0.89732963  0.49691792  1
  Zr  Zr26  1  0.70771191  0.69895112  0.10646734  1
  Zr  Zr27  1  0.89631981  0.49710624  0.70061937  1
  Zr  Zr28  1  0.09251797  0.29231466  0.90124478  1
  Zr  Zr29  1  0.69346893  0.10487698  0.29802452  1
  Zr  Zr30  1  0.49139845  0.30169167  0.89695630  1
  Zr  Zr31  1  0.29320552  0.69740655  0.10440811  1
  Zr  Zr32  1  0.30296080  0.49274433  0.49696077  1
  Zr  Zr33  1  0.50371017  0.90321445  0.70488971  1
  Zr  Zr34  1  0.51019339  0.69838473  0.70002276  1
  Zr  Zr35  1  0.09847186  0.90200189  0.50272875  1
  Zr  Zr36  1  0.50473171  0.10632778  0.49710236  1
  Zr  Zr37  1  0.69283620  0.09280089  0.09995284  1
  Zr  Zr38  1  0.69437006  0.50933976  0.69371200  1
  Zr  Zr39  1  0.70158299  0.89971726  0.90114795  1
  Zr  Zr40  1  0.29347128  0.30419427  0.30962154  1
  Zr  Zr41  1  0.09493063  0.89623715  0.10170528  1
  Zr  Zr42  1  0.89721188  0.89561537  0.89736864  1
  Zr  Zr43  1  0.09574990  0.09974492  0.70308896  1
  Zr  Zr44  1  0.70450063  0.09615907  0.90512922  1
  Zr  Zr45  1  0.30074315  0.70168164  0.89939572  1
  Zr  Zr46  1  0.50447232  0.89402601  0.49590471  1
  Zr  Zr47  1  0.29894204  0.09305424  0.90421791  1
  Zr  Zr48  1  0.70193594  0.70850561  0.89836186  1
  Zr  Zr49  1  0.10564413  0.10555908  0.30034535  1
  Sc  Sc50  1  0.89860043  0.30702636  0.51153245  1
  Sc  Sc51  1  0.89745646  0.68536244  0.29452628  1
  Sc  Sc52  1  0.30236054  0.49737292  0.90107754  1
  Sc  Sc53  1  0.69561527  0.30986512  0.49630190  1
  Sc  Sc54  1  0.89916435  0.09746820  0.09118693  1
  Sc  Sc55  1  0.29682311  0.50209818  0.30483804  1
  Sc  Sc56  1  0.70572902  0.30215211  0.09658529  1
  Sc  Sc57  1  0.89496512  0.90287826  0.51262237  1
  Sc  Sc58  1  0.50319087  0.90396781  0.10010040  1
  Sc  Sc59  1  0.70465009  0.49903653  0.30094332  1
  Sc  Sc60  1  0.90173972  0.89535804  0.09798521  1
  Sc  Sc61  1  0.09059270  0.28469424  0.10419877  1
  Sc  Sc62  1  0.31155093  0.89973105  0.10411935  1
  Sc  Sc63  1  0.29982999  0.10788376  0.69855528  1
  Sc  Sc64  1  0.70549126  0.09915562  0.70269956  1
  Sc  Sc65  1  0.90516638  0.09906581  0.89824528  1
  Sc  Sc66  1  0.10156511  0.30544195  0.69352944  1
  Sc  Sc67  1  0.49499972  0.88487619  0.29761067  1
  Sc  Sc68  1  0.50380488  0.10533841  0.29351119  1
  Sc  Sc69  1  0.50781235  0.49424085  0.29668100  1
  Sc  Sc70  1  0.70676801  0.09742329  0.50643228  1
  Sc  Sc71  1  0.89944414  0.10143179  0.69904957  1
  Sc  Sc72  1  0.90080443  0.50407945  0.49436846  1
  Sc  Sc73  1  0.09583540  0.89606766  0.70176345  1
  Sc  Sc74  1  0.50323473  0.70226851  0.09711399  1
  Sc  Sc75  1  0.09705872  0.69444499  0.10269066  1
  Sc  Sc76  1  0.48750173  0.29969116  0.70568810  1
  Sc  Sc77  1  0.89916788  0.70785013  0.69860006  1
  Sc  Sc78  1  0.70134656  0.50335779  0.49736465  1
  Sc  Sc79  1  0.50119320  0.69368908  0.48695045  1
  Sc  Sc80  1  0.29206342  0.11445387  0.49494319  1
  Sc  Sc81  1  0.89358840  0.09654701  0.29455766  1
  Sc  Sc82  1  0.49878265  0.50205142  0.69482378  1
  Sc  Sc83  1  0.30578046  0.29657563  0.09885669  1
  Sc  Sc84  1  0.10790260  0.30674630  0.50467303  1
  Sc  Sc85  1  0.09569767  0.09633280  0.90749324  1
  Sc  Sc86  1  0.89574147  0.50788540  0.90637676  1
  Sc  Sc87  1  0.71052895  0.90075691  0.70225071  1
  Sc  Sc88  1  0.49670363  0.30823403  0.10141289  1
  Sc  Sc89  1  0.69841820  0.89895625  0.29099399  1
  Sc  Sc90  1  0.89855423  0.29902787  0.10660259  1
  Sc  Sc91  1  0.50563261  0.69608322  0.30262149  1
  Sc  Sc92  1  0.29961850  0.10477552  0.30178164  1
  Sc  Sc93  1  0.70666099  0.30162119  0.90453766  1
  Sc  Sc94  1  0.09171312  0.69833430  0.89404679  1
  Sc  Sc95  1  0.29069771  0.89964836  0.70904090  1
  Sc  Sc96  1  0.09756775  0.90953677  0.89427066  1
  Sc  Sc97  1  0.10310333  0.51035744  0.88881840  1
  Sc  Sc98  1  0.30463206  0.69140646  0.49604832  1
  Sc  Sc99  1  0.90139509  0.49341020  0.30191201  1
  Nb  Nb100  1  0.08823333  0.30493545  0.29557398  1
  Nb  Nb101  1  0.50117812  0.49853507  0.90939276  1
  Nb  Nb102  1  0.90175755  0.30174858  0.30267438  1
  Nb  Nb103  1  0.10109227  0.09489455  0.09728391  1
  Nb  Nb104  1  0.30104693  0.89892238  0.90071110  1
  Nb  Nb105  1  0.89497884  0.69801992  0.90343622  1
  Nb  Nb106  1  0.70094374  0.69658329  0.30450325  1
  Nb  Nb107  1  0.70935868  0.30076787  0.30252430  1
  Nb  Nb108  1  0.09944083  0.09828846  0.50016521  1
  Nb  Nb109  1  0.50538834  0.49760836  0.49351394  1
  Nb  Nb110  1  0.89980824  0.50802657  0.10014956  1
  Nb  Nb111  1  0.49473175  0.90611791  0.89732999  1
  Nb  Nb112  1  0.30334498  0.30385705  0.50513633  1
  Nb  Nb113  1  0.49856825  0.49530584  0.09098664  1
  Nb  Nb114  1  0.70164206  0.89781028  0.49942360  1
  Nb  Nb115  1  0.69957906  0.70007773  0.69846197  1
  Nb  Nb116  1  0.09835316  0.50162976  0.69751179  1
  Nb  Nb117  1  0.89919977  0.90654231  0.70321455  1
  Nb  Nb118  1  0.89540304  0.68706952  0.08547762  1
  Nb  Nb119  1  0.29863624  0.30238594  0.89328169  1
  Nb  Nb120  1  0.29753314  0.89770563  0.30052858  1
  Nb  Nb121  1  0.50084480  0.30351357  0.49868132  1
  Nb  Nb122  1  0.49998719  0.09770054  0.89743531  1
  Nb  Nb123  1  0.10068338  0.49617484  0.10513869  1
  Nb  Nb124  1  0.09962549  0.50100330  0.50734745  1
  Nb  Nb125  1  0.59809750  0.40270144  0.80335429  1
  Nb  Nb126  1  0.19976110  0.00181394  0.19822257  1
  Nb  Nb127  1  0.20247250  0.80344944  -0.00354979  1
  Nb  Nb128  1  0.59739534  0.20711149  0.60149852  1
  Nb  Nb129  1  0.40164670  -0.00123390  0.40300633  1
  Nb  Nb130  1  0.19581285  0.79892219  0.39586987  1
  Nb  Nb131  1  0.40527923  0.80297651  0.60049906  1
  Nb  Nb132  1  -0.00244327  0.40240807  0.80323751  1
  Nb  Nb133  1  -0.00177087  0.79998707  0.39859570  1
  Nb  Nb134  1  0.40466075  0.60225311  0.80398064  1
  Nb  Nb135  1  0.20067070  0.20307790  0.80413415  1
  Nb  Nb136  1  0.59442956  0.19503005  -0.00533801  1
  Nb  Nb137  1  0.80434228  0.20701502  0.39694730  1
  Nb  Nb138  1  0.60407981  0.79909066  0.59881731  1
  Nb  Nb139  1  0.59981297  -0.00328029  0.40020625  1
  Nb  Nb140  1  0.19901704  0.00415851  0.59585810  1
  Nb  Nb141  1  0.00410424  0.40617498  0.00339720  1
  Nb  Nb142  1  0.80009563  0.79887869  0.39834944  1
  Nb  Nb143  1  -0.00146509  0.20135388  0.39859595  1
  Nb  Nb144  1  0.19241362  0.39683733  0.00253814  1
  Nb  Nb145  1  0.40438108  0.59243498  0.19254942  1
  Nb  Nb146  1  0.79588037  0.60721716  0.80042720  1
  Nb  Nb147  1  0.39811780  -0.00106290  0.59529015  1
  Nb  Nb148  1  0.19028171  0.39625648  0.19911344  1
  Nb  Nb149  1  0.00148708  0.00364047  0.40302454  1
  Pd  Pd150  1  0.18899063  0.39617831  0.80607872  1
  Pd  Pd151  1  0.80183365  0.19386979  0.80213111  1
  Pd  Pd152  1  0.40455854  0.60461773  -0.00099391  1
  Pd  Pd153  1  0.40335900  0.19822939  0.59773695  1
  Pd  Pd154  1  0.39830715  0.80390481  0.00403060  1
  Pd  Pd155  1  0.40482026  0.60329464  0.60047213  1
  Pd  Pd156  1  -0.00845626  0.19044395  0.20119449  1
  Pd  Pd157  1  0.60169442  0.00177469  0.59758870  1
  Pd  Pd158  1  0.19017653  0.79986380  0.80660219  1
  Pd  Pd159  1  0.00920865  0.59438589  -0.00227187  1
  Pd  Pd160  1  0.59897453  0.80467151  0.00282875  1
  Pd  Pd161  1  -0.00769950  0.59608383  0.60133937  1
  Pd  Pd162  1  0.60672017  -0.00272366  0.80328380  1
  Pd  Pd163  1  0.39143469  0.00278827  0.79398769  1
  Pd  Pd164  1  0.20235309  0.20298937  0.19630948  1
  Pd  Pd165  1  0.59981858  0.59259965  0.80816535  1
  Pd  Pd166  1  0.60555648  0.39506421  0.19928228  1
  Pd  Pd167  1  0.40553880  0.40080359  0.39457412  1
  Pd  Pd168  1  -0.00201983  0.59787775  0.20050336  1
  Pd  Pd169  1  -0.01141144  0.78519911  0.19944122  1
  Pd  Pd170  1  0.40246251  0.20925257  0.20843336  1
  Pd  Pd171  1  0.39979202  0.19996195  0.39695809  1
  Pd  Pd172  1  0.00538407  0.79813572  -0.00392588  1
  Pd  Pd173  1  0.59588912  0.59727518  0.19856347  1
  Pd  Pd174  1  0.39984003  -0.00119693  0.21180527  1
  Pd  Pd175  1  0.20171896  0.20422977  -0.00221129  1
  Pd  Pd176  1  0.80300979  0.40551275  0.19764298  1
  Pd  Pd177  1  -0.00322539  0.80192664  0.60116570  1
  Pd  Pd178  1  0.40587643  0.40325423  0.59878121  1
  Pd  Pd179  1  0.60036651  0.21052189  0.18690507  1
  Pd  Pd180  1  0.59882402  0.79781755  0.19952102  1
  Pd  Pd181  1  0.39494612  0.40229497  0.20838979  1
  Pd  Pd182  1  0.79950890  -0.00010958  0.40099050  1
  Pd  Pd183  1  0.79985862  0.00154165  0.19480152  1
  Pd  Pd184  1  0.19181665  0.60124170  -0.00396739  1
  Pd  Pd185  1  0.59258910  0.39427449  0.60756720  1
  Pd  Pd186  1  0.79766419  0.40714379  0.59316576  1
  Pd  Pd187  1  0.60633493  0.21029630  0.80106815  1
  Pd  Pd188  1  -0.00106367  0.79776027  0.79851665  1
  Pd  Pd189  1  0.80839518  0.79378007  0.20136310  1
  Pd  Pd190  1  -0.00110321  0.39404401  0.41175761  1
  Pd  Pd191  1  0.00276001  0.00817663  0.20089835  1
  Pd  Pd192  1  0.20112517  -0.01084194  0.00794228  1
  Pd  Pd193  1  0.60415323  0.60639567  0.00110867  1
  Pd  Pd194  1  0.40313407  0.20165856  -0.00413386  1
  Pd  Pd195  1  0.19866479  0.60223217  0.40367767  1
  Pd  Pd196  1  0.39897472  0.79713365  0.79267325  1
  Pd  Pd197  1  0.80092852  0.19688895  0.19920820  1
  Pd  Pd198  1  0.19110271  0.21184148  0.40344350  1
  Pd  Pd199  1  0.00689962  0.20714897  0.59553445  1
  Rh  Rh200  1  0.60540150  0.40481961  0.39852483  1
  Rh  Rh201  1  0.80699883  -0.00529778  -0.00062877  1
  Rh  Rh202  1  0.79975479  0.41041867  0.80309821  1
  Rh  Rh203  1  0.80461479  0.59936537  0.60632681  1
  Rh  Rh204  1  -0.00308906  -0.00240525  -0.00211462  1
  Rh  Rh205  1  0.60632430  0.81107901  0.79484593  1
  Rh  Rh206  1  0.20836680  0.60216130  0.80038120  1
  Rh  Rh207  1  0.20641551  0.80310041  0.59593117  1
  Rh  Rh208  1  0.00404271  0.60345696  0.40132977  1
  Rh  Rh209  1  -0.01363964  0.59617244  0.79625290  1
  Rh  Rh210  1  0.19311124  0.39784350  0.40079699  1
  Rh  Rh211  1  0.40262410  -0.00538372  -0.00333838  1
  Rh  Rh212  1  0.80044142  -0.00149593  0.60659900  1
  Rh  Rh213  1  -0.00489036  -0.00037666  0.79948985  1
  Rh  Rh214  1  0.59374116  0.60472903  0.58819663  1
  Rh  Rh215  1  0.80286804  0.80028675  0.00573876  1
  Rh  Rh216  1  0.61595047  0.80228919  0.39881326  1
  Rh  Rh217  1  -0.00557815  0.19894418  0.00526611  1
  Rh  Rh218  1  0.40689443  0.41496477  0.80354138  1
  Rh  Rh219  1  0.38947064  0.79972525  0.40305248  1
  Rh  Rh220  1  0.80527282  0.00284265  0.80131735  1
  Rh  Rh221  1  0.20248788  -0.00428181  0.39699834  1
  Rh  Rh222  1  0.40438188  0.79037290  0.19570489  1
  Rh  Rh223  1  0.20069313  0.00859366  0.79383527  1
  Rh  Rh224  1  0.59508124  0.38753124  -0.00564441  1
  Rh  Rh225  1  0.40848328  0.58908976  0.38958719  1
  Rh  Rh226  1  0.78938469  0.59966620  -0.00401437  1
  Rh  Rh227  1  0.39168422  0.39601209  -0.00331259  1
  Rh  Rh228  1  0.79359881  0.19536527  0.00442133  1
  Rh  Rh229  1  0.00131008  0.40640372  0.60352871  1
  Rh  Rh230  1  0.61524725  0.19638830  0.41123487  1
  Rh  Rh231  1  0.20341718  0.59134636  0.59436496  1
  Rh  Rh232  1  0.79890474  0.60175781  0.39506754  1
  Rh  Rh233  1  0.80223297  0.39648681  0.40165471  1
  Rh  Rh234  1  0.00288036  0.20358754  0.79719577  1
  Rh  Rh235  1  0.79935383  0.59388372  0.19968046  1
  Rh  Rh236  1  0.80326866  0.79656219  0.79576125  1
  Rh  Rh237  1  0.81290016  0.40298477  0.00893940  1
  Rh  Rh238  1  0.59142723  -0.00641835  0.21003381  1
  Rh  Rh239  1  0.20233387  0.40657458  0.59719853  1
  Rh  Rh240  1  0.20552155  0.58685523  0.20327357  1
  Rh  Rh241  1  0.60241499  0.59210291  0.39729644  1
  Rh  Rh242  1  0.79530086  0.80265428  0.59804961  1
  Rh  Rh243  1  0.78868295  0.20653735  0.59490930  1
  Rh  Rh244  1  -0.00177632  0.40313091  0.19253419  1
  Rh  Rh245  1  0.59219344  0.00141149  -0.00739193  1
  Rh  Rh246  1  0.19811748  0.19723146  0.60503532  1
  Rh  Rh247  1  0.20489058  0.81072156  0.19368385  1
  Rh  Rh248  1  0.38785011  0.19339542  0.80613535  1
  Rh  Rh249  1  0.00327285  -0.00070993  0.60355897  1
