# generated using pymatgen
data_ZrScNbPdRh
_symmetry_space_group_name_H-M   'P 1'
_cell_length_a   16.56336120
_cell_length_b   16.55922507
_cell_length_c   16.56137663
_cell_angle_alpha   89.99577235
_cell_angle_beta   89.97066533
_cell_angle_gamma   90.01652549
_symmetry_Int_Tables_number   1
_chemical_formula_structural   ZrScNbPdRh
_chemical_formula_sum   'Zr50 Sc50 Nb50 Pd50 Rh50'
_cell_volume   4542.39439566
_cell_formula_units_Z   50
loop_
 _symmetry_equiv_pos_site_id
 _symmetry_equiv_pos_as_xyz
  1  'x, y, z'
loop_
 _atom_site_type_symbol
 _atom_site_label
 _atom_site_symmetry_multiplicity
 _atom_site_fract_x
 _atom_site_fract_y
 _atom_site_fract_z
 _atom_site_occupancy
  Zr  Zr0  1  0.89682051  0.70073117  0.90678945  1
  Zr  Zr1  1  0.50860093  0.89951605  0.10699100  1
  Zr  Zr2  1  0.49895970  0.09412139  0.08990189  1
  Zr  Zr3  1  0.89779660  0.90525031  0.70967761  1
  Zr  Zr4  1  0.29994715  0.50561583  0.69881543  1
  Zr  Zr5  1  0.70965936  0.29867207  0.29743512  1
  Zr  Zr6  1  0.49822085  0.91113734  0.90668643  1
  Zr  Zr7  1  0.90605069  0.70045680  0.09986621  1
  Zr  Zr8  1  0.89608864  0.10894309  0.69596746  1
  Zr  Zr9  1  0.29661013  0.30106584  0.70006812  1
  Zr  Zr10  1  0.09676595  0.10627478  0.70087494  1
  Zr  Zr11  1  0.09562271  0.89064355  0.49565568  1
  Zr  Zr12  1  0.90000937  0.49327004  0.70931863  1
  Zr  Zr13  1  0.29930604  0.89733688  0.70040213  1
  Zr  Zr14  1  0.89581873  0.30515556  0.89045984  1
  Zr  Zr15  1  0.69857857  0.69193630  0.51171617  1
  Zr  Zr16  1  0.30998493  0.09150807  0.91384811  1
  Zr  Zr17  1  0.10624672  0.70627112  0.70173666  1
  Zr  Zr18  1  0.09974305  0.10510975  0.90462009  1
  Zr  Zr19  1  0.50193151  0.29800285  0.69387853  1
  Zr  Zr20  1  0.69995805  0.89536618  0.70168397  1
  Zr  Zr21  1  0.50322805  0.90584564  0.29699503  1
  Zr  Zr22  1  0.08913456  0.10334818  0.50210065  1
  Zr  Zr23  1  0.09781473  0.89211798  0.10342909  1
  Zr  Zr24  1  0.69304691  0.49864760  0.49809769  1
  Zr  Zr25  1  0.90581883  0.08999693  0.10145112  1
  Zr  Zr26  1  0.30429630  0.09781890  0.30105895  1
  Zr  Zr27  1  0.10230804  0.09291100  0.09591983  1
  Zr  Zr28  1  0.49282061  0.50370161  0.29585879  1
  Zr  Zr29  1  0.09261146  0.09893146  0.29238843  1
  Zr  Zr30  1  0.30212288  0.50580583  0.29919403  1
  Zr  Zr31  1  0.30132741  0.10510680  0.69746748  1
  Zr  Zr32  1  0.49996997  0.49677441  0.90856940  1
  Zr  Zr33  1  0.49800774  0.10907133  0.49344725  1
  Zr  Zr34  1  0.10575694  0.50573572  0.49819406  1
  Zr  Zr35  1  0.30084854  0.30104803  0.29471741  1
  Zr  Zr36  1  0.29262874  0.89891256  0.09317272  1
  Zr  Zr37  1  0.69533389  0.10050206  0.30078603  1
  Zr  Zr38  1  0.89632443  0.09684096  0.29618819  1
  Zr  Zr39  1  0.30396576  0.90016978  0.29734171  1
  Zr  Zr40  1  0.09970178  0.29786799  0.29989213  1
  Zr  Zr41  1  0.30673516  0.50197195  0.10691137  1
  Zr  Zr42  1  0.69723389  0.30766814  0.10605031  1
  Zr  Zr43  1  0.50883962  0.70088675  0.69999768  1
  Zr  Zr44  1  0.89390093  0.30079688  0.49682665  1
  Zr  Zr45  1  0.50401686  0.90633023  0.49758566  1
  Zr  Zr46  1  0.71221456  0.50551462  0.69165318  1
  Zr  Zr47  1  0.69714645  0.10018145  0.49962849  1
  Zr  Zr48  1  0.10222076  0.49557912  0.70301723  1
  Zr  Zr49  1  0.09665255  0.89725065  0.70852137  1
  Sc  Sc50  1  0.70057715  0.69303030  0.29291972  1
  Sc  Sc51  1  0.89776576  0.90016074  0.48362292  1
  Sc  Sc52  1  0.29898865  0.89618794  0.49585594  1
  Sc  Sc53  1  0.70333748  0.10371409  0.09441092  1
  Sc  Sc54  1  0.09579922  0.90084102  0.90234699  1
  Sc  Sc55  1  0.09658993  0.49867214  0.90068733  1
  Sc  Sc56  1  0.10615856  0.28769226  0.09775647  1
  Sc  Sc57  1  0.89919306  0.51236300  0.09758032  1
  Sc  Sc58  1  0.70305843  0.90243502  0.49963821  1
  Sc  Sc59  1  0.50183317  0.69821645  0.90347562  1
  Sc  Sc60  1  0.89001905  0.28516746  0.10529637  1
  Sc  Sc61  1  0.70173395  0.29266772  0.90508147  1
  Sc  Sc62  1  0.29627364  0.30546745  0.90688724  1
  Sc  Sc63  1  0.30102054  0.29207702  0.49205536  1
  Sc  Sc64  1  0.28732919  0.69115871  0.49984728  1
  Sc  Sc65  1  0.90336726  0.69607812  0.29762902  1
  Sc  Sc66  1  0.70791716  0.90134994  0.90298485  1
  Sc  Sc67  1  0.70726118  0.48982903  0.90730419  1
  Sc  Sc68  1  0.10012615  0.49992164  0.30456191  1
  Sc  Sc69  1  0.10148487  0.29494353  0.70796405  1
  Sc  Sc70  1  0.50010007  0.09272983  0.30143280  1
  Sc  Sc71  1  0.10200040  0.29889774  0.50436398  1
  Sc  Sc72  1  0.10020892  0.70068046  0.29723868  1
  Sc  Sc73  1  0.69687309  0.90603273  0.09371170  1
  Sc  Sc74  1  0.51214356  0.69445974  0.09784584  1
  Sc  Sc75  1  0.89539594  0.69457288  0.48614190  1
  Sc  Sc76  1  0.50604756  0.90211215  0.69643792  1
  Sc  Sc77  1  0.50028383  0.30691329  0.09676887  1
  Sc  Sc78  1  0.88908543  0.09729468  0.50106492  1
  Sc  Sc79  1  0.30666153  0.10554723  0.49839855  1
  Sc  Sc80  1  0.50445348  0.30331529  0.29779047  1
  Sc  Sc81  1  0.90028487  0.09591569  0.89963100  1
  Sc  Sc82  1  0.08656389  0.89233724  0.30294190  1
  Sc  Sc83  1  0.70616129  0.70839386  0.90007441  1
  Sc  Sc84  1  0.89119643  0.69038900  0.71611066  1
  Sc  Sc85  1  0.30914572  0.49771526  0.90570857  1
  Sc  Sc86  1  0.69904532  0.49187864  0.29374726  1
  Sc  Sc87  1  0.48928525  0.50713793  0.70414269  1
  Sc  Sc88  1  0.10068014  0.50159600  0.10129141  1
  Sc  Sc89  1  0.09128858  0.70703952  0.90564867  1
  Sc  Sc90  1  0.29498513  0.30842410  0.09543251  1
  Sc  Sc91  1  0.30599277  0.70933497  0.91228669  1
  Sc  Sc92  1  0.90253481  0.50511440  0.89751056  1
  Sc  Sc93  1  0.88998312  0.50149712  0.49879561  1
  Sc  Sc94  1  0.89668194  0.50052244  0.30497344  1
  Sc  Sc95  1  0.49966345  0.10235289  0.68618080  1
  Sc  Sc96  1  0.69495024  0.50342222  0.10211903  1
  Sc  Sc97  1  0.89975958  0.90051123  0.90294363  1
  Sc  Sc98  1  0.51183756  0.68512216  0.50208065  1
  Sc  Sc99  1  0.69274294  0.30820282  0.49799015  1
  Nb  Nb100  1  0.89707177  0.90246582  0.10253863  1
  Nb  Nb101  1  0.30729038  0.69448160  0.28918647  1
  Nb  Nb102  1  0.70893121  0.30251271  0.70550472  1
  Nb  Nb103  1  0.09031121  0.70151386  0.49849604  1
  Nb  Nb104  1  0.89733176  0.29843960  0.30005249  1
  Nb  Nb105  1  0.69424065  0.89763714  0.29422975  1
  Nb  Nb106  1  0.28830055  0.70299859  0.11004495  1
  Nb  Nb107  1  0.50471728  0.10773334  0.90162788  1
  Nb  Nb108  1  0.69731199  0.69988205  0.69988009  1
  Nb  Nb109  1  0.10048214  0.30232270  0.90941293  1
  Nb  Nb110  1  0.89598511  0.90035603  0.29313154  1
  Nb  Nb111  1  0.70807101  0.70604689  0.10298659  1
  Nb  Nb112  1  0.49847705  0.70232017  0.29738111  1
  Nb  Nb113  1  0.89586962  0.30417116  0.69710786  1
  Nb  Nb114  1  0.29799498  0.09417956  0.10265707  1
  Nb  Nb115  1  0.10403625  0.70087305  0.10278461  1
  Nb  Nb116  1  0.69494695  0.10212157  0.89824078  1
  Nb  Nb117  1  0.30876118  0.69780775  0.70461236  1
  Nb  Nb118  1  0.49882446  0.30372484  0.49906008  1
  Nb  Nb119  1  0.70695513  0.10199704  0.70137720  1
  Nb  Nb120  1  0.50305976  0.48941573  0.49314242  1
  Nb  Nb121  1  0.30217860  0.49822991  0.49914475  1
  Nb  Nb122  1  0.50301533  0.30018824  0.89780061  1
  Nb  Nb123  1  0.50014223  0.49483340  0.09827418  1
  Nb  Nb124  1  0.30117972  0.90218861  0.89978000  1
  Nb  Nb125  1  0.20830006  0.60637315  0.80538883  1
  Nb  Nb126  1  0.59868977  0.79728204  0.39381782  1
  Nb  Nb127  1  -0.00103766  -0.00697648  0.60149573  1
  Nb  Nb128  1  0.40531875  0.79049919  0.39740864  1
  Nb  Nb129  1  -0.00320691  0.40256019  0.60378892  1
  Nb  Nb130  1  0.80318199  0.79658474  0.60362387  1
  Nb  Nb131  1  0.40799873  0.19983153  0.80818217  1
  Nb  Nb132  1  0.19363200  -0.00095376  0.59991634  1
  Nb  Nb133  1  0.40080991  0.79414707  0.20006234  1
  Nb  Nb134  1  -0.00742343  0.20165930  0.39490819  1
  Nb  Nb135  1  0.00090536  0.60172947  0.60043912  1
  Nb  Nb136  1  -0.00080755  0.39260014  0.00421666  1
  Nb  Nb137  1  0.20031674  0.60643466  0.00471978  1
  Nb  Nb138  1  0.60243343  0.01284507  0.80219344  1
  Nb  Nb139  1  0.20514260  0.00126887  0.80076909  1
  Nb  Nb140  1  0.39663962  0.19463544  0.19300897  1
  Nb  Nb141  1  0.40027915  0.80335452  0.79785112  1
  Nb  Nb142  1  0.79975904  0.80538019  0.19836900  1
  Nb  Nb143  1  0.19343945  0.00071234  0.40293055  1
  Nb  Nb144  1  0.60165596  0.39837347  0.79793506  1
  Nb  Nb145  1  -0.00389384  0.39260549  0.19877264  1
  Nb  Nb146  1  0.40204368  0.79300868  0.59897103  1
  Nb  Nb147  1  0.60647511  0.59568554  0.80004631  1
  Nb  Nb148  1  -0.00912946  0.79511741  0.60020983  1
  Nb  Nb149  1  0.39952242  0.40387312  0.58922444  1
  Pd  Pd150  1  0.39358705  -0.00564487  0.59235150  1
  Pd  Pd151  1  0.39775681  0.39555783  0.39925736  1
  Pd  Pd152  1  0.19880075  0.60703052  0.39178443  1
  Pd  Pd153  1  0.40631942  0.00338063  0.79574356  1
  Pd  Pd154  1  -0.00450625  0.20435069  0.80281359  1
  Pd  Pd155  1  0.20730394  0.79810848  0.81312099  1
  Pd  Pd156  1  0.40430759  0.59961412  0.58942540  1
  Pd  Pd157  1  0.80418928  0.19419993  -0.00372490  1
  Pd  Pd158  1  0.59579730  0.80294448  0.81099022  1
  Pd  Pd159  1  0.19306334  -0.00866338  0.20867530  1
  Pd  Pd160  1  0.60188522  0.20689235  0.00720673  1
  Pd  Pd161  1  0.60063229  0.20093692  0.79205648  1
  Pd  Pd162  1  0.40025479  0.60491431  0.40882084  1
  Pd  Pd163  1  0.79380042  -0.00128112  0.39548875  1
  Pd  Pd164  1  0.19573999  0.60361577  0.60547819  1
  Pd  Pd165  1  0.19172641  0.40416150  0.19839738  1
  Pd  Pd166  1  0.60438161  0.80125791  -0.00447697  1
  Pd  Pd167  1  -0.00825251  0.20540764  0.00032455  1
  Pd  Pd168  1  0.61205449  0.60028003  -0.00728390  1
  Pd  Pd169  1  0.39525994  0.60650432  0.00782392  1
  Pd  Pd170  1  0.19222511  0.19261621  0.40154626  1
  Pd  Pd171  1  0.40528493  0.80059077  0.00750160  1
  Pd  Pd172  1  0.20305583  0.79960442  0.59647624  1
  Pd  Pd173  1  0.01018579  0.60579034  0.79994883  1
  Pd  Pd174  1  0.79010550  0.20796299  0.59468321  1
  Pd  Pd175  1  0.59993452  0.59701474  0.19954584  1
  Pd  Pd176  1  0.79029360  -0.00249482  0.19640030  1
  Pd  Pd177  1  0.20463576  0.39946189  0.40188609  1
  Pd  Pd178  1  0.60318040  0.59923791  0.38967279  1
  Pd  Pd179  1  0.81052973  0.40885864  0.19318995  1
  Pd  Pd180  1  0.79464010  0.00555412  0.80528897  1
  Pd  Pd181  1  0.20549440  0.79602898  0.39139310  1
  Pd  Pd182  1  0.20720133  0.19834468  0.19388269  1
  Pd  Pd183  1  0.59075037  0.19716345  0.19464633  1
  Pd  Pd184  1  0.39644831  0.20966108  0.00347747  1
  Pd  Pd185  1  0.59841620  0.20783758  0.39713273  1
  Pd  Pd186  1  0.21128827  0.19566106  0.81466077  1
  Pd  Pd187  1  -0.00214981  0.39818442  0.40194588  1
  Pd  Pd188  1  0.79334084  0.59965963  -0.00038107  1
  Pd  Pd189  1  0.79118717  0.79668829  0.39463503  1
  Pd  Pd190  1  0.59462944  0.40699760  0.60920147  1
  Pd  Pd191  1  0.40405587  0.39364766  0.79544679  1
  Pd  Pd192  1  0.79039252  0.59585736  0.39288899  1
  Pd  Pd193  1  0.60859234  0.20312662  0.59968450  1
  Pd  Pd194  1  0.20222464  0.40689803  0.81086389  1
  Pd  Pd195  1  -0.00375525  0.80522928  0.00165727  1
  Pd  Pd196  1  0.00349207  0.59166273  0.20402475  1
  Pd  Pd197  1  0.20184459  0.39423296  0.59455935  1
  Pd  Pd198  1  0.81038748  0.40143375  0.00973895  1
  Pd  Pd199  1  0.60619436  0.00364309  0.60568599  1
  Rh  Rh200  1  0.59950286  0.39861778  0.39051030  1
  Rh  Rh201  1  0.80312695  0.80393250  0.00992240  1
  Rh  Rh202  1  0.40076505  -0.00897084  0.00934757  1
  Rh  Rh203  1  0.59476208  0.40507299  0.19970297  1
  Rh  Rh204  1  0.79409768  0.40234790  0.39928722  1
  Rh  Rh205  1  0.40269671  0.39368718  0.19823655  1
  Rh  Rh206  1  -0.00373206  0.20603734  0.20381744  1
  Rh  Rh207  1  0.78846822  0.59812598  0.81032020  1
  Rh  Rh208  1  0.20712351  0.19565627  0.00088086  1
  Rh  Rh209  1  0.80081627  0.19931662  0.40017129  1
  Rh  Rh210  1  0.19471058  0.59603997  0.20020118  1
  Rh  Rh211  1  -0.00896653  0.79988258  0.20082679  1
  Rh  Rh212  1  0.19591564  0.79739481  -0.00346716  1
  Rh  Rh213  1  0.00619088  0.00862783  0.79949514  1
  Rh  Rh214  1  0.40067636  -0.00019316  0.19082642  1
  Rh  Rh215  1  0.80532080  -0.00869306  0.60170071  1
  Rh  Rh216  1  -0.00932027  0.79376546  0.39654003  1
  Rh  Rh217  1  0.00556789  0.38966054  0.80197228  1
  Rh  Rh218  1  0.40074411  0.61106721  0.81221305  1
  Rh  Rh219  1  0.19458449  -0.00287717  -0.00614997  1
  Rh  Rh220  1  0.80005111  0.60520123  0.19784908  1
  Rh  Rh221  1  0.60671674  -0.00508572  0.40021702  1
  Rh  Rh222  1  0.20154922  0.80299912  0.20828329  1
  Rh  Rh223  1  0.00306546  0.59817567  0.40324701  1
  Rh  Rh224  1  0.01113246  0.59407435  0.00044551  1
  Rh  Rh225  1  0.80071918  0.00381356  -0.00269974  1
  Rh  Rh226  1  0.80132342  0.79870342  0.79808426  1
  Rh  Rh227  1  -0.00084428  0.00781229  0.40243527  1
  Rh  Rh228  1  0.60573891  0.00989891  0.19525491  1
  Rh  Rh229  1  0.60663678  0.00255655  -0.00686643  1
  Rh  Rh230  1  0.40893311  0.60626820  0.18772346  1
  Rh  Rh231  1  0.80380433  0.39753637  0.59620860  1
  Rh  Rh232  1  0.39269326  -0.00283599  0.40691996  1
  Rh  Rh233  1  -0.01015152  0.79416964  0.80079542  1
  Rh  Rh234  1  -0.00875021  0.20761570  0.59312068  1
  Rh  Rh235  1  0.00306509  -0.00919944  0.19728797  1
  Rh  Rh236  1  0.40888722  0.20351390  0.38742281  1
  Rh  Rh237  1  0.40310346  0.39737595  0.00351818  1
  Rh  Rh238  1  0.81349577  0.60927521  0.60140185  1
  Rh  Rh239  1  0.79226547  0.40045836  0.80262747  1
  Rh  Rh240  1  0.80162631  0.19925245  0.80227434  1
  Rh  Rh241  1  0.20424782  0.19763971  0.59607386  1
  Rh  Rh242  1  0.79651967  0.19172603  0.20036617  1
  Rh  Rh243  1  0.60347999  0.80373730  0.58759328  1
  Rh  Rh244  1  0.19058436  0.41050302  0.00013582  1
  Rh  Rh245  1  0.60162408  0.39633899  -0.00381512  1
  Rh  Rh246  1  0.59412172  0.58554875  0.60995836  1
  Rh  Rh247  1  0.39663541  0.21217276  0.60184142  1
  Rh  Rh248  1  0.60470742  0.79535479  0.20137114  1
  Rh  Rh249  1  0.00060771  -0.00505269  0.00073863  1
