# generated using pymatgen
data_ZrScNbPdRh
_symmetry_space_group_name_H-M   'P 1'
_cell_length_a   16.55089458
_cell_length_b   16.55586887
_cell_length_c   16.55609325
_cell_angle_alpha   89.97403157
_cell_angle_beta   90.02091756
_cell_angle_gamma   90.03330763
_symmetry_Int_Tables_number   1
_chemical_formula_structural   ZrScNbPdRh
_chemical_formula_sum   'Zr50 Sc50 Nb50 Pd50 Rh50'
_cell_volume   4536.60709161
_cell_formula_units_Z   50
loop_
 _symmetry_equiv_pos_site_id
 _symmetry_equiv_pos_as_xyz
  1  'x, y, z'
loop_
 _atom_site_type_symbol
 _atom_site_label
 _atom_site_symmetry_multiplicity
 _atom_site_fract_x
 _atom_site_fract_y
 _atom_site_fract_z
 _atom_site_occupancy
  Zr  Zr0  1  0.70023231  0.09754364  0.90292983  1
  Zr  Zr1  1  0.09913910  0.30665900  0.10254402  1
  Zr  Zr2  1  0.09276746  0.29655684  0.49663532  1
  Zr  Zr3  1  0.29636118  0.89822956  0.90556690  1
  Zr  Zr4  1  0.10374476  0.49161939  0.50937011  1
  Zr  Zr5  1  0.30008295  0.89900196  0.69265313  1
  Zr  Zr6  1  0.89602225  0.89862255  0.30329061  1
  Zr  Zr7  1  0.09480413  0.90406617  0.09409200  1
  Zr  Zr8  1  0.09017299  0.69794724  0.70406375  1
  Zr  Zr9  1  0.09701551  0.50479387  0.90409973  1
  Zr  Zr10  1  0.90529691  0.29885796  0.49945625  1
  Zr  Zr11  1  0.69282591  0.70373579  0.51000429  1
  Zr  Zr12  1  0.89105697  0.50806169  0.90708539  1
  Zr  Zr13  1  0.90024396  0.09733233  0.49890172  1
  Zr  Zr14  1  0.09628905  0.29822557  0.90872817  1
  Zr  Zr15  1  0.30509214  0.30300127  0.29098643  1
  Zr  Zr16  1  0.90201034  0.69986900  0.89018311  1
  Zr  Zr17  1  0.30715994  0.10242365  0.90331639  1
  Zr  Zr18  1  0.29783031  0.08806946  0.49421047  1
  Zr  Zr19  1  0.10333325  0.50749507  0.70058584  1
  Zr  Zr20  1  0.09781103  0.69823374  0.30346370  1
  Zr  Zr21  1  0.50607102  0.51047182  0.08534353  1
  Zr  Zr22  1  0.70655121  0.29795647  0.90347809  1
  Zr  Zr23  1  0.09852380  0.29525328  0.29774241  1
  Zr  Zr24  1  0.31736202  0.29712751  0.70716075  1
  Zr  Zr25  1  0.50338579  0.10209960  0.49057331  1
  Zr  Zr26  1  0.90318752  0.50960533  0.70225832  1
  Zr  Zr27  1  0.50387621  0.69155333  0.91105488  1
  Zr  Zr28  1  0.49938089  0.09702476  0.29739221  1
  Zr  Zr29  1  0.90472357  0.69406465  0.30913016  1
  Zr  Zr30  1  0.69620713  0.90368300  0.89778302  1
  Zr  Zr31  1  0.08682793  0.10071785  0.70166337  1
  Zr  Zr32  1  0.69494642  0.10308175  0.09994853  1
  Zr  Zr33  1  0.30298965  0.30196810  0.90424861  1
  Zr  Zr34  1  0.49536518  0.10808069  0.69735634  1
  Zr  Zr35  1  0.89818593  0.89525100  0.90569502  1
  Zr  Zr36  1  0.28900597  0.69779723  0.70122321  1
  Zr  Zr37  1  0.69848962  0.09786411  0.49425113  1
  Zr  Zr38  1  0.49899615  0.71287222  0.28931817  1
  Zr  Zr39  1  0.50379241  0.89322663  0.10699370  1
  Zr  Zr40  1  0.90034430  0.89836195  0.70162661  1
  Zr  Zr41  1  0.69815052  0.89165038  0.70100112  1
  Zr  Zr42  1  0.90311099  0.31046218  0.30204448  1
  Zr  Zr43  1  0.30001914  0.70676213  0.30140875  1
  Zr  Zr44  1  0.68964181  0.09683254  0.30157280  1
  Zr  Zr45  1  0.90071681  0.90032311  0.10010793  1
  Zr  Zr46  1  0.09887385  0.30769962  0.68964128  1
  Zr  Zr47  1  0.30432462  0.90387845  0.30268463  1
  Zr  Zr48  1  0.50327197  0.09851906  0.10298793  1
  Zr  Zr49  1  0.30018714  0.09844451  0.69987162  1
  Sc  Sc50  1  0.89630906  0.09827010  0.89102927  1
  Sc  Sc51  1  0.30960612  0.49705265  0.90357302  1
  Sc  Sc52  1  0.30285125  0.10117725  0.10419030  1
  Sc  Sc53  1  0.49604859  0.49266411  0.30303900  1
  Sc  Sc54  1  0.09221906  0.70837290  0.10268773  1
  Sc  Sc55  1  0.09767157  0.70366579  0.49872956  1
  Sc  Sc56  1  0.52234179  0.70101764  0.68757354  1
  Sc  Sc57  1  0.69877451  0.30456365  0.49440783  1
  Sc  Sc58  1  0.30394548  0.30811040  0.50189196  1
  Sc  Sc59  1  0.09920738  0.10249411  0.10881782  1
  Sc  Sc60  1  0.49324587  0.31002769  0.89317934  1
  Sc  Sc61  1  0.69512046  0.50096815  0.90636805  1
  Sc  Sc62  1  0.50137101  0.29689850  0.30182980  1
  Sc  Sc63  1  0.89752333  0.69828575  0.08982836  1
  Sc  Sc64  1  0.90532697  0.29626297  0.69467027  1
  Sc  Sc65  1  0.30643623  0.50086129  0.30352519  1
  Sc  Sc66  1  0.89289861  0.10548703  0.29381970  1
  Sc  Sc67  1  0.49567970  0.70461611  0.50002054  1
  Sc  Sc68  1  0.29251425  0.69905094  0.89832899  1
  Sc  Sc69  1  0.50788905  0.49271046  0.70298855  1
  Sc  Sc70  1  0.70950692  0.69691656  0.89776168  1
  Sc  Sc71  1  0.89840611  0.30368849  0.10473624  1
  Sc  Sc72  1  0.90011239  0.89560035  0.50077198  1
  Sc  Sc73  1  0.29989304  0.29635089  0.10200249  1
  Sc  Sc74  1  0.90443354  0.49705452  0.09942434  1
  Sc  Sc75  1  0.70744100  0.90384677  0.49681834  1
  Sc  Sc76  1  0.90133860  0.29854075  0.91249762  1
  Sc  Sc77  1  0.29300053  0.49616708  0.69591752  1
  Sc  Sc78  1  0.69936297  0.49485455  0.50016764  1
  Sc  Sc79  1  0.49504875  0.29724796  0.10663387  1
  Sc  Sc80  1  0.70129409  0.90490921  0.09374185  1
  Sc  Sc81  1  0.09535662  0.89299135  0.69487142  1
  Sc  Sc82  1  0.89961006  0.49425570  0.49044429  1
  Sc  Sc83  1  0.49031892  0.89968552  0.50211971  1
  Sc  Sc84  1  0.10497859  0.89513614  0.29272966  1
  Sc  Sc85  1  0.10189605  0.89514496  0.49702850  1
  Sc  Sc86  1  0.70486544  0.30061294  0.09580516  1
  Sc  Sc87  1  0.10080063  0.10306368  0.49403457  1
  Sc  Sc88  1  0.50259552  0.30043627  0.49800406  1
  Sc  Sc89  1  0.70587306  0.49311139  0.30703020  1
  Sc  Sc90  1  0.70467924  0.29904711  0.29806358  1
  Sc  Sc91  1  0.29532951  0.89584801  0.49796434  1
  Sc  Sc92  1  0.69519267  0.50299066  0.69709694  1
  Sc  Sc93  1  0.29734127  0.70561908  0.49167874  1
  Sc  Sc94  1  0.69890491  0.69866043  0.30147754  1
  Sc  Sc95  1  0.29651285  0.09729938  0.29660273  1
  Sc  Sc96  1  0.29397432  0.90667318  0.10628631  1
  Sc  Sc97  1  0.09202019  0.10020709  0.90688497  1
  Sc  Sc98  1  0.49988071  0.49358570  0.49498805  1
  Sc  Sc99  1  0.30864306  0.48710915  0.09953789  1
  Nb  Nb100  1  0.89740166  0.70541810  0.50037208  1
  Nb  Nb101  1  0.08952088  0.50156920  0.29381007  1
  Nb  Nb102  1  0.49664983  0.50322379  0.89884306  1
  Nb  Nb103  1  0.89364315  0.08792112  0.10240842  1
  Nb  Nb104  1  0.70531359  0.09833638  0.70568300  1
  Nb  Nb105  1  0.89563271  0.09502125  0.69850713  1
  Nb  Nb106  1  0.70378782  0.49988218  0.10116193  1
  Nb  Nb107  1  0.50190042  0.89796871  0.90034487  1
  Nb  Nb108  1  0.69459649  0.90349172  0.30278962  1
  Nb  Nb109  1  0.30671889  0.69615909  0.10056264  1
  Nb  Nb110  1  0.50239505  0.69964977  0.10236308  1
  Nb  Nb111  1  0.50283346  0.90541872  0.29748821  1
  Nb  Nb112  1  0.10363135  0.70314486  0.89706893  1
  Nb  Nb113  1  0.09850472  0.50353558  0.10510815  1
  Nb  Nb114  1  0.68751008  0.69252655  0.10847251  1
  Nb  Nb115  1  0.10045543  0.89263482  0.90426796  1
  Nb  Nb116  1  0.71029789  0.70080105  0.69686862  1
  Nb  Nb117  1  0.50432802  0.29656428  0.70363800  1
  Nb  Nb118  1  0.30217690  0.50014784  0.49733358  1
  Nb  Nb119  1  0.10434666  0.10306048  0.30495209  1
  Nb  Nb120  1  0.90197481  0.50172286  0.29539340  1
  Nb  Nb121  1  0.50232541  0.89806085  0.70430460  1
  Nb  Nb122  1  0.50479284  0.09349712  0.90245303  1
  Nb  Nb123  1  0.89675731  0.70496588  0.70081805  1
  Nb  Nb124  1  0.69793305  0.29996119  0.69930585  1
  Nb  Nb125  1  -0.00116978  0.40359507  0.80311861  1
  Nb  Nb126  1  0.19602651  0.39399617  0.80251058  1
  Nb  Nb127  1  0.00162166  0.00198238  0.39243090  1
  Nb  Nb128  1  0.20058280  0.59793097  0.19683048  1
  Nb  Nb129  1  0.40849021  0.79927940  0.80164626  1
  Nb  Nb130  1  0.59811235  0.60598682  0.39911204  1
  Nb  Nb131  1  0.59997462  0.00274085  0.60711494  1
  Nb  Nb132  1  0.19668854  0.40488789  0.39748944  1
  Nb  Nb133  1  0.19957024  0.00031066  0.80354259  1
  Nb  Nb134  1  0.40167411  0.60550333  0.19446153  1
  Nb  Nb135  1  0.20284924  0.19968036  0.60437403  1
  Nb  Nb136  1  0.60169818  0.20115549  0.79632280  1
  Nb  Nb137  1  0.40294856  0.79669966  0.00203510  1
  Nb  Nb138  1  0.79422718  0.79476770  0.20061501  1
  Nb  Nb139  1  0.59789924  0.80414102  0.39445368  1
  Nb  Nb140  1  0.40519258  0.60434119  0.79467898  1
  Nb  Nb141  1  0.80397638  0.60846931  0.59951469  1
  Nb  Nb142  1  0.60474336  0.40578306  0.19367192  1
  Nb  Nb143  1  0.40423072  -0.00648620  0.80351393  1
  Nb  Nb144  1  0.39806098  0.59705679  0.59971238  1
  Nb  Nb145  1  0.80169957  0.39850921  0.79821880  1
  Nb  Nb146  1  0.19861223  0.20038017  0.79869704  1
  Nb  Nb147  1  0.79586127  0.19466563  0.60602895  1
  Nb  Nb148  1  0.19887544  0.60069557  0.00933266  1
  Nb  Nb149  1  0.79900746  0.59923605  0.20057225  1
  Pd  Pd150  1  0.19771927  0.80752472  0.79515467  1
  Pd  Pd151  1  0.18763827  0.00274277  0.60215049  1
  Pd  Pd152  1  -0.00978066  0.19057058  0.01280673  1
  Pd  Pd153  1  0.79468671  -0.00082474  0.60223857  1
  Pd  Pd154  1  -0.01018231  0.79505922  0.20091757  1
  Pd  Pd155  1  0.20290834  0.79266732  0.01022782  1
  Pd  Pd156  1  0.40841635  0.60355622  0.39984931  1
  Pd  Pd157  1  0.59661915  0.39858690  0.59705747  1
  Pd  Pd158  1  0.60831462  0.19794391  0.60077739  1
  Pd  Pd159  1  0.59017658  0.20947330  -0.00742374  1
  Pd  Pd160  1  0.00555801  0.60782151  0.00246070  1
  Pd  Pd161  1  0.79016390  0.79281594  0.00665336  1
  Pd  Pd162  1  -0.00511985  0.00598419  -0.00293708  1
  Pd  Pd163  1  0.39377239  0.20163572  0.39949557  1
  Pd  Pd164  1  0.40718812  -0.00017599  0.60092211  1
  Pd  Pd165  1  -0.00492849  0.19747988  0.19849256  1
  Pd  Pd166  1  0.00383314  0.59332977  0.41021504  1
  Pd  Pd167  1  0.00425458  -0.00904756  0.80740844  1
  Pd  Pd168  1  0.20090779  0.40850376  0.20658444  1
  Pd  Pd169  1  0.79814584  0.20244693  0.19659349  1
  Pd  Pd170  1  0.40835495  0.20396709  0.00006990  1
  Pd  Pd171  1  0.19533929  0.00881269  -0.00007727  1
  Pd  Pd172  1  0.40009074  0.78835606  0.60794148  1
  Pd  Pd173  1  0.79270058  0.59914341  0.40375868  1
  Pd  Pd174  1  0.00576584  0.00316177  0.20861350  1
  Pd  Pd175  1  0.20529213  0.60688297  0.58852388  1
  Pd  Pd176  1  0.60437428  0.79653266  -0.00016487  1
  Pd  Pd177  1  0.79906191  0.20335576  0.40326270  1
  Pd  Pd178  1  0.40581788  -0.00789671  0.00418158  1
  Pd  Pd179  1  0.80371505  0.40061904  0.60536713  1
  Pd  Pd180  1  0.00477175  -0.00243076  0.58893425  1
  Pd  Pd181  1  0.80199590  0.20812016  0.79479599  1
  Pd  Pd182  1  0.79163752  -0.00525785  0.20278545  1
  Pd  Pd183  1  0.19622770  0.59281965  0.39623022  1
  Pd  Pd184  1  -0.00121967  0.20833312  0.80000438  1
  Pd  Pd185  1  0.59903483  0.58836283  0.21203613  1
  Pd  Pd186  1  0.20140094  0.79688294  0.19381765  1
  Pd  Pd187  1  0.79242028  0.79766098  0.39712811  1
  Pd  Pd188  1  0.60166512  0.60384869  0.80055923  1
  Pd  Pd189  1  0.21109459  0.20874979  0.40476375  1
  Pd  Pd190  1  0.20137361  0.40718569  -0.00073248  1
  Pd  Pd191  1  0.40700432  0.40632299  0.60353643  1
  Pd  Pd192  1  0.80932100  0.19232467  0.00682047  1
  Pd  Pd193  1  -0.00778601  0.60317381  0.58938562  1
  Pd  Pd194  1  0.60037674  0.78782572  0.80483946  1
  Pd  Pd195  1  0.19911126  0.19419689  0.00265895  1
  Pd  Pd196  1  0.59599588  0.39310845  0.00314017  1
  Pd  Pd197  1  0.39490499  0.20018118  0.58563201  1
  Pd  Pd198  1  0.60795032  0.39622117  0.80574373  1
  Pd  Pd199  1  0.59572936  0.00682262  0.79408792  1
  Rh  Rh200  1  0.80516081  0.79866286  0.59964863  1
  Rh  Rh201  1  0.19122198  -0.00497549  0.39465308  1
  Rh  Rh202  1  0.20812985  0.58818214  0.81452903  1
  Rh  Rh203  1  -0.00425135  0.60325293  0.19729237  1
  Rh  Rh204  1  0.40130614  -0.00230638  0.39771172  1
  Rh  Rh205  1  -0.00125687  0.40041558  0.19763634  1
  Rh  Rh206  1  0.20091962  0.19898651  0.19904167  1
  Rh  Rh207  1  0.61066424  0.60244426  -0.00405961  1
  Rh  Rh208  1  0.80755180  0.00311678  0.39240029  1
  Rh  Rh209  1  0.79325343  0.59358445  0.79115613  1
  Rh  Rh210  1  0.00185695  0.80331972  0.80295364  1
  Rh  Rh211  1  0.40488090  0.80713223  0.39698034  1
  Rh  Rh212  1  0.59691374  -0.00235088  0.00484207  1
  Rh  Rh213  1  0.40924998  0.19307744  0.81157819  1
  Rh  Rh214  1  0.59342993  -0.01111965  0.41024074  1
  Rh  Rh215  1  0.40809806  0.39600963  0.00383240  1
  Rh  Rh216  1  0.00125289  0.80672435  0.40127778  1
  Rh  Rh217  1  0.79752145  0.40808116  0.20064383  1
  Rh  Rh218  1  0.61115635  0.80877932  0.20298287  1
  Rh  Rh219  1  0.60410804  -0.00330742  0.19405071  1
  Rh  Rh220  1  0.79373637  0.60300643  0.01081283  1
  Rh  Rh221  1  0.80231900  0.00415372  -0.00401090  1
  Rh  Rh222  1  0.00234098  0.79571265  -0.00648816  1
  Rh  Rh223  1  -0.00000913  0.60038496  0.80434347  1
  Rh  Rh224  1  0.19754755  0.80277131  0.39872684  1
  Rh  Rh225  1  0.40056311  0.00053600  0.19909295  1
  Rh  Rh226  1  0.41296914  0.40795872  0.19453091  1
  Rh  Rh227  1  0.60248671  0.20562359  0.39515763  1
  Rh  Rh228  1  -0.00375790  0.19112834  0.59858970  1
  Rh  Rh229  1  0.60017036  0.59214076  0.58986672  1
  Rh  Rh230  1  0.39219655  0.60414464  -0.00208375  1
  Rh  Rh231  1  0.80306997  0.39782053  0.39892197  1
  Rh  Rh232  1  0.80170180  -0.00797197  0.80181427  1
  Rh  Rh233  1  0.00588114  0.40660227  0.39570294  1
  Rh  Rh234  1  0.19524425  0.79496994  0.59952214  1
  Rh  Rh235  1  0.60118994  0.81656256  0.58921479  1
  Rh  Rh236  1  0.19526854  0.00341438  0.20194190  1
  Rh  Rh237  1  0.39388198  0.39438146  0.39825363  1
  Rh  Rh238  1  0.39899817  0.19483440  0.20333075  1
  Rh  Rh239  1  0.20756564  0.39254064  0.59745883  1
  Rh  Rh240  1  0.39741629  0.41247452  0.79349162  1
  Rh  Rh241  1  0.80224055  0.40365819  -0.00283209  1
  Rh  Rh242  1  -0.01062422  0.40829823  0.60395898  1
  Rh  Rh243  1  0.39265779  0.80378106  0.19315645  1
  Rh  Rh244  1  -0.00268560  0.40215134  0.00238060  1
  Rh  Rh245  1  0.60380321  0.20991751  0.20068355  1
  Rh  Rh246  1  0.79960596  0.80437876  0.80172383  1
  Rh  Rh247  1  -0.00304018  0.79635580  0.59783960  1
  Rh  Rh248  1  -0.00606480  0.19094366  0.39109472  1
  Rh  Rh249  1  0.60006816  0.40195089  0.39145338  1
