# generated using pymatgen
data_ZrScNbPdRh
_symmetry_space_group_name_H-M   'P 1'
_cell_length_a   16.55101001
_cell_length_b   16.55462830
_cell_length_c   16.55270600
_cell_angle_alpha   89.99391582
_cell_angle_beta   89.98856459
_cell_angle_gamma   90.00548848
_symmetry_Int_Tables_number   1
_chemical_formula_structural   ZrScNbPdRh
_chemical_formula_sum   'Zr50 Sc50 Nb50 Pd50 Rh50'
_cell_volume   4535.37209592
_cell_formula_units_Z   50
loop_
 _symmetry_equiv_pos_site_id
 _symmetry_equiv_pos_as_xyz
  1  'x, y, z'
loop_
 _atom_site_type_symbol
 _atom_site_label
 _atom_site_symmetry_multiplicity
 _atom_site_fract_x
 _atom_site_fract_y
 _atom_site_fract_z
 _atom_site_occupancy
  Zr  Zr0  1  0.50429352  0.49521055  0.09152863  1
  Zr  Zr1  1  0.50047968  0.90575944  0.89138572  1
  Zr  Zr2  1  0.70132222  0.09527707  0.10477550  1
  Zr  Zr3  1  0.89717192  0.50264529  0.89156081  1
  Zr  Zr4  1  0.29351297  0.70498495  0.09488134  1
  Zr  Zr5  1  0.09587588  0.50613590  0.70816265  1
  Zr  Zr6  1  0.50241383  0.50066290  0.89714698  1
  Zr  Zr7  1  0.30314475  0.50061669  0.29933687  1
  Zr  Zr8  1  0.09227161  0.70185046  0.49530139  1
  Zr  Zr9  1  0.92100589  0.89617679  0.71204732  1
  Zr  Zr10  1  0.70253209  0.50297555  0.49096018  1
  Zr  Zr11  1  0.70104003  0.89624119  0.50520743  1
  Zr  Zr12  1  0.89965521  0.50165351  0.70585750  1
  Zr  Zr13  1  0.50349556  0.10315997  0.48931657  1
  Zr  Zr14  1  0.30357992  0.70155640  0.28486575  1
  Zr  Zr15  1  0.70499329  0.90316716  0.30248328  1
  Zr  Zr16  1  0.69559759  0.29578729  0.09278821  1
  Zr  Zr17  1  0.30195283  0.09315460  0.10055631  1
  Zr  Zr18  1  0.50473182  0.30980435  0.70465259  1
  Zr  Zr19  1  0.30624942  0.29114334  0.50199766  1
  Zr  Zr20  1  0.09027500  0.09645790  0.69725791  1
  Zr  Zr21  1  0.30744135  0.09808208  0.90188895  1
  Zr  Zr22  1  0.70067096  0.09711581  0.69958934  1
  Zr  Zr23  1  0.30307859  0.90480621  0.90109066  1
  Zr  Zr24  1  0.88955620  0.29703226  0.50266117  1
  Zr  Zr25  1  0.09466919  0.29128526  0.70432061  1
  Zr  Zr26  1  0.49500082  0.28984480  0.30215193  1
  Zr  Zr27  1  0.09785770  0.09531385  0.10135213  1
  Zr  Zr28  1  0.90238692  0.30285834  0.09993774  1
  Zr  Zr29  1  0.89850458  0.50771006  0.50118610  1
  Zr  Zr30  1  0.69732316  0.50529159  0.10074415  1
  Zr  Zr31  1  0.50013961  0.29680963  0.90025163  1
  Zr  Zr32  1  0.09887267  0.50451284  0.49708761  1
  Zr  Zr33  1  0.89734065  0.89928532  0.10494123  1
  Zr  Zr34  1  0.29999842  0.90089336  0.49314444  1
  Zr  Zr35  1  0.89023722  0.69904895  0.49855844  1
  Zr  Zr36  1  0.70126995  0.69945745  0.09988365  1
  Zr  Zr37  1  0.89726732  0.09275912  0.09801201  1
  Zr  Zr38  1  0.50730869  0.70307927  0.90332121  1
  Zr  Zr39  1  0.30482985  0.30127882  0.70059366  1
  Zr  Zr40  1  0.70357096  0.09384743  0.50313174  1
  Zr  Zr41  1  0.50500885  0.50026985  0.49762997  1
  Zr  Zr42  1  0.50137817  0.69674879  0.49778273  1
  Zr  Zr43  1  0.50018257  0.10548286  0.10166633  1
  Zr  Zr44  1  0.88728028  0.09263224  0.30103055  1
  Zr  Zr45  1  0.50349585  0.50131406  0.70272785  1
  Zr  Zr46  1  0.89614948  0.89990886  0.90712871  1
  Zr  Zr47  1  0.50159861  0.70617900  0.70173069  1
  Zr  Zr48  1  0.89788376  0.30221341  0.29769464  1
  Zr  Zr49  1  0.30205769  0.30074935  0.30250752  1
  Sc  Sc50  1  0.90085082  0.50777393  0.09980592  1
  Sc  Sc51  1  0.30256167  0.88738984  0.70014624  1
  Sc  Sc52  1  0.90033324  0.90086338  0.49113917  1
  Sc  Sc53  1  0.30797170  0.30135495  0.90169742  1
  Sc  Sc54  1  0.09301531  0.89990121  0.88822207  1
  Sc  Sc55  1  0.10449330  0.90313392  0.11316932  1
  Sc  Sc56  1  0.30798539  0.50630734  0.70811612  1
  Sc  Sc57  1  0.70440646  0.71328188  0.69489565  1
  Sc  Sc58  1  0.90278373  0.10495547  0.69353919  1
  Sc  Sc59  1  0.30192696  0.50601391  0.90105423  1
  Sc  Sc60  1  0.50029255  0.90042444  0.30709221  1
  Sc  Sc61  1  0.89830523  0.29485381  0.89027046  1
  Sc  Sc62  1  0.89541800  0.70244908  0.89085681  1
  Sc  Sc63  1  0.49503423  0.88988076  0.09457057  1
  Sc  Sc64  1  0.09492871  0.10329861  0.89812767  1
  Sc  Sc65  1  0.69844799  0.49210120  0.70546632  1
  Sc  Sc66  1  0.89896898  0.50906244  0.30036771  1
  Sc  Sc67  1  0.69741011  0.29224139  0.89148352  1
  Sc  Sc68  1  0.50166796  0.30128064  0.50214966  1
  Sc  Sc69  1  0.50448293  0.89724662  0.50357299  1
  Sc  Sc70  1  0.50563833  0.09556183  0.70951652  1
  Sc  Sc71  1  0.90160466  0.09861667  0.90191462  1
  Sc  Sc72  1  0.69895557  0.70256910  0.90140592  1
  Sc  Sc73  1  0.10644741  0.50884068  0.30682627  1
  Sc  Sc74  1  0.09108718  0.09086739  0.50190738  1
  Sc  Sc75  1  0.31069346  0.49719181  0.09426127  1
  Sc  Sc76  1  0.10119905  0.29572803  0.50446941  1
  Sc  Sc77  1  0.48810474  0.69871124  0.09787905  1
  Sc  Sc78  1  0.69602959  0.29964623  0.50375535  1
  Sc  Sc79  1  0.70841940  0.89444797  0.09578793  1
  Sc  Sc80  1  0.29723170  0.89678469  0.09878488  1
  Sc  Sc81  1  0.68719540  0.90367159  0.69488350  1
  Sc  Sc82  1  0.09303433  0.49453766  0.09042127  1
  Sc  Sc83  1  0.49211855  0.29840722  0.09802056  1
  Sc  Sc84  1  0.69851577  0.29609012  0.30397289  1
  Sc  Sc85  1  0.69781946  0.10458849  0.89841894  1
  Sc  Sc86  1  0.90307753  0.89752855  0.29902402  1
  Sc  Sc87  1  0.49632863  0.09991475  0.89664337  1
  Sc  Sc88  1  0.29610909  0.70127568  0.70806044  1
  Sc  Sc89  1  0.30701479  0.09494176  0.30778530  1
  Sc  Sc90  1  0.69798752  0.89094934  0.90240583  1
  Sc  Sc91  1  0.89940771  0.70908161  0.30303125  1
  Sc  Sc92  1  0.09928094  0.07964278  0.29999281  1
  Sc  Sc93  1  0.30463425  0.70493613  0.50723997  1
  Sc  Sc94  1  0.09262730  0.30314095  0.90402482  1
  Sc  Sc95  1  0.30205663  0.49900913  0.49468647  1
  Sc  Sc96  1  0.09711494  0.50524998  0.90212190  1
  Sc  Sc97  1  0.89297391  0.70619203  0.10680987  1
  Sc  Sc98  1  0.70139524  0.29469037  0.69874173  1
  Sc  Sc99  1  0.30118226  0.11311057  0.70304709  1
  Nb  Nb100  1  0.69902986  0.50464608  0.90476406  1
  Nb  Nb101  1  0.90092464  0.09876199  0.50115779  1
  Nb  Nb102  1  0.29949769  0.09761660  0.50131918  1
  Nb  Nb103  1  0.30138156  0.29531666  0.10531230  1
  Nb  Nb104  1  0.09975753  0.30133053  0.10479020  1
  Nb  Nb105  1  0.28856111  0.70054034  0.90712614  1
  Nb  Nb106  1  0.90915700  0.70099310  0.69916135  1
  Nb  Nb107  1  0.10173823  0.90034724  0.49686487  1
  Nb  Nb108  1  0.10278464  0.70576333  0.29347869  1
  Nb  Nb109  1  0.11397194  0.69943284  0.90753434  1
  Nb  Nb110  1  0.51206877  0.09749590  0.29796589  1
  Nb  Nb111  1  0.09960608  0.71185963  0.70200933  1
  Nb  Nb112  1  0.50900591  0.50625952  0.30181547  1
  Nb  Nb113  1  0.50158699  0.69591558  0.30046122  1
  Nb  Nb114  1  0.70137483  0.69041843  0.29914710  1
  Nb  Nb115  1  0.29748169  0.90182234  0.29698758  1
  Nb  Nb116  1  0.10601862  0.70589346  0.09933396  1
  Nb  Nb117  1  0.90164851  0.29984298  0.70029269  1
  Nb  Nb118  1  0.09798729  0.30006281  0.29966133  1
  Nb  Nb119  1  0.50093564  0.90593675  0.70328744  1
  Nb  Nb120  1  0.70331319  0.70218632  0.49895342  1
  Nb  Nb121  1  0.69468415  0.50736169  0.29283915  1
  Nb  Nb122  1  0.10351579  0.89750376  0.69103249  1
  Nb  Nb123  1  0.09884752  0.89580247  0.30598490  1
  Nb  Nb124  1  0.68581646  0.09334263  0.30282524  1
  Nb  Nb125  1  0.19543555  0.19535761  0.39779151  1
  Nb  Nb126  1  0.80188502  -0.00320456  0.79787885  1
  Nb  Nb127  1  0.60570246  0.78889842  0.39666512  1
  Nb  Nb128  1  0.19923464  0.80244293  0.39379669  1
  Nb  Nb129  1  0.19659132  0.20140301  0.20275766  1
  Nb  Nb130  1  -0.00086921  0.19909202  0.39542464  1
  Nb  Nb131  1  0.01010581  0.61235279  0.19781374  1
  Nb  Nb132  1  0.39572959  0.00217396  0.59925116  1
  Nb  Nb133  1  -0.00213219  0.40008752  0.60115717  1
  Nb  Nb134  1  0.19939323  0.39306610  0.19697798  1
  Nb  Nb135  1  0.79589021  0.40459205  -0.00258445  1
  Nb  Nb136  1  0.19674869  0.40393386  0.60596962  1
  Nb  Nb137  1  0.19383347  0.60151374  0.60470044  1
  Nb  Nb138  1  0.79247549  0.40494509  0.19589087  1
  Nb  Nb139  1  0.19844242  -0.00065281  0.78940238  1
  Nb  Nb140  1  0.19864188  0.39929441  0.79637033  1
  Nb  Nb141  1  0.59845537  0.00019684  0.00169297  1
  Nb  Nb142  1  0.59952328  0.79227419  0.20775296  1
  Nb  Nb143  1  -0.00117275  0.39614652  0.40342454  1
  Nb  Nb144  1  0.20232241  -0.00440284  0.60052150  1
  Nb  Nb145  1  0.40412712  -0.00143744  0.20356489  1
  Nb  Nb146  1  0.00291289  0.19886002  0.20308247  1
  Nb  Nb147  1  0.00795550  0.79358381  0.00304860  1
  Nb  Nb148  1  0.20040577  0.20499059  0.01094605  1
  Nb  Nb149  1  0.60438016  0.60302812  0.59568938  1
  Pd  Pd150  1  0.00765727  -0.01191677  -0.00024271  1
  Pd  Pd151  1  0.39881372  0.79516265  0.80706436  1
  Pd  Pd152  1  -0.00624082  0.80333721  0.59042805  1
  Pd  Pd153  1  0.00305061  0.41211860  0.20836236  1
  Pd  Pd154  1  0.40809157  0.40117157  0.40078504  1
  Pd  Pd155  1  0.40254170  0.40507421  0.20153505  1
  Pd  Pd156  1  0.00141573  0.20191912  0.00418195  1
  Pd  Pd157  1  0.40677146  -0.00023356  0.39955594  1
  Pd  Pd158  1  0.19052139  -0.00046618  -0.01135526  1
  Pd  Pd159  1  0.58912098  0.60618551  0.19064015  1
  Pd  Pd160  1  0.39826032  0.59778043  0.60131393  1
  Pd  Pd161  1  0.59597571  0.19604573  0.60292890  1
  Pd  Pd162  1  0.80179236  0.20261528  -0.00544377  1
  Pd  Pd163  1  0.79111268  0.60748377  0.79179318  1
  Pd  Pd164  1  0.60156844  0.20747551  0.19980820  1
  Pd  Pd165  1  0.41360340  0.19136459  0.60552761  1
  Pd  Pd166  1  0.19483535  0.19409111  0.59295940  1
  Pd  Pd167  1  0.19500863  0.58628114  0.18761685  1
  Pd  Pd168  1  0.81350128  -0.00962330  0.60875166  1
  Pd  Pd169  1  -0.00609907  0.61197070  0.00363683  1
  Pd  Pd170  1  0.79740064  0.80772787  0.79262989  1
  Pd  Pd171  1  0.19832592  0.80547555  0.80557393  1
  Pd  Pd172  1  0.39425565  0.60212899  0.39855207  1
  Pd  Pd173  1  0.21083268  0.61466981  0.40604172  1
  Pd  Pd174  1  0.20294674  0.58849857  0.00821592  1
  Pd  Pd175  1  0.59927857  0.39356622  0.20585145  1
  Pd  Pd176  1  0.81264119  0.80993792  0.60840752  1
  Pd  Pd177  1  0.40042957  0.79680637  0.39337647  1
  Pd  Pd178  1  0.79384286  0.39535031  0.80533002  1
  Pd  Pd179  1  0.00644045  0.61261179  0.80794903  1
  Pd  Pd180  1  0.59881496  0.39513766  0.39490735  1
  Pd  Pd181  1  0.19995347  0.20197487  0.81432949  1
  Pd  Pd182  1  0.79891165  0.20200257  0.20089319  1
  Pd  Pd183  1  0.20581263  0.39677720  -0.00277890  1
  Pd  Pd184  1  0.40677205  0.59234637  0.19514770  1
  Pd  Pd185  1  0.60501156  0.39594112  -0.00948074  1
  Pd  Pd186  1  0.59377954  -0.01711558  0.19116864  1
  Pd  Pd187  1  0.80525666  0.60240402  -0.00222092  1
  Pd  Pd188  1  0.39745718  0.61084226  0.80931512  1
  Pd  Pd189  1  -0.01143646  0.40025440  -0.00928048  1
  Pd  Pd190  1  0.61142264  0.60655751  0.79221755  1
  Pd  Pd191  1  0.79152625  0.60053763  0.61142177  1
  Pd  Pd192  1  0.79522173  0.19351770  0.40232834  1
  Pd  Pd193  1  0.39504378  0.40762123  0.59891489  1
  Pd  Pd194  1  0.80104175  0.40735176  0.39032131  1
  Pd  Pd195  1  0.00253113  0.60192741  0.60347871  1
  Pd  Pd196  1  0.19582198  0.39309289  0.40374005  1
  Pd  Pd197  1  0.40560046  0.80609172  0.60217920  1
  Pd  Pd198  1  0.39738118  0.79937351  -0.00823655  1
  Pd  Pd199  1  0.79919376  0.40094824  0.60423037  1
  Rh  Rh200  1  -0.00002397  -0.00867655  0.59416895  1
  Rh  Rh201  1  0.39612913  0.20081757  -0.00052257  1
  Rh  Rh202  1  0.59670186  0.60504610  0.00180948  1
  Rh  Rh203  1  0.60048007  0.80314493  0.79610037  1
  Rh  Rh204  1  0.20023877  0.80690931  0.20372050  1
  Rh  Rh205  1  0.80073838  0.60119818  0.39329576  1
  Rh  Rh206  1  0.79425617  0.79921471  0.39598720  1
  Rh  Rh207  1  0.19647934  -0.00139259  0.40409187  1
  Rh  Rh208  1  0.79179790  0.79909565  0.20661884  1
  Rh  Rh209  1  0.00444380  0.39622961  0.79856402  1
  Rh  Rh210  1  0.79918872  0.19877202  0.60204036  1
  Rh  Rh211  1  0.20912161  0.00080545  0.20727674  1
  Rh  Rh212  1  -0.00048024  0.00725622  0.80200890  1
  Rh  Rh213  1  0.60585377  0.20201347  0.40114265  1
  Rh  Rh214  1  0.00389910  0.79847991  0.19536935  1
  Rh  Rh215  1  0.60467213  0.39955492  0.80538867  1
  Rh  Rh216  1  0.60265774  -0.00824691  0.40699592  1
  Rh  Rh217  1  0.80874132  0.59890552  0.20479216  1
  Rh  Rh218  1  0.40682083  0.20287728  0.79790736  1
  Rh  Rh219  1  0.19290166  0.81391535  -0.00352866  1
  Rh  Rh220  1  0.39820173  0.19502173  0.39781035  1
  Rh  Rh221  1  0.60425444  0.60301251  0.40315259  1
  Rh  Rh222  1  0.59615096  0.19268981  -0.00142623  1
  Rh  Rh223  1  0.39935774  0.60423208  -0.00471482  1
  Rh  Rh224  1  0.19632285  0.79642784  0.58999819  1
  Rh  Rh225  1  0.00289126  0.80011493  0.39973611  1
  Rh  Rh226  1  0.79615987  -0.00252052  0.20179135  1
  Rh  Rh227  1  0.79725864  0.00048399  0.40259388  1
  Rh  Rh228  1  0.61118625  -0.00308055  0.80971802  1
  Rh  Rh229  1  0.41130669  -0.00073229  0.01042698  1
  Rh  Rh230  1  0.39670840  0.40252180  0.80530021  1
  Rh  Rh231  1  0.80338936  0.19043183  0.79215022  1
  Rh  Rh232  1  -0.00431078  0.60356465  0.38802093  1
  Rh  Rh233  1  0.58734354  0.00486885  0.59542980  1
  Rh  Rh234  1  0.40563474  0.80884900  0.20764719  1
  Rh  Rh235  1  -0.00562244  0.19704073  0.80315599  1
  Rh  Rh236  1  0.38652274  0.00011405  0.78453699  1
  Rh  Rh237  1  0.59314709  0.79499726  0.59608005  1
  Rh  Rh238  1  0.78767591  0.00282664  -0.01008862  1
  Rh  Rh239  1  0.00730526  0.78949481  0.81072357  1
  Rh  Rh240  1  0.60514402  0.40813115  0.59819655  1
  Rh  Rh241  1  -0.00638651  0.20619803  0.59093177  1
  Rh  Rh242  1  0.60187612  0.80095505  0.00995918  1
  Rh  Rh243  1  0.19818821  0.60098760  0.79714126  1
  Rh  Rh244  1  0.80835679  0.79280340  -0.00205679  1
  Rh  Rh245  1  -0.00597730  0.00151297  0.40028505  1
  Rh  Rh246  1  0.39736490  0.18792708  0.20762025  1
  Rh  Rh247  1  -0.00546148  -0.00066809  0.20466166  1
  Rh  Rh248  1  0.59751377  0.20055191  0.79586489  1
  Rh  Rh249  1  0.39982473  0.39816615  -0.00274124  1
