# generated using pymatgen
data_ZrScNbPdRh
_symmetry_space_group_name_H-M   'P 1'
_cell_length_a   16.56223867
_cell_length_b   16.56380423
_cell_length_c   16.56024267
_cell_angle_alpha   89.98768299
_cell_angle_beta   90.01405612
_cell_angle_gamma   90.02839019
_symmetry_Int_Tables_number   1
_chemical_formula_structural   ZrScNbPdRh
_chemical_formula_sum   'Zr50 Sc50 Nb50 Pd50 Rh50'
_cell_volume   4543.03149513
_cell_formula_units_Z   50
loop_
 _symmetry_equiv_pos_site_id
 _symmetry_equiv_pos_as_xyz
  1  'x, y, z'
loop_
 _atom_site_type_symbol
 _atom_site_label
 _atom_site_symmetry_multiplicity
 _atom_site_fract_x
 _atom_site_fract_y
 _atom_site_fract_z
 _atom_site_occupancy
  Zr  Zr0  1  0.70689319  0.89346725  0.69444945  1
  Zr  Zr1  1  0.69726631  0.30354357  0.89403838  1
  Zr  Zr2  1  0.30429294  0.29637550  0.30195510  1
  Zr  Zr3  1  0.29750955  0.09718031  0.49840867  1
  Zr  Zr4  1  0.30313815  0.88897004  0.89053403  1
  Zr  Zr5  1  0.10096614  0.30612221  0.69905589  1
  Zr  Zr6  1  0.29159188  0.69351807  0.50097239  1
  Zr  Zr7  1  0.49873175  0.50778112  0.09686423  1
  Zr  Zr8  1  0.48983814  0.50094379  0.51067293  1
  Zr  Zr9  1  0.10253571  0.30895673  0.50401704  1
  Zr  Zr10  1  0.10637105  0.30450002  0.90102511  1
  Zr  Zr11  1  0.50260219  0.09453212  0.10323260  1
  Zr  Zr12  1  0.70395136  0.90164195  0.10209684  1
  Zr  Zr13  1  0.09768707  0.70684665  0.30254017  1
  Zr  Zr14  1  0.90891083  0.70378953  0.49872498  1
  Zr  Zr15  1  0.71140401  0.10066738  0.49983812  1
  Zr  Zr16  1  0.49534480  0.69475764  0.49495668  1
  Zr  Zr17  1  0.49636599  0.30341971  0.50855062  1
  Zr  Zr18  1  0.90390546  0.49265758  0.49124106  1
  Zr  Zr19  1  0.89657550  0.89562898  0.91313412  1
  Zr  Zr20  1  0.50146140  0.89752894  0.90152637  1
  Zr  Zr21  1  0.70811051  0.89769197  0.49515466  1
  Zr  Zr22  1  0.30231688  0.49648864  0.09909906  1
  Zr  Zr23  1  0.70285689  0.10233575  0.29950579  1
  Zr  Zr24  1  0.70063770  0.69858920  0.29977204  1
  Zr  Zr25  1  0.90503814  0.10277572  0.30809484  1
  Zr  Zr26  1  0.50945364  0.68586186  0.69258521  1
  Zr  Zr27  1  0.09294101  0.09776482  0.49803140  1
  Zr  Zr28  1  0.90297986  0.50840117  0.69422122  1
  Zr  Zr29  1  0.70671052  0.29713873  0.50355466  1
  Zr  Zr30  1  0.10158738  0.29461062  0.09760648  1
  Zr  Zr31  1  0.29541563  0.90294232  0.11571282  1
  Zr  Zr32  1  0.70048697  0.89867334  0.30265307  1
  Zr  Zr33  1  0.09452212  0.89566386  0.50128871  1
  Zr  Zr34  1  0.71217309  0.49876315  0.91112918  1
  Zr  Zr35  1  0.70845853  0.70090004  0.90276117  1
  Zr  Zr36  1  0.09915411  0.70223701  0.68610520  1
  Zr  Zr37  1  0.49898973  0.49240337  0.69957353  1
  Zr  Zr38  1  0.70290614  0.49656729  0.49795430  1
  Zr  Zr39  1  0.50860560  0.89996100  0.09824288  1
  Zr  Zr40  1  0.09311165  0.69954387  0.89948276  1
  Zr  Zr41  1  0.90531413  0.70659490  0.09446442  1
  Zr  Zr42  1  0.70562117  0.69933480  0.69363711  1
  Zr  Zr43  1  0.89344323  0.49760421  0.09154468  1
  Zr  Zr44  1  0.90177415  0.69828502  0.70045997  1
  Zr  Zr45  1  0.30545669  0.90354063  0.48632521  1
  Zr  Zr46  1  0.69178458  0.69678599  0.09825277  1
  Zr  Zr47  1  0.90058388  0.10302540  0.49774612  1
  Zr  Zr48  1  0.49470618  0.69591451  0.90729752  1
  Zr  Zr49  1  0.09595330  0.49429014  0.30561484  1
  Sc  Sc50  1  0.30241013  0.49198251  0.70390699  1
  Sc  Sc51  1  0.29164977  0.29968565  0.70779551  1
  Sc  Sc52  1  0.29333709  0.10250326  0.11173694  1
  Sc  Sc53  1  0.50041720  0.09847840  0.70633522  1
  Sc  Sc54  1  0.30301601  0.71556062  0.30107443  1
  Sc  Sc55  1  0.30753607  0.49223739  0.90160744  1
  Sc  Sc56  1  0.50524968  0.09413680  0.89551758  1
  Sc  Sc57  1  0.90776442  0.69981621  0.30029054  1
  Sc  Sc58  1  0.70582859  0.30194537  0.11297284  1
  Sc  Sc59  1  0.89861868  0.10360117  0.90418535  1
  Sc  Sc60  1  0.09756609  0.89789134  0.10274857  1
  Sc  Sc61  1  0.69616445  0.70122451  0.49704334  1
  Sc  Sc62  1  0.49564850  0.50235506  0.29431007  1
  Sc  Sc63  1  0.09473555  0.11060042  0.90656036  1
  Sc  Sc64  1  0.09880649  0.49005731  0.10403246  1
  Sc  Sc65  1  0.70032755  0.10280412  0.89741109  1
  Sc  Sc66  1  0.31207427  0.69906703  0.10376276  1
  Sc  Sc67  1  0.69213305  0.49998566  0.70115447  1
  Sc  Sc68  1  0.90062390  0.29881517  0.10840818  1
  Sc  Sc69  1  0.50435845  0.89984591  0.49172867  1
  Sc  Sc70  1  0.49662216  0.49679304  0.89424550  1
  Sc  Sc71  1  0.29803626  0.30658231  0.90142754  1
  Sc  Sc72  1  0.09906374  0.09941216  0.29836815  1
  Sc  Sc73  1  0.29141412  0.70689148  0.70056655  1
  Sc  Sc74  1  0.29616579  0.49373091  0.30408916  1
  Sc  Sc75  1  0.50233439  0.69367787  0.10203993  1
  Sc  Sc76  1  0.29170768  0.30468022  0.09708922  1
  Sc  Sc77  1  0.89911304  0.89288533  0.30368153  1
  Sc  Sc78  1  0.30042709  0.89472436  0.69781940  1
  Sc  Sc79  1  0.49653849  0.09540579  0.49997815  1
  Sc  Sc80  1  0.90108676  0.89815662  0.68305718  1
  Sc  Sc81  1  0.29901330  0.11043765  0.89484378  1
  Sc  Sc82  1  0.09483643  0.70536429  0.10653341  1
  Sc  Sc83  1  0.90397569  0.10426516  0.68936121  1
  Sc  Sc84  1  0.09469022  0.11436912  0.69310424  1
  Sc  Sc85  1  0.90184520  0.90734350  0.49492906  1
  Sc  Sc86  1  0.49784495  0.69460389  0.29702528  1
  Sc  Sc87  1  0.50617684  0.30461490  0.70651883  1
  Sc  Sc88  1  0.90227477  0.30227925  0.30335179  1
  Sc  Sc89  1  0.69756959  0.89957184  0.90917653  1
  Sc  Sc90  1  0.89408440  0.10256318  0.09761623  1
  Sc  Sc91  1  0.29721526  0.30929785  0.50391251  1
  Sc  Sc92  1  0.49638370  0.90214018  0.70367427  1
  Sc  Sc93  1  0.70015798  0.29685290  0.69907242  1
  Sc  Sc94  1  0.09522427  0.30367477  0.29127778  1
  Sc  Sc95  1  0.49295369  0.10350447  0.29552549  1
  Sc  Sc96  1  0.09755482  0.50316507  0.90161601  1
  Sc  Sc97  1  0.49890449  0.30341934  0.11651206  1
  Sc  Sc98  1  0.70197547  0.49913505  0.30018217  1
  Sc  Sc99  1  0.88519094  0.30072616  0.89449344  1
  Nb  Nb100  1  0.29522019  0.08618157  0.30395072  1
  Nb  Nb101  1  0.90392892  0.50974413  0.89981224  1
  Nb  Nb102  1  0.50035322  0.30149222  0.90734169  1
  Nb  Nb103  1  0.90659339  0.49869882  0.29495925  1
  Nb  Nb104  1  0.90353223  0.69178211  0.90035406  1
  Nb  Nb105  1  0.29736614  0.69857343  0.90203386  1
  Nb  Nb106  1  0.68985150  0.29705625  0.30138546  1
  Nb  Nb107  1  0.29092860  0.49580016  0.50265512  1
  Nb  Nb108  1  0.69995654  0.50292246  0.09834909  1
  Nb  Nb109  1  0.09629166  0.10401748  0.09730215  1
  Nb  Nb110  1  0.90000216  0.90297619  0.10344671  1
  Nb  Nb111  1  0.10311277  0.90210198  0.89599837  1
  Nb  Nb112  1  0.50278012  0.29853315  0.30596485  1
  Nb  Nb113  1  0.69090985  0.09939584  0.10445683  1
  Nb  Nb114  1  0.29678021  0.10028574  0.69528052  1
  Nb  Nb115  1  0.89819373  0.30056846  0.50423541  1
  Nb  Nb116  1  0.11579811  0.50632221  0.50173455  1
  Nb  Nb117  1  0.10764856  0.90185822  0.29540031  1
  Nb  Nb118  1  0.10435888  0.69588202  0.50347745  1
  Nb  Nb119  1  0.29372608  0.91266412  0.29884153  1
  Nb  Nb120  1  0.70314002  0.09661786  0.69591256  1
  Nb  Nb121  1  0.10080872  0.50598673  0.70151352  1
  Nb  Nb122  1  0.90686750  0.30431522  0.69126006  1
  Nb  Nb123  1  0.48605715  0.90008518  0.30233706  1
  Nb  Nb124  1  0.10293250  0.89591975  0.70009427  1
  Nb  Nb125  1  0.39385728  0.19714810  0.60511765  1
  Nb  Nb126  1  0.20199938  0.60546970  0.00099377  1
  Nb  Nb127  1  0.39315907  0.00059309  0.00136337  1
  Nb  Nb128  1  0.60205731  0.39773731  0.00489450  1
  Nb  Nb129  1  0.20044764  -0.00305134  -0.00472794  1
  Nb  Nb130  1  0.60236881  0.79326673  0.80005922  1
  Nb  Nb131  1  -0.00182210  -0.00168546  0.19538283  1
  Nb  Nb132  1  0.80570903  -0.00177848  0.79559227  1
  Nb  Nb133  1  0.59890755  0.20535149  0.40006887  1
  Nb  Nb134  1  0.40122447  0.79581268  0.59265544  1
  Nb  Nb135  1  -0.00494293  0.40506072  0.79850259  1
  Nb  Nb136  1  0.00190490  -0.00617148  0.79955986  1
  Nb  Nb137  1  0.60915341  0.00097041  0.60062542  1
  Nb  Nb138  1  0.40691836  0.19901959  0.00226785  1
  Nb  Nb139  1  -0.00755831  0.40034012  -0.00816300  1
  Nb  Nb140  1  -0.00125439  0.80440279  0.80109313  1
  Nb  Nb141  1  0.59618492  0.39398188  0.40021668  1
  Nb  Nb142  1  0.80377068  0.59596109  0.19678624  1
  Nb  Nb143  1  0.59822701  0.20390725  0.00630093  1
  Nb  Nb144  1  0.19831843  -0.00086858  0.60381164  1
  Nb  Nb145  1  0.20287394  0.80000776  -0.00271892  1
  Nb  Nb146  1  0.20274743  0.19897993  0.39940518  1
  Nb  Nb147  1  0.19940836  0.60091929  0.19974910  1
  Nb  Nb148  1  0.19335505  0.00095782  0.79678573  1
  Nb  Nb149  1  0.19847697  0.60253289  0.80364133  1
  Pd  Pd150  1  0.78959894  0.20264542  0.00638702  1
  Pd  Pd151  1  0.80360995  0.79191072  0.19812905  1
  Pd  Pd152  1  0.80663155  0.60353794  0.39336612  1
  Pd  Pd153  1  0.20349669  0.60208253  0.38771275  1
  Pd  Pd154  1  0.00163978  0.59380783  0.19395445  1
  Pd  Pd155  1  0.40309644  0.40616297  0.40127027  1
  Pd  Pd156  1  0.80533536  0.40824265  0.79050731  1
  Pd  Pd157  1  0.80498261  0.80624989  0.80259789  1
  Pd  Pd158  1  0.00793235  0.21255455  0.40275575  1
  Pd  Pd159  1  0.39688461  0.39954563  0.20117089  1
  Pd  Pd160  1  0.40352187  0.20472089  0.80048638  1
  Pd  Pd161  1  0.80771093  0.00311995  0.20508884  1
  Pd  Pd162  1  0.79950800  0.60099504  0.59029058  1
  Pd  Pd163  1  0.40229012  -0.00254937  0.60221408  1
  Pd  Pd164  1  0.59370485  0.79812566  0.39172494  1
  Pd  Pd165  1  0.79612272  0.40059043  0.60893080  1
  Pd  Pd166  1  0.41130694  0.78558976  0.78695825  1
  Pd  Pd167  1  0.59193096  0.19143858  0.59845532  1
  Pd  Pd168  1  0.59622546  -0.00431134  0.21285206  1
  Pd  Pd169  1  0.00516087  0.40988557  0.59959045  1
  Pd  Pd170  1  0.80301796  0.19905526  0.20390721  1
  Pd  Pd171  1  0.59357655  0.80040937  0.20604913  1
  Pd  Pd172  1  0.39604916  0.80582895  0.00999413  1
  Pd  Pd173  1  0.00511147  0.59749142  0.40471539  1
  Pd  Pd174  1  0.80569176  0.19249256  0.78954153  1
  Pd  Pd175  1  0.39027768  0.60303373  0.79488265  1
  Pd  Pd176  1  0.60678729  0.59966372  0.80915303  1
  Pd  Pd177  1  0.00649834  0.80457243  -0.00170667  1
  Pd  Pd178  1  0.61228613  -0.00944933  0.79402594  1
  Pd  Pd179  1  0.80149256  0.40387904  0.20819173  1
  Pd  Pd180  1  0.19779964  0.80322288  0.40115555  1
  Pd  Pd181  1  0.79395374  0.00665683  -0.00303936  1
  Pd  Pd182  1  0.59943265  0.40776535  0.20118651  1
  Pd  Pd183  1  0.19900145  0.19875539  0.20858864  1
  Pd  Pd184  1  0.79605295  0.59431721  0.79777857  1
  Pd  Pd185  1  0.38997770  0.59506402  0.39382527  1
  Pd  Pd186  1  0.39541661  0.20005777  0.19659584  1
  Pd  Pd187  1  0.59847995  0.19868878  0.80248166  1
  Pd  Pd188  1  0.38633700  0.60272550  0.60895250  1
  Pd  Pd189  1  0.00536813  0.00105913  0.00177737  1
  Pd  Pd190  1  0.59625163  0.58992743  0.40078955  1
  Pd  Pd191  1  -0.00631144  0.20447871  0.80304558  1
  Pd  Pd192  1  0.40588732  0.80155567  0.19965819  1
  Pd  Pd193  1  0.59610314  0.00741844  0.39954581  1
  Pd  Pd194  1  0.39826425  0.19603214  0.40626941  1
  Pd  Pd195  1  -0.00990857  0.21181160  -0.00294413  1
  Pd  Pd196  1  0.19431041  0.19524928  0.80110412  1
  Pd  Pd197  1  0.39013358  0.00502295  0.80451874  1
  Pd  Pd198  1  0.59113050  0.80754465  0.60234283  1
  Pd  Pd199  1  0.79769350  0.39436575  0.39038813  1
  Rh  Rh200  1  -0.00274509  0.20627644  0.59219508  1
  Rh  Rh201  1  0.40276403  0.79901408  0.40256676  1
  Rh  Rh202  1  0.20176293  0.40643922  0.60736666  1
  Rh  Rh203  1  0.41002524  0.39254544  0.00614421  1
  Rh  Rh204  1  0.80443475  0.61010602  0.00635828  1
  Rh  Rh205  1  0.80306407  0.79462595  0.40234544  1
  Rh  Rh206  1  0.18533384  0.00665047  0.19301358  1
  Rh  Rh207  1  0.20001616  0.79258999  0.19688753  1
  Rh  Rh208  1  0.00565833  0.60303276  0.79551795  1
  Rh  Rh209  1  0.20998101  0.81158624  0.58697567  1
  Rh  Rh210  1  0.80768589  0.20404577  0.60541868  1
  Rh  Rh211  1  0.60170690  0.00852674  -0.00093163  1
  Rh  Rh212  1  0.60015696  0.79499502  -0.00484216  1
  Rh  Rh213  1  0.20077003  0.40254231  0.20303290  1
  Rh  Rh214  1  0.39579091  0.59575318  -0.00241376  1
  Rh  Rh215  1  0.21140780  0.19191972  0.00272785  1
  Rh  Rh216  1  0.60038674  0.40296444  0.80859670  1
  Rh  Rh217  1  0.79919634  0.00176257  0.60227662  1
  Rh  Rh218  1  -0.00234502  0.19089356  0.19751928  1
  Rh  Rh219  1  -0.00242252  0.80044954  0.59862232  1
  Rh  Rh220  1  0.80470172  -0.00232750  0.39358257  1
  Rh  Rh221  1  0.40288658  -0.00105225  0.20010121  1
  Rh  Rh222  1  0.19200464  0.40901680  -0.00316076  1
  Rh  Rh223  1  0.38844565  0.59941231  0.20639352  1
  Rh  Rh224  1  0.80649971  0.79408837  0.58749782  1
  Rh  Rh225  1  0.59923315  0.19738458  0.20201391  1
  Rh  Rh226  1  0.79942676  0.79671466  0.00710981  1
  Rh  Rh227  1  0.79863500  0.38989298  0.00319256  1
  Rh  Rh228  1  0.00817723  0.00116461  0.60746710  1
  Rh  Rh229  1  0.19702579  0.39150916  0.39633804  1
  Rh  Rh230  1  0.40644952  0.00539857  0.39261144  1
  Rh  Rh231  1  0.20546416  0.59148203  0.61090361  1
  Rh  Rh232  1  0.20532451  0.19615021  0.59093565  1
  Rh  Rh233  1  0.59744915  0.59193147  -0.00701086  1
  Rh  Rh234  1  0.18999375  0.00338222  0.40469976  1
  Rh  Rh235  1  0.79811874  0.20908563  0.39647052  1
  Rh  Rh236  1  0.60844065  0.59583033  0.20366324  1
  Rh  Rh237  1  0.60655976  0.59256124  0.59076184  1
  Rh  Rh238  1  0.39154031  0.38995178  0.60855643  1
  Rh  Rh239  1  0.40171185  0.39138848  0.79983068  1
  Rh  Rh240  1  -0.00144672  0.81296981  0.20490156  1
  Rh  Rh241  1  -0.00418637  0.39968011  0.19295932  1
  Rh  Rh242  1  0.00263713  0.39798954  0.40345348  1
  Rh  Rh243  1  0.60526300  0.40204330  0.59595512  1
  Rh  Rh244  1  0.00537544  0.59234943  0.00806408  1
  Rh  Rh245  1  0.00331033  -0.00914061  0.38622463  1
  Rh  Rh246  1  0.00285341  0.59376096  0.58657114  1
  Rh  Rh247  1  0.19063378  0.79490672  0.80478796  1
  Rh  Rh248  1  0.19229150  0.41059159  0.80174533  1
  Rh  Rh249  1  0.00598116  0.80309446  0.40004381  1
