# generated using pymatgen
data_ZrScNbPdRh
_symmetry_space_group_name_H-M   'P 1'
_cell_length_a   16.56344587
_cell_length_b   16.55866009
_cell_length_c   16.56020507
_cell_angle_alpha   89.98776671
_cell_angle_beta   89.97854939
_cell_angle_gamma   90.00972962
_symmetry_Int_Tables_number   1
_chemical_formula_structural   ZrScNbPdRh
_chemical_formula_sum   'Zr50 Sc50 Nb50 Pd50 Rh50'
_cell_volume   4541.94162133
_cell_formula_units_Z   50
loop_
 _symmetry_equiv_pos_site_id
 _symmetry_equiv_pos_as_xyz
  1  'x, y, z'
loop_
 _atom_site_type_symbol
 _atom_site_label
 _atom_site_symmetry_multiplicity
 _atom_site_fract_x
 _atom_site_fract_y
 _atom_site_fract_z
 _atom_site_occupancy
  Zr  Zr0  1  0.70241297  0.90001786  0.50290513  1
  Zr  Zr1  1  0.30136923  0.09938364  0.09367831  1
  Zr  Zr2  1  0.89894575  0.30627163  0.50591918  1
  Zr  Zr3  1  0.69206010  0.50704483  0.70315730  1
  Zr  Zr4  1  0.90870256  0.90185301  0.29713051  1
  Zr  Zr5  1  0.90046849  0.69914863  0.70330989  1
  Zr  Zr6  1  0.49642025  0.09112169  0.90492037  1
  Zr  Zr7  1  0.09661970  0.89635960  0.90062375  1
  Zr  Zr8  1  0.49079398  0.09707649  0.29913234  1
  Zr  Zr9  1  0.69892480  0.31022347  0.30318460  1
  Zr  Zr10  1  0.10290149  0.10036446  0.91257868  1
  Zr  Zr11  1  0.28573725  0.29782206  0.50070273  1
  Zr  Zr12  1  0.69932999  0.50271951  0.89888447  1
  Zr  Zr13  1  0.69868976  0.09028982  0.89430394  1
  Zr  Zr14  1  0.71264064  0.30060815  0.49886623  1
  Zr  Zr15  1  0.90634613  0.50785738  0.29178872  1
  Zr  Zr16  1  0.29113510  0.88908445  0.69634548  1
  Zr  Zr17  1  0.71100163  0.10379509  0.30173226  1
  Zr  Zr18  1  0.90151631  0.29585883  0.09379304  1
  Zr  Zr19  1  0.30030889  0.50603349  0.50345027  1
  Zr  Zr20  1  0.69999615  0.50677585  0.30416353  1
  Zr  Zr21  1  0.90420962  0.89042919  0.09781137  1
  Zr  Zr22  1  0.29655774  0.29352533  0.89638558  1
  Zr  Zr23  1  0.49438466  0.29883506  0.89198418  1
  Zr  Zr24  1  0.50700591  0.49880211  0.29803719  1
  Zr  Zr25  1  0.29574618  0.10192497  0.50424023  1
  Zr  Zr26  1  0.90804454  0.49561945  0.69459433  1
  Zr  Zr27  1  0.69671610  0.49834531  0.49746075  1
  Zr  Zr28  1  0.29938931  0.51078414  0.89936911  1
  Zr  Zr29  1  0.49465821  0.89595189  0.50129002  1
  Zr  Zr30  1  0.70928359  0.70352711  0.10380072  1
  Zr  Zr31  1  0.10788226  0.49985960  0.90141831  1
  Zr  Zr32  1  0.48910281  0.70219586  0.89697138  1
  Zr  Zr33  1  0.69690922  0.69592111  0.50042100  1
  Zr  Zr34  1  0.49841189  0.09836493  0.70380430  1
  Zr  Zr35  1  0.10589378  0.10831144  0.49847037  1
  Zr  Zr36  1  0.50208681  0.70071887  0.09740915  1
  Zr  Zr37  1  0.90267888  0.29872597  0.70048264  1
  Zr  Zr38  1  0.49642228  0.50745708  0.50093719  1
  Zr  Zr39  1  0.29962986  0.49992722  0.70636139  1
  Zr  Zr40  1  0.49354744  0.09572826  0.50103412  1
  Zr  Zr41  1  0.09975807  0.89610813  0.70151529  1
  Zr  Zr42  1  0.89788439  0.29603957  0.30821504  1
  Zr  Zr43  1  0.49745261  0.29737517  0.10413516  1
  Zr  Zr44  1  0.50039231  0.90210728  0.09813495  1
  Zr  Zr45  1  0.69392313  0.70404364  0.69907959  1
  Zr  Zr46  1  0.71021373  0.29771200  0.69951099  1
  Zr  Zr47  1  0.90167573  0.69592633  0.90763003  1
  Zr  Zr48  1  0.69793536  0.89689282  0.09569219  1
  Zr  Zr49  1  0.90706575  0.10039298  0.09933971  1
  Sc  Sc50  1  0.69472721  0.50408218  0.11382174  1
  Sc  Sc51  1  0.71312203  0.89170646  0.29304334  1
  Sc  Sc52  1  0.49831775  0.50849811  0.10770630  1
  Sc  Sc53  1  0.48782156  0.09532784  0.09695238  1
  Sc  Sc54  1  0.89850733  0.70119171  0.50062882  1
  Sc  Sc55  1  0.48769253  0.69628599  0.29414951  1
  Sc  Sc56  1  0.49173863  0.69716593  0.50919551  1
  Sc  Sc57  1  0.29723797  0.70374692  0.70189632  1
  Sc  Sc58  1  0.29925492  0.09894339  0.29217212  1
  Sc  Sc59  1  0.71073586  0.29937147  0.09935316  1
  Sc  Sc60  1  0.10046346  0.50544628  0.70516675  1
  Sc  Sc61  1  0.49542154  0.50377163  0.88587691  1
  Sc  Sc62  1  0.09816751  0.50305446  0.09543680  1
  Sc  Sc63  1  0.49161811  0.50731610  0.70059266  1
  Sc  Sc64  1  0.71198666  0.10254599  0.09965680  1
  Sc  Sc65  1  0.10683786  0.89595297  0.29652506  1
  Sc  Sc66  1  0.90908384  0.89505903  0.89472615  1
  Sc  Sc67  1  0.29405141  0.11104713  0.69976682  1
  Sc  Sc68  1  0.90724472  0.10790950  0.90110500  1
  Sc  Sc69  1  0.90413440  0.10099048  0.29724301  1
  Sc  Sc70  1  0.10231120  0.09996466  0.10312224  1
  Sc  Sc71  1  0.50102350  0.89714335  0.90225703  1
  Sc  Sc72  1  0.29642686  0.28746658  0.10171898  1
  Sc  Sc73  1  0.90802850  0.50964449  0.09699820  1
  Sc  Sc74  1  0.69899053  0.90518286  0.70197434  1
  Sc  Sc75  1  0.90083084  0.90007165  0.49481347  1
  Sc  Sc76  1  0.29767907  0.90195711  0.10713370  1
  Sc  Sc77  1  0.30583212  0.69659892  0.10263448  1
  Sc  Sc78  1  0.29491182  0.51960741  0.30053826  1
  Sc  Sc79  1  0.09619897  0.90374886  0.10192271  1
  Sc  Sc80  1  0.10347261  0.30719694  0.70377072  1
  Sc  Sc81  1  0.09738016  0.09771901  0.30022353  1
  Sc  Sc82  1  0.29518177  0.50994119  0.09306517  1
  Sc  Sc83  1  0.09870834  0.09445122  0.69437184  1
  Sc  Sc84  1  0.69036887  0.90028715  0.89432726  1
  Sc  Sc85  1  0.48215742  0.29234224  0.50535350  1
  Sc  Sc86  1  0.10556791  0.91162257  0.50604733  1
  Sc  Sc87  1  0.10530918  0.50015633  0.28623120  1
  Sc  Sc88  1  0.29624630  0.89098102  0.49801700  1
  Sc  Sc89  1  0.70414226  0.69986378  0.88967367  1
  Sc  Sc90  1  0.49894546  0.29964173  0.30096899  1
  Sc  Sc91  1  0.10787495  0.29783564  0.29466583  1
  Sc  Sc92  1  0.09840269  0.69436203  0.89383168  1
  Sc  Sc93  1  0.10301047  0.50178771  0.51367122  1
  Sc  Sc94  1  0.89390506  0.09865540  0.70233106  1
  Sc  Sc95  1  0.89864023  0.50043219  0.50549574  1
  Sc  Sc96  1  0.09744792  0.30088559  0.90236395  1
  Sc  Sc97  1  0.90107874  0.70557892  0.29463657  1
  Sc  Sc98  1  0.89831563  0.10151614  0.49101243  1
  Sc  Sc99  1  0.30588302  0.29948630  0.70144907  1
  Nb  Nb100  1  0.09829536  0.70170602  0.69556487  1
  Nb  Nb101  1  0.70298029  0.30058158  0.90484679  1
  Nb  Nb102  1  0.90371526  0.49596808  0.90331256  1
  Nb  Nb103  1  0.11036094  0.69696674  0.30298452  1
  Nb  Nb104  1  0.70146531  0.69661786  0.29781963  1
  Nb  Nb105  1  0.09763077  0.30088484  0.49421171  1
  Nb  Nb106  1  0.09612060  0.70290314  0.09914599  1
  Nb  Nb107  1  0.49715139  0.70585420  0.69929351  1
  Nb  Nb108  1  0.29698977  0.70066632  0.90260046  1
  Nb  Nb109  1  0.30581322  0.88770699  0.29783359  1
  Nb  Nb110  1  0.30197234  0.09677107  0.90182488  1
  Nb  Nb111  1  0.29370953  0.69353240  0.48888925  1
  Nb  Nb112  1  0.91186629  0.89745162  0.70014032  1
  Nb  Nb113  1  0.10276791  0.69657343  0.50160425  1
  Nb  Nb114  1  0.49662520  0.90165231  0.30116677  1
  Nb  Nb115  1  0.69816249  0.09963526  0.69772240  1
  Nb  Nb116  1  0.29816641  0.89182745  0.89535555  1
  Nb  Nb117  1  0.90773381  0.69838291  0.09782244  1
  Nb  Nb118  1  0.10352750  0.29600891  0.09906948  1
  Nb  Nb119  1  0.29892007  0.30771557  0.29675541  1
  Nb  Nb120  1  0.28763404  0.70891991  0.30561112  1
  Nb  Nb121  1  0.50093787  0.29881470  0.70184025  1
  Nb  Nb122  1  0.89365415  0.30358643  0.90572994  1
  Nb  Nb123  1  0.49250306  0.89063739  0.69961607  1
  Nb  Nb124  1  0.69830888  0.09649616  0.50683341  1
  Nb  Nb125  1  0.60014189  0.59904394  -0.00342429  1
  Nb  Nb126  1  0.60194418  -0.00346435  0.39621464  1
  Nb  Nb127  1  0.00063922  0.20500285  0.59548845  1
  Nb  Nb128  1  0.39036016  0.40274517  0.39534753  1
  Nb  Nb129  1  0.60466242  0.19967445  0.79876900  1
  Nb  Nb130  1  0.39116148  -0.00697375  0.79860762  1
  Nb  Nb131  1  0.60389825  0.19941750  0.60175260  1
  Nb  Nb132  1  0.59692276  0.40018890  -0.00186701  1
  Nb  Nb133  1  0.60230219  0.20275162  -0.00338187  1
  Nb  Nb134  1  0.60213483  0.19290600  0.40468048  1
  Nb  Nb135  1  0.00347854  0.79899832  0.60268328  1
  Nb  Nb136  1  0.59921221  0.00009825  0.20641288  1
  Nb  Nb137  1  0.00533803  0.40432634  0.39992652  1
  Nb  Nb138  1  0.20519884  -0.00181723  0.80651753  1
  Nb  Nb139  1  0.40153678  0.40009578  0.00167435  1
  Nb  Nb140  1  0.20097761  0.79621306  -0.00186526  1
  Nb  Nb141  1  0.80437015  -0.00386533  -0.00266082  1
  Nb  Nb142  1  0.39623732  -0.00607497  0.60677241  1
  Nb  Nb143  1  0.80520109  0.40050092  0.80875294  1
  Nb  Nb144  1  0.00906040  0.60163844  0.39818686  1
  Nb  Nb145  1  0.80669335  0.40253344  0.20293639  1
  Nb  Nb146  1  0.60101866  0.19500622  0.20162677  1
  Nb  Nb147  1  0.59587972  0.39231271  0.60347306  1
  Nb  Nb148  1  0.39302997  0.40258129  0.20180257  1
  Nb  Nb149  1  0.59888562  0.80194037  0.39490934  1
  Pd  Pd150  1  0.80753076  0.80613200  0.60513582  1
  Pd  Pd151  1  0.39332410  0.20585611  0.39379784  1
  Pd  Pd152  1  -0.00021342  0.59762585  0.80333418  1
  Pd  Pd153  1  0.00735475  0.79675715  0.20311355  1
  Pd  Pd154  1  0.20770272  -0.00470949  0.39162905  1
  Pd  Pd155  1  0.79884554  0.59830698  0.60110693  1
  Pd  Pd156  1  0.39114884  0.80518564  0.00637862  1
  Pd  Pd157  1  0.20173538  -0.00095952  0.20425762  1
  Pd  Pd158  1  0.60552562  0.39471674  0.79787612  1
  Pd  Pd159  1  0.00609441  0.19887278  0.79465871  1
  Pd  Pd160  1  -0.00087110  0.39875173  0.80562164  1
  Pd  Pd161  1  0.00527478  0.20260074  0.20227684  1
  Pd  Pd162  1  0.59048289  0.61445141  0.39682418  1
  Pd  Pd163  1  0.80921339  -0.00149370  0.60247029  1
  Pd  Pd164  1  0.20743339  0.40247620  0.18851997  1
  Pd  Pd165  1  0.79926532  0.20094770  0.80719658  1
  Pd  Pd166  1  0.79704805  0.79501533  0.39823992  1
  Pd  Pd167  1  0.19765043  0.39831482  0.60572396  1
  Pd  Pd168  1  0.20539634  0.60441097  0.60668801  1
  Pd  Pd169  1  0.59902575  0.80037875  0.59638318  1
  Pd  Pd170  1  0.38856276  -0.00478822  0.40366043  1
  Pd  Pd171  1  0.19920743  0.60715404  0.19061976  1
  Pd  Pd172  1  0.59811232  0.80087225  0.20891309  1
  Pd  Pd173  1  0.80132914  -0.00485955  0.19309281  1
  Pd  Pd174  1  0.58327200  0.38707701  0.41611692  1
  Pd  Pd175  1  0.40405348  0.78996893  0.40219571  1
  Pd  Pd176  1  0.00533408  0.00002862  0.40110913  1
  Pd  Pd177  1  0.00530433  0.00868914  0.80345563  1
  Pd  Pd178  1  0.20775605  0.39431197  0.00539727  1
  Pd  Pd179  1  0.79505978  0.59478353  0.00680074  1
  Pd  Pd180  1  0.39781170  0.79731985  0.19638156  1
  Pd  Pd181  1  0.59367710  -0.00200670  0.60144385  1
  Pd  Pd182  1  0.20257422  0.19803170  0.38765732  1
  Pd  Pd183  1  -0.00676477  0.00384396  0.59367128  1
  Pd  Pd184  1  0.80795481  -0.00702461  0.80382917  1
  Pd  Pd185  1  0.00466465  0.39829587  0.00230939  1
  Pd  Pd186  1  0.01008173  0.79665075  0.40786796  1
  Pd  Pd187  1  0.80174665  0.80797647  0.79981533  1
  Pd  Pd188  1  -0.00220048  0.39289312  0.20033763  1
  Pd  Pd189  1  0.19038475  0.19434537  0.79907020  1
  Pd  Pd190  1  0.80904376  0.59237896  0.79817217  1
  Pd  Pd191  1  0.79942084  -0.00218571  0.39857096  1
  Pd  Pd192  1  0.60450979  0.78895187  -0.00978526  1
  Pd  Pd193  1  0.19041568  0.80832763  0.40592816  1
  Pd  Pd194  1  0.20355130  -0.01017651  -0.00069648  1
  Pd  Pd195  1  0.81065163  0.60206983  0.40027107  1
  Pd  Pd196  1  0.79919285  0.80646447  -0.01083806  1
  Pd  Pd197  1  0.19705695  0.41162390  0.39676911  1
  Pd  Pd198  1  0.79521009  0.41307041  0.00722455  1
  Pd  Pd199  1  0.40161881  0.40108343  0.59740736  1
  Rh  Rh200  1  0.78916698  0.41388765  0.61114119  1
  Rh  Rh201  1  0.80576551  0.18851892  0.59435462  1
  Rh  Rh202  1  0.79744640  0.18750452  -0.00851627  1
  Rh  Rh203  1  0.39904952  -0.00687608  0.19934411  1
  Rh  Rh204  1  0.59402748  0.59707962  0.60476631  1
  Rh  Rh205  1  0.00299440  0.20621037  0.40264303  1
  Rh  Rh206  1  0.60461618  0.38882833  0.19045133  1
  Rh  Rh207  1  0.19936920  0.60616759  0.79597061  1
  Rh  Rh208  1  0.00517424  0.59963315  -0.00374553  1
  Rh  Rh209  1  0.39472538  0.61022794  0.79291071  1
  Rh  Rh210  1  0.40884994  0.59311479  -0.00251707  1
  Rh  Rh211  1  0.59596087  0.80027242  0.79754841  1
  Rh  Rh212  1  0.39527773  0.59751533  0.20301732  1
  Rh  Rh213  1  0.20964969  0.00320914  0.60783481  1
  Rh  Rh214  1  0.20024297  0.79513230  0.19262768  1
  Rh  Rh215  1  0.19821892  0.20095148  0.00213886  1
  Rh  Rh216  1  0.00577837  0.20662604  0.00150958  1
  Rh  Rh217  1  0.00756903  0.79361317  -0.00150955  1
  Rh  Rh218  1  0.38965919  0.79493389  0.59541273  1
  Rh  Rh219  1  0.39932921  0.20622899  0.20539129  1
  Rh  Rh220  1  0.19131102  0.59496161  0.40341330  1
  Rh  Rh221  1  0.39055141  -0.01088166  -0.00627689  1
  Rh  Rh222  1  0.20368583  0.40112940  0.80284128  1
  Rh  Rh223  1  0.19937247  0.19637165  0.20046920  1
  Rh  Rh224  1  0.00247628  -0.00085647  0.20061919  1
  Rh  Rh225  1  0.18924720  0.20774170  0.60559812  1
  Rh  Rh226  1  0.19486942  0.79135138  0.59082750  1
  Rh  Rh227  1  0.39927005  0.19479006  0.60657029  1
  Rh  Rh228  1  0.58937950  -0.00557882  0.79057805  1
  Rh  Rh229  1  -0.00159321  0.60961137  0.59423696  1
  Rh  Rh230  1  0.40201103  0.19163317  0.80080786  1
  Rh  Rh231  1  0.39982014  0.79944045  0.79922099  1
  Rh  Rh232  1  0.39128135  0.40019284  0.80416503  1
  Rh  Rh233  1  0.19355790  0.61259729  0.00237883  1
  Rh  Rh234  1  0.60217488  0.61372978  0.19710719  1
  Rh  Rh235  1  0.80018299  0.21141718  0.20413267  1
  Rh  Rh236  1  0.80343045  0.60089905  0.19695343  1
  Rh  Rh237  1  0.61065343  0.00980643  0.01555564  1
  Rh  Rh238  1  0.40155823  0.20387381  -0.00529576  1
  Rh  Rh239  1  0.79845080  0.19581068  0.40455726  1
  Rh  Rh240  1  0.00973155  0.39480592  0.59506860  1
  Rh  Rh241  1  -0.00744846  -0.00019889  0.00129784  1
  Rh  Rh242  1  0.39148695  0.60889201  0.60408732  1
  Rh  Rh243  1  0.00101384  0.79111214  0.79601427  1
  Rh  Rh244  1  0.81466062  0.41585392  0.39116582  1
  Rh  Rh245  1  0.19225458  0.79637478  0.80774932  1
  Rh  Rh246  1  0.00802608  0.61230576  0.20281940  1
  Rh  Rh247  1  0.39830398  0.60064563  0.39645833  1
  Rh  Rh248  1  0.80806644  0.79655164  0.19944240  1
  Rh  Rh249  1  0.59086147  0.61358008  0.80198611  1
