# generated using pymatgen
data_ZrScNbPdRh
_symmetry_space_group_name_H-M   'P 1'
_cell_length_a   16.56052540
_cell_length_b   16.56024316
_cell_length_c   16.56297215
_cell_angle_alpha   89.96848740
_cell_angle_beta   89.99012142
_cell_angle_gamma   89.97671650
_symmetry_Int_Tables_number   1
_chemical_formula_structural   ZrScNbPdRh
_chemical_formula_sum   'Zr50 Sc50 Nb50 Pd50 Rh50'
_cell_volume   4542.33315428
_cell_formula_units_Z   50
loop_
 _symmetry_equiv_pos_site_id
 _symmetry_equiv_pos_as_xyz
  1  'x, y, z'
loop_
 _atom_site_type_symbol
 _atom_site_label
 _atom_site_symmetry_multiplicity
 _atom_site_fract_x
 _atom_site_fract_y
 _atom_site_fract_z
 _atom_site_occupancy
  Zr  Zr0  1  0.70116083  0.90358683  0.69397289  1
  Zr  Zr1  1  0.09386991  0.29436614  0.89957794  1
  Zr  Zr2  1  0.70936135  0.49745894  0.10667636  1
  Zr  Zr3  1  0.49820998  0.10692041  0.49967497  1
  Zr  Zr4  1  0.50040109  0.69334577  0.90502469  1
  Zr  Zr5  1  0.70400522  0.09800429  0.50450519  1
  Zr  Zr6  1  0.09908350  0.70034959  0.29575124  1
  Zr  Zr7  1  0.89867292  0.29711908  0.70528429  1
  Zr  Zr8  1  0.29968418  0.69481071  0.10166193  1
  Zr  Zr9  1  0.30512811  0.09921005  0.30122861  1
  Zr  Zr10  1  0.70217461  0.89756314  0.29992772  1
  Zr  Zr11  1  0.28871791  0.89645201  0.89799542  1
  Zr  Zr12  1  0.90216657  0.49924688  0.10116934  1
  Zr  Zr13  1  0.30250139  0.69450776  0.29633787  1
  Zr  Zr14  1  0.09600411  0.11287665  0.29474313  1
  Zr  Zr15  1  0.89423923  0.69372581  0.50203697  1
  Zr  Zr16  1  0.70173661  0.10361567  0.29767587  1
  Zr  Zr17  1  0.49338627  0.89870015  0.29359397  1
  Zr  Zr18  1  0.30927910  0.09756676  0.89905608  1
  Zr  Zr19  1  0.09906010  0.10076836  0.90523123  1
  Zr  Zr20  1  0.69508432  0.68807637  0.89686874  1
  Zr  Zr21  1  0.10258170  0.49792658  0.51217454  1
  Zr  Zr22  1  0.90132930  0.90764715  0.29619646  1
  Zr  Zr23  1  0.69658031  0.89137776  0.10103998  1
  Zr  Zr24  1  0.50359084  0.49337531  0.89652509  1
  Zr  Zr25  1  0.49841348  0.30458404  0.09534209  1
  Zr  Zr26  1  0.70473483  0.49509508  0.89737117  1
  Zr  Zr27  1  0.10560004  0.69554861  0.50681568  1
  Zr  Zr28  1  0.69885699  0.69476869  0.10078216  1
  Zr  Zr29  1  0.28600305  0.69621301  0.69925094  1
  Zr  Zr30  1  0.09975927  0.90216798  0.50596827  1
  Zr  Zr31  1  0.49538973  0.10365792  0.71192342  1
  Zr  Zr32  1  0.70290153  0.90575629  0.89271236  1
  Zr  Zr33  1  0.49173264  0.90842872  0.90182771  1
  Zr  Zr34  1  0.70154872  0.69403220  0.69360373  1
  Zr  Zr35  1  0.49708842  0.69118282  0.50506077  1
  Zr  Zr36  1  0.49119565  0.10454664  0.08990926  1
  Zr  Zr37  1  0.89475089  0.49835659  0.49617689  1
  Zr  Zr38  1  0.70803555  0.50345924  0.29936975  1
  Zr  Zr39  1  0.89883988  0.89847086  0.71542289  1
  Zr  Zr40  1  0.90241301  0.49734212  0.89717533  1
  Zr  Zr41  1  0.90885050  0.69024615  0.09795767  1
  Zr  Zr42  1  0.91341467  0.10031063  0.10556004  1
  Zr  Zr43  1  0.30034539  0.49283226  0.69954696  1
  Zr  Zr44  1  0.49656730  0.30703699  0.50880532  1
  Zr  Zr45  1  0.89973324  0.49174688  0.29762721  1
  Zr  Zr46  1  0.69997426  0.29771215  0.70676180  1
  Zr  Zr47  1  0.70206008  0.30603041  0.29129255  1
  Zr  Zr48  1  0.10586651  0.69315580  0.89464776  1
  Zr  Zr49  1  0.50413255  0.30417695  0.29308717  1
  Sc  Sc50  1  0.69880130  0.30471233  0.09532328  1
  Sc  Sc51  1  0.70475400  0.10013380  0.70132003  1
  Sc  Sc52  1  0.90025014  0.30173315  0.10072949  1
  Sc  Sc53  1  0.30401370  0.29752223  0.90057673  1
  Sc  Sc54  1  0.70122204  0.30180832  0.89891847  1
  Sc  Sc55  1  0.30730413  0.88912204  0.10340546  1
  Sc  Sc56  1  0.50529594  0.90068692  0.50119065  1
  Sc  Sc57  1  0.09982688  0.10257379  0.50568238  1
  Sc  Sc58  1  0.70866767  0.10712828  0.09411872  1
  Sc  Sc59  1  0.49763583  0.10388496  0.29387787  1
  Sc  Sc60  1  0.28764014  0.31015103  0.29645129  1
  Sc  Sc61  1  0.29898239  0.11271385  0.09682845  1
  Sc  Sc62  1  0.09450209  0.50844762  0.10786742  1
  Sc  Sc63  1  0.09418430  0.89532152  0.10955009  1
  Sc  Sc64  1  0.30773847  0.50335697  0.90884848  1
  Sc  Sc65  1  0.49280670  0.49703182  0.09865607  1
  Sc  Sc66  1  0.91210355  0.30142513  0.49830297  1
  Sc  Sc67  1  0.09776127  0.90600823  0.71039772  1
  Sc  Sc68  1  0.90210700  0.09660359  0.90650320  1
  Sc  Sc69  1  0.50650951  0.90758127  0.70084895  1
  Sc  Sc70  1  0.90476262  0.50183966  0.70491525  1
  Sc  Sc71  1  0.69467483  0.49822993  0.70434652  1
  Sc  Sc72  1  0.70423105  0.50924848  0.50354634  1
  Sc  Sc73  1  0.90246717  0.89821425  0.49078446  1
  Sc  Sc74  1  0.30232237  0.49819933  0.10342452  1
  Sc  Sc75  1  0.10281245  0.29736736  0.49501593  1
  Sc  Sc76  1  0.69297162  0.29370151  0.50516209  1
  Sc  Sc77  1  0.69872303  0.70308413  0.29417389  1
  Sc  Sc78  1  0.29611166  0.30555660  0.50723077  1
  Sc  Sc79  1  0.29364218  0.11028782  0.50817225  1
  Sc  Sc80  1  0.70188090  0.70567805  0.50122312  1
  Sc  Sc81  1  0.89903148  0.69228637  0.88715711  1
  Sc  Sc82  1  0.49971792  0.30678349  0.70087089  1
  Sc  Sc83  1  0.48549955  0.50099072  0.29277784  1
  Sc  Sc84  1  0.30582217  0.50188541  0.49229987  1
  Sc  Sc85  1  0.29352822  0.70031896  0.90678736  1
  Sc  Sc86  1  0.29892321  0.30286218  0.09837951  1
  Sc  Sc87  1  0.10506402  0.28811067  0.10522995  1
  Sc  Sc88  1  0.89618466  0.29961853  0.89600604  1
  Sc  Sc89  1  0.09545898  0.29522829  0.69915619  1
  Sc  Sc90  1  0.10537208  0.49480634  0.29450222  1
  Sc  Sc91  1  0.69728152  0.11048346  0.89494614  1
  Sc  Sc92  1  0.08965335  0.89061930  0.30023537  1
  Sc  Sc93  1  0.90686177  0.09660645  0.49990056  1
  Sc  Sc94  1  0.90022363  0.70699417  0.30278393  1
  Sc  Sc95  1  0.10142430  0.69808800  0.10457021  1
  Sc  Sc96  1  0.90000622  0.90701717  0.10255981  1
  Sc  Sc97  1  0.28049437  0.90891868  0.70326515  1
  Sc  Sc98  1  0.50116878  0.70532098  0.10382681  1
  Sc  Sc99  1  0.50615093  0.49646816  0.68959840  1
  Nb  Nb100  1  0.10419378  0.50701083  0.70986472  1
  Nb  Nb101  1  0.29500776  0.10836507  0.69880743  1
  Nb  Nb102  1  0.69661620  0.90687286  0.49695503  1
  Nb  Nb103  1  0.50091913  0.10060876  0.90197019  1
  Nb  Nb104  1  0.10699704  0.09468928  0.70140061  1
  Nb  Nb105  1  0.29897596  0.90266039  0.50117042  1
  Nb  Nb106  1  0.89710728  0.70100854  0.69546263  1
  Nb  Nb107  1  0.49925498  0.69806348  0.69910126  1
  Nb  Nb108  1  0.09674975  0.90110608  0.89632894  1
  Nb  Nb109  1  0.90523205  0.10053980  0.69891316  1
  Nb  Nb110  1  0.50292083  0.90129179  0.09769226  1
  Nb  Nb111  1  0.91059570  0.29845687  0.30235893  1
  Nb  Nb112  1  0.09639534  0.50041319  0.89258152  1
  Nb  Nb113  1  0.29909932  0.50266876  0.29195750  1
  Nb  Nb114  1  0.49682653  0.69970783  0.30321066  1
  Nb  Nb115  1  0.09342645  0.30131441  0.29569676  1
  Nb  Nb116  1  0.50837762  0.29414160  0.90494923  1
  Nb  Nb117  1  0.90401342  0.89768254  0.89963646  1
  Nb  Nb118  1  0.50127185  0.49834112  0.49716988  1
  Nb  Nb119  1  0.29994601  0.70272161  0.50051898  1
  Nb  Nb120  1  0.10508386  0.10007491  0.10028832  1
  Nb  Nb121  1  0.09945867  0.68486918  0.69998130  1
  Nb  Nb122  1  0.29966470  0.89925165  0.30190831  1
  Nb  Nb123  1  0.90122429  0.10581296  0.29864191  1
  Nb  Nb124  1  0.30242289  0.29253483  0.69631165  1
  Nb  Nb125  1  0.19628535  -0.00100154  0.00536432  1
  Nb  Nb126  1  0.59200019  0.59778498  0.39824791  1
  Nb  Nb127  1  0.40306813  0.60426445  0.79613980  1
  Nb  Nb128  1  0.39314604  0.80305738  0.60189480  1
  Nb  Nb129  1  0.20675208  0.80188001  0.40362126  1
  Nb  Nb130  1  -0.00297556  0.80174681  -0.01026626  1
  Nb  Nb131  1  0.59754053  -0.00116807  0.19407892  1
  Nb  Nb132  1  0.19767871  0.40038083  0.80258856  1
  Nb  Nb133  1  0.40097946  0.79581084  0.79236552  1
  Nb  Nb134  1  0.40000930  0.20688721  0.40044570  1
  Nb  Nb135  1  0.80185181  0.39694916  0.60224254  1
  Nb  Nb136  1  0.59567684  0.79588362  0.79797864  1
  Nb  Nb137  1  0.59727383  0.40823429  0.40002188  1
  Nb  Nb138  1  0.19025755  0.40143225  -0.00529188  1
  Nb  Nb139  1  0.20350514  -0.00405912  0.39598272  1
  Nb  Nb140  1  -0.00090339  0.79193727  0.61013173  1
  Nb  Nb141  1  0.39258832  0.00123656  0.60192063  1
  Nb  Nb142  1  0.60318057  0.00006351  0.39597948  1
  Nb  Nb143  1  0.39461471  0.79897202  0.40491394  1
  Nb  Nb144  1  0.00683683  0.40194515  -0.00277806  1
  Nb  Nb145  1  0.20104413  0.00101936  0.20222369  1
  Nb  Nb146  1  0.59562084  0.00171648  0.00084468  1
  Nb  Nb147  1  0.00047287  0.59645845  0.40338481  1
  Nb  Nb148  1  0.80700298  0.20108614  0.39296719  1
  Nb  Nb149  1  0.80554450  0.79930051  -0.00696558  1
  Pd  Pd150  1  0.00839341  0.79094435  0.79819005  1
  Pd  Pd151  1  0.19633739  0.59914971  0.39889046  1
  Pd  Pd152  1  0.40492213  0.21024396  0.80326950  1
  Pd  Pd153  1  0.19651048  0.40346016  0.39827495  1
  Pd  Pd154  1  0.40125117  0.00315090  0.40898808  1
  Pd  Pd155  1  0.01147180  0.40629755  0.39923971  1
  Pd  Pd156  1  -0.00584720  0.59731264  0.59988470  1
  Pd  Pd157  1  0.39412278  0.59692242  0.60443277  1
  Pd  Pd158  1  0.00755363  -0.00783536  0.00369174  1
  Pd  Pd159  1  0.00334052  0.19878041  0.59972550  1
  Pd  Pd160  1  0.39255660  0.21151599  0.20527885  1
  Pd  Pd161  1  0.79496020  0.00334130  0.19314545  1
  Pd  Pd162  1  0.39560877  0.00106040  0.18814473  1
  Pd  Pd163  1  0.80814209  0.20534664  0.59187496  1
  Pd  Pd164  1  0.79112688  0.38680627  0.41023822  1
  Pd  Pd165  1  0.19595896  0.58914600  0.00441065  1
  Pd  Pd166  1  0.59393726  0.79877379  0.39945735  1
  Pd  Pd167  1  -0.00406492  0.19017122  0.80125876  1
  Pd  Pd168  1  0.80920143  0.79527877  0.19164793  1
  Pd  Pd169  1  0.60001497  0.20344765  0.39815775  1
  Pd  Pd170  1  0.81268620  -0.00614478  0.59900697  1
  Pd  Pd171  1  0.80600623  0.20738387  0.19991987  1
  Pd  Pd172  1  0.80596742  0.20390020  -0.00342210  1
  Pd  Pd173  1  0.80493121  0.01159650  0.80165394  1
  Pd  Pd174  1  0.60051674  0.19522501  0.18677117  1
  Pd  Pd175  1  0.01022660  0.00676519  0.39463791  1
  Pd  Pd176  1  0.59296107  0.00820717  0.59847956  1
  Pd  Pd177  1  0.79982290  0.00635098  0.40020085  1
  Pd  Pd178  1  0.59190608  0.59579949  0.20496508  1
  Pd  Pd179  1  0.18762148  0.80652391  0.00794058  1
  Pd  Pd180  1  0.39100670  -0.00825442  0.78976770  1
  Pd  Pd181  1  0.80323138  0.60234645  -0.00328535  1
  Pd  Pd182  1  0.39861501  0.79750736  -0.00379681  1
  Pd  Pd183  1  0.20150078  0.20286086  0.80117065  1
  Pd  Pd184  1  -0.00204180  0.40125408  0.60846087  1
  Pd  Pd185  1  0.59773508  0.58782560  0.00911498  1
  Pd  Pd186  1  0.79520109  -0.00294520  0.00115041  1
  Pd  Pd187  1  0.60370713  0.40503881  0.00253510  1
  Pd  Pd188  1  0.39997625  0.39616022  0.39531573  1
  Pd  Pd189  1  0.19482036  0.80389339  0.60547048  1
  Pd  Pd190  1  0.59514872  0.80077558  0.60284642  1
  Pd  Pd191  1  0.60479918  0.80486692  -0.01076273  1
  Pd  Pd192  1  0.79094597  0.79229947  0.80371272  1
  Pd  Pd193  1  0.20484534  0.19942313  0.39820480  1
  Pd  Pd194  1  0.59660646  0.19590271  0.61170661  1
  Pd  Pd195  1  0.79863998  0.79974091  0.40109844  1
  Pd  Pd196  1  -0.00557495  -0.00849597  0.60754979  1
  Pd  Pd197  1  0.39766846  0.39992148  0.80236093  1
  Pd  Pd198  1  0.80667198  0.81171755  0.59463018  1
  Pd  Pd199  1  0.19716794  0.39464952  0.60871222  1
  Rh  Rh200  1  -0.00374508  0.59938996  0.21558218  1
  Rh  Rh201  1  0.80682762  0.39325059  0.19760068  1
  Rh  Rh202  1  0.19255199  0.20454121  0.60545210  1
  Rh  Rh203  1  0.20157752  0.80404337  0.20619968  1
  Rh  Rh204  1  0.60241993  0.00096882  0.80557554  1
  Rh  Rh205  1  0.80522653  0.19342167  0.80132770  1
  Rh  Rh206  1  0.39669730  0.40216663  0.60101668  1
  Rh  Rh207  1  0.40256374  0.60179407  0.00087920  1
  Rh  Rh208  1  0.19556382  0.40089257  0.19133275  1
  Rh  Rh209  1  0.59900880  0.40883958  0.20183761  1
  Rh  Rh210  1  0.20212265  0.59678857  0.19827216  1
  Rh  Rh211  1  0.80074522  0.59533009  0.79316559  1
  Rh  Rh212  1  0.20483807  0.19884844  0.20451016  1
  Rh  Rh213  1  0.00822213  0.00193966  0.20683291  1
  Rh  Rh214  1  0.80698553  0.60595838  0.20487672  1
  Rh  Rh215  1  -0.00502350  0.60419266  0.79683095  1
  Rh  Rh216  1  0.60196535  0.19670502  0.00022983  1
  Rh  Rh217  1  0.39562593  0.39480098  -0.00194581  1
  Rh  Rh218  1  0.40179096  0.79476109  0.20214121  1
  Rh  Rh219  1  -0.00884088  0.79799869  0.18928724  1
  Rh  Rh220  1  0.40019846  0.20832386  -0.00591008  1
  Rh  Rh221  1  0.20889675  0.58869708  0.59743130  1
  Rh  Rh222  1  0.39945025  0.19814321  0.59943963  1
  Rh  Rh223  1  0.39293993  0.39847632  0.19889508  1
  Rh  Rh224  1  0.00769826  0.78760779  0.41487819  1
  Rh  Rh225  1  0.39343212  -0.00252670  0.00494606  1
  Rh  Rh226  1  0.79782816  0.60950237  0.39284310  1
  Rh  Rh227  1  -0.00241046  0.19801048  0.40213077  1
  Rh  Rh228  1  0.00455374  0.39356096  0.19191663  1
  Rh  Rh229  1  0.20183310  0.00842585  0.59713768  1
  Rh  Rh230  1  0.00437401  0.59937975  -0.00839814  1
  Rh  Rh231  1  0.40206543  0.60264460  0.19486302  1
  Rh  Rh232  1  0.79976493  0.58793594  0.60940043  1
  Rh  Rh233  1  0.79890262  0.40089745  0.79351295  1
  Rh  Rh234  1  -0.00186173  0.00891163  0.79923054  1
  Rh  Rh235  1  -0.00171648  0.20627109  0.19542405  1
  Rh  Rh236  1  0.40096466  0.60240307  0.39683424  1
  Rh  Rh237  1  0.59300586  0.59944218  0.79393181  1
  Rh  Rh238  1  0.60404182  0.59821320  0.59416810  1
  Rh  Rh239  1  0.59657838  0.20273626  0.79996194  1
  Rh  Rh240  1  0.19483172  0.79564060  0.79595224  1
  Rh  Rh241  1  0.59406862  0.80152332  0.20331839  1
  Rh  Rh242  1  0.19788921  0.01180750  0.80964831  1
  Rh  Rh243  1  0.20343479  0.19913205  -0.00377091  1
  Rh  Rh244  1  0.59847705  0.39571589  0.80228082  1
  Rh  Rh245  1  0.80771431  0.39864607  -0.00092648  1
  Rh  Rh246  1  0.00577542  0.39783864  0.80030448  1
  Rh  Rh247  1  0.61081982  0.40432067  0.59237532  1
  Rh  Rh248  1  0.21290617  0.59032726  0.80607497  1
  Rh  Rh249  1  -0.00402083  0.20570336  0.00569079  1
