# generated using pymatgen
data_ZrScNbPdRh
_symmetry_space_group_name_H-M   'P 1'
_cell_length_a   16.56175506
_cell_length_b   16.55524880
_cell_length_c   16.56329351
_cell_angle_alpha   90.01198792
_cell_angle_beta   90.00500626
_cell_angle_gamma   90.00083661
_symmetry_Int_Tables_number   1
_chemical_formula_structural   ZrScNbPdRh
_chemical_formula_sum   'Zr50 Sc50 Nb50 Pd50 Rh50'
_cell_volume   4541.38954521
_cell_formula_units_Z   50
loop_
 _symmetry_equiv_pos_site_id
 _symmetry_equiv_pos_as_xyz
  1  'x, y, z'
loop_
 _atom_site_type_symbol
 _atom_site_label
 _atom_site_symmetry_multiplicity
 _atom_site_fract_x
 _atom_site_fract_y
 _atom_site_fract_z
 _atom_site_occupancy
  Zr  Zr0  1  0.50790633  0.70348483  0.50690094  1
  Zr  Zr1  1  0.30048566  0.70438789  0.69613891  1
  Zr  Zr2  1  0.10379102  0.70174802  0.09423061  1
  Zr  Zr3  1  0.70855198  0.29663209  0.50094640  1
  Zr  Zr4  1  0.10529122  0.50379315  0.89946930  1
  Zr  Zr5  1  0.09491277  0.49901306  0.29734092  1
  Zr  Zr6  1  0.09805485  0.50150555  0.49139736  1
  Zr  Zr7  1  0.30681152  0.69422726  0.10806979  1
  Zr  Zr8  1  0.09643785  0.69523416  0.30693917  1
  Zr  Zr9  1  0.70232302  0.70525307  0.89845742  1
  Zr  Zr10  1  0.09565144  0.30470518  0.90122670  1
  Zr  Zr11  1  0.69784336  0.50331735  0.10615323  1
  Zr  Zr12  1  0.71461565  0.90236340  0.69747783  1
  Zr  Zr13  1  0.69895457  0.89827199  0.89654438  1
  Zr  Zr14  1  0.10429420  0.10281305  0.90597393  1
  Zr  Zr15  1  0.89156925  0.30269354  0.69566209  1
  Zr  Zr16  1  0.10720702  0.89496001  0.69160090  1
  Zr  Zr17  1  0.49946835  0.30184815  0.10490338  1
  Zr  Zr18  1  0.09059180  0.90171438  0.10233975  1
  Zr  Zr19  1  0.10135951  0.09747595  0.69944594  1
  Zr  Zr20  1  0.90115166  0.89538811  0.29631259  1
  Zr  Zr21  1  0.29566341  0.49870363  0.89640051  1
  Zr  Zr22  1  0.89493219  0.69617227  0.69339526  1
  Zr  Zr23  1  0.09217872  0.29466449  0.68865923  1
  Zr  Zr24  1  0.89346967  0.09152443  0.69209999  1
  Zr  Zr25  1  0.90965193  0.50250208  0.89439051  1
  Zr  Zr26  1  0.90771617  0.30334817  0.49883973  1
  Zr  Zr27  1  0.29816803  0.50281342  0.70102063  1
  Zr  Zr28  1  0.70165440  0.10886940  0.69504061  1
  Zr  Zr29  1  0.49597670  0.29240056  0.49710461  1
  Zr  Zr30  1  0.90072011  0.89691176  0.69549629  1
  Zr  Zr31  1  0.49705522  0.91069703  0.10527511  1
  Zr  Zr32  1  0.30711872  0.10407220  0.49950236  1
  Zr  Zr33  1  0.90449200  0.29592444  0.30731677  1
  Zr  Zr34  1  0.69764698  0.10322510  0.89224505  1
  Zr  Zr35  1  0.10595059  0.29670198  0.10150950  1
  Zr  Zr36  1  0.50260607  0.69550475  0.69874671  1
  Zr  Zr37  1  0.89415327  0.10811649  0.49080271  1
  Zr  Zr38  1  0.69358970  0.69929867  0.09636129  1
  Zr  Zr39  1  0.50153520  0.50168904  0.70335529  1
  Zr  Zr40  1  0.30246296  0.10043458  0.89575756  1
  Zr  Zr41  1  0.69386628  0.69172582  0.69858610  1
  Zr  Zr42  1  0.48891653  0.69753594  0.30149536  1
  Zr  Zr43  1  0.30241676  0.89963356  0.30516197  1
  Zr  Zr44  1  0.49771954  0.50914287  0.49761558  1
  Zr  Zr45  1  0.10275255  0.10718089  0.10040615  1
  Zr  Zr46  1  0.51292525  0.70124188  0.90264480  1
  Zr  Zr47  1  0.29886657  0.30245984  0.10155097  1
  Zr  Zr48  1  0.09985904  0.89602794  0.30765915  1
  Zr  Zr49  1  0.89028653  0.89307091  0.90116758  1
  Sc  Sc50  1  0.90104775  0.50458446  0.30522612  1
  Sc  Sc51  1  0.90489339  0.49867595  0.10383817  1
  Sc  Sc52  1  0.91082008  0.30178133  0.09750284  1
  Sc  Sc53  1  0.30192537  0.90184046  0.89522068  1
  Sc  Sc54  1  0.10143919  0.49924869  0.10544327  1
  Sc  Sc55  1  0.29706766  0.10308547  0.09063345  1
  Sc  Sc56  1  0.68869337  0.29875603  0.30409600  1
  Sc  Sc57  1  0.30567725  0.09445581  0.30999247  1
  Sc  Sc58  1  0.89763550  0.69705178  0.49826957  1
  Sc  Sc59  1  0.28833128  0.69821427  0.90879724  1
  Sc  Sc60  1  0.09908810  0.69555695  0.90444468  1
  Sc  Sc61  1  0.50400996  0.50573213  0.10293220  1
  Sc  Sc62  1  0.50438058  0.11177691  0.69439069  1
  Sc  Sc63  1  0.92029424  0.09996838  0.10459437  1
  Sc  Sc64  1  0.50674295  0.10036604  0.30195643  1
  Sc  Sc65  1  0.69539467  0.89575051  0.09854849  1
  Sc  Sc66  1  0.49746739  0.90016930  0.89562505  1
  Sc  Sc67  1  0.09532627  0.69885996  0.50058675  1
  Sc  Sc68  1  0.10333428  0.69999773  0.69098819  1
  Sc  Sc69  1  0.49875832  0.49885198  0.90398585  1
  Sc  Sc70  1  0.10578969  0.89231264  0.90973345  1
  Sc  Sc71  1  0.09657202  0.89364625  0.50025349  1
  Sc  Sc72  1  0.50091771  0.30056835  0.30361019  1
  Sc  Sc73  1  0.70271528  0.09907388  0.49341432  1
  Sc  Sc74  1  0.89798419  0.70211528  0.30223312  1
  Sc  Sc75  1  0.70308009  0.50515023  0.49091442  1
  Sc  Sc76  1  0.68907925  0.30304343  0.09842506  1
  Sc  Sc77  1  0.30323691  0.31060219  0.29958002  1
  Sc  Sc78  1  0.29857609  0.49618613  0.30305697  1
  Sc  Sc79  1  0.09680024  0.10437666  0.50926612  1
  Sc  Sc80  1  0.90315759  0.10117554  0.90249796  1
  Sc  Sc81  1  0.89675475  0.50126084  0.49799839  1
  Sc  Sc82  1  0.70860312  0.69410595  0.30202002  1
  Sc  Sc83  1  0.89894222  0.31042563  0.89850561  1
  Sc  Sc84  1  0.30009478  0.49710316  0.10239530  1
  Sc  Sc85  1  0.09808533  0.30475719  0.29515853  1
  Sc  Sc86  1  0.29915137  0.30945596  0.90451839  1
  Sc  Sc87  1  0.49531349  0.88220245  0.70526859  1
  Sc  Sc88  1  0.89760850  0.50259865  0.69694665  1
  Sc  Sc89  1  0.67721358  0.10080686  0.10464782  1
  Sc  Sc90  1  0.49492010  0.09686870  0.90645813  1
  Sc  Sc91  1  0.49923319  0.10577887  0.49500837  1
  Sc  Sc92  1  0.89190364  0.89262556  0.50279191  1
  Sc  Sc93  1  0.29725776  0.90193707  0.49393568  1
  Sc  Sc94  1  0.29961437  0.30244867  0.70548469  1
  Sc  Sc95  1  0.09680160  0.50556374  0.70245265  1
  Sc  Sc96  1  0.49543282  0.90449239  0.31122818  1
  Sc  Sc97  1  0.29484347  0.09454253  0.70373754  1
  Sc  Sc98  1  0.70450000  0.49961832  0.90190550  1
  Sc  Sc99  1  0.49826760  0.30067208  0.90677420  1
  Nb  Nb100  1  0.31251467  0.68070511  0.49764341  1
  Nb  Nb101  1  0.50365031  0.29967219  0.69853256  1
  Nb  Nb102  1  0.30105280  0.49184483  0.49883143  1
  Nb  Nb103  1  0.49296098  0.10676311  0.10039756  1
  Nb  Nb104  1  0.69923106  0.90022984  0.30479995  1
  Nb  Nb105  1  0.70298181  0.29638170  0.89456804  1
  Nb  Nb106  1  0.69340607  0.88983847  0.49527840  1
  Nb  Nb107  1  0.70360919  0.49515662  0.29944160  1
  Nb  Nb108  1  0.30643604  0.90194249  0.70182160  1
  Nb  Nb109  1  0.50353563  0.70128324  0.09940770  1
  Nb  Nb110  1  0.70687475  0.10005894  0.30025999  1
  Nb  Nb111  1  0.09213719  0.10288734  0.29363401  1
  Nb  Nb112  1  0.70343480  0.70413233  0.50133812  1
  Nb  Nb113  1  0.89833744  0.89945816  0.10022232  1
  Nb  Nb114  1  0.30201264  0.30462875  0.49037431  1
  Nb  Nb115  1  0.09860589  0.29979766  0.49626635  1
  Nb  Nb116  1  0.89729959  0.71541635  0.09258188  1
  Nb  Nb117  1  0.51172521  0.49043908  0.29902428  1
  Nb  Nb118  1  0.50854520  0.89713004  0.50511086  1
  Nb  Nb119  1  0.89902507  0.70295641  0.90201892  1
  Nb  Nb120  1  0.89992932  0.10166619  0.29945711  1
  Nb  Nb121  1  0.29992192  0.70409622  0.30153583  1
  Nb  Nb122  1  0.69407704  0.50059427  0.69778667  1
  Nb  Nb123  1  0.29526862  0.89562424  0.10598098  1
  Nb  Nb124  1  0.69479565  0.29521366  0.70342796  1
  Nb  Nb125  1  0.80791300  0.60682165  0.00065880  1
  Nb  Nb126  1  0.80031075  0.00304825  0.20032115  1
  Nb  Nb127  1  0.00228361  -0.00468285  0.79863921  1
  Nb  Nb128  1  0.39895681  0.60262080  0.80063724  1
  Nb  Nb129  1  0.60644795  0.39210365  0.79622802  1
  Nb  Nb130  1  0.00061574  0.19570129  0.79404805  1
  Nb  Nb131  1  0.60041394  0.00186232  0.78932243  1
  Nb  Nb132  1  0.59404149  0.79872764  0.20393709  1
  Nb  Nb133  1  0.40147867  0.79821297  0.01078015  1
  Nb  Nb134  1  0.20274445  0.39750285  0.58865034  1
  Nb  Nb135  1  0.40243102  0.19864818  0.19575974  1
  Nb  Nb136  1  0.79955461  0.00563032  0.01073369  1
  Nb  Nb137  1  0.19704467  0.20569693  0.40300198  1
  Nb  Nb138  1  0.59885461  -0.00720297  0.59913803  1
  Nb  Nb139  1  0.19711260  -0.00318068  0.20291624  1
  Nb  Nb140  1  0.60017074  0.39686487  0.60347720  1
  Nb  Nb141  1  -0.00324379  0.80057772  0.79911526  1
  Nb  Nb142  1  0.40612556  -0.00784837  0.60320001  1
  Nb  Nb143  1  0.40211760  0.20342550  0.80127731  1
  Nb  Nb144  1  0.79865839  0.19650076  0.19837081  1
  Nb  Nb145  1  0.39972998  0.39862713  0.59651745  1
  Nb  Nb146  1  0.79716573  0.39638990  0.20515357  1
  Nb  Nb147  1  -0.00368365  0.00449366  0.39402391  1
  Nb  Nb148  1  0.79630806  0.19801706  0.00596508  1
  Nb  Nb149  1  0.20397657  0.79965588  0.20604470  1
  Pd  Pd150  1  0.59772774  0.60612900  0.21128254  1
  Pd  Pd151  1  0.19006218  0.39507424  0.78916484  1
  Pd  Pd152  1  0.40017313  0.60366111  -0.00624262  1
  Pd  Pd153  1  0.20224177  0.60154782  0.20436666  1
  Pd  Pd154  1  0.20476580  -0.00427348  0.00512333  1
  Pd  Pd155  1  0.40143516  0.40600058  0.00482010  1
  Pd  Pd156  1  0.20450999  0.60101021  0.40012460  1
  Pd  Pd157  1  0.19462063  0.79888144  0.80133043  1
  Pd  Pd158  1  0.79213244  0.40647724  0.59921474  1
  Pd  Pd159  1  0.21208469  0.79662459  0.58693921  1
  Pd  Pd160  1  0.60185227  -0.00131164  -0.00751633  1
  Pd  Pd161  1  0.39871791  0.79938756  0.41350473  1
  Pd  Pd162  1  0.60051334  0.79021582  0.38906842  1
  Pd  Pd163  1  0.00520560  0.79126222  0.20056675  1
  Pd  Pd164  1  0.39890778  0.59007354  0.38888798  1
  Pd  Pd165  1  0.19829402  0.59510783  0.59449314  1
  Pd  Pd166  1  -0.00845632  0.60912940  0.19524591  1
  Pd  Pd167  1  0.39248882  0.80415412  0.59007811  1
  Pd  Pd168  1  0.00442531  0.41034304  0.60027188  1
  Pd  Pd169  1  0.60258093  0.40369300  -0.00683379  1
  Pd  Pd170  1  0.20448552  0.78818377  0.40653773  1
  Pd  Pd171  1  0.80928081  0.59719757  0.19428928  1
  Pd  Pd172  1  0.60051709  0.20165909  -0.00456874  1
  Pd  Pd173  1  0.78953039  0.80478088  0.20046085  1
  Pd  Pd174  1  0.60449778  0.60622448  0.39490832  1
  Pd  Pd175  1  0.59943499  0.00447524  0.40522792  1
  Pd  Pd176  1  -0.00220118  -0.00216254  0.59111746  1
  Pd  Pd177  1  -0.00656179  -0.00458970  -0.00759075  1
  Pd  Pd178  1  0.20788371  -0.00313229  0.59433685  1
  Pd  Pd179  1  0.39220081  -0.00640992  0.00302980  1
  Pd  Pd180  1  0.20142984  0.20847754  0.80474954  1
  Pd  Pd181  1  0.79891298  0.39921852  0.00962897  1
  Pd  Pd182  1  0.00532870  0.40531572  0.00387137  1
  Pd  Pd183  1  0.80377183  -0.00913139  0.39855268  1
  Pd  Pd184  1  0.40192623  0.58645331  0.20790236  1
  Pd  Pd185  1  0.39348518  0.78776812  0.81417205  1
  Pd  Pd186  1  0.60057862  0.39791998  0.41023120  1
  Pd  Pd187  1  0.39158225  0.20140339  0.60949192  1
  Pd  Pd188  1  0.21031411  0.20701342  0.59444171  1
  Pd  Pd189  1  0.18669213  0.01280860  0.40020648  1
  Pd  Pd190  1  0.00376719  0.61126341  0.79438620  1
  Pd  Pd191  1  0.79847262  0.59689945  0.80452130  1
  Pd  Pd192  1  -0.00460828  0.60044775  0.00791858  1
  Pd  Pd193  1  0.60284814  -0.00496388  0.20797771  1
  Pd  Pd194  1  0.19276463  -0.01008551  0.80340016  1
  Pd  Pd195  1  0.81261979  0.19939269  0.80626296  1
  Pd  Pd196  1  0.40368749  0.80397789  0.19956582  1
  Pd  Pd197  1  0.39125732  0.01151992  0.19908306  1
  Pd  Pd198  1  0.21286770  0.19278543  0.21409071  1
  Pd  Pd199  1  0.79543932  0.40668176  0.79662993  1
  Rh  Rh200  1  -0.00022788  0.80135266  -0.00595723  1
  Rh  Rh201  1  0.60565926  0.20046514  0.58899510  1
  Rh  Rh202  1  0.58800031  0.20127948  0.80968798  1
  Rh  Rh203  1  0.60754002  0.59493868  0.59026943  1
  Rh  Rh204  1  0.39847983  0.59511049  0.60605627  1
  Rh  Rh205  1  0.79414578  0.59724583  0.59504354  1
  Rh  Rh206  1  0.60434317  0.39949687  0.20141576  1
  Rh  Rh207  1  0.40704851  0.40016642  0.20283672  1
  Rh  Rh208  1  0.60811179  0.59425276  -0.00351288  1
  Rh  Rh209  1  -0.00541268  0.39798873  0.20272071  1
  Rh  Rh210  1  -0.00402666  0.20768523  0.20033926  1
  Rh  Rh211  1  0.80229267  0.78970991  0.79209850  1
  Rh  Rh212  1  -0.00620574  0.20598902  -0.01086320  1
  Rh  Rh213  1  -0.00038977  0.40336089  0.39880068  1
  Rh  Rh214  1  0.41118578  -0.00182312  0.41320677  1
  Rh  Rh215  1  0.79768072  0.79821253  0.40119375  1
  Rh  Rh216  1  0.80090326  0.00576768  0.81024920  1
  Rh  Rh217  1  0.20481395  0.20699570  -0.00775926  1
  Rh  Rh218  1  0.79470463  0.20718815  0.39114091  1
  Rh  Rh219  1  0.20781587  0.80080062  0.00910887  1
  Rh  Rh220  1  0.19643973  0.40424337  0.00514501  1
  Rh  Rh221  1  -0.01151870  0.19682819  0.60215861  1
  Rh  Rh222  1  0.39581339  0.20292580  -0.00009749  1
  Rh  Rh223  1  0.19156346  0.39583103  0.39904227  1
  Rh  Rh224  1  0.59520753  0.19900757  0.20506002  1
  Rh  Rh225  1  -0.00271623  0.79374844  0.60284871  1
  Rh  Rh226  1  0.58747621  0.81194035  0.00865005  1
  Rh  Rh227  1  0.60998279  0.80338451  0.60725836  1
  Rh  Rh228  1  0.01108057  0.19426129  0.40031318  1
  Rh  Rh229  1  0.00060972  -0.00267191  0.20641874  1
  Rh  Rh230  1  0.79986727  0.60081611  0.40109063  1
  Rh  Rh231  1  0.20097188  0.59267751  0.00622452  1
  Rh  Rh232  1  0.80185816  0.20116416  0.59720514  1
  Rh  Rh233  1  0.39401900  0.20383793  0.38526482  1
  Rh  Rh234  1  0.41047076  0.40503817  0.39972668  1
  Rh  Rh235  1  0.78936882  -0.00166737  0.58226074  1
  Rh  Rh236  1  0.60789408  0.80776672  0.79198196  1
  Rh  Rh237  1  0.41108713  0.39742697  0.79647793  1
  Rh  Rh238  1  0.59682417  0.58985372  0.80993207  1
  Rh  Rh239  1  0.20345378  0.60834329  0.79799601  1
  Rh  Rh240  1  0.80106576  0.39917328  0.39232336  1
  Rh  Rh241  1  -0.00134664  0.59782630  0.59654607  1
  Rh  Rh242  1  0.19864286  0.40337592  0.20190686  1
  Rh  Rh243  1  0.00098256  0.39581638  0.79189571  1
  Rh  Rh244  1  0.41213562  0.01108032  0.78460789  1
  Rh  Rh245  1  -0.00723950  0.80420616  0.40575075  1
  Rh  Rh246  1  0.79412594  0.80234795  0.00484891  1
  Rh  Rh247  1  -0.00565275  0.60176848  0.40252835  1
  Rh  Rh248  1  0.79480018  0.79343066  0.59815579  1
  Rh  Rh249  1  0.60447997  0.19665933  0.40059148  1
