# generated using pymatgen
data_ZrScNbPdRh
_symmetry_space_group_name_H-M   'P 1'
_cell_length_a   16.55566463
_cell_length_b   16.55658152
_cell_length_c   16.55643923
_cell_angle_alpha   90.01388131
_cell_angle_beta   90.01535800
_cell_angle_gamma   89.97431607
_symmetry_Int_Tables_number   1
_chemical_formula_structural   ZrScNbPdRh
_chemical_formula_sum   'Zr50 Sc50 Nb50 Pd50 Rh50'
_cell_volume   4538.20551746
_cell_formula_units_Z   50
loop_
 _symmetry_equiv_pos_site_id
 _symmetry_equiv_pos_as_xyz
  1  'x, y, z'
loop_
 _atom_site_type_symbol
 _atom_site_label
 _atom_site_symmetry_multiplicity
 _atom_site_fract_x
 _atom_site_fract_y
 _atom_site_fract_z
 _atom_site_occupancy
  Zr  Zr0  1  0.30744619  0.10239574  0.90950933  1
  Zr  Zr1  1  0.09263034  0.49863061  0.30401515  1
  Zr  Zr2  1  0.70292453  0.88849909  0.09598680  1
  Zr  Zr3  1  0.09158360  0.70131058  0.30081108  1
  Zr  Zr4  1  0.88988677  0.30417009  0.09729675  1
  Zr  Zr5  1  0.09307851  0.69400818  0.09942569  1
  Zr  Zr6  1  0.50326863  0.69757529  0.29647889  1
  Zr  Zr7  1  0.09941430  0.11147653  0.49670034  1
  Zr  Zr8  1  0.49544902  0.90555428  0.50284222  1
  Zr  Zr9  1  0.10017128  0.09422266  0.29731613  1
  Zr  Zr10  1  0.08772684  0.50358249  0.09855421  1
  Zr  Zr11  1  0.89412158  0.30115980  0.29818243  1
  Zr  Zr12  1  0.70958428  0.70129205  0.49888634  1
  Zr  Zr13  1  0.69593052  0.70114514  0.69544805  1
  Zr  Zr14  1  0.49959445  0.69759300  0.69611276  1
  Zr  Zr15  1  0.29430034  0.09870632  0.70528042  1
  Zr  Zr16  1  0.69819290  0.29897299  0.10254518  1
  Zr  Zr17  1  0.50417664  0.29380787  0.50390351  1
  Zr  Zr18  1  0.29971822  0.30110253  0.90573411  1
  Zr  Zr19  1  0.89676997  0.29950327  0.89460715  1
  Zr  Zr20  1  0.50395459  0.69627710  0.49356350  1
  Zr  Zr21  1  0.09345222  0.90401642  0.29688276  1
  Zr  Zr22  1  0.90052388  0.08995605  0.29607282  1
  Zr  Zr23  1  0.69214776  0.49706790  0.09933715  1
  Zr  Zr24  1  0.89690869  0.70241817  0.50397055  1
  Zr  Zr25  1  0.49713966  0.29295390  0.89672379  1
  Zr  Zr26  1  0.29904246  0.90241849  0.30451475  1
  Zr  Zr27  1  0.70770343  0.30477948  0.69547018  1
  Zr  Zr28  1  0.29733314  0.50007215  0.89971200  1
  Zr  Zr29  1  0.10333274  0.50211915  0.69241715  1
  Zr  Zr30  1  0.49723717  0.89843200  0.69735040  1
  Zr  Zr31  1  0.90309559  0.70772507  0.10293501  1
  Zr  Zr32  1  0.30034216  0.69840339  0.70629218  1
  Zr  Zr33  1  0.49734271  0.90026231  0.30242261  1
  Zr  Zr34  1  0.09530317  0.30576442  0.50445442  1
  Zr  Zr35  1  0.30094367  0.29582819  0.09659597  1
  Zr  Zr36  1  0.49578415  0.49894739  0.90884734  1
  Zr  Zr37  1  0.30288372  0.70336025  0.49892109  1
  Zr  Zr38  1  0.31090968  0.90222151  0.49957832  1
  Zr  Zr39  1  0.90049481  0.69939362  0.69412434  1
  Zr  Zr40  1  0.90152573  0.09788171  0.90174437  1
  Zr  Zr41  1  0.09676816  0.69719867  0.70809348  1
  Zr  Zr42  1  0.29657276  0.10290380  0.29848519  1
  Zr  Zr43  1  0.90054550  0.10210312  0.69707428  1
  Zr  Zr44  1  0.69983800  0.30257323  0.89971251  1
  Zr  Zr45  1  0.10461528  0.30213945  0.09555781  1
  Zr  Zr46  1  0.90034260  0.49882050  0.50107377  1
  Zr  Zr47  1  0.08936925  0.69565351  0.50197007  1
  Zr  Zr48  1  0.10123012  0.29565091  0.30854287  1
  Zr  Zr49  1  0.50063281  0.09624727  0.50360171  1
  Sc  Sc50  1  0.90212024  0.70700716  0.30416988  1
  Sc  Sc51  1  0.30043139  0.89717436  0.89282386  1
  Sc  Sc52  1  0.70227042  0.30217264  0.50419011  1
  Sc  Sc53  1  0.50154118  0.09562350  0.70198164  1
  Sc  Sc54  1  0.49829298  0.30716849  0.10234513  1
  Sc  Sc55  1  0.10399652  0.90003534  0.90412594  1
  Sc  Sc56  1  0.90141166  0.30440939  0.69155325  1
  Sc  Sc57  1  0.70207991  0.09055173  0.69687608  1
  Sc  Sc58  1  0.89541607  0.89835252  0.69563845  1
  Sc  Sc59  1  0.29249039  0.29420401  0.69728564  1
  Sc  Sc60  1  0.10110080  0.50663192  0.89807933  1
  Sc  Sc61  1  0.29576598  0.49638713  0.51200285  1
  Sc  Sc62  1  0.70536210  0.90033601  0.30232605  1
  Sc  Sc63  1  0.09702816  0.90847274  0.09815241  1
  Sc  Sc64  1  0.89686206  0.89563672  0.49502187  1
  Sc  Sc65  1  0.10892623  0.08528966  0.90271523  1
  Sc  Sc66  1  0.49663693  0.89712010  0.89643855  1
  Sc  Sc67  1  0.49971418  0.70163593  0.90403859  1
  Sc  Sc68  1  0.10740108  0.31024046  0.90329016  1
  Sc  Sc69  1  0.50072106  0.88982704  0.09834376  1
  Sc  Sc70  1  0.70095746  0.09793430  0.88418925  1
  Sc  Sc71  1  0.70172881  0.90017018  0.50468204  1
  Sc  Sc72  1  0.70744548  0.50271082  0.50161559  1
  Sc  Sc73  1  0.90745699  0.49817024  0.89720812  1
  Sc  Sc74  1  0.69271116  0.70019337  0.30579143  1
  Sc  Sc75  1  0.90713975  0.90278341  0.90738767  1
  Sc  Sc76  1  0.30236370  0.30076075  0.29358753  1
  Sc  Sc77  1  0.29103992  0.29358198  0.50416426  1
  Sc  Sc78  1  0.68874910  0.50236755  0.90555769  1
  Sc  Sc79  1  0.69614099  0.10109798  0.50040162  1
  Sc  Sc80  1  0.31557259  0.70120957  0.30257550  1
  Sc  Sc81  1  0.30705014  0.69238553  0.89930154  1
  Sc  Sc82  1  0.10182373  0.29558417  0.69142737  1
  Sc  Sc83  1  0.90079841  0.09906638  0.50172182  1
  Sc  Sc84  1  0.50438897  0.30173494  0.29002677  1
  Sc  Sc85  1  0.50105146  0.50806753  0.29510601  1
  Sc  Sc86  1  0.31179681  0.49636956  0.09248613  1
  Sc  Sc87  1  0.91487484  0.70089674  0.89918799  1
  Sc  Sc88  1  0.69395188  0.50476839  0.30253396  1
  Sc  Sc89  1  0.09938795  0.89551521  0.48656320  1
  Sc  Sc90  1  0.10766049  0.89745010  0.71909128  1
  Sc  Sc91  1  0.51322940  0.10363308  0.29899917  1
  Sc  Sc92  1  0.49999820  0.29410766  0.68886111  1
  Sc  Sc93  1  0.69729824  0.10420951  0.29371076  1
  Sc  Sc94  1  0.69552943  0.29960695  0.29728161  1
  Sc  Sc95  1  0.89822515  0.49739238  0.30004817  1
  Sc  Sc96  1  0.50309578  0.49902179  0.10264212  1
  Sc  Sc97  1  0.90136854  0.49865079  0.70100211  1
  Sc  Sc98  1  0.30541156  0.09801033  0.50180154  1
  Sc  Sc99  1  0.30678158  0.89759594  0.09399749  1
  Nb  Nb100  1  0.29903188  0.49837081  0.30095224  1
  Nb  Nb101  1  0.50167662  0.09994565  0.90289514  1
  Nb  Nb102  1  0.30283202  0.50319004  0.70404845  1
  Nb  Nb103  1  0.49973174  0.49200040  0.50636867  1
  Nb  Nb104  1  0.09997634  0.50001059  0.49940534  1
  Nb  Nb105  1  0.10057465  0.09918475  0.69955100  1
  Nb  Nb106  1  0.69622421  0.89788184  0.90266426  1
  Nb  Nb107  1  0.69606567  0.50409559  0.69995208  1
  Nb  Nb108  1  0.30521522  0.70292852  0.10248171  1
  Nb  Nb109  1  0.69700519  0.70285105  0.09462460  1
  Nb  Nb110  1  0.89877155  0.90632537  0.11076333  1
  Nb  Nb111  1  0.69951473  0.70619701  0.90530634  1
  Nb  Nb112  1  0.10511082  0.10055694  0.09519739  1
  Nb  Nb113  1  0.49904940  0.09804560  0.09537840  1
  Nb  Nb114  1  0.10465658  0.70034922  0.89948516  1
  Nb  Nb115  1  0.90497679  0.90352825  0.29537590  1
  Nb  Nb116  1  0.50026665  0.49660572  0.69158223  1
  Nb  Nb117  1  0.89677285  0.50740019  0.09981525  1
  Nb  Nb118  1  0.29864311  0.10168374  0.09666224  1
  Nb  Nb119  1  0.89691463  0.10112264  0.10014639  1
  Nb  Nb120  1  0.69341693  0.90106221  0.70951578  1
  Nb  Nb121  1  0.30184466  0.89403756  0.69799236  1
  Nb  Nb122  1  0.69774613  0.10218125  0.10037089  1
  Nb  Nb123  1  0.89386575  0.30011673  0.50279231  1
  Nb  Nb124  1  0.49288632  0.70459723  0.10378214  1
  Nb  Nb125  1  0.79876107  0.60664196  0.00045460  1
  Nb  Nb126  1  0.20034352  0.78952846  0.00380452  1
  Nb  Nb127  1  0.19728895  -0.00557673  0.60370964  1
  Nb  Nb128  1  0.00360961  0.19662521  0.80407440  1
  Nb  Nb129  1  0.20522266  0.59948014  0.20390703  1
  Nb  Nb130  1  0.40619323  0.20455471  0.40011436  1
  Nb  Nb131  1  0.60299647  0.00278866  -0.00175234  1
  Nb  Nb132  1  0.40323939  0.39948274  0.40291921  1
  Nb  Nb133  1  0.79481307  -0.00038990  0.00624630  1
  Nb  Nb134  1  0.59385542  0.40445882  0.79132440  1
  Nb  Nb135  1  0.79184570  0.60754908  0.80550738  1
  Nb  Nb136  1  0.79187341  0.79913090  0.80489271  1
  Nb  Nb137  1  0.20146487  0.79359887  0.19669910  1
  Nb  Nb138  1  0.20204793  0.80353909  0.60249693  1
  Nb  Nb139  1  -0.00005430  0.19601373  0.00131406  1
  Nb  Nb140  1  0.19821676  0.59565973  0.39798258  1
  Nb  Nb141  1  0.01149293  0.00094877  0.60272717  1
  Nb  Nb142  1  -0.00029969  0.19608169  0.19038227  1
  Nb  Nb143  1  0.59838538  0.19129392  -0.00046450  1
  Nb  Nb144  1  0.80266392  0.20320609  0.40036960  1
  Nb  Nb145  1  0.79717131  0.60490446  0.18950613  1
  Nb  Nb146  1  0.59175184  0.40232275  0.40740834  1
  Nb  Nb147  1  0.40113488  0.00780026  0.19397967  1
  Nb  Nb148  1  0.19882880  0.40865805  0.20073889  1
  Nb  Nb149  1  0.40114002  0.40452042  0.79119425  1
  Pd  Pd150  1  0.20228248  0.40049188  0.79277806  1
  Pd  Pd151  1  0.19110574  0.19948114  0.81016703  1
  Pd  Pd152  1  0.00945071  0.39296971  0.79346558  1
  Pd  Pd153  1  0.79723527  0.79302368  0.21065112  1
  Pd  Pd154  1  -0.00668712  0.39801390  0.40481227  1
  Pd  Pd155  1  0.79214579  0.41503342  0.80269105  1
  Pd  Pd156  1  0.20411269  0.60087724  0.00627731  1
  Pd  Pd157  1  0.79161536  0.41076947  0.20490133  1
  Pd  Pd158  1  0.39874988  0.20396668  0.79121061  1
  Pd  Pd159  1  0.60325563  0.79991141  0.20195576  1
  Pd  Pd160  1  0.40803653  0.19435190  0.20197743  1
  Pd  Pd161  1  0.00126500  0.39264389  0.19840182  1
  Pd  Pd162  1  0.79702708  0.00603038  0.40274450  1
  Pd  Pd163  1  0.40436177  -0.00747064  0.00139029  1
  Pd  Pd164  1  0.19481185  0.20631228  0.19999600  1
  Pd  Pd165  1  0.60115506  0.80403505  0.59380020  1
  Pd  Pd166  1  0.60275732  0.20264544  0.79538183  1
  Pd  Pd167  1  0.59827342  -0.00771062  0.19317372  1
  Pd  Pd168  1  0.79034903  -0.00006045  0.19666673  1
  Pd  Pd169  1  0.01260142  0.81494293  0.60482328  1
  Pd  Pd170  1  0.80367060  0.20037370  0.79222083  1
  Pd  Pd171  1  -0.00404764  0.39737666  -0.00318940  1
  Pd  Pd172  1  0.39906709  0.60105637  0.59536307  1
  Pd  Pd173  1  0.39655310  0.58861787  0.40781113  1
  Pd  Pd174  1  0.00659554  0.80724598  0.00393040  1
  Pd  Pd175  1  0.59881729  0.59698001  0.80301713  1
  Pd  Pd176  1  0.80053687  0.41305235  -0.00720601  1
  Pd  Pd177  1  0.59671290  0.79902690  0.80391899  1
  Pd  Pd178  1  0.39842930  0.59434074  0.19485622  1
  Pd  Pd179  1  0.60097567  0.80617408  0.40459716  1
  Pd  Pd180  1  -0.00034854  -0.00031728  0.79499203  1
  Pd  Pd181  1  0.80262627  0.60150787  0.38835843  1
  Pd  Pd182  1  0.60668846  -0.00106065  0.40010745  1
  Pd  Pd183  1  0.40924644  0.59604350  0.80037289  1
  Pd  Pd184  1  0.81093276  0.80165484  -0.00663639  1
  Pd  Pd185  1  0.40050424  -0.00096140  0.79947433  1
  Pd  Pd186  1  0.59495703  0.60877362  0.00606438  1
  Pd  Pd187  1  0.20081957  0.60722470  0.59564500  1
  Pd  Pd188  1  0.80385825  -0.01091885  0.80525061  1
  Pd  Pd189  1  0.20793841  0.40113979  0.40022765  1
  Pd  Pd190  1  0.60784716  0.19346116  0.60671085  1
  Pd  Pd191  1  -0.00663498  0.80683290  0.80030190  1
  Pd  Pd192  1  -0.01074312  0.19928047  0.39499464  1
  Pd  Pd193  1  0.38924146  0.39163954  0.60138515  1
  Pd  Pd194  1  0.20013456  0.79191302  0.39715563  1
  Pd  Pd195  1  0.20866349  -0.00866949  0.18947710  1
  Pd  Pd196  1  0.80346097  -0.00458120  0.59605790  1
  Pd  Pd197  1  0.19937922  0.00434719  0.41043489  1
  Pd  Pd198  1  0.79447788  0.19221488  -0.00363410  1
  Pd  Pd199  1  0.60288291  0.59755772  0.59095995  1
  Rh  Rh200  1  0.59444988  -0.00240656  0.80402208  1
  Rh  Rh201  1  0.19768534  0.60041927  0.80097816  1
  Rh  Rh202  1  0.60026763  0.40378848  0.20890688  1
  Rh  Rh203  1  -0.01052393  0.60007216  0.20755712  1
  Rh  Rh204  1  0.80044249  0.40672016  0.60038371  1
  Rh  Rh205  1  0.00210602  0.00616601  0.19139096  1
  Rh  Rh206  1  0.20799099  0.20030224  0.39967393  1
  Rh  Rh207  1  0.39368818  0.00577209  0.61119324  1
  Rh  Rh208  1  -0.00067509  0.40219118  0.59833055  1
  Rh  Rh209  1  0.00377423  0.80694823  0.19780280  1
  Rh  Rh210  1  0.39542339  0.79614367  -0.00481743  1
  Rh  Rh211  1  -0.00411857  0.59332568  0.59993616  1
  Rh  Rh212  1  0.39683008  0.19446346  0.59711892  1
  Rh  Rh213  1  0.39570459  0.80944923  0.20458357  1
  Rh  Rh214  1  0.80214291  0.80303887  0.39575335  1
  Rh  Rh215  1  0.19441115  0.19403872  -0.00750657  1
  Rh  Rh216  1  0.60123741  -0.00374693  0.60336171  1
  Rh  Rh217  1  0.20081142  0.19143799  0.59764354  1
  Rh  Rh218  1  0.59694553  0.20257007  0.18930277  1
  Rh  Rh219  1  -0.00257372  -0.00377867  0.40843378  1
  Rh  Rh220  1  -0.00322092  0.59812655  0.40237339  1
  Rh  Rh221  1  -0.00658913  0.59849265  -0.00751141  1
  Rh  Rh222  1  0.60361719  0.20873075  0.39979124  1
  Rh  Rh223  1  0.60448016  0.60768249  0.19324388  1
  Rh  Rh224  1  0.79210441  0.80714299  0.60796612  1
  Rh  Rh225  1  0.39953725  0.79295482  0.60042694  1
  Rh  Rh226  1  0.40827034  0.79919755  0.39883715  1
  Rh  Rh227  1  0.39554942  0.40534579  0.20569719  1
  Rh  Rh228  1  -0.00827485  0.80576193  0.39813930  1
  Rh  Rh229  1  0.20534237  0.79307111  0.80673180  1
  Rh  Rh230  1  0.79973392  0.19790373  0.59364520  1
  Rh  Rh231  1  0.40272824  0.79573785  0.79905120  1
  Rh  Rh232  1  0.40622854  0.01477175  0.38505079  1
  Rh  Rh233  1  -0.00311306  0.19851084  0.60506026  1
  Rh  Rh234  1  0.80231284  0.59496857  0.61003363  1
  Rh  Rh235  1  0.40316290  0.39420723  -0.00445347  1
  Rh  Rh236  1  0.40719608  0.20361778  0.00675658  1
  Rh  Rh237  1  0.59039576  0.80132762  -0.00113997  1
  Rh  Rh238  1  0.19998907  0.41294022  0.00869031  1
  Rh  Rh239  1  0.21010169  -0.00700307  0.00042244  1
  Rh  Rh240  1  0.59920682  0.59114359  0.40730351  1
  Rh  Rh241  1  0.20767584  -0.00085444  0.80105311  1
  Rh  Rh242  1  0.61000894  0.40430119  0.60068337  1
  Rh  Rh243  1  -0.00667709  0.00364823  0.00823737  1
  Rh  Rh244  1  0.59399923  0.38647270  -0.00663492  1
  Rh  Rh245  1  0.80339770  0.19564780  0.20799306  1
  Rh  Rh246  1  0.79086854  0.39313410  0.40032091  1
  Rh  Rh247  1  0.19996417  0.40163987  0.60420874  1
  Rh  Rh248  1  0.40516467  0.60535547  0.00647436  1
  Rh  Rh249  1  -0.00096894  0.59880884  0.80053818  1
