# generated using pymatgen
data_ZrScNbPdRh
_symmetry_space_group_name_H-M   'P 1'
_cell_length_a   16.55435225
_cell_length_b   16.55200145
_cell_length_c   16.55160721
_cell_angle_alpha   90.01107785
_cell_angle_beta   90.01759853
_cell_angle_gamma   90.02901680
_symmetry_Int_Tables_number   1
_chemical_formula_structural   ZrScNbPdRh
_chemical_formula_sum   'Zr50 Sc50 Nb50 Pd50 Rh50'
_cell_volume   4535.26632249
_cell_formula_units_Z   50
loop_
 _symmetry_equiv_pos_site_id
 _symmetry_equiv_pos_as_xyz
  1  'x, y, z'
loop_
 _atom_site_type_symbol
 _atom_site_label
 _atom_site_symmetry_multiplicity
 _atom_site_fract_x
 _atom_site_fract_y
 _atom_site_fract_z
 _atom_site_occupancy
  Zr  Zr0  1  0.70235414  0.30164085  0.30793893  1
  Zr  Zr1  1  0.09793014  0.30109036  0.89169607  1
  Zr  Zr2  1  0.10850566  0.69819341  0.89903940  1
  Zr  Zr3  1  0.11207841  0.30197311  0.29903960  1
  Zr  Zr4  1  0.69280113  0.09118814  0.09950401  1
  Zr  Zr5  1  0.09929743  0.69315492  0.49540701  1
  Zr  Zr6  1  0.90565381  0.10138808  0.49957114  1
  Zr  Zr7  1  0.90459898  0.50724837  0.50290330  1
  Zr  Zr8  1  0.89430513  0.89425195  0.69849240  1
  Zr  Zr9  1  0.69845991  0.50322310  0.69627859  1
  Zr  Zr10  1  0.10635607  0.11086345  0.49677703  1
  Zr  Zr11  1  0.69662711  0.90064881  0.89661931  1
  Zr  Zr12  1  0.69353662  0.50550878  0.09720552  1
  Zr  Zr13  1  0.10911460  0.90498126  0.71250028  1
  Zr  Zr14  1  0.69923620  0.09569721  0.30445686  1
  Zr  Zr15  1  0.90179333  0.09817330  0.30008508  1
  Zr  Zr16  1  0.90078700  0.89244048  0.10170327  1
  Zr  Zr17  1  0.09757294  0.09204056  0.88667660  1
  Zr  Zr18  1  0.29420583  0.30149268  0.10268259  1
  Zr  Zr19  1  0.49238798  0.50538415  0.49577612  1
  Zr  Zr20  1  0.49751393  0.50285371  0.90591331  1
  Zr  Zr21  1  0.49481843  0.89721131  0.50198692  1
  Zr  Zr22  1  0.50225547  0.09658252  0.90428831  1
  Zr  Zr23  1  0.30926383  0.10030196  0.09896511  1
  Zr  Zr24  1  0.69960176  0.10160259  0.90593893  1
  Zr  Zr25  1  0.49497313  0.70680709  0.89881513  1
  Zr  Zr26  1  0.70017336  0.30380901  0.09877492  1
  Zr  Zr27  1  0.50273464  0.69788902  0.50291205  1
  Zr  Zr28  1  0.69116935  0.49418706  0.90806401  1
  Zr  Zr29  1  0.70369667  0.70371332  0.11413248  1
  Zr  Zr30  1  0.50401898  0.30624034  0.29996790  1
  Zr  Zr31  1  0.90087604  0.71053018  0.90350279  1
  Zr  Zr32  1  0.11132745  0.49803008  0.89918365  1
  Zr  Zr33  1  0.89696817  0.50359210  0.69192953  1
  Zr  Zr34  1  0.29696035  0.49947201  0.09682444  1
  Zr  Zr35  1  0.89145500  0.30235881  0.30213568  1
  Zr  Zr36  1  0.29939818  0.89469214  0.29532257  1
  Zr  Zr37  1  0.89497845  0.29056573  0.89977694  1
  Zr  Zr38  1  0.30748377  0.09924278  0.49992290  1
  Zr  Zr39  1  0.30309967  0.70851865  0.10434600  1
  Zr  Zr40  1  0.09585040  0.90262803  0.10588060  1
  Zr  Zr41  1  0.29841777  0.69345431  0.70460825  1
  Zr  Zr42  1  0.30399928  0.89314841  0.89312403  1
  Zr  Zr43  1  0.51425063  0.70359735  0.30810294  1
  Zr  Zr44  1  0.50037236  0.10018339  0.09905316  1
  Zr  Zr45  1  0.49266123  0.09810856  0.70538481  1
  Zr  Zr46  1  0.09202054  0.09521571  0.09641845  1
  Zr  Zr47  1  0.50304150  0.49572047  0.09941482  1
  Zr  Zr48  1  0.49723148  0.49728095  0.31039503  1
  Zr  Zr49  1  0.29676994  0.50333742  0.89571175  1
  Sc  Sc50  1  0.10042527  0.48434968  0.69864863  1
  Sc  Sc51  1  0.89210608  0.50589978  0.10414720  1
  Sc  Sc52  1  0.29007479  0.70054052  0.30313882  1
  Sc  Sc53  1  0.69687099  0.08910038  0.69666676  1
  Sc  Sc54  1  0.69018781  0.49712499  0.29807113  1
  Sc  Sc55  1  0.90239645  0.71082086  0.50220207  1
  Sc  Sc56  1  0.89876658  0.31507241  0.49285582  1
  Sc  Sc57  1  0.09933377  0.70007041  0.30080778  1
  Sc  Sc58  1  0.09956860  0.09465989  0.29823352  1
  Sc  Sc59  1  0.29820301  0.30202634  0.90212106  1
  Sc  Sc60  1  0.09677018  0.69588566  0.10809792  1
  Sc  Sc61  1  0.69751626  0.90102402  0.50729690  1
  Sc  Sc62  1  0.09956823  0.51276712  0.30022882  1
  Sc  Sc63  1  0.90724535  0.29881487  0.70260141  1
  Sc  Sc64  1  0.30080363  0.49889906  0.69731963  1
  Sc  Sc65  1  0.49812059  0.29857017  0.90957069  1
  Sc  Sc66  1  0.69941006  0.70875809  0.91118542  1
  Sc  Sc67  1  0.69501611  0.70808777  0.50299911  1
  Sc  Sc68  1  0.30492899  0.89645688  0.70092012  1
  Sc  Sc69  1  0.49232221  0.90118406  0.09882917  1
  Sc  Sc70  1  0.90141639  0.49725720  0.30679905  1
  Sc  Sc71  1  0.89432026  0.09426382  0.09690081  1
  Sc  Sc72  1  0.10178969  0.70050446  0.69623962  1
  Sc  Sc73  1  0.29944767  0.10493366  0.29518049  1
  Sc  Sc74  1  0.30361428  0.69336839  0.89629307  1
  Sc  Sc75  1  0.50626976  0.30659454  0.49778824  1
  Sc  Sc76  1  0.89538324  0.49545418  0.90355907  1
  Sc  Sc77  1  0.31144926  0.10323383  0.88975847  1
  Sc  Sc78  1  0.89785000  0.70117240  0.10431909  1
  Sc  Sc79  1  0.49667746  0.70122373  0.69556148  1
  Sc  Sc80  1  0.89629321  0.70033404  0.68937091  1
  Sc  Sc81  1  0.50978665  0.08637188  0.50032143  1
  Sc  Sc82  1  0.69942583  0.49981951  0.50491487  1
  Sc  Sc83  1  0.29796894  0.71126707  0.49707993  1
  Sc  Sc84  1  0.49962206  0.29945646  0.69414315  1
  Sc  Sc85  1  0.50404305  0.70123771  0.09653627  1
  Sc  Sc86  1  0.90223129  0.10427064  0.70419293  1
  Sc  Sc87  1  0.30363575  0.30126473  0.29531464  1
  Sc  Sc88  1  0.89598247  0.70875222  0.29566455  1
  Sc  Sc89  1  0.89916582  0.10069612  0.89842136  1
  Sc  Sc90  1  0.69869928  0.90127508  0.10036071  1
  Sc  Sc91  1  0.09591095  0.88827093  0.49464786  1
  Sc  Sc92  1  0.49707535  0.50550982  0.68921084  1
  Sc  Sc93  1  0.48991711  0.29699132  0.09903509  1
  Sc  Sc94  1  0.08898320  0.89386447  0.89827153  1
  Sc  Sc95  1  0.69097325  0.30365590  0.69243612  1
  Sc  Sc96  1  0.30104775  0.29695536  0.50201320  1
  Sc  Sc97  1  0.69977227  0.89309631  0.30029389  1
  Sc  Sc98  1  0.11044607  0.50410685  0.10449535  1
  Sc  Sc99  1  0.70139084  0.89693535  0.70162972  1
  Nb  Nb100  1  0.30276123  0.50362120  0.49350905  1
  Nb  Nb101  1  0.90920674  0.90155951  0.31249331  1
  Nb  Nb102  1  0.70329535  0.29347118  0.49248846  1
  Nb  Nb103  1  0.10932346  0.29123895  0.69680274  1
  Nb  Nb104  1  0.69637813  0.29809340  0.89895182  1
  Nb  Nb105  1  0.70245162  0.10058213  0.49830583  1
  Nb  Nb106  1  0.50666265  0.90969970  0.30725898  1
  Nb  Nb107  1  0.70467705  0.69456160  0.69687354  1
  Nb  Nb108  1  0.49986062  0.89924395  0.88703564  1
  Nb  Nb109  1  0.29795157  0.90007941  0.09927381  1
  Nb  Nb110  1  0.09048954  0.90633808  0.30294435  1
  Nb  Nb111  1  0.10194751  0.30553704  0.49821638  1
  Nb  Nb112  1  0.30533265  0.29101452  0.70483495  1
  Nb  Nb113  1  0.70139833  0.70345973  0.30866986  1
  Nb  Nb114  1  0.09617650  0.49627512  0.49803840  1
  Nb  Nb115  1  0.10368538  0.10068550  0.69564350  1
  Nb  Nb116  1  0.50573985  0.09602857  0.29849224  1
  Nb  Nb117  1  0.89301617  0.88773184  0.89889640  1
  Nb  Nb118  1  0.90254576  0.30180316  0.10247959  1
  Nb  Nb119  1  0.90200533  0.89999807  0.49621070  1
  Nb  Nb120  1  0.29888979  0.10545582  0.69882611  1
  Nb  Nb121  1  0.29743053  0.90279774  0.49576209  1
  Nb  Nb122  1  0.50513451  0.90584090  0.71020215  1
  Nb  Nb123  1  0.30105341  0.50032280  0.30402737  1
  Nb  Nb124  1  0.10284421  0.30189460  0.09893098  1
  Nb  Nb125  1  0.20364660  -0.00222231  -0.00195117  1
  Nb  Nb126  1  0.19813509  0.59055154  0.58808925  1
  Nb  Nb127  1  0.79457320  0.60762203  0.39993869  1
  Nb  Nb128  1  0.00437808  0.20915963  0.39636460  1
  Nb  Nb129  1  0.39936266  0.39891848  0.79801633  1
  Nb  Nb130  1  0.00128105  0.39811118  0.00609509  1
  Nb  Nb131  1  0.60479324  0.60247516  0.80050647  1
  Nb  Nb132  1  0.00215362  0.39469772  0.19577288  1
  Nb  Nb133  1  -0.00483239  0.59678398  0.80206132  1
  Nb  Nb134  1  0.20064925  0.40830709  0.40626271  1
  Nb  Nb135  1  0.80436141  -0.00221416  0.40523173  1
  Nb  Nb136  1  0.20127004  0.00204775  0.59825108  1
  Nb  Nb137  1  0.79684249  0.59933504  0.80211451  1
  Nb  Nb138  1  0.60171794  0.20000301  0.80484406  1
  Nb  Nb139  1  -0.00124597  0.20730732  0.19808627  1
  Nb  Nb140  1  0.20200169  -0.00594303  0.40341276  1
  Nb  Nb141  1  0.00237806  0.59578518  -0.00486424  1
  Nb  Nb142  1  0.00839975  0.00008704  0.60115325  1
  Nb  Nb143  1  0.79165533  0.40007099  0.80180062  1
  Nb  Nb144  1  0.20281102  0.80688761  0.00521900  1
  Nb  Nb145  1  0.40869818  0.19570072  0.39615985  1
  Nb  Nb146  1  0.19432286  0.19331915  -0.00055894  1
  Nb  Nb147  1  0.40089777  0.59809442  0.20633220  1
  Nb  Nb148  1  0.79514850  0.20053581  0.59093040  1
  Nb  Nb149  1  0.60112791  0.19686876  0.20357640  1
  Pd  Pd150  1  0.19394805  0.18967339  0.19350686  1
  Pd  Pd151  1  0.39527515  0.61513900  0.39634947  1
  Pd  Pd152  1  0.59897149  0.40357853  0.59205469  1
  Pd  Pd153  1  0.39870229  0.80077331  0.60468274  1
  Pd  Pd154  1  0.20213794  0.00320019  0.20199451  1
  Pd  Pd155  1  0.40322645  -0.00281362  0.20574512  1
  Pd  Pd156  1  0.00138060  0.39183788  0.60199933  1
  Pd  Pd157  1  -0.00577701  -0.00777532  -0.00844645  1
  Pd  Pd158  1  0.00661419  0.80735197  0.60553250  1
  Pd  Pd159  1  0.19044059  0.80120465  0.20136178  1
  Pd  Pd160  1  0.60206844  0.19342344  0.60312980  1
  Pd  Pd161  1  0.41087159  0.20076133  0.59010960  1
  Pd  Pd162  1  0.80282804  0.60645975  -0.00394577  1
  Pd  Pd163  1  0.80745812  0.00364537  0.59645742  1
  Pd  Pd164  1  0.59402784  0.59975777  0.20407414  1
  Pd  Pd165  1  -0.01171280  0.60843261  0.39438595  1
  Pd  Pd166  1  0.20842378  0.39982585  0.59794294  1
  Pd  Pd167  1  -0.00508866  0.20612282  0.59589917  1
  Pd  Pd168  1  0.20164069  0.19859721  0.80596388  1
  Pd  Pd169  1  0.59439913  0.80937040  0.19899908  1
  Pd  Pd170  1  0.79930697  0.39036963  0.60234844  1
  Pd  Pd171  1  0.80329612  -0.01052612  0.20859601  1
  Pd  Pd172  1  0.79696668  0.19577971  0.19284361  1
  Pd  Pd173  1  0.80071965  0.59647264  0.21331346  1
  Pd  Pd174  1  0.39670131  -0.00429445  0.60751532  1
  Pd  Pd175  1  0.59336289  0.19786578  0.39871424  1
  Pd  Pd176  1  0.41144214  0.79506624  0.20959471  1
  Pd  Pd177  1  0.39764844  0.40567019  0.19935087  1
  Pd  Pd178  1  0.59723859  0.80544896  0.00598653  1
  Pd  Pd179  1  0.39786440  0.60397381  0.00773124  1
  Pd  Pd180  1  0.80442373  0.39705533  -0.00229048  1
  Pd  Pd181  1  0.00150646  0.79822456  0.20565393  1
  Pd  Pd182  1  0.60457692  0.79043200  0.79246252  1
  Pd  Pd183  1  -0.00155467  0.79090079  0.79061373  1
  Pd  Pd184  1  0.39438320  0.39641091  0.60201092  1
  Pd  Pd185  1  0.39476542  0.00444183  0.38985047  1
  Pd  Pd186  1  0.80299466  -0.00091710  0.80319029  1
  Pd  Pd187  1  0.00234496  0.20275526  0.00146021  1
  Pd  Pd188  1  0.20624579  0.20084601  0.59853918  1
  Pd  Pd189  1  0.39859109  -0.00698962  -0.00709737  1
  Pd  Pd190  1  0.40208788  0.79760823  0.39380130  1
  Pd  Pd191  1  0.80017492  0.40928916  0.20212735  1
  Pd  Pd192  1  -0.01232116  -0.00250604  0.79519316  1
  Pd  Pd193  1  -0.00881063  0.40340840  0.80446302  1
  Pd  Pd194  1  0.79832405  0.19803424  0.00797566  1
  Pd  Pd195  1  0.80519350  -0.00683806  -0.00527035  1
  Pd  Pd196  1  0.78793012  0.20606281  0.78498839  1
  Pd  Pd197  1  0.59286681  0.39759552  0.79892871  1
  Pd  Pd198  1  0.59924421  0.80361787  0.60786384  1
  Pd  Pd199  1  0.19904972  0.80091722  0.60004264  1
  Rh  Rh200  1  0.59591922  -0.00223476  0.20008819  1
  Rh  Rh201  1  0.60538950  0.40529919  0.40818721  1
  Rh  Rh202  1  0.59998148  0.39297316  0.19508795  1
  Rh  Rh203  1  0.21148416  0.00557095  0.79713542  1
  Rh  Rh204  1  0.20540280  0.20455658  0.39857713  1
  Rh  Rh205  1  0.80813700  0.19356146  0.40722851  1
  Rh  Rh206  1  0.19887145  0.61480917  0.01007877  1
  Rh  Rh207  1  0.00619381  0.19816795  0.79314479  1
  Rh  Rh208  1  0.60254866  0.00619772  0.80125329  1
  Rh  Rh209  1  0.18906418  0.59434225  0.78164065  1
  Rh  Rh210  1  0.80097232  0.80662152  0.20585019  1
  Rh  Rh211  1  -0.00591136  0.59336653  0.19439104  1
  Rh  Rh212  1  0.39582367  -0.00302083  0.79594921  1
  Rh  Rh213  1  0.60148704  0.61078767  -0.00288026  1
  Rh  Rh214  1  0.01165891  0.59613445  0.60781198  1
  Rh  Rh215  1  0.80025365  0.80342189  0.40391788  1
  Rh  Rh216  1  0.38850884  0.60648449  0.59450253  1
  Rh  Rh217  1  0.59404076  -0.01046218  -0.00384458  1
  Rh  Rh218  1  0.59655527  -0.00494983  0.60304906  1
  Rh  Rh219  1  -0.00904236  0.00236031  0.19822276  1
  Rh  Rh220  1  0.20055626  0.59614645  0.40484411  1
  Rh  Rh221  1  0.19307994  0.80862164  0.39291449  1
  Rh  Rh222  1  0.00030590  0.79253975  0.39615657  1
  Rh  Rh223  1  0.00545225  0.00530043  0.40866770  1
  Rh  Rh224  1  0.59995788  0.80891053  0.40519178  1
  Rh  Rh225  1  0.21068180  0.59956528  0.20176820  1
  Rh  Rh226  1  0.79501050  0.80438373  0.00727333  1
  Rh  Rh227  1  0.41099411  0.21037792  0.80102529  1
  Rh  Rh228  1  0.79813605  0.60970316  0.58953960  1
  Rh  Rh229  1  0.59424364  0.39027505  0.00702225  1
  Rh  Rh230  1  0.59940344  0.60230886  0.60057637  1
  Rh  Rh231  1  0.39402259  0.40077479  -0.00552755  1
  Rh  Rh232  1  0.60934382  -0.00711143  0.40380175  1
  Rh  Rh233  1  0.40193908  0.79693093  0.79259850  1
  Rh  Rh234  1  0.01236101  0.39667596  0.38908629  1
  Rh  Rh235  1  0.79196994  0.41622428  0.40314396  1
  Rh  Rh236  1  0.60152943  0.20242741  0.00385358  1
  Rh  Rh237  1  0.20309965  0.79615277  0.80533256  1
  Rh  Rh238  1  0.41242180  0.19937102  0.20840682  1
  Rh  Rh239  1  0.38960476  0.20261547  -0.00203090  1
  Rh  Rh240  1  0.19610027  0.41167135  0.21003328  1
  Rh  Rh241  1  0.00683332  0.79399998  0.00450275  1
  Rh  Rh242  1  0.79473699  0.79339974  0.79656264  1
  Rh  Rh243  1  0.41184894  0.59133457  0.79714563  1
  Rh  Rh244  1  0.39738460  0.80362429  -0.00340702  1
  Rh  Rh245  1  0.39080015  0.38858635  0.40339459  1
  Rh  Rh246  1  0.60931432  0.59799917  0.40649659  1
  Rh  Rh247  1  0.19732720  0.39177388  -0.00182744  1
  Rh  Rh248  1  0.79637286  0.80089988  0.59664633  1
  Rh  Rh249  1  0.21143476  0.39245325  0.78925824  1
