# generated using pymatgen
data_ZrScNbPdRh
_symmetry_space_group_name_H-M   'P 1'
_cell_length_a   16.55546967
_cell_length_b   16.55406099
_cell_length_c   16.55678189
_cell_angle_alpha   90.05372158
_cell_angle_beta   89.97877799
_cell_angle_gamma   89.95894506
_symmetry_Int_Tables_number   1
_chemical_formula_structural   ZrScNbPdRh
_chemical_formula_sum   'Zr50 Sc50 Nb50 Pd50 Rh50'
_cell_volume   4537.55238702
_cell_formula_units_Z   50
loop_
 _symmetry_equiv_pos_site_id
 _symmetry_equiv_pos_as_xyz
  1  'x, y, z'
loop_
 _atom_site_type_symbol
 _atom_site_label
 _atom_site_symmetry_multiplicity
 _atom_site_fract_x
 _atom_site_fract_y
 _atom_site_fract_z
 _atom_site_occupancy
  Zr  Zr0  1  0.50437121  0.89149070  0.50259062  1
  Zr  Zr1  1  0.10185232  0.50277550  0.71980891  1
  Zr  Zr2  1  0.89767890  0.29574996  0.10313132  1
  Zr  Zr3  1  0.69556731  0.30137055  0.29964240  1
  Zr  Zr4  1  0.69858951  0.90030344  0.69578173  1
  Zr  Zr5  1  0.90339362  0.30157902  0.70641439  1
  Zr  Zr6  1  0.30174501  0.11274641  0.30058875  1
  Zr  Zr7  1  0.50536627  0.49474711  0.30238520  1
  Zr  Zr8  1  0.49322640  0.90228719  0.10053623  1
  Zr  Zr9  1  0.30059832  0.49240155  0.69567166  1
  Zr  Zr10  1  0.09693274  0.69985198  0.49095440  1
  Zr  Zr11  1  0.70536734  0.30425050  0.90129393  1
  Zr  Zr12  1  0.89961985  0.69613324  0.50213016  1
  Zr  Zr13  1  0.28478155  0.50213150  0.89620700  1
  Zr  Zr14  1  0.89804788  0.70338080  0.89255505  1
  Zr  Zr15  1  0.90285528  0.49248747  0.89239815  1
  Zr  Zr16  1  0.89148345  0.29917864  0.90111711  1
  Zr  Zr17  1  0.70227065  0.70897106  0.89514560  1
  Zr  Zr18  1  0.10112223  0.09834762  0.09912490  1
  Zr  Zr19  1  0.30029911  0.89805423  0.49910932  1
  Zr  Zr20  1  0.50346069  0.30400927  0.10642429  1
  Zr  Zr21  1  0.69623056  0.50011724  0.49749094  1
  Zr  Zr22  1  0.29652765  0.89646536  0.70878537  1
  Zr  Zr23  1  0.10369014  0.30716385  0.30963427  1
  Zr  Zr24  1  0.10826352  0.90244169  0.09990895  1
  Zr  Zr25  1  0.10159843  0.69611987  0.89520202  1
  Zr  Zr26  1  0.71079024  0.69270124  0.29746040  1
  Zr  Zr27  1  0.29969710  0.69918329  0.70232159  1
  Zr  Zr28  1  0.10504521  0.09789902  0.89728466  1
  Zr  Zr29  1  0.89980663  0.09700090  0.29223531  1
  Zr  Zr30  1  0.49921428  0.08635209  0.90125810  1
  Zr  Zr31  1  0.89724040  0.69766948  0.10492094  1
  Zr  Zr32  1  0.29613929  0.51498243  0.09502236  1
  Zr  Zr33  1  0.50548963  0.10397362  0.29385561  1
  Zr  Zr34  1  0.48791414  0.29802102  0.70024780  1
  Zr  Zr35  1  0.29141027  0.70148709  0.29158247  1
  Zr  Zr36  1  0.49554779  0.89781025  0.29834474  1
  Zr  Zr37  1  0.70242698  0.90040078  0.50569696  1
  Zr  Zr38  1  0.09285575  0.09859383  0.49918417  1
  Zr  Zr39  1  0.30066043  0.29489046  0.11016897  1
  Zr  Zr40  1  0.10001213  0.90347705  0.70067214  1
  Zr  Zr41  1  0.90662047  0.29829123  0.50039536  1
  Zr  Zr42  1  0.91004014  0.10202694  0.69824707  1
  Zr  Zr43  1  0.28883695  0.30852104  0.49054943  1
  Zr  Zr44  1  0.49568123  0.49762725  0.69293705  1
  Zr  Zr45  1  0.49020595  0.50257167  0.49541627  1
  Zr  Zr46  1  0.70350486  0.10190095  0.49567247  1
  Zr  Zr47  1  0.69886267  0.89290252  0.29847847  1
  Zr  Zr48  1  0.11316358  0.69382611  0.11145639  1
  Zr  Zr49  1  0.50504017  0.30440059  0.90122836  1
  Sc  Sc50  1  0.89752505  0.10512280  0.89987750  1
  Sc  Sc51  1  0.49222784  0.69540585  0.30369752  1
  Sc  Sc52  1  0.30730069  0.49676372  0.30656068  1
  Sc  Sc53  1  0.69879993  0.49753373  0.10973414  1
  Sc  Sc54  1  0.70014779  0.69997353  0.10020431  1
  Sc  Sc55  1  0.10082408  0.31115372  0.90124803  1
  Sc  Sc56  1  0.30413688  0.69615161  0.49181623  1
  Sc  Sc57  1  0.29898845  0.11646435  0.49924089  1
  Sc  Sc58  1  0.69871179  0.09602511  0.10447876  1
  Sc  Sc59  1  0.10088552  0.09348256  0.30313202  1
  Sc  Sc60  1  0.90724462  0.90299314  0.50466933  1
  Sc  Sc61  1  0.49952553  0.50011035  0.10596386  1
  Sc  Sc62  1  0.70387435  0.30942543  0.09950460  1
  Sc  Sc63  1  0.70812977  0.70269487  0.70035471  1
  Sc  Sc64  1  0.29775229  0.89619886  0.29720146  1
  Sc  Sc65  1  0.88739205  0.89800242  0.90760742  1
  Sc  Sc66  1  0.09857650  0.49047246  0.48608933  1
  Sc  Sc67  1  0.70195239  0.70525474  0.50438713  1
  Sc  Sc68  1  0.10970648  0.90224019  0.89813902  1
  Sc  Sc69  1  0.69813943  0.09728435  0.68817664  1
  Sc  Sc70  1  0.30097807  0.90082441  0.90586033  1
  Sc  Sc71  1  0.50182399  0.89716500  0.89714704  1
  Sc  Sc72  1  0.29652125  0.09511406  0.89827690  1
  Sc  Sc73  1  0.89311095  0.49486066  0.10388598  1
  Sc  Sc74  1  0.10053689  0.29545074  0.70035365  1
  Sc  Sc75  1  0.09908686  0.71224251  0.70607690  1
  Sc  Sc76  1  0.50758219  0.49342015  0.89431349  1
  Sc  Sc77  1  0.89476466  0.29915995  0.30156195  1
  Sc  Sc78  1  0.29433683  0.29586999  0.88961090  1
  Sc  Sc79  1  0.50543413  0.11438019  0.50527754  1
  Sc  Sc80  1  0.29557255  0.09161195  0.09921551  1
  Sc  Sc81  1  0.70117663  0.29401553  0.49139667  1
  Sc  Sc82  1  0.09525986  0.30090311  0.49845012  1
  Sc  Sc83  1  0.90261341  0.49965515  0.49864828  1
  Sc  Sc84  1  0.70564550  0.29659739  0.70230412  1
  Sc  Sc85  1  0.90522579  0.89785594  0.69606538  1
  Sc  Sc86  1  0.30118499  0.70425062  0.90867548  1
  Sc  Sc87  1  0.70662247  0.89740743  0.09279184  1
  Sc  Sc88  1  0.50645369  0.30646245  0.49626245  1
  Sc  Sc89  1  0.70304648  0.50326409  0.70367858  1
  Sc  Sc90  1  0.89978760  0.50192853  0.70172707  1
  Sc  Sc91  1  0.89703418  0.50777236  0.30055329  1
  Sc  Sc92  1  0.09733656  0.90066905  0.49881979  1
  Sc  Sc93  1  0.69431677  0.90034295  0.89772384  1
  Sc  Sc94  1  0.49305501  0.30201114  0.29633354  1
  Sc  Sc95  1  0.50019572  0.09322746  0.10693366  1
  Sc  Sc96  1  0.50633478  0.90127011  0.70933343  1
  Sc  Sc97  1  0.90139079  0.09870064  0.50186732  1
  Sc  Sc98  1  0.49443943  0.69787902  0.49812898  1
  Sc  Sc99  1  0.69760650  0.10585518  0.29617702  1
  Nb  Nb100  1  0.90781586  0.69813125  0.29868022  1
  Nb  Nb101  1  0.10183952  0.49916505  0.09544994  1
  Nb  Nb102  1  0.50433080  0.70055303  0.89332998  1
  Nb  Nb103  1  0.49974563  0.70137950  0.70386749  1
  Nb  Nb104  1  0.49058151  0.69880306  0.09398676  1
  Nb  Nb105  1  0.09607271  0.51070530  0.29166592  1
  Nb  Nb106  1  0.89906075  0.89920353  0.29630085  1
  Nb  Nb107  1  0.69860101  0.10337925  0.89293786  1
  Nb  Nb108  1  0.29715117  0.29094888  0.69427885  1
  Nb  Nb109  1  0.29824419  0.88338791  0.10038303  1
  Nb  Nb110  1  0.90508652  0.69595587  0.69930865  1
  Nb  Nb111  1  0.69861609  0.49914633  0.29926754  1
  Nb  Nb112  1  0.30081776  0.11346564  0.69947026  1
  Nb  Nb113  1  0.30064526  0.30265947  0.29763137  1
  Nb  Nb114  1  0.30116078  0.50362255  0.50434069  1
  Nb  Nb115  1  0.30337970  0.70957161  0.10177648  1
  Nb  Nb116  1  0.09558888  0.89582341  0.30608292  1
  Nb  Nb117  1  0.09952434  0.50320652  0.90747862  1
  Nb  Nb118  1  0.90493748  0.90481814  0.10141200  1
  Nb  Nb119  1  0.08942679  0.69368828  0.29923664  1
  Nb  Nb120  1  0.90759064  0.09322227  0.09912782  1
  Nb  Nb121  1  0.49140136  0.10339261  0.70087161  1
  Nb  Nb122  1  0.70021806  0.49663958  0.90643318  1
  Nb  Nb123  1  0.10372613  0.09603304  0.70354906  1
  Nb  Nb124  1  0.10009646  0.30308058  0.10092443  1
  Nb  Nb125  1  0.19695406  0.59592074  0.59778338  1
  Nb  Nb126  1  0.80263024  0.39914509  0.59695431  1
  Nb  Nb127  1  0.39648283  0.00442945  0.60308215  1
  Nb  Nb128  1  0.79778686  0.59708467  -0.00614808  1
  Nb  Nb129  1  -0.00116124  0.80228087  0.20449019  1
  Nb  Nb130  1  0.00878449  0.40260699  0.19763307  1
  Nb  Nb131  1  0.59369248  0.60062090  0.60342020  1
  Nb  Nb132  1  0.00052800  0.59789078  0.00044488  1
  Nb  Nb133  1  0.40113534  0.80246869  0.60607727  1
  Nb  Nb134  1  0.60024428  0.60282105  -0.00557815  1
  Nb  Nb135  1  0.19637585  0.40498895  0.19857299  1
  Nb  Nb136  1  0.40433196  0.60179646  0.80043738  1
  Nb  Nb137  1  0.59540047  0.19429905  0.80101757  1
  Nb  Nb138  1  0.79829981  -0.00540012  0.39559907  1
  Nb  Nb139  1  0.20515877  0.00804149  0.60574053  1
  Nb  Nb140  1  0.00091711  0.79783078  0.00963335  1
  Nb  Nb141  1  0.00128831  0.19991058  0.00847878  1
  Nb  Nb142  1  0.59352969  0.79488708  0.19607815  1
  Nb  Nb143  1  0.79707958  0.00484582  0.79583425  1
  Nb  Nb144  1  0.39585225  0.39738568  0.00059267  1
  Nb  Nb145  1  0.59906703  -0.00182341  0.40029862  1
  Nb  Nb146  1  0.00675266  0.60220578  0.60378680  1
  Nb  Nb147  1  0.59980688  0.19849175  -0.00513438  1
  Nb  Nb148  1  0.40522638  0.00387325  0.40510688  1
  Nb  Nb149  1  0.40527376  0.20184281  0.00002337  1
  Pd  Pd150  1  0.19130742  0.20273853  0.20641290  1
  Pd  Pd151  1  0.60205533  0.60758823  0.40624541  1
  Pd  Pd152  1  -0.01044779  -0.00757045  0.81043883  1
  Pd  Pd153  1  0.19875588  0.79814967  0.39611603  1
  Pd  Pd154  1  0.79754119  0.00725103  -0.00589049  1
  Pd  Pd155  1  0.40435638  0.80389728  -0.00755940  1
  Pd  Pd156  1  0.39610769  0.38893057  0.59015111  1
  Pd  Pd157  1  0.79917383  0.59649857  0.80225959  1
  Pd  Pd158  1  0.80231319  0.40092464  0.40246288  1
  Pd  Pd159  1  0.39938340  0.59773013  0.20487103  1
  Pd  Pd160  1  0.41020452  0.59227130  -0.01199492  1
  Pd  Pd161  1  0.00002622  -0.00155019  -0.00906388  1
  Pd  Pd162  1  -0.00756222  0.80417600  0.39900752  1
  Pd  Pd163  1  0.79432235  -0.00111245  0.20089352  1
  Pd  Pd164  1  0.20088805  0.20260334  -0.00416521  1
  Pd  Pd165  1  0.20439625  -0.00464785  0.20612879  1
  Pd  Pd166  1  0.20877365  0.39315386  0.00509814  1
  Pd  Pd167  1  0.80434691  0.20522809  0.60039582  1
  Pd  Pd168  1  0.60497344  0.00106961  0.00326824  1
  Pd  Pd169  1  0.20820727  0.00526384  0.40578852  1
  Pd  Pd170  1  0.18982021  0.40462865  0.60271838  1
  Pd  Pd171  1  0.59972774  0.79254507  0.39296958  1
  Pd  Pd172  1  0.80067039  0.59900650  0.40349060  1
  Pd  Pd173  1  0.39179224  0.40407856  0.80706371  1
  Pd  Pd174  1  0.58900679  0.00468378  0.59726771  1
  Pd  Pd175  1  0.00719732  -0.00624051  0.20464491  1
  Pd  Pd176  1  0.59560473  0.79550110  0.00541020  1
  Pd  Pd177  1  -0.00700535  0.39964943  0.00514104  1
  Pd  Pd178  1  0.20215397  0.59390873  0.39938487  1
  Pd  Pd179  1  0.59980371  0.59921827  0.79762082  1
  Pd  Pd180  1  0.00749733  0.20553882  0.81116628  1
  Pd  Pd181  1  0.19052958  0.19858612  0.59637261  1
  Pd  Pd182  1  0.39440255  -0.00031319  0.79610160  1
  Pd  Pd183  1  0.00699293  0.20490680  0.20162460  1
  Pd  Pd184  1  0.79420520  0.19829099  0.19491862  1
  Pd  Pd185  1  -0.00285906  0.81208800  0.80918733  1
  Pd  Pd186  1  0.60946425  0.40073212  0.60344691  1
  Pd  Pd187  1  0.80885901  0.79988336  0.60370073  1
  Pd  Pd188  1  0.59983278  0.20813187  0.60759215  1
  Pd  Pd189  1  0.40198832  0.19783358  0.81169627  1
  Pd  Pd190  1  0.38815507  0.00101826  0.20432337  1
  Pd  Pd191  1  0.79797196  0.19024077  0.00941604  1
  Pd  Pd192  1  -0.00250088  0.19693904  0.39402629  1
  Pd  Pd193  1  0.00046890  0.40978985  0.60580206  1
  Pd  Pd194  1  0.80928718  0.80294868  0.40353176  1
  Pd  Pd195  1  0.59715706  0.60669796  0.19344262  1
  Pd  Pd196  1  0.60674854  0.39416061  0.78954230  1
  Pd  Pd197  1  0.80050271  0.80135931  0.19534423  1
  Pd  Pd198  1  0.40701381  0.20445177  0.40300517  1
  Pd  Pd199  1  0.20245903  0.79664475  0.59497404  1
  Rh  Rh200  1  0.80187577  0.59344314  0.59967143  1
  Rh  Rh201  1  0.60706756  0.00664056  0.79201110  1
  Rh  Rh202  1  0.19565219  0.20084405  0.80050265  1
  Rh  Rh203  1  0.59692875  0.19852477  0.39389725  1
  Rh  Rh204  1  -0.00393520  0.59718137  0.19199068  1
  Rh  Rh205  1  0.80125531  0.40764518  0.00274109  1
  Rh  Rh206  1  0.00864714  0.00052272  0.60062988  1
  Rh  Rh207  1  0.20586502  0.59340085  0.20605393  1
  Rh  Rh208  1  0.20654673  -0.00459791  0.00270581  1
  Rh  Rh209  1  0.60619899  -0.01445607  0.20088690  1
  Rh  Rh210  1  0.00362520  0.39609223  0.80172835  1
  Rh  Rh211  1  -0.00151833  0.60092520  0.80087548  1
  Rh  Rh212  1  0.39518268  0.80200609  0.40232656  1
  Rh  Rh213  1  0.59651862  0.40517518  0.00872518  1
  Rh  Rh214  1  0.20683217  0.00443228  0.79474164  1
  Rh  Rh215  1  0.00521653  0.19874483  0.60139815  1
  Rh  Rh216  1  0.40153695  0.19378594  0.19384197  1
  Rh  Rh217  1  0.80653631  0.19009900  0.39761908  1
  Rh  Rh218  1  0.20193188  0.79934875  0.80944139  1
  Rh  Rh219  1  0.19501063  0.19967089  0.39720251  1
  Rh  Rh220  1  0.19988642  0.38963620  0.79329063  1
  Rh  Rh221  1  0.39815415  0.60904672  0.60586563  1
  Rh  Rh222  1  0.80426394  0.40254021  0.21021887  1
  Rh  Rh223  1  0.80650155  0.79465713  0.00529914  1
  Rh  Rh224  1  0.79634725  0.40320441  0.79304120  1
  Rh  Rh225  1  0.60363601  0.40066836  0.20517583  1
  Rh  Rh226  1  0.39826518  0.39680776  0.40371485  1
  Rh  Rh227  1  -0.00265469  0.59547885  0.40555855  1
  Rh  Rh228  1  0.60489799  0.80148921  0.79580285  1
  Rh  Rh229  1  0.19577515  0.79701026  -0.00044369  1
  Rh  Rh230  1  0.60333694  0.20706114  0.19248368  1
  Rh  Rh231  1  0.79953892  0.59531496  0.19847154  1
  Rh  Rh232  1  0.40523101  0.79395681  0.19983897  1
  Rh  Rh233  1  -0.00603015  0.40423125  0.38653490  1
  Rh  Rh234  1  0.00137138  0.79126808  0.59888132  1
  Rh  Rh235  1  0.20618708  0.60605799  0.79747527  1
  Rh  Rh236  1  0.20308387  0.40948962  0.39165240  1
  Rh  Rh237  1  0.39413792  -0.00234493  0.00530121  1
  Rh  Rh238  1  0.39519096  0.59977712  0.39459049  1
  Rh  Rh239  1  0.59331599  0.78788542  0.60535988  1
  Rh  Rh240  1  0.38939420  0.40846771  0.19308260  1
  Rh  Rh241  1  0.39873494  0.20547325  0.59213050  1
  Rh  Rh242  1  0.60002844  0.39850613  0.39596778  1
  Rh  Rh243  1  -0.01049703  -0.00193898  0.39565714  1
  Rh  Rh244  1  0.80882584  0.00238145  0.60029744  1
  Rh  Rh245  1  0.79293988  0.18940410  0.78969026  1
  Rh  Rh246  1  0.19650484  0.61076355  -0.00122709  1
  Rh  Rh247  1  0.39966822  0.79469841  0.80146641  1
  Rh  Rh248  1  0.80204825  0.81240567  0.79063868  1
  Rh  Rh249  1  0.19031037  0.80525421  0.20917870  1
