# generated using pymatgen
data_ZrScNbPdRh
_symmetry_space_group_name_H-M   'P 1'
_cell_length_a   16.56047573
_cell_length_b   16.56329857
_cell_length_c   16.56349603
_cell_angle_alpha   89.97210368
_cell_angle_beta   89.98942435
_cell_angle_gamma   90.01577310
_symmetry_Int_Tables_number   1
_chemical_formula_structural   ZrScNbPdRh
_chemical_formula_sum   'Zr50 Sc50 Nb50 Pd50 Rh50'
_cell_volume   4543.30164071
_cell_formula_units_Z   50
loop_
 _symmetry_equiv_pos_site_id
 _symmetry_equiv_pos_as_xyz
  1  'x, y, z'
loop_
 _atom_site_type_symbol
 _atom_site_label
 _atom_site_symmetry_multiplicity
 _atom_site_fract_x
 _atom_site_fract_y
 _atom_site_fract_z
 _atom_site_occupancy
  Zr  Zr0  1  0.71069523  0.69896196  0.50040043  1
  Zr  Zr1  1  0.50999533  0.10573589  0.50318828  1
  Zr  Zr2  1  0.29799400  0.10572405  0.70011639  1
  Zr  Zr3  1  0.69904174  0.50658278  0.10135221  1
  Zr  Zr4  1  0.29257944  0.29669942  0.30137600  1
  Zr  Zr5  1  0.50333256  0.49124773  0.69762630  1
  Zr  Zr6  1  0.09969486  0.50076287  0.09837522  1
  Zr  Zr7  1  0.49961430  0.89346553  0.49742808  1
  Zr  Zr8  1  0.70661780  0.10110783  0.68775416  1
  Zr  Zr9  1  0.49749277  0.90072227  0.89553351  1
  Zr  Zr10  1  0.49429601  0.70044764  0.30491854  1
  Zr  Zr11  1  0.09025982  0.28932376  0.10388423  1
  Zr  Zr12  1  0.29872397  0.90246308  0.90365333  1
  Zr  Zr13  1  0.50177294  0.70946263  0.69868172  1
  Zr  Zr14  1  0.70295426  0.70256807  0.09999013  1
  Zr  Zr15  1  0.90692362  0.10540462  0.31441438  1
  Zr  Zr16  1  0.29497746  0.49778099  0.90262844  1
  Zr  Zr17  1  0.29884648  0.70323582  0.49995234  1
  Zr  Zr18  1  0.49687516  0.09471137  0.30077882  1
  Zr  Zr19  1  0.29568397  0.09863284  0.11144559  1
  Zr  Zr20  1  0.29550560  0.09912438  0.89748504  1
  Zr  Zr21  1  0.29228545  0.89999382  0.49844747  1
  Zr  Zr22  1  0.50102345  0.70008142  0.10626069  1
  Zr  Zr23  1  0.69723727  0.49227509  0.88934413  1
  Zr  Zr24  1  0.49230938  0.10426566  0.89245871  1
  Zr  Zr25  1  0.69994631  0.90358512  0.90419671  1
  Zr  Zr26  1  0.69393799  0.30004408  0.08940364  1
  Zr  Zr27  1  0.09636930  0.70068911  0.70021578  1
  Zr  Zr28  1  0.51256921  0.30230532  0.90141669  1
  Zr  Zr29  1  0.70336313  0.09519160  0.10030843  1
  Zr  Zr30  1  0.09801147  0.29453581  0.69025458  1
  Zr  Zr31  1  0.29910599  0.29801989  0.68510133  1
  Zr  Zr32  1  0.90312038  0.69772622  0.09885585  1
  Zr  Zr33  1  0.30200372  0.70232584  0.90715474  1
  Zr  Zr34  1  0.09586157  0.09649313  0.70889062  1
  Zr  Zr35  1  0.50125717  0.49896047  0.89827995  1
  Zr  Zr36  1  0.29892306  0.90236135  0.70092247  1
  Zr  Zr37  1  0.90535596  0.90068331  0.70426194  1
  Zr  Zr38  1  0.90822585  0.30133235  0.30206864  1
  Zr  Zr39  1  0.90839261  0.50814478  0.90115430  1
  Zr  Zr40  1  0.91011447  0.29404593  0.49806628  1
  Zr  Zr41  1  0.09914197  0.89690751  0.49688753  1
  Zr  Zr42  1  0.50220262  0.49443321  0.50097979  1
  Zr  Zr43  1  0.09392858  0.29810110  0.30983609  1
  Zr  Zr44  1  0.90234188  0.49910038  0.29670461  1
  Zr  Zr45  1  0.10560623  0.49746620  0.90008202  1
  Zr  Zr46  1  0.29722142  0.50037200  0.10102360  1
  Zr  Zr47  1  0.49964508  0.89435580  0.30345972  1
  Zr  Zr48  1  0.50066353  0.30174317  0.50542529  1
  Zr  Zr49  1  0.89004864  0.49903955  0.70001012  1
  Sc  Sc50  1  0.30154957  0.70495026  0.29466452  1
  Sc  Sc51  1  0.70154187  0.89834594  0.49785558  1
  Sc  Sc52  1  0.70230785  0.90930375  0.10138294  1
  Sc  Sc53  1  0.89431980  0.48837777  0.49745281  1
  Sc  Sc54  1  0.70280405  0.88549095  0.69261623  1
  Sc  Sc55  1  0.50407272  0.30380425  0.30224394  1
  Sc  Sc56  1  0.88765861  0.29096282  0.88895834  1
  Sc  Sc57  1  0.09347539  0.69666704  0.90248776  1
  Sc  Sc58  1  0.10526690  0.70254123  0.09982347  1
  Sc  Sc59  1  0.89738836  0.10364581  0.09669448  1
  Sc  Sc60  1  0.49223439  0.10023808  0.09917643  1
  Sc  Sc61  1  0.90406355  0.51036451  0.10385045  1
  Sc  Sc62  1  0.49295878  0.70207376  0.49679987  1
  Sc  Sc63  1  0.10363186  0.71393065  0.50312707  1
  Sc  Sc64  1  0.10448036  0.90190695  0.31013397  1
  Sc  Sc65  1  0.10070684  0.70597378  0.29698362  1
  Sc  Sc66  1  0.10182343  0.09727142  0.49884993  1
  Sc  Sc67  1  0.90867312  0.89854313  0.50268987  1
  Sc  Sc68  1  0.50487048  0.71005974  0.90837210  1
  Sc  Sc69  1  0.69750891  0.70267006  0.89402058  1
  Sc  Sc70  1  0.89868319  0.09910549  0.89199435  1
  Sc  Sc71  1  0.50142048  0.90278730  0.09527375  1
  Sc  Sc72  1  0.70062038  0.10921845  0.90211249  1
  Sc  Sc73  1  0.89890872  0.69956361  0.29743531  1
  Sc  Sc74  1  0.29818598  0.50090984  0.28911756  1
  Sc  Sc75  1  0.29750277  0.50046954  0.51190901  1
  Sc  Sc76  1  0.29138402  0.30052497  0.89768523  1
  Sc  Sc77  1  0.29971698  0.90123063  0.29888071  1
  Sc  Sc78  1  0.71052396  0.69867167  0.30121464  1
  Sc  Sc79  1  0.49632215  0.30306559  0.10100032  1
  Sc  Sc80  1  0.90924866  0.70282998  0.89324802  1
  Sc  Sc81  1  0.50055118  0.50277993  0.10502693  1
  Sc  Sc82  1  0.89331865  0.70342983  0.70192059  1
  Sc  Sc83  1  0.10688745  0.50262623  0.69905391  1
  Sc  Sc84  1  0.29714262  0.69953871  0.69015930  1
  Sc  Sc85  1  0.70415849  0.09746381  0.31137526  1
  Sc  Sc86  1  0.49569491  0.49877056  0.29391644  1
  Sc  Sc87  1  0.09617252  0.90376348  0.69767674  1
  Sc  Sc88  1  0.69708187  0.29836239  0.49196607  1
  Sc  Sc89  1  0.29729814  0.29886853  0.10410058  1
  Sc  Sc90  1  0.29890979  0.49774312  0.69990624  1
  Sc  Sc91  1  0.09750493  0.49567392  0.29091358  1
  Sc  Sc92  1  0.70376233  0.90063506  0.30300607  1
  Sc  Sc93  1  0.29853859  0.70334184  0.10662689  1
  Sc  Sc94  1  0.50019978  0.29691484  0.69820892  1
  Sc  Sc95  1  0.10361554  0.10154832  0.30330893  1
  Sc  Sc96  1  0.89862096  0.28812823  0.69426666  1
  Sc  Sc97  1  0.70595099  0.10490958  0.49984295  1
  Sc  Sc98  1  0.70465535  0.48679262  0.50140364  1
  Sc  Sc99  1  0.90234063  0.90406982  0.30867285  1
  Nb  Nb100  1  0.70153353  0.48966899  0.30622310  1
  Nb  Nb101  1  0.09495280  0.89827612  0.89906777  1
  Nb  Nb102  1  0.89727226  0.09804975  0.69195029  1
  Nb  Nb103  1  0.70236797  0.50341428  0.69870813  1
  Nb  Nb104  1  0.70068365  0.30053659  0.30244959  1
  Nb  Nb105  1  0.70386908  0.69065762  0.69622748  1
  Nb  Nb106  1  0.89989977  0.90463401  0.09460810  1
  Nb  Nb107  1  0.90249934  0.89600685  0.89637373  1
  Nb  Nb108  1  0.69920505  0.30345892  0.89823233  1
  Nb  Nb109  1  0.30078295  0.10355425  0.50061944  1
  Nb  Nb110  1  0.29971707  0.09965299  0.30665119  1
  Nb  Nb111  1  0.89612469  0.10374815  0.51176342  1
  Nb  Nb112  1  0.09970906  0.10006237  0.90366524  1
  Nb  Nb113  1  0.50098871  0.10062060  0.69523660  1
  Nb  Nb114  1  0.71032122  0.31005152  0.71552125  1
  Nb  Nb115  1  0.10805905  0.30593483  0.50035184  1
  Nb  Nb116  1  0.89817402  0.30278715  0.10491587  1
  Nb  Nb117  1  0.29178883  0.29484975  0.49988837  1
  Nb  Nb118  1  0.90734065  0.69744469  0.49838923  1
  Nb  Nb119  1  0.28674411  0.89294670  0.10296946  1
  Nb  Nb120  1  0.09565957  0.09736022  0.09564775  1
  Nb  Nb121  1  0.10030381  0.89725721  0.09462784  1
  Nb  Nb122  1  0.49908896  0.90258202  0.69534952  1
  Nb  Nb123  1  0.09803390  0.49737091  0.50082870  1
  Nb  Nb124  1  0.09557449  0.29774413  0.90369937  1
  Nb  Nb125  1  0.39102180  0.39283132  0.40443999  1
  Nb  Nb126  1  0.19205301  0.00038542  0.00312863  1
  Nb  Nb127  1  0.60095599  0.79912956  0.20186463  1
  Nb  Nb128  1  0.39740262  0.40290154  -0.00247970  1
  Nb  Nb129  1  0.19411770  0.59852078  0.40402389  1
  Nb  Nb130  1  0.80723047  0.80517791  -0.00093084  1
  Nb  Nb131  1  0.00500825  0.59903422  0.40657631  1
  Nb  Nb132  1  0.59762175  0.00159383  0.78911821  1
  Nb  Nb133  1  0.00192633  0.39570889  0.80376307  1
  Nb  Nb134  1  0.40232534  0.60125470  0.80221832  1
  Nb  Nb135  1  0.79650634  0.39598360  0.19814327  1
  Nb  Nb136  1  -0.00095520  0.81185336  0.19219284  1
  Nb  Nb137  1  0.40485861  0.00445944  0.60020067  1
  Nb  Nb138  1  0.19739594  0.80399850  0.80524924  1
  Nb  Nb139  1  0.60511391  0.59468713  0.40324924  1
  Nb  Nb140  1  0.80314467  0.39986554  0.00065031  1
  Nb  Nb141  1  0.60775204  0.19859695  0.20221511  1
  Nb  Nb142  1  0.39342324  0.19930822  0.40296082  1
  Nb  Nb143  1  0.79777487  0.20723859  0.20364399  1
  Nb  Nb144  1  0.00400013  -0.00163224  0.19136023  1
  Nb  Nb145  1  -0.00404416  0.39167130  -0.00340309  1
  Nb  Nb146  1  -0.00296867  0.59936490  0.59261785  1
  Nb  Nb147  1  0.79858520  -0.00288252  0.79417215  1
  Nb  Nb148  1  0.00302137  -0.00271668  -0.00260405  1
  Nb  Nb149  1  0.60856270  0.59934485  0.60058337  1
  Pd  Pd150  1  0.40680317  0.20512395  0.20902475  1
  Pd  Pd151  1  0.39642501  -0.00928008  0.19583048  1
  Pd  Pd152  1  0.80330100  0.59250730  0.40282229  1
  Pd  Pd153  1  0.81170951  0.00876160  0.20837163  1
  Pd  Pd154  1  0.59278877  0.60458812  0.79471371  1
  Pd  Pd155  1  0.19661509  0.20638334  0.79879705  1
  Pd  Pd156  1  0.60718740  0.19582080  0.79216682  1
  Pd  Pd157  1  0.19279153  0.39309559  0.19757278  1
  Pd  Pd158  1  0.80894108  0.80093860  0.59672148  1
  Pd  Pd159  1  0.40384227  0.59653681  0.00013073  1
  Pd  Pd160  1  0.60493845  0.80514518  0.79644489  1
  Pd  Pd161  1  0.39112916  -0.00124595  0.00847291  1
  Pd  Pd162  1  0.39347948  0.79371788  0.79669457  1
  Pd  Pd163  1  0.20162096  0.00501407  0.59922158  1
  Pd  Pd164  1  0.60533291  0.60575011  0.21435865  1
  Pd  Pd165  1  0.60188612  0.39543702  0.19972475  1
  Pd  Pd166  1  0.40845919  0.60033428  0.60708260  1
  Pd  Pd167  1  0.59328139  0.19125557  0.00620753  1
  Pd  Pd168  1  -0.00098442  0.40603450  0.60775029  1
  Pd  Pd169  1  0.79704481  0.38780085  0.59799054  1
  Pd  Pd170  1  0.40250790  0.00196421  0.79230030  1
  Pd  Pd171  1  -0.00262723  0.20171351  0.79939283  1
  Pd  Pd172  1  0.60051647  0.60023316  -0.00419612  1
  Pd  Pd173  1  0.39246693  0.58826685  0.39767366  1
  Pd  Pd174  1  0.59369766  0.00937186  -0.00863008  1
  Pd  Pd175  1  0.20874622  0.61014608  0.79900863  1
  Pd  Pd176  1  0.39735210  0.00251287  0.40858441  1
  Pd  Pd177  1  0.80461055  -0.00242652  0.41125593  1
  Pd  Pd178  1  0.19682784  0.60739775  0.00329050  1
  Pd  Pd179  1  0.80268490  0.60638786  0.80698541  1
  Pd  Pd180  1  0.20514373  0.41234597  0.39955258  1
  Pd  Pd181  1  0.39944532  0.80468452  0.01040570  1
  Pd  Pd182  1  0.60223238  0.79247394  0.59292739  1
  Pd  Pd183  1  0.19220591  0.19770926  0.20360115  1
  Pd  Pd184  1  0.60220980  -0.00564573  0.59921658  1
  Pd  Pd185  1  0.00081518  0.00308641  0.59519741  1
  Pd  Pd186  1  0.80444669  0.20379852  0.00219281  1
  Pd  Pd187  1  0.39719133  0.39731747  0.80409719  1
  Pd  Pd188  1  0.19378124  0.39122617  0.79184437  1
  Pd  Pd189  1  -0.01191104  0.19892195  -0.00592151  1
  Pd  Pd190  1  0.80782350  0.80373345  0.40228266  1
  Pd  Pd191  1  0.39389707  0.20904352  -0.00182875  1
  Pd  Pd192  1  0.19236379  -0.00285077  0.20270238  1
  Pd  Pd193  1  0.60102329  -0.00035455  0.20465834  1
  Pd  Pd194  1  0.60557940  -0.00095444  0.40329521  1
  Pd  Pd195  1  0.80127506  0.80813883  0.19587852  1
  Pd  Pd196  1  0.39845741  0.21109098  0.79932500  1
  Pd  Pd197  1  0.20412540  0.19827215  0.00316325  1
  Pd  Pd198  1  0.79802517  0.60458931  -0.01052885  1
  Pd  Pd199  1  0.61187347  0.21387205  0.60804085  1
  Rh  Rh200  1  -0.00306497  0.79410192  0.38999381  1
  Rh  Rh201  1  0.60620196  0.78863738  0.39208018  1
  Rh  Rh202  1  0.00091934  0.00311103  0.40342217  1
  Rh  Rh203  1  0.79593645  0.20902265  0.59715625  1
  Rh  Rh204  1  -0.00246916  0.40271110  0.19034887  1
  Rh  Rh205  1  -0.00712975  0.18718869  0.20139534  1
  Rh  Rh206  1  0.20001386  0.80143264  -0.00642015  1
  Rh  Rh207  1  0.00858953  0.19609561  0.41209089  1
  Rh  Rh208  1  0.39905001  0.39897000  0.19767667  1
  Rh  Rh209  1  0.39048389  0.80356530  0.39995194  1
  Rh  Rh210  1  0.19934649  0.19507337  0.40433916  1
  Rh  Rh211  1  -0.00320516  0.79436318  0.60471904  1
  Rh  Rh212  1  0.39639981  0.80872438  0.59808719  1
  Rh  Rh213  1  -0.00188030  0.59168808  0.78532086  1
  Rh  Rh214  1  0.00685302  0.19176749  0.59577063  1
  Rh  Rh215  1  0.80269839  -0.00771533  0.60071781  1
  Rh  Rh216  1  0.00457795  0.61314792  0.20485424  1
  Rh  Rh217  1  0.40030041  0.19467562  0.59416219  1
  Rh  Rh218  1  0.79309127  0.18947130  0.79416963  1
  Rh  Rh219  1  0.59786802  0.40757213  0.00125520  1
  Rh  Rh220  1  0.19387743  -0.00512334  0.80792529  1
  Rh  Rh221  1  0.59305922  0.19749583  0.39079246  1
  Rh  Rh222  1  0.20270310  0.00326335  0.39921567  1
  Rh  Rh223  1  0.20433887  0.79389964  0.39485409  1
  Rh  Rh224  1  0.80264881  0.59822228  0.59399969  1
  Rh  Rh225  1  0.00607851  0.59856931  0.00363684  1
  Rh  Rh226  1  0.80920216  0.40288450  0.80621929  1
  Rh  Rh227  1  0.39455286  0.39737120  0.59448311  1
  Rh  Rh228  1  0.00799686  0.79928572  0.79650348  1
  Rh  Rh229  1  0.19599780  0.38905842  0.00938570  1
  Rh  Rh230  1  0.79656143  0.59027824  0.20637965  1
  Rh  Rh231  1  0.00296508  0.40478102  0.40376464  1
  Rh  Rh232  1  0.61260611  0.39870481  0.60862666  1
  Rh  Rh233  1  0.19309354  0.80423478  0.20357757  1
  Rh  Rh234  1  0.80915397  -0.00288532  -0.01461296  1
  Rh  Rh235  1  0.19945374  0.60561050  0.20754306  1
  Rh  Rh236  1  0.39542036  0.60232361  0.19808868  1
  Rh  Rh237  1  0.40648261  0.80609625  0.19601363  1
  Rh  Rh238  1  0.80367640  0.20431639  0.40163830  1
  Rh  Rh239  1  0.20019286  0.40210427  0.60099680  1
  Rh  Rh240  1  -0.00515105  0.00301633  0.80424884  1
  Rh  Rh241  1  -0.00601488  0.80081940  0.00306811  1
  Rh  Rh242  1  0.79485998  0.80322717  0.80585021  1
  Rh  Rh243  1  0.80607448  0.39165899  0.39467521  1
  Rh  Rh244  1  0.61063339  0.80324553  0.01049122  1
  Rh  Rh245  1  0.19007303  0.60140924  0.59165183  1
  Rh  Rh246  1  0.59937325  0.39597472  0.79221291  1
  Rh  Rh247  1  0.19739557  0.80485841  0.60967850  1
  Rh  Rh248  1  0.19141698  0.19258326  0.59687153  1
  Rh  Rh249  1  0.59043742  0.40537059  0.39647746  1
