# generated using pymatgen
data_ZrScNbPdRh
_symmetry_space_group_name_H-M   'P 1'
_cell_length_a   16.56393426
_cell_length_b   16.57118592
_cell_length_c   16.56632225
_cell_angle_alpha   89.99749426
_cell_angle_beta   89.99779068
_cell_angle_gamma   90.00076934
_symmetry_Int_Tables_number   1
_chemical_formula_structural   ZrScNbPdRh
_chemical_formula_sum   'Zr50 Sc50 Nb50 Pd50 Rh50'
_cell_volume   4547.19095455
_cell_formula_units_Z   50
loop_
 _symmetry_equiv_pos_site_id
 _symmetry_equiv_pos_as_xyz
  1  'x, y, z'
loop_
 _atom_site_type_symbol
 _atom_site_label
 _atom_site_symmetry_multiplicity
 _atom_site_fract_x
 _atom_site_fract_y
 _atom_site_fract_z
 _atom_site_occupancy
  Zr  Zr0  1  0.10660840  0.50105458  0.09099469  1
  Zr  Zr1  1  0.90318161  0.49691077  0.70363599  1
  Zr  Zr2  1  0.49831021  0.50084595  0.50159607  1
  Zr  Zr3  1  0.68670692  0.49972901  0.50097187  1
  Zr  Zr4  1  0.69693909  0.70379915  0.30106633  1
  Zr  Zr5  1  0.09821118  0.70051165  0.69286742  1
  Zr  Zr6  1  0.89606581  0.70114614  0.29746378  1
  Zr  Zr7  1  0.69879153  0.29223986  0.09417618  1
  Zr  Zr8  1  0.49719949  0.91776671  0.10766731  1
  Zr  Zr9  1  0.09955168  0.30561461  0.10528788  1
  Zr  Zr10  1  0.29783464  0.50705238  0.49959450  1
  Zr  Zr11  1  0.50252828  0.09031057  0.29112893  1
  Zr  Zr12  1  0.09689708  0.90632003  0.89959234  1
  Zr  Zr13  1  0.89419566  0.49190812  0.29394704  1
  Zr  Zr14  1  0.69899837  0.90112770  0.50956424  1
  Zr  Zr15  1  0.50601743  0.88788243  0.70512273  1
  Zr  Zr16  1  0.30719194  0.10588648  0.09692010  1
  Zr  Zr17  1  0.49908893  0.28834610  0.10358144  1
  Zr  Zr18  1  0.50429803  0.30236777  0.50606067  1
  Zr  Zr19  1  0.49288906  0.71100306  0.31193656  1
  Zr  Zr20  1  0.49820394  0.10337038  0.90090797  1
  Zr  Zr21  1  0.69202987  0.09700933  0.50366671  1
  Zr  Zr22  1  0.50369740  0.90041210  0.90554787  1
  Zr  Zr23  1  0.90166095  0.30302312  0.71025071  1
  Zr  Zr24  1  0.90226764  0.70035145  0.50548064  1
  Zr  Zr25  1  0.10109607  0.90426698  0.29167401  1
  Zr  Zr26  1  0.11587078  0.09370351  0.48894725  1
  Zr  Zr27  1  0.90322905  0.48991531  0.09585845  1
  Zr  Zr28  1  0.09329406  0.10631778  0.09924914  1
  Zr  Zr29  1  0.68922960  0.90322407  0.30203134  1
  Zr  Zr30  1  0.50188359  0.29780313  0.29596597  1
  Zr  Zr31  1  0.29719991  0.10652780  0.89527945  1
  Zr  Zr32  1  0.30546356  0.69823917  0.89996878  1
  Zr  Zr33  1  0.89219123  0.69778234  0.69405098  1
  Zr  Zr34  1  0.10244166  0.50044772  0.50334136  1
  Zr  Zr35  1  0.09634667  0.30020817  0.70382971  1
  Zr  Zr36  1  0.30966342  0.70436427  0.70263449  1
  Zr  Zr37  1  0.30360711  0.30152528  0.90356571  1
  Zr  Zr38  1  0.89437622  0.90686782  0.89663335  1
  Zr  Zr39  1  0.31539327  0.69665094  0.49345764  1
  Zr  Zr40  1  0.30503090  0.89811607  0.09221977  1
  Zr  Zr41  1  0.89537787  0.91450592  0.09618719  1
  Zr  Zr42  1  0.50227569  0.49660740  0.89378439  1
  Zr  Zr43  1  0.69959274  0.70376890  0.50582334  1
  Zr  Zr44  1  0.29392417  0.69657606  0.09925768  1
  Zr  Zr45  1  0.89828524  0.90059819  0.29155186  1
  Zr  Zr46  1  0.28734171  0.09700810  0.31444674  1
  Zr  Zr47  1  0.89839870  0.69473143  0.89664753  1
  Zr  Zr48  1  0.30215560  0.91083563  0.50320569  1
  Zr  Zr49  1  0.09595539  0.90303828  0.09773092  1
  Sc  Sc50  1  0.88751194  0.30008849  0.90014537  1
  Sc  Sc51  1  0.31197059  0.90382536  0.29790260  1
  Sc  Sc52  1  0.89826237  0.29556919  0.29390882  1
  Sc  Sc53  1  0.30130302  0.50160030  0.30308559  1
  Sc  Sc54  1  0.30824512  0.09731255  0.70118552  1
  Sc  Sc55  1  0.10434330  0.89375998  0.50955581  1
  Sc  Sc56  1  0.09840390  0.70285054  0.91159790  1
  Sc  Sc57  1  0.10552972  0.48689201  0.29641043  1
  Sc  Sc58  1  0.89619106  0.10192568  0.90250159  1
  Sc  Sc59  1  0.89728052  0.48859239  0.89804425  1
  Sc  Sc60  1  0.69495164  0.29281186  0.71484499  1
  Sc  Sc61  1  0.30265124  0.30134804  0.50290578  1
  Sc  Sc62  1  0.90411102  0.69711592  0.09455774  1
  Sc  Sc63  1  0.70570280  0.49130005  0.10573910  1
  Sc  Sc64  1  0.10970911  0.89834725  0.70014814  1
  Sc  Sc65  1  0.88917259  0.88813396  0.50825071  1
  Sc  Sc66  1  0.49488605  0.47785378  0.10706492  1
  Sc  Sc67  1  0.69705197  0.49681380  0.29873542  1
  Sc  Sc68  1  0.09936465  0.30609268  0.49636865  1
  Sc  Sc69  1  0.49438635  0.72650401  0.09106034  1
  Sc  Sc70  1  0.70378046  0.10125776  0.10175275  1
  Sc  Sc71  1  0.90595269  0.49783364  0.50584768  1
  Sc  Sc72  1  0.29925534  0.29706802  0.70692825  1
  Sc  Sc73  1  0.29575649  0.30073749  0.29547085  1
  Sc  Sc74  1  0.50151487  0.49425497  0.30705621  1
  Sc  Sc75  1  0.70773362  0.29661974  0.29885664  1
  Sc  Sc76  1  0.10526088  0.69320849  0.50769086  1
  Sc  Sc77  1  0.29828689  0.90595741  0.88888868  1
  Sc  Sc78  1  0.88694772  0.09383996  0.50143022  1
  Sc  Sc79  1  0.10143577  0.29261404  0.29671731  1
  Sc  Sc80  1  0.10308824  0.10393349  0.89568147  1
  Sc  Sc81  1  0.30298539  0.49869708  0.70395823  1
  Sc  Sc82  1  0.69691198  0.09715652  0.70163600  1
  Sc  Sc83  1  0.10444011  0.69934905  0.09329935  1
  Sc  Sc84  1  0.10461238  0.29983852  0.89867468  1
  Sc  Sc85  1  0.89989052  0.29608747  0.09962766  1
  Sc  Sc86  1  0.50289279  0.29982304  0.70136735  1
  Sc  Sc87  1  0.10094589  0.49247930  0.69267255  1
  Sc  Sc88  1  0.69758931  0.50824371  0.71040510  1
  Sc  Sc89  1  0.50388073  0.50321655  0.69991778  1
  Sc  Sc90  1  0.69874047  0.29771450  0.49413581  1
  Sc  Sc91  1  0.10762675  0.70161218  0.28515296  1
  Sc  Sc92  1  0.69017290  0.90792630  0.09300843  1
  Sc  Sc93  1  0.49912786  0.70454568  0.88753970  1
  Sc  Sc94  1  0.70163746  0.10751806  0.90206757  1
  Sc  Sc95  1  0.50185009  0.90208147  0.50123538  1
  Sc  Sc96  1  0.50308623  0.10998652  0.69578794  1
  Sc  Sc97  1  0.89739926  0.30419277  0.49037289  1
  Sc  Sc98  1  0.30240483  0.49271932  0.90425809  1
  Sc  Sc99  1  0.10302955  0.09995408  0.29000032  1
  Nb  Nb100  1  0.30510560  0.69850324  0.30480066  1
  Nb  Nb101  1  0.30489423  0.89371618  0.69718810  1
  Nb  Nb102  1  0.50212462  0.70053711  0.69711649  1
  Nb  Nb103  1  0.89916608  0.10237939  0.70102388  1
  Nb  Nb104  1  0.51549418  0.30142519  0.90190791  1
  Nb  Nb105  1  0.30313564  0.49479307  0.09794543  1
  Nb  Nb106  1  0.89348468  0.09807875  0.29455651  1
  Nb  Nb107  1  0.50157716  0.90427243  0.29647243  1
  Nb  Nb108  1  0.70506980  0.10169489  0.30251555  1
  Nb  Nb109  1  0.30729254  0.31766720  0.09747746  1
  Nb  Nb110  1  0.69955252  0.89924435  0.89270488  1
  Nb  Nb111  1  0.69796562  0.69856014  0.09724992  1
  Nb  Nb112  1  0.49779912  0.10609535  0.50390104  1
  Nb  Nb113  1  0.30725781  0.10227076  0.50386659  1
  Nb  Nb114  1  0.89369782  0.10162928  0.10727349  1
  Nb  Nb115  1  0.70400482  0.89753282  0.70509989  1
  Nb  Nb116  1  0.89462043  0.90514562  0.69739028  1
  Nb  Nb117  1  0.69587147  0.30473056  0.90184482  1
  Nb  Nb118  1  0.09868013  0.50684467  0.90305652  1
  Nb  Nb119  1  0.50070221  0.69867840  0.51053633  1
  Nb  Nb120  1  0.69101401  0.70035350  0.70855889  1
  Nb  Nb121  1  0.09351205  0.10681424  0.69835633  1
  Nb  Nb122  1  0.70081688  0.69234587  0.89435929  1
  Nb  Nb123  1  0.50319765  0.10409042  0.10194381  1
  Nb  Nb124  1  0.69756023  0.49977746  0.89992651  1
  Nb  Nb125  1  0.00490516  0.79824447  0.39804113  1
  Nb  Nb126  1  0.80470439  0.20304413  0.60575830  1
  Nb  Nb127  1  0.40347606  0.60387002  0.19610316  1
  Nb  Nb128  1  -0.00043050  0.59284186  0.19933293  1
  Nb  Nb129  1  0.40395907  0.19355165  0.40439784  1
  Nb  Nb130  1  0.79676199  0.39578623  0.60587030  1
  Nb  Nb131  1  -0.00135523  0.60205047  0.39218185  1
  Nb  Nb132  1  0.79090295  0.59943908  -0.00373650  1
  Nb  Nb133  1  0.19476439  0.60056643  0.80337098  1
  Nb  Nb134  1  0.79799071  -0.00228893  0.39486893  1
  Nb  Nb135  1  -0.00566058  -0.00329217  0.40178790  1
  Nb  Nb136  1  -0.00483510  0.18598380  0.40106358  1
  Nb  Nb137  1  -0.00514395  0.80101473  0.79596041  1
  Nb  Nb138  1  0.59865993  0.60023880  0.00377410  1
  Nb  Nb139  1  -0.00311131  0.00496666  0.60231761  1
  Nb  Nb140  1  0.20532342  0.79695640  0.39620507  1
  Nb  Nb141  1  0.00477369  0.60100032  0.80084638  1
  Nb  Nb142  1  0.59441901  0.19168787  0.39796416  1
  Nb  Nb143  1  0.80135878  0.60173900  0.40251012  1
  Nb  Nb144  1  0.40729965  0.59616212  0.00839388  1
  Nb  Nb145  1  0.58985337  0.60763742  0.19101887  1
  Nb  Nb146  1  0.79055791  0.79756466  -0.00448579  1
  Nb  Nb147  1  -0.00121993  0.19371225  0.59522094  1
  Nb  Nb148  1  0.79316150  0.80051235  0.18979540  1
  Nb  Nb149  1  0.19609579  0.19409574  0.60103723  1
  Pd  Pd150  1  0.19701213  0.40733274  0.80449588  1
  Pd  Pd151  1  0.19878839  0.00715088  0.61131653  1
  Pd  Pd152  1  -0.00408266  0.20073282  0.80921334  1
  Pd  Pd153  1  0.40967106  -0.00310739  0.61074316  1
  Pd  Pd154  1  0.80189556  0.79936454  0.79889486  1
  Pd  Pd155  1  -0.00898820  0.80420687  -0.00379013  1
  Pd  Pd156  1  0.60490859  0.01065738  -0.00191765  1
  Pd  Pd157  1  0.18954373  0.60611220  0.39274097  1
  Pd  Pd158  1  -0.00169988  0.01233686  -0.00256445  1
  Pd  Pd159  1  0.21359912  0.79229613  0.59089079  1
  Pd  Pd160  1  -0.00426760  0.79228286  0.19427981  1
  Pd  Pd161  1  0.20783618  0.00011714  0.18984206  1
  Pd  Pd162  1  0.00137920  0.39687183  0.39333750  1
  Pd  Pd163  1  0.40292392  0.20575678  -0.00323208  1
  Pd  Pd164  1  0.40631439  0.20694641  0.79907802  1
  Pd  Pd165  1  0.59908328  0.60203306  0.39459394  1
  Pd  Pd166  1  0.00207776  -0.00316461  0.79211439  1
  Pd  Pd167  1  0.60525190  0.79655491  -0.00930785  1
  Pd  Pd168  1  0.59311685  -0.00190204  0.61033590  1
  Pd  Pd169  1  0.60524660  0.39903331  0.20253076  1
  Pd  Pd170  1  0.59854750  0.00550768  0.79915962  1
  Pd  Pd171  1  0.39683762  0.39976226  0.60662994  1
  Pd  Pd172  1  0.79033897  0.59104759  0.59745501  1
  Pd  Pd173  1  -0.00499627  0.20232287  -0.00464475  1
  Pd  Pd174  1  0.20049657  0.00363986  0.00106244  1
  Pd  Pd175  1  0.39009122  0.19538609  0.20974527  1
  Pd  Pd176  1  0.59342540  0.80337906  0.41028690  1
  Pd  Pd177  1  0.40672376  -0.00276165  0.79410470  1
  Pd  Pd178  1  0.61029002  0.39599638  0.61232963  1
  Pd  Pd179  1  0.39585913  0.39352933  0.39868874  1
  Pd  Pd180  1  0.20875083  0.20489464  0.19070535  1
  Pd  Pd181  1  0.20408283  0.39494244  0.40052948  1
  Pd  Pd182  1  0.40104412  0.59609318  0.60770271  1
  Pd  Pd183  1  0.40580265  0.39465726  0.79849693  1
  Pd  Pd184  1  0.00215405  0.39103852  -0.00838158  1
  Pd  Pd185  1  0.59977632  0.79981489  0.19634469  1
  Pd  Pd186  1  0.39747843  0.00239525  -0.00567423  1
  Pd  Pd187  1  0.21054691  0.80549409  0.20318137  1
  Pd  Pd188  1  0.40865867  0.00209469  0.40113719  1
  Pd  Pd189  1  0.79524719  0.40964712  0.40773493  1
  Pd  Pd190  1  0.79428273  0.00936674  0.79984188  1
  Pd  Pd191  1  0.79806936  0.60234945  0.19622642  1
  Pd  Pd192  1  0.39506856  0.79862668  0.20133782  1
  Pd  Pd193  1  0.19344595  0.79417233  0.80577171  1
  Pd  Pd194  1  0.20008781  0.00542233  0.78991139  1
  Pd  Pd195  1  0.20688440  0.39259490  0.60155150  1
  Pd  Pd196  1  0.60069242  0.40463075  0.00505429  1
  Pd  Pd197  1  0.20174256  0.59168614  0.20280751  1
  Pd  Pd198  1  0.20158125  0.20804563  0.00631528  1
  Pd  Pd199  1  0.20258902  0.80679104  -0.00736806  1
  Rh  Rh200  1  0.39733581  0.59735964  0.80363752  1
  Rh  Rh201  1  0.79764140  0.38879750  0.19571928  1
  Rh  Rh202  1  -0.00167483  0.81402213  0.60510229  1
  Rh  Rh203  1  0.79967323  0.20205481  0.19528895  1
  Rh  Rh204  1  0.40995016  0.59441975  0.39561974  1
  Rh  Rh205  1  0.00005725  0.00980538  0.19808651  1
  Rh  Rh206  1  0.00372109  0.59164842  0.60161429  1
  Rh  Rh207  1  0.79014451  -0.00467543  0.20315453  1
  Rh  Rh208  1  -0.00872176  0.39013436  0.59737463  1
  Rh  Rh209  1  0.20362006  0.20915377  0.40970482  1
  Rh  Rh210  1  0.79751988  0.19770619  0.80011065  1
  Rh  Rh211  1  0.19758477  0.39757749  -0.00240104  1
  Rh  Rh212  1  0.80711214  0.59095798  0.80400816  1
  Rh  Rh213  1  0.39245879  0.00758239  0.19991336  1
  Rh  Rh214  1  0.60274257  0.79696421  0.60346062  1
  Rh  Rh215  1  0.80035684  0.20059063  0.00082379  1
  Rh  Rh216  1  0.00873864  0.40657886  0.80746158  1
  Rh  Rh217  1  -0.00411910  0.19649851  0.20578638  1
  Rh  Rh218  1  0.78842102  0.79649767  0.61337809  1
  Rh  Rh219  1  0.59897368  0.19526571  -0.00122401  1
  Rh  Rh220  1  0.80407029  0.80295808  0.39033290  1
  Rh  Rh221  1  0.59826347  0.19729469  0.80613000  1
  Rh  Rh222  1  0.79994924  0.00280990  0.60230448  1
  Rh  Rh223  1  0.59229991  0.60189713  0.80278590  1
  Rh  Rh224  1  -0.00974625  0.59379137  0.00155146  1
  Rh  Rh225  1  0.39476288  0.40483097  0.20965901  1
  Rh  Rh226  1  0.60306922  0.38732775  0.39403228  1
  Rh  Rh227  1  0.59955343  0.00357531  0.40079162  1
  Rh  Rh228  1  0.00181098  0.40078361  0.20081243  1
  Rh  Rh229  1  0.39552452  0.80364029  -0.01001698  1
  Rh  Rh230  1  0.79394702  -0.00041743  -0.00434693  1
  Rh  Rh231  1  0.20237678  0.19619838  0.79287995  1
  Rh  Rh232  1  0.60730828  0.19490129  0.20453063  1
  Rh  Rh233  1  0.40198858  0.80383728  0.59671958  1
  Rh  Rh234  1  0.59996560  0.60524941  0.60651025  1
  Rh  Rh235  1  0.60338189  0.79826098  0.80408793  1
  Rh  Rh236  1  0.40159716  0.80735832  0.80197212  1
  Rh  Rh237  1  0.20461805  0.40027234  0.19734416  1
  Rh  Rh238  1  0.40961892  0.39837361  -0.00479139  1
  Rh  Rh239  1  0.79780803  0.18947211  0.40637106  1
  Rh  Rh240  1  0.40026893  0.81064518  0.40620007  1
  Rh  Rh241  1  0.21280873  0.59618081  -0.00731751  1
  Rh  Rh242  1  0.21087115  0.60066711  0.61088133  1
  Rh  Rh243  1  0.79323402  0.40061566  -0.00121919  1
  Rh  Rh244  1  0.39289528  0.20599175  0.59844885  1
  Rh  Rh245  1  0.19572993  -0.01731908  0.39778433  1
  Rh  Rh246  1  0.60162174  0.40035955  0.79755384  1
  Rh  Rh247  1  0.60843772  0.20614282  0.59658061  1
  Rh  Rh248  1  0.78894094  0.40159648  0.79821083  1
  Rh  Rh249  1  0.60721275  0.00649325  0.19645954  1
