# generated using pymatgen
data_ZrScNbPdRh
_symmetry_space_group_name_H-M   'P 1'
_cell_length_a   16.55386888
_cell_length_b   16.55248790
_cell_length_c   16.55369160
_cell_angle_alpha   90.02539849
_cell_angle_beta   90.05299647
_cell_angle_gamma   90.04230825
_symmetry_Int_Tables_number   1
_chemical_formula_structural   ZrScNbPdRh
_chemical_formula_sum   'Zr50 Sc50 Nb50 Pd50 Rh50'
_cell_volume   4535.83557549
_cell_formula_units_Z   50
loop_
 _symmetry_equiv_pos_site_id
 _symmetry_equiv_pos_as_xyz
  1  'x, y, z'
loop_
 _atom_site_type_symbol
 _atom_site_label
 _atom_site_symmetry_multiplicity
 _atom_site_fract_x
 _atom_site_fract_y
 _atom_site_fract_z
 _atom_site_occupancy
  Zr  Zr0  1  0.29463121  0.10147326  0.88977323  1
  Zr  Zr1  1  0.50137139  0.69934511  0.29854966  1
  Zr  Zr2  1  0.88856294  0.70682296  0.29448019  1
  Zr  Zr3  1  0.10258818  0.89625522  0.70121871  1
  Zr  Zr4  1  0.90511489  0.50173068  0.50693573  1
  Zr  Zr5  1  0.09479970  0.90300193  0.09662103  1
  Zr  Zr6  1  0.10082406  0.90334749  0.29789245  1
  Zr  Zr7  1  0.69495631  0.90294667  0.50508812  1
  Zr  Zr8  1  0.09932544  0.28820672  0.29994528  1
  Zr  Zr9  1  0.29567697  0.90139147  0.29957279  1
  Zr  Zr10  1  0.08936740  0.29753957  0.50163628  1
  Zr  Zr11  1  0.09586658  0.09002320  0.89586552  1
  Zr  Zr12  1  0.70075781  0.29282326  0.69964244  1
  Zr  Zr13  1  0.30324952  0.90801575  0.49477353  1
  Zr  Zr14  1  0.50015795  0.90148752  0.50555764  1
  Zr  Zr15  1  0.69471816  0.10241295  0.09975044  1
  Zr  Zr16  1  0.69980258  0.49644237  0.50340758  1
  Zr  Zr17  1  0.50840839  0.90505293  0.69692632  1
  Zr  Zr18  1  0.31403539  0.09693155  0.10522961  1
  Zr  Zr19  1  0.50696649  0.30794947  0.30812138  1
  Zr  Zr20  1  0.09705301  0.49933974  0.50219662  1
  Zr  Zr21  1  0.10604005  0.90074110  0.89670766  1
  Zr  Zr22  1  0.49094826  0.30410118  0.90293860  1
  Zr  Zr23  1  0.29747224  0.49970076  0.09557047  1
  Zr  Zr24  1  0.10686771  0.69713502  0.90285529  1
  Zr  Zr25  1  0.30624733  0.70410977  0.28978123  1
  Zr  Zr26  1  0.70463902  0.50335915  0.09781200  1
  Zr  Zr27  1  0.09259903  0.69376820  0.50202092  1
  Zr  Zr28  1  0.30556409  0.89281149  0.10017978  1
  Zr  Zr29  1  0.10673413  0.29131099  0.10479010  1
  Zr  Zr30  1  0.69662297  0.50370648  0.91213411  1
  Zr  Zr31  1  0.10004502  0.50042279  0.09462047  1
  Zr  Zr32  1  0.30279771  0.09466934  0.30306632  1
  Zr  Zr33  1  0.30131546  0.50127668  0.50165036  1
  Zr  Zr34  1  0.89902511  0.69611042  0.09491089  1
  Zr  Zr35  1  0.29845620  0.29548928  0.70778435  1
  Zr  Zr36  1  0.49718882  0.09661294  0.51129803  1
  Zr  Zr37  1  0.10896286  0.70355061  0.70330432  1
  Zr  Zr38  1  0.49137167  0.50285799  0.70225581  1
  Zr  Zr39  1  0.09554275  0.10246846  0.70144275  1
  Zr  Zr40  1  0.89642349  0.69446694  0.50335804  1
  Zr  Zr41  1  0.49692476  0.91363455  0.09460367  1
  Zr  Zr42  1  0.90296299  0.89978779  0.89369710  1
  Zr  Zr43  1  0.89364530  0.29746009  0.88939105  1
  Zr  Zr44  1  0.69450196  0.49397170  0.29334957  1
  Zr  Zr45  1  0.50765222  0.90835214  0.89731491  1
  Zr  Zr46  1  0.30147472  0.69158988  0.70860138  1
  Zr  Zr47  1  0.70334717  0.88872999  0.30951777  1
  Zr  Zr48  1  0.29577793  0.49910374  0.70596759  1
  Zr  Zr49  1  0.69982271  0.69921491  0.69148220  1
  Sc  Sc50  1  0.10661586  0.49388167  0.90123382  1
  Sc  Sc51  1  0.49800682  0.10103029  0.70405228  1
  Sc  Sc52  1  0.89945341  0.89349016  0.69972045  1
  Sc  Sc53  1  0.49966644  0.09759120  0.90369598  1
  Sc  Sc54  1  0.49798343  0.49322028  0.49371346  1
  Sc  Sc55  1  0.09684748  0.50957060  0.30058414  1
  Sc  Sc56  1  0.09973758  0.49149579  0.69938635  1
  Sc  Sc57  1  0.29777165  0.30637684  0.89910388  1
  Sc  Sc58  1  0.09428667  0.09510119  0.11042495  1
  Sc  Sc59  1  0.30120171  0.49585470  0.89728675  1
  Sc  Sc60  1  0.89745471  0.10145128  0.29661829  1
  Sc  Sc61  1  0.50236787  0.30344262  0.50514464  1
  Sc  Sc62  1  0.89890268  0.90247635  0.29164449  1
  Sc  Sc63  1  0.50444605  0.69547141  0.90147229  1
  Sc  Sc64  1  0.49860686  0.69524717  0.69822749  1
  Sc  Sc65  1  0.30179519  0.69707544  0.50018654  1
  Sc  Sc66  1  0.50246025  0.89299603  0.29580755  1
  Sc  Sc67  1  0.89832831  0.49638606  0.90681651  1
  Sc  Sc68  1  0.50109452  0.29839656  0.70263377  1
  Sc  Sc69  1  0.10637422  0.09833190  0.30139242  1
  Sc  Sc70  1  0.30012984  0.90295555  0.91226258  1
  Sc  Sc71  1  0.71623966  0.30383067  0.30496284  1
  Sc  Sc72  1  0.69653183  0.91056703  0.10913828  1
  Sc  Sc73  1  0.51200868  0.50197923  0.09684341  1
  Sc  Sc74  1  0.68962043  0.49954963  0.69600271  1
  Sc  Sc75  1  0.70104398  0.70187084  0.89326833  1
  Sc  Sc76  1  0.70891804  0.10086881  0.29184182  1
  Sc  Sc77  1  0.09744825  0.70476327  0.30116142  1
  Sc  Sc78  1  0.89107421  0.49309921  0.30091658  1
  Sc  Sc79  1  0.90541068  0.70114742  0.69249713  1
  Sc  Sc80  1  0.50038703  0.71327780  0.10392338  1
  Sc  Sc81  1  0.09089210  0.30448397  0.70777043  1
  Sc  Sc82  1  0.30495564  0.29957949  0.09108037  1
  Sc  Sc83  1  0.50134756  0.49844232  0.90037053  1
  Sc  Sc84  1  0.30093157  0.28990818  0.30490455  1
  Sc  Sc85  1  0.70355072  0.29815763  0.09996327  1
  Sc  Sc86  1  0.49759744  0.70568214  0.50398486  1
  Sc  Sc87  1  0.89684264  0.50815719  0.09688282  1
  Sc  Sc88  1  0.29709174  0.89659009  0.69920057  1
  Sc  Sc89  1  0.09715021  0.90024033  0.49021916  1
  Sc  Sc90  1  0.30495905  0.29533820  0.49915418  1
  Sc  Sc91  1  0.10509112  0.69010729  0.09829579  1
  Sc  Sc92  1  0.30764581  0.09974038  0.49715545  1
  Sc  Sc93  1  0.31197574  0.50992930  0.30760242  1
  Sc  Sc94  1  0.89917273  0.29891418  0.48676978  1
  Sc  Sc95  1  0.30611801  0.10169463  0.69983250  1
  Sc  Sc96  1  0.89702814  0.90827261  0.49040714  1
  Sc  Sc97  1  0.69869580  0.30300445  0.89893915  1
  Sc  Sc98  1  0.69326714  0.10621758  0.89729410  1
  Sc  Sc99  1  0.69986011  0.69479242  0.10538562  1
  Nb  Nb100  1  0.49362792  0.29280526  0.10176780  1
  Nb  Nb101  1  0.89413215  0.11185046  0.69736625  1
  Nb  Nb102  1  0.70151045  0.90346743  0.89073818  1
  Nb  Nb103  1  0.69613922  0.70426935  0.30448482  1
  Nb  Nb104  1  0.08871936  0.10067157  0.50790887  1
  Nb  Nb105  1  0.89596910  0.09318318  0.09924413  1
  Nb  Nb106  1  0.29946551  0.70552807  0.90600132  1
  Nb  Nb107  1  0.89780736  0.30805561  0.70447177  1
  Nb  Nb108  1  0.69765141  0.70362870  0.49439044  1
  Nb  Nb109  1  0.49990733  0.49717138  0.30382878  1
  Nb  Nb110  1  0.90583307  0.28435219  0.10371481  1
  Nb  Nb111  1  0.69895909  0.89981090  0.70583715  1
  Nb  Nb112  1  0.90179462  0.90436952  0.09650858  1
  Nb  Nb113  1  0.90274953  0.10210527  0.50991361  1
  Nb  Nb114  1  0.09895295  0.29482065  0.90248570  1
  Nb  Nb115  1  0.89793247  0.09713401  0.89711984  1
  Nb  Nb116  1  0.70526279  0.09928306  0.69060787  1
  Nb  Nb117  1  0.90167841  0.49801197  0.70052209  1
  Nb  Nb118  1  0.50452904  0.10621538  0.29488039  1
  Nb  Nb119  1  0.89826518  0.69831648  0.89808731  1
  Nb  Nb120  1  0.30350383  0.70384027  0.09134396  1
  Nb  Nb121  1  0.90065218  0.29480766  0.29367489  1
  Nb  Nb122  1  0.70851044  0.10415091  0.50412261  1
  Nb  Nb123  1  0.69929080  0.30140036  0.49910201  1
  Nb  Nb124  1  0.50463996  0.10458638  0.10732287  1
  Nb  Nb125  1  0.19442076  0.19456907  -0.00329418  1
  Nb  Nb126  1  0.79978882  0.80790894  -0.00403252  1
  Nb  Nb127  1  0.80249701  0.39697675  0.60316771  1
  Nb  Nb128  1  0.80589309  0.59828803  0.79558017  1
  Nb  Nb129  1  0.60857698  0.81075810  -0.00398345  1
  Nb  Nb130  1  -0.00536640  0.79919574  -0.00205020  1
  Nb  Nb131  1  0.60193627  0.60164676  0.39568125  1
  Nb  Nb132  1  0.60197312  0.00981534  0.40217601  1
  Nb  Nb133  1  -0.00381252  0.59818288  0.80104707  1
  Nb  Nb134  1  0.60859911  0.19495841  0.40613226  1
  Nb  Nb135  1  0.00094578  0.39197141  0.19697402  1
  Nb  Nb136  1  0.19201600  0.19523556  0.59979745  1
  Nb  Nb137  1  -0.00357758  0.19315882  -0.00350291  1
  Nb  Nb138  1  0.79808160  0.00600703  0.79558618  1
  Nb  Nb139  1  0.39633682  0.60596068  0.00314986  1
  Nb  Nb140  1  0.20273785  0.40056398  0.20627864  1
  Nb  Nb141  1  -0.00039464  0.38465211  0.00462585  1
  Nb  Nb142  1  0.40053238  0.79882717  0.80603625  1
  Nb  Nb143  1  0.79225445  0.80089292  0.59619597  1
  Nb  Nb144  1  0.79042396  0.60339101  0.39989174  1
  Nb  Nb145  1  0.19384478  0.00621640  0.59620389  1
  Nb  Nb146  1  0.80118184  -0.00064215  -0.00654226  1
  Nb  Nb147  1  0.40362812  0.40052263  0.20077869  1
  Nb  Nb148  1  0.39532015  0.40171676  0.60560180  1
  Nb  Nb149  1  0.19674187  0.39951460  0.39771955  1
  Pd  Pd150  1  0.59699561  0.39052104  0.00644601  1
  Pd  Pd151  1  0.39463455  0.19398320  -0.00742554  1
  Pd  Pd152  1  0.59584533  0.20569506  -0.00201738  1
  Pd  Pd153  1  -0.00243509  -0.00733664  0.60439151  1
  Pd  Pd154  1  0.19859621  0.19602862  0.41247818  1
  Pd  Pd155  1  0.20357836  0.59842551  0.20518688  1
  Pd  Pd156  1  0.60944084  0.21198748  0.21002531  1
  Pd  Pd157  1  -0.00725922  0.18870911  0.39638629  1
  Pd  Pd158  1  0.19713877  0.59959465  0.60263851  1
  Pd  Pd159  1  0.20219525  0.00035260  0.19337341  1
  Pd  Pd160  1  -0.00702623  0.80816939  0.58951547  1
  Pd  Pd161  1  0.40654115  0.59361691  0.18962601  1
  Pd  Pd162  1  0.60577875  0.60006595  0.80066716  1
  Pd  Pd163  1  0.20200170  0.79264814  0.40372514  1
  Pd  Pd164  1  -0.00180615  0.00715003  0.39317688  1
  Pd  Pd165  1  0.39942046  0.20792742  0.20655814  1
  Pd  Pd166  1  0.59806174  0.19903387  0.59846253  1
  Pd  Pd167  1  0.79390086  0.80492895  0.18825230  1
  Pd  Pd168  1  -0.00718257  0.59469752  0.20440005  1
  Pd  Pd169  1  0.39417528  -0.00801331  0.79902037  1
  Pd  Pd170  1  0.39552187  0.79911226  0.60977309  1
  Pd  Pd171  1  0.20498512  0.00778550  0.01011248  1
  Pd  Pd172  1  0.41295778  0.20078608  0.40249201  1
  Pd  Pd173  1  0.59806324  0.60240992  0.20100448  1
  Pd  Pd174  1  -0.01013182  0.00049875  0.78615307  1
  Pd  Pd175  1  0.59605332  0.39133140  0.19166794  1
  Pd  Pd176  1  0.81033348  0.39698182  0.18831644  1
  Pd  Pd177  1  -0.00233406  0.19991888  0.80076266  1
  Pd  Pd178  1  0.60113531  0.40110652  0.80001048  1
  Pd  Pd179  1  0.20203877  0.60112935  0.39481934  1
  Pd  Pd180  1  0.78897335  0.41176629  0.79538059  1
  Pd  Pd181  1  0.59007383  0.59880733  0.58943367  1
  Pd  Pd182  1  0.20336899  0.80619687  0.58728876  1
  Pd  Pd183  1  0.59651470  0.19734836  0.80093815  1
  Pd  Pd184  1  0.80110037  0.19472079  -0.00241861  1
  Pd  Pd185  1  0.40072893  0.80013444  0.39938972  1
  Pd  Pd186  1  0.00398605  0.79672323  0.19192216  1
  Pd  Pd187  1  0.59378578  0.79290351  0.80059888  1
  Pd  Pd188  1  -0.01332587  0.60239376  0.38800579  1
  Pd  Pd189  1  0.80911260  0.39282202  0.00751527  1
  Pd  Pd190  1  0.19397293  0.79585487  0.19274505  1
  Pd  Pd191  1  -0.00704220  0.80104066  0.40007828  1
  Pd  Pd192  1  0.20333970  0.38736057  0.59473355  1
  Pd  Pd193  1  0.41446745  -0.00098246  0.39064159  1
  Pd  Pd194  1  0.80924243  0.21226361  0.59369464  1
  Pd  Pd195  1  0.00351246  0.40188464  0.38813244  1
  Pd  Pd196  1  0.79719161  0.00798444  0.39814074  1
  Pd  Pd197  1  0.80458247  -0.00780611  0.60651677  1
  Pd  Pd198  1  0.60001449  -0.00260225  0.21235365  1
  Pd  Pd199  1  0.00179727  0.79114093  0.80367323  1
  Rh  Rh200  1  0.40119731  0.80500150  0.19935654  1
  Rh  Rh201  1  -0.00612055  0.20898936  0.60633272  1
  Rh  Rh202  1  0.80622635  0.79708172  0.40829892  1
  Rh  Rh203  1  -0.00557888  0.00060174  0.00114157  1
  Rh  Rh204  1  0.39629147  0.60663642  0.81479846  1
  Rh  Rh205  1  -0.00966879  0.39317400  0.60076669  1
  Rh  Rh206  1  0.40933154  0.41089108  0.00934327  1
  Rh  Rh207  1  0.39016270  0.39879169  0.40108659  1
  Rh  Rh208  1  -0.00295299  0.00195725  0.20655112  1
  Rh  Rh209  1  0.21413316  0.19796753  0.19232910  1
  Rh  Rh210  1  0.21020877  0.59810834  -0.00588981  1
  Rh  Rh211  1  0.19526019  0.59471493  0.80479800  1
  Rh  Rh212  1  0.60591587  0.00143562  0.00083174  1
  Rh  Rh213  1  0.01181294  0.59965839  0.61448468  1
  Rh  Rh214  1  0.40122155  0.00918623  -0.00188851  1
  Rh  Rh215  1  0.00133619  0.59837445  -0.01007399  1
  Rh  Rh216  1  0.80136231  0.19497574  0.40328818  1
  Rh  Rh217  1  0.19490271  0.39623997  0.80340163  1
  Rh  Rh218  1  0.60408753  0.00655752  0.60197697  1
  Rh  Rh219  1  0.79835010  0.19985891  0.19852939  1
  Rh  Rh220  1  0.19596991  0.20187122  0.79968806  1
  Rh  Rh221  1  0.39474091  0.20780734  0.60490070  1
  Rh  Rh222  1  -0.00017643  0.40710093  0.81109293  1
  Rh  Rh223  1  0.79508560  0.19475720  0.79817277  1
  Rh  Rh224  1  0.19489333  0.39030344  0.00301772  1
  Rh  Rh225  1  0.19318058  0.00855791  0.41039394  1
  Rh  Rh226  1  0.80147803  -0.00171793  0.19551607  1
  Rh  Rh227  1  -0.00376274  0.19115910  0.20097924  1
  Rh  Rh228  1  0.59080795  0.80092811  0.40412625  1
  Rh  Rh229  1  0.79838892  0.79585934  0.79177302  1
  Rh  Rh230  1  0.40188965  0.59297969  0.59470282  1
  Rh  Rh231  1  0.40045087  0.39859925  0.79562083  1
  Rh  Rh232  1  0.60417535  0.80435084  0.19294127  1
  Rh  Rh233  1  0.60268129  0.79919589  0.60232683  1
  Rh  Rh234  1  0.79761884  0.59891748  0.60024284  1
  Rh  Rh235  1  0.41433765  0.79652690  -0.00823151  1
  Rh  Rh236  1  0.21248486  0.80610655  0.80821831  1
  Rh  Rh237  1  0.80129191  0.40674415  0.40880817  1
  Rh  Rh238  1  0.59790699  0.39680904  0.60249587  1
  Rh  Rh239  1  0.60754262  0.39944439  0.40215147  1
  Rh  Rh240  1  0.60892041  0.01281355  0.79057504  1
  Rh  Rh241  1  0.59742285  0.61256694  0.00483173  1
  Rh  Rh242  1  0.40723310  -0.00160389  0.20739079  1
  Rh  Rh243  1  0.20529141  -0.00454615  0.78887016  1
  Rh  Rh244  1  0.18990480  0.80141513  0.00543682  1
  Rh  Rh245  1  0.39088054  -0.00187629  0.60735426  1
  Rh  Rh246  1  0.79348167  0.60928545  -0.00828067  1
  Rh  Rh247  1  0.41114319  0.60663733  0.40441446  1
  Rh  Rh248  1  0.40479425  0.20147784  0.80569049  1
  Rh  Rh249  1  0.79818688  0.59889687  0.20911911  1
