# generated using pymatgen
data_ZrScNbPdRh
_symmetry_space_group_name_H-M   'P 1'
_cell_length_a   16.55695815
_cell_length_b   16.55872148
_cell_length_c   16.56182858
_cell_angle_alpha   89.99150541
_cell_angle_beta   89.97689835
_cell_angle_gamma   90.01281443
_symmetry_Int_Tables_number   1
_chemical_formula_structural   ZrScNbPdRh
_chemical_formula_sum   'Zr50 Sc50 Nb50 Pd50 Rh50'
_cell_volume   4540.62448368
_cell_formula_units_Z   50
loop_
 _symmetry_equiv_pos_site_id
 _symmetry_equiv_pos_as_xyz
  1  'x, y, z'
loop_
 _atom_site_type_symbol
 _atom_site_label
 _atom_site_symmetry_multiplicity
 _atom_site_fract_x
 _atom_site_fract_y
 _atom_site_fract_z
 _atom_site_occupancy
  Zr  Zr0  1  0.70553544  0.91040839  0.48665722  1
  Zr  Zr1  1  0.30823624  0.30907741  0.10754984  1
  Zr  Zr2  1  0.30309196  0.90333271  0.69688759  1
  Zr  Zr3  1  0.10043092  0.69900173  0.70438255  1
  Zr  Zr4  1  0.69940340  0.29127278  0.50439185  1
  Zr  Zr5  1  0.30544953  0.10243591  0.69825910  1
  Zr  Zr6  1  0.29649370  0.70186035  0.49681439  1
  Zr  Zr7  1  0.89084926  0.89770609  0.50130754  1
  Zr  Zr8  1  0.10082408  0.49415642  0.50013262  1
  Zr  Zr9  1  0.10224602  0.09673977  0.29944479  1
  Zr  Zr10  1  0.30283596  0.09749592  0.89408820  1
  Zr  Zr11  1  0.10130858  0.49589862  0.69993532  1
  Zr  Zr12  1  0.10050268  0.50378996  0.10026249  1
  Zr  Zr13  1  0.88744014  0.89418016  0.30244155  1
  Zr  Zr14  1  0.30044144  0.49925958  0.48947107  1
  Zr  Zr15  1  0.90139345  0.49463461  0.70543192  1
  Zr  Zr16  1  0.10957814  0.89911087  0.29535764  1
  Zr  Zr17  1  0.89677660  0.09758386  0.50034211  1
  Zr  Zr18  1  0.49627385  0.29434863  0.90866143  1
  Zr  Zr19  1  0.49916062  0.49823839  0.31235990  1
  Zr  Zr20  1  0.50726520  0.49679667  0.09821930  1
  Zr  Zr21  1  0.10020098  0.70184503  0.10421695  1
  Zr  Zr22  1  0.69605271  0.69405019  0.89726236  1
  Zr  Zr23  1  0.49641191  0.90534407  0.69546827  1
  Zr  Zr24  1  0.69574407  0.08670454  0.29734015  1
  Zr  Zr25  1  0.68854277  0.30259572  0.09732888  1
  Zr  Zr26  1  0.29618059  0.09587639  0.31298878  1
  Zr  Zr27  1  0.29736724  0.69589044  0.29474559  1
  Zr  Zr28  1  0.90107489  0.89953691  0.70069261  1
  Zr  Zr29  1  0.09381343  0.09590360  0.10388231  1
  Zr  Zr30  1  0.71135580  0.29801374  0.29617735  1
  Zr  Zr31  1  0.89904649  0.70159644  0.48994735  1
  Zr  Zr32  1  0.69600506  0.10382365  0.89831461  1
  Zr  Zr33  1  0.10214756  0.69511186  0.48982294  1
  Zr  Zr34  1  0.90597161  0.30544986  0.49597626  1
  Zr  Zr35  1  0.90755901  0.69882122  0.09704919  1
  Zr  Zr36  1  0.90651248  0.10820945  0.28773533  1
  Zr  Zr37  1  0.09202973  0.31060959  0.70139516  1
  Zr  Zr38  1  0.29968023  0.30414991  0.30242490  1
  Zr  Zr39  1  0.70150803  0.09582207  0.09926722  1
  Zr  Zr40  1  0.50663609  0.90037899  0.30003469  1
  Zr  Zr41  1  0.70172501  0.11254936  0.70064950  1
  Zr  Zr42  1  0.49957373  0.50316374  0.70259493  1
  Zr  Zr43  1  0.90019198  0.50405706  0.49770374  1
  Zr  Zr44  1  0.49883157  0.89406669  0.89917999  1
  Zr  Zr45  1  0.90644714  0.69948515  0.89864106  1
  Zr  Zr46  1  0.50964389  0.70253033  0.29420505  1
  Zr  Zr47  1  0.09528929  0.10273937  0.91368252  1
  Zr  Zr48  1  0.89672564  0.50053328  0.09692506  1
  Zr  Zr49  1  0.69872650  0.89935308  0.90558058  1
  Sc  Sc50  1  0.09831746  0.90027858  0.90180405  1
  Sc  Sc51  1  0.50454925  0.90661804  0.50383201  1
  Sc  Sc52  1  0.89213516  0.50238597  0.89806009  1
  Sc  Sc53  1  0.49208119  0.87917622  0.10097803  1
  Sc  Sc54  1  0.10987280  0.88771626  0.48904796  1
  Sc  Sc55  1  0.90292050  0.70180914  0.30123351  1
  Sc  Sc56  1  0.09973121  0.70192635  0.29919376  1
  Sc  Sc57  1  0.10525797  0.11594142  0.49665377  1
  Sc  Sc58  1  0.89067148  0.30565225  0.70096168  1
  Sc  Sc59  1  0.09784293  0.10099596  0.70457317  1
  Sc  Sc60  1  0.69758731  0.30098279  0.88809234  1
  Sc  Sc61  1  0.69427927  0.50080998  0.30274569  1
  Sc  Sc62  1  0.88676181  0.29900012  0.10616751  1
  Sc  Sc63  1  0.30121932  0.50157712  0.71116597  1
  Sc  Sc64  1  0.30399244  0.69078106  0.69210958  1
  Sc  Sc65  1  0.69881826  0.70494167  0.49967096  1
  Sc  Sc66  1  0.10960973  0.50388223  0.29899831  1
  Sc  Sc67  1  0.30009537  0.09627626  0.10583925  1
  Sc  Sc68  1  0.09761323  0.29831680  0.30923478  1
  Sc  Sc69  1  0.30293039  0.90289825  0.49648357  1
  Sc  Sc70  1  0.69842168  0.10172420  0.49664593  1
  Sc  Sc71  1  0.49740713  0.49901877  0.89543757  1
  Sc  Sc72  1  0.90045344  0.10371396  0.70195607  1
  Sc  Sc73  1  0.49865242  0.09828865  0.30149054  1
  Sc  Sc74  1  0.09636290  0.69938633  0.90761941  1
  Sc  Sc75  1  0.69869613  0.49900928  0.71435539  1
  Sc  Sc76  1  0.89860733  0.90269835  0.10382300  1
  Sc  Sc77  1  0.89115153  0.50179656  0.30862526  1
  Sc  Sc78  1  0.50347633  0.12024768  0.10130915  1
  Sc  Sc79  1  0.30190082  0.70324746  0.09006065  1
  Sc  Sc80  1  0.90826773  0.90040390  0.90371413  1
  Sc  Sc81  1  0.30353322  0.29815353  0.70202110  1
  Sc  Sc82  1  0.30371814  0.90518219  0.29235403  1
  Sc  Sc83  1  0.30173980  0.31056972  0.90765583  1
  Sc  Sc84  1  0.11237562  0.30067389  0.09249328  1
  Sc  Sc85  1  0.69668113  0.49979735  0.90166231  1
  Sc  Sc86  1  0.68433363  0.69714821  0.09540334  1
  Sc  Sc87  1  0.29855697  0.49375973  0.29310223  1
  Sc  Sc88  1  0.49500727  0.30099734  0.29926668  1
  Sc  Sc89  1  0.29846111  0.89928923  0.90342191  1
  Sc  Sc90  1  0.70839818  0.90245229  0.10971539  1
  Sc  Sc91  1  0.49404144  0.10860469  0.49974659  1
  Sc  Sc92  1  0.70099504  0.90430388  0.68002444  1
  Sc  Sc93  1  0.10730407  0.49664067  0.89514989  1
  Sc  Sc94  1  0.49343008  0.29894543  0.70966380  1
  Sc  Sc95  1  0.50056170  0.69274214  0.91474348  1
  Sc  Sc96  1  0.69861752  0.50615514  0.49236585  1
  Sc  Sc97  1  0.29424946  0.49800559  0.09978709  1
  Sc  Sc98  1  0.49232190  0.09855102  0.70666615  1
  Sc  Sc99  1  0.50299471  0.68562684  0.50478179  1
  Nb  Nb100  1  0.90068558  0.30433078  0.29584084  1
  Nb  Nb101  1  0.70019129  0.89798171  0.29971449  1
  Nb  Nb102  1  0.09936840  0.89853044  0.70142711  1
  Nb  Nb103  1  0.11345671  0.89521959  0.10215562  1
  Nb  Nb104  1  0.49606554  0.30400301  0.09881410  1
  Nb  Nb105  1  0.29977930  0.28836730  0.49953333  1
  Nb  Nb106  1  0.30385340  0.69279196  0.89250244  1
  Nb  Nb107  1  0.30025594  0.89596534  0.10164418  1
  Nb  Nb108  1  0.90054515  0.09862363  0.09019322  1
  Nb  Nb109  1  0.49529421  0.69512689  0.09772541  1
  Nb  Nb110  1  0.89994199  0.69980634  0.70481728  1
  Nb  Nb111  1  0.69769909  0.30473710  0.69975587  1
  Nb  Nb112  1  0.70479461  0.49479547  0.10323142  1
  Nb  Nb113  1  0.09770844  0.29957541  0.90484074  1
  Nb  Nb114  1  0.70260575  0.70607022  0.29697482  1
  Nb  Nb115  1  0.30402184  0.51326895  0.89800896  1
  Nb  Nb116  1  0.49551009  0.30316272  0.49728617  1
  Nb  Nb117  1  0.29789366  0.10721532  0.50303723  1
  Nb  Nb118  1  0.69956486  0.69887787  0.69982115  1
  Nb  Nb119  1  0.89882909  0.09814777  0.90788974  1
  Nb  Nb120  1  0.89965106  0.29622271  0.90049624  1
  Nb  Nb121  1  0.49876153  0.09552616  0.90115135  1
  Nb  Nb122  1  0.50293704  0.49192228  0.49817219  1
  Nb  Nb123  1  0.50612541  0.69824234  0.70041472  1
  Nb  Nb124  1  0.10683861  0.30680954  0.50478444  1
  Nb  Nb125  1  0.20504866  0.79678580  0.79759269  1
  Nb  Nb126  1  0.19635232  0.00141117  0.59918134  1
  Nb  Nb127  1  0.80091366  0.19578813  -0.00299168  1
  Nb  Nb128  1  -0.00400668  0.60390633  0.60180302  1
  Nb  Nb129  1  0.59985510  0.79606645  0.79174874  1
  Nb  Nb130  1  -0.00269965  0.39516160  -0.00017664  1
  Nb  Nb131  1  0.20082092  0.19883601  0.20425501  1
  Nb  Nb132  1  0.40773125  0.60165405  0.19524170  1
  Nb  Nb133  1  0.40226689  0.79223615  0.79708056  1
  Nb  Nb134  1  0.40407554  0.39949626  0.59071331  1
  Nb  Nb135  1  0.79908401  -0.00050787  0.80329544  1
  Nb  Nb136  1  0.59168912  0.00078705  0.00044255  1
  Nb  Nb137  1  0.79286571  0.60154294  0.19691105  1
  Nb  Nb138  1  0.80378490  0.60499130  0.60815999  1
  Nb  Nb139  1  -0.00467298  0.39820222  0.19924398  1
  Nb  Nb140  1  -0.00061742  0.20425546  0.81219375  1
  Nb  Nb141  1  0.79608322  0.79954547  0.79809090  1
  Nb  Nb142  1  0.40619841  -0.00044520  0.00192543  1
  Nb  Nb143  1  0.00029336  0.79784329  0.60112768  1
  Nb  Nb144  1  0.80110268  0.79582069  -0.00285369  1
  Nb  Nb145  1  0.19225903  0.20423994  0.80765631  1
  Nb  Nb146  1  0.00000989  -0.00170187  0.40116492  1
  Nb  Nb147  1  0.00826048  -0.00683817  0.59461080  1
  Nb  Nb148  1  0.40512920  0.79679624  0.39659509  1
  Nb  Nb149  1  0.59556684  0.39611841  0.59859529  1
  Pd  Pd150  1  0.60560673  0.80408802  0.19170603  1
  Pd  Pd151  1  -0.00842475  0.59070689  0.21149096  1
  Pd  Pd152  1  0.00442633  0.40575692  0.39134095  1
  Pd  Pd153  1  0.00009155  0.80728486  0.20045345  1
  Pd  Pd154  1  0.59869908  0.80119334  0.59589109  1
  Pd  Pd155  1  0.19890606  0.59360901  0.60072306  1
  Pd  Pd156  1  0.39812924  0.59066804  0.59779882  1
  Pd  Pd157  1  0.40143028  0.60590580  0.39377543  1
  Pd  Pd158  1  0.79579217  0.19400399  0.19344158  1
  Pd  Pd159  1  0.19655221  0.00039230  0.79736877  1
  Pd  Pd160  1  0.00763816  0.21433670  0.18747807  1
  Pd  Pd161  1  0.59707525  0.39720626  0.20814348  1
  Pd  Pd162  1  -0.00073138  0.20175301  0.60569695  1
  Pd  Pd163  1  -0.00297436  -0.01039890  0.20343484  1
  Pd  Pd164  1  0.60078462  0.40084548  -0.00868932  1
  Pd  Pd165  1  0.58816677  -0.00591837  0.18642936  1
  Pd  Pd166  1  0.19763433  0.80403198  0.60469114  1
  Pd  Pd167  1  -0.00033661  0.20009250  0.40278246  1
  Pd  Pd168  1  0.58814289  0.20335692  0.60757186  1
  Pd  Pd169  1  0.39420364  0.19520027  0.20683113  1
  Pd  Pd170  1  0.60610743  -0.00636489  0.79806681  1
  Pd  Pd171  1  0.80720499  0.20220482  0.60065753  1
  Pd  Pd172  1  0.40928905  0.00192133  0.18892474  1
  Pd  Pd173  1  0.39192335  0.19439075  0.00144370  1
  Pd  Pd174  1  0.61056784  0.58957981  0.60162433  1
  Pd  Pd175  1  -0.00320401  0.00691039  0.79890835  1
  Pd  Pd176  1  0.40607420  0.79611322  0.59403622  1
  Pd  Pd177  1  0.59726101  0.20095882  0.39175932  1
  Pd  Pd178  1  0.20248968  0.79689834  -0.00797505  1
  Pd  Pd179  1  0.20025408  0.60097451  -0.00139918  1
  Pd  Pd180  1  0.79926908  0.39155570  -0.00639613  1
  Pd  Pd181  1  0.59951979  0.01364177  0.59576215  1
  Pd  Pd182  1  0.40462973  -0.00428420  0.40546224  1
  Pd  Pd183  1  0.00283586  -0.01172486  0.00781004  1
  Pd  Pd184  1  0.21275908  0.20000365  0.00365813  1
  Pd  Pd185  1  0.79362830  0.60617436  0.00548982  1
  Pd  Pd186  1  0.78760977  0.40990614  0.59883050  1
  Pd  Pd187  1  0.21547788  0.40023665  0.60062883  1
  Pd  Pd188  1  0.59139404  0.20350240  0.79847189  1
  Pd  Pd189  1  0.59894709  0.20533187  0.20747325  1
  Pd  Pd190  1  0.80366405  0.19574597  0.39614997  1
  Pd  Pd191  1  0.00493946  0.59330559  0.80257041  1
  Pd  Pd192  1  0.79441961  0.39842356  0.40329709  1
  Pd  Pd193  1  0.20878469  0.39537810  0.80538911  1
  Pd  Pd194  1  0.59676792  0.79779909  0.40901945  1
  Pd  Pd195  1  0.39779312  0.41149648  -0.00186831  1
  Pd  Pd196  1  0.60879576  0.38965159  0.40183458  1
  Pd  Pd197  1  0.20653405  -0.00174162  0.00566832  1
  Pd  Pd198  1  0.19456020  0.19942820  0.61195672  1
  Pd  Pd199  1  0.60152328  0.59507167  0.20062416  1
  Rh  Rh200  1  0.18746396  0.38997911  0.20336795  1
  Rh  Rh201  1  0.20617855  0.79789517  0.19780864  1
  Rh  Rh202  1  0.59985007  0.58921939  0.00004535  1
  Rh  Rh203  1  0.79990609  0.01346836  0.60854186  1
  Rh  Rh204  1  0.19369918  0.00323259  0.41259550  1
  Rh  Rh205  1  0.80243098  0.41017525  0.20524149  1
  Rh  Rh206  1  0.39903780  -0.00828211  0.80714005  1
  Rh  Rh207  1  0.00453047  0.80122159  0.79889383  1
  Rh  Rh208  1  0.79563198  0.78687454  0.19000331  1
  Rh  Rh209  1  0.20017207  0.40921695  -0.00381766  1
  Rh  Rh210  1  0.60396869  0.60556694  0.40056946  1
  Rh  Rh211  1  0.39562923  0.79086931  0.20550146  1
  Rh  Rh212  1  0.79802557  0.39884347  0.80485543  1
  Rh  Rh213  1  0.40761167  0.60623309  0.80032725  1
  Rh  Rh214  1  0.79112695  0.60857908  0.39428193  1
  Rh  Rh215  1  0.00556348  0.59465484  0.39837267  1
  Rh  Rh216  1  0.59604189  0.39565290  0.79716867  1
  Rh  Rh217  1  0.20168545  0.00372492  0.19380811  1
  Rh  Rh218  1  0.80810486  0.19633933  0.80462942  1
  Rh  Rh219  1  0.80449678  0.78969003  0.60392747  1
  Rh  Rh220  1  0.79172883  0.79512421  0.39752286  1
  Rh  Rh221  1  0.59431983  0.60412622  0.80401892  1
  Rh  Rh222  1  0.39238522  0.80078106  -0.00683677  1
  Rh  Rh223  1  0.39944895  0.19988901  0.39812057  1
  Rh  Rh224  1  0.80720958  0.00469823  0.20429100  1
  Rh  Rh225  1  0.39789231  0.40113402  0.80115957  1
  Rh  Rh226  1  -0.00081680  0.80846307  0.39988704  1
  Rh  Rh227  1  -0.00401453  0.40318539  0.59617512  1
  Rh  Rh228  1  0.20017861  0.20642592  0.39670547  1
  Rh  Rh229  1  0.79786998  0.60245660  0.79685527  1
  Rh  Rh230  1  0.39348753  0.20419390  0.80897461  1
  Rh  Rh231  1  0.40335421  0.20581700  0.59974883  1
  Rh  Rh232  1  0.80706238  0.00999694  0.38854806  1
  Rh  Rh233  1  0.39320934  0.39457568  0.40402770  1
  Rh  Rh234  1  0.19741778  0.60572511  0.80150382  1
  Rh  Rh235  1  0.39863675  0.59437668  0.00561699  1
  Rh  Rh236  1  -0.00160416  0.80701080  0.00876637  1
  Rh  Rh237  1  -0.01053392  0.20889398  0.00477460  1
  Rh  Rh238  1  0.20083513  0.59743845  0.39499036  1
  Rh  Rh239  1  0.39296712  0.00836321  0.59179875  1
  Rh  Rh240  1  0.20090823  0.39521602  0.40197078  1
  Rh  Rh241  1  -0.00613458  0.39615064  0.81095055  1
  Rh  Rh242  1  0.60602457  0.80595900  0.00453741  1
  Rh  Rh243  1  0.00535614  0.58633228  -0.00907378  1
  Rh  Rh244  1  0.40937564  0.41119054  0.20011826  1
  Rh  Rh245  1  0.21514791  0.80113371  0.38834223  1
  Rh  Rh246  1  0.59572413  0.00436718  0.40274787  1
  Rh  Rh247  1  0.79468408  -0.00020227  -0.00416312  1
  Rh  Rh248  1  0.20748578  0.60521962  0.19297014  1
  Rh  Rh249  1  0.60329445  0.20024509  -0.00193137  1
