# generated using pymatgen
data_ZrScNbPdRh
_symmetry_space_group_name_H-M   'P 1'
_cell_length_a   16.55924733
_cell_length_b   16.55775248
_cell_length_c   16.55442655
_cell_angle_alpha   89.96302767
_cell_angle_beta   90.01687974
_cell_angle_gamma   90.01285665
_symmetry_Int_Tables_number   1
_chemical_formula_structural   ZrScNbPdRh
_chemical_formula_sum   'Zr50 Sc50 Nb50 Pd50 Rh50'
_cell_volume   4538.95628756
_cell_formula_units_Z   50
loop_
 _symmetry_equiv_pos_site_id
 _symmetry_equiv_pos_as_xyz
  1  'x, y, z'
loop_
 _atom_site_type_symbol
 _atom_site_label
 _atom_site_symmetry_multiplicity
 _atom_site_fract_x
 _atom_site_fract_y
 _atom_site_fract_z
 _atom_site_occupancy
  Zr  Zr0  1  0.88786032  0.70699067  0.89950622  1
  Zr  Zr1  1  0.10580611  0.90243221  0.49419897  1
  Zr  Zr2  1  0.30854920  0.29907563  0.49480228  1
  Zr  Zr3  1  0.50661033  0.10064916  0.69814459  1
  Zr  Zr4  1  0.90537465  0.49675600  0.29067858  1
  Zr  Zr5  1  0.50399496  0.09460709  0.89499720  1
  Zr  Zr6  1  0.49888620  0.50226943  0.10049494  1
  Zr  Zr7  1  0.50157595  0.29377460  0.49717858  1
  Zr  Zr8  1  0.09961131  0.49704790  0.90973200  1
  Zr  Zr9  1  0.49445545  0.30177155  0.90405002  1
  Zr  Zr10  1  0.89300152  0.09928270  0.49481510  1
  Zr  Zr11  1  0.69918517  0.89326955  0.90091580  1
  Zr  Zr12  1  0.49708446  0.50436334  0.69803854  1
  Zr  Zr13  1  0.10420329  0.50187040  0.50175758  1
  Zr  Zr14  1  0.70805309  0.50452381  0.50375677  1
  Zr  Zr15  1  0.09709554  0.49366411  0.69463677  1
  Zr  Zr16  1  0.69025049  0.30381940  0.89883135  1
  Zr  Zr17  1  0.30095611  0.70420685  0.10256373  1
  Zr  Zr18  1  0.29569957  0.50379782  0.09875038  1
  Zr  Zr19  1  0.69764013  0.50343176  0.90042362  1
  Zr  Zr20  1  0.10490328  0.09972534  0.90053694  1
  Zr  Zr21  1  0.08796375  0.29303998  0.89363009  1
  Zr  Zr22  1  0.30386725  0.29070677  0.29249602  1
  Zr  Zr23  1  0.90670363  0.10257379  0.90473689  1
  Zr  Zr24  1  0.50527182  0.70367633  0.50045726  1
  Zr  Zr25  1  0.90101460  0.50159055  0.90120615  1
  Zr  Zr26  1  0.91245473  0.30365916  0.70745054  1
  Zr  Zr27  1  0.69446967  0.09940987  0.10219275  1
  Zr  Zr28  1  0.69763634  0.69946819  0.69807146  1
  Zr  Zr29  1  0.09798118  0.51063117  0.10312397  1
  Zr  Zr30  1  0.90166853  0.50171478  0.10314244  1
  Zr  Zr31  1  0.49376527  0.30303023  0.31010079  1
  Zr  Zr32  1  0.69878353  0.50182787  0.70383239  1
  Zr  Zr33  1  0.29966204  0.70409985  0.49753966  1
  Zr  Zr34  1  0.89780132  0.89074730  0.70420062  1
  Zr  Zr35  1  0.70344234  0.90844372  0.69905392  1
  Zr  Zr36  1  0.89763266  0.89884630  0.90460708  1
  Zr  Zr37  1  0.50231948  0.70335493  0.70334960  1
  Zr  Zr38  1  0.10440480  0.90623093  0.91623611  1
  Zr  Zr39  1  0.69173137  0.90665813  0.29829150  1
  Zr  Zr40  1  0.70429062  0.30070128  0.69739207  1
  Zr  Zr41  1  0.30098512  0.71311846  0.90212749  1
  Zr  Zr42  1  0.09030130  0.09002460  0.29990242  1
  Zr  Zr43  1  0.29978260  0.89339659  0.70442530  1
  Zr  Zr44  1  0.09922569  0.88831972  0.69761882  1
  Zr  Zr45  1  0.10264368  0.70087649  0.69445814  1
  Zr  Zr46  1  0.09507055  0.29775852  0.51161361  1
  Zr  Zr47  1  0.89529094  0.70304013  0.50173057  1
  Zr  Zr48  1  0.49849625  0.09529835  0.30513424  1
  Zr  Zr49  1  0.09767994  0.09965879  0.49757502  1
  Sc  Sc50  1  0.71424986  0.50008519  0.30046759  1
  Sc  Sc51  1  0.30258059  0.49474158  0.69703275  1
  Sc  Sc52  1  0.29386043  0.90122501  0.49222727  1
  Sc  Sc53  1  0.89760111  0.28685073  0.49730342  1
  Sc  Sc54  1  0.49896837  0.89739249  0.09912967  1
  Sc  Sc55  1  0.49547315  0.71385795  0.29694577  1
  Sc  Sc56  1  0.51400837  0.90257098  0.71045208  1
  Sc  Sc57  1  0.89067695  0.90030053  0.50215360  1
  Sc  Sc58  1  0.29805684  0.09347799  0.28913515  1
  Sc  Sc59  1  0.50850223  0.90294746  0.48155953  1
  Sc  Sc60  1  0.29354897  0.09587125  0.50321563  1
  Sc  Sc61  1  0.29663333  0.70434034  0.69936738  1
  Sc  Sc62  1  0.10149609  0.08420258  0.10280824  1
  Sc  Sc63  1  0.30434360  0.89911255  0.30276785  1
  Sc  Sc64  1  0.30841427  0.50104125  0.29078255  1
  Sc  Sc65  1  0.09012256  0.30050788  0.09736947  1
  Sc  Sc66  1  0.30135073  0.89930458  0.90358749  1
  Sc  Sc67  1  0.69394910  0.90476322  0.09451787  1
  Sc  Sc68  1  0.69407849  0.10095013  0.69794512  1
  Sc  Sc69  1  0.30549961  0.29340450  0.70506908  1
  Sc  Sc70  1  0.30461153  0.70493988  0.29234079  1
  Sc  Sc71  1  0.30329525  0.49440522  0.51000900  1
  Sc  Sc72  1  0.70228114  0.50256543  0.09440627  1
  Sc  Sc73  1  0.09926005  0.70075231  0.50529595  1
  Sc  Sc74  1  0.88494827  0.09583311  0.69608831  1
  Sc  Sc75  1  0.90144868  0.69380765  0.09846259  1
  Sc  Sc76  1  0.50747538  0.49576971  0.89973597  1
  Sc  Sc77  1  0.30278631  0.10166744  0.70411734  1
  Sc  Sc78  1  0.89247390  0.10297459  0.10169183  1
  Sc  Sc79  1  0.30032846  0.08891303  0.90049090  1
  Sc  Sc80  1  0.70317244  0.29370084  0.49822892  1
  Sc  Sc81  1  0.10860023  0.70532112  0.91091919  1
  Sc  Sc82  1  0.69636156  0.69614813  0.90376954  1
  Sc  Sc83  1  0.70211724  0.70445691  0.30016590  1
  Sc  Sc84  1  0.30224414  0.49129655  0.90533586  1
  Sc  Sc85  1  0.10896759  0.11215598  0.70353467  1
  Sc  Sc86  1  0.70127079  0.89877006  0.49354735  1
  Sc  Sc87  1  0.89520392  0.91539427  0.29953721  1
  Sc  Sc88  1  0.89157042  0.50152315  0.69526858  1
  Sc  Sc89  1  0.10436489  0.70026995  0.28507802  1
  Sc  Sc90  1  0.89543432  0.68786740  0.29881617  1
  Sc  Sc91  1  0.08757406  0.28821530  0.28746681  1
  Sc  Sc92  1  0.30529107  0.90711907  0.09793470  1
  Sc  Sc93  1  0.49081778  0.09482692  0.09539172  1
  Sc  Sc94  1  0.50796513  0.71232678  0.90178806  1
  Sc  Sc95  1  0.69714500  0.09840965  0.90680450  1
  Sc  Sc96  1  0.49850369  0.28985610  0.70429275  1
  Sc  Sc97  1  0.70731976  0.30082976  0.30715189  1
  Sc  Sc98  1  0.89884111  0.51229506  0.49259891  1
  Sc  Sc99  1  0.69606065  0.29825472  0.09468924  1
  Nb  Nb100  1  0.90193032  0.89300814  0.09431434  1
  Nb  Nb101  1  0.69939794  0.70094714  0.49417738  1
  Nb  Nb102  1  0.70907225  0.09843392  0.29719653  1
  Nb  Nb103  1  0.10198574  0.49721405  0.29715289  1
  Nb  Nb104  1  0.69604852  0.69815953  0.09753859  1
  Nb  Nb105  1  0.50057343  0.70104318  0.10004802  1
  Nb  Nb106  1  0.09900690  0.30019215  0.70787301  1
  Nb  Nb107  1  0.30729409  0.29310116  0.09860697  1
  Nb  Nb108  1  0.50125156  0.50083649  0.30209539  1
  Nb  Nb109  1  0.50587124  0.10309532  0.50871932  1
  Nb  Nb110  1  0.10962430  0.70246706  0.10120924  1
  Nb  Nb111  1  0.50037674  0.89985852  0.90407992  1
  Nb  Nb112  1  0.49624304  0.90166899  0.29796308  1
  Nb  Nb113  1  0.09345980  0.90042734  0.29637265  1
  Nb  Nb114  1  0.89631927  0.11455066  0.30306161  1
  Nb  Nb115  1  0.90340438  0.30229317  0.10389427  1
  Nb  Nb116  1  0.90801453  0.70797039  0.69997516  1
  Nb  Nb117  1  0.90771348  0.29830519  0.90589841  1
  Nb  Nb118  1  0.30227888  0.10354290  0.10066770  1
  Nb  Nb119  1  0.08699244  0.89071141  0.10862871  1
  Nb  Nb120  1  0.90281947  0.29416665  0.29296445  1
  Nb  Nb121  1  0.70107786  0.10176833  0.50859644  1
  Nb  Nb122  1  0.29712742  0.30232439  0.90459640  1
  Nb  Nb123  1  0.49855017  0.49585212  0.49565182  1
  Nb  Nb124  1  0.49652107  0.29753956  0.10524494  1
  Nb  Nb125  1  0.00243854  0.80466025  0.39211400  1
  Nb  Nb126  1  0.59507554  0.20212165  0.20498135  1
  Nb  Nb127  1  0.40582063  0.80917991  0.59773928  1
  Nb  Nb128  1  0.00077935  -0.00330005  0.79718372  1
  Nb  Nb129  1  0.00373843  0.39784358  0.39425078  1
  Nb  Nb130  1  0.20098813  0.39481590  0.19847061  1
  Nb  Nb131  1  0.19910951  0.59468529  0.80251669  1
  Nb  Nb132  1  0.80864694  0.39336195  -0.00257100  1
  Nb  Nb133  1  0.00243051  0.60578930  0.79860792  1
  Nb  Nb134  1  0.19410995  0.20252610  0.39652909  1
  Nb  Nb135  1  0.19502973  0.39548771  0.80117818  1
  Nb  Nb136  1  0.80307834  0.20704871  0.80891127  1
  Nb  Nb137  1  0.59788216  0.40292624  0.59436487  1
  Nb  Nb138  1  0.20406939  0.59309157  0.39638003  1
  Nb  Nb139  1  0.39700027  0.60310838  0.80691327  1
  Nb  Nb140  1  0.40888450  -0.00372868  0.59818387  1
  Nb  Nb141  1  0.00154871  -0.00197958  0.60466157  1
  Nb  Nb142  1  0.80001001  0.80481866  0.19218575  1
  Nb  Nb143  1  0.40476401  0.59712168  0.40087005  1
  Nb  Nb144  1  0.59649163  0.59792255  0.39835776  1
  Nb  Nb145  1  0.40282692  0.60681888  -0.00075228  1
  Nb  Nb146  1  0.59608099  0.59849119  0.20356324  1
  Nb  Nb147  1  0.20728747  0.20152978  0.00503003  1
  Nb  Nb148  1  0.19580235  0.39627939  0.39098851  1
  Nb  Nb149  1  0.59440897  0.39938891  0.20318034  1
  Pd  Pd150  1  0.39536310  0.19609633  0.80991678  1
  Pd  Pd151  1  0.60431687  0.79699581  0.19905389  1
  Pd  Pd152  1  -0.01307402  0.79272100  0.20655051  1
  Pd  Pd153  1  0.19382949  0.38873575  0.00489928  1
  Pd  Pd154  1  0.60860709  0.01031736  0.40404632  1
  Pd  Pd155  1  0.79078913  0.39295154  0.19144621  1
  Pd  Pd156  1  0.80388405  0.39457859  0.59210124  1
  Pd  Pd157  1  0.39522764  0.00406976  0.40685062  1
  Pd  Pd158  1  0.20082401  -0.00021675  0.60839249  1
  Pd  Pd159  1  0.40389785  0.40477185  0.00299598  1
  Pd  Pd160  1  0.80348885  -0.00516323  0.19273497  1
  Pd  Pd161  1  0.01105296  0.60594703  0.39239706  1
  Pd  Pd162  1  0.20566899  0.81271683  0.19806831  1
  Pd  Pd163  1  0.60947353  0.19168084  0.39440271  1
  Pd  Pd164  1  0.80711631  0.80142159  0.38688166  1
  Pd  Pd165  1  0.80507451  0.60675067  0.79467885  1
  Pd  Pd166  1  0.59030786  0.00555496  0.19612198  1
  Pd  Pd167  1  0.20746933  0.20574394  0.59831074  1
  Pd  Pd168  1  0.60934152  0.40705966  0.40037880  1
  Pd  Pd169  1  -0.01513147  0.00438372  0.19492592  1
  Pd  Pd170  1  0.19225799  0.20074945  0.19449184  1
  Pd  Pd171  1  0.79971902  0.00850984  0.80738599  1
  Pd  Pd172  1  0.19255447  0.79097730  0.39091792  1
  Pd  Pd173  1  0.79278060  0.79800354  0.60104730  1
  Pd  Pd174  1  0.39900699  0.39936370  0.19833566  1
  Pd  Pd175  1  0.81385417  0.39734140  0.40456267  1
  Pd  Pd176  1  0.79164615  0.20798241  0.19812925  1
  Pd  Pd177  1  0.19426180  -0.00565953  0.79520629  1
  Pd  Pd178  1  0.59147995  0.19777767  0.00609100  1
  Pd  Pd179  1  -0.01400233  0.40460674  0.58761342  1
  Pd  Pd180  1  0.40354301  -0.00671355  0.79483500  1
  Pd  Pd181  1  0.60116178  0.59524871  0.59390167  1
  Pd  Pd182  1  0.39724841  0.19275577  -0.00753262  1
  Pd  Pd183  1  -0.00099864  0.61149519  -0.00501961  1
  Pd  Pd184  1  0.59906494  0.81195377  0.59590703  1
  Pd  Pd185  1  0.20648164  0.38879932  0.60572906  1
  Pd  Pd186  1  -0.00681165  0.59903927  0.60442868  1
  Pd  Pd187  1  0.80038491  -0.00103326  0.00320086  1
  Pd  Pd188  1  0.40939916  0.38984664  0.60557626  1
  Pd  Pd189  1  0.80584292  0.39522710  0.80812303  1
  Pd  Pd190  1  0.20260073  -0.00943526  0.19876743  1
  Pd  Pd191  1  0.38969305  0.18318987  0.40149040  1
  Pd  Pd192  1  -0.00665269  0.18784990  0.60925227  1
  Pd  Pd193  1  0.79820806  0.20719503  -0.00303986  1
  Pd  Pd194  1  0.00132087  0.79156142  0.00016269  1
  Pd  Pd195  1  0.59074216  0.39807622  0.78975034  1
  Pd  Pd196  1  0.00830498  0.18968561  0.01271798  1
  Pd  Pd197  1  0.00929672  0.79893746  0.81424166  1
  Pd  Pd198  1  -0.00819237  -0.00637048  0.40684888  1
  Pd  Pd199  1  0.39500507  0.60875165  0.60051218  1
  Rh  Rh200  1  0.79823503  -0.00156501  0.59539268  1
  Rh  Rh201  1  -0.00126612  0.80799090  0.58320881  1
  Rh  Rh202  1  0.59225074  0.60311450  0.80605786  1
  Rh  Rh203  1  0.60726842  0.00001904  0.80733695  1
  Rh  Rh204  1  0.40752901  0.60829658  0.19933113  1
  Rh  Rh205  1  0.20145518  0.59450535  0.20478146  1
  Rh  Rh206  1  0.40604040  0.80190000  0.79602026  1
  Rh  Rh207  1  0.20797138  0.80120765  0.59499671  1
  Rh  Rh208  1  0.80248556  0.61081783  0.60388971  1
  Rh  Rh209  1  0.00196436  0.41252742  0.80057984  1
  Rh  Rh210  1  0.79420945  0.19610051  0.39792089  1
  Rh  Rh211  1  0.60327534  0.20886290  0.60030182  1
  Rh  Rh212  1  0.41013643  0.19306484  0.20095345  1
  Rh  Rh213  1  0.60107657  0.80273126  0.00256566  1
  Rh  Rh214  1  0.00456274  0.20556728  0.39795118  1
  Rh  Rh215  1  0.40482629  0.79933886  0.00260514  1
  Rh  Rh216  1  0.20780369  0.20758864  0.81073184  1
  Rh  Rh217  1  0.40053984  -0.00078428  -0.00213762  1
  Rh  Rh218  1  0.79909764  0.59661678  0.00219743  1
  Rh  Rh219  1  0.79246292  0.60390016  0.39890803  1
  Rh  Rh220  1  0.21138116  0.60722650  -0.00419911  1
  Rh  Rh221  1  0.40120173  0.80868623  0.19702797  1
  Rh  Rh222  1  0.39845773  0.18978032  0.59794577  1
  Rh  Rh223  1  0.60353639  0.39982508  0.00976536  1
  Rh  Rh224  1  -0.00488432  0.40131418  0.00730592  1
  Rh  Rh225  1  0.39533187  0.40337174  0.80150456  1
  Rh  Rh226  1  0.19908507  0.81101866  0.01453297  1
  Rh  Rh227  1  0.20683444  0.60127684  0.60019199  1
  Rh  Rh228  1  0.59816359  -0.00335731  0.59170385  1
  Rh  Rh229  1  0.40214690  -0.00230693  0.19935369  1
  Rh  Rh230  1  0.60175786  0.79619419  0.39115692  1
  Rh  Rh231  1  0.00439553  0.60641628  0.19986944  1
  Rh  Rh232  1  0.20115436  0.00668647  0.38715498  1
  Rh  Rh233  1  0.38847906  0.40992564  0.39916441  1
  Rh  Rh234  1  0.00559321  0.40009965  0.20138967  1
  Rh  Rh235  1  0.20391598  0.00280971  0.00971820  1
  Rh  Rh236  1  -0.00450405  0.18841101  0.19310138  1
  Rh  Rh237  1  0.60602528  0.80117183  0.80277284  1
  Rh  Rh238  1  0.59414060  0.60440977  0.00448773  1
  Rh  Rh239  1  0.79314998  0.79633653  0.01006681  1
  Rh  Rh240  1  0.40313466  0.79782271  0.40331332  1
  Rh  Rh241  1  0.19391084  0.79857308  0.80442197  1
  Rh  Rh242  1  -0.01001583  0.18491968  0.79086241  1
  Rh  Rh243  1  0.80131869  0.20216289  0.60839511  1
  Rh  Rh244  1  0.79364664  0.00694491  0.40050965  1
  Rh  Rh245  1  0.60665968  0.19916080  0.80040974  1
  Rh  Rh246  1  -0.00276216  -0.00012025  0.00333177  1
  Rh  Rh247  1  0.79021293  0.60860091  0.19456341  1
  Rh  Rh248  1  0.79031420  0.79459920  0.79519278  1
  Rh  Rh249  1  0.59401821  -0.00292501  -0.00106723  1
