# generated using pymatgen
data_ZrScNbPdRh
_symmetry_space_group_name_H-M   'P 1'
_cell_length_a   16.55252180
_cell_length_b   16.55103237
_cell_length_c   16.55401558
_cell_angle_alpha   89.98586643
_cell_angle_beta   89.97357311
_cell_angle_gamma   89.99561867
_symmetry_Int_Tables_number   1
_chemical_formula_structural   ZrScNbPdRh
_chemical_formula_sum   'Zr50 Sc50 Nb50 Pd50 Rh50'
_cell_volume   4535.15939264
_cell_formula_units_Z   50
loop_
 _symmetry_equiv_pos_site_id
 _symmetry_equiv_pos_as_xyz
  1  'x, y, z'
loop_
 _atom_site_type_symbol
 _atom_site_label
 _atom_site_symmetry_multiplicity
 _atom_site_fract_x
 _atom_site_fract_y
 _atom_site_fract_z
 _atom_site_occupancy
  Zr  Zr0  1  0.49596451  0.30191665  0.10876850  1
  Zr  Zr1  1  0.69297773  0.69687406  0.89643964  1
  Zr  Zr2  1  0.50011276  0.10378339  0.48958861  1
  Zr  Zr3  1  0.49328445  0.29142070  0.30862855  1
  Zr  Zr4  1  0.08878105  0.69481258  0.50322307  1
  Zr  Zr5  1  0.49998626  0.50428199  0.89978189  1
  Zr  Zr6  1  0.91248931  0.10487346  0.49860876  1
  Zr  Zr7  1  0.30007977  0.30455677  0.89535779  1
  Zr  Zr8  1  0.90375589  0.90570877  0.70157469  1
  Zr  Zr9  1  0.90591559  0.69754933  0.89605320  1
  Zr  Zr10  1  0.29614809  0.90966121  0.49838565  1
  Zr  Zr11  1  0.29055623  0.09927459  0.09754314  1
  Zr  Zr12  1  0.30079529  0.89470859  0.69848507  1
  Zr  Zr13  1  0.70454964  0.09621269  0.29812476  1
  Zr  Zr14  1  0.89494500  0.70813291  0.30308101  1
  Zr  Zr15  1  0.10634798  0.50643938  0.10337917  1
  Zr  Zr16  1  0.29072624  0.69215370  0.89603764  1
  Zr  Zr17  1  0.70024657  0.30285344  0.70297948  1
  Zr  Zr18  1  0.50175846  0.10640450  0.09938462  1
  Zr  Zr19  1  0.49674047  0.49792811  0.50247165  1
  Zr  Zr20  1  0.30305810  0.70629774  0.29722925  1
  Zr  Zr21  1  0.70281718  0.50167102  0.29923030  1
  Zr  Zr22  1  0.30085728  0.49949562  0.50229610  1
  Zr  Zr23  1  0.10318959  0.69914723  0.29791904  1
  Zr  Zr24  1  0.29496703  0.49624472  0.30446264  1
  Zr  Zr25  1  0.49961746  0.89711392  0.30401752  1
  Zr  Zr26  1  0.29936504  0.29971074  0.29183536  1
  Zr  Zr27  1  0.30449152  0.49451500  0.10461150  1
  Zr  Zr28  1  0.28447696  0.69986341  0.10068137  1
  Zr  Zr29  1  0.30043372  0.90248806  0.30034297  1
  Zr  Zr30  1  0.09307896  0.49904250  0.49289715  1
  Zr  Zr31  1  0.89332500  0.50288842  0.70248376  1
  Zr  Zr32  1  0.28592812  0.30133198  0.69727160  1
  Zr  Zr33  1  0.69366829  0.50301390  0.10568011  1
  Zr  Zr34  1  0.70385704  0.49784561  0.89015459  1
  Zr  Zr35  1  0.70427295  0.10191385  0.70343496  1
  Zr  Zr36  1  0.10284285  0.91024347  0.29554147  1
  Zr  Zr37  1  0.29135312  0.10347336  0.49958208  1
  Zr  Zr38  1  0.29037866  0.09775192  0.30356211  1
  Zr  Zr39  1  0.89868243  0.29548007  0.90169405  1
  Zr  Zr40  1  0.49715851  0.89604181  0.08901590  1
  Zr  Zr41  1  0.89676032  0.70655462  0.50091204  1
  Zr  Zr42  1  0.30222291  0.50411942  0.70905719  1
  Zr  Zr43  1  0.50584002  0.89555576  0.89557007  1
  Zr  Zr44  1  0.70300080  0.90036462  0.09810842  1
  Zr  Zr45  1  0.49868952  0.30267763  0.90499859  1
  Zr  Zr46  1  0.70238984  0.10597951  0.09651317  1
  Zr  Zr47  1  0.49697585  0.89612292  0.70418291  1
  Zr  Zr48  1  0.30419691  0.30511556  0.48982224  1
  Zr  Zr49  1  0.09902473  0.70447324  0.90905174  1
  Sc  Sc50  1  0.89946008  0.49214620  0.09647709  1
  Sc  Sc51  1  0.71230055  0.30066339  0.30189245  1
  Sc  Sc52  1  0.09463502  0.10849384  0.69795873  1
  Sc  Sc53  1  0.90188643  0.69522547  0.69568329  1
  Sc  Sc54  1  0.89725336  0.70607043  0.09993565  1
  Sc  Sc55  1  0.90484707  0.28865795  0.70070343  1
  Sc  Sc56  1  0.29868021  0.70126234  0.70418251  1
  Sc  Sc57  1  0.89598066  0.30096873  0.09780101  1
  Sc  Sc58  1  0.68895263  0.09915667  0.49130083  1
  Sc  Sc59  1  0.10524372  0.09272763  0.90050259  1
  Sc  Sc60  1  0.69796201  0.70370180  0.50482513  1
  Sc  Sc61  1  0.69763368  0.50990709  0.50280270  1
  Sc  Sc62  1  0.50088229  0.10239411  0.30412828  1
  Sc  Sc63  1  0.10319781  0.90105426  0.70551013  1
  Sc  Sc64  1  0.89660831  0.49457409  0.90131550  1
  Sc  Sc65  1  0.10423620  0.29789131  0.10767320  1
  Sc  Sc66  1  0.09418215  0.89917192  0.90155530  1
  Sc  Sc67  1  0.09144304  0.90448821  0.50550038  1
  Sc  Sc68  1  0.89965808  0.09374675  0.89875568  1
  Sc  Sc69  1  0.90071878  0.30414229  0.48553885  1
  Sc  Sc70  1  0.69762224  0.89699339  0.49805330  1
  Sc  Sc71  1  0.29528972  0.89544137  0.09437072  1
  Sc  Sc72  1  0.10021468  0.50176868  0.68662343  1
  Sc  Sc73  1  0.90437997  0.90716034  0.09679802  1
  Sc  Sc74  1  0.50300069  0.90197629  0.49913403  1
  Sc  Sc75  1  0.89920954  0.48499866  0.30404954  1
  Sc  Sc76  1  0.09903324  0.30114657  0.29724773  1
  Sc  Sc77  1  0.30855499  0.70013636  0.50840868  1
  Sc  Sc78  1  0.68844707  0.89774946  0.69765065  1
  Sc  Sc79  1  0.29896459  0.90533806  0.90140490  1
  Sc  Sc80  1  0.49983863  0.08661746  0.70015491  1
  Sc  Sc81  1  0.10726642  0.29204372  0.89471993  1
  Sc  Sc82  1  0.50395162  0.50192982  0.70095652  1
  Sc  Sc83  1  0.09624905  0.50784762  0.90877806  1
  Sc  Sc84  1  0.09844281  0.49324843  0.30109003  1
  Sc  Sc85  1  0.69420526  0.70127169  0.11417153  1
  Sc  Sc86  1  0.50849038  0.30708797  0.68954636  1
  Sc  Sc87  1  0.70957579  0.29708140  0.90431870  1
  Sc  Sc88  1  0.49611559  0.08773033  0.90381654  1
  Sc  Sc89  1  0.70362349  0.69342213  0.69371800  1
  Sc  Sc90  1  0.10117253  0.90523342  0.09244275  1
  Sc  Sc91  1  0.29718037  0.08865912  0.69926427  1
  Sc  Sc92  1  0.50140322  0.70176564  0.89531681  1
  Sc  Sc93  1  0.90640684  0.10436296  0.70965865  1
  Sc  Sc94  1  0.70846518  0.10207803  0.90703506  1
  Sc  Sc95  1  0.90596236  0.50362510  0.49704832  1
  Sc  Sc96  1  0.70300158  0.88521286  0.29645614  1
  Sc  Sc97  1  0.10146558  0.29899005  0.50833709  1
  Sc  Sc98  1  0.89809659  0.09469579  0.10494134  1
  Sc  Sc99  1  0.50778638  0.50628148  0.30415867  1
  Nb  Nb100  1  0.50332362  0.50377917  0.10150311  1
  Nb  Nb101  1  0.10409656  0.70172411  0.70745718  1
  Nb  Nb102  1  0.30389895  0.10222299  0.90150146  1
  Nb  Nb103  1  0.09526838  0.29930937  0.70312895  1
  Nb  Nb104  1  0.09563507  0.09634188  0.10642586  1
  Nb  Nb105  1  0.69539809  0.29709665  0.09038577  1
  Nb  Nb106  1  0.90089402  0.90052663  0.90262324  1
  Nb  Nb107  1  0.10369703  0.10385087  0.49489560  1
  Nb  Nb108  1  0.49859548  0.69457218  0.09987040  1
  Nb  Nb109  1  0.69811825  0.69905000  0.30053834  1
  Nb  Nb110  1  0.49920719  0.70937840  0.69549265  1
  Nb  Nb111  1  0.50367005  0.29846820  0.49942090  1
  Nb  Nb112  1  0.89847971  0.89959384  0.49918334  1
  Nb  Nb113  1  0.69396044  0.30022360  0.50486608  1
  Nb  Nb114  1  0.50613846  0.69109216  0.49508764  1
  Nb  Nb115  1  0.90336197  0.28999957  0.29882269  1
  Nb  Nb116  1  0.70152231  0.89576644  0.89991820  1
  Nb  Nb117  1  0.90136558  0.89894672  0.30337429  1
  Nb  Nb118  1  0.30497723  0.30133742  0.10094670  1
  Nb  Nb119  1  0.90831739  0.10337071  0.29739920  1
  Nb  Nb120  1  0.70805739  0.49627765  0.70060302  1
  Nb  Nb121  1  0.30792729  0.49843180  0.90078763  1
  Nb  Nb122  1  0.09994334  0.70259731  0.10112852  1
  Nb  Nb123  1  0.50560663  0.70472902  0.30055156  1
  Nb  Nb124  1  0.09600072  0.10142879  0.28671889  1
  Nb  Nb125  1  0.59731363  -0.00321297  0.19679668  1
  Nb  Nb126  1  0.00499413  0.19393150  0.00569130  1
  Nb  Nb127  1  0.81274075  -0.00295601  0.39980394  1
  Nb  Nb128  1  0.20998108  0.40026196  0.00012693  1
  Nb  Nb129  1  0.60139257  0.39502587  0.40771921  1
  Nb  Nb130  1  0.40235237  0.00029011  0.19694388  1
  Nb  Nb131  1  0.39294593  0.20249831  -0.00192046  1
  Nb  Nb132  1  0.79784526  0.60627271  0.39510808  1
  Nb  Nb133  1  0.79763642  0.19944096  0.59325563  1
  Nb  Nb134  1  0.40424787  0.60505894  0.19772895  1
  Nb  Nb135  1  0.00344095  0.39582960  0.79655468  1
  Nb  Nb136  1  0.00013477  0.60545933  0.20072155  1
  Nb  Nb137  1  0.79920783  0.80078499  -0.00757947  1
  Nb  Nb138  1  0.80527230  0.00364713  0.59272139  1
  Nb  Nb139  1  0.00242486  0.80079785  0.20117366  1
  Nb  Nb140  1  0.20056344  0.60507688  0.40232312  1
  Nb  Nb141  1  0.80102906  0.80397512  0.80466690  1
  Nb  Nb142  1  0.79336931  0.60408748  -0.00071828  1
  Nb  Nb143  1  0.19865025  0.79910740  0.40344837  1
  Nb  Nb144  1  0.79568883  0.39708009  0.59888574  1
  Nb  Nb145  1  0.40040519  0.59699178  0.00430857  1
  Nb  Nb146  1  0.59903208  0.40192633  0.00635805  1
  Nb  Nb147  1  0.39955743  0.20221003  0.59948469  1
  Nb  Nb148  1  0.59485179  0.19902012  0.80338770  1
  Nb  Nb149  1  0.40074401  0.19925297  0.79748685  1
  Pd  Pd150  1  0.79618269  -0.00605192  0.79644768  1
  Pd  Pd151  1  0.40556044  0.39437874  0.78853599  1
  Pd  Pd152  1  0.00664995  0.59071379  0.79490744  1
  Pd  Pd153  1  0.20301477  0.18944159  0.79392069  1
  Pd  Pd154  1  0.40381909  0.60276124  0.61010447  1
  Pd  Pd155  1  0.81062002  0.59963548  0.19870689  1
  Pd  Pd156  1  0.40362081  0.80103938  0.19330456  1
  Pd  Pd157  1  0.40314196  0.00454037  0.59456618  1
  Pd  Pd158  1  0.60223537  0.79755944  0.40547910  1
  Pd  Pd159  1  0.18798935  0.00367785  0.60341556  1
  Pd  Pd160  1  0.40644361  0.80187648  0.59071356  1
  Pd  Pd161  1  -0.00155595  0.80059441  0.79485215  1
  Pd  Pd162  1  0.80345003  0.20447246  0.19500478  1
  Pd  Pd163  1  0.00849013  0.80565619  0.39661205  1
  Pd  Pd164  1  0.01169148  0.20554789  0.39750692  1
  Pd  Pd165  1  0.19097948  0.20663090  0.39458140  1
  Pd  Pd166  1  0.19953259  -0.00112110  0.80130806  1
  Pd  Pd167  1  -0.00213329  0.40081784  0.19908002  1
  Pd  Pd168  1  0.39350162  0.78914153  -0.00870255  1
  Pd  Pd169  1  0.19745009  0.20408413  0.00394318  1
  Pd  Pd170  1  0.00378270  0.79917993  0.60943742  1
  Pd  Pd171  1  0.39721136  0.60143832  0.39372176  1
  Pd  Pd172  1  0.59608335  0.19098781  0.60699827  1
  Pd  Pd173  1  0.60498993  0.79227018  0.00517229  1
  Pd  Pd174  1  0.20035730  0.60423272  0.59622633  1
  Pd  Pd175  1  0.80012299  -0.00594563  0.20663682  1
  Pd  Pd176  1  0.60560704  0.00282912  -0.00070488  1
  Pd  Pd177  1  0.00097537  0.00601285  0.60489546  1
  Pd  Pd178  1  0.60643843  0.20013029  0.20791995  1
  Pd  Pd179  1  0.60377089  0.00193391  0.59579206  1
  Pd  Pd180  1  0.19823641  0.40259287  0.59596394  1
  Pd  Pd181  1  0.79787968  0.19283204  0.40572927  1
  Pd  Pd182  1  0.00232400  0.00300980  0.39701473  1
  Pd  Pd183  1  0.40850756  0.40941343  0.21192986  1
  Pd  Pd184  1  0.39344120  0.79730953  0.80796663  1
  Pd  Pd185  1  0.59940026  0.39439031  0.80632234  1
  Pd  Pd186  1  0.59984680  0.39140422  0.20724130  1
  Pd  Pd187  1  0.01409677  0.38676699  -0.00594973  1
  Pd  Pd188  1  0.18956574  0.59217542  0.80097265  1
  Pd  Pd189  1  -0.01157457  0.39357398  0.60347634  1
  Pd  Pd190  1  0.60675648  0.00633504  0.80822888  1
  Pd  Pd191  1  0.19385469  0.79620854  0.59644698  1
  Pd  Pd192  1  0.80036101  0.39235765  0.19580116  1
  Pd  Pd193  1  0.39817700  0.79896713  0.41115031  1
  Pd  Pd194  1  0.59782247  0.60037090  0.60599557  1
  Pd  Pd195  1  0.79737386  0.80940303  0.60889443  1
  Pd  Pd196  1  0.18677750  0.41303962  0.80752752  1
  Pd  Pd197  1  0.39755802  0.39501945  0.60618788  1
  Pd  Pd198  1  -0.01107816  0.60210908  0.01016549  1
  Pd  Pd199  1  0.59687349  0.60450571  0.78746831  1
  Rh  Rh200  1  0.00359780  0.00145400  0.80357716  1
  Rh  Rh201  1  0.81311750  0.19495237  0.00580462  1
  Rh  Rh202  1  0.39501304  -0.00278241  0.80111073  1
  Rh  Rh203  1  0.60586602  0.60097198  0.39770829  1
  Rh  Rh204  1  0.38886914  0.18813027  0.19650201  1
  Rh  Rh205  1  0.78621090  0.40922886  0.00752845  1
  Rh  Rh206  1  0.61043054  -0.00865133  0.38618496  1
  Rh  Rh207  1  0.59321485  0.79544182  0.59637624  1
  Rh  Rh208  1  -0.00589727  0.59534143  0.38822629  1
  Rh  Rh209  1  0.79052210  0.41076154  0.41091548  1
  Rh  Rh210  1  0.19902933  0.39646289  0.19548531  1
  Rh  Rh211  1  0.20017677  0.20133750  0.20085049  1
  Rh  Rh212  1  0.59289084  0.60775223  0.20758970  1
  Rh  Rh213  1  0.00203795  0.39201948  0.39643909  1
  Rh  Rh214  1  0.81296256  0.39041964  0.79209669  1
  Rh  Rh215  1  0.59329189  0.20518683  -0.00684416  1
  Rh  Rh216  1  0.59220995  0.80186776  0.19690533  1
  Rh  Rh217  1  0.79463524  0.80029323  0.40384776  1
  Rh  Rh218  1  -0.00065288  0.20438207  0.59522025  1
  Rh  Rh219  1  -0.00102116  0.60385146  0.60653494  1
  Rh  Rh220  1  -0.00375363  0.20069244  0.19491410  1
  Rh  Rh221  1  0.20741224  0.59133128  -0.00141302  1
  Rh  Rh222  1  0.19855572  0.80319229  0.80345366  1
  Rh  Rh223  1  0.20562090  -0.00262441  0.19350513  1
  Rh  Rh224  1  0.19663012  0.80466230  -0.00551639  1
  Rh  Rh225  1  0.39286079  0.19561441  0.40482143  1
  Rh  Rh226  1  0.19826591  -0.00020748  -0.00216508  1
  Rh  Rh227  1  0.18892017  -0.00108506  0.40406414  1
  Rh  Rh228  1  0.19436155  0.40125542  0.40429840  1
  Rh  Rh229  1  0.60923873  0.20977479  0.39308701  1
  Rh  Rh230  1  -0.00470511  -0.00411407  0.20123240  1
  Rh  Rh231  1  0.80087342  -0.00393782  -0.00356706  1
  Rh  Rh232  1  0.40530632  0.60651963  0.80106809  1
  Rh  Rh233  1  0.60608651  0.79508795  0.79071328  1
  Rh  Rh234  1  0.79526369  0.20124382  0.79735494  1
  Rh  Rh235  1  0.41003338  0.40355701  0.39589692  1
  Rh  Rh236  1  0.19139323  0.81026411  0.20059462  1
  Rh  Rh237  1  0.19965053  0.59606493  0.20898881  1
  Rh  Rh238  1  0.60644348  0.41057591  0.59366502  1
  Rh  Rh239  1  0.39424223  0.00586070  0.00567114  1
  Rh  Rh240  1  0.00079123  0.00772163  -0.00141476  1
  Rh  Rh241  1  -0.00362220  0.80255727  0.00780652  1
  Rh  Rh242  1  0.20051272  0.19832101  0.60277951  1
  Rh  Rh243  1  0.80942672  0.80633795  0.19163236  1
  Rh  Rh244  1  0.40297510  0.40206198  0.00335444  1
  Rh  Rh245  1  0.39982233  0.00563390  0.39498335  1
  Rh  Rh246  1  0.79938461  0.60838442  0.80466223  1
  Rh  Rh247  1  0.00417609  0.20132320  0.81290357  1
  Rh  Rh248  1  0.60067680  0.59594995  0.00089198  1
  Rh  Rh249  1  0.80488379  0.59291085  0.58987667  1
