# generated using pymatgen
data_ZrScNbPdRh
_symmetry_space_group_name_H-M   'P 1'
_cell_length_a   16.56460123
_cell_length_b   16.55701376
_cell_length_c   16.55801940
_cell_angle_alpha   90.02402212
_cell_angle_beta   89.99698738
_cell_angle_gamma   89.96306492
_symmetry_Int_Tables_number   1
_chemical_formula_structural   ZrScNbPdRh
_chemical_formula_sum   'Zr50 Sc50 Nb50 Pd50 Rh50'
_cell_volume   4541.20652413
_cell_formula_units_Z   50
loop_
 _symmetry_equiv_pos_site_id
 _symmetry_equiv_pos_as_xyz
  1  'x, y, z'
loop_
 _atom_site_type_symbol
 _atom_site_label
 _atom_site_symmetry_multiplicity
 _atom_site_fract_x
 _atom_site_fract_y
 _atom_site_fract_z
 _atom_site_occupancy
  Zr  Zr0  1  0.29823007  0.09221861  0.48750722  1
  Zr  Zr1  1  0.08861478  0.90209223  0.29467444  1
  Zr  Zr2  1  0.69809205  0.10366485  0.49817640  1
  Zr  Zr3  1  0.30097709  0.68976288  0.29227787  1
  Zr  Zr4  1  0.29181689  0.10588086  0.29395846  1
  Zr  Zr5  1  0.29251520  0.49452278  0.69478282  1
  Zr  Zr6  1  0.69681470  0.30525088  0.70309172  1
  Zr  Zr7  1  0.70108335  0.29775199  0.89918991  1
  Zr  Zr8  1  0.09856144  0.49722158  0.69977729  1
  Zr  Zr9  1  0.30172279  0.10435762  0.69648382  1
  Zr  Zr10  1  0.49462133  0.89081154  0.49941702  1
  Zr  Zr11  1  0.70151806  0.70321969  0.10362160  1
  Zr  Zr12  1  0.69868122  0.10953075  0.30863946  1
  Zr  Zr13  1  0.90012120  0.70010863  0.88629272  1
  Zr  Zr14  1  0.49561143  0.10454012  0.30000785  1
  Zr  Zr15  1  0.10163457  0.89681648  0.69803024  1
  Zr  Zr16  1  0.90505486  0.30556143  0.30637970  1
  Zr  Zr17  1  0.30443853  0.91003598  0.30584538  1
  Zr  Zr18  1  0.70009774  0.48571559  0.89950547  1
  Zr  Zr19  1  0.89732876  0.69321570  0.49169425  1
  Zr  Zr20  1  0.89878400  0.30532944  0.49783575  1
  Zr  Zr21  1  0.90554855  0.29392154  0.10173765  1
  Zr  Zr22  1  0.70938935  0.69594168  0.70281496  1
  Zr  Zr23  1  0.69927057  0.31104708  0.10198851  1
  Zr  Zr24  1  0.70550997  0.89912497  0.30518230  1
  Zr  Zr25  1  0.89359870  0.50788957  0.70095237  1
  Zr  Zr26  1  0.50611606  0.70874260  0.70062454  1
  Zr  Zr27  1  0.89608605  0.10801215  0.49139024  1
  Zr  Zr28  1  0.50033477  0.30937746  0.89955991  1
  Zr  Zr29  1  0.50311888  0.89935473  0.09970724  1
  Zr  Zr30  1  0.69914436  0.89550150  0.10144487  1
  Zr  Zr31  1  0.49835993  0.70218833  0.10892016  1
  Zr  Zr32  1  0.30134705  0.30329017  0.50526365  1
  Zr  Zr33  1  0.29850370  0.49222757  0.90141373  1
  Zr  Zr34  1  0.29724338  0.49564229  0.29882916  1
  Zr  Zr35  1  0.10234168  0.70194418  0.09851841  1
  Zr  Zr36  1  0.29480848  0.30094217  0.30041975  1
  Zr  Zr37  1  0.09436284  0.49917399  0.90031770  1
  Zr  Zr38  1  0.89945559  0.10674410  0.91132017  1
  Zr  Zr39  1  0.90374281  0.91232460  0.10797227  1
  Zr  Zr40  1  0.09521935  0.11099196  0.89834279  1
  Zr  Zr41  1  0.89964575  0.90354784  0.90116011  1
  Zr  Zr42  1  0.09942407  0.89468760  0.90135620  1
  Zr  Zr43  1  0.49035065  0.69586639  0.89953934  1
  Zr  Zr44  1  0.29590071  0.50529689  0.10733841  1
  Zr  Zr45  1  0.08939730  0.70031003  0.70213192  1
  Zr  Zr46  1  0.09210195  0.70028121  0.90537136  1
  Zr  Zr47  1  0.69159919  0.09906743  0.69546871  1
  Zr  Zr48  1  0.30340919  0.69935194  0.49439944  1
  Zr  Zr49  1  0.29862717  0.89270054  0.69376519  1
  Sc  Sc50  1  0.09897501  0.69338732  0.50025186  1
  Sc  Sc51  1  0.09562717  0.10474247  0.49429733  1
  Sc  Sc52  1  0.50382302  0.30654288  0.50631685  1
  Sc  Sc53  1  0.09498569  0.10081362  0.69705416  1
  Sc  Sc54  1  0.50875291  0.10281888  0.69630346  1
  Sc  Sc55  1  0.50248328  0.69650288  0.30578481  1
  Sc  Sc56  1  0.50128234  0.29756812  0.69754314  1
  Sc  Sc57  1  0.30064300  0.70045601  0.70770046  1
  Sc  Sc58  1  0.70125056  0.90357280  0.89790342  1
  Sc  Sc59  1  0.91177152  0.89984312  0.70077551  1
  Sc  Sc60  1  0.69985085  0.69613077  0.30960682  1
  Sc  Sc61  1  0.29816081  0.69448302  0.90115469  1
  Sc  Sc62  1  0.50782606  0.09530716  0.89768987  1
  Sc  Sc63  1  0.10018484  0.30674259  0.89727200  1
  Sc  Sc64  1  0.89793903  0.30729987  0.69367814  1
  Sc  Sc65  1  0.90905737  0.70396348  0.08900130  1
  Sc  Sc66  1  0.69628041  0.49788519  0.50092219  1
  Sc  Sc67  1  0.70418273  0.10106507  0.89186515  1
  Sc  Sc68  1  0.29746283  0.49521908  0.49826752  1
  Sc  Sc69  1  0.49170421  0.49686305  0.90364014  1
  Sc  Sc70  1  0.30101054  0.89100369  0.90147020  1
  Sc  Sc71  1  0.50819890  0.89968178  0.89832966  1
  Sc  Sc72  1  0.49989384  0.10110004  0.09812022  1
  Sc  Sc73  1  0.70450961  0.29692410  0.49952505  1
  Sc  Sc74  1  0.69462046  0.68926966  0.50352064  1
  Sc  Sc75  1  0.50449834  0.49546761  0.31107838  1
  Sc  Sc76  1  0.50274785  0.30105091  0.29225518  1
  Sc  Sc77  1  0.90414778  0.10439063  0.70666622  1
  Sc  Sc78  1  0.30383714  0.10516133  0.89564896  1
  Sc  Sc79  1  0.50190854  0.88971728  0.29931135  1
  Sc  Sc80  1  0.71502058  0.10737030  0.10360348  1
  Sc  Sc81  1  0.10308853  0.49857305  0.50530896  1
  Sc  Sc82  1  0.10016625  0.69317437  0.30417985  1
  Sc  Sc83  1  0.89988283  0.29724867  0.89497211  1
  Sc  Sc84  1  0.50809748  0.49133066  0.69701460  1
  Sc  Sc85  1  0.09276363  0.90299651  0.50552464  1
  Sc  Sc86  1  0.51052822  0.10203939  0.50059916  1
  Sc  Sc87  1  0.69058999  0.89701389  0.70418567  1
  Sc  Sc88  1  0.30358274  0.30985301  0.11314791  1
  Sc  Sc89  1  0.69493199  0.90361741  0.49373155  1
  Sc  Sc90  1  0.10094682  0.10826494  0.30068118  1
  Sc  Sc91  1  0.09495691  0.89881834  0.09744873  1
  Sc  Sc92  1  0.70844935  0.71263444  0.89541480  1
  Sc  Sc93  1  0.70468193  0.49848767  0.69420805  1
  Sc  Sc94  1  0.49003403  0.49087867  0.09299054  1
  Sc  Sc95  1  0.10515551  0.49355423  0.29987443  1
  Sc  Sc96  1  0.09152986  0.10595831  0.10895283  1
  Sc  Sc97  1  0.09021346  0.30180638  0.49362083  1
  Sc  Sc98  1  0.30519350  0.30235967  0.70439180  1
  Sc  Sc99  1  0.09580931  0.30355011  0.69969078  1
  Nb  Nb100  1  0.30095035  0.69829507  0.10347610  1
  Nb  Nb101  1  0.29966208  0.29940949  0.90121179  1
  Nb  Nb102  1  0.49875286  0.89976663  0.70011507  1
  Nb  Nb103  1  0.50435722  0.68689895  0.50160079  1
  Nb  Nb104  1  0.90408979  0.49672624  0.09982545  1
  Nb  Nb105  1  0.09582679  0.30466155  0.10799342  1
  Nb  Nb106  1  0.90158627  0.50656071  0.90181970  1
  Nb  Nb107  1  0.09283235  0.49742917  0.09994181  1
  Nb  Nb108  1  0.29875012  0.89947011  0.49717451  1
  Nb  Nb109  1  0.89301127  0.69980137  0.69798636  1
  Nb  Nb110  1  0.50507518  0.50762034  0.50724759  1
  Nb  Nb111  1  0.70258717  0.48952499  0.29297263  1
  Nb  Nb112  1  0.70628487  0.49878653  0.09804655  1
  Nb  Nb113  1  0.89263098  0.90070959  0.48903336  1
  Nb  Nb114  1  0.09908267  0.29692220  0.29428344  1
  Nb  Nb115  1  0.89951078  0.69640605  0.30379413  1
  Nb  Nb116  1  0.89794640  0.49973657  0.30470824  1
  Nb  Nb117  1  0.89932768  0.49174543  0.49583029  1
  Nb  Nb118  1  0.89644209  0.09726565  0.29280628  1
  Nb  Nb119  1  0.29944999  0.10071769  0.09966482  1
  Nb  Nb120  1  0.69773244  0.30747043  0.30305065  1
  Nb  Nb121  1  0.49567217  0.29668700  0.09895365  1
  Nb  Nb122  1  0.90184960  0.10662741  0.10300549  1
  Nb  Nb123  1  0.89780159  0.89644722  0.30954770  1
  Nb  Nb124  1  0.29966575  0.90001528  0.09918555  1
  Nb  Nb125  1  0.80227434  -0.00297952  0.59547026  1
  Nb  Nb126  1  0.39804604  -0.00472931  0.79080501  1
  Nb  Nb127  1  0.60715473  0.59744526  0.00177407  1
  Nb  Nb128  1  0.20308110  0.00762781  -0.00049647  1
  Nb  Nb129  1  0.80116060  0.59332452  0.00171833  1
  Nb  Nb130  1  0.20479666  0.20445400  0.00567375  1
  Nb  Nb131  1  0.20246424  0.00008001  0.80150195  1
  Nb  Nb132  1  0.59813286  0.20847519  0.00326766  1
  Nb  Nb133  1  0.39947873  -0.00701107  0.59794420  1
  Nb  Nb134  1  0.60989718  0.58982862  0.19587295  1
  Nb  Nb135  1  0.39916245  0.00038615  0.19501285  1
  Nb  Nb136  1  0.39753959  0.20233700  0.39901385  1
  Nb  Nb137  1  0.20614509  0.80181057  0.20215879  1
  Nb  Nb138  1  -0.00818383  0.59323782  0.20030801  1
  Nb  Nb139  1  0.60049569  0.00128791  0.20174776  1
  Nb  Nb140  1  0.39780850  0.20506971  0.00155040  1
  Nb  Nb141  1  0.60260414  0.59918587  0.80649212  1
  Nb  Nb142  1  0.20271553  0.20038244  0.59618264  1
  Nb  Nb143  1  0.40643752  0.60049977  0.59803795  1
  Nb  Nb144  1  0.80570870  0.80298490  0.59545886  1
  Nb  Nb145  1  0.20379653  0.80539345  0.39715752  1
  Nb  Nb146  1  0.81122322  0.79622590  0.20939766  1
  Nb  Nb147  1  0.39808044  0.79836718  0.00974280  1
  Nb  Nb148  1  0.19694805  0.59542494  0.00657194  1
  Nb  Nb149  1  0.80501705  0.59572298  0.19970709  1
  Pd  Pd150  1  0.20013407  0.79824326  0.80268751  1
  Pd  Pd151  1  0.00779452  0.00578793  0.00274562  1
  Pd  Pd152  1  0.00570725  0.00226852  0.80301847  1
  Pd  Pd153  1  0.61330368  0.01362610  0.00739349  1
  Pd  Pd154  1  0.19180443  0.39688060  0.40379415  1
  Pd  Pd155  1  0.20060965  0.39809925  0.00898513  1
  Pd  Pd156  1  -0.00829260  0.40055184  0.79820893  1
  Pd  Pd157  1  0.00836348  0.79760447  0.40506751  1
  Pd  Pd158  1  0.79597591  -0.00230774  0.20568544  1
  Pd  Pd159  1  0.40003486  0.19117460  0.58989624  1
  Pd  Pd160  1  0.39943695  0.79404201  0.59798568  1
  Pd  Pd161  1  0.79971925  -0.00321130  0.78869337  1
  Pd  Pd162  1  0.79114320  0.58970525  0.39915609  1
  Pd  Pd163  1  0.19597359  0.20299947  0.79575540  1
  Pd  Pd164  1  0.59202088  -0.00305482  0.39453808  1
  Pd  Pd165  1  0.60290346  0.79254441  0.40548819  1
  Pd  Pd166  1  0.60377908  0.19693834  0.19426647  1
  Pd  Pd167  1  -0.00096686  0.79053147  0.20281740  1
  Pd  Pd168  1  0.19532154  0.60085432  0.80709178  1
  Pd  Pd169  1  0.18422481  -0.00625538  0.40068999  1
  Pd  Pd170  1  0.19742738  -0.00438065  0.19184813  1
  Pd  Pd171  1  0.80206823  0.20062462  0.79289315  1
  Pd  Pd172  1  0.41030869  0.19459488  0.80579275  1
  Pd  Pd173  1  0.80923061  0.39792865  0.20148087  1
  Pd  Pd174  1  0.79977215  0.19582334  0.60720520  1
  Pd  Pd175  1  0.61041686  0.80088208  0.59452098  1
  Pd  Pd176  1  0.59498246  0.79191495  -0.00937426  1
  Pd  Pd177  1  0.20051785  0.00711643  0.60155872  1
  Pd  Pd178  1  0.80786042  0.80045855  0.00498085  1
  Pd  Pd179  1  0.79493390  0.00381158  0.00085966  1
  Pd  Pd180  1  -0.00565429  0.59542165  0.59747751  1
  Pd  Pd181  1  0.00404404  0.20296982  0.59988693  1
  Pd  Pd182  1  0.20666634  0.60687723  0.60052946  1
  Pd  Pd183  1  -0.00983137  0.00564857  0.59442257  1
  Pd  Pd184  1  0.40670041  0.39519707  0.40256075  1
  Pd  Pd185  1  0.58990993  0.40577432  0.19322833  1
  Pd  Pd186  1  0.81277366  0.39661529  -0.00364523  1
  Pd  Pd187  1  0.40680012  0.58869928  0.78731877  1
  Pd  Pd188  1  0.39423302  -0.00073588  -0.00580449  1
  Pd  Pd189  1  0.19687054  0.79107598  0.59203914  1
  Pd  Pd190  1  -0.00523448  0.39225604  -0.00412915  1
  Pd  Pd191  1  -0.00849342  0.79659035  0.59120465  1
  Pd  Pd192  1  0.39782198  0.79347660  0.39397183  1
  Pd  Pd193  1  -0.00035033  0.00744830  0.39611554  1
  Pd  Pd194  1  0.40102971  0.40318455  0.79364670  1
  Pd  Pd195  1  0.41620220  0.58889924  0.20432840  1
  Pd  Pd196  1  0.60171247  0.39800429  0.40666589  1
  Pd  Pd197  1  0.39995337  0.59180026  0.40324267  1
  Pd  Pd198  1  0.00755801  0.58820750  0.39643660  1
  Pd  Pd199  1  0.80042495  0.21038874  0.20757935  1
  Rh  Rh200  1  0.19500563  0.38861003  0.60082960  1
  Rh  Rh201  1  0.39238543  0.80822689  0.19919750  1
  Rh  Rh202  1  0.80145739  0.00756074  0.40125175  1
  Rh  Rh203  1  0.79420339  0.40072626  0.40278056  1
  Rh  Rh204  1  0.00038760  0.59839006  0.79409447  1
  Rh  Rh205  1  0.00779836  0.20748109  0.00270201  1
  Rh  Rh206  1  0.79671950  0.79397344  0.40371762  1
  Rh  Rh207  1  0.39698990  0.19628518  0.19962369  1
  Rh  Rh208  1  0.61340250  0.79884745  0.21180355  1
  Rh  Rh209  1  -0.00324574  0.79984324  0.79900336  1
  Rh  Rh210  1  -0.00864401  0.80736846  -0.00229629  1
  Rh  Rh211  1  0.80601979  0.81367795  0.78834427  1
  Rh  Rh212  1  0.19993317  0.60172163  0.40128559  1
  Rh  Rh213  1  0.59730061  0.20386129  0.80677806  1
  Rh  Rh214  1  0.40487402  0.40450442  0.20694685  1
  Rh  Rh215  1  0.59984073  0.79578158  0.80486010  1
  Rh  Rh216  1  0.20011128  0.39644949  0.79757298  1
  Rh  Rh217  1  -0.00252597  0.19838635  0.20676634  1
  Rh  Rh218  1  0.60447019  0.39663924  0.59799943  1
  Rh  Rh219  1  0.59485497  -0.00025523  0.79621468  1
  Rh  Rh220  1  0.20279204  0.20947341  0.40752617  1
  Rh  Rh221  1  0.41023804  0.00517069  0.40175455  1
  Rh  Rh222  1  0.20720805  0.79687232  0.00814738  1
  Rh  Rh223  1  0.40154693  0.41087071  0.60151797  1
  Rh  Rh224  1  0.19352254  0.39804723  0.19931773  1
  Rh  Rh225  1  0.79590512  0.20382031  0.00097482  1
  Rh  Rh226  1  -0.00006535  0.59781613  0.00406121  1
  Rh  Rh227  1  0.80136246  0.20724365  0.39210458  1
  Rh  Rh228  1  -0.00464961  0.19794302  0.39135649  1
  Rh  Rh229  1  0.38978142  0.39229466  0.00257143  1
  Rh  Rh230  1  -0.00285047  0.20692315  0.79764534  1
  Rh  Rh231  1  0.80415820  0.60132317  0.59070951  1
  Rh  Rh232  1  0.80612681  0.40281877  0.79819345  1
  Rh  Rh233  1  0.19724444  0.20857003  0.19136727  1
  Rh  Rh234  1  0.59501053  0.39942409  0.00560981  1
  Rh  Rh235  1  0.79967930  0.40420968  0.59437136  1
  Rh  Rh236  1  0.59901176  -0.00782039  0.59858945  1
  Rh  Rh237  1  0.39511912  0.60593511  0.00413173  1
  Rh  Rh238  1  0.60472605  0.20832930  0.59898360  1
  Rh  Rh239  1  0.79171823  0.59216435  0.81135333  1
  Rh  Rh240  1  0.59744048  0.59915468  0.61261897  1
  Rh  Rh241  1  -0.00273487  0.40606332  0.59795114  1
  Rh  Rh242  1  -0.00277546  0.00769707  0.20502634  1
  Rh  Rh243  1  0.00503029  0.40506184  0.39836739  1
  Rh  Rh244  1  0.60392687  0.59236741  0.39209978  1
  Rh  Rh245  1  0.59920926  0.40309429  0.79734551  1
  Rh  Rh246  1  0.18682584  0.60180593  0.19597001  1
  Rh  Rh247  1  0.00156392  0.40331276  0.20574821  1
  Rh  Rh248  1  0.40310469  0.80672312  0.81052526  1
  Rh  Rh249  1  0.59345677  0.21347395  0.39949256  1
