# generated using pymatgen
data_ZrScNbPdRh
_symmetry_space_group_name_H-M   'P 1'
_cell_length_a   16.55685457
_cell_length_b   16.55832044
_cell_length_c   16.55646850
_cell_angle_alpha   89.95987524
_cell_angle_beta   89.99023120
_cell_angle_gamma   90.00224454
_symmetry_Int_Tables_number   1
_chemical_formula_structural   ZrScNbPdRh
_chemical_formula_sum   'Zr50 Sc50 Nb50 Pd50 Rh50'
_cell_volume   4539.01597417
_cell_formula_units_Z   50
loop_
 _symmetry_equiv_pos_site_id
 _symmetry_equiv_pos_as_xyz
  1  'x, y, z'
loop_
 _atom_site_type_symbol
 _atom_site_label
 _atom_site_symmetry_multiplicity
 _atom_site_fract_x
 _atom_site_fract_y
 _atom_site_fract_z
 _atom_site_occupancy
  Zr  Zr0  1  0.69589320  0.30405864  0.30413293  1
  Zr  Zr1  1  0.69797910  0.29860716  0.09655283  1
  Zr  Zr2  1  0.90000229  0.10476856  0.10061286  1
  Zr  Zr3  1  0.49999297  0.69294737  0.70024238  1
  Zr  Zr4  1  0.10066388  0.29144225  0.50016685  1
  Zr  Zr5  1  0.50374543  0.89418006  0.30104767  1
  Zr  Zr6  1  0.29887510  0.90276067  0.49548429  1
  Zr  Zr7  1  0.49942289  0.70678058  0.89570545  1
  Zr  Zr8  1  0.90089305  0.10650773  0.69360612  1
  Zr  Zr9  1  0.49047302  0.50264859  0.90012470  1
  Zr  Zr10  1  0.31021935  0.50623967  0.09599988  1
  Zr  Zr11  1  0.49627258  0.29972537  0.30314033  1
  Zr  Zr12  1  0.29278153  0.70152491  0.49635682  1
  Zr  Zr13  1  0.90319926  0.90093562  0.10305950  1
  Zr  Zr14  1  0.70746183  0.50412152  0.10236985  1
  Zr  Zr15  1  0.10212410  0.70114954  0.10386496  1
  Zr  Zr16  1  0.30326554  0.89870893  0.30571356  1
  Zr  Zr17  1  0.70803566  0.89994071  0.69695472  1
  Zr  Zr18  1  0.49974033  0.09928883  0.50623828  1
  Zr  Zr19  1  0.49543685  0.90209696  0.49882445  1
  Zr  Zr20  1  0.29628133  0.90403383  0.68593190  1
  Zr  Zr21  1  0.90065251  0.90670874  0.50145613  1
  Zr  Zr22  1  0.29229757  0.50213708  0.50237506  1
  Zr  Zr23  1  0.30772307  0.09967484  0.89362229  1
  Zr  Zr24  1  0.69439364  0.90423621  0.10278671  1
  Zr  Zr25  1  0.10310003  0.88796824  0.09318470  1
  Zr  Zr26  1  0.11310775  0.30520489  0.90191923  1
  Zr  Zr27  1  0.09629322  0.70093020  0.69123095  1
  Zr  Zr28  1  0.49971282  0.09722182  0.70351305  1
  Zr  Zr29  1  0.89521664  0.69825254  0.31206809  1
  Zr  Zr30  1  0.09184158  0.90329938  0.69011125  1
  Zr  Zr31  1  0.69585479  0.49617818  0.69433316  1
  Zr  Zr32  1  0.10472735  0.49859114  0.89525405  1
  Zr  Zr33  1  0.50364068  0.30087592  0.50248933  1
  Zr  Zr34  1  0.10174708  0.29405864  0.30582119  1
  Zr  Zr35  1  0.09718278  0.49899717  0.10262419  1
  Zr  Zr36  1  0.09956021  0.50308700  0.30013488  1
  Zr  Zr37  1  0.10048889  0.69718312  0.30583067  1
  Zr  Zr38  1  0.49272527  0.30695747  0.89838652  1
  Zr  Zr39  1  0.10518852  0.89725439  0.50542485  1
  Zr  Zr40  1  0.49844888  0.90303406  0.89559927  1
  Zr  Zr41  1  0.09432705  0.30129438  0.09805303  1
  Zr  Zr42  1  0.09872918  0.70632300  0.90681950  1
  Zr  Zr43  1  0.49373519  0.50858395  0.30228965  1
  Zr  Zr44  1  0.89643326  0.50508562  0.29418065  1
  Zr  Zr45  1  0.70149918  0.50181579  0.90308588  1
  Zr  Zr46  1  0.70144075  0.90787838  0.30479433  1
  Zr  Zr47  1  0.29651733  0.30052042  0.09325014  1
  Zr  Zr48  1  0.69661953  0.49939815  0.49900331  1
  Zr  Zr49  1  0.30263943  0.89279801  0.10215659  1
  Sc  Sc50  1  0.69709631  0.30144288  0.50834578  1
  Sc  Sc51  1  0.89359301  0.69057602  0.10309879  1
  Sc  Sc52  1  0.49624094  0.89689287  0.09446414  1
  Sc  Sc53  1  0.90563297  0.08477828  0.30447044  1
  Sc  Sc54  1  0.29967569  0.09225470  0.29851934  1
  Sc  Sc55  1  0.30513297  0.10317057  0.69491286  1
  Sc  Sc56  1  0.49978746  0.09415564  0.89624632  1
  Sc  Sc57  1  0.69468640  0.10304262  0.09174735  1
  Sc  Sc58  1  0.29987734  0.51091270  0.31197901  1
  Sc  Sc59  1  0.69964417  0.70466200  0.69857617  1
  Sc  Sc60  1  0.89273912  0.69940320  0.89960253  1
  Sc  Sc61  1  0.70153787  0.69801924  0.89504903  1
  Sc  Sc62  1  0.09622006  0.89611685  0.90493898  1
  Sc  Sc63  1  0.29762393  0.50684565  0.70532127  1
  Sc  Sc64  1  0.29911391  0.29093477  0.30448565  1
  Sc  Sc65  1  0.09747945  0.11132859  0.89267724  1
  Sc  Sc66  1  0.30405891  0.09739092  0.10764533  1
  Sc  Sc67  1  0.91317172  0.29571258  0.89307369  1
  Sc  Sc68  1  0.10174824  0.10637767  0.10783571  1
  Sc  Sc69  1  0.69347337  0.29380748  0.90011435  1
  Sc  Sc70  1  0.50612597  0.89776665  0.70118774  1
  Sc  Sc71  1  0.50052904  0.29921517  0.09967893  1
  Sc  Sc72  1  0.30149870  0.69653918  0.69434676  1
  Sc  Sc73  1  0.09659804  0.10068329  0.69224397  1
  Sc  Sc74  1  0.69469592  0.10549850  0.89631005  1
  Sc  Sc75  1  0.31021133  0.69739745  0.89652788  1
  Sc  Sc76  1  0.70105802  0.09212447  0.50495842  1
  Sc  Sc77  1  0.09919424  0.50954401  0.69920131  1
  Sc  Sc78  1  0.10117470  0.10094365  0.30821740  1
  Sc  Sc79  1  0.69584876  0.69088086  0.10290575  1
  Sc  Sc80  1  0.10156388  0.90654838  0.30955929  1
  Sc  Sc81  1  0.09970752  0.10155970  0.49859857  1
  Sc  Sc82  1  0.49221266  0.69828434  0.10525405  1
  Sc  Sc83  1  0.69963044  0.89812421  0.50276438  1
  Sc  Sc84  1  0.90336845  0.50295990  0.89122518  1
  Sc  Sc85  1  0.50136142  0.50324848  0.50123459  1
  Sc  Sc86  1  0.90205805  0.30329086  0.30002955  1
  Sc  Sc87  1  0.50229246  0.49929512  0.70007565  1
  Sc  Sc88  1  0.50604337  0.29669845  0.70072088  1
  Sc  Sc89  1  0.31160984  0.89597776  0.90427658  1
  Sc  Sc90  1  0.49562798  0.09766925  0.09779399  1
  Sc  Sc91  1  0.10613322  0.29561967  0.69933236  1
  Sc  Sc92  1  0.69787482  0.50615999  0.29814497  1
  Sc  Sc93  1  0.50665380  0.69857186  0.49808891  1
  Sc  Sc94  1  0.69026421  0.89269288  0.89111910  1
  Sc  Sc95  1  0.89769104  0.70166196  0.69852427  1
  Sc  Sc96  1  0.50523135  0.50738261  0.10001554  1
  Sc  Sc97  1  0.28836675  0.29349197  0.50325862  1
  Sc  Sc98  1  0.90267701  0.10855585  0.89031667  1
  Sc  Sc99  1  0.30527809  0.70074413  0.29878476  1
  Nb  Nb100  1  0.89978540  0.89824514  0.90013266  1
  Nb  Nb101  1  0.89915945  0.49893824  0.10088249  1
  Nb  Nb102  1  0.90280210  0.10808065  0.49946488  1
  Nb  Nb103  1  0.30227188  0.09288899  0.50193706  1
  Nb  Nb104  1  0.90090727  0.49865764  0.69450998  1
  Nb  Nb105  1  0.89811711  0.90085834  0.30027231  1
  Nb  Nb106  1  0.70680357  0.29071099  0.69937169  1
  Nb  Nb107  1  0.30146524  0.30904985  0.89582871  1
  Nb  Nb108  1  0.50760190  0.69757213  0.29987099  1
  Nb  Nb109  1  0.90258625  0.69537279  0.49956580  1
  Nb  Nb110  1  0.89305849  0.29548318  0.69242352  1
  Nb  Nb111  1  0.89739917  0.49858590  0.49785682  1
  Nb  Nb112  1  0.70458581  0.69514974  0.49320518  1
  Nb  Nb113  1  0.30283453  0.48927740  0.90382944  1
  Nb  Nb114  1  0.89983085  0.29458586  0.50148182  1
  Nb  Nb115  1  0.49969874  0.10242828  0.30258496  1
  Nb  Nb116  1  0.69414387  0.70377411  0.30946799  1
  Nb  Nb117  1  0.70366579  0.10535018  0.70251171  1
  Nb  Nb118  1  0.09819253  0.49950152  0.50448743  1
  Nb  Nb119  1  0.89992199  0.90373942  0.70086484  1
  Nb  Nb120  1  0.89831084  0.30293879  0.09887942  1
  Nb  Nb121  1  0.70102972  0.10064437  0.30124900  1
  Nb  Nb122  1  0.30686248  0.29952543  0.70692294  1
  Nb  Nb123  1  0.09139833  0.69954405  0.50510201  1
  Nb  Nb124  1  0.29936823  0.70421827  0.09815126  1
  Nb  Nb125  1  0.40328618  0.19201241  0.40414336  1
  Nb  Nb126  1  0.19852324  -0.00628573  0.80127766  1
  Nb  Nb127  1  -0.00682640  0.40013984  0.59631344  1
  Nb  Nb128  1  0.19766104  -0.00081441  -0.00357923  1
  Nb  Nb129  1  0.80402691  -0.00109624  0.79742437  1
  Nb  Nb130  1  0.79860283  0.80289399  0.20622576  1
  Nb  Nb131  1  0.79616943  0.19861193  0.20482000  1
  Nb  Nb132  1  0.20295353  0.59926184  -0.00051213  1
  Nb  Nb133  1  0.39344806  0.39636886  0.60239770  1
  Nb  Nb134  1  0.00283521  0.59633835  0.00360322  1
  Nb  Nb135  1  0.19547729  0.80503139  0.79599653  1
  Nb  Nb136  1  0.79747838  0.80652087  0.00609275  1
  Nb  Nb137  1  0.60168620  0.19639257  0.20783893  1
  Nb  Nb138  1  -0.00089679  0.00152474  -0.00057737  1
  Nb  Nb139  1  0.80424703  -0.00350932  -0.00783774  1
  Nb  Nb140  1  0.39503505  0.20527154  -0.00637163  1
  Nb  Nb141  1  0.80065206  0.19653771  0.39921046  1
  Nb  Nb142  1  0.20347333  0.40122898  0.20006342  1
  Nb  Nb143  1  0.80146292  0.39447401  0.79383974  1
  Nb  Nb144  1  0.80745436  0.39822707  -0.00145592  1
  Nb  Nb145  1  0.39405226  0.40219260  0.20291676  1
  Nb  Nb146  1  0.80476886  0.59745688  0.59172753  1
  Nb  Nb147  1  -0.00267476  0.80590747  0.79737958  1
  Nb  Nb148  1  -0.00152833  0.40219559  0.40900780  1
  Nb  Nb149  1  -0.00683907  0.79983121  0.20820452  1
  Pd  Pd150  1  0.40778453  -0.00649907  0.20168985  1
  Pd  Pd151  1  0.60351966  0.00277863  -0.00706843  1
  Pd  Pd152  1  0.20058738  0.40348681  0.78795915  1
  Pd  Pd153  1  0.20251295  0.19367537  0.79323184  1
  Pd  Pd154  1  0.00250758  0.59329843  0.40495148  1
  Pd  Pd155  1  0.00326378  0.39658339  0.20807579  1
  Pd  Pd156  1  0.40255237  0.79741705  0.59991486  1
  Pd  Pd157  1  0.79753997  0.80648142  0.40263819  1
  Pd  Pd158  1  0.79945431  0.59513161  0.78905379  1
  Pd  Pd159  1  0.79927567  0.39451407  0.19631769  1
  Pd  Pd160  1  0.60195509  0.60036137  0.80067845  1
  Pd  Pd161  1  0.80348800  0.39536800  0.40000052  1
  Pd  Pd162  1  0.59365405  0.20065610  0.80154391  1
  Pd  Pd163  1  0.59717973  0.40798639  0.40018175  1
  Pd  Pd164  1  0.39041544  0.39243772  0.40518448  1
  Pd  Pd165  1  0.80415667  0.20208488  -0.00471531  1
  Pd  Pd166  1  -0.00438689  0.60993033  0.80256406  1
  Pd  Pd167  1  0.79641691  0.00530491  0.19396912  1
  Pd  Pd168  1  0.60054257  0.79553333  0.59637890  1
  Pd  Pd169  1  0.00169822  -0.00115257  0.80639257  1
  Pd  Pd170  1  0.40065443  0.59318444  0.59585152  1
  Pd  Pd171  1  0.20535251  0.60890578  0.80652735  1
  Pd  Pd172  1  0.20655973  0.18940465  -0.00159457  1
  Pd  Pd173  1  0.80551771  0.79300026  0.59430870  1
  Pd  Pd174  1  0.60290463  0.19476690  0.40412223  1
  Pd  Pd175  1  0.80056959  0.40133386  0.60132801  1
  Pd  Pd176  1  0.40522334  0.79118981  0.39928401  1
  Pd  Pd177  1  0.00236887  0.80657137  0.40023648  1
  Pd  Pd178  1  0.19370553  -0.00460251  0.19541681  1
  Pd  Pd179  1  -0.00839503  0.19858663  0.20915386  1
  Pd  Pd180  1  0.01214449  -0.00579815  0.19715967  1
  Pd  Pd181  1  0.19662782  0.80254942  0.21317686  1
  Pd  Pd182  1  0.00208516  0.19747747  -0.00156400  1
  Pd  Pd183  1  0.39350999  0.80485276  0.78827459  1
  Pd  Pd184  1  0.60373783  0.79234255  0.00285717  1
  Pd  Pd185  1  0.60328511  0.40406870  0.00048592  1
  Pd  Pd186  1  0.59506336  0.60634763  -0.00227049  1
  Pd  Pd187  1  0.21039981  0.59673662  0.19770612  1
  Pd  Pd188  1  0.19912129  0.40028390  0.60918111  1
  Pd  Pd189  1  0.60609900  0.39554234  0.79821877  1
  Pd  Pd190  1  0.59895385  0.00049603  0.40334696  1
  Pd  Pd191  1  0.59116680  0.40025717  0.19948369  1
  Pd  Pd192  1  -0.00227545  0.39396168  0.78707530  1
  Pd  Pd193  1  0.19755609  0.40094397  0.39580928  1
  Pd  Pd194  1  0.60337417  0.79494362  0.19784239  1
  Pd  Pd195  1  -0.00696652  0.40528066  -0.00601892  1
  Pd  Pd196  1  0.60053951  -0.00024346  0.60559421  1
  Pd  Pd197  1  0.59319641  0.00716712  0.19906372  1
  Pd  Pd198  1  0.39709894  0.20662146  0.59628032  1
  Pd  Pd199  1  0.20251767  0.20270941  0.20262266  1
  Rh  Rh200  1  0.80648293  0.59618096  -0.00285363  1
  Rh  Rh201  1  -0.00421209  0.00518742  0.59169213  1
  Rh  Rh202  1  0.40239740  0.79812364  0.20337061  1
  Rh  Rh203  1  0.39859413  0.40508903  0.78934367  1
  Rh  Rh204  1  0.39840036  0.60514085  -0.00382867  1
  Rh  Rh205  1  0.00105218  -0.00187248  0.40693630  1
  Rh  Rh206  1  0.40781926  0.20495689  0.20187671  1
  Rh  Rh207  1  0.60913433  0.60630602  0.59828824  1
  Rh  Rh208  1  0.59265566  0.39537746  0.60552411  1
  Rh  Rh209  1  0.19814711  0.00989643  0.60019641  1
  Rh  Rh210  1  0.19546616  0.79736335  0.40075410  1
  Rh  Rh211  1  0.40357784  0.60833227  0.40523307  1
  Rh  Rh212  1  -0.00570829  0.59534434  0.59662117  1
  Rh  Rh213  1  0.80312689  0.00505180  0.40640167  1
  Rh  Rh214  1  0.39909831  0.60198568  0.20317352  1
  Rh  Rh215  1  0.19231303  0.60498050  0.40844427  1
  Rh  Rh216  1  -0.01155451  0.79935237  0.60048215  1
  Rh  Rh217  1  -0.00943789  0.20179180  0.39571939  1
  Rh  Rh218  1  0.39258937  0.00686958  0.00380714  1
  Rh  Rh219  1  0.60259759  0.80178146  0.40579711  1
  Rh  Rh220  1  0.59950206  0.79635591  0.79324838  1
  Rh  Rh221  1  0.79430148  0.60915276  0.20899174  1
  Rh  Rh222  1  0.80400706  0.00704952  0.60427380  1
  Rh  Rh223  1  0.19673984  0.60272745  0.59620462  1
  Rh  Rh224  1  0.20100233  0.40783509  0.00563775  1
  Rh  Rh225  1  0.21174335  0.18622748  0.40324605  1
  Rh  Rh226  1  0.80136517  0.20113825  0.80180941  1
  Rh  Rh227  1  0.79521941  0.59612012  0.40209823  1
  Rh  Rh228  1  0.40515116  -0.00339800  0.60339878  1
  Rh  Rh229  1  0.40233375  0.00512311  0.39724951  1
  Rh  Rh230  1  0.60728958  0.19670474  0.60365562  1
  Rh  Rh231  1  0.00652193  0.20896853  0.79125886  1
  Rh  Rh232  1  0.20516172  0.19531945  0.60361359  1
  Rh  Rh233  1  0.20115877  0.79274445  0.60067687  1
  Rh  Rh234  1  0.79358899  0.19416584  0.58986565  1
  Rh  Rh235  1  0.20042974  0.00224692  0.40482929  1
  Rh  Rh236  1  0.21616218  0.79708614  -0.01163898  1
  Rh  Rh237  1  0.59849354  0.59986349  0.39850841  1
  Rh  Rh238  1  -0.01658411  0.79291285  0.00223694  1
  Rh  Rh239  1  0.39489210  -0.00642450  0.79083887  1
  Rh  Rh240  1  0.40448245  0.79515496  0.00279887  1
  Rh  Rh241  1  0.60142457  0.60200529  0.20397488  1
  Rh  Rh242  1  0.61122371  0.00096895  0.79448276  1
  Rh  Rh243  1  0.00314476  0.20562765  0.60233873  1
  Rh  Rh244  1  0.39887465  0.59526887  0.80047619  1
  Rh  Rh245  1  -0.00686826  0.60810980  0.19771203  1
  Rh  Rh246  1  0.40316279  0.20383259  0.80353380  1
  Rh  Rh247  1  0.58428056  0.19685789  0.00156599  1
  Rh  Rh248  1  0.80274970  0.80628319  0.80495806  1
  Rh  Rh249  1  0.40464186  0.39566413  0.00853990  1
