# generated using pymatgen
data_ZrScNbPdRh
_symmetry_space_group_name_H-M   'P 1'
_cell_length_a   16.56116417
_cell_length_b   16.56383938
_cell_length_c   16.56463041
_cell_angle_alpha   90.00269278
_cell_angle_beta   89.99933613
_cell_angle_gamma   90.00855750
_symmetry_Int_Tables_number   1
_chemical_formula_structural   ZrScNbPdRh
_chemical_formula_sum   'Zr50 Sc50 Nb50 Pd50 Rh50'
_cell_volume   4543.95077410
_cell_formula_units_Z   50
loop_
 _symmetry_equiv_pos_site_id
 _symmetry_equiv_pos_as_xyz
  1  'x, y, z'
loop_
 _atom_site_type_symbol
 _atom_site_label
 _atom_site_symmetry_multiplicity
 _atom_site_fract_x
 _atom_site_fract_y
 _atom_site_fract_z
 _atom_site_occupancy
  Zr  Zr0  1  0.69397102  0.30149856  0.49429190  1
  Zr  Zr1  1  0.09829620  0.90565193  0.10589595  1
  Zr  Zr2  1  0.70402566  0.08794429  0.89414132  1
  Zr  Zr3  1  0.69380309  0.09313806  0.69298343  1
  Zr  Zr4  1  0.09335223  0.90337352  0.69743876  1
  Zr  Zr5  1  0.90333185  0.69831543  0.29504566  1
  Zr  Zr6  1  0.09238568  0.49762691  0.50296594  1
  Zr  Zr7  1  0.69384369  0.50120304  0.69559958  1
  Zr  Zr8  1  0.09900099  0.29719964  0.30664121  1
  Zr  Zr9  1  0.30244825  0.90824409  0.69656953  1
  Zr  Zr10  1  0.90041210  0.29431441  0.10065322  1
  Zr  Zr11  1  0.90228477  0.08908011  0.89565662  1
  Zr  Zr12  1  0.90411011  0.30625723  0.89051409  1
  Zr  Zr13  1  0.89769383  0.89818166  0.88815932  1
  Zr  Zr14  1  0.10053447  0.10048279  0.30065845  1
  Zr  Zr15  1  0.90271434  0.50239267  0.70550328  1
  Zr  Zr16  1  0.29565837  0.10580628  0.50607600  1
  Zr  Zr17  1  0.70380620  0.09359467  0.10044381  1
  Zr  Zr18  1  0.29085007  0.10149464  0.09774604  1
  Zr  Zr19  1  0.69948951  0.69196862  0.29866178  1
  Zr  Zr20  1  0.70105873  0.89675494  0.09302128  1
  Zr  Zr21  1  0.90110719  0.69265051  0.50655588  1
  Zr  Zr22  1  0.90583765  0.90632978  0.50247863  1
  Zr  Zr23  1  0.69642108  0.90120057  0.50808884  1
  Zr  Zr24  1  0.09779168  0.49908388  0.89158593  1
  Zr  Zr25  1  0.69835673  0.30053081  0.30837659  1
  Zr  Zr26  1  0.90634182  0.30054122  0.50105263  1
  Zr  Zr27  1  0.70198912  0.49979790  0.49912864  1
  Zr  Zr28  1  0.70067049  0.50988014  0.10478404  1
  Zr  Zr29  1  0.29972313  0.30541758  0.89850988  1
  Zr  Zr30  1  0.10533150  0.50162231  0.69505576  1
  Zr  Zr31  1  0.10049370  0.69684710  0.69942919  1
  Zr  Zr32  1  0.50322117  0.70101999  0.10113230  1
  Zr  Zr33  1  0.49712310  0.70285678  0.89463783  1
  Zr  Zr34  1  0.50525725  0.89552158  0.89674606  1
  Zr  Zr35  1  0.30297145  0.50563107  0.69845213  1
  Zr  Zr36  1  0.29476458  0.10668202  0.89328914  1
  Zr  Zr37  1  0.10857091  0.29798294  0.89089366  1
  Zr  Zr38  1  0.49909209  0.50604111  0.30255475  1
  Zr  Zr39  1  0.50052731  0.90538951  0.70172217  1
  Zr  Zr40  1  0.49776095  0.70349100  0.30688399  1
  Zr  Zr41  1  0.09385746  0.30096708  0.69954856  1
  Zr  Zr42  1  0.29824983  0.31022362  0.09574723  1
  Zr  Zr43  1  0.69704894  0.49558586  0.30271357  1
  Zr  Zr44  1  0.10563506  0.29352243  0.10581225  1
  Zr  Zr45  1  0.09718551  0.70220561  0.90172758  1
  Zr  Zr46  1  0.69740715  0.89985821  0.29604889  1
  Zr  Zr47  1  0.90017541  0.69609880  0.09796405  1
  Zr  Zr48  1  0.70186443  0.69606990  0.50692960  1
  Zr  Zr49  1  0.30364856  0.90204000  0.89167394  1
  Sc  Sc50  1  0.69877996  0.30440217  0.69023775  1
  Sc  Sc51  1  0.10868343  0.50196006  0.10786867  1
  Sc  Sc52  1  0.49792396  0.49965407  0.69352675  1
  Sc  Sc53  1  0.50235200  0.09154899  0.29499978  1
  Sc  Sc54  1  0.49802153  0.69482589  0.50076583  1
  Sc  Sc55  1  0.49595609  0.30494251  0.50092597  1
  Sc  Sc56  1  0.48915262  0.10322878  0.89140005  1
  Sc  Sc57  1  0.10142952  0.10166238  0.69720676  1
  Sc  Sc58  1  0.90139660  0.89758315  0.10480426  1
  Sc  Sc59  1  0.71468424  0.50542574  0.89324249  1
  Sc  Sc60  1  0.10356035  0.91504736  0.50043503  1
  Sc  Sc61  1  0.70387933  0.10044727  0.30293124  1
  Sc  Sc62  1  0.70273894  0.31162870  0.89472332  1
  Sc  Sc63  1  0.70219912  0.30463177  0.09965290  1
  Sc  Sc64  1  0.49521008  0.88499127  0.50447308  1
  Sc  Sc65  1  0.90436653  0.49858553  0.31688622  1
  Sc  Sc66  1  0.49157399  0.30601358  0.09399265  1
  Sc  Sc67  1  0.50552125  0.30054751  0.30989546  1
  Sc  Sc68  1  0.69784268  0.10441274  0.50391663  1
  Sc  Sc69  1  0.10254558  0.69093712  0.30086129  1
  Sc  Sc70  1  0.90377829  0.09313935  0.10759374  1
  Sc  Sc71  1  0.09554319  0.90386112  0.89774964  1
  Sc  Sc72  1  0.29976330  0.29479509  0.30162355  1
  Sc  Sc73  1  0.70850580  0.70108269  0.10156089  1
  Sc  Sc74  1  0.70509036  0.69528013  0.69965012  1
  Sc  Sc75  1  0.49276479  0.69177714  0.69875958  1
  Sc  Sc76  1  0.29963319  0.70735690  0.88644928  1
  Sc  Sc77  1  0.48950215  0.30750335  0.89745451  1
  Sc  Sc78  1  0.90025566  0.69621509  0.90194273  1
  Sc  Sc79  1  0.29217440  0.29483923  0.69806226  1
  Sc  Sc80  1  0.90337229  0.28924894  0.30869603  1
  Sc  Sc81  1  0.09888673  0.29480400  0.50509675  1
  Sc  Sc82  1  0.69979638  0.90090411  0.70369312  1
  Sc  Sc83  1  0.29054934  0.70142458  0.10831690  1
  Sc  Sc84  1  0.29413108  0.69927193  0.30837492  1
  Sc  Sc85  1  0.30446327  0.69874315  0.49861096  1
  Sc  Sc86  1  0.90184894  0.10196965  0.50485482  1
  Sc  Sc87  1  0.10224239  0.50196485  0.30359332  1
  Sc  Sc88  1  0.90427382  0.90098143  0.70009875  1
  Sc  Sc89  1  0.70389418  0.89552085  0.89196448  1
  Sc  Sc90  1  0.90446072  0.09549095  0.30360288  1
  Sc  Sc91  1  0.10307854  0.68950120  0.50185308  1
  Sc  Sc92  1  0.50074846  0.10926899  0.50106337  1
  Sc  Sc93  1  0.09476885  0.69991128  0.09957976  1
  Sc  Sc94  1  0.89540922  0.51046613  0.09149382  1
  Sc  Sc95  1  0.28661640  0.90468160  0.10901929  1
  Sc  Sc96  1  0.49405475  0.50005971  0.11191961  1
  Sc  Sc97  1  0.50882260  0.90437663  0.11341191  1
  Sc  Sc98  1  0.49164560  0.49650766  0.88007287  1
  Sc  Sc99  1  0.49412749  0.09909385  0.69540444  1
  Nb  Nb100  1  0.69422942  0.70594895  0.90429381  1
  Nb  Nb101  1  0.09972727  0.10026610  0.09667420  1
  Nb  Nb102  1  0.29700060  0.49885248  0.28933084  1
  Nb  Nb103  1  0.10202442  0.10171105  0.49948982  1
  Nb  Nb104  1  0.50993221  0.31215141  0.70802447  1
  Nb  Nb105  1  0.10065167  0.90586799  0.30614557  1
  Nb  Nb106  1  0.29881914  0.29706949  0.49591086  1
  Nb  Nb107  1  0.10047988  0.10202750  0.90643781  1
  Nb  Nb108  1  0.49995761  0.09923362  0.09835751  1
  Nb  Nb109  1  0.49740474  0.89905663  0.30378148  1
  Nb  Nb110  1  0.90274075  0.70832492  0.69872745  1
  Nb  Nb111  1  0.89759833  0.10701497  0.69647531  1
  Nb  Nb112  1  0.30145167  0.49712228  0.10144680  1
  Nb  Nb113  1  0.90222772  0.49691069  0.50320943  1
  Nb  Nb114  1  0.30599296  0.49219762  0.50406655  1
  Nb  Nb115  1  0.29992746  0.09412203  0.30192906  1
  Nb  Nb116  1  0.49266556  0.49995677  0.50648733  1
  Nb  Nb117  1  0.90491289  0.49925691  0.90448799  1
  Nb  Nb118  1  0.29640249  0.89997980  0.49635672  1
  Nb  Nb119  1  0.29459521  0.70139897  0.69633380  1
  Nb  Nb120  1  0.29133124  0.90231560  0.30802107  1
  Nb  Nb121  1  0.30230856  0.49389260  0.90210544  1
  Nb  Nb122  1  0.90753573  0.90087778  0.30626839  1
  Nb  Nb123  1  0.30051192  0.09794186  0.69878724  1
  Nb  Nb124  1  0.90256121  0.29322184  0.69375231  1
  Nb  Nb125  1  0.40106348  -0.00277918  0.00356643  1
  Nb  Nb126  1  0.80621539  0.40033596  0.20566014  1
  Nb  Nb127  1  0.20923873  0.59450969  -0.00409294  1
  Nb  Nb128  1  0.59606034  0.59925601  -0.00595672  1
  Nb  Nb129  1  0.59934291  0.40943773  -0.00305359  1
  Nb  Nb130  1  -0.00054366  0.80399837  0.39845229  1
  Nb  Nb131  1  0.20456089  0.80394346  0.60042699  1
  Nb  Nb132  1  0.00122590  0.39816983  0.00129027  1
  Nb  Nb133  1  0.39650084  0.80811498  0.20811546  1
  Nb  Nb134  1  0.00248398  0.19832683  -0.00305852  1
  Nb  Nb135  1  0.60370260  0.20244530  0.80153018  1
  Nb  Nb136  1  0.80549489  0.80260122  0.40029688  1
  Nb  Nb137  1  0.20963722  0.40078487  0.40746709  1
  Nb  Nb138  1  0.59464683  0.00420501  -0.00139079  1
  Nb  Nb139  1  -0.00449525  0.39675925  0.19764750  1
  Nb  Nb140  1  0.39889250  0.80400206  0.00866559  1
  Nb  Nb141  1  0.79953056  0.19821749  0.79409990  1
  Nb  Nb142  1  0.40092862  0.19336240  0.19710523  1
  Nb  Nb143  1  0.80228932  0.19702415  -0.00874330  1
  Nb  Nb144  1  0.60229315  0.20012076  -0.00416062  1
  Nb  Nb145  1  0.59381130  -0.00756959  0.40110149  1
  Nb  Nb146  1  0.39535533  0.60038395  -0.00129321  1
  Nb  Nb147  1  0.80728748  0.40112027  0.59525566  1
  Nb  Nb148  1  0.59552091  0.19748457  0.19147930  1
  Nb  Nb149  1  0.39544606  -0.00626948  0.39851119  1
  Pd  Pd150  1  0.60070665  0.39186722  0.19388844  1
  Pd  Pd151  1  -0.00202471  0.58733400  0.19887253  1
  Pd  Pd152  1  -0.00338083  0.80656671  -0.00178674  1
  Pd  Pd153  1  0.40442424  0.00141300  0.58773365  1
  Pd  Pd154  1  0.59907644  0.79531109  0.20177810  1
  Pd  Pd155  1  0.80451916  0.60900115  0.80133783  1
  Pd  Pd156  1  0.80383730  -0.00071804  0.60279537  1
  Pd  Pd157  1  0.79443675  0.20338966  0.19812598  1
  Pd  Pd158  1  0.60694026  0.80115109  0.40412663  1
  Pd  Pd159  1  0.19249558  0.00555632  0.79885956  1
  Pd  Pd160  1  -0.00330500  -0.00129238  0.00337925  1
  Pd  Pd161  1  0.40461618  0.20832194  0.78857513  1
  Pd  Pd162  1  0.20583769  0.79615394  -0.00113803  1
  Pd  Pd163  1  0.59792855  0.79191215  0.60922782  1
  Pd  Pd164  1  0.19445004  0.80613540  0.79287812  1
  Pd  Pd165  1  0.60088177  0.59872307  0.80295397  1
  Pd  Pd166  1  0.19582429  0.79715184  0.20766154  1
  Pd  Pd167  1  0.40391067  0.21082198  0.60814186  1
  Pd  Pd168  1  0.20807140  0.58763888  0.40600546  1
  Pd  Pd169  1  0.39641599  0.40215356  0.39309331  1
  Pd  Pd170  1  -0.00068640  0.19213904  0.80174139  1
  Pd  Pd171  1  0.80272955  0.19438441  0.40680450  1
  Pd  Pd172  1  0.19054795  0.40672770  -0.00031101  1
  Pd  Pd173  1  0.40175783  0.38907718  0.21022279  1
  Pd  Pd174  1  0.39471562  0.79563050  0.60375491  1
  Pd  Pd175  1  0.00911438  0.80103557  0.20702766  1
  Pd  Pd176  1  0.59295739  0.20659038  0.60692422  1
  Pd  Pd177  1  0.80652449  0.79935573  -0.00557213  1
  Pd  Pd178  1  0.20580895  0.59778754  0.80583750  1
  Pd  Pd179  1  0.18843913  0.79875120  0.40939105  1
  Pd  Pd180  1  0.01176042  0.79918305  0.58908971  1
  Pd  Pd181  1  0.80518887  -0.00522392  0.20346162  1
  Pd  Pd182  1  0.20379747  -0.00488486  -0.00583995  1
  Pd  Pd183  1  0.80342338  0.60320457  0.39955715  1
  Pd  Pd184  1  0.20674424  0.19806274  0.20558398  1
  Pd  Pd185  1  0.40351092  0.19096991  0.39165260  1
  Pd  Pd186  1  0.60267818  0.79360095  0.78748656  1
  Pd  Pd187  1  0.39411500  -0.00227710  0.19956599  1
  Pd  Pd188  1  0.39260926  0.59553118  0.40218631  1
  Pd  Pd189  1  0.80059479  0.39575767  0.78682007  1
  Pd  Pd190  1  0.59671236  0.59668850  0.40802956  1
  Pd  Pd191  1  0.79323794  -0.00125322  0.40355079  1
  Pd  Pd192  1  0.80267325  0.80270686  0.20511363  1
  Pd  Pd193  1  0.39188989  0.60991426  0.19968909  1
  Pd  Pd194  1  0.80095119  0.80367858  0.60093356  1
  Pd  Pd195  1  0.80053134  0.40035583  0.00617315  1
  Pd  Pd196  1  0.20161111  0.39497238  0.59626340  1
  Pd  Pd197  1  -0.00445342  0.60607573  0.79901212  1
  Pd  Pd198  1  0.40068611  0.19600494  0.00323743  1
  Pd  Pd199  1  0.39905355  0.38984784  0.60794711  1
  Rh  Rh200  1  0.59123297  0.00663256  0.80338483  1
  Rh  Rh201  1  0.80647642  0.59338072  0.60666421  1
  Rh  Rh202  1  0.20824421  0.60400564  0.59370144  1
  Rh  Rh203  1  0.00138896  0.19259326  0.40745157  1
  Rh  Rh204  1  0.79701238  0.20802243  0.60032418  1
  Rh  Rh205  1  0.59427262  0.59907745  0.59746122  1
  Rh  Rh206  1  0.80521653  0.00136753  0.78525082  1
  Rh  Rh207  1  -0.00001463  0.01043395  0.60175758  1
  Rh  Rh208  1  0.79188208  0.60806015  -0.00940751  1
  Rh  Rh209  1  0.00416378  0.00125971  0.20346880  1
  Rh  Rh210  1  0.40068040  0.00295554  0.80166527  1
  Rh  Rh211  1  0.59690794  0.80136875  0.00201677  1
  Rh  Rh212  1  0.60476769  0.40168440  0.80484951  1
  Rh  Rh213  1  0.19475714  0.40003619  0.21263839  1
  Rh  Rh214  1  0.60534550  0.00496759  0.20323389  1
  Rh  Rh215  1  0.80011097  0.79310058  0.79790870  1
  Rh  Rh216  1  0.19187494  0.00360375  0.20465394  1
  Rh  Rh217  1  0.00073703  0.40240367  0.79589757  1
  Rh  Rh218  1  0.59555309  0.18605108  0.38907439  1
  Rh  Rh219  1  -0.00036604  0.60531542  0.40341189  1
  Rh  Rh220  1  0.39436763  0.80387762  0.39416339  1
  Rh  Rh221  1  0.80762485  0.58920268  0.20975015  1
  Rh  Rh222  1  0.19713566  0.19896831  0.60094451  1
  Rh  Rh223  1  0.20237819  0.60048539  0.19680389  1
  Rh  Rh224  1  0.20074923  0.20068950  0.40310620  1
  Rh  Rh225  1  0.40193329  0.80040389  0.79249031  1
  Rh  Rh226  1  -0.00078786  0.79516095  0.80166450  1
  Rh  Rh227  1  0.00351476  0.00649506  0.79365385  1
  Rh  Rh228  1  0.59983147  0.60496025  0.19732312  1
  Rh  Rh229  1  0.00993237  0.40040000  0.39694034  1
  Rh  Rh230  1  0.41054345  0.41441630  -0.00081841  1
  Rh  Rh231  1  0.01355323  0.59145639  0.00140010  1
  Rh  Rh232  1  0.00596307  0.19422003  0.59680023  1
  Rh  Rh233  1  0.59000011  -0.00164180  0.58994247  1
  Rh  Rh234  1  0.20570090  0.40310111  0.79180574  1
  Rh  Rh235  1  0.19859109  0.19380334  0.79275733  1
  Rh  Rh236  1  0.39176310  0.60157164  0.79996304  1
  Rh  Rh237  1  -0.00397410  0.59932612  0.60644951  1
  Rh  Rh238  1  0.20349078  0.00880231  0.40316119  1
  Rh  Rh239  1  0.80012129  -0.00445903  0.00267915  1
  Rh  Rh240  1  -0.00493038  0.40197470  0.60601633  1
  Rh  Rh241  1  0.20130308  0.00061299  0.60078702  1
  Rh  Rh242  1  0.39609672  0.60201745  0.59747178  1
  Rh  Rh243  1  0.00394922  0.00241816  0.40204407  1
  Rh  Rh244  1  0.80449662  0.39549004  0.40218251  1
  Rh  Rh245  1  0.58758100  0.41065367  0.40846677  1
  Rh  Rh246  1  0.19706205  0.20289392  -0.00252658  1
  Rh  Rh247  1  0.60098850  0.40315711  0.59231178  1
  Rh  Rh248  1  0.39034544  0.39605445  0.78921604  1
  Rh  Rh249  1  0.00254659  0.19734251  0.19747008  1
