# generated using pymatgen
data_ZrScNbPdRh
_symmetry_space_group_name_H-M   'P 1'
_cell_length_a   16.56185834
_cell_length_b   16.56195058
_cell_length_c   16.56125660
_cell_angle_alpha   89.95179891
_cell_angle_beta   89.99463566
_cell_angle_gamma   89.99703776
_symmetry_Int_Tables_number   1
_chemical_formula_structural   ZrScNbPdRh
_chemical_formula_sum   'Zr50 Sc50 Nb50 Pd50 Rh50'
_cell_volume   4542.69605961
_cell_formula_units_Z   50
loop_
 _symmetry_equiv_pos_site_id
 _symmetry_equiv_pos_as_xyz
  1  'x, y, z'
loop_
 _atom_site_type_symbol
 _atom_site_label
 _atom_site_symmetry_multiplicity
 _atom_site_fract_x
 _atom_site_fract_y
 _atom_site_fract_z
 _atom_site_occupancy
  Zr  Zr0  1  0.50985338  0.30290627  0.90266197  1
  Zr  Zr1  1  0.50942535  0.69347956  0.69259570  1
  Zr  Zr2  1  0.29812984  0.30130894  0.70420050  1
  Zr  Zr3  1  0.49515993  0.70201565  0.09349189  1
  Zr  Zr4  1  0.68939836  0.70603311  0.50329813  1
  Zr  Zr5  1  0.29839705  0.49462591  0.91055376  1
  Zr  Zr6  1  0.49764906  0.29895934  0.69995997  1
  Zr  Zr7  1  0.90072249  0.10309834  0.29763603  1
  Zr  Zr8  1  0.30771742  0.30070875  0.29846046  1
  Zr  Zr9  1  0.30086459  0.09710116  0.90578236  1
  Zr  Zr10  1  0.70585612  0.69664251  0.30137163  1
  Zr  Zr11  1  0.30412801  0.50601645  0.10796669  1
  Zr  Zr12  1  0.30321642  0.28743457  0.50184702  1
  Zr  Zr13  1  0.89339922  0.09464805  0.89979655  1
  Zr  Zr14  1  0.49971013  0.50229953  0.10326168  1
  Zr  Zr15  1  0.10590524  0.30593262  0.90121719  1
  Zr  Zr16  1  0.30658809  0.10505477  0.70087034  1
  Zr  Zr17  1  0.30397391  0.89836240  0.09428812  1
  Zr  Zr18  1  0.29564352  0.29905435  0.90195634  1
  Zr  Zr19  1  0.09806780  0.29927326  0.50133267  1
  Zr  Zr20  1  0.30540075  0.69972993  0.49451575  1
  Zr  Zr21  1  0.49768412  0.09788324  0.10606175  1
  Zr  Zr22  1  0.89382919  0.89940976  0.49636493  1
  Zr  Zr23  1  0.50120288  0.89182493  0.48962121  1
  Zr  Zr24  1  0.89769443  0.69701459  0.90425081  1
  Zr  Zr25  1  0.30157626  0.89438501  0.49765291  1
  Zr  Zr26  1  0.49497251  0.89891943  0.70534650  1
  Zr  Zr27  1  0.30785192  0.90156264  0.30012076  1
  Zr  Zr28  1  0.09780626  0.69796757  0.70488531  1
  Zr  Zr29  1  0.08942256  0.70140026  0.90810114  1
  Zr  Zr30  1  0.09887663  0.90013033  0.70062658  1
  Zr  Zr31  1  0.10102395  0.50001521  0.89890604  1
  Zr  Zr32  1  0.69859392  0.28883389  0.70073991  1
  Zr  Zr33  1  0.50909915  0.29106563  0.10354631  1
  Zr  Zr34  1  0.69725676  0.90693578  0.49108119  1
  Zr  Zr35  1  0.90271692  0.29811287  0.90272228  1
  Zr  Zr36  1  0.29824342  0.09591538  0.10612029  1
  Zr  Zr37  1  0.30295061  0.69844856  0.10622283  1
  Zr  Zr38  1  0.69839464  0.09814952  0.70331520  1
  Zr  Zr39  1  0.09799556  0.89279962  0.29389727  1
  Zr  Zr40  1  0.69611722  0.30497041  0.30521279  1
  Zr  Zr41  1  0.89608663  0.70425175  0.49095616  1
  Zr  Zr42  1  0.90614142  0.09599451  0.09274779  1
  Zr  Zr43  1  0.08316143  0.30676018  0.70403254  1
  Zr  Zr44  1  0.09710374  0.10843474  0.91261890  1
  Zr  Zr45  1  0.50213859  0.49341345  0.30088381  1
  Zr  Zr46  1  0.50168679  0.50269017  0.50524812  1
  Zr  Zr47  1  0.70576334  0.69072480  0.09625576  1
  Zr  Zr48  1  0.10782763  0.69705086  0.49116476  1
  Zr  Zr49  1  0.89515916  0.10938116  0.71097044  1
  Sc  Sc50  1  0.10104201  0.50720016  0.10128965  1
  Sc  Sc51  1  0.89641096  0.49280784  0.49756448  1
  Sc  Sc52  1  0.50113846  0.49915532  0.70090899  1
  Sc  Sc53  1  0.69808352  0.89749574  0.69414079  1
  Sc  Sc54  1  0.48800139  0.89841641  0.89996621  1
  Sc  Sc55  1  0.68616756  0.50125705  0.70222225  1
  Sc  Sc56  1  0.89954993  0.30163803  0.30455890  1
  Sc  Sc57  1  0.30385544  0.49886639  0.69614339  1
  Sc  Sc58  1  0.90319742  0.69967547  0.29424019  1
  Sc  Sc59  1  0.69396559  0.49593300  0.90717873  1
  Sc  Sc60  1  0.90236058  0.49916893  0.91401034  1
  Sc  Sc61  1  0.50885458  0.09964347  0.70212304  1
  Sc  Sc62  1  0.71181904  0.89804458  0.89680650  1
  Sc  Sc63  1  0.89650976  0.50605698  0.10224847  1
  Sc  Sc64  1  0.50185931  0.91050134  0.30281614  1
  Sc  Sc65  1  0.49868371  0.29684929  0.30362931  1
  Sc  Sc66  1  0.88695329  0.10427035  0.49361312  1
  Sc  Sc67  1  0.69329662  0.70330587  0.70348475  1
  Sc  Sc68  1  0.30523516  0.70454588  0.68704942  1
  Sc  Sc69  1  0.89809446  0.89791180  0.90389950  1
  Sc  Sc70  1  0.89705243  0.88823830  0.30161801  1
  Sc  Sc71  1  0.50535228  0.09748614  0.49188159  1
  Sc  Sc72  1  0.89105913  0.90382444  0.70734703  1
  Sc  Sc73  1  0.88906164  0.30461699  0.50447034  1
  Sc  Sc74  1  0.69128360  0.10046935  0.30834978  1
  Sc  Sc75  1  0.29716962  0.30934461  0.10255098  1
  Sc  Sc76  1  0.09708172  0.70236574  0.29416334  1
  Sc  Sc77  1  0.90101250  0.31307545  0.09834670  1
  Sc  Sc78  1  0.10327085  0.51509681  0.29591888  1
  Sc  Sc79  1  0.70334802  0.49317015  0.48708440  1
  Sc  Sc80  1  0.90785244  0.48447798  0.69430648  1
  Sc  Sc81  1  0.70018948  0.69928227  0.90115461  1
  Sc  Sc82  1  0.10090889  0.11233825  0.49905946  1
  Sc  Sc83  1  0.30909432  0.70461962  0.91865549  1
  Sc  Sc84  1  0.71108944  0.89543753  0.09055802  1
  Sc  Sc85  1  0.50495997  0.70277024  0.30056938  1
  Sc  Sc86  1  0.50107493  0.09519639  0.89580410  1
  Sc  Sc87  1  0.50480705  0.49662030  0.89974490  1
  Sc  Sc88  1  0.10232507  0.29289876  0.09635375  1
  Sc  Sc89  1  0.68855981  0.10428261  0.10186625  1
  Sc  Sc90  1  0.89699194  0.50272963  0.29482285  1
  Sc  Sc91  1  0.10179778  0.10230924  0.28505562  1
  Sc  Sc92  1  0.29518662  0.70152894  0.29441241  1
  Sc  Sc93  1  0.10063529  0.29478296  0.29367412  1
  Sc  Sc94  1  0.09889840  0.49585510  0.70375676  1
  Sc  Sc95  1  0.90254319  0.69947859  0.09646755  1
  Sc  Sc96  1  0.08966424  0.10845189  0.70481433  1
  Sc  Sc97  1  0.50633329  0.70195818  0.90009027  1
  Sc  Sc98  1  0.89920548  0.70771322  0.70757831  1
  Sc  Sc99  1  0.29956785  0.50897164  0.50233439  1
  Nb  Nb100  1  0.30060134  0.90519992  0.89602253  1
  Nb  Nb101  1  0.89645962  0.30028088  0.70729799  1
  Nb  Nb102  1  0.50380198  0.90242152  0.09933965  1
  Nb  Nb103  1  0.50826194  0.30228812  0.49645176  1
  Nb  Nb104  1  0.69474670  0.10769024  0.50124874  1
  Nb  Nb105  1  0.09847614  0.09542290  0.09909044  1
  Nb  Nb106  1  0.09981131  0.70859030  0.10554163  1
  Nb  Nb107  1  0.30540386  0.49953573  0.29601055  1
  Nb  Nb108  1  0.31147530  0.09785633  0.30254767  1
  Nb  Nb109  1  0.10292379  0.50248524  0.49778829  1
  Nb  Nb110  1  0.29672551  0.09648418  0.49937824  1
  Nb  Nb111  1  0.70413242  0.49390500  0.10612756  1
  Nb  Nb112  1  0.69602485  0.30018785  0.90664150  1
  Nb  Nb113  1  0.29975869  0.90341171  0.70302486  1
  Nb  Nb114  1  0.70074145  0.10159438  0.90085383  1
  Nb  Nb115  1  0.49334505  0.10005163  0.29123960  1
  Nb  Nb116  1  0.50099556  0.69787853  0.49830886  1
  Nb  Nb117  1  0.69816262  0.29873739  0.09646241  1
  Nb  Nb118  1  0.69436279  0.29040409  0.49493209  1
  Nb  Nb119  1  0.10656715  0.89650954  0.90190478  1
  Nb  Nb120  1  0.09410742  0.89772211  0.09832892  1
  Nb  Nb121  1  0.10006367  0.90141329  0.49689533  1
  Nb  Nb122  1  0.70109603  0.50101480  0.29084719  1
  Nb  Nb123  1  0.69823488  0.89764081  0.29723373  1
  Nb  Nb124  1  0.89998666  0.90210164  0.09709197  1
  Nb  Nb125  1  0.80022536  0.00097122  0.19837522  1
  Nb  Nb126  1  0.00182526  0.80161896  0.59356763  1
  Nb  Nb127  1  0.40087891  0.19941144  0.00239286  1
  Nb  Nb128  1  0.19710485  0.39665078  0.59373440  1
  Nb  Nb129  1  0.60113682  0.38955301  0.59293510  1
  Nb  Nb130  1  -0.00032635  -0.00169166  0.59331199  1
  Nb  Nb131  1  0.39400052  -0.00203768  0.59689621  1
  Nb  Nb132  1  0.20536718  0.80239627  0.80631789  1
  Nb  Nb133  1  0.79578135  0.19995967  0.19476781  1
  Nb  Nb134  1  0.60048680  -0.00311230  0.00049377  1
  Nb  Nb135  1  0.20093026  0.40334079  0.40065259  1
  Nb  Nb136  1  0.40319172  0.60012734  0.39838159  1
  Nb  Nb137  1  0.80076628  0.59060311  0.79672031  1
  Nb  Nb138  1  0.00979021  0.40398586  0.40155685  1
  Nb  Nb139  1  0.39635166  0.60219999  0.80178488  1
  Nb  Nb140  1  0.60511697  0.80469224  0.19518937  1
  Nb  Nb141  1  0.19958074  0.00132185  0.59935587  1
  Nb  Nb142  1  0.20015880  0.00426360  0.40071089  1
  Nb  Nb143  1  0.80195847  0.59995401  0.60353943  1
  Nb  Nb144  1  0.20039241  -0.00288187  0.80224907  1
  Nb  Nb145  1  0.79761315  0.39556118  0.80199698  1
  Nb  Nb146  1  0.79335568  0.20269991  0.00212971  1
  Nb  Nb147  1  -0.00241533  0.60427702  0.59473621  1
  Nb  Nb148  1  0.20792548  0.60806125  0.80546988  1
  Nb  Nb149  1  0.00542384  -0.00094981  0.40221250  1
  Pd  Pd150  1  0.59910337  0.39615456  0.19908721  1
  Pd  Pd151  1  -0.01400582  0.19580496  0.59439054  1
  Pd  Pd152  1  0.20169068  -0.00537935  0.20343281  1
  Pd  Pd153  1  0.40742608  0.19492185  0.40256416  1
  Pd  Pd154  1  0.78665969  0.40407432  0.60838320  1
  Pd  Pd155  1  0.20106688  0.79952345  0.00174299  1
  Pd  Pd156  1  0.80000984  0.80154369  0.19565280  1
  Pd  Pd157  1  0.60035030  0.59576970  -0.00050986  1
  Pd  Pd158  1  0.19580478  0.80114846  0.60389440  1
  Pd  Pd159  1  0.60954886  -0.00665653  0.19495557  1
  Pd  Pd160  1  0.80307148  0.00640954  0.60334853  1
  Pd  Pd161  1  0.39828805  0.39848397  0.59394819  1
  Pd  Pd162  1  0.00296143  -0.00126067  0.80265564  1
  Pd  Pd163  1  0.40774828  0.19931835  0.80925572  1
  Pd  Pd164  1  0.19625464  0.60425413  0.00106391  1
  Pd  Pd165  1  0.59177417  -0.00303996  0.59601570  1
  Pd  Pd166  1  0.40557444  0.39333594  0.00697023  1
  Pd  Pd167  1  0.60488577  -0.00848224  0.80949033  1
  Pd  Pd168  1  0.00688821  0.40320338  0.00637432  1
  Pd  Pd169  1  0.20151985  0.80223854  0.39268273  1
  Pd  Pd170  1  0.80166636  0.79490968  0.60453290  1
  Pd  Pd171  1  0.80082394  0.00183898  0.38962408  1
  Pd  Pd172  1  0.39956245  0.40788767  0.80279347  1
  Pd  Pd173  1  0.80197469  0.19713281  0.59811383  1
  Pd  Pd174  1  0.19507296  0.59427321  0.60962871  1
  Pd  Pd175  1  0.60203415  0.80514312  0.80444149  1
  Pd  Pd176  1  0.80156053  0.39446106  0.20268595  1
  Pd  Pd177  1  0.19409719  0.20083413  0.61080217  1
  Pd  Pd178  1  -0.00576896  0.59440058  0.39978642  1
  Pd  Pd179  1  -0.00867231  0.58982934  0.79417082  1
  Pd  Pd180  1  -0.00800237  0.20705948  0.19051194  1
  Pd  Pd181  1  0.20673258  0.20009818  0.19843165  1
  Pd  Pd182  1  0.39235117  0.40591979  0.40866561  1
  Pd  Pd183  1  0.39432992  0.78795895  0.80175264  1
  Pd  Pd184  1  -0.00168118  0.80798375  0.80095498  1
  Pd  Pd185  1  0.41264840  0.19044587  0.59399965  1
  Pd  Pd186  1  0.20077878  0.19793706  0.38778464  1
  Pd  Pd187  1  0.00569838  0.40416223  0.20702821  1
  Pd  Pd188  1  0.59854256  0.59609883  0.39970994  1
  Pd  Pd189  1  0.80208685  0.59670711  0.40145487  1
  Pd  Pd190  1  0.19240200  0.19608602  0.79621108  1
  Pd  Pd191  1  0.19284201  0.40441622  0.20496954  1
  Pd  Pd192  1  0.59830679  0.60662516  0.19932542  1
  Pd  Pd193  1  0.41143014  0.80396713  0.20467591  1
  Pd  Pd194  1  0.40703465  0.80280813  0.59983779  1
  Pd  Pd195  1  0.60244964  0.80769209  -0.00009147  1
  Pd  Pd196  1  -0.00284788  0.20182300  0.40083263  1
  Pd  Pd197  1  -0.00767773  -0.00733739  0.20675576  1
  Pd  Pd198  1  0.19553483  -0.00190416  0.00122308  1
  Pd  Pd199  1  0.00347613  -0.00839375  -0.00722819  1
  Rh  Rh200  1  0.40796706  0.00298296  0.00223978  1
  Rh  Rh201  1  0.21266518  0.59454325  0.38989871  1
  Rh  Rh202  1  0.79687342  0.59435440  -0.00427497  1
  Rh  Rh203  1  0.20459569  0.40822349  0.79196451  1
  Rh  Rh204  1  0.60261941  0.40233919  0.40157334  1
  Rh  Rh205  1  0.00352162  0.60165704  0.00933926  1
  Rh  Rh206  1  0.60617642  0.39228397  0.79229991  1
  Rh  Rh207  1  0.40264465  0.80560404  0.00063794  1
  Rh  Rh208  1  0.39718421  0.00404752  0.79276052  1
  Rh  Rh209  1  0.20025672  0.80450916  0.19362138  1
  Rh  Rh210  1  0.59588187  0.20133937  0.59617704  1
  Rh  Rh211  1  0.00482950  0.40487472  0.58898751  1
  Rh  Rh212  1  0.79027526  0.01033798  0.00830652  1
  Rh  Rh213  1  0.39992240  -0.00638453  0.19753115  1
  Rh  Rh214  1  0.79276083  0.39829983  -0.00203807  1
  Rh  Rh215  1  0.79446300  0.20638779  0.81141046  1
  Rh  Rh216  1  0.39853712  0.00571376  0.40495043  1
  Rh  Rh217  1  -0.00499561  0.20320394  0.00370390  1
  Rh  Rh218  1  0.19603935  0.40295912  0.00936188  1
  Rh  Rh219  1  0.80602070  0.79443972  -0.00100236  1
  Rh  Rh220  1  0.59364502  0.19529694  0.39531136  1
  Rh  Rh221  1  -0.00546476  0.80108993  0.19221881  1
  Rh  Rh222  1  0.40363900  0.60340090  0.59998308  1
  Rh  Rh223  1  -0.00285781  0.80528149  0.00472480  1
  Rh  Rh224  1  0.79464887  0.20244633  0.39540659  1
  Rh  Rh225  1  0.00027252  0.60562293  0.19506885  1
  Rh  Rh226  1  0.60572450  0.20185814  0.21192958  1
  Rh  Rh227  1  0.20023965  0.60506047  0.19928482  1
  Rh  Rh228  1  0.20764649  0.19938457  0.00984005  1
  Rh  Rh229  1  0.59539877  0.80717333  0.59888918  1
  Rh  Rh230  1  0.40393068  0.78892415  0.39175606  1
  Rh  Rh231  1  0.40824339  0.59560060  -0.00734753  1
  Rh  Rh232  1  0.60265767  0.80018309  0.39017811  1
  Rh  Rh233  1  0.79706386  0.79085092  0.80244494  1
  Rh  Rh234  1  0.39503596  0.20425636  0.19491469  1
  Rh  Rh235  1  0.59806814  0.60174287  0.80452232  1
  Rh  Rh236  1  0.40741228  0.39625249  0.19662439  1
  Rh  Rh237  1  0.00345206  0.80143037  0.40207522  1
  Rh  Rh238  1  0.80376218  0.39974886  0.39139217  1
  Rh  Rh239  1  0.60154482  0.40625679  0.01129246  1
  Rh  Rh240  1  0.40494597  0.60253531  0.20986803  1
  Rh  Rh241  1  0.61001880  0.59144080  0.59189228  1
  Rh  Rh242  1  0.59721733  0.19008978  -0.00854713  1
  Rh  Rh243  1  -0.00986538  0.40370656  0.81005398  1
  Rh  Rh244  1  0.59883921  0.20016456  0.80475247  1
  Rh  Rh245  1  0.80158251  0.59904702  0.19873868  1
  Rh  Rh246  1  0.79179648  0.79932566  0.39655616  1
  Rh  Rh247  1  0.59941884  0.00424668  0.39677290  1
  Rh  Rh248  1  0.00184915  0.20271107  0.80963950  1
  Rh  Rh249  1  0.79355923  -0.00214726  0.79599724  1
