# generated using pymatgen
data_ZrScNbPdRh
_symmetry_space_group_name_H-M   'P 1'
_cell_length_a   16.55280994
_cell_length_b   16.55940656
_cell_length_c   16.55783718
_cell_angle_alpha   90.00630372
_cell_angle_beta   90.01088385
_cell_angle_gamma   90.01570042
_symmetry_Int_Tables_number   1
_chemical_formula_structural   ZrScNbPdRh
_chemical_formula_sum   'Zr50 Sc50 Nb50 Pd50 Rh50'
_cell_volume   4538.58087101
_cell_formula_units_Z   50
loop_
 _symmetry_equiv_pos_site_id
 _symmetry_equiv_pos_as_xyz
  1  'x, y, z'
loop_
 _atom_site_type_symbol
 _atom_site_label
 _atom_site_symmetry_multiplicity
 _atom_site_fract_x
 _atom_site_fract_y
 _atom_site_fract_z
 _atom_site_occupancy
  Zr  Zr0  1  0.09333276  0.50269705  0.29590373  1
  Zr  Zr1  1  0.09931557  0.69549903  0.89465297  1
  Zr  Zr2  1  0.10162043  0.29966482  0.28633945  1
  Zr  Zr3  1  0.10361582  0.50044527  0.89743413  1
  Zr  Zr4  1  0.50536871  0.70728795  0.69542510  1
  Zr  Zr5  1  0.49432316  0.30166809  0.89567375  1
  Zr  Zr6  1  0.49098171  0.49570866  0.90587969  1
  Zr  Zr7  1  0.10058984  0.50414682  0.70384737  1
  Zr  Zr8  1  0.71188306  0.10492955  0.30359783  1
  Zr  Zr9  1  0.09678923  0.90018524  0.90523043  1
  Zr  Zr10  1  0.30164609  0.49751213  0.29327169  1
  Zr  Zr11  1  0.70020124  0.89893244  0.30421007  1
  Zr  Zr12  1  0.90319145  0.69975944  0.90157581  1
  Zr  Zr13  1  0.50553459  0.09512815  0.90309623  1
  Zr  Zr14  1  0.10551748  0.90782360  0.30548566  1
  Zr  Zr15  1  0.29413850  0.09758527  0.30506936  1
  Zr  Zr16  1  0.69281046  0.50929990  0.29397594  1
  Zr  Zr17  1  0.69396537  0.09878195  0.49668964  1
  Zr  Zr18  1  0.90684695  0.50037944  0.29925908  1
  Zr  Zr19  1  0.69516323  0.89319619  0.69647129  1
  Zr  Zr20  1  0.50499886  0.10274639  0.09386465  1
  Zr  Zr21  1  0.69586226  0.08849116  0.70178989  1
  Zr  Zr22  1  0.69817102  0.29319803  0.49511106  1
  Zr  Zr23  1  0.70061798  0.89859865  0.49986683  1
  Zr  Zr24  1  0.09877403  0.69978017  0.50632359  1
  Zr  Zr25  1  0.69819973  0.70757141  0.29257179  1
  Zr  Zr26  1  0.09891006  0.49444336  0.49647829  1
  Zr  Zr27  1  0.30638206  0.90876044  0.69845792  1
  Zr  Zr28  1  0.10023393  0.70642120  0.11227907  1
  Zr  Zr29  1  0.30620894  0.90181407  0.10418200  1
  Zr  Zr30  1  0.09982886  0.70067802  0.70103763  1
  Zr  Zr31  1  0.49766808  0.10655779  0.50429793  1
  Zr  Zr32  1  0.49263457  0.30475643  0.30283542  1
  Zr  Zr33  1  0.90196396  0.50334453  0.09527486  1
  Zr  Zr34  1  0.29362225  0.50037734  0.90216629  1
  Zr  Zr35  1  0.09687290  0.30043171  0.90145366  1
  Zr  Zr36  1  0.69977816  0.29454184  0.08914239  1
  Zr  Zr37  1  0.90014334  0.49068114  0.69545160  1
  Zr  Zr38  1  0.50395870  0.69756075  0.89715793  1
  Zr  Zr39  1  0.90905648  0.90698973  0.90493102  1
  Zr  Zr40  1  0.30220319  0.70412693  0.29156872  1
  Zr  Zr41  1  0.70283287  0.49270168  0.50513193  1
  Zr  Zr42  1  0.90566321  0.29563017  0.70055425  1
  Zr  Zr43  1  0.09662811  0.89644162  0.69903469  1
  Zr  Zr44  1  0.29981537  0.49294089  0.49930677  1
  Zr  Zr45  1  0.70287692  0.69283390  0.89441305  1
  Zr  Zr46  1  0.89907179  0.29985824  0.29824205  1
  Zr  Zr47  1  0.09629549  0.09338113  0.90979126  1
  Zr  Zr48  1  0.69891323  0.69775477  0.70448946  1
  Zr  Zr49  1  0.49444450  0.29272654  0.69823891  1
  Sc  Sc50  1  0.10153683  0.49128596  0.09973167  1
  Sc  Sc51  1  0.09544853  0.10136293  0.69110447  1
  Sc  Sc52  1  0.90411335  0.89794658  0.09958407  1
  Sc  Sc53  1  0.50326830  0.49764025  0.10018978  1
  Sc  Sc54  1  0.89543590  0.90175518  0.70497156  1
  Sc  Sc55  1  0.90273984  0.50559333  0.90267631  1
  Sc  Sc56  1  0.90036130  0.30795394  0.49971742  1
  Sc  Sc57  1  0.90289101  0.70112459  0.10563469  1
  Sc  Sc58  1  0.49809388  0.50135178  0.50478047  1
  Sc  Sc59  1  0.49640250  0.89107058  0.29917719  1
  Sc  Sc60  1  0.30442231  0.30211193  0.29937394  1
  Sc  Sc61  1  0.30837185  0.90528495  0.30352719  1
  Sc  Sc62  1  0.49374212  0.29618310  0.50096271  1
  Sc  Sc63  1  0.70036781  0.29409392  0.29813202  1
  Sc  Sc64  1  0.30449644  0.29662010  0.69344227  1
  Sc  Sc65  1  0.09696616  0.90700553  0.09528937  1
  Sc  Sc66  1  0.50245456  0.49241824  0.69684804  1
  Sc  Sc67  1  0.69350527  0.30458024  0.69243950  1
  Sc  Sc68  1  0.50213804  0.90457231  0.89700095  1
  Sc  Sc69  1  0.29454747  0.29927604  0.10020677  1
  Sc  Sc70  1  0.30291983  0.09726254  0.10016223  1
  Sc  Sc71  1  0.30932570  0.91035789  0.90315442  1
  Sc  Sc72  1  0.89789450  0.70694808  0.70890503  1
  Sc  Sc73  1  0.49577690  0.10995854  0.30793671  1
  Sc  Sc74  1  0.49557918  0.90039745  0.49521697  1
  Sc  Sc75  1  0.09567122  0.30055292  0.69709934  1
  Sc  Sc76  1  0.69311922  0.70970688  0.50385979  1
  Sc  Sc77  1  0.90450910  0.30395636  0.09082815  1
  Sc  Sc78  1  0.89494686  0.70790840  0.50265131  1
  Sc  Sc79  1  0.49973231  0.90446060  0.70467534  1
  Sc  Sc80  1  0.88973760  0.10106324  0.09422332  1
  Sc  Sc81  1  0.30476622  0.70107570  0.50650557  1
  Sc  Sc82  1  0.90430772  0.49019991  0.49245833  1
  Sc  Sc83  1  0.69812953  0.50377651  0.90406490  1
  Sc  Sc84  1  0.50299566  0.90439787  0.10345315  1
  Sc  Sc85  1  0.89605759  0.89602694  0.50537119  1
  Sc  Sc86  1  0.29642598  0.50086995  0.69354130  1
  Sc  Sc87  1  0.10107704  0.30122441  0.09674550  1
  Sc  Sc88  1  0.30344371  0.90938441  0.49733906  1
  Sc  Sc89  1  0.70521857  0.89571383  0.11301598  1
  Sc  Sc90  1  0.10075425  0.08814568  0.50261904  1
  Sc  Sc91  1  0.09950383  0.90286987  0.50869798  1
  Sc  Sc92  1  0.69552711  0.91332686  0.89409284  1
  Sc  Sc93  1  0.50029570  0.30060850  0.09991672  1
  Sc  Sc94  1  0.29988735  0.49830186  0.09321843  1
  Sc  Sc95  1  0.29945136  0.70065046  0.69436292  1
  Sc  Sc96  1  0.31115149  0.10079254  0.90801891  1
  Sc  Sc97  1  0.88823856  0.89704045  0.30084782  1
  Sc  Sc98  1  0.30227182  0.68916329  0.10573237  1
  Sc  Sc99  1  0.10875233  0.10612118  0.10297648  1
  Nb  Nb100  1  0.69932730  0.10262067  0.90926621  1
  Nb  Nb101  1  0.30062618  0.69353170  0.90378147  1
  Nb  Nb102  1  0.90872047  0.69497898  0.30302969  1
  Nb  Nb103  1  0.70213850  0.29433250  0.89805971  1
  Nb  Nb104  1  0.30033766  0.09904529  0.50563467  1
  Nb  Nb105  1  0.10333362  0.29736633  0.49523854  1
  Nb  Nb106  1  0.89372516  0.09728540  0.89651352  1
  Nb  Nb107  1  0.09901434  0.69753719  0.30105228  1
  Nb  Nb108  1  0.69261634  0.10151975  0.09340993  1
  Nb  Nb109  1  0.30552931  0.10111543  0.69926520  1
  Nb  Nb110  1  0.89555125  0.10244518  0.70112110  1
  Nb  Nb111  1  0.90134511  0.10446506  0.30387301  1
  Nb  Nb112  1  0.49200575  0.10647840  0.70104944  1
  Nb  Nb113  1  0.70598706  0.50444411  0.10028925  1
  Nb  Nb114  1  0.89698092  0.29352375  0.89973934  1
  Nb  Nb115  1  0.70550757  0.49856757  0.69983306  1
  Nb  Nb116  1  0.49968230  0.69842505  0.29953971  1
  Nb  Nb117  1  0.49673106  0.70117339  0.49362969  1
  Nb  Nb118  1  0.09968644  0.10146251  0.30396053  1
  Nb  Nb119  1  0.69986061  0.69704486  0.09973497  1
  Nb  Nb120  1  0.30059593  0.30296239  0.89685176  1
  Nb  Nb121  1  0.49986367  0.49945596  0.30349445  1
  Nb  Nb122  1  0.50129704  0.70728722  0.10359839  1
  Nb  Nb123  1  0.29636921  0.30053919  0.49528882  1
  Nb  Nb124  1  0.89803712  0.10270172  0.49966352  1
  Nb  Nb125  1  0.79453664  0.40585295  0.19245373  1
  Nb  Nb126  1  0.79982864  0.59589925  0.59929744  1
  Nb  Nb127  1  0.00535599  0.79682501  0.39576852  1
  Nb  Nb128  1  0.19625688  0.19972090  0.40496171  1
  Nb  Nb129  1  0.79863767  0.39158135  0.80453731  1
  Nb  Nb130  1  0.79931130  0.60324276  0.40089230  1
  Nb  Nb131  1  0.60714991  0.00989076  0.20286373  1
  Nb  Nb132  1  0.20230666  0.60361561  0.39638200  1
  Nb  Nb133  1  0.20553128  0.80410994  0.80664798  1
  Nb  Nb134  1  0.40369657  0.60226995  0.39455620  1
  Nb  Nb135  1  0.79382930  0.79517745  -0.00053218  1
  Nb  Nb136  1  0.40248877  0.79254027  0.00071260  1
  Nb  Nb137  1  -0.00566819  0.59861455  0.59998132  1
  Nb  Nb138  1  0.79829116  0.19652723  0.80245895  1
  Nb  Nb139  1  0.20728795  0.79672241  -0.00284527  1
  Nb  Nb140  1  0.80154679  0.19406175  0.60364478  1
  Nb  Nb141  1  0.20505629  0.19413863  0.80132055  1
  Nb  Nb142  1  0.60326042  0.79509205  0.00302403  1
  Nb  Nb143  1  0.39929657  0.60188315  0.80228258  1
  Nb  Nb144  1  0.60381759  0.19684148  0.80336395  1
  Nb  Nb145  1  0.59648394  0.40435641  0.39568885  1
  Nb  Nb146  1  -0.00276875  0.01030468  0.21089005  1
  Nb  Nb147  1  0.19718830  0.79572838  0.39773333  1
  Nb  Nb148  1  0.20207123  0.00424553  0.79786616  1
  Nb  Nb149  1  0.00392735  0.19457438  0.39806925  1
  Pd  Pd150  1  0.39097587  0.40779053  0.79210000  1
  Pd  Pd151  1  0.80131235  0.00390318  0.19705382  1
  Pd  Pd152  1  0.60643864  0.39815145  0.80218328  1
  Pd  Pd153  1  0.80338039  0.00172198  0.59744123  1
  Pd  Pd154  1  0.39510379  0.79513022  0.80548075  1
  Pd  Pd155  1  0.20813311  0.80767393  0.59712863  1
  Pd  Pd156  1  0.00423459  0.18981420  0.80366229  1
  Pd  Pd157  1  0.00922270  0.60400195  0.00668630  1
  Pd  Pd158  1  0.60042988  0.59901229  0.40741986  1
  Pd  Pd159  1  0.80659329  0.60196960  0.20357164  1
  Pd  Pd160  1  0.39512968  0.19784217  0.19784701  1
  Pd  Pd161  1  -0.00884482  -0.00429578  0.39996338  1
  Pd  Pd162  1  0.41279639  0.00703328  0.20603938  1
  Pd  Pd163  1  0.00471914  0.00607129  0.79334600  1
  Pd  Pd164  1  0.59180196  0.60243233  0.19319981  1
  Pd  Pd165  1  0.20273788  0.80984184  0.20061382  1
  Pd  Pd166  1  0.79903018  0.40357823  -0.00409416  1
  Pd  Pd167  1  0.59185063  0.58751644  0.79515132  1
  Pd  Pd168  1  0.19716191  0.39874660  0.38861870  1
  Pd  Pd169  1  0.59347070  0.39511894  0.59309177  1
  Pd  Pd170  1  0.39997692  0.20585708  0.00220196  1
  Pd  Pd171  1  -0.00612200  0.40212060  0.80747717  1
  Pd  Pd172  1  0.60516364  0.39595753  0.20120539  1
  Pd  Pd173  1  0.60282922  0.39903900  -0.00267946  1
  Pd  Pd174  1  0.79454400  -0.00947487  0.00374167  1
  Pd  Pd175  1  0.20552882  0.20193629  -0.00607694  1
  Pd  Pd176  1  0.59674790  0.60070129  0.00585369  1
  Pd  Pd177  1  0.19196816  0.60471743  0.01090625  1
  Pd  Pd178  1  -0.00335766  0.19507504  0.00388484  1
  Pd  Pd179  1  0.40315698  0.59888625  0.60181093  1
  Pd  Pd180  1  0.79849192  0.81088714  0.81028173  1
  Pd  Pd181  1  0.59531612  0.80124660  0.40100080  1
  Pd  Pd182  1  0.20219792  0.19683663  0.60074066  1
  Pd  Pd183  1  0.20439238  0.38893870  0.79263790  1
  Pd  Pd184  1  -0.00959256  -0.00305240  0.60363591  1
  Pd  Pd185  1  0.40810889  0.59580798  0.19795925  1
  Pd  Pd186  1  -0.00310965  0.81258512  0.20941277  1
  Pd  Pd187  1  -0.00351588  0.20113701  0.58821205  1
  Pd  Pd188  1  0.39857557  0.40115962  0.18993710  1
  Pd  Pd189  1  0.58902837  -0.00431275  0.59933227  1
  Pd  Pd190  1  0.19565887  -0.00000460  0.19587950  1
  Pd  Pd191  1  -0.00296883  0.19470389  0.19460620  1
  Pd  Pd192  1  0.79079068  0.40588528  0.38699780  1
  Pd  Pd193  1  0.59113747  0.00053450  0.39102692  1
  Pd  Pd194  1  0.80615582  -0.00234465  0.40555730  1
  Pd  Pd195  1  0.60327177  0.60102860  0.59900005  1
  Pd  Pd196  1  0.80341767  0.20606126  0.18889976  1
  Pd  Pd197  1  0.59876930  0.19802584  0.20574816  1
  Pd  Pd198  1  0.19608376  0.39553702  0.60582924  1
  Pd  Pd199  1  0.40250384  0.80685284  0.59720687  1
  Rh  Rh200  1  0.60269347  0.80644167  0.80545932  1
  Rh  Rh201  1  0.39303127  0.79156852  0.40145153  1
  Rh  Rh202  1  0.59696788  0.80585427  0.19722404  1
  Rh  Rh203  1  0.40649404  0.60339715  -0.00059763  1
  Rh  Rh204  1  0.59340990  0.20819912  -0.00773292  1
  Rh  Rh205  1  0.80545070  0.79113337  0.39498613  1
  Rh  Rh206  1  0.80020035  0.60741443  0.00150092  1
  Rh  Rh207  1  0.38725276  0.19903129  0.40656651  1
  Rh  Rh208  1  0.80303808  0.19726602  -0.00333769  1
  Rh  Rh209  1  0.00750089  0.38509162  0.39527604  1
  Rh  Rh210  1  -0.00258227  0.60877303  0.41193472  1
  Rh  Rh211  1  0.80921802  0.20183576  0.41036893  1
  Rh  Rh212  1  0.40332545  0.00504854  0.40075601  1
  Rh  Rh213  1  0.40539048  0.00373611  0.59814031  1
  Rh  Rh214  1  0.00782133  0.40103553  0.59586345  1
  Rh  Rh215  1  0.40647587  0.40605038  0.40609175  1
  Rh  Rh216  1  0.20343669  0.00111505  0.60677430  1
  Rh  Rh217  1  0.00350684  0.80311579  0.80163854  1
  Rh  Rh218  1  0.79986776  0.39366931  0.60666092  1
  Rh  Rh219  1  0.39483314  0.39508465  0.00378372  1
  Rh  Rh220  1  0.20548331  -0.00420882  -0.00132045  1
  Rh  Rh221  1  0.59219955  0.80547244  0.59516106  1
  Rh  Rh222  1  -0.00868750  0.59769960  0.79148380  1
  Rh  Rh223  1  0.19920034  0.39547228  -0.00233250  1
  Rh  Rh224  1  0.59555981  0.20893524  0.39485489  1
  Rh  Rh225  1  0.20683040  0.19917983  0.20588791  1
  Rh  Rh226  1  0.40683242  -0.00665708  0.00367504  1
  Rh  Rh227  1  0.39882334  0.39475611  0.59685104  1
  Rh  Rh228  1  -0.00838013  0.39951476  0.19290073  1
  Rh  Rh229  1  0.40242927  0.80072658  0.19543763  1
  Rh  Rh230  1  -0.00360788  0.01061414  0.01556852  1
  Rh  Rh231  1  0.39174018  0.20207008  0.59309174  1
  Rh  Rh232  1  -0.00766775  0.79664689  0.59858804  1
  Rh  Rh233  1  0.00338428  0.59773416  0.19223411  1
  Rh  Rh234  1  0.20347910  0.40032695  0.19744874  1
  Rh  Rh235  1  0.20382774  0.00109273  0.40723165  1
  Rh  Rh236  1  0.60587103  0.19652118  0.60856235  1
  Rh  Rh237  1  0.39992984  0.00867374  0.79975799  1
  Rh  Rh238  1  0.80641703  0.58659573  0.79356881  1
  Rh  Rh239  1  0.80035583  0.00186196  0.80361347  1
  Rh  Rh240  1  0.21144171  0.60806659  0.79288596  1
  Rh  Rh241  1  0.60739106  -0.01218034  0.01243875  1
  Rh  Rh242  1  0.19502971  0.59139407  0.20084509  1
  Rh  Rh243  1  0.39924591  0.19575418  0.80513133  1
  Rh  Rh244  1  0.59428351  0.00586001  0.79641692  1
  Rh  Rh245  1  0.00149564  0.39992340  -0.00679087  1
  Rh  Rh246  1  0.00114795  0.79355092  0.00079555  1
  Rh  Rh247  1  0.19308415  0.59510391  0.59505218  1
  Rh  Rh248  1  0.80593877  0.79225668  0.19757287  1
  Rh  Rh249  1  0.79693269  0.79460451  0.60789252  1
