# generated using pymatgen
data_ZrScNbPdRh
_symmetry_space_group_name_H-M   'P 1'
_cell_length_a   16.56214242
_cell_length_b   16.56410097
_cell_length_c   16.55950028
_cell_angle_alpha   89.99778266
_cell_angle_beta   90.00670119
_cell_angle_gamma   89.98924858
_symmetry_Int_Tables_number   1
_chemical_formula_structural   ZrScNbPdRh
_chemical_formula_sum   'Zr50 Sc50 Nb50 Pd50 Rh50'
_cell_volume   4542.88350069
_cell_formula_units_Z   50
loop_
 _symmetry_equiv_pos_site_id
 _symmetry_equiv_pos_as_xyz
  1  'x, y, z'
loop_
 _atom_site_type_symbol
 _atom_site_label
 _atom_site_symmetry_multiplicity
 _atom_site_fract_x
 _atom_site_fract_y
 _atom_site_fract_z
 _atom_site_occupancy
  Zr  Zr0  1  0.09394304  0.29755095  0.49970663  1
  Zr  Zr1  1  0.09371654  0.49720602  0.49868802  1
  Zr  Zr2  1  0.50064179  0.10267743  0.70106512  1
  Zr  Zr3  1  0.89740604  0.90191000  0.49966824  1
  Zr  Zr4  1  0.30561704  0.89107683  0.10032234  1
  Zr  Zr5  1  0.90521697  0.70259198  0.10004289  1
  Zr  Zr6  1  0.30043911  0.69579490  0.09407048  1
  Zr  Zr7  1  0.30289551  0.29854599  0.70530775  1
  Zr  Zr8  1  0.10592776  0.10347182  0.10078762  1
  Zr  Zr9  1  0.10053263  0.10408165  0.30496165  1
  Zr  Zr10  1  0.70277511  0.09440696  0.89879893  1
  Zr  Zr11  1  0.89996158  0.49273070  0.50204354  1
  Zr  Zr12  1  0.10443915  0.89579846  0.49925501  1
  Zr  Zr13  1  0.69079880  0.69890568  0.09409040  1
  Zr  Zr14  1  0.10870513  0.49505762  0.69368710  1
  Zr  Zr15  1  0.50385289  0.08848174  0.89598271  1
  Zr  Zr16  1  0.69762449  0.10591500  0.49148983  1
  Zr  Zr17  1  0.91303169  0.70599425  0.90107672  1
  Zr  Zr18  1  0.30219567  0.89609807  0.29630350  1
  Zr  Zr19  1  0.89918980  0.69179877  0.50328441  1
  Zr  Zr20  1  0.30743509  0.89438113  0.90178459  1
  Zr  Zr21  1  0.10124592  0.29341197  0.69778918  1
  Zr  Zr22  1  0.89990253  0.89566237  0.69878010  1
  Zr  Zr23  1  0.69915306  0.90432467  0.50200332  1
  Zr  Zr24  1  0.50028620  0.31810373  0.09088060  1
  Zr  Zr25  1  0.49145819  0.50618671  0.30008497  1
  Zr  Zr26  1  0.30550780  0.10256971  0.49997165  1
  Zr  Zr27  1  0.10267261  0.69435687  0.09569895  1
  Zr  Zr28  1  0.10841375  0.70030772  0.90175515  1
  Zr  Zr29  1  0.49811622  0.50355652  0.49603961  1
  Zr  Zr30  1  0.69706391  0.09959522  0.09665317  1
  Zr  Zr31  1  0.70151086  0.70558011  0.69681588  1
  Zr  Zr32  1  0.90227114  0.90041386  0.29701068  1
  Zr  Zr33  1  0.90232616  0.90367620  0.89398523  1
  Zr  Zr34  1  0.09641114  0.90238989  0.30301278  1
  Zr  Zr35  1  0.50119282  0.29586782  0.49658193  1
  Zr  Zr36  1  0.30417513  0.30086971  0.50069747  1
  Zr  Zr37  1  0.68441294  0.49632265  0.30075676  1
  Zr  Zr38  1  0.69067106  0.70306528  0.89761293  1
  Zr  Zr39  1  0.70195936  0.29902945  0.30660907  1
  Zr  Zr40  1  0.70223594  0.89741763  0.69811819  1
  Zr  Zr41  1  0.29530346  0.09890217  0.89784686  1
  Zr  Zr42  1  0.29714168  0.90065822  0.50730714  1
  Zr  Zr43  1  0.10164982  0.09661295  0.50617860  1
  Zr  Zr44  1  0.29466252  0.70210725  0.51157811  1
  Zr  Zr45  1  0.29628602  0.29678273  0.10323437  1
  Zr  Zr46  1  0.49990730  0.90115005  0.70034001  1
  Zr  Zr47  1  0.90000591  0.29361901  0.89484511  1
  Zr  Zr48  1  0.89893512  0.30148438  0.10052782  1
  Zr  Zr49  1  0.10841091  0.69857864  0.70132598  1
  Sc  Sc50  1  0.31076420  0.50441754  0.10499460  1
  Sc  Sc51  1  0.30182325  0.50330856  0.51114016  1
  Sc  Sc52  1  0.68639789  0.89824341  0.09821343  1
  Sc  Sc53  1  0.89454853  0.29309719  0.69273633  1
  Sc  Sc54  1  0.68564988  0.70601432  0.30226767  1
  Sc  Sc55  1  0.30392506  0.89675632  0.69607364  1
  Sc  Sc56  1  0.90428324  0.49225402  0.30406581  1
  Sc  Sc57  1  0.10286110  0.27923251  0.89418626  1
  Sc  Sc58  1  0.09745252  0.70049546  0.29505137  1
  Sc  Sc59  1  0.10423924  0.89874271  0.11025012  1
  Sc  Sc60  1  0.09310865  0.49632455  0.29404017  1
  Sc  Sc61  1  0.50470288  0.10289461  0.30798444  1
  Sc  Sc62  1  0.70279641  0.10023592  0.30197641  1
  Sc  Sc63  1  0.29977945  0.70201457  0.90241582  1
  Sc  Sc64  1  0.29806487  0.09638381  0.69690164  1
  Sc  Sc65  1  0.30031090  0.69550723  0.70134599  1
  Sc  Sc66  1  0.30487044  0.50802075  0.91054473  1
  Sc  Sc67  1  0.90041666  0.50393307  0.91180002  1
  Sc  Sc68  1  0.89878914  0.49936237  0.09944272  1
  Sc  Sc69  1  0.89447537  0.10311809  0.89362047  1
  Sc  Sc70  1  0.10704012  0.51149708  0.90230405  1
  Sc  Sc71  1  0.30564991  0.69242842  0.28644703  1
  Sc  Sc72  1  0.50413161  0.89239181  0.28795699  1
  Sc  Sc73  1  0.89808566  0.71031709  0.29643815  1
  Sc  Sc74  1  0.69137590  0.70390856  0.50143854  1
  Sc  Sc75  1  0.09954253  0.50333814  0.10651579  1
  Sc  Sc76  1  0.09993357  0.89515953  0.89289692  1
  Sc  Sc77  1  0.09858093  0.09472478  0.89054962  1
  Sc  Sc78  1  0.49903358  0.31131229  0.30879124  1
  Sc  Sc79  1  0.89164256  0.10995027  0.09377881  1
  Sc  Sc80  1  0.30110338  0.10345227  0.29993698  1
  Sc  Sc81  1  0.49565022  0.70216188  0.10047136  1
  Sc  Sc82  1  0.30462191  0.30082575  0.29980498  1
  Sc  Sc83  1  0.70049305  0.10341142  0.70366059  1
  Sc  Sc84  1  0.69472066  0.50621647  0.90913546  1
  Sc  Sc85  1  0.89828370  0.10181660  0.49838456  1
  Sc  Sc86  1  0.49764068  0.90094922  0.09592356  1
  Sc  Sc87  1  0.50966773  0.69991607  0.69795808  1
  Sc  Sc88  1  0.89558221  0.10354477  0.30101205  1
  Sc  Sc89  1  0.70027211  0.89710227  0.30160240  1
  Sc  Sc90  1  0.90263150  0.09311648  0.70303561  1
  Sc  Sc91  1  0.70115009  0.49355666  0.50052149  1
  Sc  Sc92  1  0.29974520  0.08901417  0.09853825  1
  Sc  Sc93  1  0.89621767  0.30246890  0.30179561  1
  Sc  Sc94  1  0.69302322  0.50743430  0.70164123  1
  Sc  Sc95  1  0.09715691  0.90965279  0.69896724  1
  Sc  Sc96  1  0.69150608  0.90326733  0.89814526  1
  Sc  Sc97  1  0.50377569  0.10122437  0.50218699  1
  Sc  Sc98  1  0.69565698  0.30432064  0.89087733  1
  Sc  Sc99  1  0.70425730  0.31303941  0.10532714  1
  Nb  Nb100  1  0.30296881  0.29959048  0.90156186  1
  Nb  Nb101  1  0.49747537  0.69778096  0.30889434  1
  Nb  Nb102  1  0.10390852  0.69874366  0.50029533  1
  Nb  Nb103  1  0.49534307  0.89980738  0.50690342  1
  Nb  Nb104  1  0.50719286  0.30631259  0.71544106  1
  Nb  Nb105  1  0.90113831  0.50289236  0.69758505  1
  Nb  Nb106  1  0.50315159  0.49269566  0.90595968  1
  Nb  Nb107  1  0.29842213  0.50099466  0.30455682  1
  Nb  Nb108  1  0.49968695  0.70064168  0.89795192  1
  Nb  Nb109  1  0.49888742  0.88891216  0.89522022  1
  Nb  Nb110  1  0.10275124  0.29996706  0.10553836  1
  Nb  Nb111  1  0.70737869  0.30166017  0.50510141  1
  Nb  Nb112  1  0.49720076  0.69886859  0.49663866  1
  Nb  Nb113  1  0.10189712  0.30328424  0.29358591  1
  Nb  Nb114  1  0.50801276  0.50197900  0.09238035  1
  Nb  Nb115  1  0.50336620  0.10232968  0.09667415  1
  Nb  Nb116  1  0.90016044  0.89813204  0.10396250  1
  Nb  Nb117  1  0.30182338  0.50333305  0.70190531  1
  Nb  Nb118  1  0.70032268  0.30552588  0.69843033  1
  Nb  Nb119  1  0.49685357  0.30751197  0.89596084  1
  Nb  Nb120  1  0.89834142  0.70029971  0.69852917  1
  Nb  Nb121  1  0.09581959  0.10111508  0.69957433  1
  Nb  Nb122  1  0.50133637  0.49911429  0.70661794  1
  Nb  Nb123  1  0.69075833  0.50349444  0.10228296  1
  Nb  Nb124  1  0.88406381  0.30751481  0.49565186  1
  Nb  Nb125  1  0.80702009  0.60304283  0.79793460  1
  Nb  Nb126  1  0.80599973  0.40956709  0.79472060  1
  Nb  Nb127  1  0.41113983  0.19998264  0.18984027  1
  Nb  Nb128  1  0.20260520  0.39873261  0.80609795  1
  Nb  Nb129  1  -0.00366510  0.59772961  0.79332792  1
  Nb  Nb130  1  0.80395666  0.80351356  0.00155556  1
  Nb  Nb131  1  0.40990850  0.59487384  0.80161462  1
  Nb  Nb132  1  0.59504725  0.20535463  0.19370401  1
  Nb  Nb133  1  0.59241721  0.20415573  -0.00029309  1
  Nb  Nb134  1  0.00073931  0.79295330  0.59836820  1
  Nb  Nb135  1  0.40274479  -0.01086911  0.40383262  1
  Nb  Nb136  1  0.40332839  0.79837938  0.40453309  1
  Nb  Nb137  1  0.19693713  0.59660807  0.40089028  1
  Nb  Nb138  1  0.80155704  -0.00484783  0.19333316  1
  Nb  Nb139  1  0.59603456  0.39376557  0.60728182  1
  Nb  Nb140  1  0.79628967  0.59934054  0.39420782  1
  Nb  Nb141  1  0.79089326  0.59957241  0.20069180  1
  Nb  Nb142  1  0.19874367  0.40352749  0.39874813  1
  Nb  Nb143  1  0.01092844  0.39176306  -0.00323724  1
  Nb  Nb144  1  0.00102616  0.40346349  0.80141199  1
  Nb  Nb145  1  0.40892518  0.40099455  0.61311623  1
  Nb  Nb146  1  0.00612187  0.20616639  0.19971897  1
  Nb  Nb147  1  0.19829189  0.39239417  -0.00123060  1
  Nb  Nb148  1  -0.00400561  -0.00135022  0.00473071  1
  Nb  Nb149  1  0.40546194  0.20255360  -0.00342575  1
  Pd  Pd150  1  0.20394287  0.00173507  0.20435440  1
  Pd  Pd151  1  0.39531132  -0.00318238  0.79594860  1
  Pd  Pd152  1  0.80340097  -0.00878079  0.00355641  1
  Pd  Pd153  1  0.79794088  0.01004467  0.60108693  1
  Pd  Pd154  1  0.40560367  0.79156647  0.60415474  1
  Pd  Pd155  1  0.60332401  0.00614438  0.20502937  1
  Pd  Pd156  1  0.00667074  0.60405255  0.60459456  1
  Pd  Pd157  1  0.59911968  0.59579556  0.59423995  1
  Pd  Pd158  1  0.20498994  0.19923254  -0.00130204  1
  Pd  Pd159  1  -0.00081448  0.79454124  0.40454617  1
  Pd  Pd160  1  0.79796995  0.79748312  0.80927855  1
  Pd  Pd161  1  0.00613562  0.81165592  0.00617393  1
  Pd  Pd162  1  0.80098540  0.19248563  0.60242916  1
  Pd  Pd163  1  0.59172337  0.80837959  0.40521700  1
  Pd  Pd164  1  0.59346723  -0.00815350  0.39572363  1
  Pd  Pd165  1  0.20588198  0.80554315  0.79555156  1
  Pd  Pd166  1  0.60140551  0.20625486  0.60303707  1
  Pd  Pd167  1  0.60472300  0.19920710  0.80634478  1
  Pd  Pd168  1  0.78840925  0.79965927  0.19297843  1
  Pd  Pd169  1  -0.01065900  0.59971424  0.20530197  1
  Pd  Pd170  1  0.39178740  0.40951427  0.80480533  1
  Pd  Pd171  1  0.00324039  0.19539389  0.00299120  1
  Pd  Pd172  1  0.40272439  0.40066417  0.20088140  1
  Pd  Pd173  1  0.20968245  0.78645862  0.38981899  1
  Pd  Pd174  1  0.79104366  0.59602620  0.59764957  1
  Pd  Pd175  1  -0.00730743  0.39095640  0.60569614  1
  Pd  Pd176  1  0.40659131  0.00777091  0.20811416  1
  Pd  Pd177  1  -0.01059119  0.19852423  0.59767855  1
  Pd  Pd178  1  0.79678116  0.79278168  0.40384738  1
  Pd  Pd179  1  0.20330334  0.20965802  0.39726325  1
  Pd  Pd180  1  0.40652004  0.20570689  0.60704535  1
  Pd  Pd181  1  0.60285175  0.00459859  0.60271419  1
  Pd  Pd182  1  -0.00900223  0.01418168  0.19247264  1
  Pd  Pd183  1  0.38637383  0.60670455  0.40484256  1
  Pd  Pd184  1  0.59371509  0.60600140  0.20119049  1
  Pd  Pd185  1  0.40005071  0.19485366  0.80524761  1
  Pd  Pd186  1  0.20819295  0.00189990  0.39898567  1
  Pd  Pd187  1  0.19054957  -0.00991497  -0.00261561  1
  Pd  Pd188  1  0.78499179  0.21167593  -0.00352984  1
  Pd  Pd189  1  0.20322637  0.40856988  0.20068088  1
  Pd  Pd190  1  0.79985430  0.60845691  0.00127610  1
  Pd  Pd191  1  0.20181330  0.19635323  0.60231242  1
  Pd  Pd192  1  0.19860330  0.79372233  0.20245928  1
  Pd  Pd193  1  0.20291874  -0.00421566  0.79436564  1
  Pd  Pd194  1  -0.00752653  0.20714146  0.39580474  1
  Pd  Pd195  1  0.80025677  0.41063160  0.20453998  1
  Pd  Pd196  1  -0.00340345  0.00362166  0.40469766  1
  Pd  Pd197  1  0.79782252  0.39878586  -0.00765320  1
  Pd  Pd198  1  -0.00166266  0.60365357  0.39073909  1
  Pd  Pd199  1  0.40336225  0.00002510  -0.00157426  1
  Rh  Rh200  1  0.59236221  0.39836967  0.20184718  1
  Rh  Rh201  1  0.40148832  0.19142536  0.39248280  1
  Rh  Rh202  1  0.59838164  0.59661689  0.80872994  1
  Rh  Rh203  1  0.20241589  0.19461189  0.20429927  1
  Rh  Rh204  1  0.19939518  0.80529727  0.00190481  1
  Rh  Rh205  1  -0.00403271  0.39387512  0.19192883  1
  Rh  Rh206  1  0.80150446  0.20107358  0.40209226  1
  Rh  Rh207  1  0.79550755  0.19303705  0.20170533  1
  Rh  Rh208  1  0.20255076  0.59140325  0.00905513  1
  Rh  Rh209  1  0.40958263  0.60229847  -0.00540451  1
  Rh  Rh210  1  0.60156467  -0.00605499  0.79477767  1
  Rh  Rh211  1  0.19124624  0.80492282  0.60874982  1
  Rh  Rh212  1  0.21263298  0.39817737  0.60004918  1
  Rh  Rh213  1  0.00174794  -0.00438100  0.59631623  1
  Rh  Rh214  1  0.38930510  0.40720050  0.40876515  1
  Rh  Rh215  1  0.59370666  -0.00406370  -0.00473410  1
  Rh  Rh216  1  0.60186315  0.20625256  0.39730373  1
  Rh  Rh217  1  0.19988695  0.59529969  0.20454498  1
  Rh  Rh218  1  0.60501330  0.59995148  0.40459780  1
  Rh  Rh219  1  0.61011205  0.40817707  0.79979699  1
  Rh  Rh220  1  0.00606447  0.79409721  0.78657913  1
  Rh  Rh221  1  -0.00296404  0.19845690  0.79086290  1
  Rh  Rh222  1  0.60398701  0.39540137  0.41227067  1
  Rh  Rh223  1  0.00368957  0.38996354  0.39960302  1
  Rh  Rh224  1  0.40439578  0.79309031  0.20226606  1
  Rh  Rh225  1  0.79709677  -0.00237033  0.79471275  1
  Rh  Rh226  1  0.60973628  0.39710181  -0.00455221  1
  Rh  Rh227  1  0.59666005  0.80346461  0.79467366  1
  Rh  Rh228  1  0.00832093  0.79931120  0.19865490  1
  Rh  Rh229  1  0.40840123  0.59884831  0.61094174  1
  Rh  Rh230  1  0.39045611  0.39993765  -0.00203219  1
  Rh  Rh231  1  0.80436039  0.79902896  0.59254881  1
  Rh  Rh232  1  -0.00119618  0.00360954  0.80496330  1
  Rh  Rh233  1  0.79508101  0.40720727  0.39517697  1
  Rh  Rh234  1  0.19717883  0.59574506  0.59448472  1
  Rh  Rh235  1  0.59621527  0.80252700  -0.00221776  1
  Rh  Rh236  1  0.40236564  0.78909317  0.79729907  1
  Rh  Rh237  1  0.40703169  0.59878732  0.19638279  1
  Rh  Rh238  1  0.80192461  -0.00151543  0.39091874  1
  Rh  Rh239  1  0.79404542  0.40439971  0.60815242  1
  Rh  Rh240  1  0.40323807  0.79667184  -0.00256766  1
  Rh  Rh241  1  0.59716813  0.80208391  0.59640627  1
  Rh  Rh242  1  0.00556802  0.59156895  -0.00313867  1
  Rh  Rh243  1  0.79673743  0.20622341  0.79499412  1
  Rh  Rh244  1  0.59487749  0.79480119  0.19777156  1
  Rh  Rh245  1  0.59107518  0.60157119  -0.00350636  1
  Rh  Rh246  1  0.20338640  0.19795529  0.79488369  1
  Rh  Rh247  1  0.19853426  0.00222024  0.60387853  1
  Rh  Rh248  1  0.40250786  0.00654735  0.59729344  1
  Rh  Rh249  1  0.20774954  0.59427524  0.80226289  1
