# generated using pymatgen
data_ZrScNbPdRh
_symmetry_space_group_name_H-M   'P 1'
_cell_length_a   16.55721714
_cell_length_b   16.56033819
_cell_length_c   16.56214727
_cell_angle_alpha   89.97632641
_cell_angle_beta   89.96698024
_cell_angle_gamma   90.01468001
_symmetry_Int_Tables_number   1
_chemical_formula_structural   ZrScNbPdRh
_chemical_formula_sum   'Zr50 Sc50 Nb50 Pd50 Rh50'
_cell_volume   4541.22546530
_cell_formula_units_Z   50
loop_
 _symmetry_equiv_pos_site_id
 _symmetry_equiv_pos_as_xyz
  1  'x, y, z'
loop_
 _atom_site_type_symbol
 _atom_site_label
 _atom_site_symmetry_multiplicity
 _atom_site_fract_x
 _atom_site_fract_y
 _atom_site_fract_z
 _atom_site_occupancy
  Zr  Zr0  1  0.10085017  0.08808964  0.29126552  1
  Zr  Zr1  1  0.30013102  0.90416182  0.70099221  1
  Zr  Zr2  1  0.69303848  0.89693766  0.89830182  1
  Zr  Zr3  1  0.69535651  0.89779792  0.70314676  1
  Zr  Zr4  1  0.70340802  0.70078346  0.70206954  1
  Zr  Zr5  1  0.70357301  0.30494966  0.28687811  1
  Zr  Zr6  1  0.69419461  0.69840329  0.31546449  1
  Zr  Zr7  1  0.09737034  0.70336952  0.89776310  1
  Zr  Zr8  1  0.69958492  0.89693017  0.49560392  1
  Zr  Zr9  1  0.90196281  0.89752093  0.70104844  1
  Zr  Zr10  1  0.69336021  0.29480991  0.49952300  1
  Zr  Zr11  1  0.49036058  0.69839913  0.29981601  1
  Zr  Zr12  1  0.90485851  0.30425581  0.89734668  1
  Zr  Zr13  1  0.70597132  0.29222574  0.69588393  1
  Zr  Zr14  1  0.70365431  0.09601939  0.29274665  1
  Zr  Zr15  1  0.70263350  0.69719964  0.09156656  1
  Zr  Zr16  1  0.09826815  0.90211598  0.89340821  1
  Zr  Zr17  1  0.90616076  0.49408524  0.29421398  1
  Zr  Zr18  1  0.49692063  0.50404692  0.70593087  1
  Zr  Zr19  1  0.29287083  0.50416433  0.10876027  1
  Zr  Zr20  1  0.29647946  0.29896452  0.90059993  1
  Zr  Zr21  1  0.30406114  0.11579850  0.90230574  1
  Zr  Zr22  1  0.70735082  0.29376641  0.09705825  1
  Zr  Zr23  1  0.70015616  0.70089024  0.50369673  1
  Zr  Zr24  1  0.69360587  0.51130604  0.49673850  1
  Zr  Zr25  1  0.89882711  0.70167371  0.70395447  1
  Zr  Zr26  1  0.50441783  0.91345237  0.10068623  1
  Zr  Zr27  1  0.50050369  0.49817946  0.90398203  1
  Zr  Zr28  1  0.90152745  0.29957199  0.11041139  1
  Zr  Zr29  1  0.29557291  0.69994817  0.10065241  1
  Zr  Zr30  1  0.09676715  0.90604516  0.10423345  1
  Zr  Zr31  1  0.70120860  0.89877087  0.10020142  1
  Zr  Zr32  1  0.08667474  0.50058011  0.89930095  1
  Zr  Zr33  1  0.30150168  0.49665081  0.89747265  1
  Zr  Zr34  1  0.70285006  0.70120490  0.89659263  1
  Zr  Zr35  1  0.29479130  0.70579286  0.29457541  1
  Zr  Zr36  1  0.09222056  0.30209100  0.29139625  1
  Zr  Zr37  1  0.89622448  0.30205666  0.69631673  1
  Zr  Zr38  1  0.89823442  0.10318256  0.69597924  1
  Zr  Zr39  1  0.69441941  0.50543117  0.70115198  1
  Zr  Zr40  1  0.30060412  0.51050385  0.30351463  1
  Zr  Zr41  1  0.09829179  0.09869467  0.89896446  1
  Zr  Zr42  1  0.90100493  0.09879124  0.09826580  1
  Zr  Zr43  1  0.70481677  0.08870003  0.09480210  1
  Zr  Zr44  1  0.29613238  0.30296377  0.71316187  1
  Zr  Zr45  1  0.10610238  0.30011167  0.89673127  1
  Zr  Zr46  1  0.09685168  0.69401270  0.70564555  1
  Zr  Zr47  1  0.50037335  0.69354865  0.89954433  1
  Zr  Zr48  1  0.10410816  0.50357723  0.29280215  1
  Zr  Zr49  1  0.90338002  0.29628172  0.50437370  1
  Sc  Sc50  1  0.50448174  0.89625042  0.90034402  1
  Sc  Sc51  1  0.09578998  0.50234024  0.10467080  1
  Sc  Sc52  1  0.50783661  0.69805396  0.49173369  1
  Sc  Sc53  1  0.90179404  0.70660547  0.30228401  1
  Sc  Sc54  1  0.50461066  0.10688104  0.49756106  1
  Sc  Sc55  1  0.29700182  0.29511755  0.29654985  1
  Sc  Sc56  1  0.29891809  0.91020442  0.49733653  1
  Sc  Sc57  1  0.48714267  0.89697260  0.30197951  1
  Sc  Sc58  1  0.49964933  0.29818521  0.30834913  1
  Sc  Sc59  1  0.29595196  0.09933075  0.50011137  1
  Sc  Sc60  1  0.69794539  0.50886941  0.90420187  1
  Sc  Sc61  1  0.90296723  0.89643722  0.10139239  1
  Sc  Sc62  1  0.10294901  0.09184626  0.69599586  1
  Sc  Sc63  1  0.09898922  0.70041581  0.09670864  1
  Sc  Sc64  1  0.71332171  0.89586311  0.30043703  1
  Sc  Sc65  1  0.90801825  0.09532363  0.49954148  1
  Sc  Sc66  1  0.29882061  0.89812425  0.10236107  1
  Sc  Sc67  1  0.69711459  0.49661038  0.29944686  1
  Sc  Sc68  1  0.29788426  0.89540400  0.89786398  1
  Sc  Sc69  1  0.70058764  0.10146589  0.50206776  1
  Sc  Sc70  1  0.49876602  0.69182346  0.70737662  1
  Sc  Sc71  1  0.69592855  0.09838409  0.69266346  1
  Sc  Sc72  1  0.90778402  0.50656443  0.09614913  1
  Sc  Sc73  1  0.29795915  0.29362837  0.49158870  1
  Sc  Sc74  1  0.90137428  0.70137497  0.09102325  1
  Sc  Sc75  1  0.89995468  0.69234105  0.89871539  1
  Sc  Sc76  1  0.69351824  0.48960631  0.09954433  1
  Sc  Sc77  1  0.09776178  0.90115229  0.49341074  1
  Sc  Sc78  1  0.10098685  0.10259768  0.50386532  1
  Sc  Sc79  1  0.71139753  0.29282649  0.89408165  1
  Sc  Sc80  1  0.29611481  0.29233357  0.10604800  1
  Sc  Sc81  1  0.90033010  0.70221996  0.50795205  1
  Sc  Sc82  1  0.29873430  0.70027105  0.89838814  1
  Sc  Sc83  1  0.30695418  0.10360616  0.10823995  1
  Sc  Sc84  1  0.49873331  0.30472566  0.71119109  1
  Sc  Sc85  1  0.50495217  0.30898795  0.10068656  1
  Sc  Sc86  1  0.29653862  0.10156249  0.69681072  1
  Sc  Sc87  1  0.48492868  0.30448619  0.89917895  1
  Sc  Sc88  1  0.09806719  0.69963490  0.50846039  1
  Sc  Sc89  1  0.91162208  0.89802052  0.89946659  1
  Sc  Sc90  1  0.90819940  0.09880050  0.29554948  1
  Sc  Sc91  1  0.90790477  0.49716619  0.50907113  1
  Sc  Sc92  1  0.49355933  0.90308616  0.49481056  1
  Sc  Sc93  1  0.90193446  0.50141181  0.70462954  1
  Sc  Sc94  1  0.29857395  0.68890584  0.50154873  1
  Sc  Sc95  1  0.48940532  0.69944083  0.09634230  1
  Sc  Sc96  1  0.90077690  0.90072140  0.49942408  1
  Sc  Sc97  1  0.09325886  0.29975016  0.50568001  1
  Sc  Sc98  1  0.89816983  0.09752761  0.90089401  1
  Sc  Sc99  1  0.29966763  0.10279182  0.29842679  1
  Nb  Nb100  1  0.49973893  0.09787415  0.90438730  1
  Nb  Nb101  1  0.49864047  0.30224751  0.50274788  1
  Nb  Nb102  1  0.49988520  0.09699143  0.28573417  1
  Nb  Nb103  1  0.29678042  0.50920279  0.68966790  1
  Nb  Nb104  1  0.92461530  0.89937366  0.30632063  1
  Nb  Nb105  1  0.30129580  0.69832871  0.70094424  1
  Nb  Nb106  1  0.10090484  0.71281489  0.30795076  1
  Nb  Nb107  1  0.10307649  0.30006998  0.09930266  1
  Nb  Nb108  1  0.10527198  0.89707279  0.70899159  1
  Nb  Nb109  1  0.09893120  0.29921988  0.70090397  1
  Nb  Nb110  1  0.50177906  0.09575479  0.10262805  1
  Nb  Nb111  1  0.89899753  0.30108888  0.29987399  1
  Nb  Nb112  1  0.10155638  0.89310982  0.29965600  1
  Nb  Nb113  1  0.89946133  0.49966238  0.90433056  1
  Nb  Nb114  1  0.29430552  0.49820959  0.50558980  1
  Nb  Nb115  1  0.50236241  0.49975539  0.10129164  1
  Nb  Nb116  1  0.50419888  0.09813914  0.70078910  1
  Nb  Nb117  1  0.27839625  0.89809670  0.29808515  1
  Nb  Nb118  1  0.10592679  0.50232280  0.50700488  1
  Nb  Nb119  1  0.49707484  0.50010058  0.29888809  1
  Nb  Nb120  1  0.50264189  0.90557394  0.70109865  1
  Nb  Nb121  1  0.10420916  0.49871262  0.68643131  1
  Nb  Nb122  1  0.49517345  0.49328276  0.49604225  1
  Nb  Nb123  1  0.70186026  0.09767617  0.89937097  1
  Nb  Nb124  1  0.10138710  0.10422521  0.10014730  1
  Nb  Nb125  1  0.00515713  0.20385030  0.00050484  1
  Nb  Nb126  1  0.80809856  0.40034848  -0.00168217  1
  Nb  Nb127  1  0.00267203  0.20272305  0.79860264  1
  Nb  Nb128  1  0.59894972  0.19164899  0.19352611  1
  Nb  Nb129  1  0.40568800  0.20792780  0.60268539  1
  Nb  Nb130  1  0.79495014  -0.00173282  0.79910944  1
  Nb  Nb131  1  0.59891822  0.19178211  -0.00239047  1
  Nb  Nb132  1  0.40138753  0.40829387  0.20417326  1
  Nb  Nb133  1  0.20499536  0.80110339  0.61063293  1
  Nb  Nb134  1  0.39684711  0.40274671  0.59574598  1
  Nb  Nb135  1  0.80388604  0.20598642  0.39396065  1
  Nb  Nb136  1  0.19613782  0.39798281  0.00167840  1
  Nb  Nb137  1  0.59337315  0.80317493  0.60425706  1
  Nb  Nb138  1  0.39992741  0.79985649  0.60640229  1
  Nb  Nb139  1  0.00836959  0.59898193  0.39940800  1
  Nb  Nb140  1  0.59895108  0.00211172  0.39030179  1
  Nb  Nb141  1  0.80362933  0.39506074  0.40029285  1
  Nb  Nb142  1  0.59634235  0.19061307  0.80664727  1
  Nb  Nb143  1  0.59625347  0.60112598  0.20055353  1
  Nb  Nb144  1  0.19815897  0.00767260  0.00194012  1
  Nb  Nb145  1  0.79385215  0.60208136  0.20089206  1
  Nb  Nb146  1  0.40833829  0.00596854  0.80002275  1
  Nb  Nb147  1  0.59211847  0.40147211  0.59618337  1
  Nb  Nb148  1  0.19606621  0.40811799  0.40353267  1
  Nb  Nb149  1  0.60007722  0.79564021  0.20222784  1
  Pd  Pd150  1  0.39069485  -0.00201412  -0.00673950  1
  Pd  Pd151  1  0.38886746  0.39771652  0.39792611  1
  Pd  Pd152  1  0.19545656  0.00427548  0.40156866  1
  Pd  Pd153  1  0.40701684  0.60220841  0.59396045  1
  Pd  Pd154  1  0.60965688  0.38819563  -0.01330955  1
  Pd  Pd155  1  0.00167095  0.79406205  0.19526630  1
  Pd  Pd156  1  0.19667757  0.80931743  0.00108781  1
  Pd  Pd157  1  0.40477262  0.80489131  0.79732004  1
  Pd  Pd158  1  0.20536641  0.20481312  0.60114801  1
  Pd  Pd159  1  0.80658190  0.59573938  0.60198259  1
  Pd  Pd160  1  -0.00336776  0.61308472  0.20486691  1
  Pd  Pd161  1  0.00291296  0.40117879  0.78986552  1
  Pd  Pd162  1  0.40183705  0.19324902  0.40146245  1
  Pd  Pd163  1  0.38850722  0.39817304  0.01480531  1
  Pd  Pd164  1  0.40894541  0.20615097  0.01266447  1
  Pd  Pd165  1  0.79825825  -0.00031273  0.60230391  1
  Pd  Pd166  1  0.19333415  0.60200163  0.40178304  1
  Pd  Pd167  1  0.20499207  0.38698336  0.59486911  1
  Pd  Pd168  1  0.38748738  -0.00807571  0.20739433  1
  Pd  Pd169  1  0.18984549  0.20448986  0.39537410  1
  Pd  Pd170  1  0.59578168  -0.00373689  0.58662622  1
  Pd  Pd171  1  0.60393373  0.19276055  0.38811129  1
  Pd  Pd172  1  0.79324758  0.40984274  0.80545438  1
  Pd  Pd173  1  0.20501179  0.79832369  0.41584480  1
  Pd  Pd174  1  0.81548554  0.59175682  0.39652278  1
  Pd  Pd175  1  0.19396041  0.59296271  -0.00160507  1
  Pd  Pd176  1  0.40328372  0.00606950  0.60178915  1
  Pd  Pd177  1  0.79963045  0.79309979  0.20404124  1
  Pd  Pd178  1  0.59198980  0.79593085  0.00777166  1
  Pd  Pd179  1  0.81228620  0.80053379  0.40204104  1
  Pd  Pd180  1  0.21206230  0.00809855  0.80780030  1
  Pd  Pd181  1  0.40177515  0.00952837  0.39298803  1
  Pd  Pd182  1  0.38708273  0.79915023  0.41009113  1
  Pd  Pd183  1  0.80912866  0.80513993  -0.00765847  1
  Pd  Pd184  1  0.60699375  0.39077979  0.80417005  1
  Pd  Pd185  1  0.00904935  0.80668353  0.60079217  1
  Pd  Pd186  1  0.00706526  -0.00607341  0.60167720  1
  Pd  Pd187  1  0.20021263  0.59499991  0.79992110  1
  Pd  Pd188  1  0.19537910  0.41301180  0.79986339  1
  Pd  Pd189  1  0.40069862  0.80797646  0.19622504  1
  Pd  Pd190  1  0.60486495  0.40183281  0.39968992  1
  Pd  Pd191  1  0.00129507  0.19392588  0.39662520  1
  Pd  Pd192  1  0.81458980  -0.00997742  0.20623581  1
  Pd  Pd193  1  0.39614229  0.59742778  0.00022996  1
  Pd  Pd194  1  0.79054832  0.40757603  0.59248140  1
  Pd  Pd195  1  0.00366910  0.40626384  0.40488756  1
  Pd  Pd196  1  0.80620849  -0.01195424  -0.00977504  1
  Pd  Pd197  1  0.80355306  0.00604941  0.39625517  1
  Pd  Pd198  1  0.40170377  0.80581945  0.00001566  1
  Pd  Pd199  1  0.40035492  0.60089044  0.40707625  1
  Rh  Rh200  1  0.19111311  0.61463358  0.20171117  1
  Rh  Rh201  1  -0.00285398  0.79670005  0.80090454  1
  Rh  Rh202  1  -0.00048193  0.59801843  0.59953813  1
  Rh  Rh203  1  0.19105960  0.19283472  0.78889912  1
  Rh  Rh204  1  0.80198080  0.59609164  0.80137594  1
  Rh  Rh205  1  -0.00947902  0.00584729  0.79084500  1
  Rh  Rh206  1  0.00159738  0.60483421  -0.00244422  1
  Rh  Rh207  1  0.19744301  0.19931428  0.00850752  1
  Rh  Rh208  1  0.60287909  0.60250398  0.80488576  1
  Rh  Rh209  1  0.80629541  0.80564079  0.80568309  1
  Rh  Rh210  1  0.40783189  0.19218761  0.79141409  1
  Rh  Rh211  1  0.20509994  0.00104633  0.19290372  1
  Rh  Rh212  1  0.80397205  0.19232392  0.58782446  1
  Rh  Rh213  1  0.60043187  0.00636446  0.80620337  1
  Rh  Rh214  1  0.00100036  0.40010707  0.19273785  1
  Rh  Rh215  1  0.79997754  0.19346558  0.20429707  1
  Rh  Rh216  1  0.80648017  0.41311274  0.19445929  1
  Rh  Rh217  1  0.00327041  0.40077051  0.60516908  1
  Rh  Rh218  1  0.00645208  0.00247285  0.40176716  1
  Rh  Rh219  1  0.19815253  0.60944508  0.60413356  1
  Rh  Rh220  1  0.58905987  0.21095717  0.61378409  1
  Rh  Rh221  1  0.40447478  0.59487328  0.19462370  1
  Rh  Rh222  1  0.79963421  0.58914332  0.00678636  1
  Rh  Rh223  1  0.60156312  -0.00780075  0.20800349  1
  Rh  Rh224  1  0.00508483  0.00563033  0.00545345  1
  Rh  Rh225  1  0.19296647  0.79880153  0.19471777  1
  Rh  Rh226  1  0.41379284  0.21201379  0.19839060  1
  Rh  Rh227  1  -0.00258453  0.59462488  0.79705908  1
  Rh  Rh228  1  0.00292672  0.19994198  0.60892215  1
  Rh  Rh229  1  0.59040863  0.59365923  0.39490089  1
  Rh  Rh230  1  0.79275966  0.80247683  0.59765645  1
  Rh  Rh231  1  0.80645446  0.20525856  -0.00380583  1
  Rh  Rh232  1  0.00092700  0.39529203  0.00753877  1
  Rh  Rh233  1  0.39289177  0.59677937  0.80484854  1
  Rh  Rh234  1  0.19548072  0.19690786  0.20457388  1
  Rh  Rh235  1  0.39310889  0.41102329  0.79232266  1
  Rh  Rh236  1  0.59566183  0.81345211  0.39763424  1
  Rh  Rh237  1  -0.00104958  0.79349934  0.40788729  1
  Rh  Rh238  1  0.59739637  0.60129243  0.00489414  1
  Rh  Rh239  1  0.20557647  0.39546942  0.20027882  1
  Rh  Rh240  1  0.60084433  0.00259368  -0.00486947  1
  Rh  Rh241  1  0.59322366  0.79165259  0.79367924  1
  Rh  Rh242  1  0.19408394  -0.00976398  0.59641711  1
  Rh  Rh243  1  0.20182856  0.79404413  0.79651986  1
  Rh  Rh244  1  -0.00238714  -0.00232224  0.19787415  1
  Rh  Rh245  1  0.59147352  0.60086578  0.59628746  1
  Rh  Rh246  1  0.80107085  0.18702113  0.79895528  1
  Rh  Rh247  1  0.58822916  0.39896356  0.20621615  1
  Rh  Rh248  1  0.00284527  0.19835962  0.19632149  1
  Rh  Rh249  1  0.00269076  0.79844770  -0.00286122  1
