# generated using pymatgen
data_ZrScNbPdRh
_symmetry_space_group_name_H-M   'P 1'
_cell_length_a   16.55762376
_cell_length_b   16.55588299
_cell_length_c   16.55451136
_cell_angle_alpha   89.98184907
_cell_angle_beta   90.00198803
_cell_angle_gamma   89.95412089
_symmetry_Int_Tables_number   1
_chemical_formula_structural   ZrScNbPdRh
_chemical_formula_sum   'Zr50 Sc50 Nb50 Pd50 Rh50'
_cell_volume   4538.02164458
_cell_formula_units_Z   50
loop_
 _symmetry_equiv_pos_site_id
 _symmetry_equiv_pos_as_xyz
  1  'x, y, z'
loop_
 _atom_site_type_symbol
 _atom_site_label
 _atom_site_symmetry_multiplicity
 _atom_site_fract_x
 _atom_site_fract_y
 _atom_site_fract_z
 _atom_site_occupancy
  Zr  Zr0  1  0.89970437  0.89943024  0.29916232  1
  Zr  Zr1  1  0.09495155  0.10167965  0.29956709  1
  Zr  Zr2  1  0.29581827  0.10321964  0.50782677  1
  Zr  Zr3  1  0.29883710  0.69422348  0.30585741  1
  Zr  Zr4  1  0.09423352  0.30016176  0.10045259  1
  Zr  Zr5  1  0.69921261  0.08943126  0.90132447  1
  Zr  Zr6  1  0.29842306  0.49712045  0.29789987  1
  Zr  Zr7  1  0.70388138  0.31394923  0.89171751  1
  Zr  Zr8  1  0.90204965  0.10223757  0.89913384  1
  Zr  Zr9  1  0.10049202  0.29740098  0.70334849  1
  Zr  Zr10  1  0.89720859  0.90369413  0.89523373  1
  Zr  Zr11  1  0.90040103  0.89952677  0.68788050  1
  Zr  Zr12  1  0.70393693  0.50655620  0.09554804  1
  Zr  Zr13  1  0.29998421  0.89842121  0.09821658  1
  Zr  Zr14  1  0.70737198  0.09436154  0.29745907  1
  Zr  Zr15  1  0.88600167  0.49859885  0.90030602  1
  Zr  Zr16  1  0.70519095  0.89953592  0.49810697  1
  Zr  Zr17  1  0.89753272  0.09960629  0.49821199  1
  Zr  Zr18  1  0.29837252  0.48848902  0.90017546  1
  Zr  Zr19  1  0.29546663  0.69201710  0.50229113  1
  Zr  Zr20  1  0.90110404  0.30421360  0.29902728  1
  Zr  Zr21  1  0.29740104  0.29888514  0.50073517  1
  Zr  Zr22  1  0.49833521  0.70296954  0.70035876  1
  Zr  Zr23  1  0.90496071  0.68849507  0.89934723  1
  Zr  Zr24  1  0.50001787  0.09371740  0.50665214  1
  Zr  Zr25  1  0.70220335  0.30311414  0.11007112  1
  Zr  Zr26  1  0.50317968  0.89829981  0.29900090  1
  Zr  Zr27  1  0.90088646  0.50780759  0.30364088  1
  Zr  Zr28  1  0.49862781  0.09550251  0.29783750  1
  Zr  Zr29  1  0.29938626  0.50181129  0.50727054  1
  Zr  Zr30  1  0.09028730  0.89848285  0.29887309  1
  Zr  Zr31  1  0.10069485  0.10785220  0.10522950  1
  Zr  Zr32  1  0.90696122  0.29875664  0.49458578  1
  Zr  Zr33  1  0.90952944  0.89370230  0.10833864  1
  Zr  Zr34  1  0.70426364  0.49709471  0.29384121  1
  Zr  Zr35  1  0.50321549  0.09921224  0.09953134  1
  Zr  Zr36  1  0.50262233  0.09640267  0.90371411  1
  Zr  Zr37  1  0.69842514  0.89696054  0.89577878  1
  Zr  Zr38  1  0.51494023  0.30508467  0.70118973  1
  Zr  Zr39  1  0.29900344  0.69691182  0.09641956  1
  Zr  Zr40  1  0.69972318  0.10332585  0.69145035  1
  Zr  Zr41  1  0.10466850  0.90141943  0.69300745  1
  Zr  Zr42  1  0.90064038  0.10085236  0.30646967  1
  Zr  Zr43  1  0.70448453  0.30071555  0.30102247  1
  Zr  Zr44  1  0.49486297  0.30193785  0.49744109  1
  Zr  Zr45  1  0.50884571  0.30025600  0.10195892  1
  Zr  Zr46  1  0.90974482  0.50093613  0.49799269  1
  Zr  Zr47  1  0.29822343  0.70604238  0.90122647  1
  Zr  Zr48  1  0.09774493  0.70248329  0.08938873  1
  Zr  Zr49  1  0.91053350  0.29926461  0.89979335  1
  Sc  Sc50  1  0.28592825  0.10507988  0.90085446  1
  Sc  Sc51  1  0.70685045  0.30061812  0.50859858  1
  Sc  Sc52  1  0.50059738  0.69945124  0.09262538  1
  Sc  Sc53  1  0.90733695  0.09925024  0.69260051  1
  Sc  Sc54  1  0.70320196  0.90014862  0.69865943  1
  Sc  Sc55  1  0.69681441  0.48742454  0.70223983  1
  Sc  Sc56  1  0.11282508  0.88585241  0.89561935  1
  Sc  Sc57  1  0.29749319  0.50362790  0.10021728  1
  Sc  Sc58  1  0.09041603  0.49792928  0.29924238  1
  Sc  Sc59  1  0.09951308  0.49519739  0.68857442  1
  Sc  Sc60  1  0.49440801  0.50397537  0.90999129  1
  Sc  Sc61  1  0.50506544  0.70065369  0.29560656  1
  Sc  Sc62  1  0.69469651  0.69662670  0.90670979  1
  Sc  Sc63  1  0.50783305  0.10118464  0.69824967  1
  Sc  Sc64  1  0.49385929  0.90155610  0.10637262  1
  Sc  Sc65  1  0.90347873  0.90092651  0.49965610  1
  Sc  Sc66  1  0.09392832  0.49826151  0.89820490  1
  Sc  Sc67  1  0.49896856  0.49730828  0.49809228  1
  Sc  Sc68  1  0.90646604  0.69548557  0.10184784  1
  Sc  Sc69  1  0.30143322  0.90113483  0.29422194  1
  Sc  Sc70  1  0.50270907  0.49913931  0.68884760  1
  Sc  Sc71  1  0.49701074  0.49912269  0.30370334  1
  Sc  Sc72  1  0.29750190  0.89877629  0.51469790  1
  Sc  Sc73  1  0.49131045  0.89805504  0.69713832  1
  Sc  Sc74  1  0.70526317  0.69901697  0.30413369  1
  Sc  Sc75  1  0.49947828  0.89316734  0.89508027  1
  Sc  Sc76  1  0.10407031  0.49685394  0.10604666  1
  Sc  Sc77  1  0.30035987  0.89689335  0.89586967  1
  Sc  Sc78  1  0.49766972  0.50673267  0.10329181  1
  Sc  Sc79  1  0.49974956  0.31050716  0.30287263  1
  Sc  Sc80  1  0.09712003  0.29635589  0.29289374  1
  Sc  Sc81  1  0.29378119  0.10705866  0.30091639  1
  Sc  Sc82  1  0.50251200  0.30784102  0.89665345  1
  Sc  Sc83  1  0.69967322  0.89337380  0.29873480  1
  Sc  Sc84  1  0.28567236  0.31042072  0.09885586  1
  Sc  Sc85  1  0.10484719  0.30164860  0.90514643  1
  Sc  Sc86  1  0.09727155  0.69867708  0.31001897  1
  Sc  Sc87  1  0.90483940  0.69369877  0.69051949  1
  Sc  Sc88  1  0.89797892  0.09589707  0.10635572  1
  Sc  Sc89  1  0.70440087  0.90264909  0.10445876  1
  Sc  Sc90  1  0.90076885  0.70210169  0.49451360  1
  Sc  Sc91  1  0.09961016  0.11829415  0.89515958  1
  Sc  Sc92  1  0.69284176  0.70068766  0.10104582  1
  Sc  Sc93  1  0.49870563  0.68431436  0.50051626  1
  Sc  Sc94  1  0.90237035  0.50032044  0.10531834  1
  Sc  Sc95  1  0.29534592  0.89957027  0.70206671  1
  Sc  Sc96  1  0.89951556  0.30485775  0.69563396  1
  Sc  Sc97  1  0.69355630  0.50383642  0.49504986  1
  Sc  Sc98  1  0.29833003  0.09880336  0.10498755  1
  Sc  Sc99  1  0.90318992  0.50047425  0.69977395  1
  Nb  Nb100  1  0.10017004  0.30253178  0.50324936  1
  Nb  Nb101  1  0.10062876  0.10571840  0.50888241  1
  Nb  Nb102  1  0.49794634  0.89962724  0.49958273  1
  Nb  Nb103  1  0.28942013  0.10092552  0.70139349  1
  Nb  Nb104  1  0.49871859  0.70013739  0.89245463  1
  Nb  Nb105  1  0.70014583  0.30101588  0.70518797  1
  Nb  Nb106  1  0.10969958  0.09756351  0.70156637  1
  Nb  Nb107  1  0.30076735  0.69320071  0.69771169  1
  Nb  Nb108  1  0.29750392  0.31023879  0.70726026  1
  Nb  Nb109  1  0.69661285  0.70070317  0.69677123  1
  Nb  Nb110  1  0.30087993  0.30310087  0.30271086  1
  Nb  Nb111  1  0.09817949  0.89958151  0.10344245  1
  Nb  Nb112  1  0.70097164  0.50477686  0.90055311  1
  Nb  Nb113  1  0.09903802  0.49455005  0.50013800  1
  Nb  Nb114  1  0.29463110  0.49976026  0.70064482  1
  Nb  Nb115  1  0.90249308  0.29893957  0.09931311  1
  Nb  Nb116  1  0.69786678  0.10551427  0.09686051  1
  Nb  Nb117  1  0.70294331  0.09856595  0.49549379  1
  Nb  Nb118  1  0.10045187  0.69560800  0.50425491  1
  Nb  Nb119  1  0.10299620  0.69807448  0.69847380  1
  Nb  Nb120  1  0.10083423  0.89589296  0.49762268  1
  Nb  Nb121  1  0.90755682  0.69761312  0.30189525  1
  Nb  Nb122  1  0.10310401  0.69884886  0.89322404  1
  Nb  Nb123  1  0.70137923  0.69939096  0.50448656  1
  Nb  Nb124  1  0.29844448  0.30148264  0.89847275  1
  Nb  Nb125  1  0.40174033  0.80315931  0.40560754  1
  Nb  Nb126  1  0.60772170  0.40541995  0.00129073  1
  Nb  Nb127  1  0.00102109  0.79648316  0.79625221  1
  Nb  Nb128  1  0.80378871  0.79195607  0.79963495  1
  Nb  Nb129  1  0.00937530  -0.00366412  0.80005627  1
  Nb  Nb130  1  0.80489434  0.79997716  -0.00532041  1
  Nb  Nb131  1  0.79403340  0.60234450  0.59644026  1
  Nb  Nb132  1  0.19618761  0.79818870  0.19662846  1
  Nb  Nb133  1  0.60490522  0.19399569  0.40281566  1
  Nb  Nb134  1  0.39572356  0.60042449  0.79692665  1
  Nb  Nb135  1  0.19609515  -0.00052945  0.40740304  1
  Nb  Nb136  1  0.39740789  0.20505330  -0.00149110  1
  Nb  Nb137  1  0.39682549  -0.00439910  0.40572985  1
  Nb  Nb138  1  0.59646509  0.60217339  0.80186267  1
  Nb  Nb139  1  0.60043417  0.79668801  0.59358889  1
  Nb  Nb140  1  0.39361420  0.20393463  0.61368525  1
  Nb  Nb141  1  0.79592898  0.20238011  0.80068410  1
  Nb  Nb142  1  0.39897050  0.20735445  0.19817039  1
  Nb  Nb143  1  0.18973843  -0.00210377  0.00317984  1
  Nb  Nb144  1  0.00872587  -0.00304772  -0.00313497  1
  Nb  Nb145  1  0.79562519  0.20081394  -0.00023708  1
  Nb  Nb146  1  0.39361423  0.01330337  0.79630087  1
  Nb  Nb147  1  0.19793234  0.39661995  0.40390128  1
  Nb  Nb148  1  0.20223644  0.60100970  0.79490719  1
  Nb  Nb149  1  0.39444085  0.20354388  0.79915807  1
  Pd  Pd150  1  0.40348511  0.60384920  0.20094621  1
  Pd  Pd151  1  0.60350970  0.20976673  -0.00988002  1
  Pd  Pd152  1  0.40632457  0.79999813  -0.00192318  1
  Pd  Pd153  1  0.20001114  -0.00484398  0.20325548  1
  Pd  Pd154  1  0.80610747  0.79807811  0.39893137  1
  Pd  Pd155  1  0.60345636  -0.01137882  0.60355378  1
  Pd  Pd156  1  0.39627312  0.79192978  0.20536907  1
  Pd  Pd157  1  0.59976365  0.00184587  0.39953285  1
  Pd  Pd158  1  0.80572089  0.00419956  0.78630626  1
  Pd  Pd159  1  0.80378829  0.20131021  0.60323745  1
  Pd  Pd160  1  0.19784438  0.59179533  -0.00900097  1
  Pd  Pd161  1  0.79007600  0.60168539  0.78986109  1
  Pd  Pd162  1  0.39859035  0.39703355  0.19360251  1
  Pd  Pd163  1  0.60554312  -0.00360437  0.19566990  1
  Pd  Pd164  1  0.80032495  0.79116707  0.19459033  1
  Pd  Pd165  1  0.59835624  -0.01295539  0.00758408  1
  Pd  Pd166  1  0.38846865  0.00669707  -0.00944363  1
  Pd  Pd167  1  0.59814374  0.20618536  0.59129310  1
  Pd  Pd168  1  0.40873693  0.40467892  0.79562816  1
  Pd  Pd169  1  0.00071679  0.40378584  0.79808533  1
  Pd  Pd170  1  0.80597961  -0.00245013  0.01047004  1
  Pd  Pd171  1  0.79934357  0.40430232  0.40635364  1
  Pd  Pd172  1  0.19007898  0.60585545  0.20269368  1
  Pd  Pd173  1  -0.00192143  0.80489923  -0.01091374  1
  Pd  Pd174  1  0.80526485  0.19786195  0.19620268  1
  Pd  Pd175  1  0.20678756  0.80834898  0.39592732  1
  Pd  Pd176  1  0.79934676  0.40940790  0.59742876  1
  Pd  Pd177  1  0.00161948  0.20065734  0.60350096  1
  Pd  Pd178  1  0.59123459  -0.00746107  0.79047723  1
  Pd  Pd179  1  0.00276770  0.79421426  0.59722506  1
  Pd  Pd180  1  0.00842509  0.59733903  0.79292610  1
  Pd  Pd181  1  0.40057523  0.39711309  0.60339552  1
  Pd  Pd182  1  0.40280677  0.79409907  0.59419984  1
  Pd  Pd183  1  0.00222832  0.58909858  0.00232152  1
  Pd  Pd184  1  0.60095995  0.60182341  0.39443762  1
  Pd  Pd185  1  0.40631678  0.19411416  0.39753556  1
  Pd  Pd186  1  0.80179387  0.60791442  0.19757316  1
  Pd  Pd187  1  0.19188323  0.58763025  0.39944833  1
  Pd  Pd188  1  0.20161922  0.79490791  0.60207312  1
  Pd  Pd189  1  0.00512926  0.00227422  0.41081287  1
  Pd  Pd190  1  0.00138102  0.40787035  0.00372810  1
  Pd  Pd191  1  0.19104286  0.20192369  0.39754588  1
  Pd  Pd192  1  0.80006177  0.39576527  0.00655602  1
  Pd  Pd193  1  0.59407484  0.79107256  0.40675835  1
  Pd  Pd194  1  0.60279328  0.19859846  0.80713670  1
  Pd  Pd195  1  0.60033161  0.80521126  0.00500705  1
  Pd  Pd196  1  0.60473300  0.39437657  0.40370327  1
  Pd  Pd197  1  0.40391820  0.39530888  0.00919156  1
  Pd  Pd198  1  0.59578977  0.20047879  0.21260968  1
  Pd  Pd199  1  0.59833460  0.59979351  0.20310559  1
  Rh  Rh200  1  -0.00288337  0.79637644  0.40356940  1
  Rh  Rh201  1  0.20152320  0.20956029  0.60906355  1
  Rh  Rh202  1  0.59713592  0.59623369  -0.00634295  1
  Rh  Rh203  1  0.00926464  0.39323989  0.39751871  1
  Rh  Rh204  1  0.20056600  0.79143809  0.78961749  1
  Rh  Rh205  1  0.39723181  0.00801561  0.60662819  1
  Rh  Rh206  1  0.80099956  -0.00669594  0.39901633  1
  Rh  Rh207  1  -0.00847294  0.19338733  0.00947336  1
  Rh  Rh208  1  0.19694485  0.39879445  0.21036451  1
  Rh  Rh209  1  0.00335453  0.60296407  0.20196610  1
  Rh  Rh210  1  -0.00035600  0.39680596  0.60002989  1
  Rh  Rh211  1  0.00017031  0.60063402  0.59461690  1
  Rh  Rh212  1  0.39258852  0.80184053  0.79806781  1
  Rh  Rh213  1  -0.00261027  0.00596894  0.19672102  1
  Rh  Rh214  1  0.19237598  0.59897255  0.60223980  1
  Rh  Rh215  1  0.60648393  0.60117096  0.60602371  1
  Rh  Rh216  1  0.19967981  0.80412779  0.00680845  1
  Rh  Rh217  1  0.80818467  0.39831012  0.79348914  1
  Rh  Rh218  1  0.39603507  0.60456984  -0.00575241  1
  Rh  Rh219  1  0.80144128  0.60106158  0.40448922  1
  Rh  Rh220  1  0.39976847  0.59534637  0.60494122  1
  Rh  Rh221  1  0.79864086  0.00361745  0.59587769  1
  Rh  Rh222  1  0.20475142  0.19934978  0.00576423  1
  Rh  Rh223  1  0.60067819  0.80031187  0.19662834  1
  Rh  Rh224  1  0.20735674  0.20916928  0.20027255  1
  Rh  Rh225  1  0.80166986  0.60943257  0.00559921  1
  Rh  Rh226  1  -0.00430443  0.19481954  0.78982897  1
  Rh  Rh227  1  0.39310341  0.00966454  0.20750720  1
  Rh  Rh228  1  0.60620387  0.79644693  0.79216446  1
  Rh  Rh229  1  0.19421226  0.40275454  -0.00164152  1
  Rh  Rh230  1  0.00932410  0.00301883  0.59832170  1
  Rh  Rh231  1  0.00731286  0.78776642  0.20593084  1
  Rh  Rh232  1  0.40248665  0.60180114  0.39741602  1
  Rh  Rh233  1  0.79416022  0.79288409  0.60404912  1
  Rh  Rh234  1  -0.00505294  0.39991736  0.19934517  1
  Rh  Rh235  1  0.19210099  0.40452305  0.80193295  1
  Rh  Rh236  1  0.60532059  0.39780032  0.59305680  1
  Rh  Rh237  1  0.00403629  0.60432760  0.40586285  1
  Rh  Rh238  1  0.19426628  -0.00058930  0.59326974  1
  Rh  Rh239  1  0.80758792  0.40458174  0.19999001  1
  Rh  Rh240  1  0.19835421  0.00200257  0.80927759  1
  Rh  Rh241  1  -0.00874034  0.19963715  0.19961272  1
  Rh  Rh242  1  0.59954291  0.41096503  0.19588620  1
  Rh  Rh243  1  0.00497587  0.20193284  0.40128733  1
  Rh  Rh244  1  0.20297326  0.20926590  0.79689653  1
  Rh  Rh245  1  0.79482392  0.20137691  0.40295469  1
  Rh  Rh246  1  0.38989323  0.40771827  0.40212028  1
  Rh  Rh247  1  0.79974719  -0.00069692  0.20014646  1
  Rh  Rh248  1  0.59272455  0.41735436  0.80904447  1
  Rh  Rh249  1  0.19849607  0.39569787  0.59732982  1
