# generated using pymatgen
data_ZrScNbPdRh
_symmetry_space_group_name_H-M   'P 1'
_cell_length_a   16.55720583
_cell_length_b   16.56426388
_cell_length_c   16.56325181
_cell_angle_alpha   90.00109711
_cell_angle_beta   90.03211015
_cell_angle_gamma   90.01045224
_symmetry_Int_Tables_number   1
_chemical_formula_structural   ZrScNbPdRh
_chemical_formula_sum   'Zr50 Sc50 Nb50 Pd50 Rh50'
_cell_volume   4542.60230781
_cell_formula_units_Z   50
loop_
 _symmetry_equiv_pos_site_id
 _symmetry_equiv_pos_as_xyz
  1  'x, y, z'
loop_
 _atom_site_type_symbol
 _atom_site_label
 _atom_site_symmetry_multiplicity
 _atom_site_fract_x
 _atom_site_fract_y
 _atom_site_fract_z
 _atom_site_occupancy
  Zr  Zr0  1  0.90437001  0.09662760  0.30172239  1
  Zr  Zr1  1  0.09210050  0.88982738  0.49778718  1
  Zr  Zr2  1  0.29601265  0.90002302  0.29655422  1
  Zr  Zr3  1  0.30362124  0.48964244  0.71079871  1
  Zr  Zr4  1  0.30253452  0.69593353  0.10539322  1
  Zr  Zr5  1  0.69342483  0.29585664  0.51252361  1
  Zr  Zr6  1  0.91083282  0.29668092  0.50404858  1
  Zr  Zr7  1  0.30362514  0.29155755  0.49866779  1
  Zr  Zr8  1  0.49735605  0.90314913  0.50030872  1
  Zr  Zr9  1  0.90549018  0.90165336  0.69746203  1
  Zr  Zr10  1  0.89569866  0.30248005  0.10075974  1
  Zr  Zr11  1  0.69261156  0.50340040  0.49757544  1
  Zr  Zr12  1  0.29523339  0.90200041  0.49971939  1
  Zr  Zr13  1  0.89639608  0.90559641  0.10158732  1
  Zr  Zr14  1  0.89996818  0.09758940  0.70068234  1
  Zr  Zr15  1  0.70100482  0.09255636  0.29852442  1
  Zr  Zr16  1  0.70116740  0.50508418  0.71039851  1
  Zr  Zr17  1  0.10122985  0.69651235  0.09197521  1
  Zr  Zr18  1  0.50492675  0.30240661  0.49741513  1
  Zr  Zr19  1  0.09794045  0.69940661  0.89732010  1
  Zr  Zr20  1  0.50640625  0.29754855  0.90003238  1
  Zr  Zr21  1  0.50076867  0.89437442  0.10151723  1
  Zr  Zr22  1  0.89532611  0.90023194  0.30944738  1
  Zr  Zr23  1  0.29939472  0.10127637  0.70141190  1
  Zr  Zr24  1  0.10016655  0.08909355  0.10244618  1
  Zr  Zr25  1  0.29866915  0.09994043  0.50590424  1
  Zr  Zr26  1  0.10022629  0.50073922  0.49516163  1
  Zr  Zr27  1  0.49685574  0.30561187  0.30163756  1
  Zr  Zr28  1  0.69362290  0.10252310  0.49897127  1
  Zr  Zr29  1  0.69093932  0.69923841  0.09610136  1
  Zr  Zr30  1  0.49712194  0.50020322  0.30628393  1
  Zr  Zr31  1  0.69709340  0.90867655  0.70198313  1
  Zr  Zr32  1  0.69721452  0.50288765  0.30222956  1
  Zr  Zr33  1  0.48691738  0.70089871  0.28576728  1
  Zr  Zr34  1  0.28937793  0.10857071  0.29848259  1
  Zr  Zr35  1  0.70468093  0.10847715  0.69292306  1
  Zr  Zr36  1  0.49852799  0.70648955  0.09791833  1
  Zr  Zr37  1  0.49763405  0.89045127  0.69618253  1
  Zr  Zr38  1  0.10260188  0.70169597  0.49486387  1
  Zr  Zr39  1  0.89748463  0.49871564  0.29498548  1
  Zr  Zr40  1  0.30206044  0.30277257  0.89913034  1
  Zr  Zr41  1  0.69588060  0.90309249  0.50341111  1
  Zr  Zr42  1  0.50082357  0.30272884  0.09264155  1
  Zr  Zr43  1  0.49507712  0.50028503  0.49437314  1
  Zr  Zr44  1  0.49342968  0.69774078  0.90452410  1
  Zr  Zr45  1  0.90796254  0.69380887  0.90490131  1
  Zr  Zr46  1  0.09725515  0.30459593  0.90527489  1
  Zr  Zr47  1  0.69715198  0.69657551  0.69868969  1
  Zr  Zr48  1  0.09969014  0.90628333  0.09705172  1
  Zr  Zr49  1  0.70038937  0.29295928  0.28910818  1
  Sc  Sc50  1  0.10179846  0.49885358  0.29866475  1
  Sc  Sc51  1  0.70563518  0.09750508  0.10513737  1
  Sc  Sc52  1  0.30394299  0.10141199  0.89541304  1
  Sc  Sc53  1  0.70123192  0.69709724  0.49576725  1
  Sc  Sc54  1  0.70309098  0.68679186  0.89561942  1
  Sc  Sc55  1  0.50065785  0.10110588  0.08958240  1
  Sc  Sc56  1  0.89902793  0.09435978  0.09958468  1
  Sc  Sc57  1  0.10383408  0.09469620  0.91086214  1
  Sc  Sc58  1  0.10344597  0.89764721  0.89975520  1
  Sc  Sc59  1  0.09232075  0.11613986  0.49409780  1
  Sc  Sc60  1  0.89056074  0.70580724  0.30837191  1
  Sc  Sc61  1  0.29911731  0.90468800  0.69898772  1
  Sc  Sc62  1  0.69457944  0.90363598  0.10926666  1
  Sc  Sc63  1  0.90000703  0.49593754  0.90006283  1
  Sc  Sc64  1  0.29554413  0.90028378  0.09474500  1
  Sc  Sc65  1  0.50341825  0.50928746  0.70370662  1
  Sc  Sc66  1  0.10231341  0.09481334  0.70275569  1
  Sc  Sc67  1  0.89615907  0.08645688  0.90595596  1
  Sc  Sc68  1  0.09408413  0.49681964  0.90023967  1
  Sc  Sc69  1  0.10363532  0.49581434  0.09656888  1
  Sc  Sc70  1  0.69552978  0.09532156  0.89079217  1
  Sc  Sc71  1  0.29538109  0.69237534  0.48965045  1
  Sc  Sc72  1  0.49981957  0.09814730  0.70963162  1
  Sc  Sc73  1  0.90108863  0.89922983  0.89284702  1
  Sc  Sc74  1  0.29400357  0.09948482  0.08689347  1
  Sc  Sc75  1  0.90213753  0.49219647  0.09356747  1
  Sc  Sc76  1  0.50926168  0.50843236  0.10357940  1
  Sc  Sc77  1  0.29987907  0.29262355  0.71056427  1
  Sc  Sc78  1  0.69754743  0.49769108  0.90519647  1
  Sc  Sc79  1  0.70369551  0.90731149  0.90073368  1
  Sc  Sc80  1  0.49836952  0.90257742  0.90442631  1
  Sc  Sc81  1  0.09912035  0.89182425  0.69652030  1
  Sc  Sc82  1  0.69630443  0.30869506  0.09639906  1
  Sc  Sc83  1  0.31032452  0.70965176  0.70500789  1
  Sc  Sc84  1  0.49688112  0.10242999  0.90146346  1
  Sc  Sc85  1  0.89499087  0.29887969  0.70540765  1
  Sc  Sc86  1  0.89907667  0.30188407  0.29069552  1
  Sc  Sc87  1  0.70239863  0.70495541  0.30278925  1
  Sc  Sc88  1  0.09754100  0.30631835  0.70787370  1
  Sc  Sc89  1  0.90744386  0.49946409  0.49098765  1
  Sc  Sc90  1  0.90489884  0.70502014  0.49221801  1
  Sc  Sc91  1  0.49919178  0.69548192  0.51285051  1
  Sc  Sc92  1  0.90263614  0.70302355  0.71816119  1
  Sc  Sc93  1  0.30612192  0.50493323  0.29987601  1
  Sc  Sc94  1  0.09538583  0.90535090  0.29718025  1
  Sc  Sc95  1  0.49956641  0.10672052  0.49782958  1
  Sc  Sc96  1  0.50854036  0.10308420  0.30332524  1
  Sc  Sc97  1  0.50321095  0.90661397  0.29210401  1
  Sc  Sc98  1  0.90448648  0.09842321  0.50432958  1
  Sc  Sc99  1  0.10805282  0.30733585  0.09675194  1
  Nb  Nb100  1  0.49395969  0.49920619  0.90061860  1
  Nb  Nb101  1  0.10119932  0.30464377  0.49537519  1
  Nb  Nb102  1  0.90545074  0.89057949  0.49897406  1
  Nb  Nb103  1  0.70575703  0.30281462  0.89473511  1
  Nb  Nb104  1  0.29677361  0.30375225  0.29336780  1
  Nb  Nb105  1  0.30302959  0.88610932  0.89430806  1
  Nb  Nb106  1  0.69660121  0.90278865  0.30440329  1
  Nb  Nb107  1  0.30107588  0.49810901  0.50066658  1
  Nb  Nb108  1  0.29382824  0.49127405  0.09793184  1
  Nb  Nb109  1  0.50785227  0.70334797  0.70077418  1
  Nb  Nb110  1  0.50638185  0.30399857  0.70038787  1
  Nb  Nb111  1  0.90646764  0.50051547  0.70120257  1
  Nb  Nb112  1  0.09914269  0.69387609  0.70024671  1
  Nb  Nb113  1  0.10044455  0.50013368  0.70478871  1
  Nb  Nb114  1  0.29596454  0.70161668  0.29783383  1
  Nb  Nb115  1  0.30076730  0.69817120  0.90355854  1
  Nb  Nb116  1  0.69851415  0.30089149  0.70271747  1
  Nb  Nb117  1  0.30766535  0.50051828  0.89816549  1
  Nb  Nb118  1  0.30011312  0.31019288  0.10102714  1
  Nb  Nb119  1  0.90027072  0.30037227  0.90443473  1
  Nb  Nb120  1  0.90119027  0.70064195  0.09945255  1
  Nb  Nb121  1  0.70205349  0.50142692  0.09769771  1
  Nb  Nb122  1  0.11088168  0.28632612  0.30429483  1
  Nb  Nb123  1  0.09818260  0.10108334  0.30038269  1
  Nb  Nb124  1  0.11269226  0.70151244  0.29962956  1
  Nb  Nb125  1  0.59703956  0.79676420  0.79801006  1
  Nb  Nb126  1  0.19516679  0.00515057  0.40075372  1
  Nb  Nb127  1  -0.00080797  0.79361489  0.19851706  1
  Nb  Nb128  1  0.81037504  0.59799639  0.60284135  1
  Nb  Nb129  1  -0.00221083  0.61002655  0.19839046  1
  Nb  Nb130  1  0.79962610  0.20297100  0.40124641  1
  Nb  Nb131  1  0.20121415  0.40167356  0.59574748  1
  Nb  Nb132  1  0.20311315  0.39224608  0.40091726  1
  Nb  Nb133  1  0.00912913  0.19821766  0.20093706  1
  Nb  Nb134  1  0.19852933  0.59413259  0.60830449  1
  Nb  Nb135  1  0.80371547  0.79940876  0.60100228  1
  Nb  Nb136  1  0.39940174  0.79924062  0.39493318  1
  Nb  Nb137  1  0.20510676  0.60014515  0.80164407  1
  Nb  Nb138  1  0.79922738  0.40451543  0.60172854  1
  Nb  Nb139  1  0.79862065  0.20641284  -0.00728461  1
  Nb  Nb140  1  0.80166694  0.79615549  0.00373911  1
  Nb  Nb141  1  0.80150037  0.60111657  0.19188107  1
  Nb  Nb142  1  0.00224309  0.59979581  0.60718510  1
  Nb  Nb143  1  0.39882308  0.40575906  -0.00117927  1
  Nb  Nb144  1  0.39614173  0.00912978  0.19753369  1
  Nb  Nb145  1  0.39390572  0.20458203  0.19529690  1
  Nb  Nb146  1  -0.00557009  0.19983723  0.81144984  1
  Nb  Nb147  1  0.79585036  0.39300695  0.40466399  1
  Nb  Nb148  1  0.39927098  0.39820062  0.60076950  1
  Nb  Nb149  1  0.59234761  0.80486097  0.39913674  1
  Pd  Pd150  1  -0.00003976  0.60870862  0.39127674  1
  Pd  Pd151  1  0.61013379  0.80166652  -0.01366938  1
  Pd  Pd152  1  0.20397107  0.80012810  0.00048919  1
  Pd  Pd153  1  0.59132164  0.19599682  0.19179689  1
  Pd  Pd154  1  0.59755381  0.40965746  0.60765972  1
  Pd  Pd155  1  0.79181396  0.80077800  0.80502057  1
  Pd  Pd156  1  0.40051780  0.19819921  0.39073823  1
  Pd  Pd157  1  0.59774851  0.40437375  0.80407601  1
  Pd  Pd158  1  0.80551955  0.19350690  0.80777238  1
  Pd  Pd159  1  0.20197815  0.20227355  0.00067794  1
  Pd  Pd160  1  0.58964379  0.01038710  0.60239812  1
  Pd  Pd161  1  0.00784489  0.00202451  0.59315628  1
  Pd  Pd162  1  0.20662130  0.79034808  0.60200258  1
  Pd  Pd163  1  0.58906277  0.61718353  0.39625886  1
  Pd  Pd164  1  0.60454064  0.60494314  0.20528458  1
  Pd  Pd165  1  0.40331318  0.40490647  0.19260983  1
  Pd  Pd166  1  0.80445171  0.40406502  0.79827002  1
  Pd  Pd167  1  0.39323344  0.59658190  0.60662757  1
  Pd  Pd168  1  0.79868571  0.79822395  0.19604196  1
  Pd  Pd169  1  0.00232347  0.39119990  0.38603943  1
  Pd  Pd170  1  0.39487861  -0.00481933  0.00069420  1
  Pd  Pd171  1  0.18990214  0.20800795  0.60569643  1
  Pd  Pd172  1  0.00744906  0.20307980  0.61547101  1
  Pd  Pd173  1  0.19917522  0.79545265  0.79528561  1
  Pd  Pd174  1  0.39923409  -0.00555252  0.80281232  1
  Pd  Pd175  1  0.39610661  0.00084832  0.39090222  1
  Pd  Pd176  1  0.80292831  0.00468180  0.40904153  1
  Pd  Pd177  1  0.18701018  0.00211746  0.59227853  1
  Pd  Pd178  1  0.19367384  0.80427552  0.19496007  1
  Pd  Pd179  1  0.59982514  0.19922972  0.79764658  1
  Pd  Pd180  1  -0.00691633  0.19586960  0.00480968  1
  Pd  Pd181  1  0.19914056  0.20032343  0.18462361  1
  Pd  Pd182  1  0.39946232  0.60702766  0.79486735  1
  Pd  Pd183  1  0.60066629  0.40332928  0.19936774  1
  Pd  Pd184  1  0.40852974  0.20459393  0.60981644  1
  Pd  Pd185  1  0.60389839  0.00237940  0.00139209  1
  Pd  Pd186  1  0.39063988  0.79485161  0.59009667  1
  Pd  Pd187  1  0.01203159  0.39508495  0.20184011  1
  Pd  Pd188  1  0.19861695  0.59085866  0.20086016  1
  Pd  Pd189  1  0.18811944  0.19603848  0.80495983  1
  Pd  Pd190  1  0.40005939  0.59276509  0.01072798  1
  Pd  Pd191  1  0.80643714  -0.00524435  0.59288169  1
  Pd  Pd192  1  0.00698545  0.00341995  0.80590304  1
  Pd  Pd193  1  0.61414595  0.19480115  -0.00022018  1
  Pd  Pd194  1  0.40534270  0.00459916  0.60518342  1
  Pd  Pd195  1  0.20040554  0.59230307  -0.00941774  1
  Pd  Pd196  1  0.20140327  -0.00379985  0.80375990  1
  Pd  Pd197  1  -0.00614444  0.80867798  0.00142058  1
  Pd  Pd198  1  0.80214707  0.60044054  0.00262105  1
  Pd  Pd199  1  0.00088545  0.40297736  0.60485936  1
  Rh  Rh200  1  0.39380324  0.81053463  0.19967117  1
  Rh  Rh201  1  0.20319670  0.19838209  0.40685653  1
  Rh  Rh202  1  0.81289196  0.19288728  0.19769882  1
  Rh  Rh203  1  0.60941105  0.79544978  0.59916449  1
  Rh  Rh204  1  0.19783141  0.40373689  0.21059606  1
  Rh  Rh205  1  -0.00094830  0.40151402  0.00057422  1
  Rh  Rh206  1  0.20984014  -0.00833274  -0.01456868  1
  Rh  Rh207  1  0.00148136  0.59069242  0.00645008  1
  Rh  Rh208  1  0.59687043  0.40680438  -0.00536147  1
  Rh  Rh209  1  -0.00366926  -0.00161932  0.20312037  1
  Rh  Rh210  1  0.80848062  0.59350535  0.80049340  1
  Rh  Rh211  1  0.39359936  0.21118851  0.00319475  1
  Rh  Rh212  1  0.79997617  0.00399880  0.79621300  1
  Rh  Rh213  1  0.41175761  0.39290040  0.80125845  1
  Rh  Rh214  1  0.59257736  0.00439317  0.19595319  1
  Rh  Rh215  1  -0.00077113  -0.00582628  -0.00456551  1
  Rh  Rh216  1  0.20396033  0.59157299  0.39765495  1
  Rh  Rh217  1  0.78776608  0.80717691  0.41063260  1
  Rh  Rh218  1  0.39395693  0.59177888  0.19462560  1
  Rh  Rh219  1  0.19577546  0.40460608  0.80385685  1
  Rh  Rh220  1  0.60894274  0.39162386  0.39259997  1
  Rh  Rh221  1  0.79951343  -0.00357549  0.20475519  1
  Rh  Rh222  1  0.00673796  0.79686524  0.38486362  1
  Rh  Rh223  1  0.79504529  -0.00303020  0.00131714  1
  Rh  Rh224  1  0.20666402  0.40525187  -0.00988571  1
  Rh  Rh225  1  0.20431467  0.00157790  0.20435778  1
  Rh  Rh226  1  0.00596433  -0.00159318  0.40714134  1
  Rh  Rh227  1  0.00388724  0.59563936  0.80072266  1
  Rh  Rh228  1  0.40640148  0.20287931  0.79916540  1
  Rh  Rh229  1  0.59655332  -0.00478806  0.40106236  1
  Rh  Rh230  1  0.60755491  0.20496934  0.39709865  1
  Rh  Rh231  1  0.40739035  0.79941774  0.80457083  1
  Rh  Rh232  1  0.60539643  0.80088147  0.20984418  1
  Rh  Rh233  1  0.80383136  0.20859650  0.59668533  1
  Rh  Rh234  1  0.59247660  -0.00866942  0.80154918  1
  Rh  Rh235  1  0.79113419  0.41151639  0.20132478  1
  Rh  Rh236  1  0.59592118  0.59513413  -0.00414380  1
  Rh  Rh237  1  0.39967379  0.60938884  0.39725942  1
  Rh  Rh238  1  0.59179168  0.19599723  0.60958437  1
  Rh  Rh239  1  -0.00909618  0.20709272  0.38954612  1
  Rh  Rh240  1  0.59043034  0.60383059  0.81037353  1
  Rh  Rh241  1  0.39181248  0.80131283  0.00122569  1
  Rh  Rh242  1  0.79509060  0.39511686  -0.00163603  1
  Rh  Rh243  1  0.80440748  0.59054335  0.40044306  1
  Rh  Rh244  1  -0.01061077  0.78729067  0.60776371  1
  Rh  Rh245  1  0.00746026  0.80269500  0.79944692  1
  Rh  Rh246  1  0.20337094  0.80783480  0.39681043  1
  Rh  Rh247  1  0.39105963  0.39639245  0.40563075  1
  Rh  Rh248  1  0.60396684  0.59709491  0.60034572  1
  Rh  Rh249  1  -0.00442644  0.39362874  0.80247012  1
