# generated using pymatgen
data_ZrScNbPdRh
_symmetry_space_group_name_H-M   'P 1'
_cell_length_a   16.55204120
_cell_length_b   16.55499671
_cell_length_c   16.55538201
_cell_angle_alpha   89.96874497
_cell_angle_beta   90.02102652
_cell_angle_gamma   89.99899448
_symmetry_Int_Tables_number   1
_chemical_formula_structural   ZrScNbPdRh
_chemical_formula_sum   'Zr50 Sc50 Nb50 Pd50 Rh50'
_cell_volume   4536.48803623
_cell_formula_units_Z   50
loop_
 _symmetry_equiv_pos_site_id
 _symmetry_equiv_pos_as_xyz
  1  'x, y, z'
loop_
 _atom_site_type_symbol
 _atom_site_label
 _atom_site_symmetry_multiplicity
 _atom_site_fract_x
 _atom_site_fract_y
 _atom_site_fract_z
 _atom_site_occupancy
  Zr  Zr0  1  0.50272463  0.09895157  0.09983607  1
  Zr  Zr1  1  0.89116566  0.09851978  0.70341252  1
  Zr  Zr2  1  0.69836387  0.70359810  0.29772595  1
  Zr  Zr3  1  0.29529644  0.69589422  0.90273242  1
  Zr  Zr4  1  0.69934941  0.89549399  0.31017252  1
  Zr  Zr5  1  0.89533187  0.49667944  0.09772045  1
  Zr  Zr6  1  0.30333216  0.90112166  0.49571698  1
  Zr  Zr7  1  0.70294398  0.10069215  0.89864838  1
  Zr  Zr8  1  0.69620651  0.70635736  0.49965962  1
  Zr  Zr9  1  0.69716803  0.89912845  0.89338068  1
  Zr  Zr10  1  0.89966651  0.30283285  0.90522715  1
  Zr  Zr11  1  0.29311810  0.50010078  0.69233645  1
  Zr  Zr12  1  0.89261688  0.30143545  0.30082010  1
  Zr  Zr13  1  0.70024175  0.09639278  0.70071226  1
  Zr  Zr14  1  0.70698936  0.90084807  0.69139030  1
  Zr  Zr15  1  0.30188165  0.10666111  0.88254492  1
  Zr  Zr16  1  0.29314360  0.30192508  0.10476526  1
  Zr  Zr17  1  0.09889249  0.50077232  0.89397930  1
  Zr  Zr18  1  0.50172682  0.30404818  0.09417269  1
  Zr  Zr19  1  0.49363503  0.69454253  0.30889805  1
  Zr  Zr20  1  0.90266444  0.29957373  0.10161713  1
  Zr  Zr21  1  0.09691576  0.90159718  0.09279563  1
  Zr  Zr22  1  0.90174781  0.09551086  0.30380639  1
  Zr  Zr23  1  0.90273897  0.90033540  0.09586918  1
  Zr  Zr24  1  0.10218219  0.30228121  0.29090020  1
  Zr  Zr25  1  0.29992278  0.50015909  0.89833900  1
  Zr  Zr26  1  0.29947818  0.70408840  0.30968910  1
  Zr  Zr27  1  0.49114833  0.30651289  0.49478772  1
  Zr  Zr28  1  0.09698064  0.29544037  0.10046238  1
  Zr  Zr29  1  0.09811684  0.89072957  0.89537080  1
  Zr  Zr30  1  0.09709049  0.29943506  0.90420216  1
  Zr  Zr31  1  0.70465730  0.50428550  0.09853649  1
  Zr  Zr32  1  0.89735463  0.49930039  0.70672446  1
  Zr  Zr33  1  0.69909342  0.30210095  0.90048826  1
  Zr  Zr34  1  0.29235663  0.90387461  0.69345967  1
  Zr  Zr35  1  0.49958154  0.50213438  0.68763887  1
  Zr  Zr36  1  0.10118179  0.10462309  0.89993366  1
  Zr  Zr37  1  0.89915022  0.49695220  0.90202115  1
  Zr  Zr38  1  0.10538649  0.70210651  0.09285260  1
  Zr  Zr39  1  0.70176751  0.50120867  0.69434427  1
  Zr  Zr40  1  0.70635011  0.29857446  0.70305691  1
  Zr  Zr41  1  0.71497635  0.31132450  0.49438793  1
  Zr  Zr42  1  0.10197378  0.69384770  0.31646214  1
  Zr  Zr43  1  0.30481000  0.09889798  0.10280740  1
  Zr  Zr44  1  0.30548514  0.50016285  0.09632811  1
  Zr  Zr45  1  0.90974100  0.70256547  0.49719870  1
  Zr  Zr46  1  0.89825709  0.30070119  0.68807873  1
  Zr  Zr47  1  0.49888715  0.09205460  0.50130307  1
  Zr  Zr48  1  0.50074433  0.09500705  0.90015735  1
  Zr  Zr49  1  0.90671879  0.90143110  0.30827677  1
  Sc  Sc50  1  0.49212234  0.09917936  0.70231745  1
  Sc  Sc51  1  0.49927594  0.29671559  0.90044555  1
  Sc  Sc52  1  0.11339523  0.09759530  0.70273743  1
  Sc  Sc53  1  0.70751884  0.69846346  0.09797442  1
  Sc  Sc54  1  0.09860034  0.89751282  0.49458485  1
  Sc  Sc55  1  0.10883966  0.09888097  0.50397149  1
  Sc  Sc56  1  0.30157902  0.51688782  0.30061213  1
  Sc  Sc57  1  0.69907879  0.70472032  0.90326448  1
  Sc  Sc58  1  0.49692025  0.89043534  0.70369897  1
  Sc  Sc59  1  0.89954875  0.49947058  0.50797654  1
  Sc  Sc60  1  0.49681826  0.50577446  0.09173225  1
  Sc  Sc61  1  0.89914660  0.89840917  0.89220999  1
  Sc  Sc62  1  0.30631370  0.68857669  0.09994833  1
  Sc  Sc63  1  0.09986004  0.29991808  0.69122014  1
  Sc  Sc64  1  0.89724405  0.70777368  0.69778636  1
  Sc  Sc65  1  0.70366683  0.29170588  0.10267467  1
  Sc  Sc66  1  0.29798990  0.29366068  0.30711527  1
  Sc  Sc67  1  0.70154462  0.70461776  0.69263753  1
  Sc  Sc68  1  0.49653775  0.71331752  0.89957119  1
  Sc  Sc69  1  0.69915809  0.88638184  0.09630500  1
  Sc  Sc70  1  0.49784554  0.90593846  0.30913670  1
  Sc  Sc71  1  0.50088527  0.29849118  0.70408624  1
  Sc  Sc72  1  0.50549660  0.90264242  0.49854498  1
  Sc  Sc73  1  0.70333064  0.07935736  0.50537210  1
  Sc  Sc74  1  0.50032980  0.09579251  0.30421058  1
  Sc  Sc75  1  0.29491012  0.70232753  0.49887576  1
  Sc  Sc76  1  0.50263586  0.49061798  0.90904111  1
  Sc  Sc77  1  0.50380985  0.70172020  0.09562528  1
  Sc  Sc78  1  0.09959780  0.50258364  0.69871233  1
  Sc  Sc79  1  0.09836475  0.70631605  0.69474594  1
  Sc  Sc80  1  0.90005782  0.09328708  0.50121443  1
  Sc  Sc81  1  0.09673953  0.51471307  0.50527970  1
  Sc  Sc82  1  0.70566206  0.10746635  0.30329820  1
  Sc  Sc83  1  0.70744200  0.30293047  0.30139237  1
  Sc  Sc84  1  0.89149783  0.09799729  0.90487777  1
  Sc  Sc85  1  0.49844390  0.50641339  0.49041815  1
  Sc  Sc86  1  0.30972959  0.90609561  0.10026025  1
  Sc  Sc87  1  0.89704249  0.70057662  0.30399136  1
  Sc  Sc88  1  0.70496031  0.49659784  0.90186285  1
  Sc  Sc89  1  0.30609698  0.89229503  0.89167743  1
  Sc  Sc90  1  0.89809718  0.69972247  0.89225865  1
  Sc  Sc91  1  0.49557713  0.70129273  0.50369554  1
  Sc  Sc92  1  0.49888591  0.90394113  0.09537956  1
  Sc  Sc93  1  0.30236859  0.70929634  0.69292130  1
  Sc  Sc94  1  0.89722730  0.89831818  0.49695706  1
  Sc  Sc95  1  0.29490704  0.30023121  0.90113020  1
  Sc  Sc96  1  0.30120894  0.09616279  0.30755309  1
  Sc  Sc97  1  0.09907784  0.09892613  0.30155423  1
  Sc  Sc98  1  0.50154657  0.30031574  0.30795740  1
  Sc  Sc99  1  0.89242465  0.49705564  0.29079777  1
  Nb  Nb100  1  0.29900238  0.90076184  0.29983579  1
  Nb  Nb101  1  0.90882603  0.30245620  0.50242132  1
  Nb  Nb102  1  0.09879693  0.49319202  0.11211372  1
  Nb  Nb103  1  0.09723709  0.69818707  0.49789877  1
  Nb  Nb104  1  0.29686085  0.10694538  0.69098947  1
  Nb  Nb105  1  0.69972370  0.89853419  0.49921513  1
  Nb  Nb106  1  0.29925763  0.10120488  0.51598781  1
  Nb  Nb107  1  0.89928879  0.10139630  0.09947478  1
  Nb  Nb108  1  0.70510725  0.10052760  0.10247465  1
  Nb  Nb109  1  0.09449420  0.30293479  0.49975781  1
  Nb  Nb110  1  0.49825351  0.69496553  0.69874107  1
  Nb  Nb111  1  0.29307760  0.29805574  0.50518831  1
  Nb  Nb112  1  0.29683183  0.49518615  0.50343771  1
  Nb  Nb113  1  0.10115474  0.89969562  0.29942044  1
  Nb  Nb114  1  0.09229861  0.89979110  0.70144854  1
  Nb  Nb115  1  0.09795076  0.10066984  0.09865209  1
  Nb  Nb116  1  0.10161028  0.69914148  0.90308789  1
  Nb  Nb117  1  0.69480787  0.50261317  0.49503514  1
  Nb  Nb118  1  0.29955594  0.29190188  0.69614114  1
  Nb  Nb119  1  0.69613095  0.49795401  0.30774236  1
  Nb  Nb120  1  0.50174056  0.50181454  0.30327158  1
  Nb  Nb121  1  0.90662973  0.89453179  0.70148261  1
  Nb  Nb122  1  0.50283942  0.89758770  0.90081478  1
  Nb  Nb123  1  0.90079042  0.69204542  0.10442490  1
  Nb  Nb124  1  0.09686654  0.50185734  0.30495267  1
  Nb  Nb125  1  0.59701363  0.40762702  0.20459976  1
  Nb  Nb126  1  0.60017085  0.59558848  0.20797830  1
  Nb  Nb127  1  0.00372492  0.39960299  0.40092986  1
  Nb  Nb128  1  -0.00290157  0.20038798  0.79876500  1
  Nb  Nb129  1  0.79966185  0.00065054  0.19525044  1
  Nb  Nb130  1  0.19620289  0.40235249  0.40670916  1
  Nb  Nb131  1  0.40304642  0.20396513  0.19829553  1
  Nb  Nb132  1  0.00342529  0.59970978  0.00310333  1
  Nb  Nb133  1  0.59290268  0.60189374  0.79540690  1
  Nb  Nb134  1  0.39356700  0.40383299  0.79349499  1
  Nb  Nb135  1  0.60997877  0.00232290  0.19783074  1
  Nb  Nb136  1  0.00067834  0.20785161  0.40565196  1
  Nb  Nb137  1  0.00401958  0.60064129  0.19731564  1
  Nb  Nb138  1  0.00634686  0.79598840  0.19995612  1
  Nb  Nb139  1  0.20064083  0.80500954  0.20442666  1
  Nb  Nb140  1  0.40408048  0.59844435  0.79630460  1
  Nb  Nb141  1  0.39524174  0.80101216  0.20812553  1
  Nb  Nb142  1  0.19923460  0.00367429  -0.00068220  1
  Nb  Nb143  1  0.60356493  0.20060898  0.41353541  1
  Nb  Nb144  1  0.00135874  -0.00640395  0.60939842  1
  Nb  Nb145  1  0.60297148  0.20314523  0.59308139  1
  Nb  Nb146  1  0.19567692  -0.00342542  0.19653039  1
  Nb  Nb147  1  0.79233281  0.59699592  0.40153349  1
  Nb  Nb148  1  0.40471142  0.40203897  0.20364885  1
  Nb  Nb149  1  0.60365423  0.39735837  0.59257356  1
  Pd  Pd150  1  -0.00278359  0.60238184  0.61090986  1
  Pd  Pd151  1  0.19580265  0.20254876  0.40557409  1
  Pd  Pd152  1  0.80149179  0.60492011  0.59268966  1
  Pd  Pd153  1  0.80626921  0.79488908  -0.00471960  1
  Pd  Pd154  1  0.19212832  0.39985616  0.59577284  1
  Pd  Pd155  1  -0.00309894  0.19646473  0.20653360  1
  Pd  Pd156  1  0.20330068  0.61019345  0.78862575  1
  Pd  Pd157  1  0.00220316  0.60896618  0.79892750  1
  Pd  Pd158  1  0.20080476  0.00146218  0.39920195  1
  Pd  Pd159  1  0.59354350  0.80299593  0.59859663  1
  Pd  Pd160  1  0.40230704  0.39460242  0.60363519  1
  Pd  Pd161  1  0.20478975  0.19434779  0.00182104  1
  Pd  Pd162  1  0.19369833  0.40527844  0.00149347  1
  Pd  Pd163  1  0.79363842  0.19356951  0.58908951  1
  Pd  Pd164  1  0.19356071  0.58853508  0.00345461  1
  Pd  Pd165  1  0.81043714  0.80554019  0.20232806  1
  Pd  Pd166  1  0.80200067  0.19313521  0.41085436  1
  Pd  Pd167  1  0.59649316  0.19627436  0.79518080  1
  Pd  Pd168  1  0.20234011  0.39194192  0.79450612  1
  Pd  Pd169  1  0.39883379  -0.00485280  0.79422597  1
  Pd  Pd170  1  0.00078073  0.00521447  -0.00987138  1
  Pd  Pd171  1  0.00098200  0.39143597  0.79247164  1
  Pd  Pd172  1  0.59468296  -0.00331787  0.79296218  1
  Pd  Pd173  1  0.59938265  0.60429893  -0.00596658  1
  Pd  Pd174  1  -0.00257464  0.00803074  0.79963219  1
  Pd  Pd175  1  0.21297794  0.40757831  0.21298682  1
  Pd  Pd176  1  0.58717139  0.80199591  0.20074101  1
  Pd  Pd177  1  0.38620388  0.40831099  0.39252246  1
  Pd  Pd178  1  0.60381139  0.19882540  -0.00234916  1
  Pd  Pd179  1  0.39130923  0.60505260  0.59500345  1
  Pd  Pd180  1  0.21415391  0.80839232  0.00612585  1
  Pd  Pd181  1  0.79324557  -0.00598207  0.00355057  1
  Pd  Pd182  1  0.78848298  0.60532709  0.80333849  1
  Pd  Pd183  1  0.60854678  -0.00478725  0.00530287  1
  Pd  Pd184  1  0.19682496  0.60513920  0.20149304  1
  Pd  Pd185  1  0.19316583  0.80306463  0.59267415  1
  Pd  Pd186  1  0.39730459  0.79898463  0.00794299  1
  Pd  Pd187  1  0.00554624  0.18559056  0.60139620  1
  Pd  Pd188  1  -0.01042096  0.79063237  -0.00269089  1
  Pd  Pd189  1  0.60265201  0.79315224  0.79576183  1
  Pd  Pd190  1  0.40472510  -0.00747023  0.60526300  1
  Pd  Pd191  1  0.20234601  -0.00480345  0.80360386  1
  Pd  Pd192  1  0.39320138  -0.00203778  -0.01281198  1
  Pd  Pd193  1  0.59350259  0.40792458  0.79450715  1
  Pd  Pd194  1  0.59627656  0.20056035  0.21197086  1
  Pd  Pd195  1  0.19879004  0.79380821  0.79573933  1
  Pd  Pd196  1  0.40705116  0.20331188  0.60037906  1
  Pd  Pd197  1  0.39586306  0.20432347  -0.00020247  1
  Pd  Pd198  1  0.40065909  0.19222570  0.40040012  1
  Pd  Pd199  1  -0.00034717  -0.00178552  0.19942870  1
  Rh  Rh200  1  0.40191899  0.80324011  0.59724610  1
  Rh  Rh201  1  0.79371083  0.39288519  0.00526898  1
  Rh  Rh202  1  0.80707572  0.19462739  0.19782238  1
  Rh  Rh203  1  0.80866541  0.60460864  -0.00807590  1
  Rh  Rh204  1  0.60093838  0.39225178  0.40027244  1
  Rh  Rh205  1  0.80010320  -0.00769863  0.79909139  1
  Rh  Rh206  1  0.80685038  0.20580999  0.80608811  1
  Rh  Rh207  1  -0.00221173  0.40271982  0.20444939  1
  Rh  Rh208  1  0.41118246  0.60222378  0.19643919  1
  Rh  Rh209  1  0.60275210  0.59704393  0.59954997  1
  Rh  Rh210  1  0.80094853  0.79422115  0.40549043  1
  Rh  Rh211  1  0.60348480  0.60905470  0.39935871  1
  Rh  Rh212  1  0.81221343  0.41168426  0.40282720  1
  Rh  Rh213  1  0.79701231  -0.00303641  0.39555043  1
  Rh  Rh214  1  0.19733401  0.20309397  0.59879152  1
  Rh  Rh215  1  0.39803774  0.79530241  0.79625678  1
  Rh  Rh216  1  0.00492920  0.80125330  0.39883251  1
  Rh  Rh217  1  0.40343559  0.80474912  0.40057598  1
  Rh  Rh218  1  0.00209657  0.80559598  0.59587278  1
  Rh  Rh219  1  0.39248835  0.59629434  0.41046959  1
  Rh  Rh220  1  0.59877597  0.80275690  -0.00196816  1
  Rh  Rh221  1  0.80577726  0.80307474  0.59586241  1
  Rh  Rh222  1  0.79577399  0.60076570  0.20934082  1
  Rh  Rh223  1  0.19640846  0.80381655  0.40242809  1
  Rh  Rh224  1  0.19468280  -0.00572094  0.59844793  1
  Rh  Rh225  1  0.39479687  0.39485461  -0.00236001  1
  Rh  Rh226  1  0.81088605  -0.01016486  0.60165675  1
  Rh  Rh227  1  -0.00656674  0.19338745  -0.00421771  1
  Rh  Rh228  1  0.79729589  0.80212238  0.79655816  1
  Rh  Rh229  1  0.80249547  0.39667156  0.79924373  1
  Rh  Rh230  1  0.78783301  0.39890745  0.19514858  1
  Rh  Rh231  1  0.19977507  0.60739379  0.59795633  1
  Rh  Rh232  1  0.79922679  0.40681187  0.59892295  1
  Rh  Rh233  1  0.00796819  0.40854198  0.00501959  1
  Rh  Rh234  1  0.40748766  0.60404218  -0.01336881  1
  Rh  Rh235  1  0.20435024  0.59188108  0.41225744  1
  Rh  Rh236  1  0.39218689  0.00368182  0.40569255  1
  Rh  Rh237  1  0.00259580  0.41001985  0.59881546  1
  Rh  Rh238  1  0.40589153  0.00012489  0.20712535  1
  Rh  Rh239  1  0.20597220  0.18673089  0.20033534  1
  Rh  Rh240  1  0.39901587  0.20828448  0.79707203  1
  Rh  Rh241  1  0.80075450  0.20174415  0.00058984  1
  Rh  Rh242  1  0.60970734  0.00631000  0.39306720  1
  Rh  Rh243  1  0.59545441  -0.00083728  0.60743814  1
  Rh  Rh244  1  0.00308025  0.79227178  0.80101081  1
  Rh  Rh245  1  0.00664668  0.00814294  0.41220614  1
  Rh  Rh246  1  0.59367696  0.79886936  0.40561449  1
  Rh  Rh247  1  -0.01527643  0.58963721  0.39108618  1
  Rh  Rh248  1  0.19407219  0.20860378  0.79200544  1
  Rh  Rh249  1  0.60917808  0.39824410  0.00969320  1
