# generated using pymatgen
data_ZrScNbPdRh
_symmetry_space_group_name_H-M   'P 1'
_cell_length_a   16.55872551
_cell_length_b   16.56010346
_cell_length_c   16.56099022
_cell_angle_alpha   89.98821330
_cell_angle_beta   89.99590666
_cell_angle_gamma   89.99666917
_symmetry_Int_Tables_number   1
_chemical_formula_structural   ZrScNbPdRh
_chemical_formula_sum   'Zr50 Sc50 Nb50 Pd50 Rh50'
_cell_volume   4541.25869368
_cell_formula_units_Z   50
loop_
 _symmetry_equiv_pos_site_id
 _symmetry_equiv_pos_as_xyz
  1  'x, y, z'
loop_
 _atom_site_type_symbol
 _atom_site_label
 _atom_site_symmetry_multiplicity
 _atom_site_fract_x
 _atom_site_fract_y
 _atom_site_fract_z
 _atom_site_occupancy
  Zr  Zr0  1  0.69167915  0.69526822  0.29080728  1
  Zr  Zr1  1  0.29186605  0.70376507  0.09567557  1
  Zr  Zr2  1  0.10248009  0.49816343  0.29860519  1
  Zr  Zr3  1  0.30219705  0.90857235  0.29694895  1
  Zr  Zr4  1  0.89508155  0.71324709  0.29434243  1
  Zr  Zr5  1  0.70565755  0.69978952  0.09782773  1
  Zr  Zr6  1  0.91520415  0.30013810  0.49818028  1
  Zr  Zr7  1  0.29845848  0.50147524  0.70341651  1
  Zr  Zr8  1  0.69981801  0.49791499  0.90162747  1
  Zr  Zr9  1  0.49931511  0.49980613  0.50298530  1
  Zr  Zr10  1  0.70680487  0.29768979  0.28902762  1
  Zr  Zr11  1  0.71194285  0.29900323  0.71087439  1
  Zr  Zr12  1  0.09212192  0.70295794  0.31729294  1
  Zr  Zr13  1  0.51140939  0.89223256  0.90051943  1
  Zr  Zr14  1  0.48549517  0.29791848  0.50197964  1
  Zr  Zr15  1  0.10308913  0.50069802  0.70450657  1
  Zr  Zr16  1  0.50071453  0.90900500  0.49699931  1
  Zr  Zr17  1  0.29529630  0.90361079  0.09917472  1
  Zr  Zr18  1  0.90432588  0.70526630  0.49067726  1
  Zr  Zr19  1  0.69278736  0.08960504  0.50411073  1
  Zr  Zr20  1  0.09614091  0.30684029  0.10042472  1
  Zr  Zr21  1  0.89652021  0.70105050  0.09345341  1
  Zr  Zr22  1  0.70149751  0.50305538  0.70057244  1
  Zr  Zr23  1  0.10248856  0.09431733  0.30403755  1
  Zr  Zr24  1  0.89390470  0.49478076  0.70053410  1
  Zr  Zr25  1  0.30487584  0.49487312  0.49895576  1
  Zr  Zr26  1  0.09678975  0.09344151  0.90722828  1
  Zr  Zr27  1  0.30362280  0.89771052  0.50261401  1
  Zr  Zr28  1  0.89943025  0.09955467  0.29757068  1
  Zr  Zr29  1  0.49837271  0.10114460  0.50647267  1
  Zr  Zr30  1  0.69741853  0.70361752  0.49856243  1
  Zr  Zr31  1  0.29946127  0.49573844  0.89799150  1
  Zr  Zr32  1  0.89726138  0.30453560  0.10178703  1
  Zr  Zr33  1  0.09192690  0.70782280  0.89493580  1
  Zr  Zr34  1  0.29560457  0.09843903  0.29952455  1
  Zr  Zr35  1  0.29285826  0.70146425  0.50368460  1
  Zr  Zr36  1  0.29685890  0.49991867  0.10034231  1
  Zr  Zr37  1  0.68852380  0.29986787  0.09699540  1
  Zr  Zr38  1  0.90060831  0.90214118  0.70462615  1
  Zr  Zr39  1  0.70134711  0.50265835  0.50199196  1
  Zr  Zr40  1  0.69635970  0.70936321  0.90000194  1
  Zr  Zr41  1  0.49980363  0.70235174  0.71127616  1
  Zr  Zr42  1  0.10713039  0.70030417  0.70388651  1
  Zr  Zr43  1  0.50373620  0.29679209  0.29207299  1
  Zr  Zr44  1  0.48973973  0.70848860  0.50657313  1
  Zr  Zr45  1  0.49268136  0.09596475  0.69815451  1
  Zr  Zr46  1  0.30036021  0.70799431  0.69382570  1
  Zr  Zr47  1  0.90826504  0.50071459  0.10046241  1
  Zr  Zr48  1  0.89882102  0.49640871  0.50096637  1
  Zr  Zr49  1  0.49779827  0.50250228  0.89238567  1
  Sc  Sc50  1  0.90524128  0.48760382  0.29964572  1
  Sc  Sc51  1  0.70289363  0.70767789  0.70647028  1
  Sc  Sc52  1  0.49998968  0.50681159  0.28968190  1
  Sc  Sc53  1  0.51169344  0.09403514  0.10552136  1
  Sc  Sc54  1  0.10183197  0.09346722  0.68910898  1
  Sc  Sc55  1  0.49797936  0.49004178  0.09941620  1
  Sc  Sc56  1  0.08917654  0.70028999  0.08685843  1
  Sc  Sc57  1  0.90020576  0.09388840  0.09223035  1
  Sc  Sc58  1  0.28580268  0.70732092  0.89576495  1
  Sc  Sc59  1  0.70056610  0.49998419  0.29514218  1
  Sc  Sc60  1  0.89326879  0.90008311  0.50229362  1
  Sc  Sc61  1  0.30091182  0.30229077  0.69654303  1
  Sc  Sc62  1  0.69854521  0.89998191  0.50816733  1
  Sc  Sc63  1  0.29480050  0.30566960  0.09622242  1
  Sc  Sc64  1  0.10115321  0.30119434  0.30671492  1
  Sc  Sc65  1  0.49651768  0.89990925  0.70172085  1
  Sc  Sc66  1  0.89004290  0.29287750  0.90324364  1
  Sc  Sc67  1  0.69600633  0.90256088  0.09419478  1
  Sc  Sc68  1  0.09696453  0.89935272  0.90183663  1
  Sc  Sc69  1  0.28941047  0.09338770  0.10358235  1
  Sc  Sc70  1  0.10594924  0.29626427  0.68521632  1
  Sc  Sc71  1  0.50501357  0.70241919  0.11566278  1
  Sc  Sc72  1  0.10415713  0.90542143  0.70556913  1
  Sc  Sc73  1  0.10498216  0.50179019  0.90143363  1
  Sc  Sc74  1  0.10625446  0.09721253  0.49893603  1
  Sc  Sc75  1  0.91610051  0.10029123  0.50173458  1
  Sc  Sc76  1  0.70178312  0.09535974  0.10484775  1
  Sc  Sc77  1  0.90214629  0.70136567  0.71395075  1
  Sc  Sc78  1  0.28971335  0.90384511  0.89457236  1
  Sc  Sc79  1  0.49725798  0.29717889  0.69746590  1
  Sc  Sc80  1  0.48771913  0.50277691  0.70061445  1
  Sc  Sc81  1  0.30447057  0.70577473  0.29931887  1
  Sc  Sc82  1  0.10035800  0.29596311  0.91205845  1
  Sc  Sc83  1  0.50453601  0.30133057  0.90377446  1
  Sc  Sc84  1  0.10307414  0.49982366  0.49134798  1
  Sc  Sc85  1  0.30149687  0.30540045  0.89854546  1
  Sc  Sc86  1  0.90054566  0.09741810  0.90159804  1
  Sc  Sc87  1  0.89201302  0.50026412  0.90295177  1
  Sc  Sc88  1  0.30057522  0.30210484  0.31039798  1
  Sc  Sc89  1  0.10190623  0.10188945  0.09500917  1
  Sc  Sc90  1  0.70820048  0.49945396  0.09770110  1
  Sc  Sc91  1  0.50528120  0.09691108  0.88615855  1
  Sc  Sc92  1  0.69922930  0.09668823  0.70340222  1
  Sc  Sc93  1  0.70107144  0.90434699  0.29064804  1
  Sc  Sc94  1  0.70207473  0.90249817  0.89556961  1
  Sc  Sc95  1  0.69585699  0.30354730  0.50874167  1
  Sc  Sc96  1  0.50362121  0.08431724  0.30041223  1
  Sc  Sc97  1  0.90485400  0.90521421  0.89808171  1
  Sc  Sc98  1  0.90171891  0.09049231  0.70069643  1
  Sc  Sc99  1  0.70238908  0.29688879  0.90657538  1
  Nb  Nb100  1  0.49577396  0.90434876  0.10183271  1
  Nb  Nb101  1  0.89926253  0.89805921  0.10789408  1
  Nb  Nb102  1  0.29725441  0.91084701  0.70157529  1
  Nb  Nb103  1  0.10234699  0.28923539  0.50333750  1
  Nb  Nb104  1  0.09854014  0.49715619  0.10605102  1
  Nb  Nb105  1  0.49430260  0.89690092  0.29504934  1
  Nb  Nb106  1  0.29875145  0.28963649  0.50477762  1
  Nb  Nb107  1  0.90476736  0.29520435  0.69950211  1
  Nb  Nb108  1  0.50697365  0.70298525  0.89864829  1
  Nb  Nb109  1  0.90140286  0.89876341  0.29638408  1
  Nb  Nb110  1  0.30166335  0.10298376  0.51056203  1
  Nb  Nb111  1  0.71258016  0.90483488  0.69555758  1
  Nb  Nb112  1  0.50034681  0.70229687  0.30281204  1
  Nb  Nb113  1  0.30374443  0.09679941  0.89695515  1
  Nb  Nb114  1  0.29512109  0.50824768  0.30311990  1
  Nb  Nb115  1  0.90161520  0.29678002  0.30191455  1
  Nb  Nb116  1  0.29883117  0.08859106  0.70702090  1
  Nb  Nb117  1  0.10742702  0.89421818  0.49437431  1
  Nb  Nb118  1  0.69992819  0.09946130  0.30000097  1
  Nb  Nb119  1  0.10081243  0.90084195  0.30339839  1
  Nb  Nb120  1  0.10156888  0.70425554  0.50334728  1
  Nb  Nb121  1  0.70792286  0.10382370  0.89419161  1
  Nb  Nb122  1  0.89927929  0.70748164  0.90296102  1
  Nb  Nb123  1  0.09773260  0.90233573  0.09649611  1
  Nb  Nb124  1  0.49942206  0.29216430  0.09964782  1
  Nb  Nb125  1  0.19268578  0.60229406  0.20097540  1
  Nb  Nb126  1  0.59846162  0.60427577  0.60244802  1
  Nb  Nb127  1  0.40140612  0.19938741  0.19370207  1
  Nb  Nb128  1  0.00783825  0.79626186  0.59753646  1
  Nb  Nb129  1  0.20117016  0.19107797  0.79985904  1
  Nb  Nb130  1  0.60324869  0.40258442  0.79814131  1
  Nb  Nb131  1  0.40567483  0.80115777  -0.00013716  1
  Nb  Nb132  1  0.00473102  0.20202058  0.79665712  1
  Nb  Nb133  1  0.59703842  0.39513973  0.39842374  1
  Nb  Nb134  1  0.59100697  0.80315990  0.39227603  1
  Nb  Nb135  1  -0.00307945  0.39100056  0.79634895  1
  Nb  Nb136  1  0.00182792  0.60502917  0.59888920  1
  Nb  Nb137  1  0.40063080  0.60298334  0.39854698  1
  Nb  Nb138  1  0.79985757  0.00576401  0.39494619  1
  Nb  Nb139  1  0.79798036  0.19818635  0.40331099  1
  Nb  Nb140  1  0.60397245  0.19999766  0.39812399  1
  Nb  Nb141  1  -0.00204615  0.19854161  0.20214886  1
  Nb  Nb142  1  0.18938009  0.80164939  0.20096385  1
  Nb  Nb143  1  0.59409617  0.60441840  -0.00360893  1
  Nb  Nb144  1  0.40376885  0.60997186  -0.00343882  1
  Nb  Nb145  1  0.80037485  0.60324838  0.39829999  1
  Nb  Nb146  1  0.40294124  -0.00030693  -0.00299150  1
  Nb  Nb147  1  0.80625007  0.19885917  0.59791229  1
  Nb  Nb148  1  0.00113265  -0.00585727  0.20217998  1
  Nb  Nb149  1  0.40207196  0.19197942  0.00382468  1
  Pd  Pd150  1  0.80311810  0.61336027  0.59728025  1
  Pd  Pd151  1  -0.00440879  0.59137911  0.80220907  1
  Pd  Pd152  1  0.60235136  0.40646936  0.19901177  1
  Pd  Pd153  1  0.60566321  -0.00460116  0.79392898  1
  Pd  Pd154  1  0.59785587  0.80252976  0.60224653  1
  Pd  Pd155  1  0.21061981  0.19963792  -0.00468192  1
  Pd  Pd156  1  0.20860697  0.80159692  0.39235120  1
  Pd  Pd157  1  0.39400028  0.60212236  0.19846430  1
  Pd  Pd158  1  0.40644055  0.40853402  0.38940683  1
  Pd  Pd159  1  0.79237883  0.39728669  0.39917943  1
  Pd  Pd160  1  0.19937331  0.20781870  0.20033642  1
  Pd  Pd161  1  0.60014286  0.20713432  0.80050788  1
  Pd  Pd162  1  0.20041528  0.19796992  0.40391167  1
  Pd  Pd163  1  0.39382155  0.79979644  0.19567539  1
  Pd  Pd164  1  -0.00114058  0.59545095  -0.00958326  1
  Pd  Pd165  1  0.39180903  0.39389627  0.20505075  1
  Pd  Pd166  1  0.80481377  0.19581315  0.19429179  1
  Pd  Pd167  1  0.60309118  0.80803380  0.19881567  1
  Pd  Pd168  1  -0.00760066  0.59260874  0.40064298  1
  Pd  Pd169  1  0.81052988  0.79388760  0.60667866  1
  Pd  Pd170  1  0.40626250  0.18970330  0.39034698  1
  Pd  Pd171  1  0.80303297  0.38929330  0.59741174  1
  Pd  Pd172  1  0.20566057  0.39947708  0.20434598  1
  Pd  Pd173  1  0.59639547  0.18690472  -0.00519058  1
  Pd  Pd174  1  0.19844847  0.39380243  0.40759099  1
  Pd  Pd175  1  0.80009401  0.60601631  0.80737854  1
  Pd  Pd176  1  0.18882164  0.38473911  0.80259577  1
  Pd  Pd177  1  0.19544417  0.59298997  0.59619625  1
  Pd  Pd178  1  0.00304498  0.60741592  0.20438131  1
  Pd  Pd179  1  0.00624686  0.80056270  0.19434530  1
  Pd  Pd180  1  0.39509681  0.00774328  0.40333364  1
  Pd  Pd181  1  0.78574420  0.80636011  0.39345238  1
  Pd  Pd182  1  0.79917099  -0.00349031  -0.00332927  1
  Pd  Pd183  1  0.60602309  0.20049378  0.60216823  1
  Pd  Pd184  1  0.00800823  0.40624057  0.60225600  1
  Pd  Pd185  1  0.00572628  -0.01308007  0.59455096  1
  Pd  Pd186  1  0.38828367  0.61052984  0.80724637  1
  Pd  Pd187  1  0.80933491  0.59284769  0.20708306  1
  Pd  Pd188  1  0.39240201  0.80653500  0.80710929  1
  Pd  Pd189  1  -0.00530798  -0.00790682  0.40044902  1
  Pd  Pd190  1  0.39465237  0.20544832  0.80301983  1
  Pd  Pd191  1  0.20090532  0.39988483  0.59135801  1
  Pd  Pd192  1  0.79769685  0.19497076  0.00690066  1
  Pd  Pd193  1  0.19851434  0.59689755  0.00084278  1
  Pd  Pd194  1  0.59965893  0.00731625  -0.00550245  1
  Pd  Pd195  1  -0.00214863  0.40290458  -0.01166598  1
  Pd  Pd196  1  0.80397603  0.81176160  -0.00279442  1
  Pd  Pd197  1  0.59665079  0.59975301  0.40390872  1
  Pd  Pd198  1  0.40327113  0.39605377  -0.00117577  1
  Pd  Pd199  1  0.59490035  0.40356736  0.60603871  1
  Rh  Rh200  1  -0.00146435  0.81280153  0.40882897  1
  Rh  Rh201  1  0.60954599  0.81093217  0.78775118  1
  Rh  Rh202  1  -0.00380004  -0.00602768  0.00754159  1
  Rh  Rh203  1  0.39753509  0.80965329  0.60832646  1
  Rh  Rh204  1  0.59783419  0.40604584  -0.00376092  1
  Rh  Rh205  1  0.80980496  0.18949811  0.79428103  1
  Rh  Rh206  1  0.19291857  0.00619370  0.80446701  1
  Rh  Rh207  1  0.59879030  -0.00726291  0.61211297  1
  Rh  Rh208  1  0.40304124  -0.00832214  0.80743658  1
  Rh  Rh209  1  0.79610961  0.60439829  -0.00600798  1
  Rh  Rh210  1  0.20661171  0.19363858  0.60602778  1
  Rh  Rh211  1  0.60557063  -0.00655577  0.39346001  1
  Rh  Rh212  1  -0.00670355  0.80621776  -0.00201036  1
  Rh  Rh213  1  0.79405558  0.80536431  0.19547162  1
  Rh  Rh214  1  0.80336748  0.39651799  0.80601430  1
  Rh  Rh215  1  0.00332775  0.20267238  0.39478653  1
  Rh  Rh216  1  0.40175935  0.00915543  0.19206767  1
  Rh  Rh217  1  0.59407520  0.79346194  0.01211452  1
  Rh  Rh218  1  0.19947171  0.80706312  0.79413583  1
  Rh  Rh219  1  0.20757693  0.60597548  0.39660285  1
  Rh  Rh220  1  0.60056820  0.59252466  0.18602293  1
  Rh  Rh221  1  0.40221834  0.60014867  0.59646310  1
  Rh  Rh222  1  0.80290619  0.80511810  0.80481175  1
  Rh  Rh223  1  0.79928751  0.39727546  0.00457142  1
  Rh  Rh224  1  0.20717158  -0.00003675  0.40873823  1
  Rh  Rh225  1  0.40752928  0.39220181  0.79711014  1
  Rh  Rh226  1  0.20299096  -0.00180926  -0.00411489  1
  Rh  Rh227  1  0.39362028  0.39739936  0.60377581  1
  Rh  Rh228  1  -0.00050546  0.39090738  0.20550342  1
  Rh  Rh229  1  0.60299471  0.59430575  0.79718638  1
  Rh  Rh230  1  0.39158836  0.19630503  0.61046671  1
  Rh  Rh231  1  0.20435367  0.60275376  0.80343742  1
  Rh  Rh232  1  0.59565562  0.19145970  0.20465923  1
  Rh  Rh233  1  0.40178319  0.79794180  0.39683715  1
  Rh  Rh234  1  0.00871427  0.39544079  0.40090172  1
  Rh  Rh235  1  0.00359925  0.00671890  0.80128753  1
  Rh  Rh236  1  0.00006563  0.80535849  0.79658870  1
  Rh  Rh237  1  0.80348474  0.40239710  0.19607890  1
  Rh  Rh238  1  0.80440349  -0.00400830  0.20097863  1
  Rh  Rh239  1  -0.00553490  0.20231091  0.00399721  1
  Rh  Rh240  1  0.79858843  0.00138207  0.80270021  1
  Rh  Rh241  1  0.19564752  0.81240482  0.60609596  1
  Rh  Rh242  1  0.60166886  -0.00515625  0.20178436  1
  Rh  Rh243  1  0.19569964  0.40532948  0.00037887  1
  Rh  Rh244  1  0.18782243  -0.00682253  0.19917762  1
  Rh  Rh245  1  0.80445641  0.00862047  0.59353416  1
  Rh  Rh246  1  0.20491229  -0.00308515  0.59399406  1
  Rh  Rh247  1  0.39639239  -0.00087310  0.60037992  1
  Rh  Rh248  1  0.00044944  0.19469746  0.60577052  1
  Rh  Rh249  1  0.19704920  0.80716395  0.00326549  1
