# generated using pymatgen
data_ZrScNbPdRh
_symmetry_space_group_name_H-M   'P 1'
_cell_length_a   16.55607185
_cell_length_b   16.55400257
_cell_length_c   16.55459385
_cell_angle_alpha   90.02687088
_cell_angle_beta   89.96722585
_cell_angle_gamma   90.03248027
_symmetry_Int_Tables_number   1
_chemical_formula_structural   ZrScNbPdRh
_chemical_formula_sum   'Zr50 Sc50 Nb50 Pd50 Rh50'
_cell_volume   4537.10324761
_cell_formula_units_Z   50
loop_
 _symmetry_equiv_pos_site_id
 _symmetry_equiv_pos_as_xyz
  1  'x, y, z'
loop_
 _atom_site_type_symbol
 _atom_site_label
 _atom_site_symmetry_multiplicity
 _atom_site_fract_x
 _atom_site_fract_y
 _atom_site_fract_z
 _atom_site_occupancy
  Zr  Zr0  1  0.10553232  0.29623053  0.29806609  1
  Zr  Zr1  1  0.70309966  0.89101099  0.28823403  1
  Zr  Zr2  1  0.89388477  0.69905679  0.69871366  1
  Zr  Zr3  1  0.50521274  0.69471281  0.70316040  1
  Zr  Zr4  1  0.10900813  0.90338882  0.10558107  1
  Zr  Zr5  1  0.50567799  0.50709176  0.49229042  1
  Zr  Zr6  1  0.70058495  0.69015484  0.49778234  1
  Zr  Zr7  1  0.70662509  0.49256819  0.49632262  1
  Zr  Zr8  1  0.09900175  0.69876393  0.91242365  1
  Zr  Zr9  1  0.89948473  0.49332571  0.10768891  1
  Zr  Zr10  1  0.70308802  0.69015332  0.89469196  1
  Zr  Zr11  1  0.70902212  0.29492402  0.10382826  1
  Zr  Zr12  1  0.29299620  0.09769845  0.09127955  1
  Zr  Zr13  1  0.90018101  0.70471214  0.48438889  1
  Zr  Zr14  1  0.91626891  0.69804946  0.10469854  1
  Zr  Zr15  1  0.88712261  0.48799359  0.90170314  1
  Zr  Zr16  1  0.10065854  0.09544807  0.49883391  1
  Zr  Zr17  1  0.49916481  0.70239608  0.89843071  1
  Zr  Zr18  1  0.09527552  0.51098090  0.10209400  1
  Zr  Zr19  1  0.69789874  0.29880975  0.30221364  1
  Zr  Zr20  1  0.10488509  0.70197760  0.69181929  1
  Zr  Zr21  1  0.50364983  0.10635650  0.29345587  1
  Zr  Zr22  1  0.90624903  0.30027213  0.09565569  1
  Zr  Zr23  1  0.68930512  0.29770759  0.69688474  1
  Zr  Zr24  1  0.29975146  0.30025642  0.48756118  1
  Zr  Zr25  1  0.69036635  0.70527603  0.11291780  1
  Zr  Zr26  1  0.89729392  0.29433617  0.90723455  1
  Zr  Zr27  1  0.28984308  0.09622474  0.70316660  1
  Zr  Zr28  1  0.49607464  0.50791439  0.10733099  1
  Zr  Zr29  1  0.09511214  0.29391304  0.10209792  1
  Zr  Zr30  1  0.29902631  0.29906726  0.70452481  1
  Zr  Zr31  1  0.09988709  0.09541843  0.70436670  1
  Zr  Zr32  1  0.30727096  0.49355989  0.30021537  1
  Zr  Zr33  1  0.08855436  0.70468251  0.30629038  1
  Zr  Zr34  1  0.09710088  0.30145035  0.91017724  1
  Zr  Zr35  1  0.89663834  0.08860094  0.68725904  1
  Zr  Zr36  1  0.29469603  0.30160266  0.10219944  1
  Zr  Zr37  1  0.29266250  0.70128302  0.50248771  1
  Zr  Zr38  1  0.49451977  0.09669473  0.90872210  1
  Zr  Zr39  1  0.10149081  0.70543158  0.10672000  1
  Zr  Zr40  1  0.49947894  0.10362766  0.09664968  1
  Zr  Zr41  1  0.30794648  0.89566195  0.49075826  1
  Zr  Zr42  1  0.29638987  0.09701657  0.50262770  1
  Zr  Zr43  1  0.29950336  0.89633238  0.69550779  1
  Zr  Zr44  1  0.49194170  0.29933683  0.29414631  1
  Zr  Zr45  1  0.50609757  0.10070983  0.70567797  1
  Zr  Zr46  1  0.69160452  0.09312358  0.09673612  1
  Zr  Zr47  1  0.70784712  0.89792356  0.91044880  1
  Zr  Zr48  1  0.29348627  0.70464425  0.09647943  1
  Zr  Zr49  1  0.89018541  0.29708935  0.70829734  1
  Sc  Sc50  1  0.30573603  0.51072736  0.48983007  1
  Sc  Sc51  1  0.49869252  0.90113277  0.89451467  1
  Sc  Sc52  1  0.69226531  0.89832516  0.69979386  1
  Sc  Sc53  1  0.09916679  0.49787918  0.91189590  1
  Sc  Sc54  1  0.31013274  0.69850122  0.69355135  1
  Sc  Sc55  1  0.30117362  0.69425060  0.30581756  1
  Sc  Sc56  1  0.49872131  0.50158352  0.89264145  1
  Sc  Sc57  1  0.70163346  0.49824696  0.30743041  1
  Sc  Sc58  1  0.50426565  0.49700675  0.70714169  1
  Sc  Sc59  1  0.09270913  0.49423257  0.69370847  1
  Sc  Sc60  1  0.49914881  0.89524900  0.69951179  1
  Sc  Sc61  1  0.89593064  0.90064433  0.09500327  1
  Sc  Sc62  1  0.09355770  0.90388230  0.89806526  1
  Sc  Sc63  1  0.10287784  0.30316202  0.50188208  1
  Sc  Sc64  1  0.89914309  0.70773003  0.90173759  1
  Sc  Sc65  1  0.50181844  0.08955089  0.49565913  1
  Sc  Sc66  1  0.10493213  0.10099862  0.30206564  1
  Sc  Sc67  1  0.29526264  0.49812240  0.10250589  1
  Sc  Sc68  1  0.69079832  0.89802364  0.49347867  1
  Sc  Sc69  1  0.29390604  0.10837215  0.30477039  1
  Sc  Sc70  1  0.10580450  0.09373913  0.90379161  1
  Sc  Sc71  1  0.10673213  0.50334437  0.49435415  1
  Sc  Sc72  1  0.69850179  0.50622953  0.70506052  1
  Sc  Sc73  1  0.30001555  0.30496777  0.91399952  1
  Sc  Sc74  1  0.49847433  0.69933667  0.49502621  1
  Sc  Sc75  1  0.69804767  0.10465040  0.90331512  1
  Sc  Sc76  1  0.49262589  0.31060190  0.89895863  1
  Sc  Sc77  1  0.10528430  0.50222468  0.29999210  1
  Sc  Sc78  1  0.11035788  0.89945439  0.30003858  1
  Sc  Sc79  1  0.70579682  0.50975263  0.09806588  1
  Sc  Sc80  1  0.89972264  0.10975015  0.09589751  1
  Sc  Sc81  1  0.48816195  0.29725095  0.09494888  1
  Sc  Sc82  1  0.49905275  0.90743953  0.09099711  1
  Sc  Sc83  1  0.89063279  0.31110220  0.51444578  1
  Sc  Sc84  1  0.89963490  0.49779657  0.29984973  1
  Sc  Sc85  1  0.31630727  0.50986232  0.70115747  1
  Sc  Sc86  1  0.70626683  0.09577768  0.51161361  1
  Sc  Sc87  1  0.30399475  0.70384618  0.89975965  1
  Sc  Sc88  1  0.50343796  0.89883399  0.31326512  1
  Sc  Sc89  1  0.70028929  0.10658566  0.70259952  1
  Sc  Sc90  1  0.70960875  0.30081282  0.89356822  1
  Sc  Sc91  1  0.89744230  0.49016944  0.69409816  1
  Sc  Sc92  1  0.09618944  0.90681526  0.70183005  1
  Sc  Sc93  1  0.90664086  0.89672402  0.90053714  1
  Sc  Sc94  1  0.51422618  0.29615739  0.49276283  1
  Sc  Sc95  1  0.09521480  0.30236429  0.69922538  1
  Sc  Sc96  1  0.30836288  0.90245750  0.90286095  1
  Sc  Sc97  1  0.89789332  0.30410669  0.28188412  1
  Sc  Sc98  1  0.10950729  0.89394608  0.49229663  1
  Sc  Sc99  1  0.69911019  0.09618657  0.28929252  1
  Nb  Nb100  1  0.89696422  0.89935028  0.31373067  1
  Nb  Nb101  1  0.90135193  0.90001064  0.69532852  1
  Nb  Nb102  1  0.09873194  0.10171397  0.10714159  1
  Nb  Nb103  1  0.30017834  0.10297423  0.89647665  1
  Nb  Nb104  1  0.70357070  0.70002722  0.69497069  1
  Nb  Nb105  1  0.90114812  0.10120096  0.89481649  1
  Nb  Nb106  1  0.70222813  0.70673806  0.30153610  1
  Nb  Nb107  1  0.29737502  0.89906237  0.11209725  1
  Nb  Nb108  1  0.49539611  0.51000193  0.29377379  1
  Nb  Nb109  1  0.90172396  0.09267130  0.30789581  1
  Nb  Nb110  1  0.10015372  0.70120661  0.49842387  1
  Nb  Nb111  1  0.89887914  0.09203889  0.49872350  1
  Nb  Nb112  1  0.89641368  0.91083785  0.50497005  1
  Nb  Nb113  1  0.49615442  0.90146849  0.49921426  1
  Nb  Nb114  1  0.29866129  0.89837212  0.29548087  1
  Nb  Nb115  1  0.49695977  0.30076433  0.70029890  1
  Nb  Nb116  1  0.50026474  0.69846812  0.10637684  1
  Nb  Nb117  1  0.30447838  0.50028357  0.90178593  1
  Nb  Nb118  1  0.70482269  0.29977593  0.49421676  1
  Nb  Nb119  1  0.51033749  0.69055131  0.28431153  1
  Nb  Nb120  1  0.69586190  0.90228779  0.09798411  1
  Nb  Nb121  1  0.29668935  0.30377718  0.29981446  1
  Nb  Nb122  1  0.89607471  0.71227597  0.30234618  1
  Nb  Nb123  1  0.69611025  0.49721986  0.90235773  1
  Nb  Nb124  1  0.89910562  0.49907424  0.50145084  1
  Nb  Nb125  1  0.19947851  0.79567419  0.79833399  1
  Nb  Nb126  1  -0.00398484  0.39513001  0.40196179  1
  Nb  Nb127  1  -0.01062823  0.20089356  0.40494882  1
  Nb  Nb128  1  -0.00396323  0.60490244  0.59339000  1
  Nb  Nb129  1  0.00116712  0.59930366  0.79697180  1
  Nb  Nb130  1  0.59625195  0.40231470  0.19645461  1
  Nb  Nb131  1  -0.00527924  0.80110359  0.59294092  1
  Nb  Nb132  1  0.39297255  -0.00356553  0.20125096  1
  Nb  Nb133  1  0.40160336  0.80192697  0.20038691  1
  Nb  Nb134  1  0.60234502  0.79638591  0.00475481  1
  Nb  Nb135  1  0.80569430  -0.00221560  0.79821961  1
  Nb  Nb136  1  0.20461913  0.40786390  0.80103392  1
  Nb  Nb137  1  -0.00647532  0.19450393  0.59792941  1
  Nb  Nb138  1  0.40114365  0.60350219  0.00373334  1
  Nb  Nb139  1  0.19723176  0.59865272  0.80245791  1
  Nb  Nb140  1  0.40359863  0.39385128  0.59750384  1
  Nb  Nb141  1  0.21251313  0.40253248  0.60239234  1
  Nb  Nb142  1  0.40278385  0.20223743  0.60417028  1
  Nb  Nb143  1  0.39742981  0.19781265  0.79925782  1
  Nb  Nb144  1  -0.00293051  0.19420790  0.79764764  1
  Nb  Nb145  1  0.80148926  0.80034093  0.59777709  1
  Nb  Nb146  1  -0.00387927  0.00319761  0.20589697  1
  Nb  Nb147  1  0.80324519  0.61387729  0.20872140  1
  Nb  Nb148  1  0.80755131  0.19773307  0.40361587  1
  Nb  Nb149  1  0.60331623  0.40539672  0.00273230  1
  Pd  Pd150  1  0.60052039  0.79895275  0.59434693  1
  Pd  Pd151  1  0.60688056  0.80024678  0.80660216  1
  Pd  Pd152  1  0.80629065  0.60806341  0.00948910  1
  Pd  Pd153  1  0.38834291  0.19285879  0.19713870  1
  Pd  Pd154  1  0.19870685  0.81168940  -0.00918149  1
  Pd  Pd155  1  0.19792827  0.58988577  0.60446712  1
  Pd  Pd156  1  0.19367813  0.40281588  0.19668224  1
  Pd  Pd157  1  -0.00410081  0.81838097  0.20548041  1
  Pd  Pd158  1  0.59958877  -0.00208317  0.60184417  1
  Pd  Pd159  1  0.59646457  0.79330516  0.40043726  1
  Pd  Pd160  1  0.39796575  0.00272878  0.79588136  1
  Pd  Pd161  1  0.00876871  -0.00441003  0.39645813  1
  Pd  Pd162  1  0.59897726  0.40466866  0.59923143  1
  Pd  Pd163  1  0.79587047  0.80760718  0.79385516  1
  Pd  Pd164  1  0.80968310  0.80131460  0.19165841  1
  Pd  Pd165  1  0.78744847  0.40177559  0.60923299  1
  Pd  Pd166  1  0.20216068  0.60393630  0.20823447  1
  Pd  Pd167  1  0.58800317  -0.00915141  0.20154397  1
  Pd  Pd168  1  -0.00091798  0.59036692  0.39921217  1
  Pd  Pd169  1  0.59241556  0.40256184  0.38947829  1
  Pd  Pd170  1  0.61268635  0.18698977  0.40428086  1
  Pd  Pd171  1  0.80409393  0.18978148  0.20483576  1
  Pd  Pd172  1  0.19642821  -0.01110983  0.59572725  1
  Pd  Pd173  1  0.59634508  0.19614315  0.59210623  1
  Pd  Pd174  1  0.79692595  0.78946308  0.00931292  1
  Pd  Pd175  1  0.60772747  0.00431987  0.39578115  1
  Pd  Pd176  1  0.60016940  0.59477862  0.60243795  1
  Pd  Pd177  1  0.00678411  0.79506887  0.79388120  1
  Pd  Pd178  1  -0.00227646  0.00371446  0.00839365  1
  Pd  Pd179  1  0.80551980  0.00747275  -0.00407739  1
  Pd  Pd180  1  0.80277007  0.59745879  0.39262645  1
  Pd  Pd181  1  0.20336053  -0.00639629  -0.00545259  1
  Pd  Pd182  1  0.60920107  -0.00193385  0.80745591  1
  Pd  Pd183  1  0.40930943  0.40039181  0.40333361  1
  Pd  Pd184  1  0.40651362  0.79991393  0.00750097  1
  Pd  Pd185  1  0.59981956  0.21568191  -0.00506308  1
  Pd  Pd186  1  0.40287596  0.19378165  0.40557838  1
  Pd  Pd187  1  0.39717134  0.00591250  0.39066960  1
  Pd  Pd188  1  0.40848363  0.79606643  0.59847040  1
  Pd  Pd189  1  0.40612181  0.79043684  0.39055291  1
  Pd  Pd190  1  0.80711401  0.59244835  0.79820532  1
  Pd  Pd191  1  0.19718479  0.20971365  0.81075514  1
  Pd  Pd192  1  0.59141321  0.20785423  0.81243703  1
  Pd  Pd193  1  0.59330946  0.60029282  -0.00332649  1
  Pd  Pd194  1  0.40528814  0.00468547  0.60383793  1
  Pd  Pd195  1  0.80868812  0.00075174  0.19576769  1
  Pd  Pd196  1  0.00467449  0.39995503  0.80450944  1
  Pd  Pd197  1  0.19627280  0.20679499  0.59745086  1
  Pd  Pd198  1  0.78532576  0.00051109  0.39853206  1
  Pd  Pd199  1  -0.01349660  0.59293028  -0.01061553  1
  Rh  Rh200  1  0.19980175  0.00877373  0.20529021  1
  Rh  Rh201  1  0.79152667  0.39680292  0.00424561  1
  Rh  Rh202  1  0.19689496  0.80517821  0.60196915  1
  Rh  Rh203  1  0.39469926  0.79950690  0.79246618  1
  Rh  Rh204  1  0.58636714  0.81249638  0.19598003  1
  Rh  Rh205  1  0.19802384  0.60319793  0.39668375  1
  Rh  Rh206  1  0.80052671  0.20393065  0.59416858  1
  Rh  Rh207  1  0.20454347  0.79003632  0.21030510  1
  Rh  Rh208  1  0.61571827  0.58921795  0.20987040  1
  Rh  Rh209  1  0.20276050  0.79439503  0.39570635  1
  Rh  Rh210  1  0.39808289  0.60438957  0.80840302  1
  Rh  Rh211  1  0.78732661  -0.01321505  0.60667746  1
  Rh  Rh212  1  0.40174971  0.39827445  0.19851190  1
  Rh  Rh213  1  0.79356001  0.80913915  0.40660209  1
  Rh  Rh214  1  0.38793403  0.60905086  0.19523901  1
  Rh  Rh215  1  0.01048822  -0.00544035  0.59301282  1
  Rh  Rh216  1  0.60221459  0.60339032  0.39196184  1
  Rh  Rh217  1  0.19572161  0.19735160  0.00094081  1
  Rh  Rh218  1  0.60384875  0.39737719  0.80627730  1
  Rh  Rh219  1  0.00967189  0.40370687  0.20527022  1
  Rh  Rh220  1  0.20345601  0.19843234  0.19859996  1
  Rh  Rh221  1  0.00596649  0.18881330  -0.00775821  1
  Rh  Rh222  1  0.39438982  0.19895517  -0.00703213  1
  Rh  Rh223  1  0.78979909  0.40204099  0.79467900  1
  Rh  Rh224  1  -0.00008600  0.40501874  0.00621018  1
  Rh  Rh225  1  0.80444963  0.18924970  0.79812111  1
  Rh  Rh226  1  0.00922814  0.40507489  0.58555738  1
  Rh  Rh227  1  0.39505016  0.39587204  0.79689058  1
  Rh  Rh228  1  0.21048300  0.59618146  -0.00494361  1
  Rh  Rh229  1  0.80412144  0.60113471  0.59543753  1
  Rh  Rh230  1  0.19625541  0.40143708  0.40197388  1
  Rh  Rh231  1  0.20510161  -0.01404398  0.80708622  1
  Rh  Rh232  1  0.40620676  0.41268809  0.00549583  1
  Rh  Rh233  1  0.19450111  0.20213459  0.40180202  1
  Rh  Rh234  1  0.40475800  0.60703968  0.39562823  1
  Rh  Rh235  1  0.60288687  0.60055350  0.79877641  1
  Rh  Rh236  1  -0.00802474  0.00494582  0.80191505  1
  Rh  Rh237  1  0.00604627  0.80776108  0.00636579  1
  Rh  Rh238  1  -0.00273432  0.18925479  0.20993655  1
  Rh  Rh239  1  0.59748286  0.20943226  0.19337441  1
  Rh  Rh240  1  0.78772431  0.41099686  0.19969705  1
  Rh  Rh241  1  0.00074946  0.81248954  0.40347811  1
  Rh  Rh242  1  0.39312293  -0.00062611  0.00524301  1
  Rh  Rh243  1  -0.00678134  0.59935672  0.21314140  1
  Rh  Rh244  1  0.59982124  -0.00754431  -0.00678306  1
  Rh  Rh245  1  0.81081875  0.38847550  0.39528593  1
  Rh  Rh246  1  0.20803307  -0.00240380  0.39789403  1
  Rh  Rh247  1  0.19733934  0.40561572  0.00323775  1
  Rh  Rh248  1  0.79613326  0.19555211  0.00014675  1
  Rh  Rh249  1  0.41097255  0.59457563  0.59561421  1
