# generated using pymatgen
data_ZrScNbPdRh
_symmetry_space_group_name_H-M   'P 1'
_cell_length_a   16.56569602
_cell_length_b   16.56987424
_cell_length_c   16.57194279
_cell_angle_alpha   90.01692618
_cell_angle_beta   89.97589490
_cell_angle_gamma   90.01744741
_symmetry_Int_Tables_number   1
_chemical_formula_structural   ZrScNbPdRh
_chemical_formula_sum   'Zr50 Sc50 Nb50 Pd50 Rh50'
_cell_volume   4548.85662036
_cell_formula_units_Z   50
loop_
 _symmetry_equiv_pos_site_id
 _symmetry_equiv_pos_as_xyz
  1  'x, y, z'
loop_
 _atom_site_type_symbol
 _atom_site_label
 _atom_site_symmetry_multiplicity
 _atom_site_fract_x
 _atom_site_fract_y
 _atom_site_fract_z
 _atom_site_occupancy
  Zr  Zr0  1  0.51036429  0.90417235  0.10074831  1
  Zr  Zr1  1  0.10017314  0.30274616  0.88772003  1
  Zr  Zr2  1  0.30489729  0.90394958  0.70448731  1
  Zr  Zr3  1  0.89711484  0.70011789  0.49476438  1
  Zr  Zr4  1  0.89831512  0.10033004  0.30160316  1
  Zr  Zr5  1  0.30571409  0.09943180  0.10169724  1
  Zr  Zr6  1  0.70720201  0.89970095  0.09387189  1
  Zr  Zr7  1  0.69947978  0.70078529  0.70736382  1
  Zr  Zr8  1  0.89411404  0.10076674  0.70757840  1
  Zr  Zr9  1  0.70230813  0.29243961  0.30522672  1
  Zr  Zr10  1  0.50740066  0.70431029  0.89763620  1
  Zr  Zr11  1  0.29916378  0.70080078  0.09439135  1
  Zr  Zr12  1  0.28904507  0.89748503  0.10685895  1
  Zr  Zr13  1  0.90000704  0.50402496  0.50243086  1
  Zr  Zr14  1  0.89151748  0.89916204  0.69766286  1
  Zr  Zr15  1  0.10057732  0.89662051  0.90744845  1
  Zr  Zr16  1  0.50191061  0.30568383  0.90247951  1
  Zr  Zr17  1  0.89513247  0.30080944  0.29721097  1
  Zr  Zr18  1  0.70410211  0.90689552  0.50247020  1
  Zr  Zr19  1  0.30230469  0.10082252  0.29730852  1
  Zr  Zr20  1  0.89960836  0.70280484  0.10564875  1
  Zr  Zr21  1  0.10182893  0.49323709  0.49729084  1
  Zr  Zr22  1  0.49936940  0.69831947  0.70738820  1
  Zr  Zr23  1  0.30414148  0.29754858  0.30613978  1
  Zr  Zr24  1  0.89994795  0.69451446  0.69573715  1
  Zr  Zr25  1  0.89272048  0.69291225  0.89783840  1
  Zr  Zr26  1  0.29560415  0.90135084  0.49677395  1
  Zr  Zr27  1  0.50662512  0.70318698  0.31080139  1
  Zr  Zr28  1  0.10194023  0.71496912  0.09754156  1
  Zr  Zr29  1  0.29788410  0.90137524  0.30517649  1
  Zr  Zr30  1  0.70061873  0.30353649  0.10933014  1
  Zr  Zr31  1  0.89839361  0.49697310  0.69590277  1
  Zr  Zr32  1  0.11406064  0.29601061  0.50472398  1
  Zr  Zr33  1  0.70560057  0.70564235  0.09519034  1
  Zr  Zr34  1  0.68323474  0.89649136  0.29361689  1
  Zr  Zr35  1  0.89193349  0.09163618  0.49723336  1
  Zr  Zr36  1  0.69639831  0.10634234  0.49474016  1
  Zr  Zr37  1  0.30405014  0.69676907  0.90061833  1
  Zr  Zr38  1  0.50249670  0.69832938  0.08641523  1
  Zr  Zr39  1  0.09826078  0.10049537  0.89646290  1
  Zr  Zr40  1  0.08815443  0.69905228  0.29236083  1
  Zr  Zr41  1  0.69473180  0.09934022  0.30443851  1
  Zr  Zr42  1  0.89502252  0.30940387  0.50230653  1
  Zr  Zr43  1  0.50552248  0.50156653  0.69321901  1
  Zr  Zr44  1  0.91209830  0.10264131  0.10359298  1
  Zr  Zr45  1  0.49764216  0.49437090  0.50440323  1
  Zr  Zr46  1  0.29050082  0.10905876  0.49677499  1
  Zr  Zr47  1  0.09457812  0.50525750  0.29901629  1
  Zr  Zr48  1  0.28931494  0.29656829  0.69891560  1
  Zr  Zr49  1  0.49785961  0.89518655  0.48660133  1
  Sc  Sc50  1  0.90212251  0.30481550  0.89375975  1
  Sc  Sc51  1  0.50127425  0.31066606  0.69285335  1
  Sc  Sc52  1  0.09616095  0.50041078  0.10164043  1
  Sc  Sc53  1  0.10724126  0.91174353  0.70547148  1
  Sc  Sc54  1  0.09648801  0.08842184  0.29961707  1
  Sc  Sc55  1  0.29596724  0.09217912  0.70300728  1
  Sc  Sc56  1  0.50210783  0.09593267  0.91056513  1
  Sc  Sc57  1  0.70926441  0.30733009  0.89391397  1
  Sc  Sc58  1  0.89996577  0.10095043  0.89874275  1
  Sc  Sc59  1  0.69073699  0.09686104  0.09628695  1
  Sc  Sc60  1  0.50049212  0.10360564  0.10546725  1
  Sc  Sc61  1  0.08321905  0.30500895  0.09969197  1
  Sc  Sc62  1  0.70154158  0.69513922  0.49722709  1
  Sc  Sc63  1  0.70882200  0.49840545  0.89875290  1
  Sc  Sc64  1  0.69809212  0.50121812  0.51149154  1
  Sc  Sc65  1  0.09745776  0.49320881  0.90219701  1
  Sc  Sc66  1  0.10148283  0.90628714  0.48213570  1
  Sc  Sc67  1  0.30415014  0.70136694  0.48814712  1
  Sc  Sc68  1  0.70489802  0.09541207  0.89945707  1
  Sc  Sc69  1  0.70762351  0.49956785  0.10125431  1
  Sc  Sc70  1  0.09733604  0.49691861  0.70489490  1
  Sc  Sc71  1  0.70302562  0.90299840  0.70983666  1
  Sc  Sc72  1  0.31026812  0.30131930  0.09707736  1
  Sc  Sc73  1  0.50460473  0.68534131  0.49869424  1
  Sc  Sc74  1  0.91238482  0.89415259  0.30126883  1
  Sc  Sc75  1  0.30761115  0.90286933  0.89901282  1
  Sc  Sc76  1  0.70112176  0.90258404  0.90206368  1
  Sc  Sc77  1  0.50312626  0.89976853  0.89886890  1
  Sc  Sc78  1  0.10593287  0.31095307  0.30304557  1
  Sc  Sc79  1  0.89163887  0.90596158  0.90203158  1
  Sc  Sc80  1  0.49625882  0.90347565  0.71206408  1
  Sc  Sc81  1  0.49241897  0.09867863  0.69543199  1
  Sc  Sc82  1  0.90119885  0.49531114  0.09442797  1
  Sc  Sc83  1  0.28960627  0.70114620  0.29944892  1
  Sc  Sc84  1  0.30140742  0.30356425  0.49758356  1
  Sc  Sc85  1  0.29125053  0.49663318  0.30129433  1
  Sc  Sc86  1  0.70630464  0.49855446  0.29709799  1
  Sc  Sc87  1  0.49986738  0.29085428  0.30069632  1
  Sc  Sc88  1  0.29891841  0.31113436  0.90178760  1
  Sc  Sc89  1  0.10733890  0.10573975  0.70855146  1
  Sc  Sc90  1  0.29734047  0.49730188  0.09008490  1
  Sc  Sc91  1  0.30799253  0.49956566  0.70474398  1
  Sc  Sc92  1  0.69687669  0.49306628  0.69910445  1
  Sc  Sc93  1  0.49155272  0.29533698  0.50115048  1
  Sc  Sc94  1  0.10226971  0.69874241  0.48901845  1
  Sc  Sc95  1  0.50328991  0.29211202  0.10382108  1
  Sc  Sc96  1  0.09989732  0.69153686  0.90612600  1
  Sc  Sc97  1  0.49722368  0.50075572  0.89545331  1
  Sc  Sc98  1  0.50365319  0.50082466  0.31097296  1
  Sc  Sc99  1  0.89555756  0.89688380  0.49610235  1
  Nb  Nb100  1  0.29930146  0.70225905  0.70124996  1
  Nb  Nb101  1  0.90033175  0.49278620  0.89889637  1
  Nb  Nb102  1  0.70151741  0.30100357  0.70110982  1
  Nb  Nb103  1  0.29701238  0.10299401  0.89979695  1
  Nb  Nb104  1  0.90565306  0.51618390  0.30024540  1
  Nb  Nb105  1  0.50197285  0.09544823  0.30470510  1
  Nb  Nb106  1  0.90028687  0.90127585  0.09845652  1
  Nb  Nb107  1  0.09961118  0.09906979  0.10102195  1
  Nb  Nb108  1  0.09363712  0.90290723  0.10833371  1
  Nb  Nb109  1  0.10193047  0.69879986  0.70070330  1
  Nb  Nb110  1  0.09485185  0.10351401  0.49837550  1
  Nb  Nb111  1  0.89515531  0.29879138  0.09862119  1
  Nb  Nb112  1  0.30501754  0.49565194  0.50078958  1
  Nb  Nb113  1  0.50358125  0.49924860  0.10115913  1
  Nb  Nb114  1  0.89547103  0.68847649  0.29983056  1
  Nb  Nb115  1  0.70013370  0.70751196  0.90010979  1
  Nb  Nb116  1  0.69784368  0.29978874  0.50270372  1
  Nb  Nb117  1  0.09631138  0.29703057  0.70309830  1
  Nb  Nb118  1  0.49799105  0.90159478  0.30000677  1
  Nb  Nb119  1  0.69920874  0.10427506  0.69829076  1
  Nb  Nb120  1  0.70521700  0.69253207  0.29256243  1
  Nb  Nb121  1  0.89700433  0.29773532  0.70427291  1
  Nb  Nb122  1  0.10633451  0.89739637  0.28861413  1
  Nb  Nb123  1  0.29515808  0.49408903  0.90057478  1
  Nb  Nb124  1  0.50130867  0.10131143  0.49577503  1
  Nb  Nb125  1  0.40170276  0.20171998  0.80314776  1
  Nb  Nb126  1  0.00289814  0.79648197  0.79409286  1
  Nb  Nb127  1  0.40591708  0.40771053  0.19914212  1
  Nb  Nb128  1  0.19715463  0.19753373  0.19259182  1
  Nb  Nb129  1  0.19553215  0.00530968  0.00639328  1
  Nb  Nb130  1  0.20478677  0.60495155  0.60181031  1
  Nb  Nb131  1  0.00037946  0.00351765  0.59816685  1
  Nb  Nb132  1  0.00913305  0.80368260  0.60363095  1
  Nb  Nb133  1  0.80494600  0.20570918  0.00611472  1
  Nb  Nb134  1  -0.00322202  0.19943576  0.60106382  1
  Nb  Nb135  1  0.19556341  0.19657263  0.00295538  1
  Nb  Nb136  1  0.60040625  0.40091270  0.00495599  1
  Nb  Nb137  1  0.79762378  0.20524896  0.60435310  1
  Nb  Nb138  1  0.40611036  0.60093344  0.19671430  1
  Nb  Nb139  1  0.19873887  0.79406059  0.79673575  1
  Nb  Nb140  1  0.59976013  0.20247373  0.79501467  1
  Nb  Nb141  1  0.59888322  0.00070828  0.59658708  1
  Nb  Nb142  1  0.59882872  0.60344503  0.19864198  1
  Nb  Nb143  1  0.80246793  -0.00502986  0.19602785  1
  Nb  Nb144  1  0.20061513  0.79656170  0.60441797  1
  Nb  Nb145  1  0.39947390  0.79842184  0.60127566  1
  Nb  Nb146  1  0.40601987  0.79826712  0.20267592  1
  Nb  Nb147  1  0.00007899  0.20119582  0.40765017  1
  Nb  Nb148  1  0.59517956  0.80435474  0.60252188  1
  Nb  Nb149  1  0.60474905  0.39351401  0.40524593  1
  Pd  Pd150  1  -0.00132904  0.39629963  0.39712751  1
  Pd  Pd151  1  0.40554813  -0.00615390  0.19956162  1
  Pd  Pd152  1  0.00465754  0.39290468  0.60495626  1
  Pd  Pd153  1  0.20472341  0.41023466  0.60722515  1
  Pd  Pd154  1  0.40024808  0.81049307  0.00349726  1
  Pd  Pd155  1  0.39424316  0.20017946  0.60555879  1
  Pd  Pd156  1  -0.00106701  0.59679851  0.00303706  1
  Pd  Pd157  1  0.79535325  0.59278901  0.79632814  1
  Pd  Pd158  1  -0.00858903  0.40452389  0.20343979  1
  Pd  Pd159  1  0.00373518  0.79843092  0.40151962  1
  Pd  Pd160  1  0.60976936  0.79461734  0.40765028  1
  Pd  Pd161  1  0.79291628  0.59226837  0.40368925  1
  Pd  Pd162  1  0.19134945  -0.00043149  0.59431446  1
  Pd  Pd163  1  0.00058648  -0.00213373  -0.00068207  1
  Pd  Pd164  1  0.59465824  0.79028586  0.19554451  1
  Pd  Pd165  1  0.79348719  0.18717061  0.19153568  1
  Pd  Pd166  1  0.79354825  0.79527836  0.59985322  1
  Pd  Pd167  1  0.79459511  0.40937910  0.40050479  1
  Pd  Pd168  1  -0.01087741  0.79974500  -0.00855003  1
  Pd  Pd169  1  0.60697207  0.59204909  0.80614340  1
  Pd  Pd170  1  0.39357910  0.60621061  0.59733426  1
  Pd  Pd171  1  0.00062886  0.59727721  0.80499246  1
  Pd  Pd172  1  -0.00109675  0.20784189  -0.00881030  1
  Pd  Pd173  1  0.39880937  0.39560118  0.79527293  1
  Pd  Pd174  1  0.01031634  0.60503865  0.59227453  1
  Pd  Pd175  1  0.20107179  0.59564545  0.79878657  1
  Pd  Pd176  1  0.80645366  0.80669416  0.20910442  1
  Pd  Pd177  1  0.61080627  0.59045699  -0.00143007  1
  Pd  Pd178  1  0.39672772  0.00735564  0.40437205  1
  Pd  Pd179  1  0.39782787  -0.00378254  0.00155738  1
  Pd  Pd180  1  0.39581452  0.20302441  -0.00691620  1
  Pd  Pd181  1  0.40003678  0.59029750  -0.00291626  1
  Pd  Pd182  1  0.79263728  0.80150281  0.38918459  1
  Pd  Pd183  1  0.39903614  0.59715757  0.80434726  1
  Pd  Pd184  1  0.79871327  -0.01476068  0.38369632  1
  Pd  Pd185  1  0.20877821  0.39288766  0.19238450  1
  Pd  Pd186  1  0.01041554  0.20609691  0.21344352  1
  Pd  Pd187  1  0.19283561  0.39109284  0.00619841  1
  Pd  Pd188  1  0.80951837  0.40905263  0.20320410  1
  Pd  Pd189  1  0.20353102  0.60018888  0.19272297  1
  Pd  Pd190  1  0.19459001  0.59439523  0.00008123  1
  Pd  Pd191  1  0.20238645  0.59564661  0.40528425  1
  Pd  Pd192  1  0.40680703  -0.00451373  0.59188991  1
  Pd  Pd193  1  0.59882409  0.19931662  0.60418130  1
  Pd  Pd194  1  0.39285540  0.59478648  0.39176782  1
  Pd  Pd195  1  -0.00285769  -0.00621914  0.79542306  1
  Pd  Pd196  1  0.61367740  0.20816781  -0.01123635  1
  Pd  Pd197  1  0.59762833  0.00931013  0.79610863  1
  Pd  Pd198  1  0.59414878  0.40572911  0.20681165  1
  Pd  Pd199  1  0.80027090  0.59766184  0.00166473  1
  Rh  Rh200  1  -0.00475059  0.40324508  0.79628132  1
  Rh  Rh201  1  0.61216442  0.58930777  0.39293272  1
  Rh  Rh202  1  0.60366404  0.60875233  0.60630516  1
  Rh  Rh203  1  0.60175919  0.39742722  0.80520081  1
  Rh  Rh204  1  0.20270885  -0.00692875  0.81364706  1
  Rh  Rh205  1  0.19714176  0.19363791  0.60645254  1
  Rh  Rh206  1  0.00108252  0.00179803  0.40120333  1
  Rh  Rh207  1  0.60012451  0.39463841  0.59277170  1
  Rh  Rh208  1  0.19760016  0.00503704  0.39539413  1
  Rh  Rh209  1  0.60480838  0.80574178  -0.00696960  1
  Rh  Rh210  1  0.19662966  0.00494154  0.19731453  1
  Rh  Rh211  1  0.19014945  0.19626561  0.38593682  1
  Rh  Rh212  1  0.59605401  0.00042079  0.40364417  1
  Rh  Rh213  1  0.79591934  0.60113073  0.60248031  1
  Rh  Rh214  1  0.39819467  0.20579913  0.20458234  1
  Rh  Rh215  1  0.40424813  0.40139149  0.39544205  1
  Rh  Rh216  1  0.59941504  -0.00127155  -0.00032932  1
  Rh  Rh217  1  0.80822945  0.20543193  0.40864134  1
  Rh  Rh218  1  0.40324195  0.01476600  0.80857230  1
  Rh  Rh219  1  0.39816752  0.79644486  0.39640451  1
  Rh  Rh220  1  0.79629575  0.00164687  0.80210544  1
  Rh  Rh221  1  0.20012419  0.40535936  0.79586074  1
  Rh  Rh222  1  0.80027736  0.59730516  0.19509675  1
  Rh  Rh223  1  0.80629589  0.01342262  0.01002803  1
  Rh  Rh224  1  0.80473135  0.80030467  0.80768125  1
  Rh  Rh225  1  0.59897111  0.19271434  0.20622779  1
  Rh  Rh226  1  0.79174904  0.19944681  0.80309816  1
  Rh  Rh227  1  0.40888500  0.40535170  0.00545937  1
  Rh  Rh228  1  -0.00175579  0.20180426  0.79670788  1
  Rh  Rh229  1  0.59076541  0.20622590  0.40078640  1
  Rh  Rh230  1  0.60409349  0.80448624  0.79862890  1
  Rh  Rh231  1  -0.00377490  0.39813869  -0.00418912  1
  Rh  Rh232  1  0.79925612  0.39301453  0.00040607  1
  Rh  Rh233  1  0.79555595  0.39674338  0.60543441  1
  Rh  Rh234  1  -0.00062248  0.60125371  0.40606728  1
  Rh  Rh235  1  -0.00191235  0.60061276  0.18944259  1
  Rh  Rh236  1  -0.00583171  0.80018483  0.20077105  1
  Rh  Rh237  1  0.20842740  0.20461844  0.80635733  1
  Rh  Rh238  1  -0.00513139  -0.00584300  0.20124768  1
  Rh  Rh239  1  0.39656919  0.79735346  0.79996899  1
  Rh  Rh240  1  0.80542160  0.40431004  0.79509286  1
  Rh  Rh241  1  0.20155488  0.79575424  0.20433547  1
  Rh  Rh242  1  0.40337894  0.19385435  0.40196101  1
  Rh  Rh243  1  0.60065023  0.00573649  0.19996414  1
  Rh  Rh244  1  0.20474311  0.80717962  -0.00739386  1
  Rh  Rh245  1  0.20436124  0.40402261  0.40245251  1
  Rh  Rh246  1  0.39425154  0.39806095  0.60097834  1
  Rh  Rh247  1  0.79557364  0.00747462  0.60527142  1
  Rh  Rh248  1  0.80470304  0.79864980  -0.00659374  1
  Rh  Rh249  1  0.19360081  0.80101443  0.39597458  1
