# generated using pymatgen
data_ZrScNbPdRh
_symmetry_space_group_name_H-M   'P 1'
_cell_length_a   16.55579830
_cell_length_b   16.55797436
_cell_length_c   16.55804270
_cell_angle_alpha   89.99703065
_cell_angle_beta   89.99453239
_cell_angle_gamma   89.99409458
_symmetry_Int_Tables_number   1
_chemical_formula_structural   ZrScNbPdRh
_chemical_formula_sum   'Zr50 Sc50 Nb50 Pd50 Rh50'
_cell_volume   4539.06420152
_cell_formula_units_Z   50
loop_
 _symmetry_equiv_pos_site_id
 _symmetry_equiv_pos_as_xyz
  1  'x, y, z'
loop_
 _atom_site_type_symbol
 _atom_site_label
 _atom_site_symmetry_multiplicity
 _atom_site_fract_x
 _atom_site_fract_y
 _atom_site_fract_z
 _atom_site_occupancy
  Zr  Zr0  1  0.30228262  0.10044884  0.70025867  1
  Zr  Zr1  1  0.89013488  0.30688854  0.30254876  1
  Zr  Zr2  1  0.90213552  0.88552777  0.89828312  1
  Zr  Zr3  1  0.69825880  0.91108673  0.30675859  1
  Zr  Zr4  1  0.10961302  0.30175696  0.30039941  1
  Zr  Zr5  1  0.89879253  0.69468310  0.89960790  1
  Zr  Zr6  1  0.90372275  0.48848996  0.50049910  1
  Zr  Zr7  1  0.70437461  0.69616767  0.89770633  1
  Zr  Zr8  1  0.09293968  0.89936679  0.29614307  1
  Zr  Zr9  1  0.90212873  0.10272494  0.10066463  1
  Zr  Zr10  1  0.49420683  0.69863648  0.29838434  1
  Zr  Zr11  1  0.89625179  0.29963865  0.49820293  1
  Zr  Zr12  1  0.49743894  0.90310102  0.30517093  1
  Zr  Zr13  1  0.30466636  0.30530706  0.29544965  1
  Zr  Zr14  1  0.49259269  0.69120749  0.89882561  1
  Zr  Zr15  1  0.70569463  0.69375775  0.09325482  1
  Zr  Zr16  1  0.71142222  0.50366397  0.70260950  1
  Zr  Zr17  1  0.29530392  0.69585935  0.09802568  1
  Zr  Zr18  1  0.70212812  0.90761612  0.50482587  1
  Zr  Zr19  1  0.50230319  0.10837592  0.50374739  1
  Zr  Zr20  1  0.10379931  0.89570895  0.08700199  1
  Zr  Zr21  1  0.69640023  0.90158363  0.89992916  1
  Zr  Zr22  1  0.29925082  0.10418723  0.90303779  1
  Zr  Zr23  1  0.90564806  0.89965356  0.10232305  1
  Zr  Zr24  1  0.30510116  0.90015605  0.69435592  1
  Zr  Zr25  1  0.89425191  0.90032757  0.69416960  1
  Zr  Zr26  1  0.50318530  0.10139752  0.90621471  1
  Zr  Zr27  1  0.30377519  0.09882538  0.50842368  1
  Zr  Zr28  1  0.70026892  0.69886192  0.50179183  1
  Zr  Zr29  1  0.90265630  0.49778287  0.09256013  1
  Zr  Zr30  1  0.10266407  0.90133301  0.49988536  1
  Zr  Zr31  1  0.50060224  0.49774152  0.30165657  1
  Zr  Zr32  1  0.49986189  0.89676098  0.88743546  1
  Zr  Zr33  1  0.69840408  0.49173755  0.90486711  1
  Zr  Zr34  1  0.88946904  0.10007513  0.50494879  1
  Zr  Zr35  1  0.90049255  0.70779679  0.49888718  1
  Zr  Zr36  1  0.90530004  0.70087497  0.30026181  1
  Zr  Zr37  1  0.31004671  0.70001921  0.69392170  1
  Zr  Zr38  1  0.30652212  0.88842145  0.29719802  1
  Zr  Zr39  1  0.31041957  0.90268102  0.50364118  1
  Zr  Zr40  1  0.90226852  0.90053112  0.30211811  1
  Zr  Zr41  1  0.49656700  0.10894048  0.10166451  1
  Zr  Zr42  1  0.09972315  0.09720484  0.08969526  1
  Zr  Zr43  1  0.29933415  0.89120937  0.10047134  1
  Zr  Zr44  1  0.70242787  0.30118824  0.10407003  1
  Zr  Zr45  1  0.68866969  0.10624619  0.09371382  1
  Zr  Zr46  1  0.31212372  0.50814079  0.90103049  1
  Zr  Zr47  1  0.89961977  0.11167829  0.90526157  1
  Zr  Zr48  1  0.50186507  0.49133548  0.49401967  1
  Zr  Zr49  1  0.90081596  0.49495003  0.30185075  1
  Sc  Sc50  1  0.29708280  0.69443013  0.89135676  1
  Sc  Sc51  1  0.10310644  0.50637420  0.30423759  1
  Sc  Sc52  1  0.68589489  0.90025214  0.69549219  1
  Sc  Sc53  1  0.89054528  0.70367466  0.70104098  1
  Sc  Sc54  1  0.29655627  0.49703908  0.10088765  1
  Sc  Sc55  1  0.29670503  0.11027599  0.30775488  1
  Sc  Sc56  1  0.29787231  0.30294105  0.71071461  1
  Sc  Sc57  1  0.89791926  0.09439979  0.30045254  1
  Sc  Sc58  1  0.09957475  0.09457407  0.30345398  1
  Sc  Sc59  1  0.89240905  0.89827065  0.49351258  1
  Sc  Sc60  1  0.09219272  0.31044832  0.50989628  1
  Sc  Sc61  1  0.69819200  0.68782640  0.29665698  1
  Sc  Sc62  1  0.90010781  0.49175206  0.89912729  1
  Sc  Sc63  1  0.69931726  0.49866019  0.10267457  1
  Sc  Sc64  1  0.10189408  0.89216817  0.69984879  1
  Sc  Sc65  1  0.30202669  0.50201023  0.30048659  1
  Sc  Sc66  1  0.50035830  0.68904452  0.10314042  1
  Sc  Sc67  1  0.50050033  0.49842938  0.09132058  1
  Sc  Sc68  1  0.50099676  0.09910356  0.70045546  1
  Sc  Sc69  1  0.48620526  0.30055257  0.10378227  1
  Sc  Sc70  1  0.50213383  0.49456744  0.70098565  1
  Sc  Sc71  1  0.10587804  0.09669335  0.49871774  1
  Sc  Sc72  1  0.29606407  0.89966710  0.90493252  1
  Sc  Sc73  1  0.10187909  0.30904671  0.90149097  1
  Sc  Sc74  1  0.68932563  0.29480279  0.49468720  1
  Sc  Sc75  1  0.69791985  0.70071313  0.69532728  1
  Sc  Sc76  1  0.30398645  0.11517502  0.09200294  1
  Sc  Sc77  1  0.10797167  0.48558857  0.69973342  1
  Sc  Sc78  1  0.89205168  0.11282577  0.69577875  1
  Sc  Sc79  1  0.49498071  0.69054527  0.50571070  1
  Sc  Sc80  1  0.30087429  0.51058852  0.50469911  1
  Sc  Sc81  1  0.50355045  0.91241840  0.09323471  1
  Sc  Sc82  1  0.69217954  0.49776816  0.50549581  1
  Sc  Sc83  1  0.30653020  0.30017954  0.90453954  1
  Sc  Sc84  1  0.89686572  0.30759533  0.90048305  1
  Sc  Sc85  1  0.90270779  0.69378160  0.09141547  1
  Sc  Sc86  1  0.10336261  0.69399698  0.49867321  1
  Sc  Sc87  1  0.29477091  0.50388997  0.69748239  1
  Sc  Sc88  1  0.89616638  0.29933108  0.09089869  1
  Sc  Sc89  1  0.10975732  0.70194249  0.69967751  1
  Sc  Sc90  1  0.49713198  0.30541993  0.30765316  1
  Sc  Sc91  1  0.69377069  0.10064875  0.50197882  1
  Sc  Sc92  1  0.30288643  0.69207247  0.29624985  1
  Sc  Sc93  1  0.09812842  0.49905793  0.90428906  1
  Sc  Sc94  1  0.10368706  0.10325905  0.69583901  1
  Sc  Sc95  1  0.10067974  0.69451116  0.30163701  1
  Sc  Sc96  1  0.10732320  0.50195564  0.09480130  1
  Sc  Sc97  1  0.89746170  0.30782943  0.70109421  1
  Sc  Sc98  1  0.10282649  0.69368534  0.09264287  1
  Sc  Sc99  1  0.69696961  0.29435367  0.70984911  1
  Nb  Nb100  1  0.68979861  0.10773350  0.29911329  1
  Nb  Nb101  1  0.29863361  0.69638238  0.50035772  1
  Nb  Nb102  1  0.50449872  0.90921106  0.50344915  1
  Nb  Nb103  1  0.09486490  0.70741337  0.89758187  1
  Nb  Nb104  1  0.70066342  0.90000755  0.09630954  1
  Nb  Nb105  1  0.29418678  0.30191167  0.11135493  1
  Nb  Nb106  1  0.50190908  0.50031224  0.90052585  1
  Nb  Nb107  1  0.49722818  0.71187115  0.71126455  1
  Nb  Nb108  1  0.10578760  0.49912183  0.50360907  1
  Nb  Nb109  1  0.70211884  0.30744882  0.29915338  1
  Nb  Nb110  1  0.09857034  0.89777201  0.89910032  1
  Nb  Nb111  1  0.70051426  0.29207201  0.89874699  1
  Nb  Nb112  1  0.10940408  0.30680673  0.10665524  1
  Nb  Nb113  1  0.70338597  0.48519700  0.30082905  1
  Nb  Nb114  1  0.49700006  0.29776888  0.50492603  1
  Nb  Nb115  1  0.69950494  0.10174507  0.70494503  1
  Nb  Nb116  1  0.10312505  0.30047791  0.70368476  1
  Nb  Nb117  1  0.50511304  0.31322746  0.88813685  1
  Nb  Nb118  1  0.49640370  0.88982666  0.69562641  1
  Nb  Nb119  1  0.50016154  0.29390272  0.69622525  1
  Nb  Nb120  1  0.30718378  0.29731728  0.49709888  1
  Nb  Nb121  1  0.50880092  0.09954992  0.29853990  1
  Nb  Nb122  1  0.09910052  0.09531969  0.90063552  1
  Nb  Nb123  1  0.89890839  0.50151080  0.70552110  1
  Nb  Nb124  1  0.69889996  0.10916625  0.89532708  1
  Nb  Nb125  1  0.20390483  0.21002550  0.60092611  1
  Nb  Nb126  1  0.59910710  0.79706175  0.00052752  1
  Nb  Nb127  1  0.60514893  0.80333568  0.19842814  1
  Nb  Nb128  1  0.79545152  0.00338954  -0.00229322  1
  Nb  Nb129  1  0.00420146  0.39451120  0.19845505  1
  Nb  Nb130  1  0.39788873  0.00596656  0.20297029  1
  Nb  Nb131  1  0.19225503  0.00084190  0.80558141  1
  Nb  Nb132  1  -0.00335645  0.20592379  0.39876407  1
  Nb  Nb133  1  0.20331366  0.40126860  0.41010779  1
  Nb  Nb134  1  0.80159836  0.59203369  0.39928425  1
  Nb  Nb135  1  0.00652164  0.20004367  0.80056277  1
  Nb  Nb136  1  -0.00081145  0.59798530  0.79320158  1
  Nb  Nb137  1  -0.00365503  0.00027505  0.60435113  1
  Nb  Nb138  1  0.59680058  0.80219004  0.39956542  1
  Nb  Nb139  1  0.40116104  0.39059955  0.59708045  1
  Nb  Nb140  1  0.79052197  0.00041779  0.19446087  1
  Nb  Nb141  1  0.20572310  -0.00282457  0.19450247  1
  Nb  Nb142  1  -0.00096058  0.59253020  0.60500509  1
  Nb  Nb143  1  0.00361648  0.20696062  0.20080426  1
  Nb  Nb144  1  0.40468243  0.79608750  -0.00065143  1
  Nb  Nb145  1  0.79578845  0.80415965  0.19875989  1
  Nb  Nb146  1  0.20680070  0.79923854  0.40227794  1
  Nb  Nb147  1  0.79886962  0.00664672  0.80352043  1
  Nb  Nb148  1  0.59629490  0.59773378  0.80320236  1
  Nb  Nb149  1  -0.00114936  0.00366261  0.79994381  1
  Pd  Pd150  1  0.39756779  0.40484593  0.79200420  1
  Pd  Pd151  1  0.00491855  0.59197788  0.19421907  1
  Pd  Pd152  1  0.39690704  0.39722202  0.00382085  1
  Pd  Pd153  1  0.20889537  -0.00913141  0.39025696  1
  Pd  Pd154  1  0.80890698  0.59952165  0.59149767  1
  Pd  Pd155  1  -0.00828231  -0.00514979  -0.00847994  1
  Pd  Pd156  1  0.40228397  0.79017275  0.41091292  1
  Pd  Pd157  1  0.39955317  0.58942683  0.19376219  1
  Pd  Pd158  1  0.59109294  0.60141184  0.61212285  1
  Pd  Pd159  1  0.00185438  0.79739635  0.60160158  1
  Pd  Pd160  1  0.39920197  0.01149703  0.39548201  1
  Pd  Pd161  1  0.19130420  0.20918410  0.41332776  1
  Pd  Pd162  1  0.40873166  0.59212092  0.60615926  1
  Pd  Pd163  1  0.60435203  0.59994565  0.39761662  1
  Pd  Pd164  1  0.78940954  0.80627841  0.78966029  1
  Pd  Pd165  1  0.39481673  -0.00219468  0.79916433  1
  Pd  Pd166  1  0.80254420  0.19491880  0.20364524  1
  Pd  Pd167  1  0.78886458  0.79137633  0.39043713  1
  Pd  Pd168  1  0.40805436  0.20163487  0.80324682  1
  Pd  Pd169  1  0.20638669  0.80512683  0.80202313  1
  Pd  Pd170  1  0.20939750  0.40090821  -0.00406404  1
  Pd  Pd171  1  0.59224470  0.39749006  0.19782332  1
  Pd  Pd172  1  0.40722000  0.19615955  0.39435755  1
  Pd  Pd173  1  -0.00106776  0.40319953  0.61062153  1
  Pd  Pd174  1  -0.00331966  0.59886818  0.41025184  1
  Pd  Pd175  1  0.59303474  0.21537642  0.20640771  1
  Pd  Pd176  1  0.59010446  0.21637276  -0.00375725  1
  Pd  Pd177  1  0.79726347  0.19511562  0.39564025  1
  Pd  Pd178  1  -0.00619465  0.00674055  0.41123589  1
  Pd  Pd179  1  0.19127107  0.79553388  0.20613459  1
  Pd  Pd180  1  0.00681543  0.19659972  0.59924331  1
  Pd  Pd181  1  0.39470764  -0.00299092  0.00456174  1
  Pd  Pd182  1  0.19670719  0.18719253  0.19735628  1
  Pd  Pd183  1  0.78966655  0.39171027  0.59921520  1
  Pd  Pd184  1  0.19001636  0.59420833  0.79983815  1
  Pd  Pd185  1  0.60168110  0.59462035  0.20034010  1
  Pd  Pd186  1  0.19583801  0.20978516  -0.00322982  1
  Pd  Pd187  1  0.00174072  0.78950714  0.19165918  1
  Pd  Pd188  1  0.80405701  0.59804610  0.20417115  1
  Pd  Pd189  1  0.59310221  0.79616122  0.59006766  1
  Pd  Pd190  1  0.01008460  0.21476440  -0.00058359  1
  Pd  Pd191  1  0.60047851  0.39355865  0.60679791  1
  Pd  Pd192  1  0.59793582  -0.00179346  0.19688989  1
  Pd  Pd193  1  0.20327248  0.79592591  0.59231263  1
  Pd  Pd194  1  0.78707848  0.20862376  0.60156961  1
  Pd  Pd195  1  0.59823953  0.39167314  0.00456697  1
  Pd  Pd196  1  0.60539842  0.40336753  0.79285580  1
  Pd  Pd197  1  0.60052845  0.00369599  0.79442471  1
  Pd  Pd198  1  0.20620793  0.40578937  0.81098512  1
  Pd  Pd199  1  0.19429959  0.19767929  0.80078396  1
  Rh  Rh200  1  0.59935589  0.00368007  0.40820479  1
  Rh  Rh201  1  0.39358851  0.20686799  0.60870353  1
  Rh  Rh202  1  0.19252737  0.60177706  0.60257937  1
  Rh  Rh203  1  0.21315887  0.39252594  0.59354571  1
  Rh  Rh204  1  0.01392525  0.39623914  0.39239031  1
  Rh  Rh205  1  0.41214462  0.00048720  0.60434728  1
  Rh  Rh206  1  0.79377185  0.01239186  0.39410049  1
  Rh  Rh207  1  0.00742211  0.00983805  0.19683962  1
  Rh  Rh208  1  0.38927657  0.80402922  0.80578013  1
  Rh  Rh209  1  0.78717889  0.40456665  0.41291853  1
  Rh  Rh210  1  0.20440051  0.78958825  -0.01043095  1
  Rh  Rh211  1  0.20599401  0.60045789  0.40223494  1
  Rh  Rh212  1  0.39922000  0.40418042  0.19809624  1
  Rh  Rh213  1  0.79969284  0.80474816  0.00801938  1
  Rh  Rh214  1  0.59174836  0.20020382  0.80232508  1
  Rh  Rh215  1  0.59673449  0.20461789  0.39400778  1
  Rh  Rh216  1  0.80079263  0.59560821  0.80551914  1
  Rh  Rh217  1  0.40648188  0.79795224  0.59296278  1
  Rh  Rh218  1  0.79339626  0.20141490  -0.00135944  1
  Rh  Rh219  1  0.40100992  0.19599480  0.20881544  1
  Rh  Rh220  1  0.59593853  0.00409573  0.60566986  1
  Rh  Rh221  1  0.79312826  0.39617083  0.00026134  1
  Rh  Rh222  1  0.00465168  0.39793287  0.00869444  1
  Rh  Rh223  1  0.80694776  0.20230472  0.80056749  1
  Rh  Rh224  1  0.01346106  0.79829402  0.40443179  1
  Rh  Rh225  1  0.19974066  0.60196472  -0.00822527  1
  Rh  Rh226  1  0.19868462  0.41080469  0.20965441  1
  Rh  Rh227  1  0.80249818  0.58802624  -0.00487938  1
  Rh  Rh228  1  0.19858499  0.59917004  0.20016585  1
  Rh  Rh229  1  0.80640598  0.40261165  0.19029490  1
  Rh  Rh230  1  0.60170796  0.39369647  0.39833244  1
  Rh  Rh231  1  0.60227212  -0.00011672  -0.00641199  1
  Rh  Rh232  1  0.40637759  0.21228821  -0.00825981  1
  Rh  Rh233  1  0.79268783  0.80298914  0.60100283  1
  Rh  Rh234  1  0.79624585  0.39609429  0.80238679  1
  Rh  Rh235  1  0.60163344  0.60144690  -0.00712686  1
  Rh  Rh236  1  0.00068666  0.39854591  0.79778374  1
  Rh  Rh237  1  0.79862551  0.00246142  0.60853632  1
  Rh  Rh238  1  0.39728174  0.60191752  0.00555738  1
  Rh  Rh239  1  0.39284093  0.40572608  0.40776720  1
  Rh  Rh240  1  0.41910311  0.80834272  0.18419674  1
  Rh  Rh241  1  0.40759492  0.59401043  0.78928960  1
  Rh  Rh242  1  0.60236896  0.19956296  0.60631874  1
  Rh  Rh243  1  0.00436025  0.60055719  -0.01222860  1
  Rh  Rh244  1  0.39901664  0.59814176  0.40049154  1
  Rh  Rh245  1  0.20622690  0.00113746  -0.00098089  1
  Rh  Rh246  1  0.60390864  0.79057902  0.80499459  1
  Rh  Rh247  1  0.00205112  0.79310194  0.00234429  1
  Rh  Rh248  1  0.19363347  0.00420280  0.61038846  1
  Rh  Rh249  1  0.00165107  0.79436512  0.79430042  1
