# generated using pymatgen
data_ZrScNbPdRh
_symmetry_space_group_name_H-M   'P 1'
_cell_length_a   16.56197888
_cell_length_b   16.55763085
_cell_length_c   16.56514374
_cell_angle_alpha   89.99468179
_cell_angle_beta   90.08740988
_cell_angle_gamma   90.00967552
_symmetry_Int_Tables_number   1
_chemical_formula_structural   ZrScNbPdRh
_chemical_formula_sum   'Zr50 Sc50 Nb50 Pd50 Rh50'
_cell_volume   4542.60649420
_cell_formula_units_Z   50
loop_
 _symmetry_equiv_pos_site_id
 _symmetry_equiv_pos_as_xyz
  1  'x, y, z'
loop_
 _atom_site_type_symbol
 _atom_site_label
 _atom_site_symmetry_multiplicity
 _atom_site_fract_x
 _atom_site_fract_y
 _atom_site_fract_z
 _atom_site_occupancy
  Zr  Zr0  1  0.28933181  0.49152492  0.90105157  1
  Zr  Zr1  1  0.49887724  0.29632379  0.69876803  1
  Zr  Zr2  1  0.49886780  0.08896686  0.89523076  1
  Zr  Zr3  1  0.30552690  0.90511704  0.90982035  1
  Zr  Zr4  1  0.69848125  0.30776168  0.11030848  1
  Zr  Zr5  1  0.70402901  0.50211611  0.90342497  1
  Zr  Zr6  1  0.90003364  0.90560400  0.29966888  1
  Zr  Zr7  1  0.90137429  0.49605933  0.69558178  1
  Zr  Zr8  1  0.49839789  0.29132512  0.89206683  1
  Zr  Zr9  1  0.29745896  0.29362508  0.09752416  1
  Zr  Zr10  1  0.10478837  0.89834967  0.89872861  1
  Zr  Zr11  1  0.70129708  0.91001058  0.88560366  1
  Zr  Zr12  1  0.69294032  0.89561469  0.30599296  1
  Zr  Zr13  1  0.50988050  0.69677661  0.49750896  1
  Zr  Zr14  1  0.29903303  0.70014011  0.69329346  1
  Zr  Zr15  1  0.69284633  0.09985202  0.50437768  1
  Zr  Zr16  1  0.89968326  0.09012808  0.90497187  1
  Zr  Zr17  1  0.50527875  0.89889325  0.29925161  1
  Zr  Zr18  1  0.09013257  0.10320351  0.10471481  1
  Zr  Zr19  1  0.88163773  0.30596958  0.30285432  1
  Zr  Zr20  1  0.90169697  0.30019941  0.68790417  1
  Zr  Zr21  1  0.09851341  0.08910181  0.30011855  1
  Zr  Zr22  1  0.30372589  0.69943086  0.91391650  1
  Zr  Zr23  1  0.90272228  0.09974883  0.29116651  1
  Zr  Zr24  1  0.69472389  0.29736195  0.69199090  1
  Zr  Zr25  1  0.49796862  0.49373231  0.69432953  1
  Zr  Zr26  1  0.50575953  0.29886470  0.29838039  1
  Zr  Zr27  1  0.09670828  0.90384497  0.69969915  1
  Zr  Zr28  1  0.90081807  0.29350066  0.10593368  1
  Zr  Zr29  1  0.10353425  0.30539979  0.29782285  1
  Zr  Zr30  1  0.69292449  0.11792661  0.30785922  1
  Zr  Zr31  1  0.50933082  0.90195513  0.70349315  1
  Zr  Zr32  1  0.70934539  0.29508885  0.49136449  1
  Zr  Zr33  1  0.50321131  0.69975244  0.70031991  1
  Zr  Zr34  1  0.30261562  0.10013716  0.50883664  1
  Zr  Zr35  1  0.10124932  0.29305292  0.70991504  1
  Zr  Zr36  1  0.90282559  0.49381062  0.50286887  1
  Zr  Zr37  1  0.10269146  0.50051731  0.30311077  1
  Zr  Zr38  1  0.89982835  0.90112269  0.50504318  1
  Zr  Zr39  1  0.50326037  0.91059979  0.50042198  1
  Zr  Zr40  1  0.89654331  0.69855943  0.29728767  1
  Zr  Zr41  1  0.10344473  0.30781857  0.49795996  1
  Zr  Zr42  1  0.70081399  0.50036342  0.70002949  1
  Zr  Zr43  1  0.29155126  0.70592478  0.50557204  1
  Zr  Zr44  1  0.09153726  0.49283959  0.90064865  1
  Zr  Zr45  1  0.50094318  0.89607202  0.10206139  1
  Zr  Zr46  1  0.10384338  0.70900713  0.30164196  1
  Zr  Zr47  1  0.30245446  0.89531626  0.10243198  1
  Zr  Zr48  1  0.30762898  0.49891297  0.29604944  1
  Zr  Zr49  1  0.09743133  0.09960767  0.88753193  1
  Sc  Sc50  1  0.90578739  0.89950900  0.89649788  1
  Sc  Sc51  1  0.09983501  0.69727637  0.68731216  1
  Sc  Sc52  1  0.69957056  0.89888100  0.50949907  1
  Sc  Sc53  1  0.10509306  0.09997575  0.50511374  1
  Sc  Sc54  1  0.69537956  0.90743349  0.10883748  1
  Sc  Sc55  1  0.10122635  0.30120459  0.09901628  1
  Sc  Sc56  1  0.69787426  0.71137749  0.70172182  1
  Sc  Sc57  1  0.48735897  0.70133989  0.10488838  1
  Sc  Sc58  1  0.50899588  0.70463575  0.29537479  1
  Sc  Sc59  1  0.50805313  0.09216325  0.09498569  1
  Sc  Sc60  1  0.09598583  0.70075508  0.50010040  1
  Sc  Sc61  1  0.89845919  0.69625542  0.90516456  1
  Sc  Sc62  1  0.30293462  0.90338733  0.68986873  1
  Sc  Sc63  1  0.30242882  0.50531337  0.10261924  1
  Sc  Sc64  1  0.89874101  0.51489463  0.09771209  1
  Sc  Sc65  1  0.30398592  0.49611702  0.50155025  1
  Sc  Sc66  1  0.49457939  0.49156042  0.10495425  1
  Sc  Sc67  1  0.09933382  0.50086442  0.09938964  1
  Sc  Sc68  1  0.29316787  0.09688674  0.31359012  1
  Sc  Sc69  1  0.50463982  0.30033601  0.09830485  1
  Sc  Sc70  1  0.69929706  0.69840158  0.30968841  1
  Sc  Sc71  1  0.09722480  0.49888540  0.69511053  1
  Sc  Sc72  1  0.28195045  0.89816021  0.29881815  1
  Sc  Sc73  1  0.50102300  0.49606738  0.50037880  1
  Sc  Sc74  1  0.50511906  0.49260599  0.89860721  1
  Sc  Sc75  1  0.09841888  0.70087173  0.09702617  1
  Sc  Sc76  1  0.70706585  0.69566640  0.88958356  1
  Sc  Sc77  1  0.50138250  0.29872875  0.50596769  1
  Sc  Sc78  1  0.09661048  0.89824123  0.49559416  1
  Sc  Sc79  1  0.29444653  0.09556393  0.09513561  1
  Sc  Sc80  1  0.49920102  0.49405885  0.30315332  1
  Sc  Sc81  1  0.30480988  0.10245023  0.89830225  1
  Sc  Sc82  1  0.70902962  0.69878203  0.10606512  1
  Sc  Sc83  1  0.11104159  0.90184592  0.10139686  1
  Sc  Sc84  1  0.09465230  0.50623291  0.50136888  1
  Sc  Sc85  1  0.09281973  0.70486215  0.90935047  1
  Sc  Sc86  1  0.30019466  0.30822997  0.30444908  1
  Sc  Sc87  1  0.29447172  0.90376143  0.50065409  1
  Sc  Sc88  1  0.49806945  0.10244200  0.49859247  1
  Sc  Sc89  1  0.30242658  0.29520504  0.70971677  1
  Sc  Sc90  1  0.90047929  0.10628600  0.50854209  1
  Sc  Sc91  1  0.30146090  0.29582151  0.49633544  1
  Sc  Sc92  1  0.90098170  0.50300923  0.30114603  1
  Sc  Sc93  1  0.91959478  0.30252545  0.89470380  1
  Sc  Sc94  1  0.49474534  0.10213331  0.69372173  1
  Sc  Sc95  1  0.11110449  0.30514160  0.90038884  1
  Sc  Sc96  1  0.89448533  0.89708872  0.69574969  1
  Sc  Sc97  1  0.69250810  0.49834296  0.49272360  1
  Sc  Sc98  1  0.90185314  0.69852016  0.49548508  1
  Sc  Sc99  1  0.30028697  0.70197571  0.10845823  1
  Nb  Nb100  1  0.10365933  0.10245074  0.70025395  1
  Nb  Nb101  1  0.89422135  0.69634788  0.69932081  1
  Nb  Nb102  1  0.89993712  0.70710520  0.09843719  1
  Nb  Nb103  1  0.89506776  0.09189471  0.09872527  1
  Nb  Nb104  1  0.30144986  0.29723606  0.90094652  1
  Nb  Nb105  1  0.70591958  0.10021823  0.89565439  1
  Nb  Nb106  1  0.09640382  0.90236197  0.29803983  1
  Nb  Nb107  1  0.70945025  0.10075703  0.08977091  1
  Nb  Nb108  1  0.91010101  0.10445800  0.70330100  1
  Nb  Nb109  1  0.70046308  0.30818970  0.29953288  1
  Nb  Nb110  1  0.90003612  0.30258613  0.49932605  1
  Nb  Nb111  1  0.29545117  0.50380155  0.70037798  1
  Nb  Nb112  1  0.89095462  0.91167788  0.10329409  1
  Nb  Nb113  1  0.50106912  0.70209118  0.90040392  1
  Nb  Nb114  1  0.69933619  0.30044480  0.90004482  1
  Nb  Nb115  1  0.70065922  0.69624217  0.49772134  1
  Nb  Nb116  1  0.49908905  0.09826449  0.30536504  1
  Nb  Nb117  1  0.89556563  0.50422929  0.89707923  1
  Nb  Nb118  1  0.70266273  0.09090752  0.70486569  1
  Nb  Nb119  1  0.70227742  0.48651844  0.29283086  1
  Nb  Nb120  1  0.69519562  0.49640780  0.09489268  1
  Nb  Nb121  1  0.49987301  0.89699718  0.90141124  1
  Nb  Nb122  1  0.70222216  0.90636628  0.69891689  1
  Nb  Nb123  1  0.30371449  0.70279097  0.29944796  1
  Nb  Nb124  1  0.29092400  0.10503411  0.69534162  1
  Nb  Nb125  1  0.40146337  0.00363788  0.20695999  1
  Nb  Nb126  1  0.60307193  0.79646343  -0.00614668  1
  Nb  Nb127  1  0.80006845  0.19907854  0.80190412  1
  Nb  Nb128  1  -0.00308428  0.20746020  0.39857171  1
  Nb  Nb129  1  0.61169978  0.19661969  -0.00680493  1
  Nb  Nb130  1  0.20648486  0.79616949  0.80058129  1
  Nb  Nb131  1  0.60606233  0.59107782  0.19693686  1
  Nb  Nb132  1  0.79896088  0.80685282  0.00397582  1
  Nb  Nb133  1  0.59994618  0.60335025  0.00374020  1
  Nb  Nb134  1  0.39491093  0.39107798  -0.00606192  1
  Nb  Nb135  1  -0.00186550  0.59876254  0.79963164  1
  Nb  Nb136  1  -0.00699607  0.80708071  0.19755651  1
  Nb  Nb137  1  0.20761663  0.60356594  0.39694672  1
  Nb  Nb138  1  0.79841121  0.00418566  0.40074679  1
  Nb  Nb139  1  0.39739189  0.60933260  0.39850744  1
  Nb  Nb140  1  0.79690497  0.60415720  0.59773523  1
  Nb  Nb141  1  0.40386547  0.19026192  0.20496442  1
  Nb  Nb142  1  0.19895141  0.60277231  0.80111294  1
  Nb  Nb143  1  0.80012548  0.39411690  0.80354261  1
  Nb  Nb144  1  0.39610069  0.60107553  0.80069659  1
  Nb  Nb145  1  0.39823473  0.79723529  0.40011597  1
  Nb  Nb146  1  0.79998092  0.20149544  -0.00418725  1
  Nb  Nb147  1  0.40152554  0.79741170  0.80417664  1
  Nb  Nb148  1  0.20219335  0.39878924  0.60601920  1
  Nb  Nb149  1  0.80112211  0.39718768  -0.00376384  1
  Pd  Pd150  1  -0.00554558  0.00978738  0.41089876  1
  Pd  Pd151  1  0.40913034  0.58633072  -0.00360529  1
  Pd  Pd152  1  -0.00000370  0.19991947  -0.00480691  1
  Pd  Pd153  1  0.39301020  -0.00966599  0.39512883  1
  Pd  Pd154  1  0.19426969  0.00826303  -0.00096631  1
  Pd  Pd155  1  0.19271759  0.19828231  0.39878854  1
  Pd  Pd156  1  0.00695031  -0.00785574  0.00510740  1
  Pd  Pd157  1  0.20827017  0.19394635  0.20661887  1
  Pd  Pd158  1  0.79449748  0.59438971  0.20074702  1
  Pd  Pd159  1  0.19222334  0.60021707  -0.00089472  1
  Pd  Pd160  1  -0.00653349  0.40395892  0.19696174  1
  Pd  Pd161  1  -0.00884565  0.40457206  0.00945463  1
  Pd  Pd162  1  0.60396287  0.80157949  0.59785051  1
  Pd  Pd163  1  0.41050613  0.19715830  0.00707733  1
  Pd  Pd164  1  0.60278435  0.19025864  0.79796462  1
  Pd  Pd165  1  -0.00326743  0.39848000  0.39564668  1
  Pd  Pd166  1  0.39453707  -0.00332227  0.79024834  1
  Pd  Pd167  1  0.00984674  0.20106205  0.59267744  1
  Pd  Pd168  1  0.40165933  0.59805348  0.59583797  1
  Pd  Pd169  1  0.79926932  0.80308131  0.19783531  1
  Pd  Pd170  1  0.20985456  -0.00508178  0.79698163  1
  Pd  Pd171  1  0.79882995  0.80643718  0.40798799  1
  Pd  Pd172  1  0.19184241  0.19458599  -0.00666162  1
  Pd  Pd173  1  0.20379581  0.40394904  0.19336687  1
  Pd  Pd174  1  -0.00164570  0.79764660  0.60152193  1
  Pd  Pd175  1  0.40215775  0.20414451  0.39696082  1
  Pd  Pd176  1  0.19396150  -0.00349148  0.59681117  1
  Pd  Pd177  1  0.59779685  0.39545203  0.40331309  1
  Pd  Pd178  1  0.80461709  0.00547627  0.59964896  1
  Pd  Pd179  1  0.00132917  0.20642376  0.20865314  1
  Pd  Pd180  1  0.79781869  0.19276177  0.60618492  1
  Pd  Pd181  1  0.59647268  0.19336128  0.19051689  1
  Pd  Pd182  1  -0.00497036  -0.00403395  0.79368653  1
  Pd  Pd183  1  0.80444879  0.80225400  0.80499510  1
  Pd  Pd184  1  0.19805713  0.60337029  0.20253557  1
  Pd  Pd185  1  0.40700591  0.80654648  0.59623947  1
  Pd  Pd186  1  0.00349764  0.78886740  0.79313205  1
  Pd  Pd187  1  0.60400256  0.40051382  0.79883072  1
  Pd  Pd188  1  0.00389944  0.60822524  0.20022341  1
  Pd  Pd189  1  0.60746841  0.59793426  0.60050208  1
  Pd  Pd190  1  -0.00752565  0.81222629  0.01035283  1
  Pd  Pd191  1  0.39668645  0.40399402  0.80300365  1
  Pd  Pd192  1  0.60211057  0.01178898  0.20432460  1
  Pd  Pd193  1  0.39120339  0.39194875  0.59968225  1
  Pd  Pd194  1  0.59456372  0.59798680  0.80381032  1
  Pd  Pd195  1  -0.00411177  0.79960613  0.39516955  1
  Pd  Pd196  1  0.79513443  0.19555370  0.19594891  1
  Pd  Pd197  1  0.60635151  -0.00427875  -0.00404789  1
  Pd  Pd198  1  0.79736856  0.59098584  0.40410517  1
  Pd  Pd199  1  0.78422997  0.00749933  0.21156197  1
  Rh  Rh200  1  -0.00271012  0.19787961  0.80256569  1
  Rh  Rh201  1  0.19505632  -0.00356539  0.40562314  1
  Rh  Rh202  1  0.79142027  0.40633851  0.59557737  1
  Rh  Rh203  1  0.60398259  0.78649445  0.18829081  1
  Rh  Rh204  1  0.60086513  0.19589514  0.60097768  1
  Rh  Rh205  1  0.40210842  0.40201086  0.40342530  1
  Rh  Rh206  1  0.20571422  0.19513343  0.80479355  1
  Rh  Rh207  1  0.20029652  0.40287226  0.79202593  1
  Rh  Rh208  1  0.40610121  0.80323910  -0.00090497  1
  Rh  Rh209  1  0.79610438  -0.00601660  -0.00273956  1
  Rh  Rh210  1  0.00693471  0.60168031  0.39601865  1
  Rh  Rh211  1  0.20559931  0.39732963  0.00831269  1
  Rh  Rh212  1  0.39851028  0.38472514  0.18964162  1
  Rh  Rh213  1  0.40079713  0.00321368  0.60240490  1
  Rh  Rh214  1  0.59920228  0.80447362  0.80447848  1
  Rh  Rh215  1  0.39530066  0.19149488  0.79619637  1
  Rh  Rh216  1  0.79688729  0.79013147  0.59758970  1
  Rh  Rh217  1  0.39633486  0.81082728  0.21164922  1
  Rh  Rh218  1  0.80920885  0.19264119  0.40222087  1
  Rh  Rh219  1  0.40271863  0.00022589  0.00948578  1
  Rh  Rh220  1  0.59701426  0.59561315  0.38872582  1
  Rh  Rh221  1  -0.01051218  0.60630945  0.60324483  1
  Rh  Rh222  1  0.00505035  -0.00903290  0.18950437  1
  Rh  Rh223  1  0.20272382  0.00512317  0.20049014  1
  Rh  Rh224  1  -0.00358135  0.40554740  0.79567787  1
  Rh  Rh225  1  0.59661935  0.00410588  0.79555985  1
  Rh  Rh226  1  0.19929239  0.58918227  0.59385060  1
  Rh  Rh227  1  0.18894009  0.80979483  0.60348832  1
  Rh  Rh228  1  0.39587535  0.20137013  0.60199842  1
  Rh  Rh229  1  0.60757228  0.00158671  0.40199172  1
  Rh  Rh230  1  0.59750332  0.80239599  0.40953781  1
  Rh  Rh231  1  0.20263131  0.41251120  0.40898060  1
  Rh  Rh232  1  0.79820233  0.40762293  0.40544194  1
  Rh  Rh233  1  0.79603122  0.60468617  0.00436783  1
  Rh  Rh234  1  0.00072477  0.00462144  0.60468697  1
  Rh  Rh235  1  0.20158739  0.79927119  0.40192079  1
  Rh  Rh236  1  0.80882843  0.41114278  0.18898885  1
  Rh  Rh237  1  0.20099324  0.20841475  0.60330026  1
  Rh  Rh238  1  0.41071533  0.60138242  0.21010121  1
  Rh  Rh239  1  0.20194042  0.79838569  -0.00000781  1
  Rh  Rh240  1  0.01159259  0.39174967  0.60254077  1
  Rh  Rh241  1  0.59468452  0.40543139  0.20298006  1
  Rh  Rh242  1  0.59917325  0.00471484  0.60627260  1
  Rh  Rh243  1  0.59632770  0.39739816  -0.00097560  1
  Rh  Rh244  1  0.59337606  0.20769874  0.40582951  1
  Rh  Rh245  1  0.60259480  0.39650801  0.59410953  1
  Rh  Rh246  1  0.81151754  0.00401369  0.79014323  1
  Rh  Rh247  1  0.19290759  0.79668463  0.19617056  1
  Rh  Rh248  1  -0.00146397  0.59877007  -0.00525490  1
  Rh  Rh249  1  0.80643516  0.59521607  0.78885822  1
