# generated using pymatgen
data_ZrScNbPdRh
_symmetry_space_group_name_H-M   'P 1'
_cell_length_a   16.56125435
_cell_length_b   16.56116861
_cell_length_c   16.55888864
_cell_angle_alpha   89.99698037
_cell_angle_beta   89.97416634
_cell_angle_gamma   89.99583097
_symmetry_Int_Tables_number   1
_chemical_formula_structural   ZrScNbPdRh
_chemical_formula_sum   'Zr50 Sc50 Nb50 Pd50 Rh50'
_cell_volume   4541.66760067
_cell_formula_units_Z   50
loop_
 _symmetry_equiv_pos_site_id
 _symmetry_equiv_pos_as_xyz
  1  'x, y, z'
loop_
 _atom_site_type_symbol
 _atom_site_label
 _atom_site_symmetry_multiplicity
 _atom_site_fract_x
 _atom_site_fract_y
 _atom_site_fract_z
 _atom_site_occupancy
  Zr  Zr0  1  0.09334122  0.90652866  0.70509400  1
  Zr  Zr1  1  0.49294327  0.30850351  0.29878252  1
  Zr  Zr2  1  0.48965389  0.89907035  0.90111710  1
  Zr  Zr3  1  0.09744651  0.10439362  0.70371088  1
  Zr  Zr4  1  0.09790259  0.89932929  0.10438381  1
  Zr  Zr5  1  0.90073243  0.90052420  0.90358826  1
  Zr  Zr6  1  0.29968336  0.49987435  0.50862211  1
  Zr  Zr7  1  0.89686820  0.10173320  0.70026262  1
  Zr  Zr8  1  0.30253871  0.49933564  0.90118082  1
  Zr  Zr9  1  0.10531326  0.70189647  0.50011518  1
  Zr  Zr10  1  0.70113462  0.49275108  0.70293876  1
  Zr  Zr11  1  0.30040736  0.69178376  0.69348856  1
  Zr  Zr12  1  0.90019812  0.70351427  0.70028477  1
  Zr  Zr13  1  0.89572551  0.50465269  0.10537480  1
  Zr  Zr14  1  0.89155133  0.69975659  0.50568151  1
  Zr  Zr15  1  0.10387879  0.29697995  0.89651388  1
  Zr  Zr16  1  0.29396482  0.70095194  0.29261853  1
  Zr  Zr17  1  0.90426699  0.50412516  0.90129881  1
  Zr  Zr18  1  0.49662547  0.30577587  0.49787027  1
  Zr  Zr19  1  0.30708839  0.50064773  0.70006679  1
  Zr  Zr20  1  0.11225122  0.49635287  0.69668059  1
  Zr  Zr21  1  0.50286261  0.69666236  0.90497022  1
  Zr  Zr22  1  0.10548372  0.90224572  0.29183418  1
  Zr  Zr23  1  0.49264039  0.09329108  0.29489124  1
  Zr  Zr24  1  0.70869338  0.10016940  0.29947356  1
  Zr  Zr25  1  0.69072251  0.29746148  0.09356305  1
  Zr  Zr26  1  0.88718469  0.09879465  0.10477224  1
  Zr  Zr27  1  0.10058070  0.30636717  0.49637755  1
  Zr  Zr28  1  0.31012031  0.10439844  0.09892240  1
  Zr  Zr29  1  0.09641352  0.48689005  0.31120299  1
  Zr  Zr30  1  0.90237575  0.29561147  0.69826642  1
  Zr  Zr31  1  0.10455174  0.50447910  0.89990563  1
  Zr  Zr32  1  0.10973570  0.29520757  0.10441774  1
  Zr  Zr33  1  0.48660631  0.09743073  0.50563030  1
  Zr  Zr34  1  0.69256405  0.30624708  0.29916724  1
  Zr  Zr35  1  0.30077401  0.50068105  0.29981907  1
  Zr  Zr36  1  0.30651445  0.89682330  0.09977516  1
  Zr  Zr37  1  0.49734966  0.49760046  0.29768914  1
  Zr  Zr38  1  0.69668972  0.69525730  0.10333647  1
  Zr  Zr39  1  0.50511212  0.91179882  0.70033372  1
  Zr  Zr40  1  0.89955594  0.09448688  0.90042468  1
  Zr  Zr41  1  0.89696937  0.49602021  0.29710715  1
  Zr  Zr42  1  0.50518637  0.90721069  0.10565560  1
  Zr  Zr43  1  0.49540264  0.70188373  0.70269676  1
  Zr  Zr44  1  0.90551316  0.70474548  0.90518713  1
  Zr  Zr45  1  0.70127911  0.50751221  0.51256500  1
  Zr  Zr46  1  0.69880498  0.09828014  0.70119878  1
  Zr  Zr47  1  0.30571579  0.70833225  0.89841050  1
  Zr  Zr48  1  0.50147815  0.49430311  0.09679407  1
  Zr  Zr49  1  0.89623385  0.29884560  0.89084778  1
  Sc  Sc50  1  0.69611643  0.69857201  0.91221282  1
  Sc  Sc51  1  0.30296171  0.30474028  0.70571187  1
  Sc  Sc52  1  0.10601184  0.69983927  0.71149308  1
  Sc  Sc53  1  0.08876002  0.89552423  0.90450680  1
  Sc  Sc54  1  0.29845562  0.89791837  0.50865359  1
  Sc  Sc55  1  0.49834175  0.49622721  0.89922859  1
  Sc  Sc56  1  0.10340168  0.69983412  0.10022387  1
  Sc  Sc57  1  0.10624912  0.90709928  0.50549315  1
  Sc  Sc58  1  0.50307880  0.30550997  0.90012758  1
  Sc  Sc59  1  0.89984640  0.29889309  0.50767782  1
  Sc  Sc60  1  0.90298339  0.90004680  0.09259503  1
  Sc  Sc61  1  0.50593469  0.69578955  0.48931735  1
  Sc  Sc62  1  0.30854345  0.10548186  0.90215561  1
  Sc  Sc63  1  0.91049754  0.90734733  0.29559168  1
  Sc  Sc64  1  0.30495198  0.10819582  0.69613284  1
  Sc  Sc65  1  0.10888735  0.10339414  0.50855171  1
  Sc  Sc66  1  0.10132278  0.70649924  0.29366731  1
  Sc  Sc67  1  0.91348731  0.49195000  0.49689997  1
  Sc  Sc68  1  0.90032912  0.70125721  0.09572537  1
  Sc  Sc69  1  0.89057706  0.91177952  0.50392729  1
  Sc  Sc70  1  0.50429225  0.69753901  0.29331715  1
  Sc  Sc71  1  0.10032987  0.10217213  0.90392341  1
  Sc  Sc72  1  0.30353760  0.10508237  0.29552044  1
  Sc  Sc73  1  0.70444515  0.90409713  0.91157535  1
  Sc  Sc74  1  0.49498941  0.90237198  0.50176181  1
  Sc  Sc75  1  0.30236800  0.30172450  0.90779249  1
  Sc  Sc76  1  0.70737431  0.91195975  0.69340053  1
  Sc  Sc77  1  0.29845252  0.29541887  0.49210088  1
  Sc  Sc78  1  0.70225287  0.10442088  0.90538578  1
  Sc  Sc79  1  0.09750549  0.69706082  0.90221915  1
  Sc  Sc80  1  0.10397317  0.09666459  0.10410062  1
  Sc  Sc81  1  0.29805551  0.69569671  0.09604692  1
  Sc  Sc82  1  0.68678934  0.69893097  0.29948662  1
  Sc  Sc83  1  0.69650839  0.30203189  0.89520487  1
  Sc  Sc84  1  0.89948551  0.91047040  0.70530203  1
  Sc  Sc85  1  0.89741428  0.30167062  0.11042903  1
  Sc  Sc86  1  0.90196526  0.70093126  0.29606317  1
  Sc  Sc87  1  0.90258965  0.30031074  0.29456583  1
  Sc  Sc88  1  0.70768597  0.69115150  0.68159323  1
  Sc  Sc89  1  0.49318678  0.49750944  0.50071052  1
  Sc  Sc90  1  0.90069006  0.48897596  0.69720190  1
  Sc  Sc91  1  0.10978269  0.50682784  0.09688850  1
  Sc  Sc92  1  0.70280231  0.30025670  0.50740707  1
  Sc  Sc93  1  0.70963282  0.30093916  0.70296105  1
  Sc  Sc94  1  0.67906432  0.89514738  0.29410072  1
  Sc  Sc95  1  0.30158762  0.50240955  0.09561024  1
  Sc  Sc96  1  0.49781286  0.49559303  0.69932510  1
  Sc  Sc97  1  0.30800028  0.88409691  0.70545105  1
  Sc  Sc98  1  0.68710001  0.49688047  0.90023445  1
  Sc  Sc99  1  0.69439578  0.50469348  0.28281327  1
  Nb  Nb100  1  0.50240116  0.69872549  0.09148477  1
  Nb  Nb101  1  0.49342520  0.29697647  0.09986675  1
  Nb  Nb102  1  0.69155553  0.09117939  0.10305046  1
  Nb  Nb103  1  0.70182856  0.90478942  0.10347171  1
  Nb  Nb104  1  0.29630822  0.09838972  0.49423023  1
  Nb  Nb105  1  0.49905905  0.29630938  0.69985205  1
  Nb  Nb106  1  0.29860110  0.69942437  0.49894321  1
  Nb  Nb107  1  0.70202840  0.09624625  0.49939808  1
  Nb  Nb108  1  0.88575332  0.10114283  0.48622237  1
  Nb  Nb109  1  0.50043424  0.10239048  0.09830232  1
  Nb  Nb110  1  0.70254537  0.49856543  0.10050456  1
  Nb  Nb111  1  0.49442586  0.89641974  0.30029466  1
  Nb  Nb112  1  0.90258438  0.10119693  0.30761637  1
  Nb  Nb113  1  0.30547829  0.29180020  0.10060696  1
  Nb  Nb114  1  0.30345177  0.90266041  0.90380538  1
  Nb  Nb115  1  0.70205534  0.70691022  0.49712714  1
  Nb  Nb116  1  0.10165176  0.49849959  0.50049785  1
  Nb  Nb117  1  0.10876791  0.29322660  0.30514079  1
  Nb  Nb118  1  0.50048229  0.09406841  0.88951277  1
  Nb  Nb119  1  0.28723302  0.30219246  0.29757205  1
  Nb  Nb120  1  0.09257178  0.29288920  0.69863879  1
  Nb  Nb121  1  0.50413211  0.10380069  0.70409413  1
  Nb  Nb122  1  0.69546384  0.90270892  0.50016086  1
  Nb  Nb123  1  0.09973520  0.09487295  0.30221303  1
  Nb  Nb124  1  0.30145345  0.89990389  0.29182956  1
  Nb  Nb125  1  0.79735819  0.40724518  0.39784284  1
  Nb  Nb126  1  0.59774554  0.19367266  0.40174345  1
  Nb  Nb127  1  0.79385613  0.80306161  0.19980658  1
  Nb  Nb128  1  0.80121619  0.60277971  0.80098587  1
  Nb  Nb129  1  0.39447347  0.80165529  0.39317376  1
  Nb  Nb130  1  0.19928707  0.59797689  0.40517444  1
  Nb  Nb131  1  0.59684440  0.00427582  0.40224484  1
  Nb  Nb132  1  -0.00328383  0.20481122  0.00416042  1
  Nb  Nb133  1  0.00180451  0.19173961  0.39440786  1
  Nb  Nb134  1  0.20555824  -0.00405913  0.80691820  1
  Nb  Nb135  1  -0.00296561  0.80428278  0.40714221  1
  Nb  Nb136  1  0.60408210  0.80322440  0.59810364  1
  Nb  Nb137  1  0.59405146  0.19470398  0.19721870  1
  Nb  Nb138  1  0.00793327  0.60027583  0.59798927  1
  Nb  Nb139  1  0.79407035  0.79621003  0.80052646  1
  Nb  Nb140  1  0.20741801  -0.00419775  -0.00281015  1
  Nb  Nb141  1  0.60627919  0.80101689  0.79421547  1
  Nb  Nb142  1  -0.00148265  0.79897092  0.59816563  1
  Nb  Nb143  1  0.79533873  0.80071459  0.39803574  1
  Nb  Nb144  1  0.79711328  0.60121415  0.40118297  1
  Nb  Nb145  1  0.00054060  0.59415274  0.20320704  1
  Nb  Nb146  1  0.20639755  0.00193709  0.39410821  1
  Nb  Nb147  1  -0.00051762  0.39651841  0.00108864  1
  Nb  Nb148  1  0.59382186  0.19300049  0.60024467  1
  Nb  Nb149  1  0.80139292  0.40303951  0.00264166  1
  Pd  Pd150  1  0.80024644  0.21411763  0.40020791  1
  Pd  Pd151  1  0.41002332  0.79237767  0.58852557  1
  Pd  Pd152  1  0.39547985  0.60640181  0.40065948  1
  Pd  Pd153  1  0.20221370  0.19141648  0.20203000  1
  Pd  Pd154  1  0.79470491  0.59492730  -0.00633787  1
  Pd  Pd155  1  0.80267735  0.20620980  0.00110200  1
  Pd  Pd156  1  0.20238885  0.40423973  0.19458925  1
  Pd  Pd157  1  0.01189867  0.40288427  0.19353533  1
  Pd  Pd158  1  0.59881161  0.39093512  0.60545845  1
  Pd  Pd159  1  0.39043923  0.00329379  0.79244166  1
  Pd  Pd160  1  0.19594528  0.80295609  -0.00043032  1
  Pd  Pd161  1  0.19703057  0.80505004  0.80468594  1
  Pd  Pd162  1  0.40151016  0.59813140  0.80444621  1
  Pd  Pd163  1  0.39013170  -0.00107786  0.60954723  1
  Pd  Pd164  1  0.40416563  0.60418073  0.19137540  1
  Pd  Pd165  1  0.00209257  0.19288444  0.20158332  1
  Pd  Pd166  1  0.59549186  0.00189642  -0.00678277  1
  Pd  Pd167  1  0.00945819  0.00066629  0.41004678  1
  Pd  Pd168  1  0.39820552  0.20466522  0.39347307  1
  Pd  Pd169  1  0.39308552  -0.00926291  0.39950649  1
  Pd  Pd170  1  0.60875588  -0.00685086  0.81058850  1
  Pd  Pd171  1  0.38931328  0.39842196  0.19427011  1
  Pd  Pd172  1  0.80048219  -0.01078025  0.20714052  1
  Pd  Pd173  1  0.60766233  0.40825442  0.40549338  1
  Pd  Pd174  1  0.41230366  0.20009355  -0.01062224  1
  Pd  Pd175  1  0.40142805  0.20531988  0.80642363  1
  Pd  Pd176  1  0.20088759  0.39716042  0.00438894  1
  Pd  Pd177  1  0.60913179  0.60752725  0.79451416  1
  Pd  Pd178  1  0.21073447  -0.00102747  0.61011087  1
  Pd  Pd179  1  -0.00466610  0.19048327  0.58718787  1
  Pd  Pd180  1  -0.00598827  0.00539671  0.59145671  1
  Pd  Pd181  1  0.60277917  0.20541724  0.79712306  1
  Pd  Pd182  1  0.39729861  0.20649146  0.59956881  1
  Pd  Pd183  1  0.20376420  0.38863831  0.60134384  1
  Pd  Pd184  1  0.59269534  0.19631164  -0.00194710  1
  Pd  Pd185  1  0.00512427  0.40105343  0.79936046  1
  Pd  Pd186  1  0.20081807  0.80589221  0.39939999  1
  Pd  Pd187  1  0.20642987  0.19500024  0.80140933  1
  Pd  Pd188  1  0.19350365  0.80153426  0.60922244  1
  Pd  Pd189  1  0.00085472  0.60973168  0.39886432  1
  Pd  Pd190  1  0.60122241  0.80719488  -0.00002306  1
  Pd  Pd191  1  0.40636651  0.79187285  0.19768137  1
  Pd  Pd192  1  0.20561867  0.20882087  0.60228478  1
  Pd  Pd193  1  0.79085144  -0.01552131  0.38718440  1
  Pd  Pd194  1  0.20289296  0.39599796  0.79899788  1
  Pd  Pd195  1  0.79193601  0.20454423  0.19859186  1
  Pd  Pd196  1  -0.00534863  0.00697779  0.19358916  1
  Pd  Pd197  1  0.59018236  0.60555795  0.60043301  1
  Pd  Pd198  1  0.60549492  0.58946360  0.39931535  1
  Pd  Pd199  1  -0.00241065  0.59632216  0.78871661  1
  Rh  Rh200  1  0.40107513  0.60044644  -0.00105589  1
  Rh  Rh201  1  0.19586980  0.18969631  0.39709400  1
  Rh  Rh202  1  0.78890133  0.39288106  0.19766595  1
  Rh  Rh203  1  0.39035955  0.39912364  0.39842389  1
  Rh  Rh204  1  -0.00820183  0.80479416  0.79462551  1
  Rh  Rh205  1  0.39848747  0.39539390  0.00416741  1
  Rh  Rh206  1  0.80443308  0.40103193  0.59268810  1
  Rh  Rh207  1  0.20874787  0.60188107  0.80585596  1
  Rh  Rh208  1  0.40716505  0.79901858  0.80167503  1
  Rh  Rh209  1  -0.00802619  0.38207444  0.39945364  1
  Rh  Rh210  1  0.79642608  0.19520541  0.79867931  1
  Rh  Rh211  1  0.40217510  0.20805926  0.20460998  1
  Rh  Rh212  1  0.00731117  0.00575318  0.80703233  1
  Rh  Rh213  1  0.20279835  0.80074674  0.18968758  1
  Rh  Rh214  1  0.40659523  0.60430316  0.59414376  1
  Rh  Rh215  1  0.59711912  0.00563127  0.20594739  1
  Rh  Rh216  1  0.59763119  0.59175146  0.00500613  1
  Rh  Rh217  1  0.59296926  0.81034398  0.40846966  1
  Rh  Rh218  1  0.59752660  0.79761586  0.18934508  1
  Rh  Rh219  1  0.79793034  0.81465596  0.59955321  1
  Rh  Rh220  1  0.79788808  0.80358135  0.00402446  1
  Rh  Rh221  1  0.80238015  0.61320319  0.20581550  1
  Rh  Rh222  1  0.18930353  0.59274101  0.21314535  1
  Rh  Rh223  1  0.00624712  0.59635861  0.01130634  1
  Rh  Rh224  1  0.39841313  -0.00146232  0.19482494  1
  Rh  Rh225  1  0.60121420  0.40091557  0.00303233  1
  Rh  Rh226  1  0.59117138  0.59797152  0.19204540  1
  Rh  Rh227  1  0.00615005  0.01065487  0.00421456  1
  Rh  Rh228  1  0.79859192  0.00156376  0.00412190  1
  Rh  Rh229  1  0.59730650  0.39511845  0.19103616  1
  Rh  Rh230  1  0.81351565  0.58667527  0.60020228  1
  Rh  Rh231  1  0.40459984  0.39741599  0.80046890  1
  Rh  Rh232  1  0.00795354  0.40129616  0.60671208  1
  Rh  Rh233  1  0.40234828  0.00572800  0.00120856  1
  Rh  Rh234  1  0.20777705  0.40470364  0.40324741  1
  Rh  Rh235  1  0.79616039  0.41033864  0.81138529  1
  Rh  Rh236  1  0.20521115  0.60570427  -0.00903423  1
  Rh  Rh237  1  0.39795014  0.39417025  0.60130313  1
  Rh  Rh238  1  -0.00678836  0.79317048  0.20125490  1
  Rh  Rh239  1  0.59734969  0.00352100  0.59185437  1
  Rh  Rh240  1  0.59537493  0.39487715  0.79245728  1
  Rh  Rh241  1  -0.00103551  0.19726031  0.80586074  1
  Rh  Rh242  1  0.00367584  0.79623704  0.00636477  1
  Rh  Rh243  1  0.79460371  0.19420466  0.60059779  1
  Rh  Rh244  1  0.80264632  0.00779247  0.59830381  1
  Rh  Rh245  1  0.20939627  0.00388597  0.19873545  1
  Rh  Rh246  1  0.79628310  -0.00299269  0.80678188  1
  Rh  Rh247  1  0.19655258  0.19367677  0.00242142  1
  Rh  Rh248  1  0.19678232  0.60169869  0.59654350  1
  Rh  Rh249  1  0.40436419  0.79742192  0.00571152  1
