# generated using pymatgen
data_ZrScNbPdRh
_symmetry_space_group_name_H-M   'P 1'
_cell_length_a   16.56527480
_cell_length_b   16.56781410
_cell_length_c   16.56424506
_cell_angle_alpha   90.02805940
_cell_angle_beta   90.02141763
_cell_angle_gamma   90.01398143
_symmetry_Int_Tables_number   1
_chemical_formula_structural   ZrScNbPdRh
_chemical_formula_sum   'Zr50 Sc50 Nb50 Pd50 Rh50'
_cell_volume   4546.06257518
_cell_formula_units_Z   50
loop_
 _symmetry_equiv_pos_site_id
 _symmetry_equiv_pos_as_xyz
  1  'x, y, z'
loop_
 _atom_site_type_symbol
 _atom_site_label
 _atom_site_symmetry_multiplicity
 _atom_site_fract_x
 _atom_site_fract_y
 _atom_site_fract_z
 _atom_site_occupancy
  Zr  Zr0  1  0.90008060  0.49953371  0.90292838  1
  Zr  Zr1  1  0.69586130  0.49651559  0.69477882  1
  Zr  Zr2  1  0.09723395  0.89510496  0.10095448  1
  Zr  Zr3  1  0.50314919  0.10079511  0.10240868  1
  Zr  Zr4  1  0.29355090  0.49589833  0.50479610  1
  Zr  Zr5  1  0.70709960  0.90388146  0.68963566  1
  Zr  Zr6  1  0.69844844  0.88931633  0.90796592  1
  Zr  Zr7  1  0.49456384  0.09995086  0.48834182  1
  Zr  Zr8  1  0.89918350  0.89750391  0.69777816  1
  Zr  Zr9  1  0.30051942  0.50179228  0.69475697  1
  Zr  Zr10  1  0.49852159  0.31212508  0.09909151  1
  Zr  Zr11  1  0.89486628  0.50213630  0.49502677  1
  Zr  Zr12  1  0.49996114  0.89352581  0.69877991  1
  Zr  Zr13  1  0.89498836  0.50116835  0.70089532  1
  Zr  Zr14  1  0.49726680  0.08932172  0.90730296  1
  Zr  Zr15  1  0.90832357  0.90500991  0.88983339  1
  Zr  Zr16  1  0.88763287  0.89059103  0.50162392  1
  Zr  Zr17  1  0.49854275  0.89680668  0.30208333  1
  Zr  Zr18  1  0.09665140  0.49741575  0.89526150  1
  Zr  Zr19  1  0.69851836  0.30651012  0.89442987  1
  Zr  Zr20  1  0.49956343  0.89920059  0.89937943  1
  Zr  Zr21  1  0.09948492  0.10491413  0.49849814  1
  Zr  Zr22  1  0.89437206  0.09211722  0.70485376  1
  Zr  Zr23  1  0.29684942  0.09777545  0.09695009  1
  Zr  Zr24  1  0.09658178  0.69622595  0.31336700  1
  Zr  Zr25  1  0.30590789  0.30443511  0.50054557  1
  Zr  Zr26  1  0.50395187  0.69592124  0.90688213  1
  Zr  Zr27  1  0.09492133  0.30314768  0.30274699  1
  Zr  Zr28  1  0.30114612  0.90126825  0.90246390  1
  Zr  Zr29  1  0.50685512  0.09907803  0.29908920  1
  Zr  Zr30  1  0.70199050  0.50198000  0.49703245  1
  Zr  Zr31  1  0.31249189  0.09708463  0.30379236  1
  Zr  Zr32  1  0.09938655  0.89611576  0.49532730  1
  Zr  Zr33  1  0.49591630  0.70107148  0.68818717  1
  Zr  Zr34  1  0.50113109  0.89381589  0.50658432  1
  Zr  Zr35  1  0.90363180  0.10667928  0.50005897  1
  Zr  Zr36  1  0.90157986  0.89962840  0.10532502  1
  Zr  Zr37  1  0.09267440  0.50460457  0.09649653  1
  Zr  Zr38  1  0.89772296  0.89220067  0.29868526  1
  Zr  Zr39  1  0.31432411  0.90163876  0.69398809  1
  Zr  Zr40  1  0.69892239  0.30925093  0.50051609  1
  Zr  Zr41  1  0.90792391  0.30336258  0.50169030  1
  Zr  Zr42  1  0.70297618  0.10464414  0.10902571  1
  Zr  Zr43  1  0.10524342  0.70569611  0.89223709  1
  Zr  Zr44  1  0.69906605  0.09867648  0.89965044  1
  Zr  Zr45  1  0.09298969  0.29945584  0.50192939  1
  Zr  Zr46  1  0.50634764  0.50975481  0.29923042  1
  Zr  Zr47  1  0.90170436  0.50565162  0.09667550  1
  Zr  Zr48  1  0.49604196  0.08543955  0.70332468  1
  Zr  Zr49  1  0.70870249  0.70268253  0.10000158  1
  Sc  Sc50  1  0.50001848  0.50287705  0.90285368  1
  Sc  Sc51  1  0.30508212  0.70481787  0.10860715  1
  Sc  Sc52  1  0.69905800  0.30325958  0.10187168  1
  Sc  Sc53  1  0.29635326  0.09227540  0.50503208  1
  Sc  Sc54  1  0.49807034  0.30597115  0.49149410  1
  Sc  Sc55  1  0.70364252  0.49443933  0.10184326  1
  Sc  Sc56  1  0.09659051  0.29592594  0.89415799  1
  Sc  Sc57  1  0.70768977  0.89792757  0.30167837  1
  Sc  Sc58  1  0.30260669  0.50537337  0.89067837  1
  Sc  Sc59  1  0.70126425  0.31101233  0.70474269  1
  Sc  Sc60  1  0.49959096  0.31310368  0.90390876  1
  Sc  Sc61  1  0.90002146  0.30041338  0.30079864  1
  Sc  Sc62  1  0.70120674  0.68328372  0.69284906  1
  Sc  Sc63  1  0.90393650  0.10273322  0.10513910  1
  Sc  Sc64  1  0.29822315  0.69569326  0.70378226  1
  Sc  Sc65  1  0.29144776  0.31323356  0.70065979  1
  Sc  Sc66  1  0.69489543  0.08931731  0.49688135  1
  Sc  Sc67  1  0.09380425  0.09497358  0.29302281  1
  Sc  Sc68  1  0.90782791  0.69839548  0.09838937  1
  Sc  Sc69  1  0.31233638  0.30827471  0.29819968  1
  Sc  Sc70  1  0.30539556  0.30844272  0.10430540  1
  Sc  Sc71  1  0.49820075  0.31725034  0.70487068  1
  Sc  Sc72  1  0.69985206  0.30881941  0.29419711  1
  Sc  Sc73  1  0.70062077  0.69004828  0.91015233  1
  Sc  Sc74  1  0.29334625  0.89920579  0.10457318  1
  Sc  Sc75  1  0.09964509  0.50849085  0.50142058  1
  Sc  Sc76  1  0.10730489  0.50179302  0.70413132  1
  Sc  Sc77  1  0.89462899  0.09592456  0.28998097  1
  Sc  Sc78  1  0.09942523  0.89862793  0.90395178  1
  Sc  Sc79  1  0.50382541  0.69458640  0.10951155  1
  Sc  Sc80  1  0.29994558  0.90309488  0.49837811  1
  Sc  Sc81  1  0.70382706  0.09405391  0.70207287  1
  Sc  Sc82  1  0.90748920  0.10132231  0.88913064  1
  Sc  Sc83  1  0.70593837  0.88996757  0.10767739  1
  Sc  Sc84  1  0.70281881  0.69816906  0.49521061  1
  Sc  Sc85  1  0.09845140  0.09630433  0.09659119  1
  Sc  Sc86  1  0.09964606  0.29500281  0.09557688  1
  Sc  Sc87  1  0.30530834  0.50425312  0.30104969  1
  Sc  Sc88  1  0.28934480  0.68773182  0.49840894  1
  Sc  Sc89  1  0.08897305  0.89501798  0.71359746  1
  Sc  Sc90  1  0.50122727  0.89902371  0.10106415  1
  Sc  Sc91  1  0.50036564  0.30268506  0.30466248  1
  Sc  Sc92  1  0.89555009  0.30212962  0.10195123  1
  Sc  Sc93  1  0.49669884  0.49819011  0.49917387  1
  Sc  Sc94  1  0.30844508  0.49725196  0.10542514  1
  Sc  Sc95  1  0.10201610  0.89632754  0.29511895  1
  Sc  Sc96  1  0.29653129  0.89859422  0.29485030  1
  Sc  Sc97  1  0.09428608  0.30786683  0.69914983  1
  Sc  Sc98  1  0.68935454  0.70099993  0.30547272  1
  Sc  Sc99  1  0.10255361  0.10920995  0.69328250  1
  Nb  Nb100  1  0.10109965  0.69745626  0.09609467  1
  Nb  Nb101  1  0.89478195  0.29901008  0.88508103  1
  Nb  Nb102  1  0.70939247  0.50448810  0.30567065  1
  Nb  Nb103  1  0.70382118  0.10466335  0.29756108  1
  Nb  Nb104  1  0.90978423  0.70081891  0.49895883  1
  Nb  Nb105  1  0.49535710  0.50476312  0.70270151  1
  Nb  Nb106  1  0.49354045  0.49858785  0.09874784  1
  Nb  Nb107  1  0.90012862  0.69541427  0.31051634  1
  Nb  Nb108  1  0.89556044  0.29659533  0.70321171  1
  Nb  Nb109  1  0.29278135  0.29670495  0.90552412  1
  Nb  Nb110  1  0.49298134  0.69772701  0.30267708  1
  Nb  Nb111  1  0.29634998  0.70364816  0.90509854  1
  Nb  Nb112  1  0.50461508  0.70537993  0.49047181  1
  Nb  Nb113  1  0.09764186  0.50264391  0.29859452  1
  Nb  Nb114  1  0.09530904  0.70183931  0.50563026  1
  Nb  Nb115  1  0.90443330  0.50568747  0.30089551  1
  Nb  Nb116  1  0.29578272  0.10549023  0.90333630  1
  Nb  Nb117  1  0.89630852  0.69262776  0.89755931  1
  Nb  Nb118  1  0.70491280  0.50043027  0.89468005  1
  Nb  Nb119  1  0.11273487  0.10497455  0.90183976  1
  Nb  Nb120  1  0.70053257  0.89336423  0.49574765  1
  Nb  Nb121  1  0.30460104  0.69670952  0.29744108  1
  Nb  Nb122  1  0.30361670  0.09796247  0.70017879  1
  Nb  Nb123  1  0.90712709  0.70205349  0.69527360  1
  Nb  Nb124  1  0.09530534  0.70198623  0.69608909  1
  Nb  Nb125  1  0.20543421  0.00912269  0.80144671  1
  Nb  Nb126  1  0.20091320  0.40458541  -0.00271053  1
  Nb  Nb127  1  0.80079282  0.79105475  0.79735107  1
  Nb  Nb128  1  0.79576845  0.20407438  0.59826839  1
  Nb  Nb129  1  0.39596498  0.19886863  0.80285232  1
  Nb  Nb130  1  0.60490637  0.79453136  0.79597472  1
  Nb  Nb131  1  0.80282149  0.00270844  0.00015024  1
  Nb  Nb132  1  0.39796537  0.20062658  -0.00379581  1
  Nb  Nb133  1  0.39874214  0.79760250  -0.00204936  1
  Nb  Nb134  1  0.19992706  0.60241239  0.00290391  1
  Nb  Nb135  1  0.80014725  0.19938370  -0.00819288  1
  Nb  Nb136  1  0.19555873  0.39979678  0.39722873  1
  Nb  Nb137  1  -0.00213976  -0.00326704  0.59596571  1
  Nb  Nb138  1  0.59047445  0.19845460  0.79683906  1
  Nb  Nb139  1  0.20426916  0.20106050  0.20584593  1
  Nb  Nb140  1  -0.00485190  -0.00481659  0.40318533  1
  Nb  Nb141  1  0.19209800  0.79641969  0.60206591  1
  Nb  Nb142  1  -0.00028355  0.40977625  0.20208154  1
  Nb  Nb143  1  0.40442658  0.19925074  0.60944003  1
  Nb  Nb144  1  0.20185120  0.20466294  0.39471673  1
  Nb  Nb145  1  0.19406568  0.60206596  0.19995045  1
  Nb  Nb146  1  0.80458821  0.59850275  0.20953793  1
  Nb  Nb147  1  0.79558037  0.19888658  0.40061335  1
  Nb  Nb148  1  0.59617532  0.20072719  0.60485243  1
  Nb  Nb149  1  0.39974269  0.78966540  0.39707241  1
  Pd  Pd150  1  0.60475118  -0.00883641  0.39578391  1
  Pd  Pd151  1  0.60433314  0.41135833  -0.00205127  1
  Pd  Pd152  1  0.59081874  0.39933017  0.59806984  1
  Pd  Pd153  1  0.59745217  0.00271535  0.59553711  1
  Pd  Pd154  1  0.19486618  0.00522492  0.39030838  1
  Pd  Pd155  1  0.40094758  0.60255625  0.59111894  1
  Pd  Pd156  1  0.20966307  0.20816673  0.59813528  1
  Pd  Pd157  1  0.60826354  -0.00731412  0.20189303  1
  Pd  Pd158  1  0.80266238  0.00560436  0.40046112  1
  Pd  Pd159  1  0.00050157  0.40987067  0.60645490  1
  Pd  Pd160  1  0.79499637  0.78562105  0.60327772  1
  Pd  Pd161  1  0.40421569  0.78896544  0.80619207  1
  Pd  Pd162  1  0.39165974  0.60447463  0.00709724  1
  Pd  Pd163  1  0.18920454  -0.01280432  0.61380742  1
  Pd  Pd164  1  0.60849893  0.20471066  0.40165808  1
  Pd  Pd165  1  0.00107526  0.38721474  0.00003453  1
  Pd  Pd166  1  0.00121713  0.78978667  0.20436781  1
  Pd  Pd167  1  0.79853419  0.60156517  0.79832204  1
  Pd  Pd168  1  0.60624979  0.59107705  0.01032246  1
  Pd  Pd169  1  -0.00933891  0.20172660  -0.00591023  1
  Pd  Pd170  1  0.19434792  0.40207413  0.19856343  1
  Pd  Pd171  1  0.81522640  0.80349351  -0.00669149  1
  Pd  Pd172  1  0.61233358  0.79339136  0.60284133  1
  Pd  Pd173  1  0.60810970  -0.00711716  0.79833933  1
  Pd  Pd174  1  0.59828589  0.20730866  -0.00617347  1
  Pd  Pd175  1  0.00625535  0.19742123  0.79550134  1
  Pd  Pd176  1  0.39877087  0.59954559  0.40804623  1
  Pd  Pd177  1  0.20238371  0.20243094  0.78941654  1
  Pd  Pd178  1  0.59912089  0.40634371  0.20444415  1
  Pd  Pd179  1  -0.00436149  0.79501856  -0.00597530  1
  Pd  Pd180  1  -0.00030522  0.59372573  0.60121384  1
  Pd  Pd181  1  0.20659343  0.80853391  0.79042406  1
  Pd  Pd182  1  0.59845107  0.20987390  0.20369099  1
  Pd  Pd183  1  0.20863644  0.79663634  0.40458612  1
  Pd  Pd184  1  0.19633797  0.79065788  0.20222058  1
  Pd  Pd185  1  0.39388456  0.39893496  0.80493420  1
  Pd  Pd186  1  0.61007201  0.59676875  0.19558206  1
  Pd  Pd187  1  0.59286705  0.59711606  0.58954308  1
  Pd  Pd188  1  0.40004321  0.20383078  0.19407351  1
  Pd  Pd189  1  -0.00236327  0.00770351  -0.00270526  1
  Pd  Pd190  1  0.59843298  0.60057479  0.79906170  1
  Pd  Pd191  1  0.19539419  -0.00557193  -0.00219911  1
  Pd  Pd192  1  0.59936086  0.79775680  0.20368929  1
  Pd  Pd193  1  0.00293623  0.20607071  0.19990954  1
  Pd  Pd194  1  0.61094553  -0.00807603  0.01396289  1
  Pd  Pd195  1  0.80344815  0.39374906  0.39449247  1
  Pd  Pd196  1  0.80162665  0.39374776  -0.00246861  1
  Pd  Pd197  1  0.40151618  0.60514509  0.80030728  1
  Pd  Pd198  1  0.39906027  -0.00648374  0.19588539  1
  Pd  Pd199  1  0.00192719  0.60109588  0.79873176  1
  Rh  Rh200  1  0.59975025  0.59812991  0.40404796  1
  Rh  Rh201  1  0.39683944  0.40965191  0.39665558  1
  Rh  Rh202  1  -0.00263056  0.80364267  0.39976795  1
  Rh  Rh203  1  0.79828110  -0.00097125  0.19318257  1
  Rh  Rh204  1  0.02047894  0.01528961  0.79664088  1
  Rh  Rh205  1  0.38503185  0.78830841  0.58324423  1
  Rh  Rh206  1  0.79708754  0.79083781  0.39958649  1
  Rh  Rh207  1  -0.00486741  0.18697725  0.38612118  1
  Rh  Rh208  1  0.39648484  -0.00251178  0.00677434  1
  Rh  Rh209  1  0.38896162  0.00509808  0.80825531  1
  Rh  Rh210  1  0.78835699  0.20437822  0.79689420  1
  Rh  Rh211  1  0.19923788  0.00866172  0.20034081  1
  Rh  Rh212  1  0.59710323  0.80251848  0.39784125  1
  Rh  Rh213  1  0.00397548  0.41084745  0.39659579  1
  Rh  Rh214  1  0.80294624  0.00632511  0.58821359  1
  Rh  Rh215  1  0.79764327  0.20541460  0.20102211  1
  Rh  Rh216  1  0.80196207  0.40743777  0.79875466  1
  Rh  Rh217  1  0.20029726  0.60285728  0.80128012  1
  Rh  Rh218  1  0.20643137  0.20959839  0.01348203  1
  Rh  Rh219  1  0.18961641  0.40062069  0.59208305  1
  Rh  Rh220  1  0.19982599  0.39968610  0.80817286  1
  Rh  Rh221  1  0.59798226  0.41126698  0.80248832  1
  Rh  Rh222  1  0.00720082  0.61038940  -0.01428311  1
  Rh  Rh223  1  0.40029966  -0.01195915  0.40126866  1
  Rh  Rh224  1  0.41172574  0.40762673  0.20786175  1
  Rh  Rh225  1  0.00044936  -0.00664257  0.20362690  1
  Rh  Rh226  1  -0.00061475  0.60346480  0.20550679  1
  Rh  Rh227  1  0.19412731  0.60686728  0.60918946  1
  Rh  Rh228  1  -0.01293666  0.19505135  0.61432849  1
  Rh  Rh229  1  0.00420318  0.80510373  0.59713734  1
  Rh  Rh230  1  0.80699942  0.39693019  0.60319332  1
  Rh  Rh231  1  0.39056212  0.39944509  -0.00557283  1
  Rh  Rh232  1  0.40533374  0.00542605  0.58982012  1
  Rh  Rh233  1  0.40322623  0.80154778  0.20168260  1
  Rh  Rh234  1  0.00145861  0.59607985  0.40835243  1
  Rh  Rh235  1  0.79084208  -0.01353346  0.81191447  1
  Rh  Rh236  1  0.80835437  0.60268832  0.59306326  1
  Rh  Rh237  1  0.80389854  0.78423054  0.20970532  1
  Rh  Rh238  1  0.20607655  0.79473101  0.00818838  1
  Rh  Rh239  1  0.40440912  0.39966856  0.60342012  1
  Rh  Rh240  1  0.79655667  0.59642349  0.00659734  1
  Rh  Rh241  1  0.60092537  0.40825852  0.39447051  1
  Rh  Rh242  1  0.58926536  0.79808807  0.00237350  1
  Rh  Rh243  1  0.20036751  0.59324689  0.39218384  1
  Rh  Rh244  1  0.80054597  0.60664220  0.39947804  1
  Rh  Rh245  1  -0.00692976  0.39918395  0.79611790  1
  Rh  Rh246  1  0.39694310  0.59825914  0.19697779  1
  Rh  Rh247  1  0.81007388  0.40957331  0.20397044  1
  Rh  Rh248  1  0.39224845  0.19935742  0.40795310  1
  Rh  Rh249  1  -0.00980486  0.78777964  0.80598671  1
