# generated using pymatgen
data_ZrScNbPdRh
_symmetry_space_group_name_H-M   'P 1'
_cell_length_a   16.55667676
_cell_length_b   16.55798098
_cell_length_c   16.55657768
_cell_angle_alpha   90.02754820
_cell_angle_beta   89.98047216
_cell_angle_gamma   89.98291658
_symmetry_Int_Tables_number   1
_chemical_formula_structural   ZrScNbPdRh
_chemical_formula_sum   'Zr50 Sc50 Nb50 Pd50 Rh50'
_cell_volume   4538.90429732
_cell_formula_units_Z   50
loop_
 _symmetry_equiv_pos_site_id
 _symmetry_equiv_pos_as_xyz
  1  'x, y, z'
loop_
 _atom_site_type_symbol
 _atom_site_label
 _atom_site_symmetry_multiplicity
 _atom_site_fract_x
 _atom_site_fract_y
 _atom_site_fract_z
 _atom_site_occupancy
  Zr  Zr0  1  0.10107775  0.70109079  0.90530815  1
  Zr  Zr1  1  0.90325920  0.29761509  0.89590004  1
  Zr  Zr2  1  0.49409132  0.09987968  0.90048351  1
  Zr  Zr3  1  0.09708016  0.08746768  0.09662057  1
  Zr  Zr4  1  0.50202330  0.29478073  0.10683588  1
  Zr  Zr5  1  0.09981071  0.90810068  0.48934368  1
  Zr  Zr6  1  0.29379597  0.90001920  0.30318581  1
  Zr  Zr7  1  0.30147468  0.89870890  0.49992718  1
  Zr  Zr8  1  0.70518666  0.70159047  0.49374156  1
  Zr  Zr9  1  0.69448277  0.49296878  0.29711458  1
  Zr  Zr10  1  0.29921446  0.29376105  0.69882643  1
  Zr  Zr11  1  0.09873571  0.30863855  0.50187271  1
  Zr  Zr12  1  0.89029563  0.70387695  0.30867928  1
  Zr  Zr13  1  0.09900568  0.10141357  0.70500553  1
  Zr  Zr14  1  0.49720977  0.70563242  0.50122599  1
  Zr  Zr15  1  0.30508425  0.70158794  0.30595995  1
  Zr  Zr16  1  0.50152719  0.88778406  0.69754807  1
  Zr  Zr17  1  0.10135633  0.50163065  0.69348654  1
  Zr  Zr18  1  0.49963452  0.69623918  0.29939998  1
  Zr  Zr19  1  0.30516397  0.69898934  0.09876869  1
  Zr  Zr20  1  0.10202679  0.69861532  0.09947171  1
  Zr  Zr21  1  0.50343208  0.49132893  0.50006983  1
  Zr  Zr22  1  0.09808182  0.30583417  0.29871193  1
  Zr  Zr23  1  0.69414821  0.70829563  0.70784640  1
  Zr  Zr24  1  0.29605905  0.09427711  0.50812807  1
  Zr  Zr25  1  0.30554438  0.30396615  0.29236317  1
  Zr  Zr26  1  0.50301270  0.09366447  0.50577117  1
  Zr  Zr27  1  0.09931225  0.29434612  0.09374234  1
  Zr  Zr28  1  0.30111437  0.09538677  0.29454366  1
  Zr  Zr29  1  0.89553367  0.10301013  0.69861333  1
  Zr  Zr30  1  0.29626051  0.49893193  0.69454965  1
  Zr  Zr31  1  0.69525360  0.49396808  0.69866283  1
  Zr  Zr32  1  0.29929043  0.69582344  0.49269216  1
  Zr  Zr33  1  0.69850610  0.89275675  0.30511182  1
  Zr  Zr34  1  0.10154447  0.30632941  0.70766655  1
  Zr  Zr35  1  0.29419933  0.09620763  0.70696414  1
  Zr  Zr36  1  0.90048250  0.89935657  0.49914420  1
  Zr  Zr37  1  0.50133375  0.69337624  0.09567772  1
  Zr  Zr38  1  0.50333598  0.30680521  0.69918594  1
  Zr  Zr39  1  0.10697281  0.50470420  0.08792716  1
  Zr  Zr40  1  0.50299283  0.29328979  0.90855732  1
  Zr  Zr41  1  0.89688612  0.29847017  0.10302620  1
  Zr  Zr42  1  0.29948672  0.09794339  0.90068039  1
  Zr  Zr43  1  0.90579009  0.90583056  0.09856545  1
  Zr  Zr44  1  0.09840320  0.09617650  0.50252191  1
  Zr  Zr45  1  0.89772846  0.10215840  0.49764607  1
  Zr  Zr46  1  0.70221797  0.70677547  0.91115733  1
  Zr  Zr47  1  0.89229569  0.89957707  0.70392172  1
  Zr  Zr48  1  0.89840061  0.09998939  0.09894011  1
  Zr  Zr49  1  0.50420108  0.31035306  0.29991650  1
  Sc  Sc50  1  0.89337154  0.50294799  0.51116728  1
  Sc  Sc51  1  0.09996888  0.69672818  0.30245917  1
  Sc  Sc52  1  0.70808372  0.90055913  0.08421997  1
  Sc  Sc53  1  0.30299263  0.50214692  0.29877378  1
  Sc  Sc54  1  0.70468247  0.69749884  0.30086586  1
  Sc  Sc55  1  0.70183509  0.50000258  0.09926850  1
  Sc  Sc56  1  0.89881944  0.29461573  0.69556082  1
  Sc  Sc57  1  0.90512164  0.10044721  0.89408231  1
  Sc  Sc58  1  0.31084478  0.70801365  0.90743109  1
  Sc  Sc59  1  0.90373507  0.49936096  0.91265398  1
  Sc  Sc60  1  0.50722312  0.50557991  0.11014762  1
  Sc  Sc61  1  0.70621080  0.09168326  0.50019614  1
  Sc  Sc62  1  0.09738676  0.08457662  0.30041232  1
  Sc  Sc63  1  0.30238771  0.30075844  0.09875112  1
  Sc  Sc64  1  0.69096685  0.90376233  0.50275677  1
  Sc  Sc65  1  0.69901970  0.30580726  0.50516455  1
  Sc  Sc66  1  0.89229145  0.89613759  0.90137782  1
  Sc  Sc67  1  0.49647401  0.30465790  0.50459320  1
  Sc  Sc68  1  0.49702096  0.10387809  0.09545989  1
  Sc  Sc69  1  0.90066991  0.50006766  0.10191921  1
  Sc  Sc70  1  0.70216395  0.29566341  0.29265830  1
  Sc  Sc71  1  0.29739263  0.50322475  0.90597348  1
  Sc  Sc72  1  0.69273589  0.09674861  0.10379896  1
  Sc  Sc73  1  0.10344846  0.50074385  0.29829042  1
  Sc  Sc74  1  0.10519945  0.90733924  0.90667561  1
  Sc  Sc75  1  0.29683060  0.50297816  0.49763719  1
  Sc  Sc76  1  0.50537241  0.89868612  0.50010548  1
  Sc  Sc77  1  0.89151085  0.10368863  0.29805990  1
  Sc  Sc78  1  0.90894568  0.70395670  0.69720716  1
  Sc  Sc79  1  0.49445721  0.89972092  0.30213285  1
  Sc  Sc80  1  0.89500850  0.29850128  0.29248732  1
  Sc  Sc81  1  0.89506540  0.49724681  0.29194704  1
  Sc  Sc82  1  0.10203498  0.50114843  0.50282342  1
  Sc  Sc83  1  0.49625169  0.90765195  0.89382067  1
  Sc  Sc84  1  0.09658936  0.69317467  0.50599123  1
  Sc  Sc85  1  0.49545051  0.08870102  0.70813592  1
  Sc  Sc86  1  0.09233011  0.90589105  0.70055712  1
  Sc  Sc87  1  0.29718646  0.90421998  0.09172560  1
  Sc  Sc88  1  0.10521452  0.10357974  0.90042676  1
  Sc  Sc89  1  0.90705976  0.89812777  0.30018321  1
  Sc  Sc90  1  0.50053871  0.10142688  0.28510263  1
  Sc  Sc91  1  0.29733418  0.28795436  0.89930344  1
  Sc  Sc92  1  0.89638862  0.49958545  0.69640419  1
  Sc  Sc93  1  0.70242004  0.10226441  0.29876013  1
  Sc  Sc94  1  0.89323907  0.69686948  0.10284506  1
  Sc  Sc95  1  0.30196139  0.90218686  0.90031652  1
  Sc  Sc96  1  0.50587484  0.70042445  0.90248726  1
  Sc  Sc97  1  0.31263729  0.70282592  0.68995161  1
  Sc  Sc98  1  0.49994449  0.90927235  0.09653573  1
  Sc  Sc99  1  0.51482398  0.50836360  0.90425375  1
  Nb  Nb100  1  0.10005475  0.90165624  0.29131856  1
  Nb  Nb101  1  0.69706465  0.30109786  0.90444152  1
  Nb  Nb102  1  0.70317075  0.09664717  0.70158439  1
  Nb  Nb103  1  0.69635966  0.10101602  0.89321629  1
  Nb  Nb104  1  0.69746708  0.90547301  0.70329628  1
  Nb  Nb105  1  0.50168082  0.50227787  0.70138091  1
  Nb  Nb106  1  0.09756712  0.90051437  0.10483678  1
  Nb  Nb107  1  0.69616658  0.29514603  0.09486984  1
  Nb  Nb108  1  0.70293921  0.29701178  0.70490574  1
  Nb  Nb109  1  0.30751615  0.49970239  0.09639890  1
  Nb  Nb110  1  0.10191669  0.69883645  0.70014233  1
  Nb  Nb111  1  0.89732050  0.29946389  0.49327870  1
  Nb  Nb112  1  0.70268692  0.90049146  0.88752951  1
  Nb  Nb113  1  0.50623370  0.49616549  0.30272711  1
  Nb  Nb114  1  0.50151524  0.69765484  0.70014040  1
  Nb  Nb115  1  0.29934809  0.29197281  0.49891920  1
  Nb  Nb116  1  0.09839456  0.30718449  0.89835099  1
  Nb  Nb117  1  0.90195167  0.70180409  0.90034423  1
  Nb  Nb118  1  0.70298053  0.50279039  0.89707884  1
  Nb  Nb119  1  0.29610495  0.10611669  0.09595420  1
  Nb  Nb120  1  0.89490502  0.69726342  0.49923650  1
  Nb  Nb121  1  0.09953424  0.50052369  0.89590592  1
  Nb  Nb122  1  0.70366542  0.50242557  0.50224460  1
  Nb  Nb123  1  0.29939219  0.89650487  0.70220899  1
  Nb  Nb124  1  0.69299115  0.70387258  0.10044262  1
  Nb  Nb125  1  0.40396625  0.40362279  -0.00030365  1
  Nb  Nb126  1  0.60113633  0.59275795  0.40431576  1
  Nb  Nb127  1  0.79867597  0.40108586  0.40423059  1
  Nb  Nb128  1  0.60093769  0.79656401  0.19373348  1
  Nb  Nb129  1  0.20083377  0.20152353  0.39696674  1
  Nb  Nb130  1  0.19730601  0.80413872  0.19884441  1
  Nb  Nb131  1  0.60784588  0.19956843  0.79791296  1
  Nb  Nb132  1  0.39844257  0.19992966  0.40247784  1
  Nb  Nb133  1  0.00398052  0.59950585  0.80467909  1
  Nb  Nb134  1  0.20116146  0.60537060  0.79846545  1
  Nb  Nb135  1  0.59923895  0.59970923  0.60043760  1
  Nb  Nb136  1  0.19803340  0.80160413  0.60339904  1
  Nb  Nb137  1  0.40446430  0.40549205  0.80379268  1
  Nb  Nb138  1  0.60452410  0.19598426  0.60689654  1
  Nb  Nb139  1  -0.01119077  0.60025502  0.40348776  1
  Nb  Nb140  1  0.79787334  0.80192037  0.60148131  1
  Nb  Nb141  1  0.59470776  0.20068928  0.40573165  1
  Nb  Nb142  1  0.79296174  0.39964524  0.80589143  1
  Nb  Nb143  1  0.00280531  0.20415263  0.40213360  1
  Nb  Nb144  1  0.20082363  0.79552243  0.79315823  1
  Nb  Nb145  1  -0.00013513  0.79919791  0.00377739  1
  Nb  Nb146  1  0.40400337  0.59662824  0.79626079  1
  Nb  Nb147  1  0.79117438  0.20145629  -0.00529240  1
  Nb  Nb148  1  0.80155490  0.60051918  0.80759835  1
  Nb  Nb149  1  0.19807522  0.19563748  0.20022515  1
  Pd  Pd150  1  0.80311585  0.00347757  0.80459724  1
  Pd  Pd151  1  -0.01313288  0.40669755  0.39955021  1
  Pd  Pd152  1  0.40545978  0.59704446  0.59874928  1
  Pd  Pd153  1  -0.00087107  -0.00320084  0.80669644  1
  Pd  Pd154  1  -0.00461001  0.00003221  0.60300972  1
  Pd  Pd155  1  0.40042425  0.80733323  0.19493483  1
  Pd  Pd156  1  0.79509326  0.61087446  0.61377635  1
  Pd  Pd157  1  0.20760241  0.39487368  -0.00519852  1
  Pd  Pd158  1  0.20819551  0.60431582  -0.00587348  1
  Pd  Pd159  1  -0.00235247  0.60064604  0.20721045  1
  Pd  Pd160  1  0.00145975  0.79331456  0.19748023  1
  Pd  Pd161  1  0.39941881  0.59378681  0.20325645  1
  Pd  Pd162  1  0.79949762  0.39602799  -0.00083007  1
  Pd  Pd163  1  0.19956709  0.39883768  0.19121616  1
  Pd  Pd164  1  0.39303358  0.40044235  0.60151169  1
  Pd  Pd165  1  -0.00290044  0.19581246  -0.00627350  1
  Pd  Pd166  1  0.79846821  0.00993460  -0.00958345  1
  Pd  Pd167  1  0.18927219  0.79590833  0.40057301  1
  Pd  Pd168  1  0.60280472  -0.00068889  -0.00554386  1
  Pd  Pd169  1  0.59430395  0.81265727  -0.00008745  1
  Pd  Pd170  1  0.39591236  -0.00426612  0.19079847  1
  Pd  Pd171  1  0.00263838  0.20459253  0.59781913  1
  Pd  Pd172  1  0.60541197  -0.01113892  0.20115080  1
  Pd  Pd173  1  -0.01116882  0.40789537  0.79747696  1
  Pd  Pd174  1  0.59622822  0.00864224  0.39019310  1
  Pd  Pd175  1  0.59492408  0.80277982  0.81000452  1
  Pd  Pd176  1  0.00109381  0.80129755  0.59542003  1
  Pd  Pd177  1  0.59628177  0.40797431  0.00716864  1
  Pd  Pd178  1  0.41024841  0.80766210  -0.00051456  1
  Pd  Pd179  1  0.00639219  0.79297304  0.40265301  1
  Pd  Pd180  1  0.00658996  0.19089243  0.20977202  1
  Pd  Pd181  1  0.79742150  -0.00546256  0.20280640  1
  Pd  Pd182  1  0.19159540  0.20267500  0.59896848  1
  Pd  Pd183  1  0.40536421  0.00496704  0.39845063  1
  Pd  Pd184  1  0.39265657  0.39982891  0.40199297  1
  Pd  Pd185  1  0.00045006  0.40074961  0.00467913  1
  Pd  Pd186  1  0.79215068  0.20164103  0.59358350  1
  Pd  Pd187  1  0.00526450  0.40719812  0.19207392  1
  Pd  Pd188  1  0.40176246  -0.00755766  0.60683732  1
  Pd  Pd189  1  0.79908219  0.60183523  0.00162902  1
  Pd  Pd190  1  0.00608787  0.80114971  0.80820315  1
  Pd  Pd191  1  0.59900422  0.39683841  0.80610888  1
  Pd  Pd192  1  0.40857393  0.19599730  0.60211789  1
  Pd  Pd193  1  0.79509594  0.59940540  0.19859886  1
  Pd  Pd194  1  0.80139692  -0.00452432  0.39508990  1
  Pd  Pd195  1  0.79419146  0.80618561  0.19404124  1
  Pd  Pd196  1  0.20678540  0.60389303  0.20185225  1
  Pd  Pd197  1  -0.00713610  0.40058867  0.60177823  1
  Pd  Pd198  1  0.20993632  0.40356365  0.80803223  1
  Pd  Pd199  1  0.20717579  0.40075918  0.40199922  1
  Rh  Rh200  1  0.80225798  0.58583847  0.39583094  1
  Rh  Rh201  1  -0.00931256  0.00370082  0.20500652  1
  Rh  Rh202  1  0.40865389  0.20649571  0.79544490  1
  Rh  Rh203  1  0.20106349  -0.00765033  0.79881390  1
  Rh  Rh204  1  0.19392885  0.80465738  0.00364569  1
  Rh  Rh205  1  0.00694839  0.20216904  0.80002205  1
  Rh  Rh206  1  0.20172443  0.00112024  0.00097765  1
  Rh  Rh207  1  0.20353075  0.60916486  0.60156111  1
  Rh  Rh208  1  0.39478479  -0.00667272  0.79746678  1
  Rh  Rh209  1  -0.00069486  -0.00550308  -0.00576399  1
  Rh  Rh210  1  0.79530651  0.20494308  0.80679828  1
  Rh  Rh211  1  0.40413169  0.80502862  0.40273072  1
  Rh  Rh212  1  0.60346994  0.39647410  0.19126615  1
  Rh  Rh213  1  0.39562424  0.20387611  0.00347430  1
  Rh  Rh214  1  0.79699426  0.20865341  0.40292772  1
  Rh  Rh215  1  0.60982836  0.39652624  0.40327844  1
  Rh  Rh216  1  0.60244512  0.60387691  0.79690051  1
  Rh  Rh217  1  0.80055777  0.79467762  0.79584684  1
  Rh  Rh218  1  0.19630949  0.20054915  0.00200562  1
  Rh  Rh219  1  0.59788267  0.79359726  0.39163098  1
  Rh  Rh220  1  0.20583981  0.39471889  0.59446371  1
  Rh  Rh221  1  -0.00210846  0.59883672  0.59971450  1
  Rh  Rh222  1  0.40427955  0.40846485  0.19191736  1
  Rh  Rh223  1  0.20518225  -0.00283154  0.19316848  1
  Rh  Rh224  1  0.60796233  0.59806277  0.00450587  1
  Rh  Rh225  1  -0.00924744  0.00594790  0.39336855  1
  Rh  Rh226  1  0.40955532  0.59072881  0.39800232  1
  Rh  Rh227  1  0.60519459  0.18916023  -0.00285782  1
  Rh  Rh228  1  0.20093919  0.00376217  0.39814499  1
  Rh  Rh229  1  0.80120950  0.39251666  0.60128509  1
  Rh  Rh230  1  0.79842443  0.80986062  0.40878477  1
  Rh  Rh231  1  0.19799606  -0.00962129  0.60830756  1
  Rh  Rh232  1  0.39684308  0.80300818  0.59617843  1
  Rh  Rh233  1  0.60506112  0.60689047  0.20751074  1
  Rh  Rh234  1  0.60429255  0.39897797  0.59979951  1
  Rh  Rh235  1  0.80754286  0.79716891  0.00318618  1
  Rh  Rh236  1  0.39570376  0.00584037  0.00078879  1
  Rh  Rh237  1  0.60189741  0.20017822  0.20578869  1
  Rh  Rh238  1  0.60113399  0.00090933  0.79792642  1
  Rh  Rh239  1  0.39808767  0.79289412  0.79993063  1
  Rh  Rh240  1  0.79351773  0.19843075  0.18688894  1
  Rh  Rh241  1  0.60130791  0.00274800  0.61007813  1
  Rh  Rh242  1  0.40496729  0.59038272  -0.00563497  1
  Rh  Rh243  1  0.18916595  0.59664633  0.39969725  1
  Rh  Rh244  1  0.79817344  -0.00781912  0.60206241  1
  Rh  Rh245  1  -0.00287990  0.60470771  -0.00213955  1
  Rh  Rh246  1  0.39462746  0.19864874  0.20063315  1
  Rh  Rh247  1  0.19215682  0.20359293  0.80438163  1
  Rh  Rh248  1  0.60716707  0.79607785  0.59909019  1
  Rh  Rh249  1  0.79530586  0.39560830  0.19928048  1
