# generated using pymatgen
data_ZrScNbPdRh
_symmetry_space_group_name_H-M   'P 1'
_cell_length_a   16.55899507
_cell_length_b   16.55717303
_cell_length_c   16.55441930
_cell_angle_alpha   89.99991171
_cell_angle_beta   90.00898007
_cell_angle_gamma   90.04906775
_symmetry_Int_Tables_number   1
_chemical_formula_structural   ZrScNbPdRh
_chemical_formula_sum   'Zr50 Sc50 Nb50 Pd50 Rh50'
_cell_volume   4538.72584527
_cell_formula_units_Z   50
loop_
 _symmetry_equiv_pos_site_id
 _symmetry_equiv_pos_as_xyz
  1  'x, y, z'
loop_
 _atom_site_type_symbol
 _atom_site_label
 _atom_site_symmetry_multiplicity
 _atom_site_fract_x
 _atom_site_fract_y
 _atom_site_fract_z
 _atom_site_occupancy
  Zr  Zr0  1  0.30153916  0.71253939  0.50194525  1
  Zr  Zr1  1  0.69253245  0.70778184  0.89773798  1
  Zr  Zr2  1  0.49214554  0.09744787  0.69611489  1
  Zr  Zr3  1  0.70960387  0.89992049  0.50152196  1
  Zr  Zr4  1  0.30257089  0.50305527  0.29868498  1
  Zr  Zr5  1  0.09830372  0.89866329  0.69759761  1
  Zr  Zr6  1  0.89791981  0.90104792  0.28973624  1
  Zr  Zr7  1  0.50129976  0.70321726  0.29780738  1
  Zr  Zr8  1  0.10056680  0.70791161  0.70299236  1
  Zr  Zr9  1  0.49769310  0.29458526  0.09005436  1
  Zr  Zr10  1  0.30066158  0.50395095  0.70090024  1
  Zr  Zr11  1  0.50377377  0.89983477  0.29599185  1
  Zr  Zr12  1  0.30151375  0.09437491  0.90431565  1
  Zr  Zr13  1  0.90914703  0.69930588  0.29755528  1
  Zr  Zr14  1  0.68736170  0.29427268  0.10992210  1
  Zr  Zr15  1  0.90155097  0.09484380  0.49492935  1
  Zr  Zr16  1  0.10069613  0.89353603  0.89528281  1
  Zr  Zr17  1  0.09733937  0.69794541  0.89994468  1
  Zr  Zr18  1  0.10798563  0.30320380  0.50791860  1
  Zr  Zr19  1  0.70455411  0.49548377  0.50985551  1
  Zr  Zr20  1  0.90239267  0.50378644  0.89838778  1
  Zr  Zr21  1  0.30258489  0.50615418  0.90599101  1
  Zr  Zr22  1  0.09556361  0.50468344  0.29806278  1
  Zr  Zr23  1  0.90100037  0.69216588  0.70131914  1
  Zr  Zr24  1  0.89058377  0.49673218  0.69331740  1
  Zr  Zr25  1  0.90199294  0.70552809  0.10128116  1
  Zr  Zr26  1  0.90310697  0.90631016  0.50471955  1
  Zr  Zr27  1  0.09816851  0.29692291  0.69314974  1
  Zr  Zr28  1  0.51524033  0.29773223  0.70363153  1
  Zr  Zr29  1  0.70393961  0.29706523  0.48467230  1
  Zr  Zr30  1  0.90055062  0.29227452  0.29491130  1
  Zr  Zr31  1  0.30269444  0.70333379  0.29903931  1
  Zr  Zr32  1  0.69914312  0.90479105  0.90503983  1
  Zr  Zr33  1  0.08955231  0.49762711  0.49923330  1
  Zr  Zr34  1  0.69811333  0.50072198  0.69972880  1
  Zr  Zr35  1  0.48972438  0.49875437  0.30950216  1
  Zr  Zr36  1  0.29480493  0.90256379  0.10692769  1
  Zr  Zr37  1  0.50406137  0.70654665  0.09767663  1
  Zr  Zr38  1  0.69329522  0.49139705  0.09966280  1
  Zr  Zr39  1  0.49844461  0.90713332  0.70648856  1
  Zr  Zr40  1  0.49385609  0.10024964  0.50277875  1
  Zr  Zr41  1  0.09838430  0.09834491  0.50055114  1
  Zr  Zr42  1  0.90053106  0.09816534  0.29689209  1
  Zr  Zr43  1  0.68747892  0.10775577  0.70010778  1
  Zr  Zr44  1  0.89892388  0.10261825  0.90246105  1
  Zr  Zr45  1  0.10063260  0.50056878  0.90898449  1
  Zr  Zr46  1  0.50083628  0.09926972  0.09792503  1
  Zr  Zr47  1  0.70486172  0.31098641  0.69019977  1
  Zr  Zr48  1  0.91018562  0.30089343  0.09599043  1
  Zr  Zr49  1  0.90700320  0.70107879  0.89991051  1
  Sc  Sc50  1  0.69968927  0.48774952  0.30868462  1
  Sc  Sc51  1  0.29855987  0.09000843  0.09946317  1
  Sc  Sc52  1  0.09812470  0.49357021  0.68759964  1
  Sc  Sc53  1  0.30381635  0.10086478  0.50085169  1
  Sc  Sc54  1  0.09207591  0.70976897  0.50075802  1
  Sc  Sc55  1  0.68744043  0.29941512  0.88281834  1
  Sc  Sc56  1  0.10822914  0.89659724  0.10345568  1
  Sc  Sc57  1  0.69799318  0.90823856  0.70627289  1
  Sc  Sc58  1  0.90844696  0.50163732  0.30868922  1
  Sc  Sc59  1  0.09866490  0.70199688  0.10847711  1
  Sc  Sc60  1  0.29672732  0.69567879  0.89590964  1
  Sc  Sc61  1  0.10187107  0.89450795  0.29993483  1
  Sc  Sc62  1  0.89723501  0.09849169  0.10875736  1
  Sc  Sc63  1  0.30378208  0.29706434  0.30313838  1
  Sc  Sc64  1  0.49466266  0.48902159  0.10011125  1
  Sc  Sc65  1  0.49335662  0.90439785  0.50204693  1
  Sc  Sc66  1  0.70518418  0.69864346  0.50217896  1
  Sc  Sc67  1  0.49229409  0.70748995  0.90225930  1
  Sc  Sc68  1  0.49776869  0.29586889  0.49192743  1
  Sc  Sc69  1  0.50613033  0.29905252  0.29668602  1
  Sc  Sc70  1  0.30396192  0.70119349  0.09823015  1
  Sc  Sc71  1  0.70009547  0.09719654  0.10260152  1
  Sc  Sc72  1  0.09390095  0.30086305  0.10335439  1
  Sc  Sc73  1  0.29837244  0.30102581  0.10151399  1
  Sc  Sc74  1  0.29209006  0.30023581  0.68296235  1
  Sc  Sc75  1  0.09636370  0.10157898  0.29731195  1
  Sc  Sc76  1  0.49884587  0.09697924  0.90371650  1
  Sc  Sc77  1  0.89730378  0.69675605  0.49964965  1
  Sc  Sc78  1  0.09170024  0.09609481  0.89375350  1
  Sc  Sc79  1  0.49315241  0.70170648  0.70281784  1
  Sc  Sc80  1  0.90423173  0.09812501  0.70534060  1
  Sc  Sc81  1  0.30362203  0.30498414  0.91506574  1
  Sc  Sc82  1  0.49849208  0.69895682  0.50742587  1
  Sc  Sc83  1  0.29652222  0.90002272  0.90093889  1
  Sc  Sc84  1  0.70182052  0.89953293  0.10222709  1
  Sc  Sc85  1  0.09221853  0.49887678  0.10423039  1
  Sc  Sc86  1  0.49557005  0.09305217  0.29910400  1
  Sc  Sc87  1  0.30420197  0.29259919  0.49836029  1
  Sc  Sc88  1  0.09705306  0.29943756  0.29595544  1
  Sc  Sc89  1  0.30007333  0.09605427  0.30542169  1
  Sc  Sc90  1  0.69879169  0.09353396  0.89963312  1
  Sc  Sc91  1  0.91091539  0.30611036  0.49794285  1
  Sc  Sc92  1  0.31458082  0.50378000  0.49253341  1
  Sc  Sc93  1  0.10117430  0.90416869  0.50150970  1
  Sc  Sc94  1  0.50628197  0.89880287  0.89914921  1
  Sc  Sc95  1  0.70074500  0.71469386  0.30485177  1
  Sc  Sc96  1  0.29833141  0.49900875  0.09877546  1
  Sc  Sc97  1  0.50449344  0.90302107  0.10322284  1
  Sc  Sc98  1  0.29744801  0.90176991  0.69920716  1
  Sc  Sc99  1  0.10151540  0.09640141  0.69584308  1
  Nb  Nb100  1  0.70983889  0.11362328  0.30151637  1
  Nb  Nb101  1  0.89807684  0.29686458  0.70453768  1
  Nb  Nb102  1  0.29828607  0.90351560  0.49117000  1
  Nb  Nb103  1  0.50681996  0.50422134  0.50530922  1
  Nb  Nb104  1  0.30574476  0.90056377  0.30802727  1
  Nb  Nb105  1  0.90429344  0.50470215  0.50251827  1
  Nb  Nb106  1  0.89660646  0.49938336  0.09849810  1
  Nb  Nb107  1  0.10219211  0.09615475  0.09455660  1
  Nb  Nb108  1  0.89530412  0.90132071  0.90547962  1
  Nb  Nb109  1  0.69659515  0.90446846  0.30194708  1
  Nb  Nb110  1  0.50777106  0.49987404  0.69384515  1
  Nb  Nb111  1  0.89562578  0.90256990  0.09579575  1
  Nb  Nb112  1  0.09128226  0.29411385  0.90278242  1
  Nb  Nb113  1  0.69944825  0.69870296  0.70195738  1
  Nb  Nb114  1  0.89949497  0.89643792  0.70452034  1
  Nb  Nb115  1  0.29212665  0.70113653  0.69745700  1
  Nb  Nb116  1  0.69707222  0.69399218  0.09991233  1
  Nb  Nb117  1  0.09661471  0.69716809  0.29794990  1
  Nb  Nb118  1  0.70445917  0.09988483  0.49628407  1
  Nb  Nb119  1  0.90783124  0.29396636  0.90009927  1
  Nb  Nb120  1  0.70108755  0.50260370  0.89669326  1
  Nb  Nb121  1  0.49856108  0.49780828  0.89769890  1
  Nb  Nb122  1  0.49206261  0.30011668  0.89979955  1
  Nb  Nb123  1  0.70465179  0.29081843  0.29581127  1
  Nb  Nb124  1  0.30527523  0.10387272  0.70228995  1
  Nb  Nb125  1  0.80400511  0.80271178  0.80121966  1
  Nb  Nb126  1  0.80081064  0.21000175  -0.00289834  1
  Nb  Nb127  1  0.80170021  0.39890274  0.19666907  1
  Nb  Nb128  1  0.39476979  0.20696869  0.80016141  1
  Nb  Nb129  1  0.60331447  0.80210004  0.60614658  1
  Nb  Nb130  1  0.19851266  0.39386569  0.80577521  1
  Nb  Nb131  1  0.60312317  0.59842673  0.20256352  1
  Nb  Nb132  1  0.19685487  0.60374820  0.40033737  1
  Nb  Nb133  1  0.40120366  0.39961030  0.79704509  1
  Nb  Nb134  1  0.61205332  0.00365225  0.39997979  1
  Nb  Nb135  1  0.79506675  0.59743029  0.00253336  1
  Nb  Nb136  1  0.20280713  0.60651452  0.59468755  1
  Nb  Nb137  1  0.79548193  0.59618596  0.19730952  1
  Nb  Nb138  1  0.20319238  0.20478199  0.80438133  1
  Nb  Nb139  1  0.41145804  0.40466045  0.60387695  1
  Nb  Nb140  1  0.40182781  0.19499222  0.19389604  1
  Nb  Nb141  1  -0.00496698  -0.00755658  0.00241454  1
  Nb  Nb142  1  0.00037395  0.39199610  0.80103844  1
  Nb  Nb143  1  0.19242236  0.19612315  -0.00335728  1
  Nb  Nb144  1  0.59987079  0.59553527  -0.00249748  1
  Nb  Nb145  1  0.79982804  0.19918148  0.59701265  1
  Nb  Nb146  1  0.59897189  0.59624253  0.80138557  1
  Nb  Nb147  1  0.59803417  0.59815229  0.40087108  1
  Nb  Nb148  1  0.20027305  0.40759902  0.39954246  1
  Nb  Nb149  1  0.79937389  0.39632566  -0.00325312  1
  Pd  Pd150  1  0.80054820  0.01032634  0.61146841  1
  Pd  Pd151  1  0.39784505  0.80706694  0.19680613  1
  Pd  Pd152  1  0.79723594  0.79856900  0.60988523  1
  Pd  Pd153  1  0.20717359  0.00072498  0.59833499  1
  Pd  Pd154  1  0.79923405  -0.00079521  0.39116193  1
  Pd  Pd155  1  0.19800958  0.20500073  0.39929388  1
  Pd  Pd156  1  0.60552510  0.20557267  0.58893269  1
  Pd  Pd157  1  0.20082585  0.60427788  0.19903948  1
  Pd  Pd158  1  0.79320465  0.59799477  0.39405893  1
  Pd  Pd159  1  0.60192169  -0.00606350  0.59223804  1
  Pd  Pd160  1  0.39585474  0.80715694  -0.00128047  1
  Pd  Pd161  1  0.19527042  0.00157522  0.39610646  1
  Pd  Pd162  1  0.20112270  0.00431688  0.79769341  1
  Pd  Pd163  1  0.20229956  0.79304453  0.00035554  1
  Pd  Pd164  1  0.19745652  0.60598638  0.01194621  1
  Pd  Pd165  1  0.79434942  0.79763423  0.19894432  1
  Pd  Pd166  1  0.79501742  0.79562630  -0.00185233  1
  Pd  Pd167  1  0.79976301  0.00016655  0.79649734  1
  Pd  Pd168  1  0.00942407  0.58649429  0.78995740  1
  Pd  Pd169  1  -0.00831175  0.19511031  0.60094071  1
  Pd  Pd170  1  -0.00513428  0.80040020  0.59934950  1
  Pd  Pd171  1  0.81130197  0.40001763  0.39538622  1
  Pd  Pd172  1  0.40727836  0.59901447  0.19000090  1
  Pd  Pd173  1  0.39134106  0.80265261  0.80085517  1
  Pd  Pd174  1  0.79521806  0.19965633  0.79910356  1
  Pd  Pd175  1  -0.00292631  -0.00506101  0.80344865  1
  Pd  Pd176  1  0.59662937  0.80245862  0.41385027  1
  Pd  Pd177  1  0.00434170  0.20337669  0.40075758  1
  Pd  Pd178  1  0.19405648  0.79659841  0.39667936  1
  Pd  Pd179  1  0.00742067  -0.00512518  0.19359179  1
  Pd  Pd180  1  0.59569263  0.40211034  0.40128085  1
  Pd  Pd181  1  0.19968304  0.39784815  0.20540542  1
  Pd  Pd182  1  0.00626790  0.80633136  0.00703713  1
  Pd  Pd183  1  0.60806414  0.19734743  -0.00918933  1
  Pd  Pd184  1  0.40231824  0.80879158  0.60592912  1
  Pd  Pd185  1  0.19842194  0.00063083  0.21119960  1
  Pd  Pd186  1  0.18994621  0.59263745  0.79250208  1
  Pd  Pd187  1  0.59316042  0.18995304  0.39315528  1
  Pd  Pd188  1  0.40000723  0.38980712  0.19983073  1
  Pd  Pd189  1  0.20491881  0.19475336  0.19250363  1
  Pd  Pd190  1  0.19294666  0.39298921  0.00321945  1
  Pd  Pd191  1  0.60149084  0.39732419  -0.01022015  1
  Pd  Pd192  1  0.40482833  -0.01121753  -0.00061478  1
  Pd  Pd193  1  0.80941530  0.80181385  0.39799304  1
  Pd  Pd194  1  -0.00381692  0.80562549  0.39981872  1
  Pd  Pd195  1  0.40751976  0.60014534  0.80019812  1
  Pd  Pd196  1  0.40907788  0.80172603  0.40169161  1
  Pd  Pd197  1  0.80573098  0.39474999  0.80825721  1
  Pd  Pd198  1  0.39660269  0.59992156  0.59988348  1
  Pd  Pd199  1  0.60825394  0.00763688  0.20641369  1
  Rh  Rh200  1  0.60123011  -0.00251779  0.00248137  1
  Rh  Rh201  1  0.00663585  0.20140042  0.79212623  1
  Rh  Rh202  1  0.39883971  0.00278778  0.80386052  1
  Rh  Rh203  1  0.00229526  0.80581050  0.19791283  1
  Rh  Rh204  1  0.60679214  0.79814792  0.19638078  1
  Rh  Rh205  1  0.38977367  0.19623670  0.00331003  1
  Rh  Rh206  1  0.00304809  0.60349622  0.59965281  1
  Rh  Rh207  1  0.39868305  0.40619074  -0.00124188  1
  Rh  Rh208  1  0.40337810  0.19683270  0.38799690  1
  Rh  Rh209  1  0.20134698  0.80301910  0.59914532  1
  Rh  Rh210  1  0.60398456  0.61153791  0.60141871  1
  Rh  Rh211  1  0.40593353  0.59960890  0.00273308  1
  Rh  Rh212  1  -0.00039817  0.18596656  0.00705965  1
  Rh  Rh213  1  0.79259888  0.61080859  0.80650807  1
  Rh  Rh214  1  0.40451502  -0.00247200  0.40152452  1
  Rh  Rh215  1  0.79364694  -0.00167450  0.20308967  1
  Rh  Rh216  1  0.81140568  0.20093196  0.40520350  1
  Rh  Rh217  1  0.80807476  0.39124422  0.58927528  1
  Rh  Rh218  1  0.60057478  0.80252190  0.00629317  1
  Rh  Rh219  1  0.20258221  0.18696051  0.59993327  1
  Rh  Rh220  1  -0.00717869  0.40444973  0.20520610  1
  Rh  Rh221  1  0.79960985  0.60130086  0.59657798  1
  Rh  Rh222  1  0.80277824  0.20560355  0.18985281  1
  Rh  Rh223  1  0.00505466  0.39549704  0.39585728  1
  Rh  Rh224  1  0.60203273  0.40309255  0.21250045  1
  Rh  Rh225  1  0.39370512  0.00008984  0.20208780  1
  Rh  Rh226  1  -0.01120522  0.39717571  0.60774252  1
  Rh  Rh227  1  0.20549257  0.79863086  0.20729415  1
  Rh  Rh228  1  -0.00111726  0.60216496  0.00897789  1
  Rh  Rh229  1  0.58857188  0.19021758  0.80744936  1
  Rh  Rh230  1  0.59366425  0.40853540  0.80347570  1
  Rh  Rh231  1  -0.00740524  0.59772567  0.19581475  1
  Rh  Rh232  1  0.40314829  0.20968933  0.60789563  1
  Rh  Rh233  1  0.38874351  -0.00510007  0.59721707  1
  Rh  Rh234  1  0.00455253  0.60732601  0.40620655  1
  Rh  Rh235  1  0.59623162  0.39112671  0.58705761  1
  Rh  Rh236  1  -0.00130034  -0.00138685  0.60492986  1
  Rh  Rh237  1  0.39816291  0.39413592  0.40720970  1
  Rh  Rh238  1  0.21752432  0.41517276  0.58759183  1
  Rh  Rh239  1  0.59533667  0.00566416  0.80413012  1
  Rh  Rh240  1  0.40487370  0.61010723  0.40468112  1
  Rh  Rh241  1  0.00302793  -0.00498035  0.39494778  1
  Rh  Rh242  1  0.80442488  0.01005896  0.00593090  1
  Rh  Rh243  1  0.60311192  0.79677463  0.79024275  1
  Rh  Rh244  1  0.00443144  0.19406025  0.19594240  1
  Rh  Rh245  1  0.59128064  0.19126260  0.20611254  1
  Rh  Rh246  1  0.18739396  0.00282664  -0.00751839  1
  Rh  Rh247  1  -0.00203700  0.40458786  -0.00534901  1
  Rh  Rh248  1  0.20544516  0.79966060  0.80031143  1
  Rh  Rh249  1  -0.00694201  0.80524953  0.79979175  1
