# generated using pymatgen
data_ZrScNbPdRh
_symmetry_space_group_name_H-M   'P 1'
_cell_length_a   16.55428822
_cell_length_b   16.55600616
_cell_length_c   16.55552918
_cell_angle_alpha   90.00765395
_cell_angle_beta   90.03187873
_cell_angle_gamma   89.99694789
_symmetry_Int_Tables_number   1
_chemical_formula_structural   ZrScNbPdRh
_chemical_formula_sum   'Zr50 Sc50 Nb50 Pd50 Rh50'
_cell_volume   4537.42110779
_cell_formula_units_Z   50
loop_
 _symmetry_equiv_pos_site_id
 _symmetry_equiv_pos_as_xyz
  1  'x, y, z'
loop_
 _atom_site_type_symbol
 _atom_site_label
 _atom_site_symmetry_multiplicity
 _atom_site_fract_x
 _atom_site_fract_y
 _atom_site_fract_z
 _atom_site_occupancy
  Zr  Zr0  1  0.10965607  0.50209130  0.88888447  1
  Zr  Zr1  1  0.29589650  0.29518435  0.90567568  1
  Zr  Zr2  1  0.90623773  0.90058879  0.29946499  1
  Zr  Zr3  1  0.69543672  0.30389978  0.70134348  1
  Zr  Zr4  1  0.49609436  0.50710869  0.90144703  1
  Zr  Zr5  1  0.69053609  0.30567166  0.29581472  1
  Zr  Zr6  1  0.70494946  0.70254621  0.70041867  1
  Zr  Zr7  1  0.09439058  0.29719832  0.90370241  1
  Zr  Zr8  1  0.49875430  0.69709291  0.69690868  1
  Zr  Zr9  1  0.89989864  0.29765135  0.49754017  1
  Zr  Zr10  1  0.50196468  0.70037160  0.29999211  1
  Zr  Zr11  1  0.09681329  0.69616790  0.29360141  1
  Zr  Zr12  1  0.50151636  0.69628788  0.09869285  1
  Zr  Zr13  1  0.49963519  0.09554160  0.50194152  1
  Zr  Zr14  1  0.50572542  0.28468544  0.89666272  1
  Zr  Zr15  1  0.50135390  0.70421306  0.49965187  1
  Zr  Zr16  1  0.89219295  0.69712108  0.30310441  1
  Zr  Zr17  1  0.10081352  0.50502837  0.10845577  1
  Zr  Zr18  1  0.49546294  0.89663883  0.49774018  1
  Zr  Zr19  1  0.70507492  0.49685986  0.69485727  1
  Zr  Zr20  1  0.09043967  0.30940620  0.70753138  1
  Zr  Zr21  1  0.90245023  0.89634376  0.09962206  1
  Zr  Zr22  1  0.49480782  0.10156278  0.29614461  1
  Zr  Zr23  1  0.29907347  0.50662038  0.71367853  1
  Zr  Zr24  1  0.30086604  0.49735882  0.49140387  1
  Zr  Zr25  1  0.69907046  0.70096876  0.10206959  1
  Zr  Zr26  1  0.71223699  0.10222236  0.50088997  1
  Zr  Zr27  1  0.71137936  0.50343237  0.29627385  1
  Zr  Zr28  1  0.30308390  0.70456155  0.70290460  1
  Zr  Zr29  1  0.29169251  0.90379664  0.10236170  1
  Zr  Zr30  1  0.30078979  0.30307967  0.30473754  1
  Zr  Zr31  1  0.51753098  0.90296916  0.69463399  1
  Zr  Zr32  1  0.09617293  0.89963318  0.09988873  1
  Zr  Zr33  1  0.70268736  0.50157949  0.50435718  1
  Zr  Zr34  1  0.70550650  0.09571866  0.70312114  1
  Zr  Zr35  1  0.30519916  0.70550591  0.50005006  1
  Zr  Zr36  1  0.10443241  0.90164354  0.90569014  1
  Zr  Zr37  1  0.50541516  0.29380728  0.11042667  1
  Zr  Zr38  1  0.09812179  0.70439512  0.09576694  1
  Zr  Zr39  1  0.90615171  0.30772235  0.29997777  1
  Zr  Zr40  1  0.30450641  0.29057899  0.70174924  1
  Zr  Zr41  1  0.49441866  0.30144348  0.30748971  1
  Zr  Zr42  1  0.09615750  0.29747051  0.09934568  1
  Zr  Zr43  1  0.09995202  0.89509302  0.29362675  1
  Zr  Zr44  1  0.89872366  0.09663207  0.10759176  1
  Zr  Zr45  1  0.29078537  0.89662634  0.90033129  1
  Zr  Zr46  1  0.49002535  0.90272108  0.30179585  1
  Zr  Zr47  1  0.70462991  0.10152208  0.30039847  1
  Zr  Zr48  1  0.69545058  0.90565803  0.51255386  1
  Zr  Zr49  1  0.29075139  0.70137065  0.30068096  1
  Sc  Sc50  1  0.29861489  0.49721913  0.29016479  1
  Sc  Sc51  1  0.90329774  0.49341872  0.69416678  1
  Sc  Sc52  1  0.10263857  0.09338123  0.49390619  1
  Sc  Sc53  1  0.09825053  0.70000554  0.48820646  1
  Sc  Sc54  1  0.29517363  0.90451145  0.30115686  1
  Sc  Sc55  1  0.89725304  0.09435670  0.30492250  1
  Sc  Sc56  1  0.50739864  0.69804775  0.89953120  1
  Sc  Sc57  1  0.10108345  0.70129143  0.69451788  1
  Sc  Sc58  1  0.29841787  0.29600022  0.49087127  1
  Sc  Sc59  1  0.49458135  0.50829545  0.10611885  1
  Sc  Sc60  1  0.89916512  0.70723561  0.50009118  1
  Sc  Sc61  1  0.10008696  0.30022883  0.48719051  1
  Sc  Sc62  1  0.49583153  0.49412533  0.29429148  1
  Sc  Sc63  1  0.89228488  0.50204252  0.09699778  1
  Sc  Sc64  1  0.69175990  0.10862753  0.10436244  1
  Sc  Sc65  1  0.89819942  0.70048600  0.09342892  1
  Sc  Sc66  1  0.29932965  0.09736796  0.10418510  1
  Sc  Sc67  1  0.09690825  0.09475260  0.09353754  1
  Sc  Sc68  1  0.89527142  0.49963754  0.90359690  1
  Sc  Sc69  1  0.70747524  0.70440807  0.90020992  1
  Sc  Sc70  1  0.30090970  0.30067254  0.10524751  1
  Sc  Sc71  1  0.89420211  0.30290299  0.70569469  1
  Sc  Sc72  1  0.70290609  0.69735948  0.49407557  1
  Sc  Sc73  1  0.90106557  0.90131161  0.49886057  1
  Sc  Sc74  1  0.90221774  0.49866299  0.49923964  1
  Sc  Sc75  1  0.70048451  0.30692526  0.49548558  1
  Sc  Sc76  1  0.09215507  0.90443306  0.49738135  1
  Sc  Sc77  1  0.89899911  0.10023570  0.88912072  1
  Sc  Sc78  1  0.10049388  0.09178042  0.30527684  1
  Sc  Sc79  1  0.50799281  0.50241373  0.50508571  1
  Sc  Sc80  1  0.29763971  0.09093660  0.30367933  1
  Sc  Sc81  1  0.29317274  0.68912348  0.89916970  1
  Sc  Sc82  1  0.51068815  0.50446712  0.69935505  1
  Sc  Sc83  1  0.29486219  0.09129544  0.50107093  1
  Sc  Sc84  1  0.71106433  0.89413752  0.29908462  1
  Sc  Sc85  1  0.51433228  0.89146770  0.09706899  1
  Sc  Sc86  1  0.70054266  0.29753943  0.88993825  1
  Sc  Sc87  1  0.09489633  0.30930160  0.29910400  1
  Sc  Sc88  1  0.90235082  0.30353274  0.89398942  1
  Sc  Sc89  1  0.89466000  0.70888322  0.69540401  1
  Sc  Sc90  1  0.49371005  0.10642194  0.70236620  1
  Sc  Sc91  1  0.09538674  0.07802934  0.69918915  1
  Sc  Sc92  1  0.89766258  0.69905278  0.90653294  1
  Sc  Sc93  1  0.70640385  0.50365689  0.89708896  1
  Sc  Sc94  1  0.29771726  0.10166510  0.90924590  1
  Sc  Sc95  1  0.89668120  0.09282696  0.70083559  1
  Sc  Sc96  1  0.70019040  0.30061916  0.10601614  1
  Sc  Sc97  1  0.90684070  0.30441033  0.09936051  1
  Sc  Sc98  1  0.89279449  0.89546829  0.90091467  1
  Sc  Sc99  1  0.29348904  0.68816535  0.09828966  1
  Nb  Nb100  1  0.10163700  0.50356317  0.50350078  1
  Nb  Nb101  1  0.28557896  0.90982981  0.70488620  1
  Nb  Nb102  1  0.90582516  0.89880628  0.70205876  1
  Nb  Nb103  1  0.10302869  0.10426391  0.90213430  1
  Nb  Nb104  1  0.10443060  0.89883755  0.70424528  1
  Nb  Nb105  1  0.30183505  0.90090943  0.50125731  1
  Nb  Nb106  1  0.50461998  0.90184631  0.89886122  1
  Nb  Nb107  1  0.50176349  0.09946418  0.10088770  1
  Nb  Nb108  1  0.30346619  0.50171663  0.09473361  1
  Nb  Nb109  1  0.49771718  0.30045828  0.50181231  1
  Nb  Nb110  1  0.69702707  0.10181080  0.90041691  1
  Nb  Nb111  1  0.70458135  0.69329313  0.30104324  1
  Nb  Nb112  1  0.69421955  0.90300325  0.89722275  1
  Nb  Nb113  1  0.29208772  0.09324392  0.69998319  1
  Nb  Nb114  1  0.70193360  0.89473276  0.09256555  1
  Nb  Nb115  1  0.69829567  0.49705058  0.09953585  1
  Nb  Nb116  1  0.30265657  0.50028066  0.90426470  1
  Nb  Nb117  1  0.90404270  0.09967654  0.50130893  1
  Nb  Nb118  1  0.50918840  0.09797879  0.90802111  1
  Nb  Nb119  1  0.09360407  0.50733684  0.30733525  1
  Nb  Nb120  1  0.09956849  0.50125305  0.69557412  1
  Nb  Nb121  1  0.10051253  0.70372472  0.89999049  1
  Nb  Nb122  1  0.90689623  0.50206011  0.29749561  1
  Nb  Nb123  1  0.50032169  0.29872284  0.69885938  1
  Nb  Nb124  1  0.71317995  0.89783181  0.70903248  1
  Nb  Nb125  1  0.59698865  0.20476578  0.59903198  1
  Nb  Nb126  1  0.59690155  0.40206326  0.00211118  1
  Nb  Nb127  1  0.00119831  0.19578826  0.59783519  1
  Nb  Nb128  1  0.60218005  0.00069379  0.39757315  1
  Nb  Nb129  1  0.19908421  0.59739161  0.59626301  1
  Nb  Nb130  1  0.40000779  0.60377799  0.39918815  1
  Nb  Nb131  1  0.19299582  0.20023678  0.60747825  1
  Nb  Nb132  1  0.60088219  -0.00142535  0.20152614  1
  Nb  Nb133  1  0.78871926  0.00256833  -0.00153471  1
  Nb  Nb134  1  0.41197806  -0.00333120  -0.00297567  1
  Nb  Nb135  1  0.19436341  0.19338179  0.79570939  1
  Nb  Nb136  1  0.40063745  -0.00282972  0.80484578  1
  Nb  Nb137  1  0.00473888  0.60414971  0.79763696  1
  Nb  Nb138  1  0.40066216  0.80310411  -0.00284729  1
  Nb  Nb139  1  0.40210290  0.81115895  0.80303572  1
  Nb  Nb140  1  0.40039409  0.39492345  0.60550378  1
  Nb  Nb141  1  0.19595051  0.20179665  0.20358522  1
  Nb  Nb142  1  0.39784005  0.79809350  0.19369957  1
  Nb  Nb143  1  0.20020333  0.40181997  0.60292925  1
  Nb  Nb144  1  0.00591683  0.80022545  0.80012256  1
  Nb  Nb145  1  0.20282980  0.80648200  0.60018297  1
  Nb  Nb146  1  0.79749506  0.19437152  -0.00244088  1
  Nb  Nb147  1  0.40178617  0.40016342  -0.00215264  1
  Nb  Nb148  1  0.40305379  0.39589558  0.80207348  1
  Nb  Nb149  1  0.20430811  0.40626641  0.00083634  1
  Pd  Pd150  1  0.00287655  0.59482167  -0.00794565  1
  Pd  Pd151  1  0.00068853  0.60742576  0.60196993  1
  Pd  Pd152  1  0.20614009  0.39163569  0.80114221  1
  Pd  Pd153  1  0.00370296  0.39160853  0.59143820  1
  Pd  Pd154  1  0.60347380  0.59426296  0.20392692  1
  Pd  Pd155  1  0.60850916  0.59578733  -0.00136574  1
  Pd  Pd156  1  0.19594892  0.80792646  0.40670864  1
  Pd  Pd157  1  0.00320755  0.19395511  0.39943087  1
  Pd  Pd158  1  0.60909354  0.79305464  0.59983318  1
  Pd  Pd159  1  -0.00151462  -0.00769793  0.80800928  1
  Pd  Pd160  1  0.81310874  0.59985601  0.79598942  1
  Pd  Pd161  1  0.39460050  0.19081221  0.80595490  1
  Pd  Pd162  1  0.59700958  0.00854218  0.79541844  1
  Pd  Pd163  1  0.59646050  0.59330412  0.39565372  1
  Pd  Pd164  1  0.79101042  -0.00364787  0.19228478  1
  Pd  Pd165  1  0.40046420  0.19632655  0.00741927  1
  Pd  Pd166  1  0.60357371  0.00075906  0.00875561  1
  Pd  Pd167  1  0.60925835  0.80675354  0.39526669  1
  Pd  Pd168  1  0.81002640  -0.00633670  0.60183585  1
  Pd  Pd169  1  0.00417821  0.19037024  0.78936035  1
  Pd  Pd170  1  0.79052492  0.38976989  -0.00262093  1
  Pd  Pd171  1  0.39498527  0.81526474  0.61367178  1
  Pd  Pd172  1  0.39523837  0.19987625  0.59147963  1
  Pd  Pd173  1  0.80492668  0.20877450  0.19859528  1
  Pd  Pd174  1  0.59535553  0.40533888  0.80754815  1
  Pd  Pd175  1  0.19296318  0.40485835  0.39829993  1
  Pd  Pd176  1  0.60732009  0.60119952  0.79896519  1
  Pd  Pd177  1  -0.00751942  0.60125431  0.40573111  1
  Pd  Pd178  1  0.80771232  0.60294503  0.59711020  1
  Pd  Pd179  1  0.39858427  -0.00459064  0.60952743  1
  Pd  Pd180  1  0.00661079  0.80291036  0.60246390  1
  Pd  Pd181  1  0.60127945  0.19569104  0.40649716  1
  Pd  Pd182  1  0.39695830  0.58918473  0.59537998  1
  Pd  Pd183  1  0.19786982  0.39866148  0.19737753  1
  Pd  Pd184  1  0.80631914  0.39818924  0.19696177  1
  Pd  Pd185  1  0.80360214  0.79532091  0.19747922  1
  Pd  Pd186  1  0.00620082  0.41088207  -0.00280341  1
  Pd  Pd187  1  -0.01118669  0.00278799  -0.00847824  1
  Pd  Pd188  1  0.38930777  0.19850463  0.20138690  1
  Pd  Pd189  1  0.80308350  0.20678385  0.39227872  1
  Pd  Pd190  1  0.00648690  0.19233426  0.20836906  1
  Pd  Pd191  1  0.80364597  0.40369908  0.39938235  1
  Pd  Pd192  1  0.60055368  0.80432735  0.20890212  1
  Pd  Pd193  1  0.80209792  0.20709109  0.60491264  1
  Pd  Pd194  1  0.59992945  0.79547754  0.80306947  1
  Pd  Pd195  1  0.59683381  0.40908774  0.40055996  1
  Pd  Pd196  1  -0.01381302  0.19330152  -0.00175592  1
  Pd  Pd197  1  0.39190072  0.19070791  0.40531881  1
  Pd  Pd198  1  0.79684264  0.80502986  0.40784300  1
  Pd  Pd199  1  -0.01005655  0.60335648  0.19423849  1
  Rh  Rh200  1  0.60836381  0.60833750  0.60084921  1
  Rh  Rh201  1  0.39854433  0.60527244  -0.00331857  1
  Rh  Rh202  1  0.39207215  0.60686093  0.20833842  1
  Rh  Rh203  1  0.40989699  0.40900428  0.40844285  1
  Rh  Rh204  1  0.19301040  0.59553409  0.00132719  1
  Rh  Rh205  1  0.79820899  0.80638652  0.59926710  1
  Rh  Rh206  1  0.20151719  0.01071613  0.81254897  1
  Rh  Rh207  1  -0.00061766  0.80177186  -0.00730083  1
  Rh  Rh208  1  0.59774932  0.40673499  0.19525741  1
  Rh  Rh209  1  0.19597208  0.20242287  0.00784872  1
  Rh  Rh210  1  0.00247930  0.00182774  0.20223900  1
  Rh  Rh211  1  0.59864137  0.19558250  0.20807311  1
  Rh  Rh212  1  -0.00265560  0.40974968  0.19904025  1
  Rh  Rh213  1  0.20239988  0.00672130  0.00159742  1
  Rh  Rh214  1  0.80131395  0.40408018  0.79872711  1
  Rh  Rh215  1  -0.00305607  0.00160595  0.59721214  1
  Rh  Rh216  1  0.40212643  0.39786775  0.19160363  1
  Rh  Rh217  1  0.60325859  0.19089628  0.79012386  1
  Rh  Rh218  1  0.60337081  0.01288511  0.59969886  1
  Rh  Rh219  1  0.19493716  -0.00368444  0.59077332  1
  Rh  Rh220  1  0.79881567  -0.00434906  0.40512819  1
  Rh  Rh221  1  0.20148530  0.19879681  0.39421186  1
  Rh  Rh222  1  0.79865387  0.19948108  0.80352462  1
  Rh  Rh223  1  0.19701842  0.79292414  0.79505432  1
  Rh  Rh224  1  -0.00477591  -0.00059093  0.39975532  1
  Rh  Rh225  1  0.39947105  0.00132100  0.40627870  1
  Rh  Rh226  1  0.80740416  0.80287015  0.80117352  1
  Rh  Rh227  1  0.80489486  0.59580870  0.40251768  1
  Rh  Rh228  1  0.00050356  0.40922446  0.40149232  1
  Rh  Rh229  1  0.39366604  0.79611405  0.38956611  1
  Rh  Rh230  1  0.60170383  0.79376674  -0.00759094  1
  Rh  Rh231  1  0.19977445  0.59577795  0.20075306  1
  Rh  Rh232  1  0.20431607  0.79257979  0.00511327  1
  Rh  Rh233  1  0.41138699  -0.01192982  0.18322174  1
  Rh  Rh234  1  0.40482262  0.60491878  0.80407823  1
  Rh  Rh235  1  0.60971753  0.20800345  0.00205098  1
  Rh  Rh236  1  0.20367094  0.79817520  0.19394818  1
  Rh  Rh237  1  0.20014184  -0.00822166  0.40181554  1
  Rh  Rh238  1  0.79439814  0.80480428  -0.00267621  1
  Rh  Rh239  1  0.59551492  0.39235289  0.59717114  1
  Rh  Rh240  1  0.80136589  0.39615651  0.59828632  1
  Rh  Rh241  1  0.79987178  -0.00551234  0.80717646  1
  Rh  Rh242  1  0.80136996  0.60073769  0.19538670  1
  Rh  Rh243  1  0.20373682  0.59495137  0.39866256  1
  Rh  Rh244  1  -0.00604281  0.79218060  0.20119833  1
  Rh  Rh245  1  -0.00091819  0.79793570  0.39479842  1
  Rh  Rh246  1  0.19080121  0.00774433  0.19939809  1
  Rh  Rh247  1  0.79294276  0.60084154  0.00521699  1
  Rh  Rh248  1  -0.00779533  0.41534940  0.80520683  1
  Rh  Rh249  1  0.19249207  0.60991504  0.79308928  1
