# generated using pymatgen
data_ZrScNbPdRh
_symmetry_space_group_name_H-M   'P 1'
_cell_length_a   16.56186590
_cell_length_b   16.56287758
_cell_length_c   16.56137137
_cell_angle_alpha   89.98972299
_cell_angle_beta   90.00587685
_cell_angle_gamma   90.01900066
_symmetry_Int_Tables_number   1
_chemical_formula_structural   ZrScNbPdRh
_chemical_formula_sum   'Zr50 Sc50 Nb50 Pd50 Rh50'
_cell_volume   4542.98516338
_cell_formula_units_Z   50
loop_
 _symmetry_equiv_pos_site_id
 _symmetry_equiv_pos_as_xyz
  1  'x, y, z'
loop_
 _atom_site_type_symbol
 _atom_site_label
 _atom_site_symmetry_multiplicity
 _atom_site_fract_x
 _atom_site_fract_y
 _atom_site_fract_z
 _atom_site_occupancy
  Zr  Zr0  1  0.49485654  0.89637922  0.70325090  1
  Zr  Zr1  1  0.49675439  0.90255288  0.29686763  1
  Zr  Zr2  1  0.09915644  0.50619907  0.70122251  1
  Zr  Zr3  1  0.70565139  0.49939362  0.29915215  1
  Zr  Zr4  1  0.49952142  0.50314526  0.50180495  1
  Zr  Zr5  1  0.89979874  0.89678503  0.50502011  1
  Zr  Zr6  1  0.29306051  0.70069945  0.29031550  1
  Zr  Zr7  1  0.68974676  0.90122598  0.29606378  1
  Zr  Zr8  1  0.69384834  0.29809509  0.49998416  1
  Zr  Zr9  1  0.69628093  0.29227552  0.90515190  1
  Zr  Zr10  1  0.10757057  0.70307201  0.88876953  1
  Zr  Zr11  1  0.28929953  0.70290362  0.49992940  1
  Zr  Zr12  1  0.09973086  0.70700611  0.30748095  1
  Zr  Zr13  1  0.49549710  0.31168134  0.90501627  1
  Zr  Zr14  1  0.50391966  0.30879623  0.10016266  1
  Zr  Zr15  1  0.90599183  0.89817051  0.89368662  1
  Zr  Zr16  1  0.69725786  0.10641923  0.50305157  1
  Zr  Zr17  1  0.30510370  0.69548402  0.89914752  1
  Zr  Zr18  1  0.89923773  0.30111019  0.09868177  1
  Zr  Zr19  1  0.49633591  0.90095278  0.49692264  1
  Zr  Zr20  1  0.10231384  0.49608014  0.50116893  1
  Zr  Zr21  1  0.49303356  0.70039966  0.71256695  1
  Zr  Zr22  1  0.30398949  0.09380456  0.69583797  1
  Zr  Zr23  1  0.89787081  0.09042983  0.50013106  1
  Zr  Zr24  1  0.30457338  0.70310724  0.09674128  1
  Zr  Zr25  1  0.90347871  0.70260702  0.69591024  1
  Zr  Zr26  1  0.69769042  0.90309075  0.71031704  1
  Zr  Zr27  1  0.90609885  0.50116964  0.89390325  1
  Zr  Zr28  1  0.11269752  0.30161525  0.50042273  1
  Zr  Zr29  1  0.69289304  0.09782178  0.09164449  1
  Zr  Zr30  1  0.89618875  0.69911760  0.10098096  1
  Zr  Zr31  1  0.09578520  0.70167405  0.50343542  1
  Zr  Zr32  1  0.09981878  0.08260268  0.90205157  1
  Zr  Zr33  1  0.69127374  0.49515085  0.11361551  1
  Zr  Zr34  1  0.69500107  0.09548347  0.89895311  1
  Zr  Zr35  1  0.29918310  0.90522263  0.29183309  1
  Zr  Zr36  1  0.50515209  0.50221559  0.28935123  1
  Zr  Zr37  1  0.89531624  0.69653650  0.89437493  1
  Zr  Zr38  1  0.69643536  0.50441503  0.50412100  1
  Zr  Zr39  1  0.69829668  0.10302038  0.70200513  1
  Zr  Zr40  1  0.30884491  0.30872142  0.09912089  1
  Zr  Zr41  1  0.70563261  0.69495493  0.70042413  1
  Zr  Zr42  1  0.10748482  0.30347858  0.69392618  1
  Zr  Zr43  1  0.90597655  0.10290548  0.30368201  1
  Zr  Zr44  1  0.90198822  0.49963700  0.11964794  1
  Zr  Zr45  1  0.11392692  0.90421166  0.09279181  1
  Zr  Zr46  1  0.30626154  0.09563105  0.90596593  1
  Zr  Zr47  1  0.90074852  0.29106164  0.90343743  1
  Zr  Zr48  1  0.49595367  0.90083902  0.10090915  1
  Zr  Zr49  1  0.90820698  0.69600973  0.29651237  1
  Sc  Sc50  1  0.10091982  0.10205070  0.09635774  1
  Sc  Sc51  1  0.69593958  0.29706297  0.69733602  1
  Sc  Sc52  1  0.30278655  0.30047475  0.68842153  1
  Sc  Sc53  1  0.50304180  0.50322979  0.70408403  1
  Sc  Sc54  1  0.69455254  0.10064159  0.30932281  1
  Sc  Sc55  1  0.69335889  0.89524644  0.09808028  1
  Sc  Sc56  1  0.69402459  0.50057565  0.69880778  1
  Sc  Sc57  1  0.10989989  0.08274034  0.69912085  1
  Sc  Sc58  1  0.30533825  0.30382025  0.30621963  1
  Sc  Sc59  1  0.89628164  0.31104061  0.30145220  1
  Sc  Sc60  1  0.10143851  0.90130647  0.50092857  1
  Sc  Sc61  1  0.49694948  0.50526560  0.89558776  1
  Sc  Sc62  1  0.29802055  0.09618734  0.50212521  1
  Sc  Sc63  1  0.10145786  0.31474484  0.89879085  1
  Sc  Sc64  1  0.10003127  0.29499672  0.31000712  1
  Sc  Sc65  1  0.90084406  0.10249573  0.89690530  1
  Sc  Sc66  1  0.90466261  0.89182029  0.30247105  1
  Sc  Sc67  1  0.89485685  0.88790960  0.10055867  1
  Sc  Sc68  1  0.49882388  0.30119443  0.69517044  1
  Sc  Sc69  1  0.50557999  0.69522692  0.50254934  1
  Sc  Sc70  1  0.30115410  0.89935892  0.69095715  1
  Sc  Sc71  1  0.91049352  0.11049395  0.08817498  1
  Sc  Sc72  1  0.69796512  0.70474235  0.09282416  1
  Sc  Sc73  1  0.89600958  0.09448022  0.69936374  1
  Sc  Sc74  1  0.49381144  0.29640550  0.30219243  1
  Sc  Sc75  1  0.89641073  0.30247876  0.49803413  1
  Sc  Sc76  1  0.49270348  0.09581748  0.70078852  1
  Sc  Sc77  1  0.68892914  0.50465813  0.89019808  1
  Sc  Sc78  1  0.49588203  0.09801295  0.30348023  1
  Sc  Sc79  1  0.90029288  0.50590226  0.70292670  1
  Sc  Sc80  1  0.29717539  0.89483354  0.91299761  1
  Sc  Sc81  1  0.89971048  0.89948021  0.69739991  1
  Sc  Sc82  1  0.30087600  0.09223562  0.30119784  1
  Sc  Sc83  1  0.50267618  0.70079764  0.28993580  1
  Sc  Sc84  1  0.29860552  0.70322070  0.70214477  1
  Sc  Sc85  1  0.29747744  0.90562285  0.50200141  1
  Sc  Sc86  1  0.69345172  0.70440683  0.89971166  1
  Sc  Sc87  1  0.09022316  0.30165227  0.09642151  1
  Sc  Sc88  1  0.89594017  0.29496501  0.69986445  1
  Sc  Sc89  1  0.11061727  0.69880347  0.10887317  1
  Sc  Sc90  1  0.70030996  0.30298702  0.30298134  1
  Sc  Sc91  1  0.29840320  0.49347479  0.49952127  1
  Sc  Sc92  1  0.90305629  0.49310583  0.49819041  1
  Sc  Sc93  1  0.30463923  0.50681842  0.70284683  1
  Sc  Sc94  1  0.50341236  0.89688522  0.89732931  1
  Sc  Sc95  1  0.49095536  0.29213053  0.50138920  1
  Sc  Sc96  1  0.30841351  0.08934274  0.10111799  1
  Sc  Sc97  1  0.69284969  0.69604081  0.29267856  1
  Sc  Sc98  1  0.70314303  0.90501174  0.49813515  1
  Sc  Sc99  1  0.10718035  0.50209152  0.89469602  1
  Nb  Nb100  1  0.10558097  0.70164732  0.69994919  1
  Nb  Nb101  1  0.50397548  0.09582199  0.09441378  1
  Nb  Nb102  1  0.09977975  0.10040532  0.49176581  1
  Nb  Nb103  1  0.29850274  0.49161097  0.90557896  1
  Nb  Nb104  1  0.49209776  0.50288724  0.10421931  1
  Nb  Nb105  1  0.09192527  0.50882786  0.29738639  1
  Nb  Nb106  1  0.89545325  0.50517105  0.30014207  1
  Nb  Nb107  1  0.69920361  0.89932761  0.90284270  1
  Nb  Nb108  1  0.30241079  0.89613799  0.10485701  1
  Nb  Nb109  1  0.30322079  0.50516523  0.28939351  1
  Nb  Nb110  1  0.29745156  0.50732693  0.10673095  1
  Nb  Nb111  1  0.10643880  0.90693079  0.29515835  1
  Nb  Nb112  1  0.10050393  0.50156779  0.10387215  1
  Nb  Nb113  1  0.10431129  0.09592610  0.30191778  1
  Nb  Nb114  1  0.89674430  0.70887339  0.50024840  1
  Nb  Nb115  1  0.09962346  0.89372159  0.71345951  1
  Nb  Nb116  1  0.09786810  0.89771763  0.89784547  1
  Nb  Nb117  1  0.50117782  0.09669743  0.90869258  1
  Nb  Nb118  1  0.29570120  0.30102958  0.50217464  1
  Nb  Nb119  1  0.69946942  0.29806664  0.09815575  1
  Nb  Nb120  1  0.50052151  0.10254417  0.50220744  1
  Nb  Nb121  1  0.49714473  0.69733233  0.08711355  1
  Nb  Nb122  1  0.70389810  0.70023957  0.50694647  1
  Nb  Nb123  1  0.49819383  0.70352545  0.90325326  1
  Nb  Nb124  1  0.30096229  0.30419194  0.90316796  1
  Nb  Nb125  1  0.79766212  0.39687315  0.80773802  1
  Nb  Nb126  1  0.79774266  0.40480506  0.00035535  1
  Nb  Nb127  1  0.00206413  0.60158182  0.00405444  1
  Nb  Nb128  1  0.80332093  0.60565004  0.40279617  1
  Nb  Nb129  1  0.59670582  -0.00128475  0.60081745  1
  Nb  Nb130  1  0.80387737  0.00687457  0.19600326  1
  Nb  Nb131  1  0.00861391  0.19335645  0.59587236  1
  Nb  Nb132  1  0.39482010  0.60238339  0.39360583  1
  Nb  Nb133  1  0.20685338  0.20418912  -0.00295510  1
  Nb  Nb134  1  0.80260205  0.59052330  0.00195132  1
  Nb  Nb135  1  0.39669149  0.79521131  0.39581694  1
  Nb  Nb136  1  0.79699957  0.79089039  0.40322030  1
  Nb  Nb137  1  0.20283306  0.20377869  0.19659505  1
  Nb  Nb138  1  0.00245845  0.00041450  0.20260440  1
  Nb  Nb139  1  0.79572155  0.19687232  0.19555085  1
  Nb  Nb140  1  0.01449925  0.19694311  0.79337390  1
  Nb  Nb141  1  0.59718586  0.40322035  0.40273593  1
  Nb  Nb142  1  0.00710862  0.79553059  -0.00600552  1
  Nb  Nb143  1  0.60324595  0.80165859  0.60355894  1
  Nb  Nb144  1  0.79823431  -0.00393634  -0.00066446  1
  Nb  Nb145  1  0.20553052  0.20034263  0.80640896  1
  Nb  Nb146  1  0.60081267  0.19890829  0.19288278  1
  Nb  Nb147  1  0.58774049  0.19652602  0.80823728  1
  Nb  Nb148  1  0.39677383  0.20170459  0.80932304  1
  Nb  Nb149  1  0.19790224  0.40635138  0.20052018  1
  Pd  Pd150  1  0.00416188  0.19875310  0.20489205  1
  Pd  Pd151  1  0.39656407  0.60508574  0.59495215  1
  Pd  Pd152  1  0.21244727  0.80706878  0.79779819  1
  Pd  Pd153  1  0.20245218  0.40843387  0.38857428  1
  Pd  Pd154  1  0.00845919  0.80533469  0.60580752  1
  Pd  Pd155  1  0.80012157  -0.00989208  0.39053165  1
  Pd  Pd156  1  0.19778011  0.39966957  0.00941486  1
  Pd  Pd157  1  0.60211536  0.41292348  -0.00252197  1
  Pd  Pd158  1  0.00217646  0.39987628  0.39678638  1
  Pd  Pd159  1  0.39751288  0.59217409  -0.00334486  1
  Pd  Pd160  1  -0.00478427  0.59859582  0.40782093  1
  Pd  Pd161  1  0.80287453  0.20466087  0.39439107  1
  Pd  Pd162  1  0.39615918  0.39834893  0.79346611  1
  Pd  Pd163  1  0.00639585  0.00035028  0.60482382  1
  Pd  Pd164  1  0.40026225  0.40275541  0.60176190  1
  Pd  Pd165  1  0.39789848  -0.00557514  0.80727706  1
  Pd  Pd166  1  0.80943022  0.59229968  0.59529447  1
  Pd  Pd167  1  0.60473024  0.59562046  0.00172447  1
  Pd  Pd168  1  0.59372862  0.39679231  0.59633714  1
  Pd  Pd169  1  0.20328527  0.59116126  0.39707299  1
  Pd  Pd170  1  0.40158928  0.20120093  0.00306051  1
  Pd  Pd171  1  0.80876431  0.19961740  0.59899945  1
  Pd  Pd172  1  -0.00991253  -0.01157218  0.01024662  1
  Pd  Pd173  1  0.19827062  0.18973200  0.60333190  1
  Pd  Pd174  1  0.01127032  0.80814740  0.19141399  1
  Pd  Pd175  1  0.39299859  0.19349288  0.40642518  1
  Pd  Pd176  1  -0.00343509  0.41090755  0.00113117  1
  Pd  Pd177  1  0.20354813  0.81127139  0.39987978  1
  Pd  Pd178  1  -0.00407064  0.59985877  0.59591133  1
  Pd  Pd179  1  0.19593160  0.60121252  -0.00205756  1
  Pd  Pd180  1  0.79829327  0.79986307  0.80078257  1
  Pd  Pd181  1  0.79389827  0.80179806  0.20952898  1
  Pd  Pd182  1  0.00855119  0.39387090  0.21153337  1
  Pd  Pd183  1  0.21049113  0.39971550  0.79183759  1
  Pd  Pd184  1  0.40108254  0.19320044  0.19718169  1
  Pd  Pd185  1  0.60006596  0.79325416  0.40683710  1
  Pd  Pd186  1  -0.00638103  0.39167916  0.79117878  1
  Pd  Pd187  1  -0.00364702  0.20557430  0.40751361  1
  Pd  Pd188  1  0.21098178  0.19569437  0.39331049  1
  Pd  Pd189  1  0.00405941  -0.00831623  0.39586778  1
  Pd  Pd190  1  0.80021641  0.40290650  0.60843499  1
  Pd  Pd191  1  0.80531141  0.00139254  0.80564176  1
  Pd  Pd192  1  0.40444350  0.40788310  0.39782977  1
  Pd  Pd193  1  0.59608758  0.00530040  0.40522301  1
  Pd  Pd194  1  0.60040146  0.60070908  0.39818353  1
  Pd  Pd195  1  -0.00480097  0.39303451  0.60360571  1
  Pd  Pd196  1  0.21240543  -0.00787875  0.80305208  1
  Pd  Pd197  1  0.59441773  0.79499322  0.18970021  1
  Pd  Pd198  1  0.40290015  0.79247985  0.59108669  1
  Pd  Pd199  1  0.20347005  0.59778303  0.60322185  1
  Rh  Rh200  1  0.40273671  0.79481073  0.19910945  1
  Rh  Rh201  1  0.80451762  0.80128555  -0.00943151  1
  Rh  Rh202  1  0.39673465  0.59679036  0.80709087  1
  Rh  Rh203  1  0.20561490  0.59565108  0.80002842  1
  Rh  Rh204  1  0.39584917  0.19841846  0.59921877  1
  Rh  Rh205  1  0.60066363  -0.01201578  -0.00203512  1
  Rh  Rh206  1  -0.00214764  0.00325682  0.79228310  1
  Rh  Rh207  1  0.59375410  0.80166032  -0.00222709  1
  Rh  Rh208  1  0.00741193  0.60700612  0.79785916  1
  Rh  Rh209  1  0.40392248  0.80343220  -0.00052901  1
  Rh  Rh210  1  0.40536670  0.00346790  0.19821696  1
  Rh  Rh211  1  0.59493030  0.20739700  0.39410368  1
  Rh  Rh212  1  0.60074327  0.00827140  0.20147088  1
  Rh  Rh213  1  0.19905547  0.80361424  0.19771520  1
  Rh  Rh214  1  0.39808327  -0.00313334  0.40268678  1
  Rh  Rh215  1  0.59676183  0.60901760  0.18656274  1
  Rh  Rh216  1  0.79371632  0.60793070  0.20031197  1
  Rh  Rh217  1  0.39410499  0.80285919  0.80851007  1
  Rh  Rh218  1  0.59713952  0.38726625  0.21059580  1
  Rh  Rh219  1  0.79588256  0.20515377  0.79717932  1
  Rh  Rh220  1  0.01993458  0.20186563  -0.01910104  1
  Rh  Rh221  1  0.19756005  0.79443165  0.00073472  1
  Rh  Rh222  1  0.19350923  0.80452431  0.60519759  1
  Rh  Rh223  1  0.19288968  0.59586959  0.20487491  1
  Rh  Rh224  1  0.59632088  0.60756252  0.79880788  1
  Rh  Rh225  1  0.79157009  0.80752749  0.59775598  1
  Rh  Rh226  1  0.40546900  0.60724291  0.19785057  1
  Rh  Rh227  1  0.58764990  0.20369433  0.00081642  1
  Rh  Rh228  1  0.40037405  0.41351245  0.00408729  1
  Rh  Rh229  1  0.59470205  0.61025650  0.61112666  1
  Rh  Rh230  1  0.00049098  0.80513437  0.40131226  1
  Rh  Rh231  1  0.39725522  0.40365541  0.20059518  1
  Rh  Rh232  1  0.78992809  -0.00151903  0.60239393  1
  Rh  Rh233  1  -0.00039492  0.79503054  0.79783729  1
  Rh  Rh234  1  0.79790638  0.38966848  0.19671906  1
  Rh  Rh235  1  0.19992641  -0.00007570  0.40186285  1
  Rh  Rh236  1  0.40721431  0.00340900  0.59280201  1
  Rh  Rh237  1  0.60498147  0.38864758  0.79811980  1
  Rh  Rh238  1  0.00778392  0.60451818  0.19766498  1
  Rh  Rh239  1  0.79352187  0.59211964  0.80430688  1
  Rh  Rh240  1  0.19313334  -0.00614579  0.59704099  1
  Rh  Rh241  1  0.58931330  0.19131467  0.60921708  1
  Rh  Rh242  1  0.60095323  0.79562560  0.79933059  1
  Rh  Rh243  1  0.20649693  0.40914270  0.60327957  1
  Rh  Rh244  1  0.19555251  0.01095784  0.19396558  1
  Rh  Rh245  1  0.59303282  0.00589623  0.79780673  1
  Rh  Rh246  1  0.79280634  0.40957140  0.40583620  1
  Rh  Rh247  1  0.20836546  0.00291474  0.00296775  1
  Rh  Rh248  1  0.40368410  -0.00993553  0.00099815  1
  Rh  Rh249  1  0.79977912  0.19648534  0.00628911  1
