# generated using pymatgen
data_ZrScNbPdRh
_symmetry_space_group_name_H-M   'P 1'
_cell_length_a   16.55687781
_cell_length_b   16.55748790
_cell_length_c   16.56191855
_cell_angle_alpha   90.03473455
_cell_angle_beta   90.02895158
_cell_angle_gamma   90.00200393
_symmetry_Int_Tables_number   1
_chemical_formula_structural   ZrScNbPdRh
_chemical_formula_sum   'Zr50 Sc50 Nb50 Pd50 Rh50'
_cell_volume   4540.28796689
_cell_formula_units_Z   50
loop_
 _symmetry_equiv_pos_site_id
 _symmetry_equiv_pos_as_xyz
  1  'x, y, z'
loop_
 _atom_site_type_symbol
 _atom_site_label
 _atom_site_symmetry_multiplicity
 _atom_site_fract_x
 _atom_site_fract_y
 _atom_site_fract_z
 _atom_site_occupancy
  Zr  Zr0  1  0.11140041  0.29155234  0.90290864  1
  Zr  Zr1  1  0.28702288  0.89676722  0.30153846  1
  Zr  Zr2  1  0.70888096  0.89293886  0.30804838  1
  Zr  Zr3  1  0.50226166  0.90508438  0.50179895  1
  Zr  Zr4  1  0.09723314  0.90575053  0.70761601  1
  Zr  Zr5  1  0.09654499  0.29658305  0.30345794  1
  Zr  Zr6  1  0.50396658  0.30132996  0.89797227  1
  Zr  Zr7  1  0.90824487  0.09633549  0.70678620  1
  Zr  Zr8  1  0.30118874  0.69420277  0.69612131  1
  Zr  Zr9  1  0.30313400  0.08924455  0.50569758  1
  Zr  Zr10  1  0.50144257  0.89711565  0.69832259  1
  Zr  Zr11  1  0.50151388  0.50876083  0.09793545  1
  Zr  Zr12  1  0.50939612  0.50565641  0.30156860  1
  Zr  Zr13  1  0.70213118  0.30544188  0.09704564  1
  Zr  Zr14  1  0.89281007  0.29242698  0.70440905  1
  Zr  Zr15  1  0.89990800  0.50331776  0.50320545  1
  Zr  Zr16  1  0.89843215  0.10157117  0.30029969  1
  Zr  Zr17  1  0.10452425  0.29666409  0.70491909  1
  Zr  Zr18  1  0.90408432  0.90040200  0.89861968  1
  Zr  Zr19  1  0.69434598  0.49783406  0.69534609  1
  Zr  Zr20  1  0.09268331  0.70076565  0.90137971  1
  Zr  Zr21  1  0.29223443  0.90898813  0.69442623  1
  Zr  Zr22  1  0.49899568  0.30517645  0.29817262  1
  Zr  Zr23  1  0.89723779  0.10720460  0.51166320  1
  Zr  Zr24  1  0.10399584  0.49429355  0.89343058  1
  Zr  Zr25  1  0.30443087  0.49369519  0.90306238  1
  Zr  Zr26  1  0.69624820  0.30003958  0.89782149  1
  Zr  Zr27  1  0.90509758  0.70157245  0.49553890  1
  Zr  Zr28  1  0.29409047  0.09823763  0.69682647  1
  Zr  Zr29  1  0.29951826  0.51476757  0.50377381  1
  Zr  Zr30  1  0.90400389  0.89559793  0.29769884  1
  Zr  Zr31  1  0.09302763  0.50904835  0.09979970  1
  Zr  Zr32  1  0.69592517  0.10158176  0.89805230  1
  Zr  Zr33  1  0.29239657  0.50721468  0.70195121  1
  Zr  Zr34  1  0.30331730  0.50711910  0.10099432  1
  Zr  Zr35  1  0.69104174  0.90179090  0.10060552  1
  Zr  Zr36  1  0.90432804  0.10021807  0.10319870  1
  Zr  Zr37  1  0.69080372  0.09702176  0.30570199  1
  Zr  Zr38  1  0.49781608  0.70007823  0.70368651  1
  Zr  Zr39  1  0.50130790  0.50425800  0.49878643  1
  Zr  Zr40  1  0.70129553  0.08864374  0.49881962  1
  Zr  Zr41  1  0.09813666  0.29588367  0.09989988  1
  Zr  Zr42  1  0.50142206  0.69982892  0.09626415  1
  Zr  Zr43  1  0.30142450  0.70206430  0.10707637  1
  Zr  Zr44  1  0.69240741  0.49837550  0.49484842  1
  Zr  Zr45  1  0.50870898  0.09771571  0.48852646  1
  Zr  Zr46  1  0.10144865  0.89878684  0.90173157  1
  Zr  Zr47  1  0.30874846  0.30132599  0.29345411  1
  Zr  Zr48  1  0.50210608  0.49760729  0.90155207  1
  Zr  Zr49  1  0.50086614  0.08796029  0.10600093  1
  Sc  Sc50  1  0.49580945  0.09837045  0.68487030  1
  Sc  Sc51  1  0.30999234  0.50821451  0.29716414  1
  Sc  Sc52  1  0.10391060  0.90543589  0.48435868  1
  Sc  Sc53  1  0.90037275  0.29898746  0.11174415  1
  Sc  Sc54  1  0.90207605  0.69757136  0.10180984  1
  Sc  Sc55  1  0.70367105  0.50288155  0.10175616  1
  Sc  Sc56  1  0.30392707  0.29057927  0.70281065  1
  Sc  Sc57  1  0.50085202  0.70096067  0.49281725  1
  Sc  Sc58  1  0.49807424  0.89153615  0.90839813  1
  Sc  Sc59  1  0.29977960  0.89970013  0.91431785  1
  Sc  Sc60  1  0.10052480  0.10212318  0.49868835  1
  Sc  Sc61  1  0.69824701  0.29309838  0.71187484  1
  Sc  Sc62  1  0.70686808  0.69217187  0.09576853  1
  Sc  Sc63  1  0.29703902  0.70307523  0.29922717  1
  Sc  Sc64  1  0.69355100  0.09611327  0.09687860  1
  Sc  Sc65  1  0.09975203  0.69487557  0.48341637  1
  Sc  Sc66  1  0.49834997  0.70293181  0.90883777  1
  Sc  Sc67  1  0.50794862  0.31053540  0.49065522  1
  Sc  Sc68  1  0.49580982  0.30832166  0.10517183  1
  Sc  Sc69  1  0.89387669  0.50709954  0.09614315  1
  Sc  Sc70  1  0.30456620  0.08648123  0.10324049  1
  Sc  Sc71  1  0.29559203  0.29493672  0.50489773  1
  Sc  Sc72  1  0.89914426  0.70259224  0.90918943  1
  Sc  Sc73  1  0.89595499  0.69858188  0.69108831  1
  Sc  Sc74  1  0.09634159  0.09573440  0.30149722  1
  Sc  Sc75  1  0.09543989  0.29556223  0.49702198  1
  Sc  Sc76  1  0.09533867  0.09798828  0.09733210  1
  Sc  Sc77  1  0.30021924  0.70059708  0.89584693  1
  Sc  Sc78  1  0.10269195  0.70067221  0.71122781  1
  Sc  Sc79  1  0.70431769  0.31325256  0.29810797  1
  Sc  Sc80  1  0.09496486  0.51092291  0.29705550  1
  Sc  Sc81  1  0.69994732  0.88765325  0.69396211  1
  Sc  Sc82  1  0.49259633  0.89906365  0.09393567  1
  Sc  Sc83  1  0.70885253  0.10064636  0.69864704  1
  Sc  Sc84  1  0.89722094  0.49762609  0.29299546  1
  Sc  Sc85  1  0.90339129  0.89998174  0.70571234  1
  Sc  Sc86  1  0.49989539  0.90145951  0.30298881  1
  Sc  Sc87  1  0.30520964  0.30766525  0.09751882  1
  Sc  Sc88  1  0.90300916  0.89722415  0.09958555  1
  Sc  Sc89  1  0.09493970  0.70105523  0.10617991  1
  Sc  Sc90  1  0.10070149  0.50399924  0.50135328  1
  Sc  Sc91  1  0.50416500  0.29874728  0.70810994  1
  Sc  Sc92  1  0.89426413  0.90597410  0.49466794  1
  Sc  Sc93  1  0.90444927  0.30199893  0.30177202  1
  Sc  Sc94  1  0.09663337  0.90220526  0.29568336  1
  Sc  Sc95  1  0.29347548  0.10019329  0.89794711  1
  Sc  Sc96  1  0.50379173  0.09810745  0.90537091  1
  Sc  Sc97  1  0.30214962  0.09466052  0.29553661  1
  Sc  Sc98  1  0.70465553  0.89370199  0.90219518  1
  Sc  Sc99  1  0.70334338  0.48969006  0.91267669  1
  Nb  Nb100  1  0.28843177  0.89736257  0.10663877  1
  Nb  Nb101  1  0.90006011  0.09784391  0.90438833  1
  Nb  Nb102  1  0.09668832  0.10088595  0.89363285  1
  Nb  Nb103  1  0.29636373  0.70578868  0.49941560  1
  Nb  Nb104  1  0.30769906  0.29638558  0.90681929  1
  Nb  Nb105  1  0.70167062  0.29990013  0.49817681  1
  Nb  Nb106  1  0.89916031  0.30167962  0.50337914  1
  Nb  Nb107  1  0.70340408  0.51238424  0.29577548  1
  Nb  Nb108  1  0.89507512  0.49258704  0.89692760  1
  Nb  Nb109  1  0.50914918  0.70103590  0.29391728  1
  Nb  Nb110  1  0.69452840  0.89759554  0.49608974  1
  Nb  Nb111  1  0.49728219  0.50271658  0.69772509  1
  Nb  Nb112  1  0.09881432  0.49527742  0.70265561  1
  Nb  Nb113  1  0.70549277  0.70359507  0.29834916  1
  Nb  Nb114  1  0.88923896  0.30521597  0.89687178  1
  Nb  Nb115  1  0.70542847  0.71101223  0.50148563  1
  Nb  Nb116  1  0.89643349  0.49551046  0.70072949  1
  Nb  Nb117  1  0.50109823  0.10456303  0.29755242  1
  Nb  Nb118  1  0.69975002  0.69752134  0.70281572  1
  Nb  Nb119  1  0.10676856  0.09429970  0.71280998  1
  Nb  Nb120  1  0.69917054  0.69461911  0.89874484  1
  Nb  Nb121  1  0.11382566  0.90184126  0.10770133  1
  Nb  Nb122  1  0.08725321  0.70554499  0.29589905  1
  Nb  Nb123  1  0.29705425  0.89590973  0.49520745  1
  Nb  Nb124  1  0.89550232  0.71177964  0.29404049  1
  Nb  Nb125  1  0.59625749  -0.00534210  0.79621693  1
  Nb  Nb126  1  0.20180393  0.40210792  0.39371437  1
  Nb  Nb127  1  0.00890794  0.80166806  0.59635009  1
  Nb  Nb128  1  0.20210721  0.20426963  0.19922992  1
  Nb  Nb129  1  0.60355844  0.79488289  0.20331297  1
  Nb  Nb130  1  0.80519557  0.19953408  -0.00422632  1
  Nb  Nb131  1  0.79887726  -0.00158824  0.20246051  1
  Nb  Nb132  1  -0.00357007  0.40130277  0.60810782  1
  Nb  Nb133  1  0.79575179  0.60813182  0.39600989  1
  Nb  Nb134  1  0.19789415  0.40045847  0.20352488  1
  Nb  Nb135  1  -0.00824300  0.58767314  0.79755221  1
  Nb  Nb136  1  0.79771409  0.20414130  0.40700107  1
  Nb  Nb137  1  0.80144446  0.39571849  0.59853875  1
  Nb  Nb138  1  0.39145090  0.80067403  0.59375646  1
  Nb  Nb139  1  0.40013864  0.20020218  0.00087447  1
  Nb  Nb140  1  0.60518926  0.60133786  0.79947307  1
  Nb  Nb141  1  0.19880272  0.80079956  0.59307896  1
  Nb  Nb142  1  0.19828281  0.59980051  -0.00077218  1
  Nb  Nb143  1  0.60685714  0.20039931  0.58956644  1
  Nb  Nb144  1  0.40521768  0.19707965  0.39619051  1
  Nb  Nb145  1  0.59532809  0.19975940  0.20436892  1
  Nb  Nb146  1  0.40153768  -0.00254816  0.79874198  1
  Nb  Nb147  1  0.40164195  0.40966815  0.60402405  1
  Nb  Nb148  1  -0.00514493  0.39732827  -0.00916292  1
  Nb  Nb149  1  0.79760382  0.59668223  0.79999437  1
  Pd  Pd150  1  0.79982943  0.40354765  0.40008564  1
  Pd  Pd151  1  -0.00192852  0.20186206  0.80629313  1
  Pd  Pd152  1  0.59870559  0.61128359  0.60011478  1
  Pd  Pd153  1  0.21141321  0.19950893  0.39323647  1
  Pd  Pd154  1  0.39904441  -0.01265713  0.20557524  1
  Pd  Pd155  1  0.19934269  0.78991759  0.00346968  1
  Pd  Pd156  1  0.41476342  0.21378957  0.58730624  1
  Pd  Pd157  1  0.20106828  0.59921404  0.38918026  1
  Pd  Pd158  1  0.59439888  0.20346269  0.01294680  1
  Pd  Pd159  1  0.59876320  0.38866797  0.60533327  1
  Pd  Pd160  1  0.20745842  0.80312528  0.79817522  1
  Pd  Pd161  1  0.19243858  0.19496345  0.60063481  1
  Pd  Pd162  1  0.40234407  0.79727712  0.39870665  1
  Pd  Pd163  1  0.40690211  0.60096714  0.80776681  1
  Pd  Pd164  1  0.18506776  0.61018469  0.60028447  1
  Pd  Pd165  1  0.00672554  0.40545286  0.40659200  1
  Pd  Pd166  1  0.60137439  0.79987892  0.80779786  1
  Pd  Pd167  1  0.79874182  0.79835972  0.00486302  1
  Pd  Pd168  1  0.59423959  0.79259272  0.59500725  1
  Pd  Pd169  1  0.79401116  0.59817837  0.59630170  1
  Pd  Pd170  1  0.79909067  0.00468588  0.00584148  1
  Pd  Pd171  1  0.79884985  -0.01111161  0.60683171  1
  Pd  Pd172  1  0.80890887  0.80748033  0.59769813  1
  Pd  Pd173  1  0.21302294  0.39073659  0.79852026  1
  Pd  Pd174  1  0.21166267  0.18966623  0.01040750  1
  Pd  Pd175  1  0.39582337  0.39918578  0.79200467  1
  Pd  Pd176  1  0.00875579  0.60302571  0.60960243  1
  Pd  Pd177  1  0.00060279  0.40400264  0.19411335  1
  Pd  Pd178  1  0.19952514  0.39898478  0.59310330  1
  Pd  Pd179  1  0.40589238  0.80531479  0.20171494  1
  Pd  Pd180  1  0.39696040  0.00150409  0.39370703  1
  Pd  Pd181  1  0.78773026  0.19517412  0.20298956  1
  Pd  Pd182  1  0.60299945  0.40316532  0.19965633  1
  Pd  Pd183  1  -0.00996944  0.20804694  -0.00744676  1
  Pd  Pd184  1  0.60798058  0.61207922  0.40175697  1
  Pd  Pd185  1  0.19547866  0.40539750  0.00911955  1
  Pd  Pd186  1  0.00010090  0.39465774  0.79982969  1
  Pd  Pd187  1  0.00895377  0.20217062  0.60475104  1
  Pd  Pd188  1  0.38911077  0.39775711  0.41221189  1
  Pd  Pd189  1  0.00637260  -0.00569697  0.00233037  1
  Pd  Pd190  1  0.00494677  0.80696373  0.01055047  1
  Pd  Pd191  1  -0.00448278  0.00518369  0.40443423  1
  Pd  Pd192  1  0.40064142  0.61135262  0.39499321  1
  Pd  Pd193  1  0.39028452  0.80835909  0.79684561  1
  Pd  Pd194  1  0.00652423  -0.00601768  0.59607003  1
  Pd  Pd195  1  0.19671768  0.00772545  -0.00116771  1
  Pd  Pd196  1  0.79338645  -0.00339709  0.79827022  1
  Pd  Pd197  1  0.40485555  0.18776925  0.80712727  1
  Pd  Pd198  1  0.80630495  0.79132964  0.79965604  1
  Pd  Pd199  1  -0.01198277  0.59766255  0.38858941  1
  Rh  Rh200  1  0.00342434  0.80374889  0.19463475  1
  Rh  Rh201  1  0.39840410  0.00469836  -0.00572244  1
  Rh  Rh202  1  0.80428836  0.00547752  0.39590010  1
  Rh  Rh203  1  0.19547864  0.60095521  0.19810502  1
  Rh  Rh204  1  0.79186815  0.20641078  0.59543524  1
  Rh  Rh205  1  0.00006273  0.00223256  0.80890421  1
  Rh  Rh206  1  0.59897544  -0.01236546  0.39333425  1
  Rh  Rh207  1  0.40194808  0.19377930  0.19547871  1
  Rh  Rh208  1  0.80460208  0.79690269  0.40771379  1
  Rh  Rh209  1  0.20286795  0.00494604  0.39768839  1
  Rh  Rh210  1  0.80237144  0.59949487  -0.00795769  1
  Rh  Rh211  1  0.19268035  0.79451263  0.20672689  1
  Rh  Rh212  1  0.19190606  0.79576902  0.39626787  1
  Rh  Rh213  1  0.59407007  0.18284757  0.78504476  1
  Rh  Rh214  1  0.60619128  0.79460759  0.00679531  1
  Rh  Rh215  1  0.40752176  0.60403876  0.20555583  1
  Rh  Rh216  1  0.40779573  0.39461445  0.00083409  1
  Rh  Rh217  1  -0.01200571  0.19565430  0.40133737  1
  Rh  Rh218  1  0.39151455  0.60727269  -0.00445122  1
  Rh  Rh219  1  0.60998893  0.00459771  0.60794251  1
  Rh  Rh220  1  0.19496974  0.00809068  0.20234183  1
  Rh  Rh221  1  0.19379523  0.60063454  0.80735709  1
  Rh  Rh222  1  0.80194512  0.40605912  0.19829542  1
  Rh  Rh223  1  0.78881345  0.40459032  0.79304257  1
  Rh  Rh224  1  0.59605515  0.40170852  0.00593564  1
  Rh  Rh225  1  0.79393323  0.80480387  0.18932257  1
  Rh  Rh226  1  0.80920156  0.39182615  0.01025277  1
  Rh  Rh227  1  -0.01024607  0.78753628  0.79102609  1
  Rh  Rh228  1  0.60617963  0.59849844  -0.00593479  1
  Rh  Rh229  1  -0.00233607  -0.00459857  0.19476350  1
  Rh  Rh230  1  0.60219705  0.21182266  0.39508121  1
  Rh  Rh231  1  0.80472976  0.19048586  0.81000899  1
  Rh  Rh232  1  0.00889283  0.19602408  0.20543864  1
  Rh  Rh233  1  0.60376050  -0.00516895  0.20815507  1
  Rh  Rh234  1  0.60685623  0.40340720  0.39054152  1
  Rh  Rh235  1  0.60001768  0.80014319  0.39709398  1
  Rh  Rh236  1  0.60203022  0.40995024  0.80104372  1
  Rh  Rh237  1  0.00090513  0.80248711  0.40203949  1
  Rh  Rh238  1  0.59880597  -0.00863980  -0.01354443  1
  Rh  Rh239  1  0.20363751  -0.00211870  0.81186132  1
  Rh  Rh240  1  0.60492704  0.60719227  0.19627293  1
  Rh  Rh241  1  0.40108255  0.41608082  0.19670281  1
  Rh  Rh242  1  0.40506066  0.60350771  0.59555795  1
  Rh  Rh243  1  0.18926038  -0.00288959  0.59256448  1
  Rh  Rh244  1  0.00262073  0.58959009  -0.01337260  1
  Rh  Rh245  1  0.39963267  -0.00923414  0.60089064  1
  Rh  Rh246  1  0.80445514  0.60381493  0.20478439  1
  Rh  Rh247  1  -0.01044695  0.60568368  0.20563561  1
  Rh  Rh248  1  0.20522736  0.20024044  0.80149490  1
  Rh  Rh249  1  0.38915450  0.79914357  0.00790451  1
