# generated using pymatgen
data_ZrScNbPdRh
_symmetry_space_group_name_H-M   'P 1'
_cell_length_a   16.56004183
_cell_length_b   16.56085423
_cell_length_c   16.55952904
_cell_angle_alpha   89.97197093
_cell_angle_beta   90.01089541
_cell_angle_gamma   90.00696403
_symmetry_Int_Tables_number   1
_chemical_formula_structural   ZrScNbPdRh
_chemical_formula_sum   'Zr50 Sc50 Nb50 Pd50 Rh50'
_cell_volume   4541.42432814
_cell_formula_units_Z   50
loop_
 _symmetry_equiv_pos_site_id
 _symmetry_equiv_pos_as_xyz
  1  'x, y, z'
loop_
 _atom_site_type_symbol
 _atom_site_label
 _atom_site_symmetry_multiplicity
 _atom_site_fract_x
 _atom_site_fract_y
 _atom_site_fract_z
 _atom_site_occupancy
  Zr  Zr0  1  0.89786201  0.30104934  0.29944517  1
  Zr  Zr1  1  0.09180813  0.49815927  0.89300341  1
  Zr  Zr2  1  0.29900082  0.49229539  0.49249678  1
  Zr  Zr3  1  0.49339502  0.09906420  0.29211954  1
  Zr  Zr4  1  0.09688023  0.09399755  0.70077547  1
  Zr  Zr5  1  0.10721265  0.51012779  0.31050078  1
  Zr  Zr6  1  0.51334996  0.70408491  0.30419316  1
  Zr  Zr7  1  0.50238835  0.90214533  0.29369517  1
  Zr  Zr8  1  0.90099133  0.50364407  0.49756384  1
  Zr  Zr9  1  0.30177163  0.28190121  0.90282511  1
  Zr  Zr10  1  0.48597736  0.90353951  0.89857923  1
  Zr  Zr11  1  0.91034366  0.69434445  0.30203097  1
  Zr  Zr12  1  0.30241259  0.69691902  0.09468764  1
  Zr  Zr13  1  0.70888740  0.69667102  0.89711862  1
  Zr  Zr14  1  0.69704486  0.31141387  0.09928299  1
  Zr  Zr15  1  0.90264136  0.10415210  0.89590083  1
  Zr  Zr16  1  0.70271159  0.90151678  0.69661357  1
  Zr  Zr17  1  0.10429060  0.48479179  0.09790712  1
  Zr  Zr18  1  0.10492896  0.70997636  0.11339195  1
  Zr  Zr19  1  0.10014695  0.30087698  0.28288687  1
  Zr  Zr20  1  0.28939283  0.30388539  0.10317351  1
  Zr  Zr21  1  0.70412209  0.70367067  0.70432725  1
  Zr  Zr22  1  0.69696684  0.70166946  0.09605422  1
  Zr  Zr23  1  0.09924867  0.10215798  0.10249624  1
  Zr  Zr24  1  0.49973551  0.49791453  0.89870037  1
  Zr  Zr25  1  0.30392919  0.89814270  0.70710519  1
  Zr  Zr26  1  0.29748793  0.90381860  0.50214590  1
  Zr  Zr27  1  0.89454600  0.50105181  0.29533005  1
  Zr  Zr28  1  0.89782949  0.50707255  0.90132426  1
  Zr  Zr29  1  0.90256919  0.49763887  0.70087019  1
  Zr  Zr30  1  0.09558442  0.90411912  0.50754505  1
  Zr  Zr31  1  0.89297845  0.90228412  0.50294701  1
  Zr  Zr32  1  0.30405657  0.50669862  0.10061828  1
  Zr  Zr33  1  0.09892892  0.69748072  0.89242859  1
  Zr  Zr34  1  0.48751795  0.10328255  0.89998932  1
  Zr  Zr35  1  0.30471687  0.30144187  0.70420174  1
  Zr  Zr36  1  0.50766940  0.10519576  0.70885286  1
  Zr  Zr37  1  0.89897120  0.49767335  0.09745678  1
  Zr  Zr38  1  0.10186424  0.49414906  0.70162828  1
  Zr  Zr39  1  0.69570258  0.69981531  0.49278431  1
  Zr  Zr40  1  0.29363865  0.69035342  0.29009732  1
  Zr  Zr41  1  0.90532145  0.09274766  0.08607486  1
  Zr  Zr42  1  0.69493457  0.29114089  0.69740941  1
  Zr  Zr43  1  0.49176724  0.10552936  0.49582966  1
  Zr  Zr44  1  0.50348614  0.69884866  0.90606840  1
  Zr  Zr45  1  0.50647480  0.49949046  0.09622889  1
  Zr  Zr46  1  0.49612832  0.69777797  0.09832982  1
  Zr  Zr47  1  0.09786647  0.69998117  0.69684516  1
  Zr  Zr48  1  0.30462458  0.49836316  0.69957739  1
  Zr  Zr49  1  0.30667567  0.28365750  0.50382513  1
  Sc  Sc50  1  0.69805503  0.30741300  0.30126118  1
  Sc  Sc51  1  0.30234759  0.30321290  0.30816711  1
  Sc  Sc52  1  0.29446234  0.91268389  0.29492146  1
  Sc  Sc53  1  0.29862696  0.10542122  0.09607542  1
  Sc  Sc54  1  0.49997787  0.68728994  0.69430564  1
  Sc  Sc55  1  0.90013210  0.70766346  0.70558237  1
  Sc  Sc56  1  0.10543105  0.91077437  0.89075182  1
  Sc  Sc57  1  0.50068912  0.90333448  0.70349452  1
  Sc  Sc58  1  0.90316929  0.89976179  0.09781075  1
  Sc  Sc59  1  0.90410908  0.90072927  0.68759238  1
  Sc  Sc60  1  0.70160757  0.09090105  0.89200447  1
  Sc  Sc61  1  0.09594657  0.68943645  0.49625053  1
  Sc  Sc62  1  0.70313190  0.10041598  0.50624499  1
  Sc  Sc63  1  0.70237493  0.89577377  0.09717997  1
  Sc  Sc64  1  0.50232167  0.29861428  0.30308606  1
  Sc  Sc65  1  0.49712585  0.30348669  0.50245159  1
  Sc  Sc66  1  0.89828079  0.29849597  0.69972537  1
  Sc  Sc67  1  0.89020773  0.29955167  0.50399518  1
  Sc  Sc68  1  0.09598506  0.90366988  0.69813523  1
  Sc  Sc69  1  0.69515671  0.49907797  0.49519653  1
  Sc  Sc70  1  0.89928499  0.70641517  0.49600536  1
  Sc  Sc71  1  0.30264853  0.69927077  0.70341630  1
  Sc  Sc72  1  0.10564673  0.50385713  0.50863826  1
  Sc  Sc73  1  0.70114509  0.29505487  0.49891013  1
  Sc  Sc74  1  0.69835793  0.89571065  0.89742856  1
  Sc  Sc75  1  0.09761394  0.10266198  0.90285687  1
  Sc  Sc76  1  0.91016635  0.30810373  0.10267529  1
  Sc  Sc77  1  0.29482420  0.50925517  0.89908618  1
  Sc  Sc78  1  0.89725728  0.91056428  0.90895590  1
  Sc  Sc79  1  0.49668740  0.89510367  0.50313929  1
  Sc  Sc80  1  0.70980687  0.69931930  0.30452561  1
  Sc  Sc81  1  0.89822247  0.10178588  0.30390962  1
  Sc  Sc82  1  0.90234061  0.89133371  0.30294302  1
  Sc  Sc83  1  0.69926898  0.10678244  0.30717880  1
  Sc  Sc84  1  0.69157253  0.50621749  0.69563361  1
  Sc  Sc85  1  0.11011893  0.30397241  0.50570194  1
  Sc  Sc86  1  0.69846930  0.88695373  0.29948630  1
  Sc  Sc87  1  0.88881754  0.10117559  0.49756749  1
  Sc  Sc88  1  0.29194385  0.10718213  0.69496857  1
  Sc  Sc89  1  0.69563597  0.30505813  0.90354993  1
  Sc  Sc90  1  0.70455970  0.49546726  0.09711592  1
  Sc  Sc91  1  0.69650673  0.09737841  0.09987725  1
  Sc  Sc92  1  0.30091971  0.69438136  0.50823618  1
  Sc  Sc93  1  0.10164408  0.29284415  0.09011272  1
  Sc  Sc94  1  0.12258937  0.09816757  0.50617495  1
  Sc  Sc95  1  0.69956659  0.50312898  0.90975961  1
  Sc  Sc96  1  0.10137021  0.90842611  0.11199432  1
  Sc  Sc97  1  0.69899545  0.09611558  0.70032758  1
  Sc  Sc98  1  0.49790550  0.29466726  0.10562952  1
  Sc  Sc99  1  0.90121589  0.69653906  0.10327988  1
  Nb  Nb100  1  0.89788254  0.10195825  0.69527143  1
  Nb  Nb101  1  0.50039785  0.70080225  0.49967095  1
  Nb  Nb102  1  0.29635403  0.09931388  0.31732645  1
  Nb  Nb103  1  0.50053251  0.49827476  0.30422775  1
  Nb  Nb104  1  0.49454984  0.29996791  0.70934760  1
  Nb  Nb105  1  0.30280365  0.90169848  0.89952352  1
  Nb  Nb106  1  0.10022218  0.70935292  0.30136393  1
  Nb  Nb107  1  0.09446408  0.29929953  0.89167868  1
  Nb  Nb108  1  0.49727135  0.49023607  0.69709013  1
  Nb  Nb109  1  0.10211764  0.30022192  0.70631088  1
  Nb  Nb110  1  0.30626355  0.50101271  0.30143693  1
  Nb  Nb111  1  0.49330237  0.29425840  0.89353546  1
  Nb  Nb112  1  0.50210559  0.09914037  0.10317760  1
  Nb  Nb113  1  0.29794486  0.08686174  0.89940348  1
  Nb  Nb114  1  0.70224595  0.89822588  0.50100715  1
  Nb  Nb115  1  0.49793171  0.90194446  0.10419390  1
  Nb  Nb116  1  0.29910578  0.89574837  0.09627276  1
  Nb  Nb117  1  0.50348608  0.50997301  0.50313652  1
  Nb  Nb118  1  0.30252483  0.09900468  0.49781043  1
  Nb  Nb119  1  0.89863483  0.30082754  0.89866772  1
  Nb  Nb120  1  0.90488718  0.69325022  0.89974624  1
  Nb  Nb121  1  0.10517619  0.09286400  0.29943876  1
  Nb  Nb122  1  0.30339089  0.71162932  0.90374264  1
  Nb  Nb123  1  0.69534526  0.50036344  0.29815072  1
  Nb  Nb124  1  0.10234525  0.89892353  0.29798614  1
  Nb  Nb125  1  0.59333308  0.39685780  0.79507398  1
  Nb  Nb126  1  0.58819436  0.00187701  0.00374304  1
  Nb  Nb127  1  0.39804913  0.00705523  0.59913675  1
  Nb  Nb128  1  0.40605843  0.60001160  0.40048539  1
  Nb  Nb129  1  0.39887635  0.80255998  0.19846941  1
  Nb  Nb130  1  0.39955618  0.40866671  0.20088816  1
  Nb  Nb131  1  0.39523779  0.79480670  0.39535517  1
  Nb  Nb132  1  0.60155574  0.59550761  0.20445764  1
  Nb  Nb133  1  0.00892886  0.79784015  -0.00380101  1
  Nb  Nb134  1  0.19886245  0.79954335  0.39762340  1
  Nb  Nb135  1  0.00185110  0.39669750  0.39909051  1
  Nb  Nb136  1  0.20380508  0.80404590  -0.00478170  1
  Nb  Nb137  1  0.60214245  0.79715945  0.59702249  1
  Nb  Nb138  1  0.80068146  0.00420085  0.19983146  1
  Nb  Nb139  1  0.00374949  0.19787851  0.59973217  1
  Nb  Nb140  1  0.19872484  0.80016610  0.59700461  1
  Nb  Nb141  1  0.79822904  0.60319480  0.59945195  1
  Nb  Nb142  1  0.79936498  0.20228942  0.00144212  1
  Nb  Nb143  1  0.59902219  -0.00303745  0.40235628  1
  Nb  Nb144  1  0.80184547  0.19900525  0.19211504  1
  Nb  Nb145  1  0.00876425  0.00494432  0.39981570  1
  Nb  Nb146  1  0.39795619  0.39555839  0.00038821  1
  Nb  Nb147  1  0.00781055  0.19889150  0.40266883  1
  Nb  Nb148  1  0.79498828  0.40113614  0.80061857  1
  Nb  Nb149  1  0.59594109  0.19508956  -0.00165781  1
  Pd  Pd150  1  0.19670575  -0.00365981  0.00378085  1
  Pd  Pd151  1  0.20945271  0.19186381  0.20765866  1
  Pd  Pd152  1  0.80646940  0.80274975  0.19953890  1
  Pd  Pd153  1  0.19825136  0.80224635  0.79830217  1
  Pd  Pd154  1  0.81259361  0.80903514  0.80555289  1
  Pd  Pd155  1  -0.00649942  0.19250013  0.20241053  1
  Pd  Pd156  1  0.59362164  -0.00451112  0.59286795  1
  Pd  Pd157  1  0.60877717  0.20154979  0.19763641  1
  Pd  Pd158  1  0.79111131  0.59940570  0.19592446  1
  Pd  Pd159  1  0.40600205  -0.00816147  0.40325604  1
  Pd  Pd160  1  0.19837834  0.19279301  0.80291623  1
  Pd  Pd161  1  0.40095498  0.39873912  0.59370523  1
  Pd  Pd162  1  0.59522502  0.81006431  -0.00080408  1
  Pd  Pd163  1  0.80069596  0.40204702  0.40072768  1
  Pd  Pd164  1  -0.00967210  0.60635943  0.60288540  1
  Pd  Pd165  1  0.20710618  0.39555698  0.60119951  1
  Pd  Pd166  1  0.80771334  -0.00618283  0.79284414  1
  Pd  Pd167  1  0.19523975  0.39354532  0.39676913  1
  Pd  Pd168  1  0.59680364  0.39796061  0.40556770  1
  Pd  Pd169  1  0.39887138  0.00344711  0.00984487  1
  Pd  Pd170  1  0.59920225  0.19677545  0.40252353  1
  Pd  Pd171  1  0.39747951  0.59536039  0.59647384  1
  Pd  Pd172  1  0.19193846  0.59202019  0.19618504  1
  Pd  Pd173  1  -0.00139256  0.39518446  -0.00620738  1
  Pd  Pd174  1  0.79444086  -0.00477340  0.39067352  1
  Pd  Pd175  1  0.20806619  0.39721292  0.80875543  1
  Pd  Pd176  1  0.20435643  0.39616523  -0.01417048  1
  Pd  Pd177  1  0.59229939  0.80039343  0.79376068  1
  Pd  Pd178  1  -0.00693197  0.81062639  0.80762020  1
  Pd  Pd179  1  0.39053624  0.20537893  0.20499083  1
  Pd  Pd180  1  0.19351525  0.20599348  0.39651094  1
  Pd  Pd181  1  0.38775017  0.00160861  0.19328951  1
  Pd  Pd182  1  0.00067910  0.38972569  0.59411423  1
  Pd  Pd183  1  -0.00054417  0.20211634  0.79235600  1
  Pd  Pd184  1  0.81232091  0.79526966  -0.00338362  1
  Pd  Pd185  1  0.60001117  0.39578731  0.60074800  1
  Pd  Pd186  1  0.19185542  0.60742743  -0.00131908  1
  Pd  Pd187  1  -0.00805994  -0.00397279  0.79966577  1
  Pd  Pd188  1  0.61238557  -0.00060618  0.20262802  1
  Pd  Pd189  1  0.79037837  0.40702209  0.60569872  1
  Pd  Pd190  1  0.41046024  0.78910121  0.79429554  1
  Pd  Pd191  1  0.00450245  0.80633893  0.40530303  1
  Pd  Pd192  1  0.59992606  0.59329612  0.80036527  1
  Pd  Pd193  1  0.40036361  0.60430697  0.80386352  1
  Pd  Pd194  1  0.20348510  0.60260039  0.79616984  1
  Pd  Pd195  1  -0.00914968  -0.00120448  0.20932231  1
  Pd  Pd196  1  0.00916992  0.59412567  0.19586615  1
  Pd  Pd197  1  0.59359586  0.20150097  0.59558171  1
  Pd  Pd198  1  0.00996311  0.60589423  0.01025889  1
  Pd  Pd199  1  0.79399774  0.20505960  0.80548493  1
  Rh  Rh200  1  0.20257327  0.60213152  0.60589945  1
  Rh  Rh201  1  0.80237967  0.59359918  0.79390231  1
  Rh  Rh202  1  0.41374037  0.60095886  0.21161575  1
  Rh  Rh203  1  0.79882323  0.59819068  0.40437770  1
  Rh  Rh204  1  0.39726019  0.80415302  0.00517830  1
  Rh  Rh205  1  0.80504087  0.79969298  0.39844866  1
  Rh  Rh206  1  0.80092848  0.20456269  0.39483238  1
  Rh  Rh207  1  0.20751565  0.40741638  0.20796582  1
  Rh  Rh208  1  0.40384433  0.20306680  0.00761291  1
  Rh  Rh209  1  0.78711053  0.00459697  0.00569311  1
  Rh  Rh210  1  0.40091339  0.20214761  0.39232132  1
  Rh  Rh211  1  0.80370574  0.19668538  0.60309534  1
  Rh  Rh212  1  0.39923185  0.40244953  0.80908053  1
  Rh  Rh213  1  0.00518546  0.41129730  0.20747158  1
  Rh  Rh214  1  -0.00867305  0.01699476  0.58875552  1
  Rh  Rh215  1  0.59902956  0.59366558  0.39589876  1
  Rh  Rh216  1  0.59626977  0.81104276  0.40995924  1
  Rh  Rh217  1  -0.00902179  0.39457804  0.80036513  1
  Rh  Rh218  1  0.40574334  0.19468979  0.60851328  1
  Rh  Rh219  1  -0.00255882  0.59994239  0.79151135  1
  Rh  Rh220  1  0.80842266  0.39514378  -0.00602777  1
  Rh  Rh221  1  0.19409112  -0.00576937  0.39739710  1
  Rh  Rh222  1  -0.00003338  0.59482774  0.40026967  1
  Rh  Rh223  1  0.39939574  0.59534394  -0.01189025  1
  Rh  Rh224  1  0.19445245  0.20737951  0.60719176  1
  Rh  Rh225  1  0.79282768  0.79376655  0.59581385  1
  Rh  Rh226  1  0.39229554  0.00959476  0.78947029  1
  Rh  Rh227  1  0.21128245  -0.00713505  0.61071706  1
  Rh  Rh228  1  0.01324832  -0.00913611  -0.00138528  1
  Rh  Rh229  1  0.58494399  0.38723258  -0.01005770  1
  Rh  Rh230  1  0.60561456  0.60140510  0.00401446  1
  Rh  Rh231  1  0.60448463  0.60607390  0.59898744  1
  Rh  Rh232  1  0.39941527  0.80549889  0.59820626  1
  Rh  Rh233  1  0.19420976  0.19586845  -0.00757500  1
  Rh  Rh234  1  0.40676940  0.40478418  0.40096029  1
  Rh  Rh235  1  0.80126118  0.60484937  0.00401361  1
  Rh  Rh236  1  0.59341035  0.40591676  0.20451574  1
  Rh  Rh237  1  0.79763274  0.39675763  0.20008174  1
  Rh  Rh238  1  0.60557330  0.20557159  0.80852344  1
  Rh  Rh239  1  0.20882324  0.80739863  0.20226116  1
  Rh  Rh240  1  0.79922761  0.00293895  0.60393005  1
  Rh  Rh241  1  0.20344714  0.00380197  0.79710100  1
  Rh  Rh242  1  0.39060472  0.19037930  0.79413032  1
  Rh  Rh243  1  -0.00460033  0.80328573  0.19627136  1
  Rh  Rh244  1  0.20634219  0.00787496  0.19761113  1
  Rh  Rh245  1  0.59711370  -0.00510478  0.81116360  1
  Rh  Rh246  1  0.20743162  0.60817837  0.40481817  1
  Rh  Rh247  1  -0.00292657  0.20723313  -0.00529460  1
  Rh  Rh248  1  0.59816485  0.79215636  0.19114679  1
  Rh  Rh249  1  0.00579055  0.79351118  0.59647699  1
