# generated using pymatgen
data_ZrScNbPdRh
_symmetry_space_group_name_H-M   'P 1'
_cell_length_a   16.55860593
_cell_length_b   16.55878933
_cell_length_c   16.55766738
_cell_angle_alpha   90.00887294
_cell_angle_beta   89.98501311
_cell_angle_gamma   89.96657814
_symmetry_Int_Tables_number   1
_chemical_formula_structural   ZrScNbPdRh
_chemical_formula_sum   'Zr50 Sc50 Nb50 Pd50 Rh50'
_cell_volume   4539.95356960
_cell_formula_units_Z   50
loop_
 _symmetry_equiv_pos_site_id
 _symmetry_equiv_pos_as_xyz
  1  'x, y, z'
loop_
 _atom_site_type_symbol
 _atom_site_label
 _atom_site_symmetry_multiplicity
 _atom_site_fract_x
 _atom_site_fract_y
 _atom_site_fract_z
 _atom_site_occupancy
  Zr  Zr0  1  0.69900583  0.70389610  0.90363170  1
  Zr  Zr1  1  0.29658345  0.90360162  0.50420088  1
  Zr  Zr2  1  0.90032812  0.09599517  0.90162604  1
  Zr  Zr3  1  0.89592709  0.69337066  0.10656179  1
  Zr  Zr4  1  0.29396615  0.09507378  0.30204776  1
  Zr  Zr5  1  0.09958299  0.30080791  0.90340152  1
  Zr  Zr6  1  0.70012089  0.49578617  0.50041792  1
  Zr  Zr7  1  0.91871473  0.90365948  0.69877137  1
  Zr  Zr8  1  0.49937248  0.69597789  0.70153409  1
  Zr  Zr9  1  0.30374708  0.50482210  0.10896840  1
  Zr  Zr10  1  0.49220796  0.69624162  0.50203141  1
  Zr  Zr11  1  0.69654054  0.50034542  0.69949576  1
  Zr  Zr12  1  0.50474422  0.30403459  0.29470585  1
  Zr  Zr13  1  0.89748879  0.29984052  0.49638710  1
  Zr  Zr14  1  0.89514524  0.28261629  0.69386165  1
  Zr  Zr15  1  0.50476080  0.50576510  0.10077309  1
  Zr  Zr16  1  0.70540215  0.29979388  0.30151518  1
  Zr  Zr17  1  0.69958243  0.30103121  0.10961389  1
  Zr  Zr18  1  0.29639429  0.89654918  0.28977296  1
  Zr  Zr19  1  0.09215067  0.10158505  0.29993595  1
  Zr  Zr20  1  0.91277304  0.88624551  0.49282290  1
  Zr  Zr21  1  0.89611879  0.50344227  0.49730986  1
  Zr  Zr22  1  0.69992963  0.90167943  0.49348509  1
  Zr  Zr23  1  0.69816808  0.90656416  0.70096999  1
  Zr  Zr24  1  0.28646802  0.29482587  0.50210721  1
  Zr  Zr25  1  0.69334584  0.30317984  0.70730181  1
  Zr  Zr26  1  0.49453587  0.09139029  0.49516761  1
  Zr  Zr27  1  0.30219888  0.70003567  0.49843748  1
  Zr  Zr28  1  0.09793870  0.50187482  0.69511785  1
  Zr  Zr29  1  0.10157019  0.30325479  0.30212326  1
  Zr  Zr30  1  0.10289240  0.30108004  0.68813769  1
  Zr  Zr31  1  0.10366161  0.08875442  0.90224378  1
  Zr  Zr32  1  0.29634673  0.49423865  0.69843946  1
  Zr  Zr33  1  0.50014629  0.50197351  0.69660154  1
  Zr  Zr34  1  0.30488674  0.08997920  0.09723173  1
  Zr  Zr35  1  0.09160175  0.08743909  0.69728632  1
  Zr  Zr36  1  0.89887638  0.69523149  0.50220885  1
  Zr  Zr37  1  0.49992508  0.49994046  0.49790800  1
  Zr  Zr38  1  0.90358957  0.31289793  0.10093695  1
  Zr  Zr39  1  0.29544035  0.09702454  0.49898136  1
  Zr  Zr40  1  0.29621143  0.68955900  0.29699093  1
  Zr  Zr41  1  0.50373647  0.69980187  0.89934281  1
  Zr  Zr42  1  0.30214965  0.31263790  0.29943011  1
  Zr  Zr43  1  0.10017306  0.89200032  0.88918343  1
  Zr  Zr44  1  0.08915319  0.69905584  0.71154672  1
  Zr  Zr45  1  0.50265032  0.29383585  0.88975593  1
  Zr  Zr46  1  0.09943170  0.10398436  0.09939658  1
  Zr  Zr47  1  0.70341459  0.90633940  0.90996239  1
  Zr  Zr48  1  0.89171591  0.49466653  0.91142363  1
  Zr  Zr49  1  0.30152511  0.09991356  0.90299216  1
  Sc  Sc50  1  0.70135228  0.31040377  0.49737056  1
  Sc  Sc51  1  0.08969940  0.69918909  0.50466192  1
  Sc  Sc52  1  0.89615010  0.51547911  0.69767131  1
  Sc  Sc53  1  0.88630964  0.90017160  0.09998182  1
  Sc  Sc54  1  0.70408195  0.70523286  0.29663207  1
  Sc  Sc55  1  0.49683151  0.51155257  0.89128777  1
  Sc  Sc56  1  0.70614170  0.10359744  0.69724325  1
  Sc  Sc57  1  0.50194224  0.90580644  0.49303980  1
  Sc  Sc58  1  0.48768378  0.49285825  0.29963252  1
  Sc  Sc59  1  0.50851869  0.90966932  0.90151463  1
  Sc  Sc60  1  0.70083390  0.89905395  0.29652179  1
  Sc  Sc61  1  0.29651692  0.70397072  0.11244062  1
  Sc  Sc62  1  0.30534000  0.29543040  0.09957439  1
  Sc  Sc63  1  0.89426653  0.70091383  0.31109132  1
  Sc  Sc64  1  0.50328292  0.29695829  0.10663633  1
  Sc  Sc65  1  0.50786792  0.90895981  0.30217847  1
  Sc  Sc66  1  0.89750469  0.28821925  0.30101295  1
  Sc  Sc67  1  0.70845865  0.10454153  0.29248628  1
  Sc  Sc68  1  0.50229955  0.69905225  0.29075286  1
  Sc  Sc69  1  0.70641327  0.70248614  0.48970483  1
  Sc  Sc70  1  0.50572803  0.91164363  0.10230683  1
  Sc  Sc71  1  0.69868267  0.69047516  0.70473668  1
  Sc  Sc72  1  0.30316089  0.69871124  0.89681624  1
  Sc  Sc73  1  0.10718973  0.89285858  0.09675835  1
  Sc  Sc74  1  0.70085010  0.09483253  0.50033522  1
  Sc  Sc75  1  0.50439058  0.10186855  0.10323835  1
  Sc  Sc76  1  0.89701898  0.09773973  0.11090780  1
  Sc  Sc77  1  0.90810011  0.69709744  0.90337473  1
  Sc  Sc78  1  0.29460034  0.90684481  0.90075628  1
  Sc  Sc79  1  0.50176459  0.31185339  0.49338741  1
  Sc  Sc80  1  0.30010509  0.50561194  0.49016924  1
  Sc  Sc81  1  0.30403462  0.50051406  0.88965310  1
  Sc  Sc82  1  0.29949348  0.29412655  0.70049968  1
  Sc  Sc83  1  0.90397494  0.89628400  0.91074621  1
  Sc  Sc84  1  0.70516453  0.49458508  0.29665287  1
  Sc  Sc85  1  0.09449619  0.90745151  0.30595172  1
  Sc  Sc86  1  0.30376372  0.09723248  0.69419054  1
  Sc  Sc87  1  0.70874854  0.50101153  0.10353874  1
  Sc  Sc88  1  0.70192967  0.90288021  0.10300064  1
  Sc  Sc89  1  0.29833060  0.69840565  0.68965678  1
  Sc  Sc90  1  0.09512831  0.50632278  0.88890044  1
  Sc  Sc91  1  0.50069265  0.09912185  0.90216898  1
  Sc  Sc92  1  0.30590296  0.29943604  0.89226759  1
  Sc  Sc93  1  0.09930649  0.69863099  0.10416664  1
  Sc  Sc94  1  0.08623000  0.49841685  0.11422658  1
  Sc  Sc95  1  0.70007897  0.09724169  0.10217493  1
  Sc  Sc96  1  0.69720666  0.70302142  0.10379116  1
  Sc  Sc97  1  0.09607556  0.29947072  0.49963752  1
  Sc  Sc98  1  0.90104467  0.50736033  0.29844712  1
  Sc  Sc99  1  0.09983622  0.69352310  0.29658754  1
  Nb  Nb100  1  0.49240728  0.29601681  0.70151641  1
  Nb  Nb101  1  0.90122380  0.90119826  0.30010260  1
  Nb  Nb102  1  0.09776102  0.29982167  0.10262654  1
  Nb  Nb103  1  0.11029804  0.10030374  0.49633633  1
  Nb  Nb104  1  0.89550287  0.50254180  0.10553786  1
  Nb  Nb105  1  0.89688968  0.30216745  0.89883108  1
  Nb  Nb106  1  0.90104907  0.10955956  0.50466742  1
  Nb  Nb107  1  0.90018460  0.09880945  0.69811504  1
  Nb  Nb108  1  0.11334399  0.49926765  0.30499501  1
  Nb  Nb109  1  0.29404118  0.89838755  0.70100874  1
  Nb  Nb110  1  0.09393267  0.49070011  0.49902498  1
  Nb  Nb111  1  0.29456068  0.50236867  0.30077830  1
  Nb  Nb112  1  0.70497054  0.10621881  0.90210255  1
  Nb  Nb113  1  0.09921183  0.69891296  0.90507906  1
  Nb  Nb114  1  0.10779561  0.89799000  0.69905372  1
  Nb  Nb115  1  0.90053386  0.09813240  0.30171921  1
  Nb  Nb116  1  0.50030950  0.90554264  0.70430390  1
  Nb  Nb117  1  0.10259905  0.89978278  0.50442139  1
  Nb  Nb118  1  0.49724688  0.69561265  0.09369782  1
  Nb  Nb119  1  0.89858628  0.70375220  0.69717385  1
  Nb  Nb120  1  0.70784436  0.30235440  0.89705992  1
  Nb  Nb121  1  0.49713155  0.10434533  0.69830964  1
  Nb  Nb122  1  0.30722903  0.89431063  0.10078376  1
  Nb  Nb123  1  0.50272105  0.09994520  0.30403429  1
  Nb  Nb124  1  0.70330356  0.49052188  0.89716306  1
  Nb  Nb125  1  -0.00403415  0.20545673  -0.00074616  1
  Nb  Nb126  1  -0.00737142  0.39265341  0.79747165  1
  Nb  Nb127  1  0.60340786  0.39897078  -0.00792362  1
  Nb  Nb128  1  0.40243626  0.80884963  0.79694051  1
  Nb  Nb129  1  0.39950363  0.39808678  0.60108408  1
  Nb  Nb130  1  -0.00704942  0.80244603  0.20532612  1
  Nb  Nb131  1  0.40280235  0.80191596  0.00304839  1
  Nb  Nb132  1  0.80010877  0.80181550  0.60693290  1
  Nb  Nb133  1  0.80549442  -0.00053898  0.79895640  1
  Nb  Nb134  1  0.59598986  0.19773626  0.40052811  1
  Nb  Nb135  1  0.60075305  0.80424092  0.60319846  1
  Nb  Nb136  1  0.39332744  0.80097725  0.39622766  1
  Nb  Nb137  1  0.19154339  0.19351898  0.80073639  1
  Nb  Nb138  1  0.20122460  0.40527644  0.00290414  1
  Nb  Nb139  1  0.59842324  0.59591405  0.39888242  1
  Nb  Nb140  1  0.19711654  0.20092784  0.19919363  1
  Nb  Nb141  1  0.81457072  0.00323373  0.39871533  1
  Nb  Nb142  1  -0.00091521  0.19919325  0.80214823  1
  Nb  Nb143  1  0.40524463  0.40249152  -0.00135833  1
  Nb  Nb144  1  0.19934151  0.80192454  0.40347664  1
  Nb  Nb145  1  0.19669755  0.59631573  0.00007756  1
  Nb  Nb146  1  0.80335284  0.80404732  0.79613881  1
  Nb  Nb147  1  0.80225957  0.20763930  -0.00380225  1
  Nb  Nb148  1  0.58976087  0.20142540  0.59984186  1
  Nb  Nb149  1  0.40200519  0.19931169  0.39628849  1
  Pd  Pd150  1  0.00024669  0.00369057  0.58459665  1
  Pd  Pd151  1  0.80593473  0.39998554  0.60848266  1
  Pd  Pd152  1  0.60968838  0.61039531  0.58920514  1
  Pd  Pd153  1  0.19402103  -0.00066720  0.19412893  1
  Pd  Pd154  1  0.41293959  0.80148215  0.19854574  1
  Pd  Pd155  1  0.20075030  -0.00955281  0.00497266  1
  Pd  Pd156  1  0.00632423  0.59373051  0.00367593  1
  Pd  Pd157  1  0.20040328  0.20831584  0.00183077  1
  Pd  Pd158  1  0.00253434  0.19883043  0.40580327  1
  Pd  Pd159  1  0.00581858  0.59753627  0.39643161  1
  Pd  Pd160  1  0.20966728  0.79082011  -0.00195790  1
  Pd  Pd161  1  0.40444006  0.20745308  0.58847419  1
  Pd  Pd162  1  -0.00466195  0.40211496  0.21424034  1
  Pd  Pd163  1  0.39403939  0.19565023  0.20585954  1
  Pd  Pd164  1  0.39016209  0.60326065  0.00127639  1
  Pd  Pd165  1  0.39656908  -0.00112015  0.80123488  1
  Pd  Pd166  1  0.19436729  0.39347400  0.80389506  1
  Pd  Pd167  1  0.60718436  0.01334962  0.80130239  1
  Pd  Pd168  1  0.20849113  0.79177820  0.79997901  1
  Pd  Pd169  1  0.20305005  0.60631451  0.80382435  1
  Pd  Pd170  1  0.78407407  0.20313582  0.59095146  1
  Pd  Pd171  1  0.81164740  -0.00619487  0.59592612  1
  Pd  Pd172  1  0.59613493  0.00354564  0.60155162  1
  Pd  Pd173  1  0.40598177  0.20538047  0.00005369  1
  Pd  Pd174  1  -0.01233336  0.40418077  0.60630983  1
  Pd  Pd175  1  -0.00123346  -0.00992261  0.19055114  1
  Pd  Pd176  1  0.19363871  0.59690662  0.59255355  1
  Pd  Pd177  1  0.60141859  0.80237157  0.79621857  1
  Pd  Pd178  1  0.59044177  0.79082974  0.40249446  1
  Pd  Pd179  1  0.20084264  0.39753412  0.19108239  1
  Pd  Pd180  1  -0.00163456  0.00754061  0.40961882  1
  Pd  Pd181  1  -0.00356955  0.79847601  0.01206313  1
  Pd  Pd182  1  0.40105047  -0.00694600  0.60314771  1
  Pd  Pd183  1  0.80967188  0.40349215  0.78747029  1
  Pd  Pd184  1  0.59611362  0.80296838  0.19341195  1
  Pd  Pd185  1  0.80245995  0.60569058  0.80806091  1
  Pd  Pd186  1  -0.00127790  -0.00286183  0.00949316  1
  Pd  Pd187  1  0.60727352  0.20402706  0.00152955  1
  Pd  Pd188  1  0.59192598  0.40524897  0.80286130  1
  Pd  Pd189  1  0.40690960  0.00075384  0.20354958  1
  Pd  Pd190  1  0.40879913  0.81140359  0.60050929  1
  Pd  Pd191  1  0.60158928  0.19086552  0.79518043  1
  Pd  Pd192  1  0.59351510  0.80578321  0.00943200  1
  Pd  Pd193  1  0.19085574  0.79437735  0.59897475  1
  Pd  Pd194  1  0.18897511  0.60433261  0.40970858  1
  Pd  Pd195  1  0.60398295  0.59551695  0.20839681  1
  Pd  Pd196  1  0.00774678  0.40656856  -0.00397820  1
  Pd  Pd197  1  0.79376452  0.60339233  0.00189327  1
  Pd  Pd198  1  0.61069687  0.59155768  -0.00329864  1
  Pd  Pd199  1  -0.00495427  0.40213698  0.39228522  1
  Rh  Rh200  1  0.60392934  0.00787912  0.00258794  1
  Rh  Rh201  1  0.40317600  -0.00606161  0.00075995  1
  Rh  Rh202  1  0.40201061  0.40235945  0.19095263  1
  Rh  Rh203  1  0.19808785  0.00081731  0.60429953  1
  Rh  Rh204  1  0.80402746  0.19128508  0.80483726  1
  Rh  Rh205  1  0.79809046  0.60232414  0.20328038  1
  Rh  Rh206  1  0.19964820  0.40353357  0.40597870  1
  Rh  Rh207  1  0.60003308  0.40681043  0.19495523  1
  Rh  Rh208  1  0.79414568  0.19226832  0.40622641  1
  Rh  Rh209  1  0.60478340  0.40274735  0.38892465  1
  Rh  Rh210  1  0.40392720  0.40004445  0.79645936  1
  Rh  Rh211  1  0.19288741  0.59309438  0.19348318  1
  Rh  Rh212  1  0.79152781  0.39631049  0.00775807  1
  Rh  Rh213  1  0.80007316  0.80866436  0.40094099  1
  Rh  Rh214  1  0.80017772  0.79376586  -0.00342070  1
  Rh  Rh215  1  0.00416834  0.79524724  0.60581495  1
  Rh  Rh216  1  -0.00406707  0.60431830  0.20619235  1
  Rh  Rh217  1  0.80678010  0.20173175  0.19188766  1
  Rh  Rh218  1  0.00131141  0.20162839  0.19551366  1
  Rh  Rh219  1  0.60066045  0.19477126  0.20841304  1
  Rh  Rh220  1  0.59066832  0.38936885  0.60826678  1
  Rh  Rh221  1  0.01131213  0.79491591  0.39017840  1
  Rh  Rh222  1  0.40341993  0.59953437  0.20397336  1
  Rh  Rh223  1  0.39188610  -0.00389518  0.39266174  1
  Rh  Rh224  1  0.00128846  0.59758733  0.59880991  1
  Rh  Rh225  1  0.60820267  0.59473118  0.80677654  1
  Rh  Rh226  1  0.20543746  0.40883633  0.59005934  1
  Rh  Rh227  1  0.39178434  0.58715418  0.60370023  1
  Rh  Rh228  1  -0.00310299  -0.00180187  0.80610819  1
  Rh  Rh229  1  0.20094755  0.20181043  0.38948895  1
  Rh  Rh230  1  0.80907339  0.40087260  0.20512048  1
  Rh  Rh231  1  0.80019447  -0.00245315  0.20867439  1
  Rh  Rh232  1  -0.00384986  0.79874953  0.80300076  1
  Rh  Rh233  1  0.20587089  0.00395433  0.79216532  1
  Rh  Rh234  1  0.39220216  0.19106564  0.80032478  1
  Rh  Rh235  1  0.79384612  0.60763450  0.59679487  1
  Rh  Rh236  1  0.39301318  0.61068846  0.79094633  1
  Rh  Rh237  1  0.19580939  -0.00791457  0.40249159  1
  Rh  Rh238  1  0.38847129  0.39463794  0.40926775  1
  Rh  Rh239  1  0.80857484  0.40163067  0.39417166  1
  Rh  Rh240  1  0.80588756  0.79867142  0.20244485  1
  Rh  Rh241  1  -0.00906743  0.59663032  0.80371332  1
  Rh  Rh242  1  0.61775925  0.01094319  0.38963359  1
  Rh  Rh243  1  0.00745732  0.19361187  0.59641659  1
  Rh  Rh244  1  0.40781366  0.60643299  0.38838225  1
  Rh  Rh245  1  0.60373577  0.00505064  0.20348573  1
  Rh  Rh246  1  0.79699577  0.00925869  -0.00142727  1
  Rh  Rh247  1  0.19301926  0.18746238  0.60889181  1
  Rh  Rh248  1  0.18601294  0.80392779  0.20971376  1
  Rh  Rh249  1  0.78994140  0.59427432  0.39880535  1
