# generated using pymatgen
data_ZrScNbPdRh
_symmetry_space_group_name_H-M   'P 1'
_cell_length_a   16.56273108
_cell_length_b   16.56796039
_cell_length_c   16.56839483
_cell_angle_alpha   89.97171308
_cell_angle_beta   89.99518670
_cell_angle_gamma   89.98443462
_symmetry_Int_Tables_number   1
_chemical_formula_structural   ZrScNbPdRh
_chemical_formula_sum   'Zr50 Sc50 Nb50 Pd50 Rh50'
_cell_volume   4546.54363034
_cell_formula_units_Z   50
loop_
 _symmetry_equiv_pos_site_id
 _symmetry_equiv_pos_as_xyz
  1  'x, y, z'
loop_
 _atom_site_type_symbol
 _atom_site_label
 _atom_site_symmetry_multiplicity
 _atom_site_fract_x
 _atom_site_fract_y
 _atom_site_fract_z
 _atom_site_occupancy
  Zr  Zr0  1  0.71292859  0.30050726  0.69931785  1
  Zr  Zr1  1  0.89928870  0.89609090  0.30133840  1
  Zr  Zr2  1  0.09885461  0.50072171  0.30344889  1
  Zr  Zr3  1  0.49661022  0.69731295  0.70060547  1
  Zr  Zr4  1  0.09194151  0.52249171  0.70050905  1
  Zr  Zr5  1  0.89901931  0.29613341  0.09417454  1
  Zr  Zr6  1  0.50456371  0.30149292  0.89905477  1
  Zr  Zr7  1  0.11313501  0.10764765  0.69908332  1
  Zr  Zr8  1  0.28781257  0.69606672  0.09851359  1
  Zr  Zr9  1  0.70269360  0.10764969  0.49944044  1
  Zr  Zr10  1  0.29478923  0.30857697  0.49686697  1
  Zr  Zr11  1  0.89064168  0.29050072  0.89862525  1
  Zr  Zr12  1  0.29656659  0.29792769  0.29832699  1
  Zr  Zr13  1  0.51235726  0.09352458  0.49574974  1
  Zr  Zr14  1  0.71283485  0.50976908  0.30730261  1
  Zr  Zr15  1  0.51299932  0.10223345  0.89818593  1
  Zr  Zr16  1  0.69485782  0.10095653  0.30554608  1
  Zr  Zr17  1  0.70974268  0.69158587  0.70282802  1
  Zr  Zr18  1  0.70690838  0.89931492  0.90050419  1
  Zr  Zr19  1  0.29195031  0.09994372  0.09851832  1
  Zr  Zr20  1  0.69675631  0.50056832  0.69348395  1
  Zr  Zr21  1  0.10108073  0.89174416  0.09589199  1
  Zr  Zr22  1  0.89238368  0.50017813  0.69223950  1
  Zr  Zr23  1  0.89421929  0.90011862  0.50257404  1
  Zr  Zr24  1  0.91072868  0.90173798  0.09666327  1
  Zr  Zr25  1  0.70628400  0.29183397  0.30053097  1
  Zr  Zr26  1  0.90072236  0.50242798  0.10228714  1
  Zr  Zr27  1  0.09921524  0.50686880  0.90018424  1
  Zr  Zr28  1  0.29610287  0.09545994  0.51659270  1
  Zr  Zr29  1  0.49776696  0.70385346  0.30049003  1
  Zr  Zr30  1  0.30334031  0.50728526  0.70606670  1
  Zr  Zr31  1  0.70060042  0.89626386  0.29719915  1
  Zr  Zr32  1  0.29779701  0.30329151  0.89880415  1
  Zr  Zr33  1  0.50065194  0.09845163  0.29839068  1
  Zr  Zr34  1  0.90627235  0.89981551  0.68767040  1
  Zr  Zr35  1  0.29999645  0.50085179  0.89931591  1
  Zr  Zr36  1  0.50121267  0.69036510  0.90222807  1
  Zr  Zr37  1  0.89528237  0.11205383  0.28963072  1
  Zr  Zr38  1  0.10153616  0.51102328  0.49681641  1
  Zr  Zr39  1  0.90786703  0.50248526  0.30412643  1
  Zr  Zr40  1  0.69862460  0.49930605  0.10120958  1
  Zr  Zr41  1  0.10054955  0.09456932  0.49684256  1
  Zr  Zr42  1  0.50518583  0.30530043  0.70549010  1
  Zr  Zr43  1  0.50372426  0.49724428  0.51069253  1
  Zr  Zr44  1  0.09714361  0.10595112  0.29802478  1
  Zr  Zr45  1  0.09922833  0.89765695  0.90529801  1
  Zr  Zr46  1  0.10412434  0.70025351  0.09540707  1
  Zr  Zr47  1  0.69645683  0.91163663  0.49615853  1
  Zr  Zr48  1  0.89000160  0.69497601  0.29984361  1
  Zr  Zr49  1  0.50274868  0.49971796  0.70219516  1
  Sc  Sc50  1  0.49851263  0.89590740  0.69104508  1
  Sc  Sc51  1  0.70129495  0.10272313  0.69744486  1
  Sc  Sc52  1  0.10884641  0.09982983  0.90487513  1
  Sc  Sc53  1  0.09687754  0.28923665  0.09858413  1
  Sc  Sc54  1  0.29585403  0.89071886  0.89950778  1
  Sc  Sc55  1  0.70675570  0.90020916  0.68672706  1
  Sc  Sc56  1  0.70335568  0.70564026  0.10846434  1
  Sc  Sc57  1  0.70071007  0.29753805  0.09276816  1
  Sc  Sc58  1  0.50180579  0.50050311  0.31311787  1
  Sc  Sc59  1  0.50571190  0.10376446  0.10144529  1
  Sc  Sc60  1  0.70371900  0.69648813  0.50517213  1
  Sc  Sc61  1  0.28668017  0.50084660  0.09078069  1
  Sc  Sc62  1  0.71133254  0.90122643  0.09599477  1
  Sc  Sc63  1  0.29320070  0.09316896  0.29037993  1
  Sc  Sc64  1  0.09947184  0.90803453  0.30557073  1
  Sc  Sc65  1  0.29385881  0.29693851  0.09825673  1
  Sc  Sc66  1  0.50744753  0.29349243  0.29587708  1
  Sc  Sc67  1  0.49915906  0.29981476  0.50929297  1
  Sc  Sc68  1  0.29412829  0.28765186  0.69442566  1
  Sc  Sc69  1  0.90564823  0.70876117  0.50357705  1
  Sc  Sc70  1  0.10519914  0.69485232  0.29613147  1
  Sc  Sc71  1  0.49185994  0.69882643  0.50017732  1
  Sc  Sc72  1  0.09698057  0.28939172  0.90231191  1
  Sc  Sc73  1  0.49853224  0.89578150  0.50224515  1
  Sc  Sc74  1  0.48969544  0.89302168  0.29458533  1
  Sc  Sc75  1  0.09751407  0.09465104  0.09419401  1
  Sc  Sc76  1  0.49177920  0.88962034  0.89884681  1
  Sc  Sc77  1  0.90188425  0.49479269  0.90459290  1
  Sc  Sc78  1  0.50332741  0.09943970  0.68808679  1
  Sc  Sc79  1  0.51151358  0.30101432  0.10093213  1
  Sc  Sc80  1  0.49310625  0.49434956  0.89265466  1
  Sc  Sc81  1  0.50868685  0.49769442  0.08554910  1
  Sc  Sc82  1  0.70800412  0.10224765  0.90033720  1
  Sc  Sc83  1  0.29879243  0.70288665  0.30118680  1
  Sc  Sc84  1  0.09210813  0.29782770  0.50356474  1
  Sc  Sc85  1  0.90208302  0.09719469  0.50439362  1
  Sc  Sc86  1  0.49895368  0.70210417  0.09939644  1
  Sc  Sc87  1  0.29716857  0.50842187  0.50178183  1
  Sc  Sc88  1  0.90105911  0.10139096  0.09655933  1
  Sc  Sc89  1  0.89603168  0.89877628  0.90337590  1
  Sc  Sc90  1  0.68563572  0.50650406  0.90136064  1
  Sc  Sc91  1  0.09653420  0.51286570  0.09868880  1
  Sc  Sc92  1  0.89761082  0.30529921  0.50740865  1
  Sc  Sc93  1  0.71026298  0.50340619  0.50704224  1
  Sc  Sc94  1  0.29258401  0.49724986  0.31719152  1
  Sc  Sc95  1  0.08278550  0.90344175  0.50638385  1
  Sc  Sc96  1  0.90717544  0.70343995  0.10417777  1
  Sc  Sc97  1  0.89529061  0.10620142  0.69870915  1
  Sc  Sc98  1  0.29736034  0.89725488  0.29684674  1
  Sc  Sc99  1  0.29283275  0.89260290  0.09769698  1
  Nb  Nb100  1  0.70218640  0.70291991  0.89978252  1
  Nb  Nb101  1  0.09499862  0.30032776  0.30010940  1
  Nb  Nb102  1  0.88737361  0.70319489  0.89245683  1
  Nb  Nb103  1  0.29366796  0.70644875  0.50425981  1
  Nb  Nb104  1  0.70107470  0.30032773  0.49863153  1
  Nb  Nb105  1  0.90121809  0.50629257  0.49862655  1
  Nb  Nb106  1  0.10844349  0.69840295  0.51303416  1
  Nb  Nb107  1  0.09484227  0.69562997  0.88522832  1
  Nb  Nb108  1  0.29771388  0.70330427  0.70599513  1
  Nb  Nb109  1  0.90195170  0.30390095  0.70323537  1
  Nb  Nb110  1  0.69850208  0.69997725  0.29925574  1
  Nb  Nb111  1  0.69625788  0.28910388  0.89633161  1
  Nb  Nb112  1  0.90804832  0.69621746  0.70486734  1
  Nb  Nb113  1  0.09515831  0.70451013  0.70388120  1
  Nb  Nb114  1  0.29741874  0.90101053  0.50240003  1
  Nb  Nb115  1  0.90789268  0.30246720  0.29083881  1
  Nb  Nb116  1  0.09852892  0.89809524  0.70710980  1
  Nb  Nb117  1  0.30045192  0.09359731  0.70419339  1
  Nb  Nb118  1  0.09709626  0.30102189  0.69984691  1
  Nb  Nb119  1  0.30020611  0.90460781  0.69867871  1
  Nb  Nb120  1  0.30115375  0.09982738  0.89902008  1
  Nb  Nb121  1  0.90696639  0.09879761  0.89655066  1
  Nb  Nb122  1  0.30406427  0.69865337  0.89417897  1
  Nb  Nb123  1  0.70050340  0.10076062  0.10110090  1
  Nb  Nb124  1  0.50575047  0.89874928  0.09969200  1
  Nb  Nb125  1  0.60282830  0.79588001  0.39544656  1
  Nb  Nb126  1  0.39822608  0.00163956  0.79830284  1
  Nb  Nb127  1  0.20030438  0.19854958  0.40007359  1
  Nb  Nb128  1  0.00430720  0.00041512  0.79746500  1
  Nb  Nb129  1  0.60459912  0.79848824  0.80193074  1
  Nb  Nb130  1  0.19587488  0.39845659  0.20550962  1
  Nb  Nb131  1  0.59902988  -0.00790458  0.80018946  1
  Nb  Nb132  1  0.19942508  0.80232021  0.41449874  1
  Nb  Nb133  1  0.19067829  0.40061485  0.79321856  1
  Nb  Nb134  1  0.80689114  0.39728078  0.20466747  1
  Nb  Nb135  1  0.39595229  0.40717941  0.20083296  1
  Nb  Nb136  1  0.60452776  0.79954097  -0.00392480  1
  Nb  Nb137  1  0.19849665  0.80152697  0.60900132  1
  Nb  Nb138  1  0.60976114  0.39711403  0.40551612  1
  Nb  Nb139  1  0.39409777  0.00193028  0.40570470  1
  Nb  Nb140  1  0.39840312  0.19180275  0.80068832  1
  Nb  Nb141  1  0.40036050  0.59023831  0.19973098  1
  Nb  Nb142  1  0.19092495  0.40627611  0.60822245  1
  Nb  Nb143  1  0.59843599  0.60332268  0.20732645  1
  Nb  Nb144  1  0.60198394  -0.00342345  0.19648416  1
  Nb  Nb145  1  0.40070145  0.00256211  -0.00277080  1
  Nb  Nb146  1  0.39491622  0.19238436  0.40274452  1
  Nb  Nb147  1  -0.00008859  0.39568364  0.79348875  1
  Nb  Nb148  1  0.40032022  0.19505042  -0.00645283  1
  Nb  Nb149  1  0.79855771  0.60806181  -0.00325923  1
  Pd  Pd150  1  -0.00936713  0.80789472  0.80477081  1
  Pd  Pd151  1  -0.00068792  0.39708933  0.40810513  1
  Pd  Pd152  1  0.19281943  -0.00679694  0.19564475  1
  Pd  Pd153  1  0.60412972  0.20566618  0.60293617  1
  Pd  Pd154  1  0.60527093  0.79385259  0.59747914  1
  Pd  Pd155  1  0.59781977  -0.00775934  -0.00058865  1
  Pd  Pd156  1  0.80519544  0.80186601  0.19364358  1
  Pd  Pd157  1  0.79235604  0.79578247  0.40686542  1
  Pd  Pd158  1  0.60217876  0.60020127  0.40545596  1
  Pd  Pd159  1  0.00154736  0.61475727  0.40425908  1
  Pd  Pd160  1  0.80793241  0.00694373  -0.00037814  1
  Pd  Pd161  1  0.39266755  0.79364416  0.18928334  1
  Pd  Pd162  1  0.61102202  0.39992734  0.80320812  1
  Pd  Pd163  1  0.00245093  0.19683261  0.79956808  1
  Pd  Pd164  1  0.00654888  0.39448910  -0.00519211  1
  Pd  Pd165  1  0.20085155  0.79782670  0.80069067  1
  Pd  Pd166  1  0.40092635  0.80136338  0.00621102  1
  Pd  Pd167  1  0.80181898  0.58707726  0.80825107  1
  Pd  Pd168  1  0.00361357  0.40785604  0.60174243  1
  Pd  Pd169  1  0.80253336  0.00229189  0.79345506  1
  Pd  Pd170  1  0.00216133  0.00276774  0.20058605  1
  Pd  Pd171  1  0.79170830  0.40540591  -0.00314644  1
  Pd  Pd172  1  0.80014655  0.80703079  0.78803735  1
  Pd  Pd173  1  0.40116413  0.19910057  0.60062769  1
  Pd  Pd174  1  0.79823694  0.40619997  0.80874489  1
  Pd  Pd175  1  -0.00379664  0.19587014  0.60245325  1
  Pd  Pd176  1  0.81460373  0.20405688  0.40610854  1
  Pd  Pd177  1  0.39537647  0.60231791  0.59877947  1
  Pd  Pd178  1  0.39305021  0.60364314  0.40015179  1
  Pd  Pd179  1  0.40405102  -0.00302928  0.19305860  1
  Pd  Pd180  1  0.39717983  0.59552869  0.00669587  1
  Pd  Pd181  1  0.60205193  0.41016454  0.21249762  1
  Pd  Pd182  1  0.41380457  0.38938201  0.39510254  1
  Pd  Pd183  1  0.18957187  -0.01121994  0.60249340  1
  Pd  Pd184  1  0.38882218  0.39939836  0.60747330  1
  Pd  Pd185  1  -0.01163059  0.00513079  0.39439969  1
  Pd  Pd186  1  0.39324901  0.79983123  0.60257511  1
  Pd  Pd187  1  0.20009728  -0.00255919  0.80671493  1
  Pd  Pd188  1  0.40163037  0.39240103  0.01138357  1
  Pd  Pd189  1  0.00515370  0.40059430  0.19077482  1
  Pd  Pd190  1  -0.00958215  0.61166261  -0.00723181  1
  Pd  Pd191  1  0.80292386  0.39635503  0.39909616  1
  Pd  Pd192  1  0.80750326  0.00646677  0.39706168  1
  Pd  Pd193  1  0.18659887  0.39615703  0.00226121  1
  Pd  Pd194  1  -0.00313029  0.20296754  0.40338783  1
  Pd  Pd195  1  0.79722744  0.00123763  0.19847985  1
  Pd  Pd196  1  0.40149272  0.20766814  0.19344658  1
  Pd  Pd197  1  -0.00387805  0.78959924  -0.01004647  1
  Pd  Pd198  1  0.00622302  0.79650320  0.20992569  1
  Pd  Pd199  1  0.01083844  0.79443423  0.39781918  1
  Rh  Rh200  1  0.79749388  0.59620144  0.19182277  1
  Rh  Rh201  1  0.60096812  0.80200347  0.19793353  1
  Rh  Rh202  1  0.40122085  0.60294120  0.80173940  1
  Rh  Rh203  1  0.20607042  0.60457641  0.60899165  1
  Rh  Rh204  1  0.60842956  0.19107904  0.19513930  1
  Rh  Rh205  1  0.60266442  0.20324891  0.00285050  1
  Rh  Rh206  1  0.60987487  0.39712259  0.59543966  1
  Rh  Rh207  1  0.60243791  -0.00097089  0.60636569  1
  Rh  Rh208  1  0.19663287  0.20855134  0.59134784  1
  Rh  Rh209  1  0.18944438  0.20492509  0.20432228  1
  Rh  Rh210  1  0.20930209  0.58697879  0.20725658  1
  Rh  Rh211  1  -0.01453447  0.59611237  0.80623559  1
  Rh  Rh212  1  -0.00300984  0.19345454  -0.00274521  1
  Rh  Rh213  1  0.80104895  0.79247117  0.00797668  1
  Rh  Rh214  1  0.80026802  0.19584619  0.79836893  1
  Rh  Rh215  1  0.58593966  -0.01837701  0.38606304  1
  Rh  Rh216  1  0.80382057  0.20380563  0.59840800  1
  Rh  Rh217  1  0.00581956  0.01015204  0.61301449  1
  Rh  Rh218  1  0.80617233  0.60804607  0.41040111  1
  Rh  Rh219  1  0.81074463  0.60704533  0.59588487  1
  Rh  Rh220  1  0.20716326  -0.00474656  0.00065476  1
  Rh  Rh221  1  0.60539889  0.39420784  -0.01095019  1
  Rh  Rh222  1  0.40429706  -0.00277382  0.60024773  1
  Rh  Rh223  1  0.00019269  0.60526713  0.20194563  1
  Rh  Rh224  1  0.20273861  0.61348489  0.39974073  1
  Rh  Rh225  1  0.80098427  0.39946419  0.59569532  1
  Rh  Rh226  1  0.79772839  0.00720131  0.59765217  1
  Rh  Rh227  1  0.00447152  0.79463421  0.60342492  1
  Rh  Rh228  1  0.00219578  0.19736822  0.19306133  1
  Rh  Rh229  1  0.20349720  0.19819892  -0.00063466  1
  Rh  Rh230  1  0.38885790  0.38922932  0.79071501  1
  Rh  Rh231  1  0.79903474  0.19142667  -0.00147810  1
  Rh  Rh232  1  0.79760220  0.20673392  0.19198840  1
  Rh  Rh233  1  0.20422766  0.60354623  0.80230825  1
  Rh  Rh234  1  -0.00769385  0.60718969  0.59544557  1
  Rh  Rh235  1  0.40378993  0.80261232  0.79337342  1
  Rh  Rh236  1  0.19753844  0.78967309  -0.01269833  1
  Rh  Rh237  1  0.59135028  0.21177648  0.40778708  1
  Rh  Rh238  1  0.59743533  0.60407651  0.79538241  1
  Rh  Rh239  1  0.60217542  0.19511973  0.79192533  1
  Rh  Rh240  1  0.80318935  0.79434400  0.60175256  1
  Rh  Rh241  1  0.59837686  0.60303170  0.59920712  1
  Rh  Rh242  1  -0.00148751  0.00226861  -0.00860655  1
  Rh  Rh243  1  0.19369088  0.80514424  0.21180463  1
  Rh  Rh244  1  0.18427932  0.39195463  0.40471905  1
  Rh  Rh245  1  0.20506787  0.20537459  0.80264108  1
  Rh  Rh246  1  0.20743834  0.00034888  0.40223716  1
  Rh  Rh247  1  0.61060749  0.61264687  0.01361291  1
  Rh  Rh248  1  0.39605139  0.80821729  0.40649969  1
  Rh  Rh249  1  0.19870512  0.60996999  -0.01534135  1
