# generated using pymatgen
data_ZrScNbPdRh
_symmetry_space_group_name_H-M   'P 1'
_cell_length_a   16.55979788
_cell_length_b   16.55789903
_cell_length_c   16.55678313
_cell_angle_alpha   90.00749515
_cell_angle_beta   90.00400897
_cell_angle_gamma   89.97771306
_symmetry_Int_Tables_number   1
_chemical_formula_structural   ZrScNbPdRh
_chemical_formula_sum   'Zr50 Sc50 Nb50 Pd50 Rh50'
_cell_volume   4539.79439389
_cell_formula_units_Z   50
loop_
 _symmetry_equiv_pos_site_id
 _symmetry_equiv_pos_as_xyz
  1  'x, y, z'
loop_
 _atom_site_type_symbol
 _atom_site_label
 _atom_site_symmetry_multiplicity
 _atom_site_fract_x
 _atom_site_fract_y
 _atom_site_fract_z
 _atom_site_occupancy
  Zr  Zr0  1  0.90423278  0.90010018  0.29367360  1
  Zr  Zr1  1  0.90405950  0.30418965  0.89639317  1
  Zr  Zr2  1  0.69515463  0.50279983  0.50037313  1
  Zr  Zr3  1  0.29965193  0.10063405  0.09503623  1
  Zr  Zr4  1  0.10447921  0.09748852  0.90212886  1
  Zr  Zr5  1  0.29980789  0.30372440  0.50674555  1
  Zr  Zr6  1  0.50172626  0.10016852  0.50657445  1
  Zr  Zr7  1  0.29982933  0.49987887  0.70130464  1
  Zr  Zr8  1  0.49426059  0.90221374  0.09522765  1
  Zr  Zr9  1  0.48596240  0.30417614  0.30151035  1
  Zr  Zr10  1  0.90443143  0.10851084  0.50125687  1
  Zr  Zr11  1  0.31513322  0.29334933  0.11195288  1
  Zr  Zr12  1  0.91494549  0.30431773  0.50910173  1
  Zr  Zr13  1  0.09672470  0.29413793  0.09255072  1
  Zr  Zr14  1  0.09688882  0.29730197  0.89685734  1
  Zr  Zr15  1  0.09940501  0.49375316  0.89939482  1
  Zr  Zr16  1  0.29601798  0.89726231  0.89624449  1
  Zr  Zr17  1  0.30088521  0.69312834  0.90399820  1
  Zr  Zr18  1  0.89452725  0.10226616  0.30036707  1
  Zr  Zr19  1  0.10226095  0.90465954  0.29603438  1
  Zr  Zr20  1  0.29796804  0.89974768  0.10527332  1
  Zr  Zr21  1  0.50269292  0.69773365  0.89085445  1
  Zr  Zr22  1  0.49590893  0.50768250  0.89724632  1
  Zr  Zr23  1  0.70505358  0.69059340  0.10607946  1
  Zr  Zr24  1  0.89819714  0.69869416  0.29991288  1
  Zr  Zr25  1  0.11063985  0.69222532  0.30867013  1
  Zr  Zr26  1  0.10210854  0.09265850  0.10089543  1
  Zr  Zr27  1  0.90458377  0.30117673  0.29931032  1
  Zr  Zr28  1  0.09428039  0.70187479  0.70237488  1
  Zr  Zr29  1  0.70342242  0.10396826  0.30178757  1
  Zr  Zr30  1  0.70295835  0.29494938  0.89617893  1
  Zr  Zr31  1  0.50402275  0.89763871  0.89298660  1
  Zr  Zr32  1  0.28994575  0.70198638  0.69163756  1
  Zr  Zr33  1  0.89933528  0.49771492  0.89652539  1
  Zr  Zr34  1  0.89780323  0.09744570  0.69753018  1
  Zr  Zr35  1  0.09174164  0.09295973  0.30519515  1
  Zr  Zr36  1  0.30078800  0.49728103  0.30372174  1
  Zr  Zr37  1  0.70515278  0.49916921  0.69567341  1
  Zr  Zr38  1  0.70444638  0.90596526  0.69478137  1
  Zr  Zr39  1  0.30362293  0.50528016  0.09946231  1
  Zr  Zr40  1  0.29626581  0.50009726  0.90128168  1
  Zr  Zr41  1  0.69149369  0.89643391  0.50406885  1
  Zr  Zr42  1  0.29512675  0.29497058  0.69608441  1
  Zr  Zr43  1  0.70702441  0.69867598  0.49639412  1
  Zr  Zr44  1  0.69832940  0.10047548  0.09538093  1
  Zr  Zr45  1  0.30364478  0.70306007  0.11097280  1
  Zr  Zr46  1  0.90840904  0.49802778  0.30515467  1
  Zr  Zr47  1  0.29944062  0.49814527  0.50429331  1
  Zr  Zr48  1  0.90120581  0.90442560  0.69912081  1
  Zr  Zr49  1  0.70324828  0.10918263  0.70081957  1
  Sc  Sc50  1  0.10261529  0.89440284  0.70926368  1
  Sc  Sc51  1  0.50742350  0.29058419  0.91245477  1
  Sc  Sc52  1  0.30327524  0.10119783  0.70230718  1
  Sc  Sc53  1  0.49078842  0.10662533  0.09078114  1
  Sc  Sc54  1  0.69816244  0.29767042  0.30999131  1
  Sc  Sc55  1  0.10391229  0.71487964  0.09563350  1
  Sc  Sc56  1  0.70756356  0.89984855  0.30728681  1
  Sc  Sc57  1  0.29837876  0.08851229  0.29374911  1
  Sc  Sc58  1  0.69656293  0.30588935  0.08992646  1
  Sc  Sc59  1  0.88826099  0.89354902  0.50975045  1
  Sc  Sc60  1  0.49742960  0.28524449  0.68939862  1
  Sc  Sc61  1  0.89883648  0.69347892  0.89458235  1
  Sc  Sc62  1  0.89998818  0.09560343  0.10590730  1
  Sc  Sc63  1  0.30266183  0.89197344  0.30001105  1
  Sc  Sc64  1  0.50607272  0.70079391  0.29928145  1
  Sc  Sc65  1  0.50060347  0.30261001  0.49806188  1
  Sc  Sc66  1  0.70507856  0.49935952  0.10123941  1
  Sc  Sc67  1  0.50515247  0.51066363  0.69994227  1
  Sc  Sc68  1  0.69847219  0.10072728  0.49724079  1
  Sc  Sc69  1  0.90082626  0.49888406  0.69902739  1
  Sc  Sc70  1  0.49295412  0.89717819  0.30988859  1
  Sc  Sc71  1  0.89943692  0.29862577  0.70174767  1
  Sc  Sc72  1  0.91230742  0.89810771  0.09534437  1
  Sc  Sc73  1  0.49469680  0.10035199  0.90121524  1
  Sc  Sc74  1  0.49862089  0.09978111  0.31076569  1
  Sc  Sc75  1  0.10502398  0.49448985  0.09232997  1
  Sc  Sc76  1  0.68922749  0.30061546  0.50704354  1
  Sc  Sc77  1  0.49270184  0.69818210  0.10362031  1
  Sc  Sc78  1  0.29564352  0.90292155  0.69291207  1
  Sc  Sc79  1  0.70148888  0.69924211  0.30103920  1
  Sc  Sc80  1  0.10972025  0.09878649  0.70071382  1
  Sc  Sc81  1  0.69429116  0.69284781  0.69673514  1
  Sc  Sc82  1  0.29172314  0.29130477  0.89960538  1
  Sc  Sc83  1  0.90460729  0.09744071  0.88639946  1
  Sc  Sc84  1  0.69753424  0.51139521  0.30298414  1
  Sc  Sc85  1  0.30385987  0.89509201  0.49921868  1
  Sc  Sc86  1  0.69937355  0.69273285  0.88477613  1
  Sc  Sc87  1  0.50060172  0.50472268  0.10751820  1
  Sc  Sc88  1  0.50807150  0.71604696  0.49475064  1
  Sc  Sc89  1  0.89754525  0.70299832  0.10172772  1
  Sc  Sc90  1  0.10010467  0.50185232  0.70083945  1
  Sc  Sc91  1  0.88998447  0.50041199  0.09818582  1
  Sc  Sc92  1  0.71289949  0.49650516  0.90209986  1
  Sc  Sc93  1  0.50133370  0.90034834  0.68611022  1
  Sc  Sc94  1  0.91094930  0.90903262  0.89721314  1
  Sc  Sc95  1  0.89951431  0.30378745  0.10049667  1
  Sc  Sc96  1  0.70294117  0.91392900  0.08766366  1
  Sc  Sc97  1  0.09060470  0.49813144  0.49590229  1
  Sc  Sc98  1  0.10581355  0.69214055  0.50538485  1
  Sc  Sc99  1  0.90275097  0.69361828  0.50567723  1
  Nb  Nb100  1  0.09816537  0.90166216  0.09011542  1
  Nb  Nb101  1  0.89733016  0.70516976  0.69850373  1
  Nb  Nb102  1  0.50431403  0.49748110  0.30976118  1
  Nb  Nb103  1  0.50419837  0.90275113  0.49745575  1
  Nb  Nb104  1  0.69736735  0.30161355  0.70610100  1
  Nb  Nb105  1  0.09455276  0.30160541  0.69271556  1
  Nb  Nb106  1  0.50136857  0.49970975  0.49057451  1
  Nb  Nb107  1  0.09815890  0.49870563  0.30043744  1
  Nb  Nb108  1  0.29999115  0.69655493  0.49578650  1
  Nb  Nb109  1  0.10198305  0.09856166  0.50063727  1
  Nb  Nb110  1  0.89654431  0.50042198  0.49823021  1
  Nb  Nb111  1  0.49958697  0.69784261  0.70907456  1
  Nb  Nb112  1  0.50145510  0.09525096  0.69792908  1
  Nb  Nb113  1  0.49938361  0.29904685  0.10425366  1
  Nb  Nb114  1  0.29796150  0.29979131  0.30459067  1
  Nb  Nb115  1  0.09999903  0.29253741  0.50673749  1
  Nb  Nb116  1  0.09904701  0.89016553  0.91255847  1
  Nb  Nb117  1  0.28725065  0.10295033  0.50821396  1
  Nb  Nb118  1  0.29563622  0.10505571  0.89575303  1
  Nb  Nb119  1  0.69854140  0.90393282  0.89583313  1
  Nb  Nb120  1  0.30105137  0.69797562  0.31058719  1
  Nb  Nb121  1  0.69779763  0.09574667  0.90076549  1
  Nb  Nb122  1  0.10021611  0.91208073  0.49585354  1
  Nb  Nb123  1  0.09792720  0.30672270  0.30134981  1
  Nb  Nb124  1  0.10130479  0.71149344  0.90134222  1
  Nb  Nb125  1  0.40249375  0.39904762  -0.00056739  1
  Nb  Nb126  1  0.00595164  0.00055178  0.59591253  1
  Nb  Nb127  1  0.59335399  0.39752266  0.20491917  1
  Nb  Nb128  1  0.00324650  0.60301669  -0.00060893  1
  Nb  Nb129  1  0.19594754  0.20246785  0.40122163  1
  Nb  Nb130  1  0.60157167  0.60431111  -0.00136377  1
  Nb  Nb131  1  0.79813762  0.19473934  -0.00744912  1
  Nb  Nb132  1  0.60162059  0.00478291  0.79650512  1
  Nb  Nb133  1  0.60593308  0.79625883  -0.00129990  1
  Nb  Nb134  1  0.79994424  0.80489539  0.79751123  1
  Nb  Nb135  1  0.40114877  0.60113208  0.40483886  1
  Nb  Nb136  1  0.40294735  0.60787303  0.59416383  1
  Nb  Nb137  1  0.59796663  0.39492762  0.79845747  1
  Nb  Nb138  1  0.59427582  0.20255998  0.19916189  1
  Nb  Nb139  1  0.38446906  0.19864445  0.40598468  1
  Nb  Nb140  1  0.39916204  0.79539827  0.79300981  1
  Nb  Nb141  1  0.79375786  0.80255719  -0.01128682  1
  Nb  Nb142  1  0.60189266  0.80945141  0.19148353  1
  Nb  Nb143  1  0.00705106  0.59800478  0.19872674  1
  Nb  Nb144  1  0.80476996  0.40338632  0.40760766  1
  Nb  Nb145  1  0.59862467  0.00241319  0.19957152  1
  Nb  Nb146  1  0.40469520  0.39588193  0.80341567  1
  Nb  Nb147  1  0.00504761  0.80289683  0.40223385  1
  Nb  Nb148  1  0.19672017  0.20504309  0.20980127  1
  Nb  Nb149  1  0.19923912  0.39489450  0.20581275  1
  Pd  Pd150  1  0.19817479  -0.00278794  0.80095268  1
  Pd  Pd151  1  0.59410576  0.41188273  0.00104511  1
  Pd  Pd152  1  0.79547368  0.20863955  0.59645004  1
  Pd  Pd153  1  0.19393812  0.60475306  0.80118382  1
  Pd  Pd154  1  0.19044204  0.80643630  0.59067674  1
  Pd  Pd155  1  0.00188954  0.60052152  0.80313980  1
  Pd  Pd156  1  0.59132375  0.19804340  0.79980259  1
  Pd  Pd157  1  0.41187993  0.40758827  0.60957574  1
  Pd  Pd158  1  0.39437326  0.00122287  -0.00962739  1
  Pd  Pd159  1  0.40383007  0.79494734  0.60063619  1
  Pd  Pd160  1  0.00538016  0.19708684  0.79249997  1
  Pd  Pd161  1  0.20229515  0.39328772  0.79709767  1
  Pd  Pd162  1  0.21202459  0.38705157  0.00867659  1
  Pd  Pd163  1  0.19593305  0.80431782  0.40720028  1
  Pd  Pd164  1  0.00518776  0.40740539  0.18964180  1
  Pd  Pd165  1  0.00507701  0.20466585  0.39768172  1
  Pd  Pd166  1  0.19128826  0.60835861  0.00470887  1
  Pd  Pd167  1  0.21074228  0.00131894  0.39996523  1
  Pd  Pd168  1  0.40404231  -0.00540617  0.79574884  1
  Pd  Pd169  1  0.79093664  0.21083164  0.18984504  1
  Pd  Pd170  1  0.39157072  0.00438942  0.40972357  1
  Pd  Pd171  1  0.19395473  0.59457033  0.19656646  1
  Pd  Pd172  1  0.00778716  0.80692806  0.59181732  1
  Pd  Pd173  1  0.80776147  0.79837996  0.40318356  1
  Pd  Pd174  1  0.20482242  -0.00304702  -0.00346334  1
  Pd  Pd175  1  0.39415243  0.00267143  0.59488294  1
  Pd  Pd176  1  0.00289157  0.19715178  0.19975697  1
  Pd  Pd177  1  0.40413914  0.60027417  0.21396559  1
  Pd  Pd178  1  -0.01213881  0.18964384  -0.00061268  1
  Pd  Pd179  1  0.40358388  0.20455107  0.80267029  1
  Pd  Pd180  1  0.60096745  -0.00313889  0.39418532  1
  Pd  Pd181  1  -0.00322280  0.59576139  0.60317128  1
  Pd  Pd182  1  0.18874558  0.40569805  0.59963804  1
  Pd  Pd183  1  0.80063025  0.21352307  0.41192059  1
  Pd  Pd184  1  0.40230283  0.79603407  -0.00700900  1
  Pd  Pd185  1  0.60143877  0.79371334  0.60598136  1
  Pd  Pd186  1  0.59043227  0.39940803  0.60873487  1
  Pd  Pd187  1  0.78721457  0.40032684  0.21134304  1
  Pd  Pd188  1  -0.01549777  -0.00772772  0.40891947  1
  Pd  Pd189  1  0.80473687  -0.00254958  0.40751470  1
  Pd  Pd190  1  0.59153539  0.60787706  0.59115548  1
  Pd  Pd191  1  0.79683806  -0.00665984  0.19757856  1
  Pd  Pd192  1  -0.00750969  0.80159413  0.80528757  1
  Pd  Pd193  1  0.81318024  0.00222126  -0.00819038  1
  Pd  Pd194  1  0.80150220  0.39447825  0.59738214  1
  Pd  Pd195  1  0.00975804  0.79252613  0.20580023  1
  Pd  Pd196  1  0.40867884  0.00306251  0.20222171  1
  Pd  Pd197  1  0.19217823  0.39950475  0.40289427  1
  Pd  Pd198  1  0.19669416  0.80263524  0.20243548  1
  Pd  Pd199  1  0.79080421  0.81298724  0.18666454  1
  Rh  Rh200  1  0.80199888  0.60871201  -0.00191642  1
  Rh  Rh201  1  0.60404746  0.19428794  0.00555949  1
  Rh  Rh202  1  0.01415229  -0.00275329  0.79586758  1
  Rh  Rh203  1  0.00219703  0.40639012  0.60369647  1
  Rh  Rh204  1  0.40470131  0.79683152  0.20959410  1
  Rh  Rh205  1  0.79328592  0.79000336  0.60736155  1
  Rh  Rh206  1  -0.00055119  0.60715055  0.39690713  1
  Rh  Rh207  1  0.40073748  0.18839682  0.21360178  1
  Rh  Rh208  1  0.59412506  0.60669143  0.40340709  1
  Rh  Rh209  1  0.00125891  0.00493971  -0.00220626  1
  Rh  Rh210  1  0.40102220  0.41024568  0.19665466  1
  Rh  Rh211  1  0.60285465  0.19709070  0.59991900  1
  Rh  Rh212  1  0.20959251  0.80019278  0.00348816  1
  Rh  Rh213  1  0.60835684  0.39971665  0.39510323  1
  Rh  Rh214  1  0.58757769  0.20469055  0.39669570  1
  Rh  Rh215  1  0.19952916  0.59477224  0.59703180  1
  Rh  Rh216  1  0.80270915  0.19943264  0.80420873  1
  Rh  Rh217  1  0.40048624  0.79507180  0.40211164  1
  Rh  Rh218  1  0.00001428  -0.00104190  0.19561593  1
  Rh  Rh219  1  0.80608717  0.60211849  0.60235131  1
  Rh  Rh220  1  -0.00661489  0.41070503  0.00276556  1
  Rh  Rh221  1  0.61282030  0.58250926  0.80520212  1
  Rh  Rh222  1  0.80973433  0.59321790  0.20768407  1
  Rh  Rh223  1  0.00269042  0.39902010  0.79281170  1
  Rh  Rh224  1  0.40640494  0.59679960  0.00543288  1
  Rh  Rh225  1  0.79361147  -0.00166436  0.80233760  1
  Rh  Rh226  1  0.60170314  0.81087942  0.79316511  1
  Rh  Rh227  1  0.19485543  0.19940479  0.60261377  1
  Rh  Rh228  1  0.39847799  0.40062289  0.40688977  1
  Rh  Rh229  1  0.80150014  0.60475940  0.78917157  1
  Rh  Rh230  1  0.00020096  0.39682204  0.40557926  1
  Rh  Rh231  1  0.59950984  0.59816072  0.19694269  1
  Rh  Rh232  1  0.80258636  0.59472872  0.40060005  1
  Rh  Rh233  1  0.19692173  -0.00454863  0.60091163  1
  Rh  Rh234  1  0.80570444  0.39038107  -0.00169877  1
  Rh  Rh235  1  0.39751721  0.19165250  0.59495473  1
  Rh  Rh236  1  0.60315518  0.00606453  0.60263965  1
  Rh  Rh237  1  0.38730165  0.60467719  0.78740664  1
  Rh  Rh238  1  0.19559010  0.20245138  0.79483739  1
  Rh  Rh239  1  0.20456937  0.59061118  0.40593809  1
  Rh  Rh240  1  0.80375632  0.01009202  0.59090587  1
  Rh  Rh241  1  0.19847172  -0.00204496  0.19711661  1
  Rh  Rh242  1  0.60385369  0.80549211  0.39038053  1
  Rh  Rh243  1  0.20527222  0.79723782  0.80251928  1
  Rh  Rh244  1  -0.01191718  0.79114609  -0.00671852  1
  Rh  Rh245  1  0.39318420  0.20521563  -0.00896006  1
  Rh  Rh246  1  0.59013179  -0.00062024  -0.00457068  1
  Rh  Rh247  1  0.20298560  0.20042740  0.00597218  1
  Rh  Rh248  1  0.00790842  0.19029986  0.60933577  1
  Rh  Rh249  1  0.79692120  0.39869731  0.79469463  1
