# generated using pymatgen
data_ZrScNbPdRh
_symmetry_space_group_name_H-M   'P 1'
_cell_length_a   16.56161780
_cell_length_b   16.56395215
_cell_length_c   16.56200974
_cell_angle_alpha   90.01085425
_cell_angle_beta   90.00509455
_cell_angle_gamma   90.00928985
_symmetry_Int_Tables_number   1
_chemical_formula_structural   ZrScNbPdRh
_chemical_formula_sum   'Zr50 Sc50 Nb50 Pd50 Rh50'
_cell_volume   4543.38715262
_cell_formula_units_Z   50
loop_
 _symmetry_equiv_pos_site_id
 _symmetry_equiv_pos_as_xyz
  1  'x, y, z'
loop_
 _atom_site_type_symbol
 _atom_site_label
 _atom_site_symmetry_multiplicity
 _atom_site_fract_x
 _atom_site_fract_y
 _atom_site_fract_z
 _atom_site_occupancy
  Zr  Zr0  1  0.30300555  0.29970484  0.11372999  1
  Zr  Zr1  1  0.69658341  0.70714043  0.49374606  1
  Zr  Zr2  1  0.48998033  0.10313681  0.11537225  1
  Zr  Zr3  1  0.50816419  0.11112983  0.89745505  1
  Zr  Zr4  1  0.09801250  0.89898295  0.31896965  1
  Zr  Zr5  1  0.49977563  0.70145926  0.49361244  1
  Zr  Zr6  1  0.08942041  0.69328342  0.89879083  1
  Zr  Zr7  1  0.31233277  0.10213810  0.29964231  1
  Zr  Zr8  1  0.49648039  0.28982031  0.70248090  1
  Zr  Zr9  1  0.89989210  0.89329540  0.90881962  1
  Zr  Zr10  1  0.30459587  0.69650051  0.30496777  1
  Zr  Zr11  1  0.10051356  0.10240621  0.70193283  1
  Zr  Zr12  1  0.30373387  0.50167948  0.11278763  1
  Zr  Zr13  1  0.50575560  0.49072006  0.10356367  1
  Zr  Zr14  1  0.49310678  0.89724135  0.30398108  1
  Zr  Zr15  1  0.29792898  0.49846179  0.69384676  1
  Zr  Zr16  1  0.50020943  0.30511379  0.10429540  1
  Zr  Zr17  1  0.10262132  0.29523412  0.89588463  1
  Zr  Zr18  1  0.29882539  0.89855360  0.09820976  1
  Zr  Zr19  1  0.91195911  0.89754385  0.49673265  1
  Zr  Zr20  1  0.70514137  0.90070105  0.10591482  1
  Zr  Zr21  1  0.10399634  0.49849957  0.10275150  1
  Zr  Zr22  1  0.30096212  0.29656947  0.68827236  1
  Zr  Zr23  1  0.50213069  0.50613373  0.49557928  1
  Zr  Zr24  1  0.70269778  0.50504112  0.69980629  1
  Zr  Zr25  1  0.70270041  0.10379335  0.49783774  1
  Zr  Zr26  1  0.49770209  0.90013920  0.70166372  1
  Zr  Zr27  1  0.89577051  0.29135550  0.89668887  1
  Zr  Zr28  1  0.70663484  0.69731730  0.88922420  1
  Zr  Zr29  1  0.10243745  0.49827842  0.89730382  1
  Zr  Zr30  1  0.10432258  0.09945859  0.30262923  1
  Zr  Zr31  1  0.89285033  0.10295682  0.30116742  1
  Zr  Zr32  1  0.49898104  0.70440895  0.69811393  1
  Zr  Zr33  1  0.30166821  0.90763862  0.70278486  1
  Zr  Zr34  1  0.49447262  0.09802764  0.49704496  1
  Zr  Zr35  1  0.69432177  0.31238671  0.09857866  1
  Zr  Zr36  1  0.89516617  0.50461409  0.29561352  1
  Zr  Zr37  1  0.30174577  0.89681506  0.89962234  1
  Zr  Zr38  1  0.29550609  0.50494969  0.50153324  1
  Zr  Zr39  1  0.09255370  0.09207474  0.49953903  1
  Zr  Zr40  1  0.90551946  0.70509991  0.09429807  1
  Zr  Zr41  1  0.89709155  0.08483801  0.09752771  1
  Zr  Zr42  1  0.69783379  0.49603990  0.89206369  1
  Zr  Zr43  1  0.29566183  0.90121790  0.30117203  1
  Zr  Zr44  1  0.29633901  0.90322318  0.50125071  1
  Zr  Zr45  1  0.69777153  0.29263879  0.90257744  1
  Zr  Zr46  1  0.09764972  0.09456576  0.09839507  1
  Zr  Zr47  1  0.90537469  0.50901916  0.89955759  1
  Zr  Zr48  1  0.90017347  0.09753261  0.51311082  1
  Zr  Zr49  1  0.70702812  0.50984502  0.50196007  1
  Sc  Sc50  1  0.11268325  0.49941597  0.69709700  1
  Sc  Sc51  1  0.09641653  0.89793042  0.68545422  1
  Sc  Sc52  1  0.70907679  0.10310045  0.09845815  1
  Sc  Sc53  1  0.70369456  0.69947550  0.69379909  1
  Sc  Sc54  1  0.90288891  0.89727742  0.29543809  1
  Sc  Sc55  1  0.49815023  0.30647362  0.49846727  1
  Sc  Sc56  1  0.90263219  0.70250113  0.70432164  1
  Sc  Sc57  1  0.50262878  0.71114689  0.89628141  1
  Sc  Sc58  1  0.89094560  0.49341144  0.69027005  1
  Sc  Sc59  1  0.70624023  0.10285152  0.89445891  1
  Sc  Sc60  1  0.29784036  0.70290981  0.10648847  1
  Sc  Sc61  1  0.30340398  0.10420263  0.50099257  1
  Sc  Sc62  1  0.48988029  0.09751974  0.70044315  1
  Sc  Sc63  1  0.10607542  0.30276650  0.30412867  1
  Sc  Sc64  1  0.88826393  0.70156117  0.49739995  1
  Sc  Sc65  1  0.10175850  0.70511686  0.09633889  1
  Sc  Sc66  1  0.11117455  0.70379561  0.30404908  1
  Sc  Sc67  1  0.30103777  0.70678890  0.90330144  1
  Sc  Sc68  1  0.50224625  0.30539617  0.90210221  1
  Sc  Sc69  1  0.50038054  0.69942124  0.30392517  1
  Sc  Sc70  1  0.69834961  0.51153984  0.29024303  1
  Sc  Sc71  1  0.90020511  0.29050835  0.69714754  1
  Sc  Sc72  1  0.10469726  0.29444552  0.50010665  1
  Sc  Sc73  1  0.90642288  0.29575008  0.50871752  1
  Sc  Sc74  1  0.10604633  0.30587508  0.09903880  1
  Sc  Sc75  1  0.09757627  0.69706249  0.69812001  1
  Sc  Sc76  1  0.28561678  0.09628660  0.89266113  1
  Sc  Sc77  1  0.89161740  0.70302102  0.30269799  1
  Sc  Sc78  1  0.90292842  0.90088637  0.69449983  1
  Sc  Sc79  1  0.28958732  0.50456183  0.30429818  1
  Sc  Sc80  1  0.69826760  0.70501220  0.11172552  1
  Sc  Sc81  1  0.89204258  0.30627262  0.09865792  1
  Sc  Sc82  1  0.89744911  0.49776296  0.10085634  1
  Sc  Sc83  1  0.29135371  0.68796007  0.69218842  1
  Sc  Sc84  1  0.09688593  0.90110688  0.10550345  1
  Sc  Sc85  1  0.29824859  0.30149796  0.89474586  1
  Sc  Sc86  1  0.70089935  0.89652340  0.70181281  1
  Sc  Sc87  1  0.50361029  0.30687668  0.30673881  1
  Sc  Sc88  1  0.49905369  0.89481799  0.89194368  1
  Sc  Sc89  1  0.69554778  0.89598960  0.89738625  1
  Sc  Sc90  1  0.69413642  0.29861678  0.49427264  1
  Sc  Sc91  1  0.29321509  0.09791213  0.11564203  1
  Sc  Sc92  1  0.10301073  0.90282401  0.91181679  1
  Sc  Sc93  1  0.50014107  0.50491303  0.29812310  1
  Sc  Sc94  1  0.10058825  0.29700761  0.69214221  1
  Sc  Sc95  1  0.50395193  0.49551553  0.69433159  1
  Sc  Sc96  1  0.10492594  0.71312040  0.50047044  1
  Sc  Sc97  1  0.70309515  0.30229306  0.70368136  1
  Sc  Sc98  1  0.29413086  0.49173059  0.88842651  1
  Sc  Sc99  1  0.49973308  0.70676131  0.10740360  1
  Nb  Nb100  1  0.50487365  0.90316218  0.10187825  1
  Nb  Nb101  1  0.30117674  0.09453048  0.69000975  1
  Nb  Nb102  1  0.10080101  0.49726539  0.49365324  1
  Nb  Nb103  1  0.49793912  0.50339292  0.90253948  1
  Nb  Nb104  1  0.70028494  0.10137862  0.30417145  1
  Nb  Nb105  1  0.89898522  0.50001432  0.49545089  1
  Nb  Nb106  1  0.09653325  0.90189856  0.49974635  1
  Nb  Nb107  1  0.70116497  0.70564097  0.30413268  1
  Nb  Nb108  1  0.90195423  0.10197374  0.89763176  1
  Nb  Nb109  1  0.10201833  0.50448521  0.30085794  1
  Nb  Nb110  1  0.89345972  0.10113181  0.70531826  1
  Nb  Nb111  1  0.69952282  0.89688909  0.30255156  1
  Nb  Nb112  1  0.29708104  0.30365210  0.49195417  1
  Nb  Nb113  1  0.89931940  0.30350722  0.29738665  1
  Nb  Nb114  1  0.90557198  0.69670952  0.90326184  1
  Nb  Nb115  1  0.50216281  0.89619804  0.50157956  1
  Nb  Nb116  1  0.90141072  0.90105002  0.09864783  1
  Nb  Nb117  1  0.50271573  0.09684247  0.30257462  1
  Nb  Nb118  1  0.69505610  0.89512684  0.49643451  1
  Nb  Nb119  1  0.29436162  0.29608712  0.31234643  1
  Nb  Nb120  1  0.69810075  0.50583456  0.09583339  1
  Nb  Nb121  1  0.70557136  0.29041167  0.30273388  1
  Nb  Nb122  1  0.70576213  0.09839459  0.69438172  1
  Nb  Nb123  1  0.30534279  0.69428342  0.49985141  1
  Nb  Nb124  1  0.09219959  0.10269592  0.90025168  1
  Nb  Nb125  1  0.60065926  0.59777573  -0.00102173  1
  Nb  Nb126  1  0.40505349  0.00373020  0.00236060  1
  Nb  Nb127  1  0.60243205  -0.00073558  0.59508547  1
  Nb  Nb128  1  0.00100633  0.39814504  0.80001637  1
  Nb  Nb129  1  -0.00105835  0.59290203  0.58654736  1
  Nb  Nb130  1  0.40173419  0.59760314  0.80340625  1
  Nb  Nb131  1  -0.00146521  0.19389106  0.00112178  1
  Nb  Nb132  1  0.39633179  0.19600229  0.00415700  1
  Nb  Nb133  1  0.20403883  0.59620741  -0.00106268  1
  Nb  Nb134  1  0.40330809  0.59462569  -0.00247275  1
  Nb  Nb135  1  -0.00281395  0.40618197  0.39874924  1
  Nb  Nb136  1  0.60270533  0.00227522  0.20599969  1
  Nb  Nb137  1  0.00360062  0.59896570  0.20594700  1
  Nb  Nb138  1  0.60216669  -0.00205445  0.39931670  1
  Nb  Nb139  1  0.80486140  0.39804091  0.39538191  1
  Nb  Nb140  1  0.39782019  0.79937366  0.59482282  1
  Nb  Nb141  1  0.59313583  0.00051843  0.00763167  1
  Nb  Nb142  1  0.19784270  0.80140312  0.79965742  1
  Nb  Nb143  1  0.79627897  0.60267850  -0.00225085  1
  Nb  Nb144  1  -0.00410395  0.20142513  0.19778748  1
  Nb  Nb145  1  0.60017981  0.19197286  0.60127253  1
  Nb  Nb146  1  -0.00386417  0.00727668  0.80479068  1
  Nb  Nb147  1  0.60500064  0.19761044  0.21027351  1
  Nb  Nb148  1  0.79354378  -0.00401863  0.40044831  1
  Nb  Nb149  1  0.00243775  0.59599921  0.40039026  1
  Pd  Pd150  1  0.40428902  0.40456622  0.79610128  1
  Pd  Pd151  1  0.80490217  -0.00630567  0.80423758  1
  Pd  Pd152  1  -0.00252939  0.39144776  -0.00531549  1
  Pd  Pd153  1  0.00575085  0.39838489  0.20464333  1
  Pd  Pd154  1  0.40220878  0.00935944  0.81115322  1
  Pd  Pd155  1  0.59125768  0.60421239  0.80020034  1
  Pd  Pd156  1  0.00533610  0.40392294  0.60135727  1
  Pd  Pd157  1  0.39365151  0.40880811  0.39712535  1
  Pd  Pd158  1  0.19109914  0.20394360  0.20280988  1
  Pd  Pd159  1  0.60349574  0.39173673  0.60056183  1
  Pd  Pd160  1  0.38953586  0.19400942  0.80707378  1
  Pd  Pd161  1  -0.00160117  0.20763182  0.39533586  1
  Pd  Pd162  1  0.20641224  0.20140451  0.79263495  1
  Pd  Pd163  1  0.21138423  0.40370224  0.00196540  1
  Pd  Pd164  1  0.60109134  0.00363828  0.79849774  1
  Pd  Pd165  1  0.59926793  0.60385070  0.59876493  1
  Pd  Pd166  1  0.39933878  0.80025234  0.20061514  1
  Pd  Pd167  1  0.60369362  0.79828030  0.00017630  1
  Pd  Pd168  1  0.20586319  0.00378851  0.00400849  1
  Pd  Pd169  1  0.40681979  0.79990095  0.00475626  1
  Pd  Pd170  1  0.18626216  -0.00855476  0.79571295  1
  Pd  Pd171  1  0.19526294  0.80368314  0.20217971  1
  Pd  Pd172  1  0.39577771  0.39950936  0.21896495  1
  Pd  Pd173  1  0.59536353  0.60649880  0.19673138  1
  Pd  Pd174  1  0.00780497  0.81153755  0.80081456  1
  Pd  Pd175  1  0.80462512  0.80071116  0.20187905  1
  Pd  Pd176  1  0.40557374  0.20618208  0.40008204  1
  Pd  Pd177  1  0.59529599  0.39647306  0.79841864  1
  Pd  Pd178  1  0.20723802  0.00885673  0.40472671  1
  Pd  Pd179  1  0.00191550  0.00100925  0.20910705  1
  Pd  Pd180  1  0.20556703  0.79974932  0.60338033  1
  Pd  Pd181  1  0.40169849  0.39964678  0.59494552  1
  Pd  Pd182  1  0.00417447  0.79348713  0.20648885  1
  Pd  Pd183  1  0.61327993  0.41016469  0.39387088  1
  Pd  Pd184  1  0.79274515  0.79360308  0.00115283  1
  Pd  Pd185  1  0.80988125  0.20429021  0.40945334  1
  Pd  Pd186  1  0.20049417  0.19338765  0.59219514  1
  Pd  Pd187  1  0.79009284  0.40274505  0.20500056  1
  Pd  Pd188  1  0.39213228  0.39733791  -0.00307270  1
  Pd  Pd189  1  0.79085917  -0.00213769  -0.01021702  1
  Pd  Pd190  1  0.59592400  0.19395610  0.01417682  1
  Pd  Pd191  1  0.79568123  -0.01143002  0.59528697  1
  Pd  Pd192  1  0.80075414  0.20268338  0.19138738  1
  Pd  Pd193  1  0.20318986  0.19670580  0.00400641  1
  Pd  Pd194  1  0.80383755  0.80256904  0.60004501  1
  Pd  Pd195  1  -0.00360956  0.58767802  0.77915445  1
  Pd  Pd196  1  0.80042556  0.40763940  -0.00611945  1
  Pd  Pd197  1  0.79476354  0.39038539  0.59052993  1
  Pd  Pd198  1  0.80839024  0.39793521  0.79974029  1
  Pd  Pd199  1  0.80519658  0.80234099  0.79581195  1
  Rh  Rh200  1  0.80863146  0.60170323  0.79816243  1
  Rh  Rh201  1  0.19645247  0.00448757  0.59678605  1
  Rh  Rh202  1  0.79362734  0.20507517  0.60242414  1
  Rh  Rh203  1  -0.00976216  0.00350130  0.39556147  1
  Rh  Rh204  1  0.19397107  0.60551485  0.19291730  1
  Rh  Rh205  1  -0.00205155  0.79068028  0.40074990  1
  Rh  Rh206  1  0.39329237  0.80026457  0.40728150  1
  Rh  Rh207  1  0.79629065  0.59900484  0.39698063  1
  Rh  Rh208  1  0.39955619  -0.00390239  0.40224965  1
  Rh  Rh209  1  0.19389474  0.38755498  0.78885648  1
  Rh  Rh210  1  0.19764217  0.39912535  0.40061967  1
  Rh  Rh211  1  0.20152812  0.19419021  0.40400152  1
  Rh  Rh212  1  0.60829455  0.39471732  0.21149716  1
  Rh  Rh213  1  0.80692500  0.60627723  0.60279125  1
  Rh  Rh214  1  0.60215252  0.40540978  -0.00739673  1
  Rh  Rh215  1  0.59919731  0.80417116  0.20817785  1
  Rh  Rh216  1  0.38330058  0.78631681  0.78387752  1
  Rh  Rh217  1  0.40692727  0.21382160  0.21019177  1
  Rh  Rh218  1  0.18748393  0.60107707  0.58938434  1
  Rh  Rh219  1  0.40733865  0.60263103  0.60508406  1
  Rh  Rh220  1  0.00121596  0.19369270  0.60569004  1
  Rh  Rh221  1  0.39957920  -0.01090852  0.19855139  1
  Rh  Rh222  1  0.79431583  0.19831134  0.79540927  1
  Rh  Rh223  1  0.59523178  0.80523889  0.60520640  1
  Rh  Rh224  1  0.39956884  0.59439320  0.39752173  1
  Rh  Rh225  1  0.19559203  -0.00632144  0.20616490  1
  Rh  Rh226  1  0.80210417  0.80829841  0.39865947  1
  Rh  Rh227  1  0.00397716  0.80667451  0.00193048  1
  Rh  Rh228  1  0.00052498  0.59648834  0.01381811  1
  Rh  Rh229  1  -0.00115695  0.20021541  0.79984244  1
  Rh  Rh230  1  0.60486958  0.60165047  0.39664511  1
  Rh  Rh231  1  -0.00463364  0.78909027  0.59396526  1
  Rh  Rh232  1  0.80650807  0.19884789  0.00375176  1
  Rh  Rh233  1  0.40479652  0.60205808  0.19715753  1
  Rh  Rh234  1  0.60851998  0.79792000  0.79466377  1
  Rh  Rh235  1  0.80449232  0.60970938  0.18946742  1
  Rh  Rh236  1  0.40164624  0.20442072  0.59360324  1
  Rh  Rh237  1  0.79761305  -0.00641921  0.20817679  1
  Rh  Rh238  1  0.19280104  0.79127239  -0.00696735  1
  Rh  Rh239  1  0.59222378  0.19749341  0.40115299  1
  Rh  Rh240  1  0.20802683  0.61245151  0.81152490  1
  Rh  Rh241  1  0.40357220  -0.00699092  0.59643646  1
  Rh  Rh242  1  0.20781844  0.79816587  0.40585385  1
  Rh  Rh243  1  -0.00277177  -0.00096783  -0.00519986  1
  Rh  Rh244  1  0.60751072  0.19672989  0.78691220  1
  Rh  Rh245  1  0.20383868  0.39678951  0.21070663  1
  Rh  Rh246  1  0.19624095  0.60705973  0.40677514  1
  Rh  Rh247  1  0.59793016  0.79977121  0.39164283  1
  Rh  Rh248  1  0.00080257  0.00454035  0.61043546  1
  Rh  Rh249  1  0.20062602  0.39692963  0.59321068  1
