# generated using pymatgen
data_ZrScNbPdRh
_symmetry_space_group_name_H-M   'P 1'
_cell_length_a   16.56059170
_cell_length_b   16.56145681
_cell_length_c   16.56269177
_cell_angle_alpha   90.00201808
_cell_angle_beta   90.00098995
_cell_angle_gamma   90.02054246
_symmetry_Int_Tables_number   1
_chemical_formula_structural   ZrScNbPdRh
_chemical_formula_sum   'Zr50 Sc50 Nb50 Pd50 Rh50'
_cell_volume   4542.60817087
_cell_formula_units_Z   50
loop_
 _symmetry_equiv_pos_site_id
 _symmetry_equiv_pos_as_xyz
  1  'x, y, z'
loop_
 _atom_site_type_symbol
 _atom_site_label
 _atom_site_symmetry_multiplicity
 _atom_site_fract_x
 _atom_site_fract_y
 _atom_site_fract_z
 _atom_site_occupancy
  Zr  Zr0  1  0.90110681  0.49924954  0.50216499  1
  Zr  Zr1  1  0.29874568  0.90435064  0.89297701  1
  Zr  Zr2  1  0.70443577  0.49407941  0.50875575  1
  Zr  Zr3  1  0.89358543  0.30126892  0.50712388  1
  Zr  Zr4  1  0.50174921  0.90414442  0.49786507  1
  Zr  Zr5  1  0.49502202  0.69819912  0.89339497  1
  Zr  Zr6  1  0.10905455  0.30038044  0.29836314  1
  Zr  Zr7  1  0.30776987  0.49344593  0.89333693  1
  Zr  Zr8  1  0.49351931  0.09590127  0.30052473  1
  Zr  Zr9  1  0.09665459  0.89668635  0.89885966  1
  Zr  Zr10  1  0.50313717  0.10075055  0.51330670  1
  Zr  Zr11  1  0.50349267  0.90470800  0.89480749  1
  Zr  Zr12  1  0.90121687  0.89748842  0.50382025  1
  Zr  Zr13  1  0.71003151  0.28771897  0.30487219  1
  Zr  Zr14  1  0.70531007  0.49812138  0.89858375  1
  Zr  Zr15  1  0.70391636  0.69887162  0.88997366  1
  Zr  Zr16  1  0.70601081  0.10311814  0.09950455  1
  Zr  Zr17  1  0.10460569  0.09004113  0.89859258  1
  Zr  Zr18  1  0.30073322  0.10534580  0.90057354  1
  Zr  Zr19  1  0.29878943  0.10062984  0.10479090  1
  Zr  Zr20  1  0.90301724  0.10721098  0.90156552  1
  Zr  Zr21  1  0.90346637  0.30252707  0.70100074  1
  Zr  Zr22  1  0.89929409  0.31118098  0.90007335  1
  Zr  Zr23  1  0.49559093  0.89251027  0.30456334  1
  Zr  Zr24  1  0.29753766  0.49491577  0.49845310  1
  Zr  Zr25  1  0.90075040  0.10213589  0.50482669  1
  Zr  Zr26  1  0.29264663  0.11222593  0.30055764  1
  Zr  Zr27  1  0.30861710  0.90258124  0.29976028  1
  Zr  Zr28  1  0.69780143  0.30411891  0.69507592  1
  Zr  Zr29  1  0.48901255  0.90050264  0.69812294  1
  Zr  Zr30  1  0.09626550  0.50494130  0.89416934  1
  Zr  Zr31  1  0.10462900  0.30224532  0.50089852  1
  Zr  Zr32  1  0.09325142  0.90188530  0.08889685  1
  Zr  Zr33  1  0.70512144  0.69710729  0.29000279  1
  Zr  Zr34  1  0.50531789  0.69996367  0.70329085  1
  Zr  Zr35  1  0.10673698  0.49442166  0.30493636  1
  Zr  Zr36  1  0.09799160  0.69858901  0.89213692  1
  Zr  Zr37  1  0.30963252  0.70086764  0.29643457  1
  Zr  Zr38  1  0.69948265  0.49957807  0.10031060  1
  Zr  Zr39  1  0.50074427  0.90566385  0.10008768  1
  Zr  Zr40  1  0.10244300  0.30306559  0.69683430  1
  Zr  Zr41  1  0.50616657  0.49937346  0.09911686  1
  Zr  Zr42  1  0.70140055  0.30700427  0.90452097  1
  Zr  Zr43  1  0.48855180  0.69798026  0.10023328  1
  Zr  Zr44  1  0.09512266  0.70322584  0.49752859  1
  Zr  Zr45  1  0.88695263  0.10595367  0.29918301  1
  Zr  Zr46  1  0.10006002  0.30520415  0.10380209  1
  Zr  Zr47  1  0.09816408  0.90555694  0.69668105  1
  Zr  Zr48  1  0.69917487  0.89919999  0.30937449  1
  Zr  Zr49  1  0.48901928  0.30500514  0.90049959  1
  Sc  Sc50  1  0.70605405  0.90685997  0.09536023  1
  Sc  Sc51  1  0.11237711  0.49947096  0.70308224  1
  Sc  Sc52  1  0.90169283  0.09679181  0.69275413  1
  Sc  Sc53  1  0.89792949  0.90018413  0.69678272  1
  Sc  Sc54  1  0.91191622  0.50524375  0.29853613  1
  Sc  Sc55  1  0.30841505  0.69717988  0.69827955  1
  Sc  Sc56  1  0.09115223  0.30135736  0.88913724  1
  Sc  Sc57  1  0.89764374  0.09193152  0.09624529  1
  Sc  Sc58  1  0.70741817  0.90304058  0.70182871  1
  Sc  Sc59  1  0.29513867  0.09711058  0.69823349  1
  Sc  Sc60  1  0.49529727  0.69591330  0.49420776  1
  Sc  Sc61  1  0.70146337  0.50816321  0.69858978  1
  Sc  Sc62  1  0.69992622  0.90446614  0.89490347  1
  Sc  Sc63  1  0.89229357  0.89506652  0.29781945  1
  Sc  Sc64  1  0.10271833  0.10005125  0.69621100  1
  Sc  Sc65  1  0.69227379  0.09304495  0.89813692  1
  Sc  Sc66  1  0.50133296  0.69714796  0.30373275  1
  Sc  Sc67  1  0.30038228  0.30237879  0.70292463  1
  Sc  Sc68  1  0.70512914  0.69698941  0.69944176  1
  Sc  Sc69  1  0.09454994  0.50193700  0.10784009  1
  Sc  Sc70  1  0.89982105  0.69824662  0.49578639  1
  Sc  Sc71  1  0.89847919  0.70275127  0.70466532  1
  Sc  Sc72  1  0.89529286  0.49853453  0.70232733  1
  Sc  Sc73  1  0.29501486  0.30934375  0.30492229  1
  Sc  Sc74  1  0.49546771  0.09949971  0.09597026  1
  Sc  Sc75  1  0.49996941  0.10157943  0.89541933  1
  Sc  Sc76  1  0.30475899  0.89768538  0.09309178  1
  Sc  Sc77  1  0.90473404  0.89218662  0.89376363  1
  Sc  Sc78  1  0.90703037  0.69411113  0.89405311  1
  Sc  Sc79  1  0.29893527  0.30213773  0.11387545  1
  Sc  Sc80  1  0.10034530  0.69418144  0.08505852  1
  Sc  Sc81  1  0.09279331  0.09288604  0.09357366  1
  Sc  Sc82  1  0.89657139  0.69722261  0.30182275  1
  Sc  Sc83  1  0.49343992  0.49698761  0.50586038  1
  Sc  Sc84  1  0.70338535  0.68983478  0.49727485  1
  Sc  Sc85  1  0.29403773  0.10636979  0.50884736  1
  Sc  Sc86  1  0.30935501  0.90519239  0.50677983  1
  Sc  Sc87  1  0.08837031  0.89388371  0.29757331  1
  Sc  Sc88  1  0.69414906  0.09547594  0.69769100  1
  Sc  Sc89  1  0.30251107  0.68786196  0.49834886  1
  Sc  Sc90  1  0.30225294  0.50916592  0.10389228  1
  Sc  Sc91  1  0.50232321  0.49863912  0.29665388  1
  Sc  Sc92  1  0.10228169  0.10720791  0.50867841  1
  Sc  Sc93  1  0.09850349  0.10985686  0.30090910  1
  Sc  Sc94  1  0.49697635  0.29214038  0.69106933  1
  Sc  Sc95  1  0.90125236  0.30065628  0.31316151  1
  Sc  Sc96  1  0.08882795  0.69033614  0.30088553  1
  Sc  Sc97  1  0.69327562  0.50241029  0.29496968  1
  Sc  Sc98  1  0.30080874  0.49452507  0.69454216  1
  Sc  Sc99  1  0.50092150  0.31421552  0.10890772  1
  Nb  Nb100  1  0.69700581  0.90508409  0.50497381  1
  Nb  Nb101  1  0.50496786  0.09883417  0.69786972  1
  Nb  Nb102  1  0.30011739  0.70239671  0.09684719  1
  Nb  Nb103  1  0.29900219  0.69927252  0.91253597  1
  Nb  Nb104  1  0.29404955  0.50280092  0.30622779  1
  Nb  Nb105  1  0.29810533  0.30114233  0.90150603  1
  Nb  Nb106  1  0.88960774  0.69384224  0.10813414  1
  Nb  Nb107  1  0.69576209  0.29662435  0.50371964  1
  Nb  Nb108  1  0.89705416  0.30010844  0.09531754  1
  Nb  Nb109  1  0.10395817  0.69765733  0.70006041  1
  Nb  Nb110  1  0.90381473  0.89238230  0.09622761  1
  Nb  Nb111  1  0.50038961  0.29797360  0.50393136  1
  Nb  Nb112  1  0.70196549  0.69479945  0.10137362  1
  Nb  Nb113  1  0.70080554  0.30609456  0.10005464  1
  Nb  Nb114  1  0.69894940  0.09517993  0.49815412  1
  Nb  Nb115  1  0.10548679  0.50632776  0.50338467  1
  Nb  Nb116  1  0.70232577  0.09985389  0.29953404  1
  Nb  Nb117  1  0.89900845  0.49719194  0.89526585  1
  Nb  Nb118  1  0.49979442  0.50108956  0.90084456  1
  Nb  Nb119  1  0.09623812  0.89864306  0.49792548  1
  Nb  Nb120  1  0.49961539  0.50221358  0.71139814  1
  Nb  Nb121  1  0.31080943  0.30387681  0.50932454  1
  Nb  Nb122  1  0.89890955  0.50091892  0.09910720  1
  Nb  Nb123  1  0.50618958  0.29924043  0.30361540  1
  Nb  Nb124  1  0.29673654  0.89669144  0.69908676  1
  Nb  Nb125  1  0.60014266  0.60345574  -0.00307308  1
  Nb  Nb126  1  0.19754557  -0.00723429  0.20462707  1
  Nb  Nb127  1  0.60088716  0.20870095  0.00604767  1
  Nb  Nb128  1  0.79997548  0.79248204  0.00461381  1
  Nb  Nb129  1  0.60074515  0.38776823  0.40767815  1
  Nb  Nb130  1  0.00898664  0.60056629  0.60171499  1
  Nb  Nb131  1  0.60112017  0.80396426  0.59554506  1
  Nb  Nb132  1  0.40546476  0.21047829  0.40751727  1
  Nb  Nb133  1  0.60372071  0.80193845  0.19380081  1
  Nb  Nb134  1  0.19864771  0.80025690  0.59963435  1
  Nb  Nb135  1  0.80497670  0.39583711  0.19423812  1
  Nb  Nb136  1  0.00153647  0.00013948  0.40287030  1
  Nb  Nb137  1  0.19918042  0.80487427  0.39970246  1
  Nb  Nb138  1  0.79869010  0.20371485  0.80082656  1
  Nb  Nb139  1  -0.00797479  0.20570316  0.19573310  1
  Nb  Nb140  1  0.60417979  0.00228048  0.20579425  1
  Nb  Nb141  1  0.59324593  0.40369035  0.80045671  1
  Nb  Nb142  1  0.60461810  0.79384350  0.00256211  1
  Nb  Nb143  1  0.19771730  0.79874893  0.19754867  1
  Nb  Nb144  1  0.19352293  -0.00500468  0.39981611  1
  Nb  Nb145  1  0.60530146  0.19819116  0.20103673  1
  Nb  Nb146  1  0.20097849  0.39703544  -0.00432916  1
  Nb  Nb147  1  0.20236525  0.79812786  0.79567207  1
  Nb  Nb148  1  0.20111369  0.20669597  -0.00312453  1
  Nb  Nb149  1  -0.00369994  0.79553134  0.18818988  1
  Pd  Pd150  1  0.79647224  0.79677334  0.40690032  1
  Pd  Pd151  1  0.20038445  0.60912459  0.39638506  1
  Pd  Pd152  1  0.60318235  0.20659384  0.80623139  1
  Pd  Pd153  1  0.39144528  0.40229440  0.01028117  1
  Pd  Pd154  1  0.00666690  0.20206760  0.00439527  1
  Pd  Pd155  1  0.20023311  0.80143660  -0.00238775  1
  Pd  Pd156  1  -0.00287884  0.19476156  0.79225806  1
  Pd  Pd157  1  0.19596377  0.60722304  0.20066940  1
  Pd  Pd158  1  0.00515629  0.40137067  0.40325422  1
  Pd  Pd159  1  0.39852633  0.01038854  0.79412120  1
  Pd  Pd160  1  0.40525532  0.80554645  -0.00655077  1
  Pd  Pd161  1  -0.00750427  0.59887262  0.00165808  1
  Pd  Pd162  1  0.79300603  0.19401688  0.60584149  1
  Pd  Pd163  1  0.40746580  0.20805094  0.20485229  1
  Pd  Pd164  1  0.40643168  0.40034553  0.39528975  1
  Pd  Pd165  1  0.00037168  0.79352587  0.60729650  1
  Pd  Pd166  1  0.80135668  0.60084977  -0.00532534  1
  Pd  Pd167  1  0.39462149  0.40670170  0.20973321  1
  Pd  Pd168  1  0.60614847  0.80731862  0.79364508  1
  Pd  Pd169  1  0.20370732  0.58819991  -0.00171260  1
  Pd  Pd170  1  0.38907379  0.01512129  0.40989678  1
  Pd  Pd171  1  0.80000722  0.59041779  0.39346845  1
  Pd  Pd172  1  0.40199053  0.59354553  0.20535839  1
  Pd  Pd173  1  0.59621925  0.60512594  0.59765969  1
  Pd  Pd174  1  0.59902542  0.00591249  0.39789094  1
  Pd  Pd175  1  0.21256436  0.60505307  0.79822548  1
  Pd  Pd176  1  -0.00508028  0.00184799  0.79684766  1
  Pd  Pd177  1  0.59674120  0.58781696  0.40581616  1
  Pd  Pd178  1  -0.00016026  0.19674340  0.39899248  1
  Pd  Pd179  1  -0.00913917  0.39353239  0.20442235  1
  Pd  Pd180  1  0.40138499  0.20893918  0.01047437  1
  Pd  Pd181  1  0.59235346  0.40520348  0.60457226  1
  Pd  Pd182  1  0.00562176  0.40615162  -0.00088322  1
  Pd  Pd183  1  0.80574697  0.00806205  0.80037649  1
  Pd  Pd184  1  0.59733879  0.19614617  0.40003547  1
  Pd  Pd185  1  0.39882488  0.00172759  -0.00419991  1
  Pd  Pd186  1  0.40321029  0.59439890  0.60346284  1
  Pd  Pd187  1  0.39889727  0.19731803  0.79069109  1
  Pd  Pd188  1  -0.00026414  0.00182621  0.20810509  1
  Pd  Pd189  1  0.80596160  -0.00964565  -0.01033151  1
  Pd  Pd190  1  0.79309281  0.40716160  0.39243733  1
  Pd  Pd191  1  0.60555874  0.79069879  0.40339948  1
  Pd  Pd192  1  0.80617128  -0.00004410  0.40643287  1
  Pd  Pd193  1  0.00565095  0.41126315  0.60442198  1
  Pd  Pd194  1  0.40006911  0.79467342  0.59290155  1
  Pd  Pd195  1  0.79472561  0.19939144  -0.00666035  1
  Pd  Pd196  1  0.79828863  -0.00782884  0.19987091  1
  Pd  Pd197  1  0.19886553  0.20227647  0.80158445  1
  Pd  Pd198  1  0.79248887  0.79509551  0.59673170  1
  Pd  Pd199  1  0.39229754  0.60153281  0.79945376  1
  Rh  Rh200  1  0.59825191  0.00486410  0.00441168  1
  Rh  Rh201  1  0.20121973  0.39673644  0.40834032  1
  Rh  Rh202  1  -0.00196741  0.59374551  0.78877096  1
  Rh  Rh203  1  0.20009884  -0.00408170  0.79571707  1
  Rh  Rh204  1  0.00364451  0.20164853  0.60328604  1
  Rh  Rh205  1  -0.01032397  -0.00167188  -0.01094038  1
  Rh  Rh206  1  0.59282872  0.61043353  0.19370330  1
  Rh  Rh207  1  0.40000027  0.59609185  -0.00120456  1
  Rh  Rh208  1  0.20325830  0.39814448  0.59704555  1
  Rh  Rh209  1  0.59503669  0.40131571  -0.00915128  1
  Rh  Rh210  1  0.61373648  0.38758125  0.21578527  1
  Rh  Rh211  1  0.60222104  -0.00755188  0.60612328  1
  Rh  Rh212  1  0.39723717  0.19610438  0.60234316  1
  Rh  Rh213  1  -0.01240450  0.78535913  0.00435539  1
  Rh  Rh214  1  -0.00476608  0.80342226  0.38973294  1
  Rh  Rh215  1  0.60363446  0.59182756  0.80417846  1
  Rh  Rh216  1  0.79871458  0.80445739  0.19350165  1
  Rh  Rh217  1  0.80468758  0.20740203  0.19300609  1
  Rh  Rh218  1  0.40169533  0.59055390  0.39495112  1
  Rh  Rh219  1  0.81351824  0.60277751  0.60152692  1
  Rh  Rh220  1  0.40470182  0.39559755  0.79189896  1
  Rh  Rh221  1  0.21028316  0.20460859  0.41096822  1
  Rh  Rh222  1  0.79941619  0.39989985  0.60440269  1
  Rh  Rh223  1  0.00185728  0.00243818  0.59378538  1
  Rh  Rh224  1  0.00194513  0.40900401  0.79430972  1
  Rh  Rh225  1  0.80445684  0.58428442  0.20566831  1
  Rh  Rh226  1  0.20016285  0.39791555  0.80643284  1
  Rh  Rh227  1  0.80257707  0.80073768  0.80494048  1
  Rh  Rh228  1  0.80784608  0.40859768  0.00682970  1
  Rh  Rh229  1  0.39247015  0.79400413  0.40739672  1
  Rh  Rh230  1  0.40432751  0.40239004  0.60711347  1
  Rh  Rh231  1  0.19813800  0.60482126  0.59922519  1
  Rh  Rh232  1  0.39840512  -0.00061871  0.19775551  1
  Rh  Rh233  1  0.38828893  0.79399450  0.80613546  1
  Rh  Rh234  1  -0.00071538  0.60731152  0.19382378  1
  Rh  Rh235  1  0.79737443  0.19537527  0.41581970  1
  Rh  Rh236  1  0.60643866  0.19513575  0.59998621  1
  Rh  Rh237  1  0.39999472  0.80062072  0.19589430  1
  Rh  Rh238  1  0.19929824  -0.00808338  0.59378015  1
  Rh  Rh239  1  0.79341986  0.39843517  0.79349354  1
  Rh  Rh240  1  0.59489882  -0.00291371  0.79171046  1
  Rh  Rh241  1  0.20680094  0.41487403  0.19508867  1
  Rh  Rh242  1  0.20306878  0.20938140  0.60336798  1
  Rh  Rh243  1  0.39758581  0.00638738  0.60626226  1
  Rh  Rh244  1  0.00557361  0.80044357  0.79247925  1
  Rh  Rh245  1  0.18381588  0.18821980  0.18558122  1
  Rh  Rh246  1  0.79680050  0.00178388  0.59645439  1
  Rh  Rh247  1  0.80658852  0.59800896  0.79875531  1
  Rh  Rh248  1  0.20689183  0.00738168  0.00650767  1
  Rh  Rh249  1  -0.00007007  0.59315266  0.40928634  1
