# generated using pymatgen
data_ZrScNbPdRh
_symmetry_space_group_name_H-M   'P 1'
_cell_length_a   16.56114159
_cell_length_b   16.56207124
_cell_length_c   16.56039048
_cell_angle_alpha   90.04374086
_cell_angle_beta   90.03077079
_cell_angle_gamma   90.01060581
_symmetry_Int_Tables_number   1
_chemical_formula_structural   ZrScNbPdRh
_chemical_formula_sum   'Zr50 Sc50 Nb50 Pd50 Rh50'
_cell_volume   4542.29456921
_cell_formula_units_Z   50
loop_
 _symmetry_equiv_pos_site_id
 _symmetry_equiv_pos_as_xyz
  1  'x, y, z'
loop_
 _atom_site_type_symbol
 _atom_site_label
 _atom_site_symmetry_multiplicity
 _atom_site_fract_x
 _atom_site_fract_y
 _atom_site_fract_z
 _atom_site_occupancy
  Zr  Zr0  1  0.89977824  0.70703930  0.29783300  1
  Zr  Zr1  1  0.09685496  0.50135894  0.70168587  1
  Zr  Zr2  1  0.29415632  0.29124136  0.69972578  1
  Zr  Zr3  1  0.90438483  0.50590682  0.90799174  1
  Zr  Zr4  1  0.49980495  0.29514710  0.70742485  1
  Zr  Zr5  1  0.89896883  0.30218381  0.70172217  1
  Zr  Zr6  1  0.50048568  0.50873859  0.90315993  1
  Zr  Zr7  1  0.89830236  0.09812072  0.70044156  1
  Zr  Zr8  1  0.70516008  0.29407700  0.50629677  1
  Zr  Zr9  1  0.90318347  0.29826304  0.50059040  1
  Zr  Zr10  1  0.30153261  0.09539784  0.70302239  1
  Zr  Zr11  1  0.69363154  0.30108464  0.90158347  1
  Zr  Zr12  1  0.50217242  0.90128159  0.69490419  1
  Zr  Zr13  1  0.48687867  0.09961711  0.29777379  1
  Zr  Zr14  1  0.70085015  0.69827531  0.29162380  1
  Zr  Zr15  1  0.90647035  0.30568027  0.91027183  1
  Zr  Zr16  1  0.30455451  0.89932921  0.08914652  1
  Zr  Zr17  1  0.30195574  0.70274876  0.50745780  1
  Zr  Zr18  1  0.50534031  0.90001651  0.29939366  1
  Zr  Zr19  1  0.49762375  0.09612267  0.70628259  1
  Zr  Zr20  1  0.29326196  0.09388366  0.50027494  1
  Zr  Zr21  1  0.70323740  0.30389989  0.70674871  1
  Zr  Zr22  1  0.90044581  0.89302544  0.69303014  1
  Zr  Zr23  1  0.09960738  0.29489193  0.89954176  1
  Zr  Zr24  1  0.89385820  0.89374710  0.88592863  1
  Zr  Zr25  1  0.30020506  0.89358765  0.89988513  1
  Zr  Zr26  1  0.30542340  0.50597636  0.49498050  1
  Zr  Zr27  1  0.09751834  0.29543023  0.30127081  1
  Zr  Zr28  1  0.30207633  0.30414482  0.50319780  1
  Zr  Zr29  1  0.09673841  0.50181224  0.90268951  1
  Zr  Zr30  1  0.68537607  0.90810800  0.49435265  1
  Zr  Zr31  1  0.69584953  0.69669040  0.89943188  1
  Zr  Zr32  1  0.10535612  0.10277474  0.90734923  1
  Zr  Zr33  1  0.89509306  0.50772640  0.29258462  1
  Zr  Zr34  1  0.10160460  0.90055618  0.90260266  1
  Zr  Zr35  1  0.69331390  0.50002941  0.90602617  1
  Zr  Zr36  1  0.30427025  0.51285988  0.90810050  1
  Zr  Zr37  1  0.30545657  0.69453502  0.29074493  1
  Zr  Zr38  1  0.69434826  0.70843232  0.49727392  1
  Zr  Zr39  1  0.29796276  0.09531908  0.30241754  1
  Zr  Zr40  1  0.10440354  0.50679331  0.29034518  1
  Zr  Zr41  1  0.29604369  0.89404976  0.69866713  1
  Zr  Zr42  1  0.11247134  0.10061596  0.69574677  1
  Zr  Zr43  1  0.70229268  0.89428058  0.29047260  1
  Zr  Zr44  1  0.69303262  0.30803170  0.09887639  1
  Zr  Zr45  1  0.51395077  0.08392219  0.50588174  1
  Zr  Zr46  1  0.90228473  0.49938715  0.69355470  1
  Zr  Zr47  1  0.30346449  0.51228443  0.10174675  1
  Zr  Zr48  1  0.89813280  0.90049280  0.10682172  1
  Zr  Zr49  1  0.89568575  0.70263508  0.50425385  1
  Sc  Sc50  1  0.30450204  0.89900655  0.30183207  1
  Sc  Sc51  1  0.69334768  0.11267268  0.69844626  1
  Sc  Sc52  1  0.89956457  0.90059067  0.29783815  1
  Sc  Sc53  1  0.30210567  0.50479790  0.68528642  1
  Sc  Sc54  1  0.30105270  0.70254294  0.09110952  1
  Sc  Sc55  1  0.90425660  0.09935398  0.30521166  1
  Sc  Sc56  1  0.30383049  0.09353324  0.90191866  1
  Sc  Sc57  1  0.69003894  0.10080816  0.89874250  1
  Sc  Sc58  1  0.10162831  0.89432077  0.50236207  1
  Sc  Sc59  1  0.50090181  0.50431425  0.30270633  1
  Sc  Sc60  1  0.49817479  0.30994976  0.49557970  1
  Sc  Sc61  1  0.49664101  0.10029771  0.90276132  1
  Sc  Sc62  1  0.70205077  0.89363854  0.70664789  1
  Sc  Sc63  1  0.69700424  0.70418982  0.69446708  1
  Sc  Sc64  1  0.50453345  0.50130361  0.09802276  1
  Sc  Sc65  1  0.30113240  0.09996675  0.10147983  1
  Sc  Sc66  1  0.09509080  0.70344523  0.69490017  1
  Sc  Sc67  1  0.50071982  0.50995718  0.70667210  1
  Sc  Sc68  1  0.10241221  0.29893279  0.50501602  1
  Sc  Sc69  1  0.90261311  0.09841864  0.10837620  1
  Sc  Sc70  1  0.50174349  0.70485550  0.70051879  1
  Sc  Sc71  1  0.10239649  0.90024343  0.10155459  1
  Sc  Sc72  1  0.09324771  0.69526452  0.89790575  1
  Sc  Sc73  1  0.10267046  0.50452825  0.51272346  1
  Sc  Sc74  1  0.49993027  0.29367172  0.91141697  1
  Sc  Sc75  1  0.90003768  0.70816078  0.70178740  1
  Sc  Sc76  1  0.49927937  0.50686755  0.49503799  1
  Sc  Sc77  1  0.69027664  0.50439082  0.29748604  1
  Sc  Sc78  1  0.10191478  0.09336327  0.09694313  1
  Sc  Sc79  1  0.30779595  0.28313993  0.30351537  1
  Sc  Sc80  1  0.69317129  0.09438646  0.10044598  1
  Sc  Sc81  1  0.50306272  0.69837590  0.29984169  1
  Sc  Sc82  1  0.88945766  0.68593734  0.10444724  1
  Sc  Sc83  1  0.30585720  0.28418965  0.90604523  1
  Sc  Sc84  1  0.69838583  0.50430706  0.09803949  1
  Sc  Sc85  1  0.49793808  0.89042256  0.49912958  1
  Sc  Sc86  1  0.49811374  0.69720907  0.89251538  1
  Sc  Sc87  1  0.69739019  0.30997716  0.29648968  1
  Sc  Sc88  1  0.10186500  0.51210089  0.09426375  1
  Sc  Sc89  1  0.89904300  0.29071871  0.29532082  1
  Sc  Sc90  1  0.10230571  0.09865996  0.30049339  1
  Sc  Sc91  1  0.70093933  0.51344279  0.50077524  1
  Sc  Sc92  1  0.70919658  0.09245979  0.30441699  1
  Sc  Sc93  1  0.09865596  0.09365761  0.49639985  1
  Sc  Sc94  1  0.90453148  0.10286398  0.90123133  1
  Sc  Sc95  1  0.09427992  0.88672737  0.29948951  1
  Sc  Sc96  1  0.50015533  0.90793683  0.89793076  1
  Sc  Sc97  1  0.09744243  0.28602930  0.09090967  1
  Sc  Sc98  1  0.90708154  0.89767376  0.49841314  1
  Sc  Sc99  1  0.49830902  0.69911259  0.10673950  1
  Nb  Nb100  1  0.70123742  0.49882552  0.70762643  1
  Nb  Nb101  1  0.50383470  0.70177728  0.49792459  1
  Nb  Nb102  1  0.69992637  0.89652418  0.90276107  1
  Nb  Nb103  1  0.09979825  0.70145245  0.48908693  1
  Nb  Nb104  1  0.30191624  0.70013582  0.70618904  1
  Nb  Nb105  1  0.69891023  0.89924118  0.10065474  1
  Nb  Nb106  1  0.69671050  0.70279251  0.09977525  1
  Nb  Nb107  1  0.10032859  0.70546630  0.10941991  1
  Nb  Nb108  1  0.89711021  0.69943738  0.89745447  1
  Nb  Nb109  1  0.89464156  0.10643618  0.49902901  1
  Nb  Nb110  1  0.10216994  0.29816555  0.70183249  1
  Nb  Nb111  1  0.50060763  0.09866214  0.09646632  1
  Nb  Nb112  1  0.49639094  0.29412086  0.10316555  1
  Nb  Nb113  1  0.89688578  0.48809508  0.09183319  1
  Nb  Nb114  1  0.90539286  0.49928933  0.49911884  1
  Nb  Nb115  1  0.89511537  0.30480290  0.09882865  1
  Nb  Nb116  1  0.50341515  0.30029127  0.29726264  1
  Nb  Nb117  1  0.70363143  0.10166588  0.50028525  1
  Nb  Nb118  1  0.30046292  0.50211947  0.29639791  1
  Nb  Nb119  1  0.51057510  0.91083968  0.09927325  1
  Nb  Nb120  1  0.29973297  0.89452694  0.50378521  1
  Nb  Nb121  1  0.09395300  0.90144743  0.70041307  1
  Nb  Nb122  1  0.30183667  0.70014376  0.89417735  1
  Nb  Nb123  1  0.30510265  0.30052420  0.09942133  1
  Nb  Nb124  1  0.09785164  0.70027526  0.29610363  1
  Nb  Nb125  1  0.79640384  0.79948025  0.00043961  1
  Nb  Nb126  1  0.20047702  0.40638491  0.39246340  1
  Nb  Nb127  1  0.19721064  0.60390654  0.39676818  1
  Nb  Nb128  1  0.59905374  0.19838118  0.39697518  1
  Nb  Nb129  1  0.60424184  0.80644185  0.00409984  1
  Nb  Nb130  1  0.60585018  0.40434193  0.60779978  1
  Nb  Nb131  1  0.80109285  0.59725472  0.80100949  1
  Nb  Nb132  1  0.39785020  0.39508781  0.19978983  1
  Nb  Nb133  1  0.39214999  0.40221163  0.80465935  1
  Nb  Nb134  1  0.20607401  0.39836704  0.00139134  1
  Nb  Nb135  1  0.20570474  0.60119990  0.79744521  1
  Nb  Nb136  1  0.59128700  0.20045158  0.20312518  1
  Nb  Nb137  1  0.00268877  0.60193497  0.39977203  1
  Nb  Nb138  1  0.79765044  0.00635325  0.59360260  1
  Nb  Nb139  1  0.00073533  0.40853434  0.39640108  1
  Nb  Nb140  1  0.00044795  0.39988825  0.19493084  1
  Nb  Nb141  1  -0.00926161  0.79588778  0.00201594  1
  Nb  Nb142  1  0.79876263  0.20130396  0.00532548  1
  Nb  Nb143  1  0.00546599  -0.00269904  0.79509608  1
  Nb  Nb144  1  0.40071470  0.19482549  0.59833979  1
  Nb  Nb145  1  -0.00057937  0.19878547  0.60373323  1
  Nb  Nb146  1  0.79500557  -0.00569153  -0.00202423  1
  Nb  Nb147  1  0.80760322  0.40555326  0.40304124  1
  Nb  Nb148  1  0.20536910  0.40275755  0.80509381  1
  Nb  Nb149  1  0.20450768  0.39527433  0.19640829  1
  Pd  Pd150  1  0.19412871  -0.01319388  0.39744758  1
  Pd  Pd151  1  0.19453378  0.79639338  0.60232056  1
  Pd  Pd152  1  0.60425935  -0.00031784  0.79814596  1
  Pd  Pd153  1  0.80160377  0.59874349  0.39927953  1
  Pd  Pd154  1  0.19889835  -0.00864454  0.20178472  1
  Pd  Pd155  1  0.79665902  0.00681734  0.79919917  1
  Pd  Pd156  1  0.79356331  0.20764976  0.39046487  1
  Pd  Pd157  1  0.78891239  0.19516516  0.19529572  1
  Pd  Pd158  1  0.00114511  -0.00194905  0.39835398  1
  Pd  Pd159  1  0.79886141  0.80930898  0.40375550  1
  Pd  Pd160  1  0.20113657  0.20079654  0.19553043  1
  Pd  Pd161  1  0.39588371  -0.00236965  0.59618163  1
  Pd  Pd162  1  0.79922946  0.19736754  0.81194622  1
  Pd  Pd163  1  0.79842701  0.60221325  0.60713042  1
  Pd  Pd164  1  0.19727476  0.40151180  0.60078113  1
  Pd  Pd165  1  -0.00332159  0.00509850  0.59906589  1
  Pd  Pd166  1  0.40171813  0.79506721  0.39910876  1
  Pd  Pd167  1  0.39606732  -0.00612562  0.19331165  1
  Pd  Pd168  1  0.20719177  0.80390748  0.20001558  1
  Pd  Pd169  1  -0.00060773  0.61100013  0.00988827  1
  Pd  Pd170  1  0.00440627  0.19239909  0.79435578  1
  Pd  Pd171  1  0.00309417  0.40070741  0.80031179  1
  Pd  Pd172  1  -0.00948940  -0.00697971  -0.00675248  1
  Pd  Pd173  1  -0.00469443  0.59794696  0.19340637  1
  Pd  Pd174  1  0.40475368  0.80608038  0.19458601  1
  Pd  Pd175  1  0.61020942  0.39975979  0.41016391  1
  Pd  Pd176  1  0.40841543  0.80480800  0.79989329  1
  Pd  Pd177  1  0.79377784  0.40781035  0.59248084  1
  Pd  Pd178  1  0.59803480  0.59721680  0.60278751  1
  Pd  Pd179  1  0.00032359  0.60937714  0.59771356  1
  Pd  Pd180  1  0.00120057  0.20013029  0.19545578  1
  Pd  Pd181  1  0.80623926  0.40789123  0.81111485  1
  Pd  Pd182  1  0.19113585  0.79113707  0.79949397  1
  Pd  Pd183  1  0.19931657  -0.00124877  0.80330097  1
  Pd  Pd184  1  0.41565692  0.79785526  -0.00206605  1
  Pd  Pd185  1  0.80020524  0.40444997  0.20491740  1
  Pd  Pd186  1  0.00651224  -0.00148447  0.20846421  1
  Pd  Pd187  1  0.58790044  0.40162987  0.80171035  1
  Pd  Pd188  1  0.40013867  -0.00771756  0.40866404  1
  Pd  Pd189  1  0.39546037  0.40177980  0.38815369  1
  Pd  Pd190  1  0.40992450  0.19516968  0.41400181  1
  Pd  Pd191  1  0.40020301  0.39941771  0.00008113  1
  Pd  Pd192  1  0.41165322  0.39870713  0.60969588  1
  Pd  Pd193  1  0.60287705  0.00890225  0.20748385  1
  Pd  Pd194  1  0.80672398  -0.00693637  0.40501916  1
  Pd  Pd195  1  0.59020791  0.20824082  0.59296810  1
  Pd  Pd196  1  0.20606335  0.79767864  0.39511130  1
  Pd  Pd197  1  0.40999173  0.60774184  0.60147444  1
  Pd  Pd198  1  0.19004358  0.79095632  -0.00180024  1
  Pd  Pd199  1  0.19643571  0.20399488  0.40518893  1
  Rh  Rh200  1  0.59437891  0.19935180  0.80798008  1
  Rh  Rh201  1  0.20638582  0.19854472  0.00314605  1
  Rh  Rh202  1  0.19945214  0.19895439  0.59275720  1
  Rh  Rh203  1  0.40238506  0.00101842  0.00104725  1
  Rh  Rh204  1  0.60253089  -0.00183474  -0.00361991  1
  Rh  Rh205  1  0.60055577  0.00627241  0.38860926  1
  Rh  Rh206  1  0.39226282  0.59661234  0.79393211  1
  Rh  Rh207  1  0.40827124  0.61280544  0.00256419  1
  Rh  Rh208  1  0.58915561  0.39947552  0.19413223  1
  Rh  Rh209  1  0.60272993  0.19611559  0.00886736  1
  Rh  Rh210  1  0.40118186  0.79742378  0.60241068  1
  Rh  Rh211  1  0.79268490  0.59306247  0.19310788  1
  Rh  Rh212  1  0.79221649  0.81321556  0.59169317  1
  Rh  Rh213  1  0.59506461  0.79859109  0.19569367  1
  Rh  Rh214  1  0.59545703  0.61063112  0.00493957  1
  Rh  Rh215  1  0.80255501  0.79763745  0.19451607  1
  Rh  Rh216  1  0.01365678  0.39904750  0.01167486  1
  Rh  Rh217  1  0.80086123  0.00404458  0.19631285  1
  Rh  Rh218  1  0.00451796  0.79679579  0.59448064  1
  Rh  Rh219  1  0.39955536  0.20150260  0.79807938  1
  Rh  Rh220  1  0.19587837  0.60888744  -0.00466502  1
  Rh  Rh221  1  0.19906907  0.61022297  0.60086570  1
  Rh  Rh222  1  0.00631557  0.80334961  0.80526395  1
  Rh  Rh223  1  -0.00529239  0.60265577  0.79261181  1
  Rh  Rh224  1  0.20311445  0.60799865  0.19652794  1
  Rh  Rh225  1  0.79702566  0.60082608  -0.00269233  1
  Rh  Rh226  1  -0.00299855  0.79492425  0.40025496  1
  Rh  Rh227  1  -0.01194306  0.19418608  0.00832268  1
  Rh  Rh228  1  0.39782082  0.60775369  0.39852574  1
  Rh  Rh229  1  0.59857983  0.60601822  0.40035013  1
  Rh  Rh230  1  0.39542901  -0.00824815  0.80235386  1
  Rh  Rh231  1  0.20593370  -0.00027556  0.00297325  1
  Rh  Rh232  1  0.40166942  0.19992665  0.19482398  1
  Rh  Rh233  1  0.20226909  -0.01150550  0.59631639  1
  Rh  Rh234  1  0.59958698  0.60022531  0.19871040  1
  Rh  Rh235  1  -0.00506349  0.79673605  0.19152670  1
  Rh  Rh236  1  0.61394834  -0.00321389  0.61224275  1
  Rh  Rh237  1  0.00314136  0.19917027  0.40767897  1
  Rh  Rh238  1  0.20187368  0.20153389  0.80734791  1
  Rh  Rh239  1  0.59739464  0.80217547  0.59938051  1
  Rh  Rh240  1  0.80666584  0.19430496  0.60629852  1
  Rh  Rh241  1  0.59195142  0.40089188  0.00278872  1
  Rh  Rh242  1  0.00515290  0.39031028  0.59872634  1
  Rh  Rh243  1  0.59898238  0.79658986  0.39148925  1
  Rh  Rh244  1  0.39982965  0.18971944  0.00623134  1
  Rh  Rh245  1  0.40808782  0.59362207  0.20046774  1
  Rh  Rh246  1  0.59586555  0.80121551  0.80452402  1
  Rh  Rh247  1  0.60860355  0.60419273  0.79366841  1
  Rh  Rh248  1  0.79355012  0.39667488  -0.00348667  1
  Rh  Rh249  1  0.79243631  0.78645557  0.80113569  1
