# generated using pymatgen
data_ZrScNbPdRh
_symmetry_space_group_name_H-M   'P 1'
_cell_length_a   16.56017542
_cell_length_b   16.55203191
_cell_length_c   16.55542251
_cell_angle_alpha   89.99007038
_cell_angle_beta   90.01380210
_cell_angle_gamma   89.99785016
_symmetry_Int_Tables_number   1
_chemical_formula_structural   ZrScNbPdRh
_chemical_formula_sum   'Zr50 Sc50 Nb50 Pd50 Rh50'
_cell_volume   4537.91646599
_cell_formula_units_Z   50
loop_
 _symmetry_equiv_pos_site_id
 _symmetry_equiv_pos_as_xyz
  1  'x, y, z'
loop_
 _atom_site_type_symbol
 _atom_site_label
 _atom_site_symmetry_multiplicity
 _atom_site_fract_x
 _atom_site_fract_y
 _atom_site_fract_z
 _atom_site_occupancy
  Zr  Zr0  1  0.69306355  0.10764180  0.31291255  1
  Zr  Zr1  1  0.29898918  0.30064713  0.30341026  1
  Zr  Zr2  1  0.10911452  0.50034509  0.09543350  1
  Zr  Zr3  1  0.69984849  0.50362396  0.30108235  1
  Zr  Zr4  1  0.29059772  0.50351376  0.90665378  1
  Zr  Zr5  1  0.69607005  0.70336866  0.69816920  1
  Zr  Zr6  1  0.30199260  0.89406713  0.89814572  1
  Zr  Zr7  1  0.29301604  0.28956715  0.09304491  1
  Zr  Zr8  1  0.49490556  0.09529983  0.30011002  1
  Zr  Zr9  1  0.50048876  0.49908793  0.50464148  1
  Zr  Zr10  1  0.10211602  0.09843079  0.50813835  1
  Zr  Zr11  1  0.89772157  0.70235313  0.30124324  1
  Zr  Zr12  1  0.89760700  0.28996334  0.09050751  1
  Zr  Zr13  1  0.90392631  0.49068133  0.09667134  1
  Zr  Zr14  1  0.70028523  0.89987686  0.89466869  1
  Zr  Zr15  1  0.89785115  0.29077903  0.30531629  1
  Zr  Zr16  1  0.50125694  0.70531243  0.10496223  1
  Zr  Zr17  1  0.09636835  0.30598371  0.09876937  1
  Zr  Zr18  1  0.49556064  0.90273277  0.10091341  1
  Zr  Zr19  1  0.29792905  0.90783827  0.09494502  1
  Zr  Zr20  1  0.10135139  0.29883596  0.30520795  1
  Zr  Zr21  1  0.10593687  0.89309949  0.28887380  1
  Zr  Zr22  1  0.30388718  0.69755884  0.70093336  1
  Zr  Zr23  1  0.70212913  0.91297175  0.29859799  1
  Zr  Zr24  1  0.50537147  0.30037298  0.09463960  1
  Zr  Zr25  1  0.70093865  0.49480829  0.09600814  1
  Zr  Zr26  1  0.09601825  0.89858355  0.09675261  1
  Zr  Zr27  1  0.70398621  0.70744004  0.89793755  1
  Zr  Zr28  1  0.89604881  0.29974460  0.89259097  1
  Zr  Zr29  1  0.71482397  0.09771918  0.09697076  1
  Zr  Zr30  1  0.10330382  0.49989210  0.28671932  1
  Zr  Zr31  1  0.89855741  0.10451506  0.90516724  1
  Zr  Zr32  1  0.70119867  0.90852561  0.69896621  1
  Zr  Zr33  1  0.88585509  0.08817550  0.29581567  1
  Zr  Zr34  1  0.49709899  0.70166107  0.50645121  1
  Zr  Zr35  1  0.30833660  0.50049104  0.50050911  1
  Zr  Zr36  1  0.30072577  0.09924531  0.29629730  1
  Zr  Zr37  1  0.50679994  0.28948463  0.30055714  1
  Zr  Zr38  1  0.29523226  0.70832026  0.50433531  1
  Zr  Zr39  1  0.90249764  0.70506185  0.89804396  1
  Zr  Zr40  1  0.50247396  0.70100464  0.29749146  1
  Zr  Zr41  1  0.10336070  0.50658767  0.70894441  1
  Zr  Zr42  1  0.90057372  0.29696122  0.50648210  1
  Zr  Zr43  1  0.89559814  0.69953689  0.50065810  1
  Zr  Zr44  1  0.49445910  0.70313923  0.89397466  1
  Zr  Zr45  1  0.10391657  0.08831287  0.10231846  1
  Zr  Zr46  1  0.10057154  0.49807038  0.89801401  1
  Zr  Zr47  1  0.31063046  0.29086015  0.69887412  1
  Zr  Zr48  1  0.09618000  0.89865476  0.90110450  1
  Zr  Zr49  1  0.29897898  0.49860795  0.29885669  1
  Sc  Sc50  1  0.48911387  0.30524718  0.50893666  1
  Sc  Sc51  1  0.30326303  0.69035048  0.09492567  1
  Sc  Sc52  1  0.29863012  0.10777314  0.50501212  1
  Sc  Sc53  1  0.09784671  0.09843710  0.89413637  1
  Sc  Sc54  1  0.70560318  0.70804976  0.29402655  1
  Sc  Sc55  1  0.30361400  0.70177226  0.89990248  1
  Sc  Sc56  1  0.89731757  0.50768898  0.29603121  1
  Sc  Sc57  1  0.11786619  0.49413947  0.50703593  1
  Sc  Sc58  1  0.49992608  0.50611805  0.69459155  1
  Sc  Sc59  1  0.10015432  0.70329106  0.10739666  1
  Sc  Sc60  1  0.89307284  0.89690236  0.29621436  1
  Sc  Sc61  1  0.89802665  0.49406009  0.89749360  1
  Sc  Sc62  1  0.50290878  0.69908862  0.69924782  1
  Sc  Sc63  1  0.69543518  0.90850768  0.50154969  1
  Sc  Sc64  1  0.49903872  0.10261271  0.69351312  1
  Sc  Sc65  1  0.49781649  0.10051449  0.49481396  1
  Sc  Sc66  1  0.90686733  0.70232705  0.70723785  1
  Sc  Sc67  1  0.69359199  0.29837335  0.09062105  1
  Sc  Sc68  1  0.89483637  0.70709443  0.10051060  1
  Sc  Sc69  1  0.50458132  0.50421487  0.10596355  1
  Sc  Sc70  1  0.69461057  0.89560692  0.09672718  1
  Sc  Sc71  1  0.49923579  0.29821827  0.90217171  1
  Sc  Sc72  1  0.49698419  0.10203157  0.09379930  1
  Sc  Sc73  1  0.10485357  0.29213636  0.50186256  1
  Sc  Sc74  1  0.88859495  0.49800369  0.70062169  1
  Sc  Sc75  1  0.49898597  0.89680821  0.49589236  1
  Sc  Sc76  1  0.10239838  0.29821829  0.70793907  1
  Sc  Sc77  1  0.70396472  0.09235566  0.89695853  1
  Sc  Sc78  1  0.50241958  0.90157163  0.29567228  1
  Sc  Sc79  1  0.30120485  0.70339977  0.29575142  1
  Sc  Sc80  1  0.50906979  0.89907159  0.69554231  1
  Sc  Sc81  1  0.70355624  0.69798169  0.50188445  1
  Sc  Sc82  1  0.49986378  0.90061965  0.90317921  1
  Sc  Sc83  1  0.29496936  0.49633013  0.70181920  1
  Sc  Sc84  1  0.10564243  0.09499677  0.69995781  1
  Sc  Sc85  1  0.90297752  0.09665909  0.50184629  1
  Sc  Sc86  1  0.10378841  0.89811185  0.51615302  1
  Sc  Sc87  1  0.29492816  0.10547698  0.90283145  1
  Sc  Sc88  1  0.71046129  0.31392787  0.69744119  1
  Sc  Sc89  1  0.10149113  0.69638719  0.70400902  1
  Sc  Sc90  1  0.29842735  0.30799391  0.50186669  1
  Sc  Sc91  1  0.28794021  0.89691298  0.70215689  1
  Sc  Sc92  1  0.49355300  0.49996286  0.30070574  1
  Sc  Sc93  1  0.49997979  0.50473060  0.89598143  1
  Sc  Sc94  1  0.90479559  0.89710738  0.89512186  1
  Sc  Sc95  1  0.29366764  0.29875628  0.89391135  1
  Sc  Sc96  1  0.30759915  0.90109205  0.29947956  1
  Sc  Sc97  1  0.09429392  0.90902631  0.70576055  1
  Sc  Sc98  1  0.70281721  0.49433142  0.90275185  1
  Sc  Sc99  1  0.09899160  0.69834750  0.89634520  1
  Nb  Nb100  1  0.69572144  0.10181975  0.50723272  1
  Nb  Nb101  1  0.09785695  0.30299810  0.90519122  1
  Nb  Nb102  1  0.29704131  0.09961685  0.10005641  1
  Nb  Nb103  1  0.69692317  0.09449687  0.69599430  1
  Nb  Nb104  1  0.69703721  0.69916754  0.09450086  1
  Nb  Nb105  1  0.91610095  0.90905845  0.10122857  1
  Nb  Nb106  1  0.90836978  0.90046161  0.50200647  1
  Nb  Nb107  1  0.30053509  0.09684324  0.69978395  1
  Nb  Nb108  1  0.10028349  0.70047328  0.30303626  1
  Nb  Nb109  1  0.10188840  0.69915042  0.49849257  1
  Nb  Nb110  1  0.70472663  0.49952625  0.51363319  1
  Nb  Nb111  1  0.50449006  0.09540917  0.89057227  1
  Nb  Nb112  1  0.89862936  0.09775993  0.70479348  1
  Nb  Nb113  1  0.29581521  0.49679662  0.10288135  1
  Nb  Nb114  1  0.09975727  0.09442753  0.30154810  1
  Nb  Nb115  1  0.69714737  0.30453684  0.89739221  1
  Nb  Nb116  1  0.69943202  0.30028512  0.50178961  1
  Nb  Nb117  1  0.90468172  0.90407438  0.69592005  1
  Nb  Nb118  1  0.69482806  0.50705007  0.69425841  1
  Nb  Nb119  1  0.89253555  0.50496912  0.50101426  1
  Nb  Nb120  1  0.69975091  0.29900469  0.30813876  1
  Nb  Nb121  1  0.50281270  0.30199106  0.70042470  1
  Nb  Nb122  1  0.29633100  0.90235125  0.49810550  1
  Nb  Nb123  1  0.90439382  0.09448911  0.10090209  1
  Nb  Nb124  1  0.89722624  0.29936978  0.70137796  1
  Nb  Nb125  1  -0.00050676  0.59735802  0.00000643  1
  Nb  Nb126  1  0.39630557  0.39336864  0.19312649  1
  Nb  Nb127  1  -0.00380338  0.40311686  0.59991095  1
  Nb  Nb128  1  0.19665722  -0.00286209  0.40078955  1
  Nb  Nb129  1  0.60620952  0.20428262  0.60281096  1
  Nb  Nb130  1  0.39823555  0.00341961  0.79549649  1
  Nb  Nb131  1  0.79552722  0.39168610  0.20649781  1
  Nb  Nb132  1  -0.00123039  0.18888527  0.19983319  1
  Nb  Nb133  1  -0.00012052  0.59321132  0.59287477  1
  Nb  Nb134  1  0.60681628  0.39972990  0.40769669  1
  Nb  Nb135  1  0.39221657  -0.00104746  0.60211536  1
  Nb  Nb136  1  0.79744523  0.40064891  0.40458623  1
  Nb  Nb137  1  0.60462281  0.60810897  -0.00010040  1
  Nb  Nb138  1  0.00675337  0.59957255  0.40424676  1
  Nb  Nb139  1  0.00611944  0.79891387  0.40312896  1
  Nb  Nb140  1  0.60103395  0.39725759  0.79445142  1
  Nb  Nb141  1  0.79242929  0.60235569  0.79946262  1
  Nb  Nb142  1  0.00568937  -0.00742965  0.39917298  1
  Nb  Nb143  1  0.80731247  0.80974044  0.60298017  1
  Nb  Nb144  1  -0.00374099  0.41041440  0.40776915  1
  Nb  Nb145  1  0.19611389  0.60613945  0.39905496  1
  Nb  Nb146  1  0.79650097  0.19496912  0.60720039  1
  Nb  Nb147  1  0.60540138  0.20314053  0.79363291  1
  Nb  Nb148  1  0.60230448  0.59581725  0.40450998  1
  Nb  Nb149  1  0.39527962  0.40270162  0.00592995  1
  Pd  Pd150  1  0.79807163  0.80805968  0.19016244  1
  Pd  Pd151  1  0.40036294  0.19948931  -0.00869748  1
  Pd  Pd152  1  0.20018985  0.79160255  0.00269179  1
  Pd  Pd153  1  -0.01053317  0.38982264  0.20776798  1
  Pd  Pd154  1  0.40142726  0.20057862  0.19443119  1
  Pd  Pd155  1  0.19092488  0.19970856  0.19890640  1
  Pd  Pd156  1  0.19570122  0.19840045  0.80005450  1
  Pd  Pd157  1  0.80747851  -0.00177500  0.80193645  1
  Pd  Pd158  1  0.00425902  0.19676957  0.79557610  1
  Pd  Pd159  1  0.59942837  0.39728581  0.20791721  1
  Pd  Pd160  1  0.79992617  0.19499232  0.41222800  1
  Pd  Pd161  1  0.39953526  0.00772058  -0.00993349  1
  Pd  Pd162  1  0.40062422  0.80168670  0.39715955  1
  Pd  Pd163  1  0.21015094  0.79694022  0.19235420  1
  Pd  Pd164  1  0.39793450  0.60923762  0.39946146  1
  Pd  Pd165  1  0.20449356  0.19395361  0.40396986  1
  Pd  Pd166  1  0.59433716  0.80503356  0.79914850  1
  Pd  Pd167  1  0.80799557  -0.01226284  0.00029802  1
  Pd  Pd168  1  0.39608497  0.59256490  0.79543405  1
  Pd  Pd169  1  0.19875076  0.00309329  -0.00947422  1
  Pd  Pd170  1  -0.00191195  0.20100211  0.61247480  1
  Pd  Pd171  1  0.80710453  0.81095063  0.00591866  1
  Pd  Pd172  1  0.60784734  0.19158618  0.19369558  1
  Pd  Pd173  1  0.40649279  0.19398905  0.80354742  1
  Pd  Pd174  1  -0.00348237  0.60708249  0.19416721  1
  Pd  Pd175  1  0.39779201  0.20348531  0.40903464  1
  Pd  Pd176  1  0.79849119  0.81125789  0.40867780  1
  Pd  Pd177  1  0.80641230  0.00100795  0.59489134  1
  Pd  Pd178  1  0.19383453  0.79686998  0.79797532  1
  Pd  Pd179  1  -0.00148026  0.40086776  0.79395694  1
  Pd  Pd180  1  0.19796532  0.39212464  0.60966745  1
  Pd  Pd181  1  0.80308145  0.59942906  -0.00518731  1
  Pd  Pd182  1  0.40821165  0.59421131  0.00450495  1
  Pd  Pd183  1  0.00100605  0.79190930  0.60267473  1
  Pd  Pd184  1  -0.00122229  0.18941159  0.39650406  1
  Pd  Pd185  1  0.59536435  -0.00017410  0.40514498  1
  Pd  Pd186  1  0.60658171  0.79542743  0.39891038  1
  Pd  Pd187  1  0.19386772  0.79928520  0.61061304  1
  Pd  Pd188  1  0.60133919  0.00905233  0.19444798  1
  Pd  Pd189  1  0.60119402  0.00346762  0.00119012  1
  Pd  Pd190  1  0.00857672  0.19267931  0.00357307  1
  Pd  Pd191  1  0.60418647  0.60345640  0.20130247  1
  Pd  Pd192  1  0.59382273  0.79825141  -0.00260984  1
  Pd  Pd193  1  0.79717979  0.20426802  0.19715883  1
  Pd  Pd194  1  0.39975294  0.81124466  0.60697905  1
  Pd  Pd195  1  0.39372677  0.80158143  0.19619075  1
  Pd  Pd196  1  0.40493929  0.40406716  0.80465727  1
  Pd  Pd197  1  0.60532401  0.18886789  -0.01139340  1
  Pd  Pd198  1  0.79072097  0.19888350  0.79556762  1
  Pd  Pd199  1  0.79955861  0.59654610  0.19202050  1
  Rh  Rh200  1  0.20366984  0.39401258  -0.00495371  1
  Rh  Rh201  1  0.39671627  0.40402322  0.61044102  1
  Rh  Rh202  1  0.39586032  0.59252581  0.19809226  1
  Rh  Rh203  1  0.20544836  0.60660191  0.20414557  1
  Rh  Rh204  1  -0.00155720  0.00129576  0.20989501  1
  Rh  Rh205  1  -0.00209259  0.00670659  0.60174609  1
  Rh  Rh206  1  0.39804350  0.00405284  0.19436655  1
  Rh  Rh207  1  0.19056109  0.60716422  -0.00052328  1
  Rh  Rh208  1  0.80288838  0.80040881  0.78919921  1
  Rh  Rh209  1  0.20867611  0.60600342  0.80376648  1
  Rh  Rh210  1  0.20641518  0.00024205  0.59684070  1
  Rh  Rh211  1  0.79400159  0.59616149  0.39884091  1
  Rh  Rh212  1  -0.01026843  0.59487242  0.80211564  1
  Rh  Rh213  1  0.20667585  0.39068796  0.19859936  1
  Rh  Rh214  1  0.79251856  0.20250719  -0.00893659  1
  Rh  Rh215  1  0.58593964  0.00593919  0.59502306  1
  Rh  Rh216  1  0.19125392  0.40746919  0.39663689  1
  Rh  Rh217  1  0.20281283  0.20446671  0.60612855  1
  Rh  Rh218  1  -0.00537464  0.00442186  0.80093916  1
  Rh  Rh219  1  0.59727217  0.39696921  0.60319188  1
  Rh  Rh220  1  0.60539894  0.80349686  0.20284719  1
  Rh  Rh221  1  0.79856595  -0.01023635  0.18655380  1
  Rh  Rh222  1  0.40338503  0.80977991  0.79465386  1
  Rh  Rh223  1  0.39550854  0.59998307  0.60389893  1
  Rh  Rh224  1  -0.00096795  0.40306900  -0.00836185  1
  Rh  Rh225  1  0.19866073  0.80321953  0.40083484  1
  Rh  Rh226  1  0.00024304  0.79331035  0.00268126  1
  Rh  Rh227  1  0.40408582  0.19600884  0.59869019  1
  Rh  Rh228  1  0.80119163  0.39019383  0.00256467  1
  Rh  Rh229  1  0.20788076  0.00008873  0.80531485  1
  Rh  Rh230  1  0.20870693  -0.00313575  0.20419609  1
  Rh  Rh231  1  0.79296000  0.40790038  0.79765267  1
  Rh  Rh232  1  0.00482853  0.80487575  0.79673489  1
  Rh  Rh233  1  -0.00194591  0.00178835  -0.00888820  1
  Rh  Rh234  1  0.59400125  0.20580598  0.41319126  1
  Rh  Rh235  1  0.80621754  0.61209323  0.61385887  1
  Rh  Rh236  1  0.59407844  0.00247638  0.79681476  1
  Rh  Rh237  1  -0.00512247  0.79853186  0.20413375  1
  Rh  Rh238  1  0.80660759  0.39600570  0.59914578  1
  Rh  Rh239  1  0.20022942  0.39472680  0.80103949  1
  Rh  Rh240  1  0.60922814  0.80152504  0.59458455  1
  Rh  Rh241  1  0.59820670  0.60542639  0.59204657  1
  Rh  Rh242  1  0.20037541  0.60302232  0.59662661  1
  Rh  Rh243  1  0.80258891  -0.00020687  0.41016908  1
  Rh  Rh244  1  0.19046093  0.19775400  -0.00210734  1
  Rh  Rh245  1  0.60892786  0.59017505  0.80871249  1
  Rh  Rh246  1  0.41084748  0.39059739  0.38890639  1
  Rh  Rh247  1  0.58958408  0.40997198  -0.01180727  1
  Rh  Rh248  1  0.40060845  0.79917189  0.00367284  1
  Rh  Rh249  1  0.39076158  -0.00066502  0.40784028  1
