# generated using pymatgen
data_ZrScNbPdRh
_symmetry_space_group_name_H-M   'P 1'
_cell_length_a   16.55681489
_cell_length_b   16.56101518
_cell_length_c   16.55777332
_cell_angle_alpha   89.98539688
_cell_angle_beta   90.01036233
_cell_angle_gamma   89.99006807
_symmetry_Int_Tables_number   1
_chemical_formula_structural   ZrScNbPdRh
_chemical_formula_sum   'Zr50 Sc50 Nb50 Pd50 Rh50'
_cell_volume   4540.10245276
_cell_formula_units_Z   50
loop_
 _symmetry_equiv_pos_site_id
 _symmetry_equiv_pos_as_xyz
  1  'x, y, z'
loop_
 _atom_site_type_symbol
 _atom_site_label
 _atom_site_symmetry_multiplicity
 _atom_site_fract_x
 _atom_site_fract_y
 _atom_site_fract_z
 _atom_site_occupancy
  Zr  Zr0  1  0.69811874  0.89500172  0.51246588  1
  Zr  Zr1  1  0.69875065  0.10789140  0.30029324  1
  Zr  Zr2  1  0.49074072  0.50313584  0.08818599  1
  Zr  Zr3  1  0.90197932  0.09710526  0.49760641  1
  Zr  Zr4  1  0.30149110  0.89897098  0.29766740  1
  Zr  Zr5  1  0.90082986  0.30228168  0.70681678  1
  Zr  Zr6  1  0.09628865  0.09642521  0.89605859  1
  Zr  Zr7  1  0.90125542  0.69405507  0.70074336  1
  Zr  Zr8  1  0.09102141  0.29941908  0.89818313  1
  Zr  Zr9  1  0.10112958  0.50368514  0.50858131  1
  Zr  Zr10  1  0.89753980  0.49666438  0.89236389  1
  Zr  Zr11  1  0.10058090  0.29645733  0.30330605  1
  Zr  Zr12  1  0.90935963  0.30424958  0.29797404  1
  Zr  Zr13  1  0.68548258  0.30157043  0.29945320  1
  Zr  Zr14  1  0.10249833  0.91017414  0.89892272  1
  Zr  Zr15  1  0.10187448  0.70870782  0.30141125  1
  Zr  Zr16  1  0.30272935  0.09711482  0.28913295  1
  Zr  Zr17  1  0.89926842  0.10537599  0.30173101  1
  Zr  Zr18  1  0.30094584  0.68864917  0.50180674  1
  Zr  Zr19  1  0.49972097  0.29571971  0.30236845  1
  Zr  Zr20  1  0.70026653  0.50009652  0.49357360  1
  Zr  Zr21  1  0.31066501  0.69944952  0.30560892  1
  Zr  Zr22  1  0.50045469  0.10127089  0.30640292  1
  Zr  Zr23  1  0.89420818  0.10191878  0.10270215  1
  Zr  Zr24  1  0.90816425  0.50023690  0.49367900  1
  Zr  Zr25  1  0.89469678  0.50277672  0.30234885  1
  Zr  Zr26  1  0.10169715  0.10003533  0.29640480  1
  Zr  Zr27  1  0.30476578  0.09778879  0.69442641  1
  Zr  Zr28  1  0.29679943  0.69914193  0.70322874  1
  Zr  Zr29  1  0.31115444  0.48806688  0.91170959  1
  Zr  Zr30  1  0.08652252  0.49372544  0.30589560  1
  Zr  Zr31  1  0.10222511  0.30008991  0.69739178  1
  Zr  Zr32  1  0.30421664  0.30261128  0.30940940  1
  Zr  Zr33  1  0.49945924  0.49156443  0.51605546  1
  Zr  Zr34  1  0.68891675  0.70298253  0.50453923  1
  Zr  Zr35  1  0.70597227  0.70650315  0.69723991  1
  Zr  Zr36  1  0.89376189  0.70854283  0.09843410  1
  Zr  Zr37  1  0.49676522  0.10549400  0.70331060  1
  Zr  Zr38  1  0.70558624  0.89314631  0.09845141  1
  Zr  Zr39  1  0.49970252  0.10310503  0.89584335  1
  Zr  Zr40  1  0.90161421  0.90135191  0.30211469  1
  Zr  Zr41  1  0.89748988  0.30236109  0.89945257  1
  Zr  Zr42  1  0.30180216  0.09800655  0.09394799  1
  Zr  Zr43  1  0.30053078  0.49292655  0.49528915  1
  Zr  Zr44  1  0.89259608  0.69246642  0.89217688  1
  Zr  Zr45  1  0.49664380  0.90379968  0.09545812  1
  Zr  Zr46  1  0.10033969  0.49237063  0.09596236  1
  Zr  Zr47  1  0.69589686  0.69288606  0.30774783  1
  Zr  Zr48  1  0.89905665  0.90046968  0.49734758  1
  Zr  Zr49  1  0.69001182  0.30352806  0.50456201  1
  Sc  Sc50  1  0.69673211  0.29858187  0.91608779  1
  Sc  Sc51  1  0.68853038  0.49800604  0.09426835  1
  Sc  Sc52  1  0.89511183  0.30040730  0.50077377  1
  Sc  Sc53  1  0.69853943  0.69757218  0.08468820  1
  Sc  Sc54  1  0.49992979  0.70019583  0.09071209  1
  Sc  Sc55  1  0.88945674  0.90438503  0.69262424  1
  Sc  Sc56  1  0.69463334  0.49011074  0.70046463  1
  Sc  Sc57  1  0.50290487  0.91048317  0.69885506  1
  Sc  Sc58  1  0.49851789  0.68735262  0.70281828  1
  Sc  Sc59  1  0.09515954  0.30205224  0.09625244  1
  Sc  Sc60  1  0.90573714  0.10573696  0.89768198  1
  Sc  Sc61  1  0.10634788  0.09782607  0.49872586  1
  Sc  Sc62  1  0.49958579  0.68978067  0.90204303  1
  Sc  Sc63  1  0.09622530  0.91065160  0.49350805  1
  Sc  Sc64  1  0.30531844  0.29398743  0.90193376  1
  Sc  Sc65  1  0.30725822  0.91261719  0.50106137  1
  Sc  Sc66  1  0.69932797  0.50302644  0.89691147  1
  Sc  Sc67  1  0.49246255  0.10423866  0.10249776  1
  Sc  Sc68  1  0.91085539  0.69965685  0.49796723  1
  Sc  Sc69  1  0.30656289  0.70172134  0.89246932  1
  Sc  Sc70  1  0.30702469  0.50177115  0.69804019  1
  Sc  Sc71  1  0.49002983  0.49118978  0.29519751  1
  Sc  Sc72  1  0.50328934  0.70067190  0.49552969  1
  Sc  Sc73  1  0.50348734  0.89938009  0.49955409  1
  Sc  Sc74  1  0.89432642  0.29721357  0.09781505  1
  Sc  Sc75  1  0.30188324  0.10381840  0.50504474  1
  Sc  Sc76  1  0.69980133  0.90108072  0.89356542  1
  Sc  Sc77  1  0.70572344  0.89769887  0.31017101  1
  Sc  Sc78  1  0.90369296  0.49671937  0.70233170  1
  Sc  Sc79  1  0.89845445  0.09533983  0.70010481  1
  Sc  Sc80  1  0.10455345  0.68073325  0.69996078  1
  Sc  Sc81  1  0.70130963  0.12006503  0.10372957  1
  Sc  Sc82  1  0.09821805  0.49507905  0.90024944  1
  Sc  Sc83  1  0.89852884  0.49491624  0.10048265  1
  Sc  Sc84  1  0.10484627  0.90079568  0.29572988  1
  Sc  Sc85  1  0.49701230  0.30157710  0.89495618  1
  Sc  Sc86  1  0.10444701  0.69479357  0.88840174  1
  Sc  Sc87  1  0.69778593  0.10428467  0.50072067  1
  Sc  Sc88  1  0.49254728  0.90143322  0.31137112  1
  Sc  Sc89  1  0.30698135  0.70613845  0.10668794  1
  Sc  Sc90  1  0.90577778  0.91475972  0.89532201  1
  Sc  Sc91  1  0.10742281  0.09483295  0.09182713  1
  Sc  Sc92  1  0.69792108  0.90380674  0.69502624  1
  Sc  Sc93  1  0.30049858  0.90801146  0.10336073  1
  Sc  Sc94  1  0.49464966  0.90170043  0.89721035  1
  Sc  Sc95  1  0.68911616  0.09469674  0.69834300  1
  Sc  Sc96  1  0.90040880  0.70438126  0.30372494  1
  Sc  Sc97  1  0.30217234  0.90566178  0.70760358  1
  Sc  Sc98  1  0.30194087  0.30217814  0.09153796  1
  Sc  Sc99  1  0.30688106  0.29378731  0.69012693  1
  Nb  Nb100  1  0.70217371  0.29669884  0.69870128  1
  Nb  Nb101  1  0.10259893  0.70434112  0.10181202  1
  Nb  Nb102  1  0.49399391  0.50028003  0.89022845  1
  Nb  Nb103  1  0.70091715  0.69825394  0.89467788  1
  Nb  Nb104  1  0.11733026  0.30153211  0.50710690  1
  Nb  Nb105  1  0.10246516  0.49437011  0.70113265  1
  Nb  Nb106  1  0.49773300  0.48514711  0.71558094  1
  Nb  Nb107  1  0.10231526  0.69884344  0.50297598  1
  Nb  Nb108  1  0.29723992  0.30253651  0.50556010  1
  Nb  Nb109  1  0.89951727  0.90185916  0.09915566  1
  Nb  Nb110  1  0.69197896  0.30160540  0.10650493  1
  Nb  Nb111  1  0.10262939  0.90612186  0.69968824  1
  Nb  Nb112  1  0.69551288  0.10296412  0.90301659  1
  Nb  Nb113  1  0.30450970  0.09864231  0.89965663  1
  Nb  Nb114  1  0.09889447  0.89740504  0.09762751  1
  Nb  Nb115  1  0.29998033  0.50020257  0.29591747  1
  Nb  Nb116  1  0.29917610  0.49985564  0.10136078  1
  Nb  Nb117  1  0.49085689  0.29853136  0.50200358  1
  Nb  Nb118  1  0.10205911  0.09863491  0.69850975  1
  Nb  Nb119  1  0.70042035  0.50279534  0.29859067  1
  Nb  Nb120  1  0.30009928  0.90535017  0.90216810  1
  Nb  Nb121  1  0.52106997  0.30644034  0.10510668  1
  Nb  Nb122  1  0.49736150  0.09592762  0.50300310  1
  Nb  Nb123  1  0.50237251  0.70603960  0.30219200  1
  Nb  Nb124  1  0.50276949  0.30637483  0.69533138  1
  Nb  Nb125  1  0.79937894  0.59874930  0.59683293  1
  Nb  Nb126  1  0.00408463  0.60452439  0.19439710  1
  Nb  Nb127  1  0.00662048  0.20024845  0.60138780  1
  Nb  Nb128  1  0.20136631  0.39378335  0.79715381  1
  Nb  Nb129  1  0.00318852  0.79970903  -0.00388526  1
  Nb  Nb130  1  0.20522444  0.40506546  0.20344081  1
  Nb  Nb131  1  0.00257398  0.60762769  0.00359654  1
  Nb  Nb132  1  0.78825556  0.39994525  0.20404417  1
  Nb  Nb133  1  0.79492949  0.00558043  0.00208785  1
  Nb  Nb134  1  0.60544547  0.00542642  0.00320168  1
  Nb  Nb135  1  0.00411346  0.80427455  0.79437874  1
  Nb  Nb136  1  0.19988339  0.19628657  0.79819470  1
  Nb  Nb137  1  0.19785790  0.80213818  0.59895367  1
  Nb  Nb138  1  0.39417855  0.79720134  0.60172047  1
  Nb  Nb139  1  0.59805091  0.79862281  0.20363150  1
  Nb  Nb140  1  0.20418182  0.79721989  0.40939037  1
  Nb  Nb141  1  0.60247608  -0.00399437  0.19752262  1
  Nb  Nb142  1  0.60327789  0.79336697  0.80091321  1
  Nb  Nb143  1  -0.00259089  -0.00391719  0.19426379  1
  Nb  Nb144  1  0.01100144  0.80110352  0.60532758  1
  Nb  Nb145  1  0.59614760  0.60330079  0.20428568  1
  Nb  Nb146  1  0.19607972  0.80120112  -0.00036942  1
  Nb  Nb147  1  0.79119505  0.20232427  0.79953097  1
  Nb  Nb148  1  0.20041309  0.60341262  0.00727222  1
  Nb  Nb149  1  0.20062789  0.59544867  0.20021647  1
  Pd  Pd150  1  0.39129808  0.79970095  -0.00331127  1
  Pd  Pd151  1  0.19771227  0.20174182  -0.00802656  1
  Pd  Pd152  1  0.80168626  0.59155463  0.00295321  1
  Pd  Pd153  1  0.20541294  -0.00104319  0.39919839  1
  Pd  Pd154  1  0.00703940  0.20492037  0.41411683  1
  Pd  Pd155  1  0.60765692  0.39020550  0.80790133  1
  Pd  Pd156  1  0.41172151  0.59107280  0.40149021  1
  Pd  Pd157  1  0.40774146  0.80365362  0.19842967  1
  Pd  Pd158  1  0.19437974  0.80272810  0.79898456  1
  Pd  Pd159  1  0.41043219  0.20713366  0.00455521  1
  Pd  Pd160  1  0.41140851  0.80230239  0.79244830  1
  Pd  Pd161  1  0.58584124  0.58729919  0.39501951  1
  Pd  Pd162  1  0.79270976  0.00218604  0.40535188  1
  Pd  Pd163  1  0.79662294  0.40304568  0.00745255  1
  Pd  Pd164  1  -0.00062413  0.19767349  0.00550623  1
  Pd  Pd165  1  0.19435412  0.60047791  0.39360711  1
  Pd  Pd166  1  0.39523888  0.19555771  0.40657389  1
  Pd  Pd167  1  0.79591996  0.00070131  0.19698722  1
  Pd  Pd168  1  0.60493554  0.60202361  0.79730378  1
  Pd  Pd169  1  0.59865967  0.80474456  -0.00840735  1
  Pd  Pd170  1  0.60163335  0.59338537  0.61018273  1
  Pd  Pd171  1  0.80885296  0.81077379  -0.01736661  1
  Pd  Pd172  1  0.40390590  0.60357076  0.19812865  1
  Pd  Pd173  1  -0.00280984  0.80284686  0.19680738  1
  Pd  Pd174  1  0.60486319  0.20967119  0.80116150  1
  Pd  Pd175  1  0.20676585  0.00731710  0.79921944  1
  Pd  Pd176  1  -0.00100063  0.39309422  0.59620225  1
  Pd  Pd177  1  0.58905933  0.40607527  0.40008653  1
  Pd  Pd178  1  0.79892020  0.79188366  0.40686207  1
  Pd  Pd179  1  0.79502904  0.01020250  0.80411837  1
  Pd  Pd180  1  0.60430498  -0.00355984  0.39978150  1
  Pd  Pd181  1  0.80319624  0.80903834  0.80195130  1
  Pd  Pd182  1  0.80423155  0.19470090  0.60737892  1
  Pd  Pd183  1  0.20186412  0.20967056  0.19230717  1
  Pd  Pd184  1  0.79551629  0.59714332  0.19115928  1
  Pd  Pd185  1  0.79684638  0.20966748  0.39857468  1
  Pd  Pd186  1  0.59337851  0.19859175  0.59871748  1
  Pd  Pd187  1  0.19642074  0.40320751  0.39646714  1
  Pd  Pd188  1  0.20958467  0.58247297  0.81093712  1
  Pd  Pd189  1  0.79115729  0.79391272  0.20697713  1
  Pd  Pd190  1  0.40449318  0.59939153  0.60393642  1
  Pd  Pd191  1  0.40090762  0.21003945  0.19270392  1
  Pd  Pd192  1  0.80151353  0.40755682  0.60076299  1
  Pd  Pd193  1  0.00600785  0.19406612  0.19032033  1
  Pd  Pd194  1  0.79764865  0.39160208  0.39437027  1
  Pd  Pd195  1  0.39736177  0.39127096  0.19239355  1
  Pd  Pd196  1  0.59382714  0.40614305  -0.01111572  1
  Pd  Pd197  1  0.80327626  0.60870653  0.40955744  1
  Pd  Pd198  1  0.20712257  0.19371121  0.40196073  1
  Pd  Pd199  1  0.00043860  0.00100974  0.60184975  1
  Rh  Rh200  1  -0.00308212  -0.00302649  0.78910908  1
  Rh  Rh201  1  0.01027203  0.80274126  0.40796557  1
  Rh  Rh202  1  0.20728007  -0.00466537  0.00106048  1
  Rh  Rh203  1  0.40555436  -0.00334977  0.59971847  1
  Rh  Rh204  1  0.40236595  0.39934515  0.40535904  1
  Rh  Rh205  1  -0.00522974  0.40284734  0.19557027  1
  Rh  Rh206  1  -0.00190432  0.19213312  0.78918886  1
  Rh  Rh207  1  -0.00939303  -0.00122186  0.00840858  1
  Rh  Rh208  1  0.59843700  -0.00662482  0.80765362  1
  Rh  Rh209  1  0.79470775  0.00713265  0.59422410  1
  Rh  Rh210  1  0.59380206  0.20116991  0.41279717  1
  Rh  Rh211  1  0.59994648  0.80696912  0.39557539  1
  Rh  Rh212  1  0.39774505  0.00819593  0.40197830  1
  Rh  Rh213  1  0.59265971  0.19774053  0.00445611  1
  Rh  Rh214  1  0.79046939  0.39105369  0.80200632  1
  Rh  Rh215  1  0.40288691  0.00251412  -0.00690396  1
  Rh  Rh216  1  0.00203634  0.00245551  0.38762667  1
  Rh  Rh217  1  0.19430682  -0.00048122  0.19500797  1
  Rh  Rh218  1  0.58303671  0.79920504  0.61275601  1
  Rh  Rh219  1  0.39601878  0.59560104  0.80214237  1
  Rh  Rh220  1  0.81337953  0.79158558  0.59283291  1
  Rh  Rh221  1  0.39457402  0.79969972  0.41239923  1
  Rh  Rh222  1  0.00212215  0.60744285  0.39243132  1
  Rh  Rh223  1  0.20094280  0.39952858  -0.00272342  1
  Rh  Rh224  1  0.79049363  0.59144860  0.78804808  1
  Rh  Rh225  1  0.40725039  0.20111947  0.59666409  1
  Rh  Rh226  1  -0.00265532  0.59977961  0.60367077  1
  Rh  Rh227  1  0.41071931  0.39066299  0.00359413  1
  Rh  Rh228  1  0.20882851  0.79913718  0.20162418  1
  Rh  Rh229  1  0.20288094  0.59412791  0.60159338  1
  Rh  Rh230  1  0.80198369  0.19615640  -0.00953471  1
  Rh  Rh231  1  0.00866220  0.38843938  0.41532113  1
  Rh  Rh232  1  0.39557041  0.20293256  0.79569265  1
  Rh  Rh233  1  0.59946626  0.39767699  0.60324904  1
  Rh  Rh234  1  0.59636469  0.00396833  0.59540311  1
  Rh  Rh235  1  0.39203668  0.60541130  -0.00397548  1
  Rh  Rh236  1  0.59754236  0.59624174  -0.00483455  1
  Rh  Rh237  1  0.39199873  0.39170399  0.79575870  1
  Rh  Rh238  1  0.20085022  -0.00337693  0.59950862  1
  Rh  Rh239  1  0.20867765  0.40792103  0.60801725  1
  Rh  Rh240  1  0.40834617  -0.00120357  0.20466200  1
  Rh  Rh241  1  0.60095603  0.41358250  0.20200351  1
  Rh  Rh242  1  -0.00911206  0.40306414  -0.00237062  1
  Rh  Rh243  1  0.19747467  0.19347674  0.60245335  1
  Rh  Rh244  1  0.59137799  0.19002208  0.19808362  1
  Rh  Rh245  1  0.39904070  0.00103190  0.80405171  1
  Rh  Rh246  1  0.00717112  0.40646464  0.80007217  1
  Rh  Rh247  1  0.79923991  0.21584903  0.21032712  1
  Rh  Rh248  1  0.39701532  0.39771375  0.60501902  1
  Rh  Rh249  1  0.00296524  0.59613433  0.80377040  1
