# generated using pymatgen
data_ZrScNbPdRh
_symmetry_space_group_name_H-M   'P 1'
_cell_length_a   16.55822768
_cell_length_b   16.55437528
_cell_length_c   16.55631457
_cell_angle_alpha   89.99680256
_cell_angle_beta   89.97166045
_cell_angle_gamma   89.99675152
_symmetry_Int_Tables_number   1
_chemical_formula_structural   ZrScNbPdRh
_chemical_formula_sum   'Zr50 Sc50 Nb50 Pd50 Rh50'
_cell_volume   4538.26927657
_cell_formula_units_Z   50
loop_
 _symmetry_equiv_pos_site_id
 _symmetry_equiv_pos_as_xyz
  1  'x, y, z'
loop_
 _atom_site_type_symbol
 _atom_site_label
 _atom_site_symmetry_multiplicity
 _atom_site_fract_x
 _atom_site_fract_y
 _atom_site_fract_z
 _atom_site_occupancy
  Zr  Zr0  1  0.09186293  0.69820773  0.91065112  1
  Zr  Zr1  1  0.30004219  0.50189675  0.90039949  1
  Zr  Zr2  1  0.30432857  0.89446050  0.29722961  1
  Zr  Zr3  1  0.68928075  0.29692741  0.10214397  1
  Zr  Zr4  1  0.88628945  0.10158525  0.70008001  1
  Zr  Zr5  1  0.49765995  0.50402701  0.50284831  1
  Zr  Zr6  1  0.69442029  0.70328379  0.49430457  1
  Zr  Zr7  1  0.29759643  0.89382108  0.10116579  1
  Zr  Zr8  1  0.89738748  0.09599314  0.10800124  1
  Zr  Zr9  1  0.30009049  0.70308715  0.29830704  1
  Zr  Zr10  1  0.50281517  0.49433560  0.10494135  1
  Zr  Zr11  1  0.49210927  0.70247832  0.29913598  1
  Zr  Zr12  1  0.90157374  0.90299789  0.49830007  1
  Zr  Zr13  1  0.49478295  0.09931124  0.70787375  1
  Zr  Zr14  1  0.89541719  0.29704399  0.70121575  1
  Zr  Zr15  1  0.89847085  0.09113391  0.90380632  1
  Zr  Zr16  1  0.10331458  0.89222569  0.09780481  1
  Zr  Zr17  1  0.49772263  0.90005858  0.69974689  1
  Zr  Zr18  1  0.29579569  0.30059163  0.70062035  1
  Zr  Zr19  1  0.30073416  0.70680684  0.10290773  1
  Zr  Zr20  1  0.09115779  0.30018681  0.90522784  1
  Zr  Zr21  1  0.69531123  0.50238564  0.49955968  1
  Zr  Zr22  1  0.50148039  0.29652101  0.49662716  1
  Zr  Zr23  1  0.89455982  0.70487906  0.89994053  1
  Zr  Zr24  1  0.29053816  0.30285372  0.89248044  1
  Zr  Zr25  1  0.90104422  0.10456635  0.29591682  1
  Zr  Zr26  1  0.49815382  0.30064795  0.10205401  1
  Zr  Zr27  1  0.29844037  0.09862498  0.50757082  1
  Zr  Zr28  1  0.70428725  0.69701072  0.28948384  1
  Zr  Zr29  1  0.50342826  0.30085497  0.89439887  1
  Zr  Zr30  1  0.70557486  0.10391448  0.50769481  1
  Zr  Zr31  1  0.30197076  0.49986844  0.10171765  1
  Zr  Zr32  1  0.10275544  0.09512584  0.90026690  1
  Zr  Zr33  1  0.49945970  0.09924185  0.30176300  1
  Zr  Zr34  1  0.09410905  0.89591767  0.90853299  1
  Zr  Zr35  1  0.30034506  0.30710174  0.10354690  1
  Zr  Zr36  1  0.69788906  0.90030347  0.69941088  1
  Zr  Zr37  1  0.31694868  0.69801667  0.90575561  1
  Zr  Zr38  1  0.69989553  0.90058074  0.29848235  1
  Zr  Zr39  1  0.49788242  0.70157379  0.09237851  1
  Zr  Zr40  1  0.29779610  0.30567768  0.50309741  1
  Zr  Zr41  1  0.30732693  0.90819344  0.69721086  1
  Zr  Zr42  1  0.69687480  0.49955127  0.29357293  1
  Zr  Zr43  1  0.29940290  0.10089737  0.70933218  1
  Zr  Zr44  1  0.10212644  0.89122810  0.50188075  1
  Zr  Zr45  1  0.50161772  0.89712513  0.49561391  1
  Zr  Zr46  1  0.90364734  0.69921062  0.70441076  1
  Zr  Zr47  1  0.29968950  0.91001512  0.90938830  1
  Zr  Zr48  1  0.69329535  0.69942467  0.90952390  1
  Zr  Zr49  1  0.29353841  0.69259096  0.49223033  1
  Sc  Sc50  1  0.10482017  0.09962828  0.49722489  1
  Sc  Sc51  1  0.90761827  0.30135668  0.49938463  1
  Sc  Sc52  1  0.49985456  0.50412510  0.69406164  1
  Sc  Sc53  1  0.10407494  0.30219166  0.29989403  1
  Sc  Sc54  1  0.30300940  0.08565112  0.09862186  1
  Sc  Sc55  1  0.69925769  0.10083788  0.28831693  1
  Sc  Sc56  1  0.70047452  0.70334084  0.71338688  1
  Sc  Sc57  1  0.10490919  0.30416771  0.70126482  1
  Sc  Sc58  1  0.90217920  0.10612957  0.50131164  1
  Sc  Sc59  1  0.90834986  0.50650329  0.90242181  1
  Sc  Sc60  1  0.08909761  0.50121798  0.09648822  1
  Sc  Sc61  1  0.49843472  0.09834609  0.49207098  1
  Sc  Sc62  1  0.30157388  0.50232211  0.29519030  1
  Sc  Sc63  1  0.49755012  0.70165672  0.49373358  1
  Sc  Sc64  1  0.29927463  0.29799602  0.29475431  1
  Sc  Sc65  1  0.89846838  0.91323275  0.28996230  1
  Sc  Sc66  1  0.10782084  0.10149055  0.69787378  1
  Sc  Sc67  1  0.10323506  0.89837255  0.69839330  1
  Sc  Sc68  1  0.49893909  0.71011502  0.71573034  1
  Sc  Sc69  1  0.09654001  0.49830860  0.90208503  1
  Sc  Sc70  1  0.69585519  0.30094234  0.89233466  1
  Sc  Sc71  1  0.10069933  0.30271092  0.10208949  1
  Sc  Sc72  1  0.69506163  0.50473240  0.90210782  1
  Sc  Sc73  1  0.50581373  0.09867734  0.09573274  1
  Sc  Sc74  1  0.29723677  0.89996871  0.49916325  1
  Sc  Sc75  1  0.10035015  0.09746759  0.30148809  1
  Sc  Sc76  1  0.10841116  0.49531900  0.49662867  1
  Sc  Sc77  1  0.30856859  0.70135195  0.69894029  1
  Sc  Sc78  1  0.30126248  0.50172761  0.68915777  1
  Sc  Sc79  1  0.71137565  0.89307395  0.90977618  1
  Sc  Sc80  1  0.69018233  0.29330491  0.29559891  1
  Sc  Sc81  1  0.09510845  0.09988123  0.10427402  1
  Sc  Sc82  1  0.49721290  0.90816978  0.09378887  1
  Sc  Sc83  1  0.29998865  0.09766791  0.30558245  1
  Sc  Sc84  1  0.69255769  0.90345962  0.49790076  1
  Sc  Sc85  1  0.10126554  0.70476125  0.69196379  1
  Sc  Sc86  1  0.89240232  0.68588415  0.10012373  1
  Sc  Sc87  1  0.69755522  0.50224645  0.70220498  1
  Sc  Sc88  1  0.49837527  0.09578732  0.90093574  1
  Sc  Sc89  1  0.89993886  0.89504051  0.71364738  1
  Sc  Sc90  1  0.09728268  0.49649930  0.29382116  1
  Sc  Sc91  1  0.10421666  0.29874817  0.50418281  1
  Sc  Sc92  1  0.10002625  0.49898430  0.70401439  1
  Sc  Sc93  1  0.10738411  0.90349099  0.30116507  1
  Sc  Sc94  1  0.70125800  0.29886467  0.70746555  1
  Sc  Sc95  1  0.90420667  0.50038141  0.70775931  1
  Sc  Sc96  1  0.91897965  0.70819117  0.49164116  1
  Sc  Sc97  1  0.91081250  0.28922294  0.09903307  1
  Sc  Sc98  1  0.49753271  0.28904120  0.29491627  1
  Sc  Sc99  1  0.90770853  0.49638455  0.29819718  1
  Nb  Nb100  1  0.70069379  0.69250544  0.09826168  1
  Nb  Nb101  1  0.89695336  0.49853771  0.49970433  1
  Nb  Nb102  1  0.49325007  0.51265484  0.90095444  1
  Nb  Nb103  1  0.49633648  0.49994783  0.29991559  1
  Nb  Nb104  1  0.89532526  0.90070832  0.09272937  1
  Nb  Nb105  1  0.29979540  0.10358721  0.89655778  1
  Nb  Nb106  1  0.89069324  0.29782388  0.29733422  1
  Nb  Nb107  1  0.30672355  0.50027283  0.50161610  1
  Nb  Nb108  1  0.70989594  0.89910705  0.10298624  1
  Nb  Nb109  1  0.50043870  0.89195182  0.89581806  1
  Nb  Nb110  1  0.50406260  0.89588081  0.30308382  1
  Nb  Nb111  1  0.70140350  0.09618201  0.09088835  1
  Nb  Nb112  1  0.70038389  0.10155314  0.89568727  1
  Nb  Nb113  1  0.90320680  0.89313184  0.91233668  1
  Nb  Nb114  1  0.50016857  0.70076374  0.90144179  1
  Nb  Nb115  1  0.70125341  0.10247374  0.70527721  1
  Nb  Nb116  1  0.70498599  0.50659329  0.10093608  1
  Nb  Nb117  1  0.09952310  0.70251260  0.10322556  1
  Nb  Nb118  1  0.89763661  0.29568668  0.90419075  1
  Nb  Nb119  1  0.49784525  0.30042456  0.69966227  1
  Nb  Nb120  1  0.10096221  0.70395942  0.49341255  1
  Nb  Nb121  1  0.89380604  0.49780381  0.09877373  1
  Nb  Nb122  1  0.09356200  0.69714698  0.30371577  1
  Nb  Nb123  1  0.69927160  0.30192311  0.49683034  1
  Nb  Nb124  1  0.90530265  0.69520963  0.29802146  1
  Nb  Nb125  1  0.80310213  0.79456640  0.59420681  1
  Nb  Nb126  1  0.20497026  0.79729693  0.80800005  1
  Nb  Nb127  1  0.20233817  0.60769561  0.80417841  1
  Nb  Nb128  1  0.40336463  0.40475850  0.40233630  1
  Nb  Nb129  1  0.39171095  0.20223917  -0.00579109  1
  Nb  Nb130  1  0.60447563  0.80206301  0.19337193  1
  Nb  Nb131  1  -0.00228569  0.79323408  0.19944073  1
  Nb  Nb132  1  -0.00672580  0.19829220  0.80331342  1
  Nb  Nb133  1  0.19339911  0.60823656  0.19794330  1
  Nb  Nb134  1  0.59973890  0.20096952  0.60542646  1
  Nb  Nb135  1  0.80425239  0.79593038  0.39616909  1
  Nb  Nb136  1  0.59485919  0.40202427  0.39804971  1
  Nb  Nb137  1  -0.00108554  0.60065149  0.59143285  1
  Nb  Nb138  1  0.79997188  0.20579214  0.39710892  1
  Nb  Nb139  1  0.79972311  0.39727146  0.19340459  1
  Nb  Nb140  1  0.80679359  0.60327118  0.59266309  1
  Nb  Nb141  1  0.80052128  0.40398928  0.59482402  1
  Nb  Nb142  1  0.40260262  0.40159498  0.79825465  1
  Nb  Nb143  1  0.79568913  0.19800674  -0.00056597  1
  Nb  Nb144  1  0.60662487  -0.00056547  0.80273740  1
  Nb  Nb145  1  0.80116161  0.39668318  0.00504576  1
  Nb  Nb146  1  -0.00254784  -0.00173773  0.60104249  1
  Nb  Nb147  1  0.20537067  0.19750820  -0.00184949  1
  Nb  Nb148  1  0.80736472  0.60266726  0.40149712  1
  Nb  Nb149  1  0.40291953  0.20264899  0.60412214  1
  Pd  Pd150  1  -0.00164704  0.20672840  0.39587015  1
  Pd  Pd151  1  0.00199603  0.58997314  0.40531773  1
  Pd  Pd152  1  -0.00116249  0.40664738  0.60090028  1
  Pd  Pd153  1  0.39805149  0.79457880  0.59252694  1
  Pd  Pd154  1  0.80525379  -0.00934204  0.60183801  1
  Pd  Pd155  1  0.20778189  0.40391332  0.39453985  1
  Pd  Pd156  1  0.60411662  0.40756568  -0.00390096  1
  Pd  Pd157  1  0.40430229  -0.00167698  0.20201149  1
  Pd  Pd158  1  0.19847918  0.60241029  0.00307023  1
  Pd  Pd159  1  0.59940179  0.59955134  0.39335865  1
  Pd  Pd160  1  0.39588784  0.19008125  0.19063164  1
  Pd  Pd161  1  0.40387215  0.39654915  -0.00880146  1
  Pd  Pd162  1  0.00951783  0.79892097  0.79839422  1
  Pd  Pd163  1  0.00288074  0.39589205  0.39979102  1
  Pd  Pd164  1  -0.00578542  0.39359694  0.19711062  1
  Pd  Pd165  1  -0.00456164  0.39417887  0.80186780  1
  Pd  Pd166  1  0.59377624  0.00888095  0.60449531  1
  Pd  Pd167  1  0.19179408  0.39929455  0.00393506  1
  Pd  Pd168  1  -0.00339326  0.81322473  0.38392851  1
  Pd  Pd169  1  0.79423132  0.39894827  0.39522282  1
  Pd  Pd170  1  0.20176800  0.19367854  0.19358254  1
  Pd  Pd171  1  0.79595811  0.00658422  0.39744274  1
  Pd  Pd172  1  0.19665364  -0.00947017  0.80005866  1
  Pd  Pd173  1  0.60564184  -0.00833740  -0.00823298  1
  Pd  Pd174  1  0.20947450  0.79761128  0.60491716  1
  Pd  Pd175  1  0.80247835  0.40698276  0.80487977  1
  Pd  Pd176  1  0.19731646  0.59283568  0.39083240  1
  Pd  Pd177  1  0.80529663  0.79868156  0.19789193  1
  Pd  Pd178  1  0.60138786  0.80812370  0.00634949  1
  Pd  Pd179  1  0.59937673  -0.00333229  0.19654170  1
  Pd  Pd180  1  0.19248852  0.59907130  0.60381882  1
  Pd  Pd181  1  0.00859680  0.20458210  0.20650138  1
  Pd  Pd182  1  0.40716850  0.61223115  0.60273755  1
  Pd  Pd183  1  0.00251401  0.00150208  0.00964529  1
  Pd  Pd184  1  0.20187884  0.20042294  0.39849296  1
  Pd  Pd185  1  0.79623883  -0.01038107  0.80757861  1
  Pd  Pd186  1  0.59311148  0.41062785  0.79778794  1
  Pd  Pd187  1  0.59721869  0.19876930  -0.00536767  1
  Pd  Pd188  1  0.60256779  0.79275590  0.60459415  1
  Pd  Pd189  1  0.60047972  0.61363835  0.61003280  1
  Pd  Pd190  1  0.60653246  0.39371953  0.60100920  1
  Pd  Pd191  1  0.60587327  0.00753181  0.39890443  1
  Pd  Pd192  1  0.00198926  0.00352209  0.79195108  1
  Pd  Pd193  1  0.00463700  0.19329832  0.60735278  1
  Pd  Pd194  1  0.00428659  0.00100827  0.40396118  1
  Pd  Pd195  1  0.59560551  0.59954745  0.79920373  1
  Pd  Pd196  1  0.79834594  0.59527803  0.80173935  1
  Pd  Pd197  1  0.19830668  0.00269081  0.20025156  1
  Pd  Pd198  1  0.39596280  -0.00510079  0.40162017  1
  Pd  Pd199  1  0.59107978  0.60563353  0.19642301  1
  Rh  Rh200  1  0.41430659  0.80996913  0.19593319  1
  Rh  Rh201  1  0.79415274  0.20448097  0.19548827  1
  Rh  Rh202  1  0.40522851  0.59626435  0.00924937  1
  Rh  Rh203  1  0.40376133  0.80694113  -0.00060627  1
  Rh  Rh204  1  0.80290203  0.20077612  0.80962892  1
  Rh  Rh205  1  0.00218488  0.60314447  0.19465665  1
  Rh  Rh206  1  0.60038076  0.39915283  0.20552278  1
  Rh  Rh207  1  0.40251855  0.00493058  -0.00545547  1
  Rh  Rh208  1  0.19139794  -0.00199396  0.59831183  1
  Rh  Rh209  1  0.20342507  -0.00152835  0.40172158  1
  Rh  Rh210  1  0.40184744  0.20936563  0.80207769  1
  Rh  Rh211  1  0.20763403  0.41581823  0.79429744  1
  Rh  Rh212  1  0.60442101  0.79700889  0.38725094  1
  Rh  Rh213  1  -0.00875466  0.40188274  0.00303410  1
  Rh  Rh214  1  0.79218807  0.21400929  0.59353826  1
  Rh  Rh215  1  0.19676408  0.00598610  0.00524035  1
  Rh  Rh216  1  0.19632854  0.40518937  0.60040500  1
  Rh  Rh217  1  0.59501467  0.59481371  0.00293217  1
  Rh  Rh218  1  0.80175844  0.79113032  0.00918235  1
  Rh  Rh219  1  0.40593395  0.00521830  0.59281256  1
  Rh  Rh220  1  0.39702172  0.59898345  0.19646805  1
  Rh  Rh221  1  0.20484274  0.79366550  -0.00791426  1
  Rh  Rh222  1  0.40639771  -0.00683797  0.80926844  1
  Rh  Rh223  1  -0.00463059  0.60151131  0.00498069  1
  Rh  Rh224  1  0.01295665  0.60606049  0.79348866  1
  Rh  Rh225  1  0.20014219  0.79938022  0.39658871  1
  Rh  Rh226  1  0.79640287  0.00284580  0.19655460  1
  Rh  Rh227  1  0.20432947  0.20067222  0.60038608  1
  Rh  Rh228  1  -0.00472952  0.80240185  0.60277789  1
  Rh  Rh229  1  0.19756134  0.41016556  0.19772423  1
  Rh  Rh230  1  0.00464048  -0.01099321  0.19496098  1
  Rh  Rh231  1  0.80825094  0.58843380  0.20798794  1
  Rh  Rh232  1  0.39571518  0.80190946  0.40470900  1
  Rh  Rh233  1  0.79941412  0.59480498  -0.00737381  1
  Rh  Rh234  1  0.60507195  0.80716464  0.80981432  1
  Rh  Rh235  1  0.79765898  0.00238040  -0.00012856  1
  Rh  Rh236  1  0.39890991  0.39501490  0.60070965  1
  Rh  Rh237  1  0.38914975  0.20662647  0.40589552  1
  Rh  Rh238  1  0.39233403  0.80799918  0.80584963  1
  Rh  Rh239  1  0.39722842  0.59580608  0.39862421  1
  Rh  Rh240  1  0.61121464  0.19875810  0.40468467  1
  Rh  Rh241  1  0.59535246  0.18863290  0.19588346  1
  Rh  Rh242  1  0.18937787  0.79350009  0.21075683  1
  Rh  Rh243  1  0.39742524  0.59158543  0.79259474  1
  Rh  Rh244  1  0.40286234  0.39786863  0.21096270  1
  Rh  Rh245  1  0.18471646  0.20116096  0.80664951  1
  Rh  Rh246  1  0.60009847  0.19250558  0.79638264  1
  Rh  Rh247  1  0.00083895  0.19204802  -0.00426550  1
  Rh  Rh248  1  -0.01433250  0.79125151  0.01386597  1
  Rh  Rh249  1  0.79721238  0.80174132  0.80319555  1
