# generated using pymatgen
data_ZrScNbPdRh
_symmetry_space_group_name_H-M   'P 1'
_cell_length_a   16.56421622
_cell_length_b   16.56008645
_cell_length_c   16.56720964
_cell_angle_alpha   90.01637165
_cell_angle_beta   89.99706845
_cell_angle_gamma   89.99540859
_symmetry_Int_Tables_number   1
_chemical_formula_structural   ZrScNbPdRh
_chemical_formula_sum   'Zr50 Sc50 Nb50 Pd50 Rh50'
_cell_volume   4544.46579107
_cell_formula_units_Z   50
loop_
 _symmetry_equiv_pos_site_id
 _symmetry_equiv_pos_as_xyz
  1  'x, y, z'
loop_
 _atom_site_type_symbol
 _atom_site_label
 _atom_site_symmetry_multiplicity
 _atom_site_fract_x
 _atom_site_fract_y
 _atom_site_fract_z
 _atom_site_occupancy
  Zr  Zr0  1  0.70661775  0.90267516  0.69158888  1
  Zr  Zr1  1  0.29460057  0.69599684  0.69690490  1
  Zr  Zr2  1  0.51097360  0.89409971  0.49012827  1
  Zr  Zr3  1  0.10407620  0.90031311  0.69881445  1
  Zr  Zr4  1  0.89855975  0.09543589  0.29246359  1
  Zr  Zr5  1  0.49811759  0.90064434  0.29652954  1
  Zr  Zr6  1  0.90504240  0.70060625  0.30009840  1
  Zr  Zr7  1  0.89477886  0.30653733  0.71099184  1
  Zr  Zr8  1  0.10596484  0.09818166  0.50275370  1
  Zr  Zr9  1  0.70366870  0.10121261  0.90336511  1
  Zr  Zr10  1  0.88942941  0.10401818  0.69988499  1
  Zr  Zr11  1  0.09933452  0.30389481  0.30468615  1
  Zr  Zr12  1  0.29407545  0.09620007  0.08870468  1
  Zr  Zr13  1  0.50306476  0.29395556  0.70065556  1
  Zr  Zr14  1  0.09713289  0.70225723  0.10744665  1
  Zr  Zr15  1  0.50100847  0.09778846  0.30247826  1
  Zr  Zr16  1  0.10026559  0.89991128  0.50410517  1
  Zr  Zr17  1  0.70672695  0.89547580  0.49910124  1
  Zr  Zr18  1  0.90279802  0.30424309  0.29828643  1
  Zr  Zr19  1  0.49888672  0.30107716  0.10040219  1
  Zr  Zr20  1  0.29342293  0.30737609  0.69110878  1
  Zr  Zr21  1  0.89846294  0.69854166  0.69115399  1
  Zr  Zr22  1  0.30741838  0.90042343  0.10109299  1
  Zr  Zr23  1  0.10277347  0.69692259  0.49865873  1
  Zr  Zr24  1  0.31831194  0.69105502  0.90138461  1
  Zr  Zr25  1  0.29297469  0.89732539  0.69930119  1
  Zr  Zr26  1  0.69650944  0.69661448  0.49769075  1
  Zr  Zr27  1  0.90390286  0.10936499  0.90386125  1
  Zr  Zr28  1  0.69979950  0.70496369  0.09167261  1
  Zr  Zr29  1  0.90340868  0.90621878  0.10431242  1
  Zr  Zr30  1  0.70539523  0.49586083  0.50587679  1
  Zr  Zr31  1  0.90413067  0.89423173  0.69125503  1
  Zr  Zr32  1  0.89784381  0.30442257  0.89652964  1
  Zr  Zr33  1  0.29701762  0.09625560  0.30464883  1
  Zr  Zr34  1  0.09648239  0.50570064  0.10752521  1
  Zr  Zr35  1  0.29366277  0.89812413  0.29523672  1
  Zr  Zr36  1  0.70683072  0.09919015  0.10464045  1
  Zr  Zr37  1  0.49750850  0.29692407  0.90437148  1
  Zr  Zr38  1  0.29558063  0.49907149  0.88960976  1
  Zr  Zr39  1  0.69607168  0.90386874  0.10030757  1
  Zr  Zr40  1  0.89271339  0.89372325  0.49740973  1
  Zr  Zr41  1  0.30521268  0.50149648  0.11394788  1
  Zr  Zr42  1  0.11241158  0.10251106  0.90583060  1
  Zr  Zr43  1  0.69629229  0.30171182  0.10890152  1
  Zr  Zr44  1  0.50948380  0.90713306  0.69985365  1
  Zr  Zr45  1  0.68940118  0.10099379  0.70261754  1
  Zr  Zr46  1  0.49069582  0.10694635  0.88652367  1
  Zr  Zr47  1  0.49996152  0.10855043  0.49302313  1
  Zr  Zr48  1  0.49726557  0.49626568  0.11106843  1
  Zr  Zr49  1  0.30211219  0.28797225  0.90344557  1
  Sc  Sc50  1  0.09859465  0.89679131  0.29600101  1
  Sc  Sc51  1  0.69585274  0.90723866  0.30360410  1
  Sc  Sc52  1  0.89385229  0.30458070  0.49001583  1
  Sc  Sc53  1  0.09926577  0.29927891  0.88953935  1
  Sc  Sc54  1  0.50551177  0.09580377  0.10124705  1
  Sc  Sc55  1  0.48886604  0.69523417  0.09365248  1
  Sc  Sc56  1  0.69511703  0.30535681  0.49320919  1
  Sc  Sc57  1  0.29743291  0.50074641  0.69595431  1
  Sc  Sc58  1  0.28821533  0.90100609  0.49693982  1
  Sc  Sc59  1  0.70047300  0.29685534  0.90128673  1
  Sc  Sc60  1  0.10264182  0.89869263  0.89707409  1
  Sc  Sc61  1  0.29316399  0.09973023  0.49547741  1
  Sc  Sc62  1  0.91072467  0.88672084  0.90740428  1
  Sc  Sc63  1  0.29974308  0.70391363  0.49022945  1
  Sc  Sc64  1  0.69489335  0.50568079  0.11308902  1
  Sc  Sc65  1  0.50619767  0.49669237  0.49991752  1
  Sc  Sc66  1  0.30536423  0.30610675  0.09937850  1
  Sc  Sc67  1  0.51207070  0.29109339  0.30720579  1
  Sc  Sc68  1  0.11291436  0.50208702  0.69929347  1
  Sc  Sc69  1  0.09697542  0.49838152  0.49875666  1
  Sc  Sc70  1  0.10081581  0.70165143  0.29846374  1
  Sc  Sc71  1  0.09597632  0.49244314  0.29672823  1
  Sc  Sc72  1  0.69463940  0.10778792  0.29543331  1
  Sc  Sc73  1  0.09415930  0.30612338  0.11089146  1
  Sc  Sc74  1  0.90188932  0.09475309  0.49484478  1
  Sc  Sc75  1  0.89631563  0.49770957  0.30079390  1
  Sc  Sc76  1  0.90560787  0.09827620  0.10051055  1
  Sc  Sc77  1  0.10070990  0.50199702  0.89185235  1
  Sc  Sc78  1  0.49622295  0.51050314  0.90644161  1
  Sc  Sc79  1  0.09987856  0.70723150  0.69525134  1
  Sc  Sc80  1  0.09634066  0.09590332  0.30540983  1
  Sc  Sc81  1  0.50608249  0.49876696  0.68881121  1
  Sc  Sc82  1  0.69668168  0.68429579  0.29754400  1
  Sc  Sc83  1  0.30351491  0.49563755  0.50772983  1
  Sc  Sc84  1  0.29501408  0.09673433  0.71031000  1
  Sc  Sc85  1  0.89937755  0.69596154  0.49934702  1
  Sc  Sc86  1  0.90490244  0.69709519  0.09172579  1
  Sc  Sc87  1  0.10337900  0.30092279  0.49674949  1
  Sc  Sc88  1  0.68644569  0.69374196  0.69961668  1
  Sc  Sc89  1  0.30734396  0.69997438  0.29581074  1
  Sc  Sc90  1  0.30355326  0.91054635  0.90066531  1
  Sc  Sc91  1  0.70613070  0.10377446  0.50347141  1
  Sc  Sc92  1  0.70542809  0.29913883  0.69861049  1
  Sc  Sc93  1  0.70793705  0.30281801  0.29996672  1
  Sc  Sc94  1  0.89944685  0.29703553  0.11002648  1
  Sc  Sc95  1  0.29127873  0.29803444  0.49947259  1
  Sc  Sc96  1  0.08489826  0.71154039  0.90095452  1
  Sc  Sc97  1  0.50105689  0.90387969  0.90852895  1
  Sc  Sc98  1  0.69110994  0.50945979  0.90504865  1
  Sc  Sc99  1  0.69726795  0.89193423  0.91503960  1
  Nb  Nb100  1  0.49931133  0.10239811  0.69818592  1
  Nb  Nb101  1  0.10146597  0.29935593  0.69314199  1
  Nb  Nb102  1  0.29558276  0.30444366  0.29519830  1
  Nb  Nb103  1  0.10741806  0.90361117  0.09986611  1
  Nb  Nb104  1  0.89792555  0.49937618  0.50999305  1
  Nb  Nb105  1  0.49474457  0.30498412  0.50404988  1
  Nb  Nb106  1  0.89398788  0.90051295  0.29843410  1
  Nb  Nb107  1  0.10306249  0.08862841  0.10215819  1
  Nb  Nb108  1  0.69705047  0.49787382  0.29914650  1
  Nb  Nb109  1  0.50089150  0.69887376  0.49375704  1
  Nb  Nb110  1  0.51510776  0.69901050  0.88871135  1
  Nb  Nb111  1  0.90189499  0.49975710  0.09782570  1
  Nb  Nb112  1  0.30770890  0.49590723  0.29805998  1
  Nb  Nb113  1  0.49186730  0.51254315  0.29843222  1
  Nb  Nb114  1  0.88664565  0.49665115  0.70077350  1
  Nb  Nb115  1  0.50492834  0.89766601  0.10178486  1
  Nb  Nb116  1  0.89256290  0.69694147  0.89873777  1
  Nb  Nb117  1  0.50250583  0.70205128  0.69845646  1
  Nb  Nb118  1  0.50058349  0.69700338  0.31407830  1
  Nb  Nb119  1  0.69740019  0.70150166  0.90017888  1
  Nb  Nb120  1  0.29664471  0.70028342  0.09815131  1
  Nb  Nb121  1  0.30345428  0.10074919  0.90501424  1
  Nb  Nb122  1  0.09992842  0.09903666  0.69875082  1
  Nb  Nb123  1  0.70220401  0.49540024  0.69830601  1
  Nb  Nb124  1  0.89563415  0.49980692  0.89683093  1
  Nb  Nb125  1  0.20750654  0.59252509  0.39373500  1
  Nb  Nb126  1  0.59549266  0.79701261  0.20012645  1
  Nb  Nb127  1  0.79790756  0.79360080  0.80359936  1
  Nb  Nb128  1  0.39456722  0.19955856  0.20480310  1
  Nb  Nb129  1  0.40174123  0.19594632  0.60144121  1
  Nb  Nb130  1  0.20155147  0.60305828  0.00317950  1
  Nb  Nb131  1  0.40397613  0.39667143  0.79831228  1
  Nb  Nb132  1  -0.00404823  0.40653362  -0.00237656  1
  Nb  Nb133  1  -0.00067015  0.00453562  0.79642566  1
  Nb  Nb134  1  0.80604115  -0.00722598  0.80394433  1
  Nb  Nb135  1  0.40794212  0.61255274  0.59541413  1
  Nb  Nb136  1  -0.00632154  0.39918895  0.60724190  1
  Nb  Nb137  1  0.20599332  0.79602994  0.00621099  1
  Nb  Nb138  1  0.40870393  0.79562293  0.79444153  1
  Nb  Nb139  1  -0.01347089  0.59857686  0.79698819  1
  Nb  Nb140  1  0.80412827  0.40740118  0.00371554  1
  Nb  Nb141  1  0.79705552  0.60055641  0.80157124  1
  Nb  Nb142  1  0.79769587  0.80182741  0.20110934  1
  Nb  Nb143  1  0.59670367  0.40115896  0.80013723  1
  Nb  Nb144  1  0.00220062  0.20507598  0.60610851  1
  Nb  Nb145  1  0.40033940  0.39907519  0.39443356  1
  Nb  Nb146  1  0.20266970  0.19827581  0.20110087  1
  Nb  Nb147  1  0.19609811  0.40731759  0.00195348  1
  Nb  Nb148  1  0.40529281  0.00144091  0.60014091  1
  Nb  Nb149  1  0.40683783  0.80059813  0.60079859  1
  Pd  Pd150  1  0.00720288  0.40928001  0.79462627  1
  Pd  Pd151  1  0.80572102  0.60393803  0.19686587  1
  Pd  Pd152  1  0.40063416  0.00732100  0.19508779  1
  Pd  Pd153  1  -0.00487666  0.80480656  0.19846184  1
  Pd  Pd154  1  0.79636929  0.59510006  -0.00006579  1
  Pd  Pd155  1  0.60739835  0.40416092  -0.00256694  1
  Pd  Pd156  1  0.00870093  0.21031300  0.00685185  1
  Pd  Pd157  1  0.00407445  0.19463616  0.79521956  1
  Pd  Pd158  1  0.18497865  0.61663707  0.80964648  1
  Pd  Pd159  1  0.00401184  0.58955863  0.60782933  1
  Pd  Pd160  1  0.59961655  0.20590942  0.59312591  1
  Pd  Pd161  1  0.39311028  0.21136488  0.40048702  1
  Pd  Pd162  1  0.59539247  0.40514766  0.39388123  1
  Pd  Pd163  1  0.79190240  0.79221939  0.38768192  1
  Pd  Pd164  1  0.60432517  0.81053541  0.80192846  1
  Pd  Pd165  1  0.00648412  0.59595722  -0.00940108  1
  Pd  Pd166  1  0.00915876  0.19188964  0.19823287  1
  Pd  Pd167  1  0.59511263  0.39924839  0.21310344  1
  Pd  Pd168  1  0.00561740  -0.00142729  -0.00739363  1
  Pd  Pd169  1  0.59435704  0.00942287  -0.00439792  1
  Pd  Pd170  1  0.39180619  0.40873295  -0.00682143  1
  Pd  Pd171  1  0.60085190  0.79651506  0.59711565  1
  Pd  Pd172  1  0.00525556  0.59242362  0.39583239  1
  Pd  Pd173  1  -0.00438800  0.00705131  0.60189621  1
  Pd  Pd174  1  0.20629473  0.40762914  0.40352831  1
  Pd  Pd175  1  0.80203572  0.21102784  0.00905634  1
  Pd  Pd176  1  0.40321899  0.80119966  -0.00815798  1
  Pd  Pd177  1  0.60145307  0.58844046  0.40296740  1
  Pd  Pd178  1  0.79481458  0.00755874  0.39610332  1
  Pd  Pd179  1  0.00021241  0.20129324  0.40939929  1
  Pd  Pd180  1  0.80424502  0.59422064  0.40199654  1
  Pd  Pd181  1  0.80871248  -0.00554154  -0.00727155  1
  Pd  Pd182  1  0.21040320  0.79399415  0.81545312  1
  Pd  Pd183  1  0.41145012  0.59384854  0.78615986  1
  Pd  Pd184  1  0.59446144  0.60151545  0.00870593  1
  Pd  Pd185  1  0.20208230  0.60209445  0.20744025  1
  Pd  Pd186  1  0.40706782  0.79212244  0.20158868  1
  Pd  Pd187  1  0.20366013  0.20189005  0.79484707  1
  Pd  Pd188  1  0.80651304  0.20790071  0.59394604  1
  Pd  Pd189  1  0.39514983  -0.00929804  0.40906383  1
  Pd  Pd190  1  0.00152589  0.80362858  0.40271673  1
  Pd  Pd191  1  0.79869449  0.19805960  0.39567420  1
  Pd  Pd192  1  0.59823204  0.00510253  0.58724446  1
  Pd  Pd193  1  0.59792632  0.19363587  0.00101762  1
  Pd  Pd194  1  0.39934096  -0.00572307  0.79458570  1
  Pd  Pd195  1  0.60942238  -0.00584633  0.81189801  1
  Pd  Pd196  1  0.00034883  -0.00886153  0.39617323  1
  Pd  Pd197  1  0.39378438  0.80767635  0.40353294  1
  Pd  Pd198  1  0.18954995  0.21452419  0.01259758  1
  Pd  Pd199  1  0.61003538  0.00852070  0.40440660  1
  Rh  Rh200  1  0.00481398  -0.00287285  0.20291341  1
  Rh  Rh201  1  0.20593580  0.39046356  0.80401891  1
  Rh  Rh202  1  0.20329408  0.79617226  0.59352509  1
  Rh  Rh203  1  0.20755635  0.60218527  0.58627876  1
  Rh  Rh204  1  0.40650527  0.18993739  0.01176350  1
  Rh  Rh205  1  0.18859795  0.40391647  0.59431896  1
  Rh  Rh206  1  0.78121171  0.41029113  0.81336842  1
  Rh  Rh207  1  -0.00977542  0.79915179  0.79323220  1
  Rh  Rh208  1  0.80454544  0.80121319  0.00349732  1
  Rh  Rh209  1  -0.00725871  0.59779735  0.20732341  1
  Rh  Rh210  1  0.41399522  0.38683286  0.21450137  1
  Rh  Rh211  1  0.58911684  0.60812066  0.20162822  1
  Rh  Rh212  1  0.40289292  0.61029322  0.20192150  1
  Rh  Rh213  1  0.79156976  0.19331654  0.80023242  1
  Rh  Rh214  1  0.79922906  0.40894934  0.39681632  1
  Rh  Rh215  1  0.60259618  0.59040138  0.79434404  1
  Rh  Rh216  1  -0.00783454  0.40469878  0.19816750  1
  Rh  Rh217  1  0.38934809  0.20519236  0.78900269  1
  Rh  Rh218  1  0.79156532  0.60244597  0.60343472  1
  Rh  Rh219  1  0.79096132  0.78711047  0.60342759  1
  Rh  Rh220  1  0.20053598  0.19366891  0.60245801  1
  Rh  Rh221  1  0.59814329  0.59782073  0.59545246  1
  Rh  Rh222  1  0.40080765  0.39715693  0.59835553  1
  Rh  Rh223  1  0.60703616  0.20248459  0.40455280  1
  Rh  Rh224  1  0.39447208  0.58977341  0.40739579  1
  Rh  Rh225  1  0.20001134  -0.01046052  -0.00480280  1
  Rh  Rh226  1  0.79978992  0.40539160  0.19659780  1
  Rh  Rh227  1  0.20863688  0.00449862  0.60251026  1
  Rh  Rh228  1  0.58798812  0.79208892  0.00524256  1
  Rh  Rh229  1  -0.00700095  0.40532659  0.40955936  1
  Rh  Rh230  1  0.80297583  0.19884262  0.20151239  1
  Rh  Rh231  1  0.59539340  0.20039215  0.19884130  1
  Rh  Rh232  1  0.00741321  0.80431283  0.01132754  1
  Rh  Rh233  1  0.80287254  0.39254931  0.59490989  1
  Rh  Rh234  1  0.60827706  0.79498566  0.38835034  1
  Rh  Rh235  1  0.19894042  0.39498344  0.19498524  1
  Rh  Rh236  1  0.60029699  -0.00414993  0.20061328  1
  Rh  Rh237  1  0.19680374  0.00384237  0.20336451  1
  Rh  Rh238  1  0.19808813  0.79160842  0.39334770  1
  Rh  Rh239  1  0.60535783  0.20554683  0.80249665  1
  Rh  Rh240  1  0.80141080  0.00395432  0.60044651  1
  Rh  Rh241  1  0.19652418  0.20016617  0.39155769  1
  Rh  Rh242  1  0.00325242  0.79688062  0.59050066  1
  Rh  Rh243  1  0.40721728  0.00457109  0.00125422  1
  Rh  Rh244  1  0.39549113  0.59110980  0.00693810  1
  Rh  Rh245  1  0.19228041  -0.00550685  0.39613531  1
  Rh  Rh246  1  0.60616748  0.39509607  0.60576818  1
  Rh  Rh247  1  0.19349449  0.00355688  0.80547225  1
  Rh  Rh248  1  0.79672856  -0.00233480  0.20363511  1
  Rh  Rh249  1  0.20237041  0.80164046  0.19544736  1
