# generated using pymatgen
data_ZrScNbPdRh
_symmetry_space_group_name_H-M   'P 1'
_cell_length_a   16.55552020
_cell_length_b   16.55452629
_cell_length_c   16.55623514
_cell_angle_alpha   89.98711165
_cell_angle_beta   90.02619766
_cell_angle_gamma   89.96288263
_symmetry_Int_Tables_number   1
_chemical_formula_structural   ZrScNbPdRh
_chemical_formula_sum   'Zr50 Sc50 Nb50 Pd50 Rh50'
_cell_volume   4537.54586218
_cell_formula_units_Z   50
loop_
 _symmetry_equiv_pos_site_id
 _symmetry_equiv_pos_as_xyz
  1  'x, y, z'
loop_
 _atom_site_type_symbol
 _atom_site_label
 _atom_site_symmetry_multiplicity
 _atom_site_fract_x
 _atom_site_fract_y
 _atom_site_fract_z
 _atom_site_occupancy
  Zr  Zr0  1  0.89928144  0.29530059  0.89678483  1
  Zr  Zr1  1  0.69734685  0.70971369  0.30212401  1
  Zr  Zr2  1  0.29822234  0.89814254  0.48755450  1
  Zr  Zr3  1  0.49343709  0.70204228  0.49538521  1
  Zr  Zr4  1  0.90213489  0.30850597  0.49797052  1
  Zr  Zr5  1  0.29316244  0.49959675  0.10045973  1
  Zr  Zr6  1  0.70407571  0.50097520  0.50517582  1
  Zr  Zr7  1  0.29754979  0.09598308  0.70478047  1
  Zr  Zr8  1  0.90628542  0.70036216  0.69347812  1
  Zr  Zr9  1  0.30280128  0.29429376  0.29760675  1
  Zr  Zr10  1  0.69559004  0.30264298  0.89730788  1
  Zr  Zr11  1  0.70092861  0.89298059  0.90369636  1
  Zr  Zr12  1  0.29009619  0.91274903  0.89818192  1
  Zr  Zr13  1  0.49475133  0.70315264  0.10288002  1
  Zr  Zr14  1  0.90428782  0.50372156  0.09225332  1
  Zr  Zr15  1  0.49927588  0.89406819  0.70629684  1
  Zr  Zr16  1  0.69941371  0.69084603  0.10112261  1
  Zr  Zr17  1  0.50499068  0.30256324  0.90099129  1
  Zr  Zr18  1  0.69768634  0.89228748  0.48700935  1
  Zr  Zr19  1  0.49983651  0.89757966  0.29750574  1
  Zr  Zr20  1  0.70165990  0.88934123  0.70055159  1
  Zr  Zr21  1  0.50782359  0.10509784  0.31350404  1
  Zr  Zr22  1  0.89466805  0.89193638  0.29168883  1
  Zr  Zr23  1  0.91154022  0.30312053  0.30413724  1
  Zr  Zr24  1  0.69655802  0.29992018  0.09593178  1
  Zr  Zr25  1  0.70403569  0.10218080  0.10728894  1
  Zr  Zr26  1  0.30008152  0.69482309  0.70021621  1
  Zr  Zr27  1  0.10042506  0.50624532  0.90810898  1
  Zr  Zr28  1  0.70057996  0.49745704  0.69799518  1
  Zr  Zr29  1  0.10521673  0.89398866  0.09321411  1
  Zr  Zr30  1  0.69456950  0.30042827  0.29726237  1
  Zr  Zr31  1  0.89878302  0.11092095  0.49918419  1
  Zr  Zr32  1  0.30416183  0.49796295  0.50558291  1
  Zr  Zr33  1  0.49436355  0.09779097  0.70230930  1
  Zr  Zr34  1  0.49751481  0.30289758  0.29504500  1
  Zr  Zr35  1  0.69658959  0.50738515  0.29641274  1
  Zr  Zr36  1  0.30032941  0.50982054  0.29924854  1
  Zr  Zr37  1  0.69421832  0.50003550  0.09758692  1
  Zr  Zr38  1  0.49635042  0.70163650  0.70591702  1
  Zr  Zr39  1  0.90090423  0.50084996  0.89739820  1
  Zr  Zr40  1  0.11007258  0.09428456  0.89476986  1
  Zr  Zr41  1  0.50661951  0.10145665  0.90076942  1
  Zr  Zr42  1  0.30308134  0.09576270  0.30646007  1
  Zr  Zr43  1  0.09208361  0.90197995  0.69490280  1
  Zr  Zr44  1  0.70040633  0.90415919  0.10949208  1
  Zr  Zr45  1  0.10127943  0.50437466  0.29769689  1
  Zr  Zr46  1  0.30631531  0.10245335  0.50519970  1
  Zr  Zr47  1  0.09975425  0.69276761  0.89761426  1
  Zr  Zr48  1  0.50125733  0.30748638  0.10646777  1
  Zr  Zr49  1  0.29830860  0.30572325  0.09771048  1
  Sc  Sc50  1  0.10072805  0.69661895  0.10241670  1
  Sc  Sc51  1  0.51178782  0.09772495  0.10067801  1
  Sc  Sc52  1  0.89876432  0.10922940  0.09851695  1
  Sc  Sc53  1  0.90676810  0.29812394  0.09549474  1
  Sc  Sc54  1  0.49461791  0.69971443  0.89573968  1
  Sc  Sc55  1  0.30303756  0.69507535  0.10221678  1
  Sc  Sc56  1  0.50192280  0.49531533  0.89181450  1
  Sc  Sc57  1  0.90038330  0.70463303  0.10004128  1
  Sc  Sc58  1  0.91126724  0.10313463  0.69665998  1
  Sc  Sc59  1  0.90218009  0.49785164  0.50274889  1
  Sc  Sc60  1  0.29132117  0.09746470  0.10621593  1
  Sc  Sc61  1  0.30006743  0.89893481  0.30068045  1
  Sc  Sc62  1  0.10031061  0.89836337  0.49669982  1
  Sc  Sc63  1  0.90278970  0.69581253  0.49878812  1
  Sc  Sc64  1  0.90175238  0.10810656  0.28727031  1
  Sc  Sc65  1  0.10396401  0.88415529  0.29596118  1
  Sc  Sc66  1  0.09834923  0.29251539  0.69327991  1
  Sc  Sc67  1  0.69474906  0.10791604  0.91288610  1
  Sc  Sc68  1  0.50478528  0.30793858  0.70898524  1
  Sc  Sc69  1  0.09388481  0.69522579  0.49982584  1
  Sc  Sc70  1  0.70471094  0.49781320  0.89874312  1
  Sc  Sc71  1  0.69889008  0.69567226  0.90168748  1
  Sc  Sc72  1  0.29794538  0.50181041  0.69444018  1
  Sc  Sc73  1  0.30419624  0.69383522  0.90161704  1
  Sc  Sc74  1  0.10358670  0.28741221  0.90578690  1
  Sc  Sc75  1  0.48576956  0.30205651  0.50185231  1
  Sc  Sc76  1  0.49631582  0.89715180  0.89516352  1
  Sc  Sc77  1  0.49864842  0.50308617  0.11076843  1
  Sc  Sc78  1  0.90381636  0.88736531  0.50193893  1
  Sc  Sc79  1  0.49669405  0.89867794  0.49065295  1
  Sc  Sc80  1  0.10026095  0.10094733  0.69658153  1
  Sc  Sc81  1  0.90785271  0.49671891  0.30846753  1
  Sc  Sc82  1  0.30815504  0.90346346  0.70333805  1
  Sc  Sc83  1  0.70349591  0.30340180  0.70288754  1
  Sc  Sc84  1  0.71077829  0.30645429  0.50663522  1
  Sc  Sc85  1  0.89441985  0.69816336  0.90960547  1
  Sc  Sc86  1  0.09514433  0.29498776  0.50111982  1
  Sc  Sc87  1  0.29853224  0.49847303  0.90728915  1
  Sc  Sc88  1  0.89584264  0.50469872  0.69734386  1
  Sc  Sc89  1  0.91044841  0.69969057  0.29770121  1
  Sc  Sc90  1  0.09769193  0.50469597  0.50390985  1
  Sc  Sc91  1  0.69547276  0.10060373  0.49158157  1
  Sc  Sc92  1  0.69814292  0.70339556  0.50030631  1
  Sc  Sc93  1  0.29774602  0.30416977  0.68906956  1
  Sc  Sc94  1  0.29894733  0.89862141  0.10562316  1
  Sc  Sc95  1  0.69845896  0.69654257  0.70040974  1
  Sc  Sc96  1  0.09884464  0.11383163  0.29883959  1
  Sc  Sc97  1  0.10491911  0.10008452  0.50083172  1
  Sc  Sc98  1  0.90066559  0.29605809  0.69161560  1
  Sc  Sc99  1  0.10279920  0.10580724  0.09742932  1
  Nb  Nb100  1  0.10500550  0.49743996  0.09655085  1
  Nb  Nb101  1  0.29312799  0.30550387  0.50243063  1
  Nb  Nb102  1  0.70214433  0.90560261  0.30223284  1
  Nb  Nb103  1  0.29963312  0.30182109  0.90172723  1
  Nb  Nb104  1  0.10898752  0.69082220  0.30492494  1
  Nb  Nb105  1  0.09965327  0.89748921  0.89868595  1
  Nb  Nb106  1  0.10232171  0.69468526  0.70273111  1
  Nb  Nb107  1  0.90399591  0.09910704  0.89899843  1
  Nb  Nb108  1  0.90209496  0.89872644  0.09689580  1
  Nb  Nb109  1  0.09744667  0.30489368  0.30170705  1
  Nb  Nb110  1  0.89954511  0.89669446  0.90199063  1
  Nb  Nb111  1  0.10019477  0.51682583  0.71060727  1
  Nb  Nb112  1  0.10324731  0.30845933  0.10722006  1
  Nb  Nb113  1  0.29330660  0.69986903  0.49762217  1
  Nb  Nb114  1  0.29637844  0.10494220  0.90258985  1
  Nb  Nb115  1  0.70356039  0.10042816  0.69638019  1
  Nb  Nb116  1  0.49916158  0.90151799  0.09654855  1
  Nb  Nb117  1  0.50290824  0.09918308  0.50379952  1
  Nb  Nb118  1  0.49256434  0.69243032  0.29750786  1
  Nb  Nb119  1  0.29244178  0.69806952  0.31054708  1
  Nb  Nb120  1  0.50204799  0.49940710  0.50159417  1
  Nb  Nb121  1  0.50257098  0.49906388  0.68874435  1
  Nb  Nb122  1  0.49865115  0.50364708  0.30458424  1
  Nb  Nb123  1  0.89903283  0.89967502  0.70212087  1
  Nb  Nb124  1  0.70250426  0.09893370  0.29960722  1
  Nb  Nb125  1  0.39578686  0.19922195  -0.00215297  1
  Nb  Nb126  1  -0.00034588  0.80326038  0.80132053  1
  Nb  Nb127  1  0.20079008  0.79365809  0.60284263  1
  Nb  Nb128  1  0.00790836  0.40362016  0.79931599  1
  Nb  Nb129  1  0.79769161  -0.00304123  0.60006592  1
  Nb  Nb130  1  0.20229976  0.39543190  0.40020853  1
  Nb  Nb131  1  0.59780583  0.19366297  0.60063182  1
  Nb  Nb132  1  0.61023200  0.00124413  0.79509666  1
  Nb  Nb133  1  0.80396334  0.00096967  0.80090470  1
  Nb  Nb134  1  0.80804808  -0.00287837  -0.00292840  1
  Nb  Nb135  1  -0.00201277  -0.00653392  0.19396989  1
  Nb  Nb136  1  0.80146701  0.40287147  0.19911530  1
  Nb  Nb137  1  0.19328564  0.40205421  0.80094091  1
  Nb  Nb138  1  -0.00698107  -0.00014940  0.39048674  1
  Nb  Nb139  1  0.60250010  0.00009667  0.59981115  1
  Nb  Nb140  1  0.39355087  0.20311599  0.80848262  1
  Nb  Nb141  1  0.39924307  0.00505492  -0.00036531  1
  Nb  Nb142  1  0.79862812  0.20077735  0.39374725  1
  Nb  Nb143  1  0.19272773  0.79875402  0.79669905  1
  Nb  Nb144  1  0.59537712  0.80222505  0.00816523  1
  Nb  Nb145  1  0.59242636  0.40858431  0.40233940  1
  Nb  Nb146  1  0.80017391  0.19067025  0.80172594  1
  Nb  Nb147  1  0.80248691  0.00191841  0.39446809  1
  Nb  Nb148  1  0.79818580  0.59966567  0.39779105  1
  Nb  Nb149  1  -0.00204299  -0.00563468  -0.00396505  1
  Pd  Pd150  1  0.80074689  0.39834807  0.00408615  1
  Pd  Pd151  1  0.39754440  0.58746144  0.79855821  1
  Pd  Pd152  1  -0.00104706  -0.00250890  0.80327072  1
  Pd  Pd153  1  0.40398165  0.20809513  0.60884305  1
  Pd  Pd154  1  0.00572467  0.19458063  0.00187163  1
  Pd  Pd155  1  0.80053594  0.79830337  0.59519750  1
  Pd  Pd156  1  0.40449505  -0.00957673  0.59204566  1
  Pd  Pd157  1  0.39722710  0.60140107  0.40444769  1
  Pd  Pd158  1  0.00367152  0.80000311  0.39770384  1
  Pd  Pd159  1  0.00605740  0.40730619  0.60972307  1
  Pd  Pd160  1  0.59728994  0.79775243  0.19996025  1
  Pd  Pd161  1  0.59695562  0.60794064  0.60011141  1
  Pd  Pd162  1  0.20868938  0.79269965  -0.00651257  1
  Pd  Pd163  1  -0.00751808  0.00109114  0.58679176  1
  Pd  Pd164  1  0.18631550  -0.00007041  0.38953114  1
  Pd  Pd165  1  0.80194866  0.60620512  0.79926765  1
  Pd  Pd166  1  0.59977098  0.59706338  0.79990550  1
  Pd  Pd167  1  0.39275487  0.80470121  0.59669110  1
  Pd  Pd168  1  0.40293501  0.60055574  0.59964299  1
  Pd  Pd169  1  0.79849874  0.79413834  0.19557222  1
  Pd  Pd170  1  0.40627074  0.59098495  0.00067958  1
  Pd  Pd171  1  0.00115443  0.60022790  0.19670022  1
  Pd  Pd172  1  0.18837715  -0.00007128  0.20742089  1
  Pd  Pd173  1  0.20297224  0.40024942  0.20868115  1
  Pd  Pd174  1  0.40458683  0.00638304  0.19563064  1
  Pd  Pd175  1  0.81099762  0.59577766  0.20610016  1
  Pd  Pd176  1  0.40597193  0.40248713  0.00207254  1
  Pd  Pd177  1  0.00666159  0.39405907  -0.00751667  1
  Pd  Pd178  1  0.80312331  0.21298328  0.20290525  1
  Pd  Pd179  1  0.39782814  0.40054206  0.39785016  1
  Pd  Pd180  1  0.39708297  0.80912361  -0.00482889  1
  Pd  Pd181  1  0.19998282  0.20505945  0.40553582  1
  Pd  Pd182  1  0.20343307  -0.00782045  0.60146268  1
  Pd  Pd183  1  0.40439725  0.18815785  0.19134819  1
  Pd  Pd184  1  0.80700454  0.79322667  0.80133758  1
  Pd  Pd185  1  0.38997610  0.40081567  0.79265089  1
  Pd  Pd186  1  -0.00436220  0.40409427  0.19597207  1
  Pd  Pd187  1  0.60371697  0.60132629  0.40360216  1
  Pd  Pd188  1  0.18792759  0.40481469  0.60295562  1
  Pd  Pd189  1  0.59541540  0.00310956  0.20751348  1
  Pd  Pd190  1  0.20551673  0.79050743  0.20094608  1
  Pd  Pd191  1  0.19753019  0.20251304  0.19875995  1
  Pd  Pd192  1  0.59059220  0.60227465  -0.00556106  1
  Pd  Pd193  1  0.59498567  0.79962752  0.59710346  1
  Pd  Pd194  1  0.39224105  0.79703198  0.20686670  1
  Pd  Pd195  1  0.59614370  0.38858838  0.59447535  1
  Pd  Pd196  1  0.39875628  0.20161229  0.40561839  1
  Pd  Pd197  1  0.00152596  0.79642433  -0.00345614  1
  Pd  Pd198  1  0.60460369  0.21616741  0.41331640  1
  Pd  Pd199  1  0.20407738  0.20958070  0.79217754  1
  Rh  Rh200  1  0.59921025  0.79715361  0.81044072  1
  Rh  Rh201  1  0.40464440  0.00702316  0.81156656  1
  Rh  Rh202  1  0.19896712  0.60455944  0.19534538  1
  Rh  Rh203  1  0.60231428  0.19441989  0.79047004  1
  Rh  Rh204  1  0.59177252  0.60501034  0.20193354  1
  Rh  Rh205  1  0.21059052  0.59677920  0.80525001  1
  Rh  Rh206  1  0.19581570  0.79412985  0.40599415  1
  Rh  Rh207  1  0.20296581  0.19628299  0.59682727  1
  Rh  Rh208  1  0.40363566  0.00137398  0.40025947  1
  Rh  Rh209  1  0.01684644  0.40381998  0.40465726  1
  Rh  Rh210  1  0.80891468  0.38994467  0.79593837  1
  Rh  Rh211  1  0.39799320  0.79452983  0.39256257  1
  Rh  Rh212  1  0.00021873  0.59790527  0.60109936  1
  Rh  Rh213  1  0.78701604  0.40379930  0.38935058  1
  Rh  Rh214  1  0.60272896  0.40677448  0.20648257  1
  Rh  Rh215  1  0.19942568  0.00104490  0.00545360  1
  Rh  Rh216  1  0.00863489  0.20236426  0.19297642  1
  Rh  Rh217  1  0.00677782  0.79522865  0.60384377  1
  Rh  Rh218  1  -0.00423272  0.20578874  0.79650540  1
  Rh  Rh219  1  0.19416677  -0.00508228  0.78957636  1
  Rh  Rh220  1  0.19865367  0.59300976  0.40905617  1
  Rh  Rh221  1  0.40407772  0.39958860  0.60462412  1
  Rh  Rh222  1  0.38613263  0.79922245  0.80697149  1
  Rh  Rh223  1  0.59726354  0.19437261  0.19931813  1
  Rh  Rh224  1  0.79533547  0.19736227  0.59796373  1
  Rh  Rh225  1  0.80565224  0.79486390  0.39763959  1
  Rh  Rh226  1  0.80767986  0.00259888  0.19853444  1
  Rh  Rh227  1  0.60238761  -0.00303162  0.40030670  1
  Rh  Rh228  1  0.80048773  0.60357275  0.59262161  1
  Rh  Rh229  1  0.59541173  0.40595798  -0.00087799  1
  Rh  Rh230  1  0.20170440  0.60400541  0.00496748  1
  Rh  Rh231  1  0.79981783  0.59911248  0.00033818  1
  Rh  Rh232  1  0.60005733  -0.01117994  -0.00678451  1
  Rh  Rh233  1  0.80513733  0.40254993  0.60863992  1
  Rh  Rh234  1  0.39467239  0.40837831  0.20483839  1
  Rh  Rh235  1  0.00688766  0.79864458  0.19815046  1
  Rh  Rh236  1  0.59005602  0.79702397  0.39233759  1
  Rh  Rh237  1  0.60465099  0.41013331  0.79716929  1
  Rh  Rh238  1  0.20339710  0.20488502  0.00836401  1
  Rh  Rh239  1  0.59329226  0.20765909  0.01010065  1
  Rh  Rh240  1  0.80028834  0.19664950  -0.00584229  1
  Rh  Rh241  1  0.00089103  0.60487055  0.00632553  1
  Rh  Rh242  1  0.78972142  0.80133031  0.00915973  1
  Rh  Rh243  1  0.00469551  0.19672313  0.59629296  1
  Rh  Rh244  1  0.39706279  0.60094986  0.20203315  1
  Rh  Rh245  1  0.19806132  0.60390364  0.59457410  1
  Rh  Rh246  1  -0.00445013  0.59914831  0.40072802  1
  Rh  Rh247  1  -0.01058283  0.60242188  0.80099831  1
  Rh  Rh248  1  0.19151859  0.39501020  -0.00532088  1
  Rh  Rh249  1  -0.00248975  0.19686468  0.39975308  1
