# generated using pymatgen
data_ZrScNbPdRh
_symmetry_space_group_name_H-M   'P 1'
_cell_length_a   16.55893464
_cell_length_b   16.56568806
_cell_length_c   16.56023644
_cell_angle_alpha   89.98818940
_cell_angle_beta   90.02166596
_cell_angle_gamma   90.02504545
_symmetry_Int_Tables_number   1
_chemical_formula_structural   ZrScNbPdRh
_chemical_formula_sum   'Zr50 Sc50 Nb50 Pd50 Rh50'
_cell_volume   4542.64001758
_cell_formula_units_Z   50
loop_
 _symmetry_equiv_pos_site_id
 _symmetry_equiv_pos_as_xyz
  1  'x, y, z'
loop_
 _atom_site_type_symbol
 _atom_site_label
 _atom_site_symmetry_multiplicity
 _atom_site_fract_x
 _atom_site_fract_y
 _atom_site_fract_z
 _atom_site_occupancy
  Zr  Zr0  1  0.70933560  0.90403147  0.69955570  1
  Zr  Zr1  1  0.09566470  0.69969683  0.09076086  1
  Zr  Zr2  1  0.50468669  0.69626618  0.09765660  1
  Zr  Zr3  1  0.69265257  0.69248456  0.49471466  1
  Zr  Zr4  1  0.69963819  0.70456522  0.71062269  1
  Zr  Zr5  1  0.89598916  0.29528271  0.69985279  1
  Zr  Zr6  1  0.30569122  0.30211763  0.71288776  1
  Zr  Zr7  1  0.88450014  0.49784148  0.50048074  1
  Zr  Zr8  1  0.49117598  0.89742897  0.30103098  1
  Zr  Zr9  1  0.30214054  0.50028342  0.49784488  1
  Zr  Zr10  1  0.70129225  0.50005640  0.89639260  1
  Zr  Zr11  1  0.50447141  0.29926649  0.30266048  1
  Zr  Zr12  1  0.70672160  0.30510989  0.49401566  1
  Zr  Zr13  1  0.09873656  0.89348458  0.90959861  1
  Zr  Zr14  1  0.50209635  0.29882767  0.69852279  1
  Zr  Zr15  1  0.30188388  0.49419512  0.69220874  1
  Zr  Zr16  1  0.08982105  0.69432805  0.69313760  1
  Zr  Zr17  1  0.90019336  0.51082094  0.29279319  1
  Zr  Zr18  1  0.29223605  0.10372920  0.09948072  1
  Zr  Zr19  1  0.09882534  0.29934356  0.28878255  1
  Zr  Zr20  1  0.09405616  0.29950001  0.70718019  1
  Zr  Zr21  1  0.30116103  0.70786925  0.90352325  1
  Zr  Zr22  1  0.70023468  0.09712930  0.50256629  1
  Zr  Zr23  1  0.89260361  0.90045551  0.30052676  1
  Zr  Zr24  1  0.50428323  0.69909996  0.29463259  1
  Zr  Zr25  1  0.90276414  0.69986011  0.90596944  1
  Zr  Zr26  1  0.30363972  0.69672441  0.09929573  1
  Zr  Zr27  1  0.50391578  0.90360888  0.49904555  1
  Zr  Zr28  1  0.30374212  0.70235547  0.30050418  1
  Zr  Zr29  1  0.70097511  0.50174327  0.69495139  1
  Zr  Zr30  1  0.71212017  0.10419538  0.30346091  1
  Zr  Zr31  1  0.70097573  0.29877176  0.69858685  1
  Zr  Zr32  1  0.28319395  0.30190827  0.09503059  1
  Zr  Zr33  1  0.90501884  0.09811553  0.30846988  1
  Zr  Zr34  1  0.50988190  0.89512185  0.10127683  1
  Zr  Zr35  1  0.09856601  0.10188531  0.69753979  1
  Zr  Zr36  1  0.09564229  0.09944228  0.49354833  1
  Zr  Zr37  1  0.89605998  0.10061334  0.70173373  1
  Zr  Zr38  1  0.69153482  0.49898970  0.09421715  1
  Zr  Zr39  1  0.29781022  0.09441691  0.50645961  1
  Zr  Zr40  1  0.10150270  0.49893209  0.50457886  1
  Zr  Zr41  1  0.51531747  0.09837872  0.90220088  1
  Zr  Zr42  1  0.30714305  0.30984522  0.50137953  1
  Zr  Zr43  1  0.30500922  0.49415748  0.09819532  1
  Zr  Zr44  1  0.89043268  0.29274205  0.29442481  1
  Zr  Zr45  1  0.10318949  0.10310553  0.10589277  1
  Zr  Zr46  1  0.09714228  0.90123092  0.49935492  1
  Zr  Zr47  1  0.50286890  0.71070307  0.90312011  1
  Zr  Zr48  1  0.70575230  0.70134502  0.29657767  1
  Zr  Zr49  1  0.50611862  0.50159953  0.90621646  1
  Sc  Sc50  1  0.50142319  0.30405372  0.88988485  1
  Sc  Sc51  1  0.50285610  0.08993346  0.30147453  1
  Sc  Sc52  1  0.70234412  0.89421105  0.30311888  1
  Sc  Sc53  1  0.50822056  0.90100688  0.70689054  1
  Sc  Sc54  1  0.89711659  0.90427138  0.90333696  1
  Sc  Sc55  1  0.50799289  0.31477183  0.10098595  1
  Sc  Sc56  1  0.10077956  0.29541623  0.49814604  1
  Sc  Sc57  1  0.51210019  0.09355416  0.10052325  1
  Sc  Sc58  1  0.70943653  0.31208822  0.10355317  1
  Sc  Sc59  1  0.30237464  0.91088832  0.69747850  1
  Sc  Sc60  1  0.29530362  0.89877854  0.09933949  1
  Sc  Sc61  1  0.89596858  0.30102475  0.88797203  1
  Sc  Sc62  1  0.50297662  0.49612931  0.69993058  1
  Sc  Sc63  1  0.30399498  0.70884054  0.49831809  1
  Sc  Sc64  1  0.88955696  0.89626030  0.50103614  1
  Sc  Sc65  1  0.70145386  0.09837561  0.70252650  1
  Sc  Sc66  1  0.69761303  0.30411593  0.89910055  1
  Sc  Sc67  1  0.10808608  0.30186957  0.90248592  1
  Sc  Sc68  1  0.90082321  0.09428095  0.11331124  1
  Sc  Sc69  1  0.30339939  0.89850065  0.89938265  1
  Sc  Sc70  1  0.30702609  0.70011537  0.69074271  1
  Sc  Sc71  1  0.51380473  0.29865438  0.49822872  1
  Sc  Sc72  1  0.50862289  0.09532775  0.49861841  1
  Sc  Sc73  1  0.89585054  0.50021751  0.70536249  1
  Sc  Sc74  1  0.50253626  0.70441717  0.50599509  1
  Sc  Sc75  1  0.08868364  0.49634096  0.89331441  1
  Sc  Sc76  1  0.30436926  0.31200674  0.29316211  1
  Sc  Sc77  1  0.89649619  0.49545825  0.89695841  1
  Sc  Sc78  1  0.50161826  0.50006041  0.28814139  1
  Sc  Sc79  1  0.29344129  0.10054446  0.70098359  1
  Sc  Sc80  1  0.09490639  0.90528390  0.69901358  1
  Sc  Sc81  1  0.89813491  0.89954837  0.09829882  1
  Sc  Sc82  1  0.09537358  0.09468542  0.90137913  1
  Sc  Sc83  1  0.09777326  0.91038326  0.30325533  1
  Sc  Sc84  1  0.89518848  0.70020373  0.50434767  1
  Sc  Sc85  1  0.09698831  0.90935355  0.09954300  1
  Sc  Sc86  1  0.09208398  0.69713796  0.50331649  1
  Sc  Sc87  1  0.30001187  0.08534888  0.29284753  1
  Sc  Sc88  1  0.09973357  0.49726746  0.10961093  1
  Sc  Sc89  1  0.29506657  0.10229133  0.89475699  1
  Sc  Sc90  1  0.70229236  0.89889709  0.90426151  1
  Sc  Sc91  1  0.50901210  0.50317736  0.50410433  1
  Sc  Sc92  1  0.51150781  0.09569662  0.69988597  1
  Sc  Sc93  1  0.70394814  0.89944199  0.09884945  1
  Sc  Sc94  1  0.69875731  0.50550919  0.30636035  1
  Sc  Sc95  1  0.30206460  0.48359544  0.90079376  1
  Sc  Sc96  1  0.30030740  0.49666567  0.28984619  1
  Sc  Sc97  1  0.09634135  0.09927474  0.29462470  1
  Sc  Sc98  1  0.30311622  0.90107040  0.49309131  1
  Sc  Sc99  1  0.90202783  0.10030479  0.89506895  1
  Nb  Nb100  1  0.69743688  0.10341139  0.09440994  1
  Nb  Nb101  1  0.49744523  0.90387891  0.90318844  1
  Nb  Nb102  1  0.90326387  0.29985390  0.49637570  1
  Nb  Nb103  1  0.89506021  0.69351611  0.10646344  1
  Nb  Nb104  1  0.69964769  0.10227328  0.91067748  1
  Nb  Nb105  1  0.09248144  0.68835715  0.29565984  1
  Nb  Nb106  1  0.90252866  0.10411940  0.49589157  1
  Nb  Nb107  1  0.89885227  0.71605372  0.70179868  1
  Nb  Nb108  1  0.70111336  0.50664385  0.50297007  1
  Nb  Nb109  1  0.89610459  0.89571190  0.69745628  1
  Nb  Nb110  1  0.09564701  0.50454231  0.30346767  1
  Nb  Nb111  1  0.69961855  0.70760839  0.09631790  1
  Nb  Nb112  1  0.50080507  0.69971347  0.70359788  1
  Nb  Nb113  1  0.09943918  0.49899958  0.69671243  1
  Nb  Nb114  1  0.89743167  0.69924145  0.29627709  1
  Nb  Nb115  1  0.69914311  0.29305340  0.30239688  1
  Nb  Nb116  1  0.88784875  0.49126389  0.09906470  1
  Nb  Nb117  1  0.50161911  0.50670567  0.09864912  1
  Nb  Nb118  1  0.09949301  0.69751221  0.89894989  1
  Nb  Nb119  1  0.09782346  0.29483601  0.10120531  1
  Nb  Nb120  1  0.30332111  0.29603763  0.90520720  1
  Nb  Nb121  1  0.29960885  0.89205475  0.30119973  1
  Nb  Nb122  1  0.70038146  0.90048003  0.49925074  1
  Nb  Nb123  1  0.89693917  0.30293739  0.10506941  1
  Nb  Nb124  1  0.70241165  0.70039917  0.90650226  1
  Nb  Nb125  1  -0.00376332  0.39920297  0.59737617  1
  Nb  Nb126  1  0.39943027  0.60274229  0.80018914  1
  Nb  Nb127  1  0.40142951  0.19966402  0.00174048  1
  Nb  Nb128  1  -0.00148409  0.79084433  0.20358481  1
  Nb  Nb129  1  0.40515714  0.20101356  0.19605083  1
  Nb  Nb130  1  0.39605086  0.19708936  0.39921833  1
  Nb  Nb131  1  -0.01085988  0.00313305  0.59982612  1
  Nb  Nb132  1  0.79865650  0.60334372  0.00417951  1
  Nb  Nb133  1  0.20901160  0.20071557  0.39702191  1
  Nb  Nb134  1  0.19326536  0.79265714  0.79578063  1
  Nb  Nb135  1  -0.00616304  0.39198844  0.00998907  1
  Nb  Nb136  1  -0.00463496  0.40051276  0.39886139  1
  Nb  Nb137  1  0.80256634  0.20058971  0.00448616  1
  Nb  Nb138  1  0.19513782  0.80258499  0.60350647  1
  Nb  Nb139  1  0.19829069  0.59963818  0.39529594  1
  Nb  Nb140  1  0.19246868  0.79505463  0.20816991  1
  Nb  Nb141  1  -0.00338847  0.79272421  0.38991824  1
  Nb  Nb142  1  -0.00121281  0.79784887  0.79900037  1
  Nb  Nb143  1  0.40598686  0.00435225  -0.00173728  1
  Nb  Nb144  1  -0.00495478  0.20711635  0.00850142  1
  Nb  Nb145  1  0.19738114  0.59835099  -0.00816790  1
  Nb  Nb146  1  0.40138696  0.20100897  0.59740390  1
  Nb  Nb147  1  0.60570743  0.20094098  0.20193656  1
  Nb  Nb148  1  0.39787858  0.59983269  0.39771342  1
  Nb  Nb149  1  0.20107020  0.60067942  0.79802882  1
  Pd  Pd150  1  0.19299309  0.38934164  0.60466902  1
  Pd  Pd151  1  -0.00758385  0.80340615  0.00443930  1
  Pd  Pd152  1  0.80087587  0.40258561  0.39056261  1
  Pd  Pd153  1  -0.00347615  0.40370901  0.20130306  1
  Pd  Pd154  1  0.39903210  0.00039850  0.19009620  1
  Pd  Pd155  1  0.60164161  0.21459306  0.00890380  1
  Pd  Pd156  1  0.79425522  -0.00199783  0.19816742  1
  Pd  Pd157  1  0.60522540  0.80181688  0.60430759  1
  Pd  Pd158  1  0.41339537  0.40634799  0.40026417  1
  Pd  Pd159  1  0.20436304  0.60922190  0.59648598  1
  Pd  Pd160  1  0.60425445  0.80806560  0.80541000  1
  Pd  Pd161  1  0.59879095  0.80047755  0.39776194  1
  Pd  Pd162  1  0.19277888  0.40049710  0.39162132  1
  Pd  Pd163  1  0.19668957  -0.00855372  0.80247848  1
  Pd  Pd164  1  0.39426297  0.79954036  0.79158846  1
  Pd  Pd165  1  -0.00380507  0.60167318  0.79657534  1
  Pd  Pd166  1  0.18737846  0.79174204  0.40025139  1
  Pd  Pd167  1  0.80477335  0.00848751  0.00219329  1
  Pd  Pd168  1  0.60112281  0.40963959  0.39806819  1
  Pd  Pd169  1  0.61157837  0.00165574  0.20565400  1
  Pd  Pd170  1  -0.00348691  0.59937098  0.40834225  1
  Pd  Pd171  1  0.80099344  0.61054134  0.60801151  1
  Pd  Pd172  1  0.40749508  0.39101088  0.00097431  1
  Pd  Pd173  1  0.20091832  0.60064019  0.19655222  1
  Pd  Pd174  1  0.79670378  0.19839522  0.59461298  1
  Pd  Pd175  1  0.60850575  0.39916908  0.20623918  1
  Pd  Pd176  1  0.40818841  0.00571590  0.60294531  1
  Pd  Pd177  1  0.19437424  0.19872141  0.80627557  1
  Pd  Pd178  1  0.39853621  0.81116465  0.60321758  1
  Pd  Pd179  1  0.40897967  0.59948284  0.59821762  1
  Pd  Pd180  1  0.60368282  0.40048217  0.59738130  1
  Pd  Pd181  1  0.39369211  0.59564270  -0.00940428  1
  Pd  Pd182  1  0.60696610  -0.00213866  0.39284272  1
  Pd  Pd183  1  0.20321781  0.00468396  0.39657723  1
  Pd  Pd184  1  -0.00190780  0.20042859  0.59832438  1
  Pd  Pd185  1  0.78829140  0.79396568  0.59332986  1
  Pd  Pd186  1  0.39598354  0.80259390  0.19273534  1
  Pd  Pd187  1  0.40390533  0.00812922  0.80473636  1
  Pd  Pd188  1  -0.00270671  -0.00820372  0.79697270  1
  Pd  Pd189  1  0.59362290  0.60053408  0.79905526  1
  Pd  Pd190  1  0.79700982  0.00173599  0.80686991  1
  Pd  Pd191  1  0.60689380  0.19861911  0.79859890  1
  Pd  Pd192  1  0.80499772  0.60595076  0.80388727  1
  Pd  Pd193  1  -0.01522069  0.59130983  0.60139583  1
  Pd  Pd194  1  0.20600900  -0.00003299  -0.00540796  1
  Pd  Pd195  1  0.78857722  0.59565603  0.19255368  1
  Pd  Pd196  1  0.20710253  0.20875867  0.59655691  1
  Pd  Pd197  1  0.19777680  0.40519258  0.80264998  1
  Pd  Pd198  1  -0.00336268  0.58422405  0.00637334  1
  Pd  Pd199  1  0.40453596  0.18988741  0.80097020  1
  Rh  Rh200  1  0.40399646  0.59609015  0.20147881  1
  Rh  Rh201  1  0.20017168  0.79636805  0.00370609  1
  Rh  Rh202  1  0.18647328  0.40824108  0.00045130  1
  Rh  Rh203  1  0.80186678  0.79482963  0.00185949  1
  Rh  Rh204  1  -0.00088410  0.39803308  0.79622744  1
  Rh  Rh205  1  0.79178993  0.19784323  0.19036097  1
  Rh  Rh206  1  0.40943621  0.79628236  0.40269360  1
  Rh  Rh207  1  0.19470457  0.40360635  0.19976490  1
  Rh  Rh208  1  0.60981332  -0.00310684  0.80615769  1
  Rh  Rh209  1  0.80467377  0.39889116  -0.00769064  1
  Rh  Rh210  1  -0.00472621  0.19540277  0.19883074  1
  Rh  Rh211  1  0.80341905  0.80194633  0.19504906  1
  Rh  Rh212  1  0.19070434  -0.00712143  0.60129028  1
  Rh  Rh213  1  -0.00334166  0.01184446  0.00516342  1
  Rh  Rh214  1  0.80605001  0.80148868  0.80937236  1
  Rh  Rh215  1  0.21106103  0.20269150  0.21160270  1
  Rh  Rh216  1  0.60284133  0.40195481  0.79608406  1
  Rh  Rh217  1  0.19487682  0.19623756  -0.00713784  1
  Rh  Rh218  1  0.80136776  0.79361670  0.40392683  1
  Rh  Rh219  1  0.00111462  0.81114617  0.59931659  1
  Rh  Rh220  1  0.59276068  0.59778670  0.39880821  1
  Rh  Rh221  1  0.79110646  0.19530150  0.81106277  1
  Rh  Rh222  1  -0.01196339  -0.01000388  0.40862374  1
  Rh  Rh223  1  0.60664626  0.60566074  0.00014586  1
  Rh  Rh224  1  0.20008937  -0.01424143  0.20382392  1
  Rh  Rh225  1  0.60490060  0.60315391  0.19589755  1
  Rh  Rh226  1  -0.00112052  -0.00734288  0.20081556  1
  Rh  Rh227  1  0.80200592  0.39666198  0.60197963  1
  Rh  Rh228  1  0.79926736  0.60413806  0.40118738  1
  Rh  Rh229  1  0.40377879  0.40668353  0.80146797  1
  Rh  Rh230  1  0.00678245  0.20884908  0.39338317  1
  Rh  Rh231  1  0.60307710  0.80375739  -0.00294117  1
  Rh  Rh232  1  0.79269291  0.40513404  0.21004453  1
  Rh  Rh233  1  0.00511647  0.20150960  0.81172027  1
  Rh  Rh234  1  0.60120647  0.60482717  0.60727201  1
  Rh  Rh235  1  0.60562320  -0.00726042  0.60216670  1
  Rh  Rh236  1  0.60146090  -0.00977503  -0.00203244  1
  Rh  Rh237  1  0.60697246  0.79998668  0.20178550  1
  Rh  Rh238  1  0.59629026  0.19226504  0.39387688  1
  Rh  Rh239  1  0.80367884  0.00311911  0.59511264  1
  Rh  Rh240  1  0.59917501  0.39825502  -0.00400697  1
  Rh  Rh241  1  0.59931291  0.19890300  0.59862440  1
  Rh  Rh242  1  0.41120238  0.39385406  0.59950274  1
  Rh  Rh243  1  0.80166725  0.19920256  0.40822251  1
  Rh  Rh244  1  0.39654695  0.00013902  0.40010390  1
  Rh  Rh245  1  0.79914407  -0.00089953  0.40717036  1
  Rh  Rh246  1  0.40303740  0.39711239  0.18998920  1
  Rh  Rh247  1  0.40347993  0.81352902  0.00702842  1
  Rh  Rh248  1  -0.00366187  0.59774128  0.18899827  1
  Rh  Rh249  1  0.79429827  0.39889439  0.79481537  1
