# generated using pymatgen
data_ZrScNbPdRh
_symmetry_space_group_name_H-M   'P 1'
_cell_length_a   16.55850446
_cell_length_b   16.55451162
_cell_length_c   16.55656333
_cell_angle_alpha   90.00490280
_cell_angle_beta   90.05179748
_cell_angle_gamma   90.01592968
_symmetry_Int_Tables_number   1
_chemical_formula_structural   ZrScNbPdRh
_chemical_formula_sum   'Zr50 Sc50 Nb50 Pd50 Rh50'
_cell_volume   4538.44922857
_cell_formula_units_Z   50
loop_
 _symmetry_equiv_pos_site_id
 _symmetry_equiv_pos_as_xyz
  1  'x, y, z'
loop_
 _atom_site_type_symbol
 _atom_site_label
 _atom_site_symmetry_multiplicity
 _atom_site_fract_x
 _atom_site_fract_y
 _atom_site_fract_z
 _atom_site_occupancy
  Zr  Zr0  1  0.70415335  0.49289593  0.70115704  1
  Zr  Zr1  1  0.51187720  0.50667129  0.09240694  1
  Zr  Zr2  1  0.89743656  0.48850737  0.08182519  1
  Zr  Zr3  1  0.90210952  0.70199756  0.09009834  1
  Zr  Zr4  1  0.10412232  0.89709285  0.71097596  1
  Zr  Zr5  1  0.50085688  0.90558276  0.50139370  1
  Zr  Zr6  1  0.09842314  0.10418633  0.70204492  1
  Zr  Zr7  1  0.09831513  0.71185034  0.69307834  1
  Zr  Zr8  1  0.49282772  0.50081548  0.89597616  1
  Zr  Zr9  1  0.10120983  0.29879508  0.09217985  1
  Zr  Zr10  1  0.68638537  0.90996613  0.09217544  1
  Zr  Zr11  1  0.29138396  0.29962644  0.09226446  1
  Zr  Zr12  1  0.88797736  0.09945489  0.29814862  1
  Zr  Zr13  1  0.70436858  0.90232658  0.50712501  1
  Zr  Zr14  1  0.30370643  0.70056601  0.49806102  1
  Zr  Zr15  1  0.31668544  0.49717009  0.49462178  1
  Zr  Zr16  1  0.90772531  0.50642736  0.88746635  1
  Zr  Zr17  1  0.29583297  0.70825035  0.70496309  1
  Zr  Zr18  1  0.49201625  0.29939293  0.50863062  1
  Zr  Zr19  1  0.70456779  0.69753180  0.50236288  1
  Zr  Zr20  1  0.49856920  0.69569205  0.70379852  1
  Zr  Zr21  1  0.09863069  0.70780111  0.30288531  1
  Zr  Zr22  1  0.90034585  0.90496787  0.29358556  1
  Zr  Zr23  1  0.89390156  0.49543083  0.49967491  1
  Zr  Zr24  1  0.08969659  0.49284200  0.50471173  1
  Zr  Zr25  1  0.30015270  0.89941979  0.70376260  1
  Zr  Zr26  1  0.91334641  0.69716966  0.49954796  1
  Zr  Zr27  1  0.89591174  0.89587397  0.90387426  1
  Zr  Zr28  1  0.30917607  0.90017265  0.10207603  1
  Zr  Zr29  1  0.10270424  0.69937370  0.10477711  1
  Zr  Zr30  1  0.49866855  0.90252328  0.29067135  1
  Zr  Zr31  1  0.90131368  0.69744633  0.90118666  1
  Zr  Zr32  1  0.90717434  0.10361873  0.69665640  1
  Zr  Zr33  1  0.90345882  0.10069443  0.10249751  1
  Zr  Zr34  1  0.30045308  0.70114470  0.10220381  1
  Zr  Zr35  1  0.50118088  0.70065495  0.29296883  1
  Zr  Zr36  1  0.50067872  0.90457181  0.70439234  1
  Zr  Zr37  1  0.50034354  0.49159559  0.69553513  1
  Zr  Zr38  1  0.50021038  0.89971041  0.91094616  1
  Zr  Zr39  1  0.10460776  0.10620497  0.50005291  1
  Zr  Zr40  1  0.49534144  0.09676410  0.09841401  1
  Zr  Zr41  1  0.89620676  0.69710739  0.30219513  1
  Zr  Zr42  1  0.90203449  0.30830944  0.90912557  1
  Zr  Zr43  1  0.70793804  0.10064421  0.49563087  1
  Zr  Zr44  1  0.08521740  0.70419492  0.89773058  1
  Zr  Zr45  1  0.49203706  0.49717922  0.30580943  1
  Zr  Zr46  1  0.69873277  0.29136309  0.89831371  1
  Zr  Zr47  1  0.29797714  0.10347705  0.30260053  1
  Zr  Zr48  1  0.30176226  0.10149587  0.49336966  1
  Zr  Zr49  1  0.90407012  0.90665876  0.69511132  1
  Sc  Sc50  1  0.29935494  0.29092672  0.50168299  1
  Sc  Sc51  1  0.90574996  0.69797730  0.70822676  1
  Sc  Sc52  1  0.31224068  0.69934890  0.89820035  1
  Sc  Sc53  1  0.69879237  0.29856510  0.70453777  1
  Sc  Sc54  1  0.89910303  0.30402784  0.50244844  1
  Sc  Sc55  1  0.30175205  0.90635912  0.49128336  1
  Sc  Sc56  1  0.29866656  0.49625924  0.29743638  1
  Sc  Sc57  1  0.71007823  0.10168926  0.90335702  1
  Sc  Sc58  1  0.89652333  0.49244754  0.30957570  1
  Sc  Sc59  1  0.49858862  0.29336312  0.29954274  1
  Sc  Sc60  1  0.10066834  0.30277302  0.28650192  1
  Sc  Sc61  1  0.69230344  0.28984672  0.29854914  1
  Sc  Sc62  1  0.30264077  0.49412604  0.70781509  1
  Sc  Sc63  1  0.49800048  0.10394501  0.50701980  1
  Sc  Sc64  1  0.70174095  0.70361519  0.70109430  1
  Sc  Sc65  1  0.89391003  0.90138259  0.10519580  1
  Sc  Sc66  1  0.49681519  0.10475969  0.69926150  1
  Sc  Sc67  1  0.09871123  0.88653342  0.50621399  1
  Sc  Sc68  1  0.10198485  0.29831832  0.69577700  1
  Sc  Sc69  1  0.29561109  0.90577954  0.30196327  1
  Sc  Sc70  1  0.69893072  0.50142007  0.30284789  1
  Sc  Sc71  1  0.30476864  0.89853770  0.89090366  1
  Sc  Sc72  1  0.68409994  0.69614385  0.10196205  1
  Sc  Sc73  1  0.30480881  0.49122396  0.89925514  1
  Sc  Sc74  1  0.09462814  0.89949504  0.11437819  1
  Sc  Sc75  1  0.49839585  0.10376185  0.29921194  1
  Sc  Sc76  1  0.69762089  0.10162471  0.29317650  1
  Sc  Sc77  1  0.10692370  0.48525322  0.10340042  1
  Sc  Sc78  1  0.70864627  0.70506036  0.89456685  1
  Sc  Sc79  1  0.71595427  0.49453667  0.90348903  1
  Sc  Sc80  1  0.89780114  0.10589422  0.89631460  1
  Sc  Sc81  1  0.89763092  0.30192385  0.70002949  1
  Sc  Sc82  1  0.70250646  0.90411476  0.28642562  1
  Sc  Sc83  1  0.70411335  0.89755249  0.70081669  1
  Sc  Sc84  1  0.30394349  0.29638966  0.30368166  1
  Sc  Sc85  1  0.69956801  0.69573135  0.29519862  1
  Sc  Sc86  1  0.10371565  0.10958075  0.10347987  1
  Sc  Sc87  1  0.29792406  0.70529144  0.29700035  1
  Sc  Sc88  1  0.11031233  0.09728303  0.29916175  1
  Sc  Sc89  1  0.70162973  0.11148897  0.70780815  1
  Sc  Sc90  1  0.30198446  0.10856150  0.89639709  1
  Sc  Sc91  1  0.29891421  0.29736993  0.70495861  1
  Sc  Sc92  1  0.49057506  0.10809069  0.89617575  1
  Sc  Sc93  1  0.09445977  0.48908324  0.70189208  1
  Sc  Sc94  1  0.70121949  0.29617532  0.50820841  1
  Sc  Sc95  1  0.49729605  0.69836729  0.90617378  1
  Sc  Sc96  1  0.30084887  0.29805670  0.89826641  1
  Sc  Sc97  1  0.09979495  0.11077756  0.89481545  1
  Sc  Sc98  1  0.91195033  0.29594039  0.09942952  1
  Sc  Sc99  1  0.09852214  0.49288956  0.29172176  1
  Nb  Nb100  1  0.09938980  0.90009531  0.90456480  1
  Nb  Nb101  1  0.30216878  0.49889130  0.09725482  1
  Nb  Nb102  1  0.90267488  0.09508164  0.49743573  1
  Nb  Nb103  1  0.10269803  0.69481332  0.50371108  1
  Nb  Nb104  1  0.10017894  0.29720664  0.50154789  1
  Nb  Nb105  1  0.30158198  0.09729331  0.70465788  1
  Nb  Nb106  1  0.50625333  0.30035562  0.09313119  1
  Nb  Nb107  1  0.89354511  0.90986733  0.49949234  1
  Nb  Nb108  1  0.10374955  0.49897741  0.89536688  1
  Nb  Nb109  1  0.89929788  0.29944121  0.29420291  1
  Nb  Nb110  1  0.29659279  0.10535758  0.09550163  1
  Nb  Nb111  1  0.69849223  0.49451391  0.10451593  1
  Nb  Nb112  1  0.49786118  0.29848294  0.89638448  1
  Nb  Nb113  1  0.70178852  0.90805742  0.89592060  1
  Nb  Nb114  1  0.09730461  0.90538114  0.30289485  1
  Nb  Nb115  1  0.10846411  0.30410813  0.90142422  1
  Nb  Nb116  1  0.68462257  0.30301794  0.09811470  1
  Nb  Nb117  1  0.69983158  0.49908703  0.50102521  1
  Nb  Nb118  1  0.49785875  0.69460203  0.50007884  1
  Nb  Nb119  1  0.50061225  0.89310341  0.10100989  1
  Nb  Nb120  1  0.89589029  0.49647260  0.70069169  1
  Nb  Nb121  1  0.69744530  0.10697837  0.10153384  1
  Nb  Nb122  1  0.49874186  0.50305160  0.50232143  1
  Nb  Nb123  1  0.49600726  0.70670332  0.10036767  1
  Nb  Nb124  1  0.50534848  0.29302566  0.70904479  1
  Nb  Nb125  1  0.59424728  0.59870709  0.40939325  1
  Nb  Nb126  1  0.19714934  0.40049871  0.40697475  1
  Nb  Nb127  1  0.59518873  0.40500543  0.41086762  1
  Nb  Nb128  1  0.80303395  0.59066787  0.19054256  1
  Nb  Nb129  1  0.19724648  -0.00275830  -0.00035156  1
  Nb  Nb130  1  -0.00378218  0.19807043  0.39952535  1
  Nb  Nb131  1  0.40318980  0.59622571  0.19105585  1
  Nb  Nb132  1  0.79401014  0.39610136  0.19416270  1
  Nb  Nb133  1  0.20221890  0.00336683  0.60548803  1
  Nb  Nb134  1  0.19824167  0.59867213  0.59867061  1
  Nb  Nb135  1  -0.00856702  0.59646985  0.19625803  1
  Nb  Nb136  1  0.19392607  0.60068447  0.80137727  1
  Nb  Nb137  1  -0.00321951  0.00175018  0.40212556  1
  Nb  Nb138  1  0.40443781  0.40059247  0.18620485  1
  Nb  Nb139  1  0.60207278  0.80024598  0.40275361  1
  Nb  Nb140  1  0.60247752  -0.00127945  0.80716461  1
  Nb  Nb141  1  0.19534801  0.59638960  0.40714669  1
  Nb  Nb142  1  0.80065598  0.80535171  0.40227237  1
  Nb  Nb143  1  0.19724452  0.80155336  0.00002788  1
  Nb  Nb144  1  0.40482509  0.79946480  0.59810199  1
  Nb  Nb145  1  0.00576481  -0.00009704  -0.00041248  1
  Nb  Nb146  1  0.80390928  0.59271501  0.59915942  1
  Nb  Nb147  1  0.60243446  -0.00442194  0.40171035  1
  Nb  Nb148  1  0.60047208  0.59401117  0.79861971  1
  Nb  Nb149  1  0.19992582  0.59936733  -0.00452120  1
  Pd  Pd150  1  0.80623622  0.00330815  0.00355865  1
  Pd  Pd151  1  0.00558472  0.19330964  0.20923245  1
  Pd  Pd152  1  0.39487743  0.39158509  0.60765058  1
  Pd  Pd153  1  0.39202804  -0.00077172  0.60138251  1
  Pd  Pd154  1  0.59763305  0.39854466  0.21197386  1
  Pd  Pd155  1  0.01239335  -0.00416536  0.59392969  1
  Pd  Pd156  1  0.20019768  0.80003717  0.40122877  1
  Pd  Pd157  1  0.39804555  0.20675913  0.19184862  1
  Pd  Pd158  1  0.59850712  0.79988824  0.80746884  1
  Pd  Pd159  1  0.00226250  0.39163878  0.79831432  1
  Pd  Pd160  1  0.60307421  0.40330484  -0.01336683  1
  Pd  Pd161  1  0.59523098  0.19151406  -0.00558100  1
  Pd  Pd162  1  0.80478156  0.20821574  0.40142988  1
  Pd  Pd163  1  0.40227067  0.39437898  0.00070846  1
  Pd  Pd164  1  0.81214174  0.79080829  0.59975735  1
  Pd  Pd165  1  -0.00361384  0.79557549  0.19936263  1
  Pd  Pd166  1  0.78772706  0.80013444  0.00779228  1
  Pd  Pd167  1  -0.00333026  -0.00098240  0.81052833  1
  Pd  Pd168  1  0.01204067  0.58835882  0.00771616  1
  Pd  Pd169  1  -0.00631087  0.81047796  0.40256025  1
  Pd  Pd170  1  -0.00170595  0.21218893  0.80318960  1
  Pd  Pd171  1  0.79111446  0.79265449  0.19574005  1
  Pd  Pd172  1  0.80611777  0.80324549  0.79523594  1
  Pd  Pd173  1  0.79367625  0.01103998  0.61188581  1
  Pd  Pd174  1  0.20143216  0.00070783  0.19276133  1
  Pd  Pd175  1  0.20718552  0.40440270  0.59656187  1
  Pd  Pd176  1  0.59718752  0.01346816  -0.00799455  1
  Pd  Pd177  1  0.78977093  0.60504505  0.00387633  1
  Pd  Pd178  1  0.80422471  0.20024873  0.60126548  1
  Pd  Pd179  1  0.79406028  0.20992733  0.18977248  1
  Pd  Pd180  1  0.60572363  0.79442962  -0.00620802  1
  Pd  Pd181  1  0.00812038  0.59269700  0.39016776  1
  Pd  Pd182  1  0.60785518  0.59947866  0.60394142  1
  Pd  Pd183  1  0.80188127  0.20581051  0.00908897  1
  Pd  Pd184  1  0.20130212  0.00714744  0.80591837  1
  Pd  Pd185  1  0.78677017  0.38848905  0.39318942  1
  Pd  Pd186  1  0.40559331  0.80155427  0.39975459  1
  Pd  Pd187  1  0.39111309  0.60246693  0.61016655  1
  Pd  Pd188  1  0.59383493  0.79707331  0.59835921  1
  Pd  Pd189  1  0.39678341  0.00542973  0.20252022  1
  Pd  Pd190  1  0.60822027  0.01180263  0.60724731  1
  Pd  Pd191  1  0.20757024  0.19571511  0.60669834  1
  Pd  Pd192  1  0.60980931  0.60133859  -0.01405653  1
  Pd  Pd193  1  0.60157784  0.39120084  0.59756471  1
  Pd  Pd194  1  0.19985173  0.59393314  0.20264790  1
  Pd  Pd195  1  -0.00067422  0.59417548  0.61009206  1
  Pd  Pd196  1  0.00638088  0.38783224  0.39471900  1
  Pd  Pd197  1  0.59546687  0.19876817  0.40731257  1
  Pd  Pd198  1  0.60318696  0.40339499  0.80826797  1
  Pd  Pd199  1  0.39040213  0.00321697  -0.00603634  1
  Rh  Rh200  1  0.79616742  -0.00517742  0.39422135  1
  Rh  Rh201  1  0.60030633  0.20037650  0.60178260  1
  Rh  Rh202  1  0.80731131  0.20471013  0.80097752  1
  Rh  Rh203  1  0.59790714  0.19338083  0.80506080  1
  Rh  Rh204  1  0.59706145  0.00604791  0.19988171  1
  Rh  Rh205  1  -0.00685805  0.80542027  0.59962609  1
  Rh  Rh206  1  0.40996984  0.80265150  0.79769243  1
  Rh  Rh207  1  0.59375806  0.19458453  0.19267066  1
  Rh  Rh208  1  0.01197081  0.40163385  -0.00694694  1
  Rh  Rh209  1  -0.00609292  0.39314912  0.60373036  1
  Rh  Rh210  1  -0.00774332  0.80865681  0.79910294  1
  Rh  Rh211  1  0.18599981  -0.00963201  0.41137621  1
  Rh  Rh212  1  0.40078929  0.59498948  0.79657555  1
  Rh  Rh213  1  0.79278457  0.60531080  0.40017657  1
  Rh  Rh214  1  0.19900601  0.19318365  -0.00629200  1
  Rh  Rh215  1  0.40122982  0.38975496  0.39719352  1
  Rh  Rh216  1  0.80369102  0.39282528  0.80385302  1
  Rh  Rh217  1  0.79690844  0.00225299  0.79567543  1
  Rh  Rh218  1  0.00785202  0.59778262  0.79038471  1
  Rh  Rh219  1  0.40414612  0.19719245  0.40269620  1
  Rh  Rh220  1  0.40781367  0.00169374  0.80393660  1
  Rh  Rh221  1  -0.01652066  0.40721878  0.19993387  1
  Rh  Rh222  1  0.18908789  0.21476877  0.39240388  1
  Rh  Rh223  1  -0.00546717  0.20575556  0.59384593  1
  Rh  Rh224  1  0.39783237  0.60693395  0.38755997  1
  Rh  Rh225  1  0.19937357  0.40027955  0.80207368  1
  Rh  Rh226  1  0.79084529  0.00525208  0.18892993  1
  Rh  Rh227  1  0.60253963  0.80433022  0.19917294  1
  Rh  Rh228  1  0.40205894  0.20622644  0.00280155  1
  Rh  Rh229  1  0.40308818  0.39044842  0.79788738  1
  Rh  Rh230  1  0.78960148  0.38559205  0.00652968  1
  Rh  Rh231  1  0.40967348  0.00613391  0.39360473  1
  Rh  Rh232  1  0.20529598  0.20337775  0.20209459  1
  Rh  Rh233  1  0.00252572  0.00754549  0.20264014  1
  Rh  Rh234  1  0.21424115  0.39265488  0.20648868  1
  Rh  Rh235  1  0.79531366  0.59981871  0.79146930  1
  Rh  Rh236  1  0.00467817  0.19522288  -0.00563056  1
  Rh  Rh237  1  0.59843144  0.59761712  0.20601606  1
  Rh  Rh238  1  0.20118555  0.20319655  0.79830582  1
  Rh  Rh239  1  0.39764393  0.20078066  0.60895863  1
  Rh  Rh240  1  0.80008033  0.40124793  0.60252855  1
  Rh  Rh241  1  0.21273195  0.80455807  0.59045993  1
  Rh  Rh242  1  0.20006650  0.40601939  -0.00782338  1
  Rh  Rh243  1  0.39355865  0.60244529  0.00620568  1
  Rh  Rh244  1  0.19903526  0.78904616  0.81692290  1
  Rh  Rh245  1  0.39573276  0.80034487  0.00092728  1
  Rh  Rh246  1  0.39857504  0.20455899  0.79532397  1
  Rh  Rh247  1  0.00341740  0.81319551  0.00779895  1
  Rh  Rh248  1  0.20110774  0.81210940  0.20136087  1
  Rh  Rh249  1  0.39727705  0.79753401  0.20228279  1
