# generated using pymatgen
data_ZrScNbPdRh
_symmetry_space_group_name_H-M   'P 1'
_cell_length_a   16.55422608
_cell_length_b   16.55655101
_cell_length_c   16.55296022
_cell_angle_alpha   90.00305064
_cell_angle_beta   89.99644844
_cell_angle_gamma   90.00341007
_symmetry_Int_Tables_number   1
_chemical_formula_structural   ZrScNbPdRh
_chemical_formula_sum   'Zr50 Sc50 Nb50 Pd50 Rh50'
_cell_volume   4536.85002180
_cell_formula_units_Z   50
loop_
 _symmetry_equiv_pos_site_id
 _symmetry_equiv_pos_as_xyz
  1  'x, y, z'
loop_
 _atom_site_type_symbol
 _atom_site_label
 _atom_site_symmetry_multiplicity
 _atom_site_fract_x
 _atom_site_fract_y
 _atom_site_fract_z
 _atom_site_occupancy
  Zr  Zr0  1  0.28550723  0.69238758  0.09533061  1
  Zr  Zr1  1  0.89706959  0.49521979  0.10323015  1
  Zr  Zr2  1  0.09542996  0.70101041  0.30334213  1
  Zr  Zr3  1  0.10177875  0.68589045  0.70479380  1
  Zr  Zr4  1  0.09786202  0.90345791  0.70357812  1
  Zr  Zr5  1  0.69924946  0.49433672  0.89609288  1
  Zr  Zr6  1  0.69959547  0.10357907  0.90123639  1
  Zr  Zr7  1  0.49861745  0.90929460  0.69808087  1
  Zr  Zr8  1  0.71133782  0.10701213  0.49196880  1
  Zr  Zr9  1  0.90526978  0.11015589  0.90276670  1
  Zr  Zr10  1  0.50996794  0.10310784  0.29314880  1
  Zr  Zr11  1  0.09594896  0.90220270  0.09900497  1
  Zr  Zr12  1  0.09475940  0.70492946  0.10190052  1
  Zr  Zr13  1  0.90582276  0.30165310  0.70992517  1
  Zr  Zr14  1  0.29334504  0.89682657  0.48735692  1
  Zr  Zr15  1  0.30128067  0.29893446  0.10030163  1
  Zr  Zr16  1  0.70378167  0.50420779  0.29753332  1
  Zr  Zr17  1  0.70129507  0.30384051  0.70237763  1
  Zr  Zr18  1  0.70911549  0.29901086  0.89525830  1
  Zr  Zr19  1  0.48943434  0.70095132  0.89072658  1
  Zr  Zr20  1  0.69790586  0.90794851  0.30065076  1
  Zr  Zr21  1  0.89328039  0.70106682  0.30575118  1
  Zr  Zr22  1  0.49997494  0.29331917  0.09979542  1
  Zr  Zr23  1  0.29566020  0.70049845  0.89881097  1
  Zr  Zr24  1  0.69354233  0.10562464  0.69603236  1
  Zr  Zr25  1  0.89188689  0.10027936  0.31385317  1
  Zr  Zr26  1  0.51037325  0.49888184  0.69726641  1
  Zr  Zr27  1  0.10210253  0.09814961  0.29844895  1
  Zr  Zr28  1  0.30355604  0.69819963  0.70984498  1
  Zr  Zr29  1  0.30577503  0.51013870  0.90572521  1
  Zr  Zr30  1  0.29054524  0.68995131  0.49930899  1
  Zr  Zr31  1  0.50188449  0.88364518  0.29846915  1
  Zr  Zr32  1  0.09328623  0.30987124  0.30272878  1
  Zr  Zr33  1  0.29730015  0.10313297  0.50716047  1
  Zr  Zr34  1  0.90021774  0.10004136  0.69335242  1
  Zr  Zr35  1  0.30164998  0.89085478  0.10128166  1
  Zr  Zr36  1  0.30405596  0.30021697  0.51181433  1
  Zr  Zr37  1  0.69823970  0.29742205  0.09651465  1
  Zr  Zr38  1  0.09416600  0.49283184  0.70036984  1
  Zr  Zr39  1  0.49941680  0.69720444  0.69485668  1
  Zr  Zr40  1  0.50315513  0.89846144  0.49695570  1
  Zr  Zr41  1  0.30486747  0.49523935  0.49186688  1
  Zr  Zr42  1  0.29107058  0.09782529  0.29493816  1
  Zr  Zr43  1  0.49988616  0.30777530  0.49551397  1
  Zr  Zr44  1  0.10004758  0.69873661  0.90572205  1
  Zr  Zr45  1  0.49811405  0.50115421  0.90189360  1
  Zr  Zr46  1  0.09739935  0.09859742  0.09834134  1
  Zr  Zr47  1  0.29917052  0.30705699  0.30411491  1
  Zr  Zr48  1  0.11351101  0.90224668  0.30723999  1
  Zr  Zr49  1  0.90281121  0.09523306  0.10271722  1
  Sc  Sc50  1  0.89592459  0.70292704  0.09020139  1
  Sc  Sc51  1  0.69972806  0.90002267  0.49240661  1
  Sc  Sc52  1  0.90167829  0.90120664  0.30120806  1
  Sc  Sc53  1  0.90267990  0.50193796  0.70397746  1
  Sc  Sc54  1  0.90188599  0.49564122  0.90316851  1
  Sc  Sc55  1  0.50560214  0.29342615  0.69316907  1
  Sc  Sc56  1  0.69570754  0.50309141  0.50468778  1
  Sc  Sc57  1  0.89252512  0.90303809  0.69597838  1
  Sc  Sc58  1  0.90354400  0.90293976  0.09748131  1
  Sc  Sc59  1  0.29542238  0.10501698  0.09736153  1
  Sc  Sc60  1  0.70232935  0.50651408  0.10321822  1
  Sc  Sc61  1  0.50865683  0.70591061  0.10385901  1
  Sc  Sc62  1  0.69929185  0.69736273  0.10064330  1
  Sc  Sc63  1  0.10251328  0.50144533  0.10502111  1
  Sc  Sc64  1  0.09412323  0.30559971  0.09835799  1
  Sc  Sc65  1  0.10083109  0.10630096  0.70527625  1
  Sc  Sc66  1  0.69926935  0.91350519  0.70107945  1
  Sc  Sc67  1  0.30022362  0.28967509  0.89667321  1
  Sc  Sc68  1  0.90430028  0.50283262  0.50270705  1
  Sc  Sc69  1  0.29711938  0.71306510  0.29405765  1
  Sc  Sc70  1  0.29597987  0.89839676  0.89404716  1
  Sc  Sc71  1  0.50580370  0.49870975  0.50058616  1
  Sc  Sc72  1  0.28199507  0.49995507  0.29607700  1
  Sc  Sc73  1  0.29385154  0.50409286  0.69655148  1
  Sc  Sc74  1  0.10422549  0.10257999  0.90205403  1
  Sc  Sc75  1  0.89979483  0.30770861  0.09177006  1
  Sc  Sc76  1  0.50806144  0.89621947  0.09594395  1
  Sc  Sc77  1  0.71220157  0.70334832  0.90514607  1
  Sc  Sc78  1  0.69425598  0.69539128  0.30147741  1
  Sc  Sc79  1  0.09567973  0.49806133  0.30285966  1
  Sc  Sc80  1  0.89370850  0.89804401  0.50066505  1
  Sc  Sc81  1  0.50842579  0.69386239  0.49375298  1
  Sc  Sc82  1  0.71322118  0.69328869  0.69584073  1
  Sc  Sc83  1  0.90542469  0.28644716  0.49986994  1
  Sc  Sc84  1  0.30467002  0.10512685  0.70318167  1
  Sc  Sc85  1  0.50195174  0.29235586  0.90056252  1
  Sc  Sc86  1  0.49412129  0.90124012  0.90349235  1
  Sc  Sc87  1  0.09415012  0.50055233  0.89657186  1
  Sc  Sc88  1  0.50302916  0.10133671  0.09015472  1
  Sc  Sc89  1  0.51423875  0.49641173  0.30371868  1
  Sc  Sc90  1  0.68818716  0.29360944  0.30338594  1
  Sc  Sc91  1  0.09329448  0.29812308  0.89367092  1
  Sc  Sc92  1  0.49795793  0.09697301  0.89964197  1
  Sc  Sc93  1  0.70580232  0.90248077  0.90535911  1
  Sc  Sc94  1  0.70508236  0.49090166  0.69716772  1
  Sc  Sc95  1  0.50329958  0.10296787  0.51507037  1
  Sc  Sc96  1  0.50392939  0.30218569  0.29915863  1
  Sc  Sc97  1  0.90005498  0.49576740  0.29861312  1
  Sc  Sc98  1  0.29836409  0.09964326  0.89747371  1
  Sc  Sc99  1  0.69645222  0.08955621  0.09889358  1
  Nb  Nb100  1  0.70578745  0.70244622  0.49750065  1
  Nb  Nb101  1  0.90032407  0.70466789  0.89202072  1
  Nb  Nb102  1  0.09674267  0.09992696  0.50793012  1
  Nb  Nb103  1  0.11116781  0.30370012  0.70179547  1
  Nb  Nb104  1  0.50124829  0.69516946  0.29632884  1
  Nb  Nb105  1  0.89380568  0.70541605  0.50267755  1
  Nb  Nb106  1  0.90132198  0.30110884  0.90290710  1
  Nb  Nb107  1  0.30027119  0.50136661  0.09843332  1
  Nb  Nb108  1  0.09564942  0.69674616  0.49927178  1
  Nb  Nb109  1  0.90076292  0.30129962  0.30068998  1
  Nb  Nb110  1  0.69906952  0.30243866  0.50168839  1
  Nb  Nb111  1  0.49652939  0.49980457  0.09673324  1
  Nb  Nb112  1  0.30375963  0.90380379  0.30059905  1
  Nb  Nb113  1  0.09723460  0.90468175  0.90010342  1
  Nb  Nb114  1  0.90305249  0.70144793  0.70254436  1
  Nb  Nb115  1  0.09964778  0.89786175  0.50347579  1
  Nb  Nb116  1  0.90804155  0.09716885  0.50411755  1
  Nb  Nb117  1  0.10416968  0.29706720  0.50979532  1
  Nb  Nb118  1  0.50661709  0.09526566  0.69575192  1
  Nb  Nb119  1  0.70310703  0.89411281  0.10161724  1
  Nb  Nb120  1  0.29519996  0.89829327  0.69641841  1
  Nb  Nb121  1  0.29341296  0.30015609  0.70093083  1
  Nb  Nb122  1  0.70566173  0.09734971  0.29768168  1
  Nb  Nb123  1  0.89967309  0.89822467  0.89838163  1
  Nb  Nb124  1  0.10660970  0.51310694  0.49931957  1
  Nb  Nb125  1  -0.00423402  0.60478967  0.20020521  1
  Nb  Nb126  1  -0.00848096  0.20273630  0.20598683  1
  Nb  Nb127  1  0.40045517  0.00430737  0.39411718  1
  Nb  Nb128  1  0.19579319  0.79849681  0.60065829  1
  Nb  Nb129  1  0.19658470  -0.00424314  0.59947050  1
  Nb  Nb130  1  0.39982251  0.40965829  0.19469863  1
  Nb  Nb131  1  0.40143446  0.59682147  0.19998718  1
  Nb  Nb132  1  0.00558176  0.00322437  0.41224847  1
  Nb  Nb133  1  0.19589705  0.20350475  0.40834796  1
  Nb  Nb134  1  0.60059344  0.79673461  0.79452719  1
  Nb  Nb135  1  -0.00434230  0.80067155  0.80027586  1
  Nb  Nb136  1  0.40057289  0.59937176  0.38719434  1
  Nb  Nb137  1  -0.00351694  -0.00390200  0.80570201  1
  Nb  Nb138  1  -0.00013082  0.79152361  0.59984489  1
  Nb  Nb139  1  0.80107714  0.19807234  0.20571635  1
  Nb  Nb140  1  0.59781640  0.40116729  0.00144134  1
  Nb  Nb141  1  0.79866457  0.39194360  0.40132564  1
  Nb  Nb142  1  0.60262394  0.60445442  0.80007566  1
  Nb  Nb143  1  0.39748557  0.39672380  0.79579447  1
  Nb  Nb144  1  0.39943524  -0.00475207  0.20445528  1
  Nb  Nb145  1  0.39575158  0.80102008  0.59900548  1
  Nb  Nb146  1  0.79570955  0.80479857  0.19922414  1
  Nb  Nb147  1  0.39573370  0.19612752  0.40055688  1
  Nb  Nb148  1  0.60096526  0.79864702  0.60198637  1
  Nb  Nb149  1  0.20665971  0.40314569  0.00053172  1
  Pd  Pd150  1  0.80293630  0.59734754  -0.00274636  1
  Pd  Pd151  1  0.59951880  -0.00524349  0.81036107  1
  Pd  Pd152  1  0.40155858  0.19839822  0.20357172  1
  Pd  Pd153  1  0.59498208  0.19937473  0.80088183  1
  Pd  Pd154  1  0.19770799  0.40880977  0.59526850  1
  Pd  Pd155  1  -0.00455862  0.80388620  -0.00456441  1
  Pd  Pd156  1  0.39899300  0.79407477  0.00370605  1
  Pd  Pd157  1  -0.00337573  0.40208237  0.41366070  1
  Pd  Pd158  1  0.79617585  0.80359232  0.60343340  1
  Pd  Pd159  1  0.40014635  0.79116430  0.40406207  1
  Pd  Pd160  1  0.80335059  0.59591137  0.59798181  1
  Pd  Pd161  1  -0.00345958  0.80717330  0.40605340  1
  Pd  Pd162  1  0.80210523  0.19755646  0.00910327  1
  Pd  Pd163  1  0.00008797  0.39781849  0.59479724  1
  Pd  Pd164  1  0.79973276  0.59349407  0.80154252  1
  Pd  Pd165  1  -0.00270719  0.59474260  0.00469571  1
  Pd  Pd166  1  0.19351764  0.20880791  -0.00341001  1
  Pd  Pd167  1  0.20710251  0.40379622  0.81150379  1
  Pd  Pd168  1  0.19208566  0.39696550  0.41147020  1
  Pd  Pd169  1  0.19635557  0.80331145  0.20038323  1
  Pd  Pd170  1  0.79334452  0.38919979  0.20772478  1
  Pd  Pd171  1  0.59451952  0.19558031  0.40585674  1
  Pd  Pd172  1  0.20479937  -0.00331650  -0.00027226  1
  Pd  Pd173  1  0.79594682  0.80421131  0.79434878  1
  Pd  Pd174  1  0.60422387  0.79881527  -0.01154367  1
  Pd  Pd175  1  0.79887531  0.59166084  0.40704164  1
  Pd  Pd176  1  0.80541615  0.00866303  0.80335336  1
  Pd  Pd177  1  0.39220282  -0.00465149  0.59537679  1
  Pd  Pd178  1  0.59404189  0.01016676  0.40544387  1
  Pd  Pd179  1  0.59323402  -0.00229171  0.19261521  1
  Pd  Pd180  1  0.19244921  0.79944269  0.80060213  1
  Pd  Pd181  1  0.80893970  0.39565643  0.59237025  1
  Pd  Pd182  1  0.39487311  0.00185789  0.00752541  1
  Pd  Pd183  1  0.60047086  0.60130953  -0.00483375  1
  Pd  Pd184  1  0.80204113  0.20699129  0.60274748  1
  Pd  Pd185  1  0.00761545  0.19675653  0.39849843  1
  Pd  Pd186  1  0.18804972  0.21105587  0.20275322  1
  Pd  Pd187  1  0.39946806  0.39031948  -0.00415447  1
  Pd  Pd188  1  -0.00515456  0.60259279  0.59908700  1
  Pd  Pd189  1  0.40159907  0.59994850  0.59094537  1
  Pd  Pd190  1  0.39496677  0.00054572  0.79892817  1
  Pd  Pd191  1  0.00552133  0.20674848  0.61090931  1
  Pd  Pd192  1  0.40278523  0.40167231  0.61039494  1
  Pd  Pd193  1  -0.00263342  0.00137091  0.21210591  1
  Pd  Pd194  1  0.40580586  0.20154835  0.79346522  1
  Pd  Pd195  1  -0.00554601  0.59660016  0.39711827  1
  Pd  Pd196  1  0.40606377  0.61437562  0.01077643  1
  Pd  Pd197  1  0.80241615  -0.00145712  0.00004978  1
  Pd  Pd198  1  0.79414202  -0.00041740  0.59147487  1
  Pd  Pd199  1  0.59833831  0.40360522  0.19273222  1
  Rh  Rh200  1  0.79745016  0.20930295  0.39647754  1
  Rh  Rh201  1  0.19798420  0.59101633  0.80445009  1
  Rh  Rh202  1  -0.00602681  0.60237730  0.80430149  1
  Rh  Rh203  1  0.19619224  0.19685389  0.60524113  1
  Rh  Rh204  1  0.59018548  0.40239115  0.80637109  1
  Rh  Rh205  1  0.61192961  0.60652130  0.60333049  1
  Rh  Rh206  1  0.40415011  0.40626317  0.38628735  1
  Rh  Rh207  1  0.79369842  0.40264564  -0.00289887  1
  Rh  Rh208  1  -0.00199480  0.40395424  0.19723831  1
  Rh  Rh209  1  0.19624041  0.79060557  0.40207745  1
  Rh  Rh210  1  0.40482210  0.20298726  0.60443291  1
  Rh  Rh211  1  0.79908735  -0.00337586  0.19809472  1
  Rh  Rh212  1  -0.00056410  0.39746037  0.80287626  1
  Rh  Rh213  1  0.60284465  -0.00550137  -0.00240387  1
  Rh  Rh214  1  0.59989933  0.59966489  0.40147058  1
  Rh  Rh215  1  0.19762902  0.01038171  0.40988807  1
  Rh  Rh216  1  0.20698230  -0.00736855  0.18670872  1
  Rh  Rh217  1  0.61209446  0.40328450  0.40275527  1
  Rh  Rh218  1  0.60907579  -0.00166925  0.59161649  1
  Rh  Rh219  1  0.00186339  0.19910800  0.79837322  1
  Rh  Rh220  1  0.20174197  0.60374427  0.39191494  1
  Rh  Rh221  1  0.60997370  0.79802357  0.20263315  1
  Rh  Rh222  1  0.59494995  0.59850773  0.19814693  1
  Rh  Rh223  1  -0.00038366  0.00100479  -0.00876278  1
  Rh  Rh224  1  0.60660966  0.79082878  0.40259641  1
  Rh  Rh225  1  0.80298647  0.80393860  0.00548695  1
  Rh  Rh226  1  0.19380037  0.60323083  0.20400847  1
  Rh  Rh227  1  0.40469292  0.81287875  0.79336672  1
  Rh  Rh228  1  0.20330086  0.39736428  0.19024024  1
  Rh  Rh229  1  0.19053606  0.59144062  -0.00249252  1
  Rh  Rh230  1  0.80649580  -0.00402079  0.40634079  1
  Rh  Rh231  1  0.60342193  0.20371141  0.59581680  1
  Rh  Rh232  1  0.80795884  0.61183529  0.19653644  1
  Rh  Rh233  1  0.19877780  0.59722694  0.60197017  1
  Rh  Rh234  1  -0.01216098  0.79359768  0.20055340  1
  Rh  Rh235  1  0.00180080  0.20342163  0.00713719  1
  Rh  Rh236  1  0.39825185  0.19278585  -0.00374031  1
  Rh  Rh237  1  0.61122730  0.19236912  0.19524327  1
  Rh  Rh238  1  0.19743982  0.80728474  -0.00451985  1
  Rh  Rh239  1  0.00274036  -0.00664443  0.60138323  1
  Rh  Rh240  1  0.19888529  0.19963763  0.79779353  1
  Rh  Rh241  1  0.60261610  0.20086281  -0.00401885  1
  Rh  Rh242  1  0.60245842  0.39516839  0.59702273  1
  Rh  Rh243  1  0.19707570  0.00400112  0.79610945  1
  Rh  Rh244  1  0.81037203  0.40190375  0.80220558  1
  Rh  Rh245  1  0.80301384  0.19731021  0.79562861  1
  Rh  Rh246  1  0.79371173  0.80228375  0.39194494  1
  Rh  Rh247  1  0.00786913  0.40072533  -0.00317734  1
  Rh  Rh248  1  0.40145873  0.79711479  0.19482801  1
  Rh  Rh249  1  0.40504875  0.58584770  0.79123991  1
