# generated using pymatgen
data_ZrScNbPdRh
_symmetry_space_group_name_H-M   'P 1'
_cell_length_a   16.55325949
_cell_length_b   16.55651910
_cell_length_c   16.55490060
_cell_angle_alpha   90.01330420
_cell_angle_beta   90.01072900
_cell_angle_gamma   90.01156237
_symmetry_Int_Tables_number   1
_chemical_formula_structural   ZrScNbPdRh
_chemical_formula_sum   'Zr50 Sc50 Nb50 Pd50 Rh50'
_cell_volume   4537.10789174
_cell_formula_units_Z   50
loop_
 _symmetry_equiv_pos_site_id
 _symmetry_equiv_pos_as_xyz
  1  'x, y, z'
loop_
 _atom_site_type_symbol
 _atom_site_label
 _atom_site_symmetry_multiplicity
 _atom_site_fract_x
 _atom_site_fract_y
 _atom_site_fract_z
 _atom_site_occupancy
  Zr  Zr0  1  0.70207441  0.30351206  0.90374387  1
  Zr  Zr1  1  0.10051195  0.70289271  0.30151016  1
  Zr  Zr2  1  0.09590094  0.69972828  0.69918613  1
  Zr  Zr3  1  0.69751721  0.49990641  0.30411695  1
  Zr  Zr4  1  0.10303575  0.09157247  0.09504984  1
  Zr  Zr5  1  0.29907606  0.70360249  0.09975682  1
  Zr  Zr6  1  0.49968363  0.09272373  0.89681839  1
  Zr  Zr7  1  0.70668290  0.09143867  0.10022364  1
  Zr  Zr8  1  0.89696082  0.49590846  0.89159480  1
  Zr  Zr9  1  0.89774021  0.50383790  0.30074937  1
  Zr  Zr10  1  0.69759501  0.89866849  0.50536481  1
  Zr  Zr11  1  0.29674054  0.49695673  0.50116878  1
  Zr  Zr12  1  0.70355875  0.29176025  0.10459104  1
  Zr  Zr13  1  0.10827964  0.10298016  0.89556971  1
  Zr  Zr14  1  0.48957050  0.49860349  0.29402352  1
  Zr  Zr15  1  0.49648840  0.89415946  0.50123516  1
  Zr  Zr16  1  0.90661498  0.49803081  0.10460333  1
  Zr  Zr17  1  0.90120692  0.69117757  0.29581659  1
  Zr  Zr18  1  0.10583911  0.70307438  0.49966699  1
  Zr  Zr19  1  0.49102471  0.49909915  0.70611639  1
  Zr  Zr20  1  0.30925059  0.90025139  0.90372106  1
  Zr  Zr21  1  0.69585867  0.11053480  0.29461877  1
  Zr  Zr22  1  0.29227400  0.89920980  0.10139430  1
  Zr  Zr23  1  0.10382310  0.10464770  0.50514832  1
  Zr  Zr24  1  0.69885689  0.09842685  0.89666876  1
  Zr  Zr25  1  0.89387709  0.30317333  0.09818703  1
  Zr  Zr26  1  0.49594077  0.29868295  0.69892035  1
  Zr  Zr27  1  0.29964600  0.29662405  0.50701051  1
  Zr  Zr28  1  0.70181869  0.90447055  0.89314213  1
  Zr  Zr29  1  0.70678761  0.29783589  0.49559036  1
  Zr  Zr30  1  0.09900718  0.90193779  0.90280024  1
  Zr  Zr31  1  0.69828283  0.91061140  0.29398922  1
  Zr  Zr32  1  0.30145090  0.09519315  0.90162607  1
  Zr  Zr33  1  0.70081908  0.50149283  0.49706099  1
  Zr  Zr34  1  0.90996647  0.30868144  0.70779292  1
  Zr  Zr35  1  0.30062397  0.10084701  0.08854777  1
  Zr  Zr36  1  0.10397876  0.69869288  0.90124933  1
  Zr  Zr37  1  0.50957053  0.89292858  0.10650789  1
  Zr  Zr38  1  0.69941660  0.09110631  0.69791403  1
  Zr  Zr39  1  0.90135077  0.10072722  0.50007533  1
  Zr  Zr40  1  0.69479821  0.50548356  0.70218524  1
  Zr  Zr41  1  0.09498116  0.31124039  0.09999208  1
  Zr  Zr42  1  0.49723445  0.69840130  0.69766043  1
  Zr  Zr43  1  0.90435386  0.10048659  0.89738063  1
  Zr  Zr44  1  0.30007029  0.09897336  0.50637289  1
  Zr  Zr45  1  0.89179562  0.30242644  0.29815612  1
  Zr  Zr46  1  0.89500143  0.49360169  0.50019234  1
  Zr  Zr47  1  0.29912816  0.50884281  0.89213172  1
  Zr  Zr48  1  0.29746775  0.10409786  0.70215558  1
  Zr  Zr49  1  0.90065571  0.30517464  0.90470075  1
  Sc  Sc50  1  0.49255894  0.51095128  0.49420761  1
  Sc  Sc51  1  0.69638208  0.49600155  0.89729773  1
  Sc  Sc52  1  0.29900362  0.70050959  0.29851549  1
  Sc  Sc53  1  0.50042405  0.30689221  0.09896106  1
  Sc  Sc54  1  0.29743256  0.30628165  0.69824265  1
  Sc  Sc55  1  0.30101141  0.70017468  0.50210548  1
  Sc  Sc56  1  0.10855615  0.30687738  0.50145656  1
  Sc  Sc57  1  0.69447145  0.49462481  0.09318168  1
  Sc  Sc58  1  0.89783550  0.09931773  0.30999602  1
  Sc  Sc59  1  0.90595872  0.69463601  0.49308958  1
  Sc  Sc60  1  0.49669511  0.89967131  0.89696301  1
  Sc  Sc61  1  0.30467125  0.69380202  0.69697340  1
  Sc  Sc62  1  0.29999609  0.50422572  0.29627546  1
  Sc  Sc63  1  0.09794695  0.90567068  0.70493191  1
  Sc  Sc64  1  0.29951069  0.50203754  0.10797860  1
  Sc  Sc65  1  0.10085060  0.30765121  0.30328142  1
  Sc  Sc66  1  0.10529692  0.09658905  0.70863126  1
  Sc  Sc67  1  0.50419717  0.09730695  0.09568683  1
  Sc  Sc68  1  0.69943471  0.69050994  0.30542449  1
  Sc  Sc69  1  0.30230602  0.30376411  0.09561919  1
  Sc  Sc70  1  0.29777865  0.29390957  0.90300665  1
  Sc  Sc71  1  0.10125628  0.89781995  0.49997308  1
  Sc  Sc72  1  0.11017073  0.70205794  0.09784052  1
  Sc  Sc73  1  0.90557286  0.90983183  0.30667453  1
  Sc  Sc74  1  0.50250222  0.49296060  0.89578043  1
  Sc  Sc75  1  0.49575416  0.70256176  0.49531679  1
  Sc  Sc76  1  0.10150366  0.50041868  0.50311013  1
  Sc  Sc77  1  0.29685032  0.89389547  0.30656052  1
  Sc  Sc78  1  0.29639202  0.31367652  0.30028255  1
  Sc  Sc79  1  0.09504042  0.30115924  0.88930771  1
  Sc  Sc80  1  0.49823364  0.09755768  0.50904764  1
  Sc  Sc81  1  0.69605865  0.70973162  0.69888904  1
  Sc  Sc82  1  0.30374102  0.90305696  0.69776101  1
  Sc  Sc83  1  0.10352722  0.90118113  0.30254008  1
  Sc  Sc84  1  0.68677548  0.69871019  0.89811921  1
  Sc  Sc85  1  0.49519350  0.89080284  0.30424616  1
  Sc  Sc86  1  0.90680619  0.89458843  0.89111915  1
  Sc  Sc87  1  0.09616397  0.09527910  0.30966563  1
  Sc  Sc88  1  0.10111952  0.50533458  0.10860725  1
  Sc  Sc89  1  0.50708525  0.09801379  0.70030510  1
  Sc  Sc90  1  0.49337707  0.49564955  0.09602857  1
  Sc  Sc91  1  0.10410988  0.49933197  0.29581116  1
  Sc  Sc92  1  0.89901324  0.30339298  0.49707656  1
  Sc  Sc93  1  0.69016026  0.69738286  0.49985136  1
  Sc  Sc94  1  0.29338083  0.09330923  0.30934854  1
  Sc  Sc95  1  0.50429285  0.90005724  0.69761767  1
  Sc  Sc96  1  0.70918526  0.09896094  0.50208121  1
  Sc  Sc97  1  0.10232900  0.49478632  0.70284495  1
  Sc  Sc98  1  0.89567246  0.90971826  0.50176300  1
  Sc  Sc99  1  0.69199655  0.29259183  0.70099402  1
  Nb  Nb100  1  0.90198648  0.70170014  0.70896463  1
  Nb  Nb101  1  0.90613900  0.09621798  0.69887203  1
  Nb  Nb102  1  0.90536316  0.69943491  0.89883491  1
  Nb  Nb103  1  0.70589190  0.89682185  0.10223145  1
  Nb  Nb104  1  0.10247376  0.50427840  0.90696513  1
  Nb  Nb105  1  0.30842003  0.89370722  0.49855428  1
  Nb  Nb106  1  0.89952804  0.10378402  0.09805326  1
  Nb  Nb107  1  0.29827011  0.70363936  0.90555960  1
  Nb  Nb108  1  0.48889619  0.70523299  0.90412201  1
  Nb  Nb109  1  0.90183977  0.90232540  0.09921070  1
  Nb  Nb110  1  0.69527957  0.70529010  0.09594491  1
  Nb  Nb111  1  0.10142920  0.29573948  0.70195017  1
  Nb  Nb112  1  0.89861503  0.69813017  0.10081201  1
  Nb  Nb113  1  0.09639424  0.89948367  0.10198398  1
  Nb  Nb114  1  0.70707433  0.89867115  0.69253059  1
  Nb  Nb115  1  0.30869575  0.49867036  0.70288186  1
  Nb  Nb116  1  0.69130583  0.29487578  0.29628559  1
  Nb  Nb117  1  0.49375395  0.69284657  0.29739718  1
  Nb  Nb118  1  0.49692918  0.29809390  0.49962066  1
  Nb  Nb119  1  0.50304611  0.10149380  0.29697756  1
  Nb  Nb120  1  0.89241843  0.89246321  0.69817686  1
  Nb  Nb121  1  0.50578882  0.30029163  0.89416518  1
  Nb  Nb122  1  0.89915606  0.50623362  0.69987512  1
  Nb  Nb123  1  0.50322117  0.70272001  0.09760883  1
  Nb  Nb124  1  0.50601712  0.29218642  0.29702902  1
  Nb  Nb125  1  0.80414357  0.60877312  -0.00040421  1
  Nb  Nb126  1  0.59369110  0.60615564  0.19337021  1
  Nb  Nb127  1  0.00010658  0.19754036  0.19525942  1
  Nb  Nb128  1  0.59330039  0.38990325  0.39813928  1
  Nb  Nb129  1  0.20346477  0.79626844  0.80519855  1
  Nb  Nb130  1  -0.00453335  0.80409142  0.19213314  1
  Nb  Nb131  1  -0.00141554  0.19908629  0.00481104  1
  Nb  Nb132  1  0.40029809  0.00355698  0.20249307  1
  Nb  Nb133  1  0.79903015  0.80128270  0.39379359  1
  Nb  Nb134  1  0.40065279  0.60930266  -0.00277920  1
  Nb  Nb135  1  0.80183861  0.80119677  0.19626185  1
  Nb  Nb136  1  -0.00841849  0.79831210  0.60662865  1
  Nb  Nb137  1  0.80569091  0.19678128  0.79703047  1
  Nb  Nb138  1  0.39836150  0.19598491  0.20647437  1
  Nb  Nb139  1  0.40565362  0.20219976  0.39636899  1
  Nb  Nb140  1  0.60276758  0.20081473  -0.00444392  1
  Nb  Nb141  1  0.19843876  0.19819665  0.19665067  1
  Nb  Nb142  1  0.40489229  0.20020303  0.80264320  1
  Nb  Nb143  1  -0.00388238  0.60312324  -0.00245923  1
  Nb  Nb144  1  0.19624562  0.40778895  -0.00515082  1
  Nb  Nb145  1  0.00226148  0.20170069  0.60727407  1
  Nb  Nb146  1  0.59639533  0.00294277  0.39777301  1
  Nb  Nb147  1  0.80793742  0.60142873  0.60887443  1
  Nb  Nb148  1  0.80172303  0.79793780  0.00502642  1
  Nb  Nb149  1  0.59498772  0.39956519  0.59146732  1
  Pd  Pd150  1  -0.00712158  0.80695135  0.40279098  1
  Pd  Pd151  1  0.59478731  0.59537149  0.00066137  1
  Pd  Pd152  1  0.80793608  -0.00804293  -0.00476954  1
  Pd  Pd153  1  0.80740430  0.00182153  0.79507830  1
  Pd  Pd154  1  0.00250337  0.20730756  0.40148675  1
  Pd  Pd155  1  0.59693117  0.80492857  0.79761561  1
  Pd  Pd156  1  0.41286262  0.20474920  -0.00146047  1
  Pd  Pd157  1  0.79303467  0.40487508  0.19983048  1
  Pd  Pd158  1  0.39241904  0.40816269  -0.00838195  1
  Pd  Pd159  1  0.80658446  0.78811899  0.58731533  1
  Pd  Pd160  1  0.00575738  0.39660963  0.60035817  1
  Pd  Pd161  1  0.81004575  0.20309570  0.60932781  1
  Pd  Pd162  1  0.79190182  0.39367498  0.79034666  1
  Pd  Pd163  1  0.78529143  0.60048349  0.18997741  1
  Pd  Pd164  1  0.20601025  0.20636294  0.39204051  1
  Pd  Pd165  1  -0.00410488  0.60264898  0.59773914  1
  Pd  Pd166  1  0.19976310  -0.00721275  0.40918517  1
  Pd  Pd167  1  -0.00302225  0.00225821  0.20384084  1
  Pd  Pd168  1  0.60084198  0.20057869  0.59376986  1
  Pd  Pd169  1  0.79540168  0.79198693  0.80846019  1
  Pd  Pd170  1  0.59870570  -0.00335676  0.00074004  1
  Pd  Pd171  1  0.20298298  0.59878266  0.39679209  1
  Pd  Pd172  1  0.40240434  -0.00078321  0.60572850  1
  Pd  Pd173  1  0.20056732  -0.00863841  0.59854985  1
  Pd  Pd174  1  0.79251416  0.40236570  0.61110239  1
  Pd  Pd175  1  0.79287368  0.60952371  0.80203419  1
  Pd  Pd176  1  0.39365200  0.79833174  0.79251256  1
  Pd  Pd177  1  0.20188546  0.39730914  0.80373433  1
  Pd  Pd178  1  0.00425328  0.59351815  0.80362330  1
  Pd  Pd179  1  0.00309992  0.40320321  0.39869171  1
  Pd  Pd180  1  0.00127391  -0.00270162  0.60283282  1
  Pd  Pd181  1  -0.00304604  0.00284895  -0.00368432  1
  Pd  Pd182  1  0.59103681  0.60263942  0.80469835  1
  Pd  Pd183  1  0.60361781  0.80808664  -0.00848423  1
  Pd  Pd184  1  -0.00099183  0.79480967  0.00571868  1
  Pd  Pd185  1  0.59737989  0.19415897  0.41172439  1
  Pd  Pd186  1  0.60421026  0.80180745  0.39275294  1
  Pd  Pd187  1  0.40561306  0.00426120  0.39568939  1
  Pd  Pd188  1  0.00637393  0.59032229  0.40166457  1
  Pd  Pd189  1  0.19709415  0.80685670  0.60849319  1
  Pd  Pd190  1  0.60696308  0.79076949  0.21240288  1
  Pd  Pd191  1  0.40369156  0.40439260  0.59604658  1
  Pd  Pd192  1  0.20414224  0.59352981  0.60685813  1
  Pd  Pd193  1  0.20497738  0.00407784  0.20306760  1
  Pd  Pd194  1  0.59823148  0.59798597  0.59814036  1
  Pd  Pd195  1  0.59796395  0.40673191  0.20070239  1
  Pd  Pd196  1  0.39662513  0.80410502  0.20133983  1
  Pd  Pd197  1  0.40194967  0.39563650  0.39715958  1
  Pd  Pd198  1  0.81114244  0.00177241  0.20354636  1
  Pd  Pd199  1  0.20126374  0.60478276  0.79135902  1
  Rh  Rh200  1  0.59967167  0.39240634  -0.00035110  1
  Rh  Rh201  1  0.59395275  0.19731468  0.18337918  1
  Rh  Rh202  1  0.39854191  0.19661339  0.60282822  1
  Rh  Rh203  1  0.40149192  0.00722575  0.79237109  1
  Rh  Rh204  1  0.79884340  0.41397483  0.00386390  1
  Rh  Rh205  1  0.80848359  0.19397568  0.20596501  1
  Rh  Rh206  1  0.60202934  -0.00329614  0.59553830  1
  Rh  Rh207  1  0.20711318  -0.00987648  0.80558857  1
  Rh  Rh208  1  0.19013372  0.80154670  0.20398689  1
  Rh  Rh209  1  0.58869193  0.59366866  0.39009613  1
  Rh  Rh210  1  0.39284437  0.60420509  0.39944479  1
  Rh  Rh211  1  0.59236370  0.00001704  0.20363927  1
  Rh  Rh212  1  0.00694481  0.40937265  0.79975335  1
  Rh  Rh213  1  0.80256394  0.00052663  0.60264954  1
  Rh  Rh214  1  0.40039466  0.79827050  0.59950407  1
  Rh  Rh215  1  0.19989403  0.60441478  0.20287774  1
  Rh  Rh216  1  0.79940261  0.20127220  0.39528632  1
  Rh  Rh217  1  0.20145914  0.40372718  0.60551698  1
  Rh  Rh218  1  0.20329575  0.39616591  0.19194760  1
  Rh  Rh219  1  0.40256533  0.60605178  0.80642872  1
  Rh  Rh220  1  0.40216553  0.80034432  0.00777942  1
  Rh  Rh221  1  0.19895629  0.80823705  -0.00403958  1
  Rh  Rh222  1  0.60172226  -0.01043902  0.79211191  1
  Rh  Rh223  1  -0.00251851  0.19639370  0.79844185  1
  Rh  Rh224  1  0.39881128  0.39025412  0.20104135  1
  Rh  Rh225  1  0.40447323  0.60482811  0.18958168  1
  Rh  Rh226  1  0.40824412  -0.01373914  0.01404205  1
  Rh  Rh227  1  0.79986238  0.60779636  0.41302065  1
  Rh  Rh228  1  0.00605173  -0.00051928  0.40851708  1
  Rh  Rh229  1  0.00586790  0.40544036  -0.00538583  1
  Rh  Rh230  1  0.59626475  0.79910323  0.60426239  1
  Rh  Rh231  1  0.60168710  0.39952410  0.79015584  1
  Rh  Rh232  1  0.79153514  0.39479137  0.39031584  1
  Rh  Rh233  1  0.00637985  0.80401817  0.79293251  1
  Rh  Rh234  1  0.60096811  0.19865787  0.80662269  1
  Rh  Rh235  1  0.19205666  0.20276478  0.60661876  1
  Rh  Rh236  1  -0.00244422  0.39754487  0.21115293  1
  Rh  Rh237  1  0.01176760  0.61012626  0.19501743  1
  Rh  Rh238  1  0.20981746  0.20496066  0.79816623  1
  Rh  Rh239  1  0.79923260  0.19360044  -0.00932331  1
  Rh  Rh240  1  0.20530141  0.80106714  0.40551284  1
  Rh  Rh241  1  0.78910186  -0.00238193  0.40181522  1
  Rh  Rh242  1  0.20493737  0.59279780  0.00620678  1
  Rh  Rh243  1  0.19928090  -0.00789462  -0.00397530  1
  Rh  Rh244  1  0.39589884  0.79231798  0.39980475  1
  Rh  Rh245  1  0.20066995  0.40620195  0.40279537  1
  Rh  Rh246  1  -0.00405050  -0.00584470  0.79536717  1
  Rh  Rh247  1  0.39509602  0.38968243  0.80651768  1
  Rh  Rh248  1  0.18564262  0.21440417  0.00485560  1
  Rh  Rh249  1  0.39752186  0.59839180  0.59777241  1
