# generated using pymatgen
data_ZrScNbPdRh
_symmetry_space_group_name_H-M   'P 1'
_cell_length_a   16.55265359
_cell_length_b   16.54920937
_cell_length_c   16.55536943
_cell_angle_alpha   90.01760671
_cell_angle_beta   90.00101615
_cell_angle_gamma   90.01178356
_symmetry_Int_Tables_number   1
_chemical_formula_structural   ZrScNbPdRh
_chemical_formula_sum   'Zr50 Sc50 Nb50 Pd50 Rh50'
_cell_volume   4535.06716399
_cell_formula_units_Z   50
loop_
 _symmetry_equiv_pos_site_id
 _symmetry_equiv_pos_as_xyz
  1  'x, y, z'
loop_
 _atom_site_type_symbol
 _atom_site_label
 _atom_site_symmetry_multiplicity
 _atom_site_fract_x
 _atom_site_fract_y
 _atom_site_fract_z
 _atom_site_occupancy
  Zr  Zr0  1  0.90560883  0.90600459  0.50250094  1
  Zr  Zr1  1  0.69819475  0.89766404  0.89000910  1
  Zr  Zr2  1  0.30001391  0.29734768  0.69736400  1
  Zr  Zr3  1  0.50727465  0.29714991  0.50680879  1
  Zr  Zr4  1  0.71504367  0.09794920  0.29322593  1
  Zr  Zr5  1  0.09836644  0.70874578  0.50641721  1
  Zr  Zr6  1  0.50034950  0.70266625  0.49435316  1
  Zr  Zr7  1  0.49717090  0.09858829  0.30500359  1
  Zr  Zr8  1  0.69603100  0.29574331  0.69191227  1
  Zr  Zr9  1  0.49725257  0.70059600  0.09715502  1
  Zr  Zr10  1  0.89933753  0.70719396  0.50667935  1
  Zr  Zr11  1  0.70539570  0.49543418  0.70195479  1
  Zr  Zr12  1  0.89152151  0.90781250  0.30151428  1
  Zr  Zr13  1  0.11000059  0.10072842  0.89934406  1
  Zr  Zr14  1  0.10683203  0.70149867  0.89999106  1
  Zr  Zr15  1  0.69739230  0.50430144  0.30685060  1
  Zr  Zr16  1  0.30087918  0.69958255  0.50409792  1
  Zr  Zr17  1  0.09914395  0.70328302  0.30014074  1
  Zr  Zr18  1  0.49487184  0.90244958  0.30547943  1
  Zr  Zr19  1  0.70335597  0.70866272  0.71280234  1
  Zr  Zr20  1  0.69877147  0.10074385  0.50147046  1
  Zr  Zr21  1  0.49424443  0.70586360  0.70426670  1
  Zr  Zr22  1  0.69774252  0.69748710  0.28988420  1
  Zr  Zr23  1  0.69720899  0.10068616  0.70194235  1
  Zr  Zr24  1  0.89871718  0.48883223  0.90245092  1
  Zr  Zr25  1  0.70053009  0.90330860  0.70068329  1
  Zr  Zr26  1  0.49573992  0.69520925  0.89470625  1
  Zr  Zr27  1  0.30569105  0.89561230  0.69581496  1
  Zr  Zr28  1  0.69370944  0.90024040  0.30347247  1
  Zr  Zr29  1  0.28643830  0.49534762  0.70255498  1
  Zr  Zr30  1  0.10007518  0.29526184  0.90312594  1
  Zr  Zr31  1  0.70613352  0.09622262  0.89601237  1
  Zr  Zr32  1  0.29559405  0.70265265  0.09730210  1
  Zr  Zr33  1  0.09695387  0.90633555  0.90020151  1
  Zr  Zr34  1  0.89452640  0.69966637  0.30972773  1
  Zr  Zr35  1  0.10534419  0.30560419  0.70042451  1
  Zr  Zr36  1  0.30209592  0.70117907  0.89512610  1
  Zr  Zr37  1  0.70792301  0.28964632  0.09994750  1
  Zr  Zr38  1  0.10894478  0.10823963  0.09558543  1
  Zr  Zr39  1  0.49624476  0.10426291  0.10301275  1
  Zr  Zr40  1  0.49696005  0.29702742  0.70716521  1
  Zr  Zr41  1  0.69490026  0.49939999  0.89101055  1
  Zr  Zr42  1  0.89961234  0.10486571  0.69673554  1
  Zr  Zr43  1  0.88153609  0.10644260  0.10263848  1
  Zr  Zr44  1  0.90165158  0.30440145  0.08785306  1
  Zr  Zr45  1  0.09805644  0.48438869  0.50009731  1
  Zr  Zr46  1  0.89171066  0.69428598  0.09803448  1
  Zr  Zr47  1  0.29771149  0.30256029  0.88738930  1
  Zr  Zr48  1  0.09399955  0.70072643  0.09310648  1
  Zr  Zr49  1  0.90816733  0.89604167  0.09260208  1
  Sc  Sc50  1  0.89841008  0.49283136  0.49929992  1
  Sc  Sc51  1  0.70063132  0.70461960  0.49443176  1
  Sc  Sc52  1  0.28970490  0.30612716  0.10605835  1
  Sc  Sc53  1  0.49091675  0.89833092  0.89588947  1
  Sc  Sc54  1  0.49059065  0.48907265  0.09117728  1
  Sc  Sc55  1  0.30156257  0.71224344  0.30226740  1
  Sc  Sc56  1  0.69500782  0.90012062  0.50001373  1
  Sc  Sc57  1  0.70629959  0.30426599  0.50557610  1
  Sc  Sc58  1  0.50313942  0.90534763  0.69740716  1
  Sc  Sc59  1  0.29983329  0.49926781  0.90332386  1
  Sc  Sc60  1  0.50129011  0.10100635  0.69508534  1
  Sc  Sc61  1  0.10386953  0.89771341  0.09215203  1
  Sc  Sc62  1  0.10399189  0.10435381  0.31145617  1
  Sc  Sc63  1  0.29318542  0.29596548  0.50355334  1
  Sc  Sc64  1  0.50884934  0.49657744  0.71602590  1
  Sc  Sc65  1  0.49529049  0.09635334  0.89001654  1
  Sc  Sc66  1  0.90549859  0.10098565  0.89504545  1
  Sc  Sc67  1  0.29832285  0.10059521  0.09513589  1
  Sc  Sc68  1  0.89466030  0.89375997  0.69766531  1
  Sc  Sc69  1  0.30402364  0.89896008  0.09779864  1
  Sc  Sc70  1  0.90586963  0.30045481  0.89778835  1
  Sc  Sc71  1  0.28882104  0.69898898  0.70114021  1
  Sc  Sc72  1  0.70492166  0.29990982  0.30300582  1
  Sc  Sc73  1  0.90289505  0.69016095  0.90492206  1
  Sc  Sc74  1  0.29491757  0.90191022  0.50268544  1
  Sc  Sc75  1  0.90113938  0.90668030  0.89862254  1
  Sc  Sc76  1  0.49421122  0.09270093  0.50371617  1
  Sc  Sc77  1  0.48919086  0.89942311  0.09514079  1
  Sc  Sc78  1  0.90284655  0.29610030  0.31305526  1
  Sc  Sc79  1  0.50439514  0.69567731  0.30414017  1
  Sc  Sc80  1  0.51431196  0.50370437  0.49105558  1
  Sc  Sc81  1  0.29711012  0.29299895  0.30329223  1
  Sc  Sc82  1  0.70708932  0.50554879  0.09913799  1
  Sc  Sc83  1  0.30867777  0.10832915  0.70050298  1
  Sc  Sc84  1  0.10674091  0.30169861  0.30880946  1
  Sc  Sc85  1  0.29514918  0.48542099  0.30025961  1
  Sc  Sc86  1  0.29541358  0.49784609  0.49772802  1
  Sc  Sc87  1  0.29967638  0.90781077  0.90010433  1
  Sc  Sc88  1  0.10022528  0.49567804  0.90132687  1
  Sc  Sc89  1  0.10241769  0.10126487  0.70315886  1
  Sc  Sc90  1  0.70258296  0.88495063  0.09370676  1
  Sc  Sc91  1  0.89931808  0.30192267  0.70379726  1
  Sc  Sc92  1  0.10612761  0.90658596  0.69428802  1
  Sc  Sc93  1  0.10623216  0.89810511  0.30921958  1
  Sc  Sc94  1  0.70689235  0.30715949  0.89705035  1
  Sc  Sc95  1  0.89850333  0.50105174  0.31374210  1
  Sc  Sc96  1  0.30422448  0.10198697  0.30733781  1
  Sc  Sc97  1  0.30085066  0.10263676  0.50425738  1
  Sc  Sc98  1  0.49292202  0.29176411  0.29379221  1
  Sc  Sc99  1  0.70266788  0.49395996  0.49915597  1
  Nb  Nb100  1  0.10432913  0.91412206  0.50493266  1
  Nb  Nb101  1  0.29317916  0.90296269  0.29456820  1
  Nb  Nb102  1  0.90568719  0.29613122  0.49972664  1
  Nb  Nb103  1  0.09604737  0.29475785  0.50203173  1
  Nb  Nb104  1  0.90711110  0.50765712  0.70784556  1
  Nb  Nb105  1  0.69587912  0.10327054  0.09700168  1
  Nb  Nb106  1  0.90834998  0.49940282  0.09507189  1
  Nb  Nb107  1  0.09532435  0.09093587  0.50520090  1
  Nb  Nb108  1  0.50781652  0.90420727  0.49816837  1
  Nb  Nb109  1  0.69270195  0.70281971  0.90540939  1
  Nb  Nb110  1  0.10077136  0.30021439  0.10258696  1
  Nb  Nb111  1  0.49779256  0.31633360  0.90354648  1
  Nb  Nb112  1  0.09865089  0.49908784  0.30164729  1
  Nb  Nb113  1  0.50348906  0.29875387  0.09587631  1
  Nb  Nb114  1  0.50100014  0.49925653  0.29955964  1
  Nb  Nb115  1  0.09490521  0.68905454  0.69954844  1
  Nb  Nb116  1  0.09449920  0.50336680  0.69969114  1
  Nb  Nb117  1  0.69477969  0.69736399  0.09338955  1
  Nb  Nb118  1  0.90218578  0.09932469  0.30033969  1
  Nb  Nb119  1  0.90680639  0.69551040  0.69736944  1
  Nb  Nb120  1  0.29157238  0.49964556  0.10595379  1
  Nb  Nb121  1  0.30004434  0.10639607  0.90526820  1
  Nb  Nb122  1  0.10420935  0.49197966  0.10174790  1
  Nb  Nb123  1  0.90370828  0.10228023  0.49070734  1
  Nb  Nb124  1  0.50258882  0.49279289  0.89896260  1
  Nb  Nb125  1  0.40580303  0.59396114  0.60069020  1
  Nb  Nb126  1  0.40441592  0.40685125  0.59899121  1
  Nb  Nb127  1  0.80652607  0.40256438  0.19871420  1
  Nb  Nb128  1  -0.00060345  0.20031361  0.20061679  1
  Nb  Nb129  1  0.60100262  0.19406114  0.39911919  1
  Nb  Nb130  1  0.19749988  0.59562267  0.20159156  1
  Nb  Nb131  1  0.40545991  0.39794120  0.40399703  1
  Nb  Nb132  1  0.00115478  0.00477236  0.20059149  1
  Nb  Nb133  1  0.59532531  0.20178400  -0.00263388  1
  Nb  Nb134  1  0.60290092  0.60427166  0.60709397  1
  Nb  Nb135  1  0.19857769  -0.00091765  0.20330059  1
  Nb  Nb136  1  0.40430941  0.20917693  -0.00402830  1
  Nb  Nb137  1  0.59864839  0.60158229  -0.00375265  1
  Nb  Nb138  1  0.19370297  0.59960765  0.39548624  1
  Nb  Nb139  1  0.00133583  0.19904209  0.59164585  1
  Nb  Nb140  1  0.60091312  0.00549615  0.00328094  1
  Nb  Nb141  1  0.00441118  0.79115783  0.79370106  1
  Nb  Nb142  1  0.00088424  0.40060836  0.19878870  1
  Nb  Nb143  1  0.60197021  0.00213627  0.19400557  1
  Nb  Nb144  1  0.00186169  0.59476458  0.19925103  1
  Nb  Nb145  1  0.80240942  0.00668216  0.59588855  1
  Nb  Nb146  1  0.39308475  0.59246473  0.20003421  1
  Nb  Nb147  1  0.80271987  0.60391066  0.60904436  1
  Nb  Nb148  1  0.60085299  0.39883032  0.19774135  1
  Nb  Nb149  1  -0.00376927  0.80002254  0.20227103  1
  Pd  Pd150  1  0.00442779  0.59914067  0.81145563  1
  Pd  Pd151  1  0.80198720  0.60357164  0.80323389  1
  Pd  Pd152  1  0.40373255  0.80001504  0.59531423  1
  Pd  Pd153  1  0.80241217  0.20642290  0.80319025  1
  Pd  Pd154  1  0.19757943  0.59407505  0.00093089  1
  Pd  Pd155  1  0.80562580  0.79857457  -0.01022332  1
  Pd  Pd156  1  0.79472158  0.80580132  0.40409651  1
  Pd  Pd157  1  0.19977844  0.59626424  0.59289301  1
  Pd  Pd158  1  0.81052733  0.40418125  0.60501938  1
  Pd  Pd159  1  0.80800991  0.59098602  0.20302425  1
  Pd  Pd160  1  0.40332509  0.79426591  0.20399597  1
  Pd  Pd161  1  -0.00355666  0.19295278  0.00215181  1
  Pd  Pd162  1  0.79248149  0.59499848  -0.00815060  1
  Pd  Pd163  1  0.60280531  0.20082708  0.20510383  1
  Pd  Pd164  1  0.59054117  0.80362542  -0.00474702  1
  Pd  Pd165  1  0.59460505  0.38716028  0.38958601  1
  Pd  Pd166  1  0.60108664  0.79704775  0.60028156  1
  Pd  Pd167  1  0.59562247  0.20451858  0.81059823  1
  Pd  Pd168  1  0.39045682  -0.00516307  0.40820244  1
  Pd  Pd169  1  0.00587487  -0.00233805  0.39201779  1
  Pd  Pd170  1  0.79536847  -0.01197994  0.18673025  1
  Pd  Pd171  1  0.20175479  0.80066941  0.40786460  1
  Pd  Pd172  1  -0.00434993  0.59180707  0.58931072  1
  Pd  Pd173  1  0.21070367  0.00594533  0.79497671  1
  Pd  Pd174  1  0.20595492  0.80898829  -0.00411256  1
  Pd  Pd175  1  0.59204016  0.80704200  0.19835089  1
  Pd  Pd176  1  0.38978917  0.58881044  0.39490993  1
  Pd  Pd177  1  0.58840011  0.58863431  0.18669646  1
  Pd  Pd178  1  0.79418588  -0.00451598  0.00204418  1
  Pd  Pd179  1  0.81425096  0.79489620  0.80918316  1
  Pd  Pd180  1  0.39560627  0.00246723  0.79600807  1
  Pd  Pd181  1  -0.00766399  0.39514705  0.60658062  1
  Pd  Pd182  1  0.00092606  0.81085963  0.39875736  1
  Pd  Pd183  1  0.38613240  0.39517481  0.00192933  1
  Pd  Pd184  1  0.19404190  0.80321594  0.79318067  1
  Pd  Pd185  1  0.39419388  0.59100765  0.79296152  1
  Pd  Pd186  1  0.40163449  0.59491749  0.00359314  1
  Pd  Pd187  1  0.40326532  0.39909916  0.20475841  1
  Pd  Pd188  1  -0.00090032  0.01293362  0.00644056  1
  Pd  Pd189  1  0.19951139  0.19490940  0.40939653  1
  Pd  Pd190  1  0.00311171  0.59848081  0.40676974  1
  Pd  Pd191  1  0.61072204  0.40226970  0.00784969  1
  Pd  Pd192  1  0.00773259  0.80867103  0.60887278  1
  Pd  Pd193  1  0.21047041  0.00978991  0.60726589  1
  Pd  Pd194  1  0.39673596  0.80957161  0.40402843  1
  Pd  Pd195  1  -0.00312650  -0.00725490  0.78961557  1
  Pd  Pd196  1  0.39439306  0.00090702  0.19833984  1
  Pd  Pd197  1  0.80228813  0.80034914  0.19797715  1
  Pd  Pd198  1  0.38665560  0.20328091  0.19213734  1
  Pd  Pd199  1  0.79498014  0.20308254  0.40408012  1
  Rh  Rh200  1  0.19686255  0.19365516  0.20456818  1
  Rh  Rh201  1  0.20252025  0.39743206  0.59718526  1
  Rh  Rh202  1  0.79579193  0.60112747  0.41258135  1
  Rh  Rh203  1  0.39519837  0.80343115  0.79966316  1
  Rh  Rh204  1  0.20014487  0.19538102  0.79668982  1
  Rh  Rh205  1  0.19341178  0.80085558  0.60345085  1
  Rh  Rh206  1  0.40414967  0.20170628  0.80738864  1
  Rh  Rh207  1  0.39440269  0.79963811  -0.00688492  1
  Rh  Rh208  1  0.00575459  0.19838686  0.40172125  1
  Rh  Rh209  1  0.19201250  0.40417260  0.80289926  1
  Rh  Rh210  1  0.21139216  0.21078254  -0.00150212  1
  Rh  Rh211  1  0.20029033  0.39581530  -0.00238177  1
  Rh  Rh212  1  0.00948680  0.39990256  0.00029683  1
  Rh  Rh213  1  0.60370012  0.00076752  0.60150817  1
  Rh  Rh214  1  0.40270777  0.00944584  -0.00257357  1
  Rh  Rh215  1  0.40120873  0.20631483  0.59774557  1
  Rh  Rh216  1  0.00022245  0.39406744  0.39690149  1
  Rh  Rh217  1  0.00291559  0.40134475  0.79776961  1
  Rh  Rh218  1  0.40807873  0.20763090  0.40877188  1
  Rh  Rh219  1  0.81024445  0.19662528  0.59298252  1
  Rh  Rh220  1  0.59572101  0.40979344  0.60812995  1
  Rh  Rh221  1  0.80435088  0.39673387  0.79469620  1
  Rh  Rh222  1  0.19470172  0.59498523  0.80247577  1
  Rh  Rh223  1  0.79838370  -0.00105267  0.40880356  1
  Rh  Rh224  1  0.59767393  0.19447725  0.59462359  1
  Rh  Rh225  1  0.59908309  0.79761663  0.39629871  1
  Rh  Rh226  1  0.20404649  0.39882489  0.40354849  1
  Rh  Rh227  1  0.40071630  -0.00489234  0.59804939  1
  Rh  Rh228  1  -0.00653242  0.00599067  0.60368454  1
  Rh  Rh229  1  -0.00431366  0.79684222  -0.00861809  1
  Rh  Rh230  1  0.60498850  0.38934781  0.79690270  1
  Rh  Rh231  1  0.79766396  0.80089907  0.59958378  1
  Rh  Rh232  1  0.19333567  0.80493843  0.19517186  1
  Rh  Rh233  1  0.60067170  0.60506083  0.80280404  1
  Rh  Rh234  1  0.00583375  0.59372593  0.00071659  1
  Rh  Rh235  1  0.20371456  0.00188146  0.39867563  1
  Rh  Rh236  1  0.60244866  0.00681525  0.39360737  1
  Rh  Rh237  1  0.79539717  0.40477948  0.00299212  1
  Rh  Rh238  1  0.79657177  0.19941548  -0.01397141  1
  Rh  Rh239  1  0.20457585  -0.00190032  0.00457619  1
  Rh  Rh240  1  0.19078851  0.19514702  0.59887296  1
  Rh  Rh241  1  0.19306820  0.39809765  0.20632187  1
  Rh  Rh242  1  0.81168165  0.21367949  0.20773865  1
  Rh  Rh243  1  0.80670633  0.00167085  0.78978443  1
  Rh  Rh244  1  0.80320240  0.39683103  0.39799885  1
  Rh  Rh245  1  0.59241197  0.80378141  0.80274386  1
  Rh  Rh246  1  0.00480754  0.20208020  0.79278194  1
  Rh  Rh247  1  0.59505320  -0.00309144  0.80464631  1
  Rh  Rh248  1  0.39685603  0.40594583  0.79375101  1
  Rh  Rh249  1  0.60782323  0.60577754  0.40450427  1
