# generated using pymatgen
data_ZrScNbPdRh
_symmetry_space_group_name_H-M   'P 1'
_cell_length_a   16.55545024
_cell_length_b   16.56316006
_cell_length_c   16.55890927
_cell_angle_alpha   90.02384067
_cell_angle_beta   90.02209595
_cell_angle_gamma   90.01856844
_symmetry_Int_Tables_number   1
_chemical_formula_structural   ZrScNbPdRh
_chemical_formula_sum   'Zr50 Sc50 Nb50 Pd50 Rh50'
_cell_volume   4540.62701891
_cell_formula_units_Z   50
loop_
 _symmetry_equiv_pos_site_id
 _symmetry_equiv_pos_as_xyz
  1  'x, y, z'
loop_
 _atom_site_type_symbol
 _atom_site_label
 _atom_site_symmetry_multiplicity
 _atom_site_fract_x
 _atom_site_fract_y
 _atom_site_fract_z
 _atom_site_occupancy
  Zr  Zr0  1  0.90702221  0.89691440  0.49798479  1
  Zr  Zr1  1  0.29975372  0.90625816  0.50365736  1
  Zr  Zr2  1  0.69500804  0.70527949  0.70460009  1
  Zr  Zr3  1  0.90078193  0.89180816  0.90252541  1
  Zr  Zr4  1  0.69822065  0.29651235  0.89758537  1
  Zr  Zr5  1  0.09990318  0.69439288  0.89432159  1
  Zr  Zr6  1  0.10720038  0.90493903  0.10378326  1
  Zr  Zr7  1  0.29256991  0.49994850  0.70260536  1
  Zr  Zr8  1  0.89724444  0.30313010  0.89202288  1
  Zr  Zr9  1  0.70203679  0.69991016  0.50192732  1
  Zr  Zr10  1  0.30386219  0.29845858  0.89157418  1
  Zr  Zr11  1  0.09452980  0.29392959  0.49245487  1
  Zr  Zr12  1  0.70271908  0.29890645  0.69126532  1
  Zr  Zr13  1  0.10125517  0.89258977  0.69687674  1
  Zr  Zr14  1  0.30516957  0.69913678  0.90277130  1
  Zr  Zr15  1  0.30179135  0.30222801  0.69861241  1
  Zr  Zr16  1  0.09617767  0.50117639  0.89739947  1
  Zr  Zr17  1  0.09641540  0.10609284  0.30240003  1
  Zr  Zr18  1  0.69981609  0.30022876  0.09831684  1
  Zr  Zr19  1  0.69658153  0.90085540  0.30354341  1
  Zr  Zr20  1  0.29613496  0.90584136  0.29108338  1
  Zr  Zr21  1  0.89298751  0.69789826  0.69804062  1
  Zr  Zr22  1  0.29189813  0.50244293  0.49713189  1
  Zr  Zr23  1  0.50571189  0.30473897  0.71047393  1
  Zr  Zr24  1  0.49573479  0.50102582  0.49833748  1
  Zr  Zr25  1  0.29410319  0.50381666  0.90332650  1
  Zr  Zr26  1  0.70813169  0.48496379  0.49725603  1
  Zr  Zr27  1  0.30385762  0.89973045  0.10280495  1
  Zr  Zr28  1  0.49697520  0.90070896  0.49607017  1
  Zr  Zr29  1  0.51028947  0.30890645  0.50422948  1
  Zr  Zr30  1  0.50355845  0.69974015  0.09634628  1
  Zr  Zr31  1  0.29170512  0.30792457  0.09981031  1
  Zr  Zr32  1  0.70646472  0.09405618  0.68871049  1
  Zr  Zr33  1  0.29940495  0.69211313  0.50229764  1
  Zr  Zr34  1  0.69438962  0.70334826  0.29987973  1
  Zr  Zr35  1  0.09781694  0.30041214  0.28557695  1
  Zr  Zr36  1  0.50063279  0.10321401  0.90501146  1
  Zr  Zr37  1  0.49863286  0.09924172  0.29970608  1
  Zr  Zr38  1  0.29663238  0.08685704  0.09492824  1
  Zr  Zr39  1  0.91929256  0.10106207  0.89832759  1
  Zr  Zr40  1  0.10014826  0.28521809  0.90542740  1
  Zr  Zr41  1  0.69592905  0.30865367  0.30322132  1
  Zr  Zr42  1  0.69344254  0.50195506  0.29722104  1
  Zr  Zr43  1  0.09401853  0.89885383  0.29990948  1
  Zr  Zr44  1  0.90865963  0.89043521  0.09996166  1
  Zr  Zr45  1  0.10026680  0.11073827  0.08657788  1
  Zr  Zr46  1  0.90477239  0.10015370  0.70352066  1
  Zr  Zr47  1  0.09481495  0.69657957  0.30230254  1
  Zr  Zr48  1  0.09651898  0.50401063  0.70487816  1
  Zr  Zr49  1  0.29653878  0.69524552  0.30035823  1
  Sc  Sc50  1  0.89076957  0.50458241  0.07492097  1
  Sc  Sc51  1  0.29572688  0.70925719  0.69660619  1
  Sc  Sc52  1  0.90087870  0.50414379  0.89286250  1
  Sc  Sc53  1  0.90288584  0.89792760  0.69590117  1
  Sc  Sc54  1  0.71027516  0.50790712  0.90177501  1
  Sc  Sc55  1  0.29980242  0.09690196  0.49648969  1
  Sc  Sc56  1  0.90052534  0.49914695  0.31116670  1
  Sc  Sc57  1  0.10113248  0.50008319  0.30091248  1
  Sc  Sc58  1  0.50633974  0.90180140  0.90945901  1
  Sc  Sc59  1  0.89553158  0.90411061  0.30481531  1
  Sc  Sc60  1  0.49939760  0.89550530  0.69367725  1
  Sc  Sc61  1  0.09543055  0.68993231  0.50302517  1
  Sc  Sc62  1  0.29657007  0.10446332  0.69202794  1
  Sc  Sc63  1  0.90966872  0.29792463  0.29847768  1
  Sc  Sc64  1  0.50624375  0.50513443  0.10086454  1
  Sc  Sc65  1  0.49437942  0.30301988  0.30172783  1
  Sc  Sc66  1  0.29880201  0.49645463  0.30354673  1
  Sc  Sc67  1  0.30454682  0.30316217  0.29772712  1
  Sc  Sc68  1  0.49948664  0.90243612  0.30017180  1
  Sc  Sc69  1  0.70295596  0.90831972  0.49783274  1
  Sc  Sc70  1  0.29186730  0.29921320  0.49643672  1
  Sc  Sc71  1  0.30332028  0.89759348  0.69267844  1
  Sc  Sc72  1  0.50593257  0.09606245  0.69764189  1
  Sc  Sc73  1  0.70400538  0.51407845  0.70417081  1
  Sc  Sc74  1  0.90510785  0.29609225  0.10459743  1
  Sc  Sc75  1  0.69382909  0.09697833  0.10769390  1
  Sc  Sc76  1  0.09001570  0.70602845  0.10093715  1
  Sc  Sc77  1  0.10333319  0.29352575  0.69536396  1
  Sc  Sc78  1  0.30218710  0.09884064  0.30087205  1
  Sc  Sc79  1  0.50543854  0.70550271  0.90818350  1
  Sc  Sc80  1  0.49719495  0.08960819  0.49952798  1
  Sc  Sc81  1  0.70615709  0.08757843  0.29803983  1
  Sc  Sc82  1  0.90052055  0.69355452  0.50020619  1
  Sc  Sc83  1  0.10277627  0.09869162  0.50295405  1
  Sc  Sc84  1  0.09185251  0.90048047  0.89740752  1
  Sc  Sc85  1  0.50006767  0.70194909  0.51062382  1
  Sc  Sc86  1  0.49633607  0.48812975  0.29951148  1
  Sc  Sc87  1  0.50614421  0.71003569  0.29727369  1
  Sc  Sc88  1  0.51201665  0.50370501  0.69970592  1
  Sc  Sc89  1  0.30057395  0.50078415  0.09890099  1
  Sc  Sc90  1  0.50788446  0.50987386  0.89782137  1
  Sc  Sc91  1  0.89937140  0.50295345  0.70780213  1
  Sc  Sc92  1  0.10871429  0.49343290  0.10043720  1
  Sc  Sc93  1  0.90176397  0.70557764  0.30956080  1
  Sc  Sc94  1  0.49517088  0.90014255  0.10052795  1
  Sc  Sc95  1  0.50101300  0.29754151  0.11354492  1
  Sc  Sc96  1  0.30602446  0.90068375  0.90828079  1
  Sc  Sc97  1  0.68521859  0.09554452  0.90614751  1
  Sc  Sc98  1  0.30661757  0.70101627  0.09772499  1
  Sc  Sc99  1  0.89723223  0.08960762  0.50591888  1
  Nb  Nb100  1  0.70485090  0.90089033  0.71189669  1
  Nb  Nb101  1  0.70385006  0.90095606  0.09770477  1
  Nb  Nb102  1  0.10523752  0.09756174  0.89703872  1
  Nb  Nb103  1  0.69827930  0.50060744  0.09791773  1
  Nb  Nb104  1  0.89406302  0.09819963  0.10402794  1
  Nb  Nb105  1  0.69877347  0.70678750  0.90228106  1
  Nb  Nb106  1  0.49965720  0.69832180  0.70216495  1
  Nb  Nb107  1  0.90120476  0.49674212  0.50057619  1
  Nb  Nb108  1  0.90011501  0.69903512  0.09572261  1
  Nb  Nb109  1  0.09505682  0.50023444  0.50272331  1
  Nb  Nb110  1  0.10097850  0.30383091  0.09912643  1
  Nb  Nb111  1  0.70541709  0.29867703  0.50108709  1
  Nb  Nb112  1  0.70260054  0.10125328  0.49969030  1
  Nb  Nb113  1  0.89017857  0.31172658  0.50117149  1
  Nb  Nb114  1  0.09514958  0.09839788  0.70657764  1
  Nb  Nb115  1  0.69378901  0.69321745  0.09962062  1
  Nb  Nb116  1  0.69997897  0.89819353  0.90309569  1
  Nb  Nb117  1  0.49975617  0.10200051  0.09559563  1
  Nb  Nb118  1  0.09915530  0.69519973  0.70433856  1
  Nb  Nb119  1  0.90253739  0.29911780  0.70288302  1
  Nb  Nb120  1  0.90350490  0.69277743  0.91474304  1
  Nb  Nb121  1  0.29681426  0.09940465  0.90362715  1
  Nb  Nb122  1  0.50354965  0.29766671  0.90109069  1
  Nb  Nb123  1  0.89472625  0.10225609  0.29105484  1
  Nb  Nb124  1  0.10257417  0.90186091  0.49206495  1
  Nb  Nb125  1  0.39547306  0.00479094  0.80339741  1
  Nb  Nb126  1  0.60045421  0.39715154  -0.00199827  1
  Nb  Nb127  1  0.40033712  0.20203307  -0.00107237  1
  Nb  Nb128  1  0.00424862  0.39425759  -0.00271589  1
  Nb  Nb129  1  0.40380333  0.60192736  0.20148207  1
  Nb  Nb130  1  0.60122484  0.59788332  0.40218747  1
  Nb  Nb131  1  -0.00521509  0.39900753  0.59627974  1
  Nb  Nb132  1  0.80291478  0.19137110  0.00042688  1
  Nb  Nb133  1  0.79932877  0.60276573  0.19355118  1
  Nb  Nb134  1  -0.00377308  0.00908338  0.19856517  1
  Nb  Nb135  1  0.19969592  0.80200032  0.40286598  1
  Nb  Nb136  1  0.39851795  0.40054367  0.60256827  1
  Nb  Nb137  1  0.60879088  0.19844791  0.40659896  1
  Nb  Nb138  1  0.79722843  -0.00487580  0.80754545  1
  Nb  Nb139  1  0.40406456  0.20905146  0.60078104  1
  Nb  Nb140  1  0.79629843  0.79305523  0.19254497  1
  Nb  Nb141  1  0.20031867  0.00436984  0.80222417  1
  Nb  Nb142  1  0.40200839  0.60747148  0.79722399  1
  Nb  Nb143  1  0.19847144  0.80049910  -0.00052469  1
  Nb  Nb144  1  -0.01309589  0.59975501  0.19391882  1
  Nb  Nb145  1  0.80159802  -0.00084956  -0.00095664  1
  Nb  Nb146  1  0.39062235  0.80032696  0.40114088  1
  Nb  Nb147  1  0.79826850  0.20170317  0.40488325  1
  Nb  Nb148  1  0.40860461  0.39463536  -0.00604570  1
  Nb  Nb149  1  0.79881180  0.40950204  0.19513277  1
  Pd  Pd150  1  0.80489280  0.79755275  0.80348452  1
  Pd  Pd151  1  0.79502598  0.80684150  0.59667307  1
  Pd  Pd152  1  0.59646071  -0.00405357  0.79906150  1
  Pd  Pd153  1  0.40778306  0.41561324  0.80175086  1
  Pd  Pd154  1  -0.01190641  0.41639472  0.18613023  1
  Pd  Pd155  1  0.79723226  0.60005524  0.39711744  1
  Pd  Pd156  1  0.60246515  0.81007780  0.19218748  1
  Pd  Pd157  1  -0.00038425  -0.00044618  0.00657111  1
  Pd  Pd158  1  0.19957808  0.79101218  0.19660465  1
  Pd  Pd159  1  0.39768620  0.59476847  0.61140780  1
  Pd  Pd160  1  0.41255737  0.60702521  0.38900643  1
  Pd  Pd161  1  0.40231070  0.19002506  0.79642845  1
  Pd  Pd162  1  0.59387552  0.19572090  0.59562150  1
  Pd  Pd163  1  0.40713802  0.80392539  0.80186481  1
  Pd  Pd164  1  0.19200336  0.79362991  0.59058314  1
  Pd  Pd165  1  0.81207241  0.19964728  0.59508327  1
  Pd  Pd166  1  0.00389099  0.40110239  0.40117535  1
  Pd  Pd167  1  0.60650795  0.80830592  0.59938916  1
  Pd  Pd168  1  0.79399647  0.40401018  0.79425053  1
  Pd  Pd169  1  0.79497187  0.20839652  0.20334213  1
  Pd  Pd170  1  0.61049244  0.40898361  0.80607292  1
  Pd  Pd171  1  0.19277783  0.39885465  0.59606539  1
  Pd  Pd172  1  0.80038177  0.80259889  0.39951734  1
  Pd  Pd173  1  0.00549605  0.79472314  0.59441996  1
  Pd  Pd174  1  0.59327726  -0.00357839  0.19554415  1
  Pd  Pd175  1  0.00740729  -0.00244108  0.60177510  1
  Pd  Pd176  1  0.20406954  0.80938830  0.80823961  1
  Pd  Pd177  1  -0.00603739  0.79253072  0.79965559  1
  Pd  Pd178  1  0.19935381  0.19463216  0.79416877  1
  Pd  Pd179  1  0.19466733  0.00434626  0.60640515  1
  Pd  Pd180  1  0.59065871  0.80302256  0.80248866  1
  Pd  Pd181  1  0.20675083  0.19668023  0.19863311  1
  Pd  Pd182  1  -0.01566423  0.19277829  0.40865456  1
  Pd  Pd183  1  0.79215361  0.18511488  0.80726473  1
  Pd  Pd184  1  0.79387192  0.79813637  0.00478074  1
  Pd  Pd185  1  0.40837763  0.20440902  0.40990956  1
  Pd  Pd186  1  -0.00579987  0.59440094  0.60336533  1
  Pd  Pd187  1  0.19429344  0.39793943  0.39438623  1
  Pd  Pd188  1  0.39283349  0.19492135  0.19172468  1
  Pd  Pd189  1  0.80414280  0.40836565  0.61421542  1
  Pd  Pd190  1  0.60409320  0.19704259  0.21103160  1
  Pd  Pd191  1  -0.00642564  0.20414511  0.59572187  1
  Pd  Pd192  1  0.19330593  0.60907619  0.01087772  1
  Pd  Pd193  1  0.19944364  0.59986743  0.19386536  1
  Pd  Pd194  1  0.20319026  0.19960062  0.39589113  1
  Pd  Pd195  1  0.60276222  -0.00887968  0.59736042  1
  Pd  Pd196  1  -0.00535548  0.00938095  0.39537814  1
  Pd  Pd197  1  0.18939550  0.39375722  0.80409063  1
  Pd  Pd198  1  0.60741715  0.19223148  0.79278187  1
  Pd  Pd199  1  0.60706453  0.59505023  0.59404160  1
  Rh  Rh200  1  0.21033284  0.20443331  0.00165555  1
  Rh  Rh201  1  0.19042371  0.59952860  0.40247987  1
  Rh  Rh202  1  0.39992021  0.00882538  0.60962432  1
  Rh  Rh203  1  0.39400101  0.39589738  0.41008052  1
  Rh  Rh204  1  0.40624708  0.00488311  -0.00296361  1
  Rh  Rh205  1  0.40094192  0.79803140  0.59448064  1
  Rh  Rh206  1  0.59469843  0.59772904  0.20671257  1
  Rh  Rh207  1  0.39737013  0.80202390  0.00303440  1
  Rh  Rh208  1  0.60160959  0.40058224  0.19132704  1
  Rh  Rh209  1  0.39587573  -0.00680245  0.39358115  1
  Rh  Rh210  1  0.59094951  0.79517739  0.40970720  1
  Rh  Rh211  1  -0.01026326  0.79858541  0.20962604  1
  Rh  Rh212  1  0.80195650  -0.00953197  0.60635107  1
  Rh  Rh213  1  0.40650987  0.00566103  0.19868365  1
  Rh  Rh214  1  0.80231629  0.59575840  0.59665796  1
  Rh  Rh215  1  0.60327047  -0.00432484  0.00962185  1
  Rh  Rh216  1  0.00825525  0.59136838  0.00530163  1
  Rh  Rh217  1  0.00659599  0.79708219  0.40746212  1
  Rh  Rh218  1  0.80182736  0.61345132  0.80816754  1
  Rh  Rh219  1  0.80407957  0.00553992  0.40177362  1
  Rh  Rh220  1  0.60160526  0.00799725  0.39933772  1
  Rh  Rh221  1  -0.00837933  0.60905131  0.79853745  1
  Rh  Rh222  1  0.40440577  0.59160239  -0.00031287  1
  Rh  Rh223  1  0.00342480  0.19320768  0.19235529  1
  Rh  Rh224  1  0.60483757  0.40650056  0.60493750  1
  Rh  Rh225  1  0.59828640  0.40072117  0.40186297  1
  Rh  Rh226  1  0.59753857  0.20580613  0.00792199  1
  Rh  Rh227  1  0.39916754  0.41036867  0.19030610  1
  Rh  Rh228  1  0.60473150  0.80337868  0.00545816  1
  Rh  Rh229  1  0.19426055  -0.01100716  -0.01067135  1
  Rh  Rh230  1  0.19865120  0.39568131  -0.00879542  1
  Rh  Rh231  1  0.79048732  0.61125425  -0.00214296  1
  Rh  Rh232  1  0.19377760  0.60229009  0.60523317  1
  Rh  Rh233  1  0.01092550  0.79438198  -0.00665376  1
  Rh  Rh234  1  0.19964064  -0.00282921  0.39656982  1
  Rh  Rh235  1  0.00304119  -0.00616744  0.79312133  1
  Rh  Rh236  1  -0.00859926  0.20637585  0.00548249  1
  Rh  Rh237  1  0.59943212  0.61267061  0.80469214  1
  Rh  Rh238  1  0.80790267  -0.01421103  0.19245459  1
  Rh  Rh239  1  0.00646507  0.20596078  0.79390294  1
  Rh  Rh240  1  0.60650447  0.59683884  -0.00705285  1
  Rh  Rh241  1  0.00299679  0.39193162  0.79853420  1
  Rh  Rh242  1  0.18785732  0.01181462  0.20568115  1
  Rh  Rh243  1  0.39965454  0.79405168  0.20571811  1
  Rh  Rh244  1  0.20156447  0.19527662  0.59668996  1
  Rh  Rh245  1  0.80609664  0.39361739  0.38789519  1
  Rh  Rh246  1  -0.00012726  0.59593905  0.39645280  1
  Rh  Rh247  1  0.80168452  0.38609648  0.00289388  1
  Rh  Rh248  1  0.20926427  0.60844110  0.79247086  1
  Rh  Rh249  1  0.20206967  0.40194745  0.20643024  1
