# generated using pymatgen
data_ZrScNbPdRh
_symmetry_space_group_name_H-M   'P 1'
_cell_length_a   16.55953480
_cell_length_b   16.55664152
_cell_length_c   16.56272009
_cell_angle_alpha   90.04031576
_cell_angle_beta   90.03387688
_cell_angle_gamma   90.01359255
_symmetry_Int_Tables_number   1
_chemical_formula_structural   ZrScNbPdRh
_chemical_formula_sum   'Zr50 Sc50 Nb50 Pd50 Rh50'
_cell_volume   4541.00358318
_cell_formula_units_Z   50
loop_
 _symmetry_equiv_pos_site_id
 _symmetry_equiv_pos_as_xyz
  1  'x, y, z'
loop_
 _atom_site_type_symbol
 _atom_site_label
 _atom_site_symmetry_multiplicity
 _atom_site_fract_x
 _atom_site_fract_y
 _atom_site_fract_z
 _atom_site_occupancy
  Zr  Zr0  1  0.28903999  0.29940270  0.90522285  1
  Zr  Zr1  1  0.69770299  0.49593871  0.70460758  1
  Zr  Zr2  1  0.09659588  0.09897755  0.50161036  1
  Zr  Zr3  1  0.69627362  0.71074751  0.48912554  1
  Zr  Zr4  1  0.29627083  0.70090057  0.88852829  1
  Zr  Zr5  1  0.28806952  0.09581261  0.70448270  1
  Zr  Zr6  1  0.70354853  0.49552806  0.10365121  1
  Zr  Zr7  1  0.30932556  0.10267483  0.89892167  1
  Zr  Zr8  1  0.70498461  0.09061492  0.90754656  1
  Zr  Zr9  1  0.69852323  0.49814925  0.29264038  1
  Zr  Zr10  1  0.70454861  0.89851753  0.89083321  1
  Zr  Zr11  1  0.09579943  0.50112334  0.69554179  1
  Zr  Zr12  1  0.70415800  0.10383925  0.10521567  1
  Zr  Zr13  1  0.70108885  0.90564336  0.10512751  1
  Zr  Zr14  1  0.09685867  0.90368120  0.90412691  1
  Zr  Zr15  1  0.89707125  0.49405152  0.30073966  1
  Zr  Zr16  1  0.70127324  0.49448278  0.90260071  1
  Zr  Zr17  1  0.29714342  0.50178740  0.90082401  1
  Zr  Zr18  1  0.90081175  0.48944361  0.90105650  1
  Zr  Zr19  1  0.89825316  0.29981433  0.70570262  1
  Zr  Zr20  1  0.89987849  0.70588762  0.50619063  1
  Zr  Zr21  1  0.10462133  0.10159659  0.29973900  1
  Zr  Zr22  1  0.50790138  0.10010101  0.30085940  1
  Zr  Zr23  1  0.10192129  0.09757824  0.69631433  1
  Zr  Zr24  1  0.10183922  0.69931742  0.70382886  1
  Zr  Zr25  1  0.69336489  0.29332748  0.49694204  1
  Zr  Zr26  1  0.09104868  0.09900204  0.09926615  1
  Zr  Zr27  1  0.09187887  0.70231872  0.89331610  1
  Zr  Zr28  1  0.50096001  0.50668675  0.30117353  1
  Zr  Zr29  1  0.10258890  0.29802061  0.09622990  1
  Zr  Zr30  1  0.09280291  0.29627695  0.90887099  1
  Zr  Zr31  1  0.49808550  0.71628985  0.69467002  1
  Zr  Zr32  1  0.70129766  0.30472846  0.29795377  1
  Zr  Zr33  1  0.51175541  0.89933983  0.50602100  1
  Zr  Zr34  1  0.09733682  0.29175395  0.30482023  1
  Zr  Zr35  1  0.70082451  0.90681577  0.31055625  1
  Zr  Zr36  1  0.10745540  0.09888376  0.89268041  1
  Zr  Zr37  1  0.10294015  0.90461222  0.10151959  1
  Zr  Zr38  1  0.69609043  0.49631898  0.48799008  1
  Zr  Zr39  1  0.09784757  0.90712446  0.30051635  1
  Zr  Zr40  1  0.70706504  0.70121569  0.90228709  1
  Zr  Zr41  1  0.70609469  0.69510736  0.10364820  1
  Zr  Zr42  1  0.29839217  0.89758437  0.91440126  1
  Zr  Zr43  1  0.50053456  0.11015013  0.50190457  1
  Zr  Zr44  1  0.09802123  0.49451199  0.50108798  1
  Zr  Zr45  1  0.31265398  0.29949360  0.10248106  1
  Zr  Zr46  1  0.90610567  0.50062679  0.69762483  1
  Zr  Zr47  1  0.89608746  0.69519995  0.09094362  1
  Zr  Zr48  1  0.29674491  0.91036266  0.30048779  1
  Zr  Zr49  1  0.30082689  0.49735173  0.09840776  1
  Sc  Sc50  1  0.68999794  0.70508722  0.29426647  1
  Sc  Sc51  1  0.10592619  0.70677559  0.50081469  1
  Sc  Sc52  1  0.30758574  0.50089120  0.49428277  1
  Sc  Sc53  1  0.10050770  0.70492147  0.30271425  1
  Sc  Sc54  1  0.30283402  0.90001422  0.69650210  1
  Sc  Sc55  1  0.29881547  0.49505396  0.70677142  1
  Sc  Sc56  1  0.50604383  0.48927913  0.10724584  1
  Sc  Sc57  1  0.47929043  0.29322998  0.90526865  1
  Sc  Sc58  1  0.90265615  0.09749713  0.90292732  1
  Sc  Sc59  1  0.49313978  0.29456608  0.29885899  1
  Sc  Sc60  1  0.49586018  0.49742615  0.49188540  1
  Sc  Sc61  1  0.29815944  0.70487104  0.08599615  1
  Sc  Sc62  1  0.49610548  0.09713014  0.10439106  1
  Sc  Sc63  1  0.29991998  0.30100753  0.69367185  1
  Sc  Sc64  1  0.10327825  0.29654970  0.69739080  1
  Sc  Sc65  1  0.50815236  0.90283907  0.29601290  1
  Sc  Sc66  1  0.90300463  0.09937075  0.29615827  1
  Sc  Sc67  1  0.68782396  0.70920038  0.71268288  1
  Sc  Sc68  1  0.50106158  0.70803640  0.88885517  1
  Sc  Sc69  1  0.51174856  0.70447273  0.11115599  1
  Sc  Sc70  1  0.90865589  0.89975959  0.10303436  1
  Sc  Sc71  1  0.09812186  0.50414313  0.08915707  1
  Sc  Sc72  1  0.08539200  0.70385513  0.10038049  1
  Sc  Sc73  1  0.89369829  0.90622698  0.29776952  1
  Sc  Sc74  1  0.10231198  0.49855065  0.89702254  1
  Sc  Sc75  1  0.70317189  0.09106180  0.70543463  1
  Sc  Sc76  1  0.90261093  0.09904955  0.69979408  1
  Sc  Sc77  1  0.90295438  0.30202517  0.30497279  1
  Sc  Sc78  1  0.89867350  0.70410863  0.28508398  1
  Sc  Sc79  1  0.09621748  0.29598771  0.50327857  1
  Sc  Sc80  1  0.89472014  0.09545232  0.09726387  1
  Sc  Sc81  1  0.49228651  0.49677288  0.70071373  1
  Sc  Sc82  1  0.30335333  0.09160698  0.10961429  1
  Sc  Sc83  1  0.69408684  0.09461814  0.49227079  1
  Sc  Sc84  1  0.90146311  0.29563085  0.08829949  1
  Sc  Sc85  1  0.89982612  0.89795643  0.90146196  1
  Sc  Sc86  1  0.70281754  0.30511952  0.10099206  1
  Sc  Sc87  1  0.90669783  0.49370773  0.50252344  1
  Sc  Sc88  1  0.49849090  0.49661687  0.89419945  1
  Sc  Sc89  1  0.49585504  0.90730479  0.10208643  1
  Sc  Sc90  1  0.29065302  0.90235131  0.50030770  1
  Sc  Sc91  1  0.30137732  0.71245912  0.49733500  1
  Sc  Sc92  1  0.29484555  0.10446745  0.50671048  1
  Sc  Sc93  1  0.09777337  0.90439760  0.70058361  1
  Sc  Sc94  1  0.90118514  0.09344062  0.50303926  1
  Sc  Sc95  1  0.71465377  0.30082762  0.90438130  1
  Sc  Sc96  1  0.49501759  0.91033844  0.90196304  1
  Sc  Sc97  1  0.91481883  0.70092629  0.69845989  1
  Sc  Sc98  1  0.70661203  0.28691875  0.70206561  1
  Sc  Sc99  1  0.29962511  0.70189836  0.31848984  1
  Nb  Nb100  1  0.50030909  0.69814376  0.49109292  1
  Nb  Nb101  1  0.30005610  0.29565520  0.29848263  1
  Nb  Nb102  1  0.49220367  0.29626928  0.50931675  1
  Nb  Nb103  1  0.50081916  0.29753775  0.10049486  1
  Nb  Nb104  1  0.71355190  0.89802614  0.49833664  1
  Nb  Nb105  1  0.09090558  0.90416026  0.49836898  1
  Nb  Nb106  1  0.90111171  0.29967023  0.90159006  1
  Nb  Nb107  1  0.89024254  0.89562980  0.50104806  1
  Nb  Nb108  1  0.30187355  0.49902346  0.29724557  1
  Nb  Nb109  1  0.10260177  0.49789612  0.30298099  1
  Nb  Nb110  1  0.89662088  0.50306267  0.10536003  1
  Nb  Nb111  1  0.89721420  0.69785673  0.89921222  1
  Nb  Nb112  1  0.89760744  0.29999690  0.49712418  1
  Nb  Nb113  1  0.89312155  0.89957954  0.67760298  1
  Nb  Nb114  1  0.30628521  0.10639162  0.30197874  1
  Nb  Nb115  1  0.69205511  0.89730471  0.69275360  1
  Nb  Nb116  1  0.50148908  0.29486393  0.69147843  1
  Nb  Nb117  1  0.31472532  0.29901660  0.49736128  1
  Nb  Nb118  1  0.49759403  0.10149204  0.90034178  1
  Nb  Nb119  1  0.30128208  0.89875087  0.10506060  1
  Nb  Nb120  1  0.30044917  0.69867083  0.69852377  1
  Nb  Nb121  1  0.49442449  0.09377109  0.70660172  1
  Nb  Nb122  1  0.50059901  0.70250442  0.30527097  1
  Nb  Nb123  1  0.70157237  0.10058002  0.30117256  1
  Nb  Nb124  1  0.51165062  0.90615247  0.69606350  1
  Nb  Nb125  1  0.59533210  0.19884903  -0.00369391  1
  Nb  Nb126  1  0.00539021  0.40344107  0.19848070  1
  Nb  Nb127  1  0.20667377  0.79985093  0.19955821  1
  Nb  Nb128  1  0.40096505  0.60955600  0.59960014  1
  Nb  Nb129  1  0.79557885  0.39878371  0.59765056  1
  Nb  Nb130  1  0.20768322  0.60269461  0.60285231  1
  Nb  Nb131  1  -0.00211188  0.60199466  0.39863846  1
  Nb  Nb132  1  0.20443663  0.60007158  0.20347974  1
  Nb  Nb133  1  0.79030470  0.59846885  0.60037274  1
  Nb  Nb134  1  0.39483753  0.60667642  0.20153389  1
  Nb  Nb135  1  0.20766219  0.39427667  0.39383043  1
  Nb  Nb136  1  -0.00605737  0.80465503  0.40426058  1
  Nb  Nb137  1  0.39401386  0.79749527  0.20354838  1
  Nb  Nb138  1  0.59752902  0.39501491  0.60085975  1
  Nb  Nb139  1  0.59118601  0.19515757  0.80532107  1
  Nb  Nb140  1  0.59644911  0.60174772  0.59545460  1
  Nb  Nb141  1  0.79679328  0.19896233  0.39809442  1
  Nb  Nb142  1  0.40790101  0.60311956  0.00240725  1
  Nb  Nb143  1  0.40219227  0.00662107  0.40128474  1
  Nb  Nb144  1  0.80559737  0.60099831  0.79922296  1
  Nb  Nb145  1  0.19981572  0.40087320  0.20606032  1
  Nb  Nb146  1  0.60624077  0.80065258  -0.00050028  1
  Nb  Nb147  1  0.80394661  0.60186728  0.40092170  1
  Nb  Nb148  1  0.59588804  0.38250360  0.79629285  1
  Nb  Nb149  1  0.60052090  0.60248081  -0.00072096  1
  Pd  Pd150  1  -0.01010462  -0.00128735  0.40012008  1
  Pd  Pd151  1  0.20435108  0.19935018  0.19393418  1
  Pd  Pd152  1  0.19832963  0.60734242  0.00173008  1
  Pd  Pd153  1  0.20132979  0.80979759  0.79677938  1
  Pd  Pd154  1  0.41462872  0.79449844  0.00831917  1
  Pd  Pd155  1  0.39874195  0.00157611  0.59461748  1
  Pd  Pd156  1  0.79311567  0.00734723  0.59785026  1
  Pd  Pd157  1  0.19558998  0.80211560  0.60329501  1
  Pd  Pd158  1  0.00883633  0.39481281  0.79878923  1
  Pd  Pd159  1  0.40408211  0.60274315  0.79767478  1
  Pd  Pd160  1  0.40685058  0.81521677  0.39709098  1
  Pd  Pd161  1  0.18871943  0.79373385  0.00428208  1
  Pd  Pd162  1  -0.00824855  0.81119464  0.79471517  1
  Pd  Pd163  1  0.00147766  0.19779052  0.80140416  1
  Pd  Pd164  1  0.60798925  0.00691189  0.59743813  1
  Pd  Pd165  1  0.80849141  0.20577551  0.20515841  1
  Pd  Pd166  1  0.58499038  0.38955410  0.40012129  1
  Pd  Pd167  1  0.39505564  -0.00836884  0.79936789  1
  Pd  Pd168  1  0.40025334  0.39018785  0.79761630  1
  Pd  Pd169  1  0.21023941  0.40300407  0.58930805  1
  Pd  Pd170  1  0.20494808  0.20464007  0.41015542  1
  Pd  Pd171  1  0.39963734  0.80459848  0.59419819  1
  Pd  Pd172  1  0.19272650  0.39503568  0.80118590  1
  Pd  Pd173  1  0.19843151  0.59588166  0.40516434  1
  Pd  Pd174  1  0.39797299  0.20442327  0.79071708  1
  Pd  Pd175  1  -0.00336428  0.20097137  0.59962226  1
  Pd  Pd176  1  0.20529249  0.00845775  0.00253782  1
  Pd  Pd177  1  -0.00916133  -0.00639972  0.79365880  1
  Pd  Pd178  1  0.80999923  -0.00786795  0.79259580  1
  Pd  Pd179  1  -0.00957050  0.20511066  0.19749457  1
  Pd  Pd180  1  0.40632580  0.40776454  -0.00142140  1
  Pd  Pd181  1  0.59948113  0.20338964  0.19440005  1
  Pd  Pd182  1  0.80081152  0.80945903  0.00470492  1
  Pd  Pd183  1  0.00706157  0.59566015  0.20573798  1
  Pd  Pd184  1  0.60422422  0.19269873  0.61048177  1
  Pd  Pd185  1  0.79903111  0.19270547  0.80856219  1
  Pd  Pd186  1  -0.00308021  0.59609431  -0.00745409  1
  Pd  Pd187  1  0.39190515  0.19045076  0.61029578  1
  Pd  Pd188  1  0.80098470  0.19619988  0.59078804  1
  Pd  Pd189  1  0.40142001  0.39581740  0.39374354  1
  Pd  Pd190  1  0.59247609  0.39200677  -0.01042347  1
  Pd  Pd191  1  0.59921007  0.00132312  0.80148422  1
  Pd  Pd192  1  0.20438188  0.00672729  0.40579177  1
  Pd  Pd193  1  0.79905861  0.80552842  0.20181066  1
  Pd  Pd194  1  0.79015422  0.78775013  0.61160217  1
  Pd  Pd195  1  0.20837694  0.18944496  0.00932601  1
  Pd  Pd196  1  0.59848464  0.59481171  0.80059143  1
  Pd  Pd197  1  0.81098169  0.79712078  0.78785991  1
  Pd  Pd198  1  0.59652998  0.00045466  0.00515093  1
  Pd  Pd199  1  0.40053318  0.81305036  0.79755941  1
  Rh  Rh200  1  0.79626788  0.19815959  -0.00262393  1
  Rh  Rh201  1  0.60128153  0.20482589  0.39417365  1
  Rh  Rh202  1  0.01177088  0.60652399  0.58927269  1
  Rh  Rh203  1  0.40414881  0.40674214  0.59899157  1
  Rh  Rh204  1  -0.00832129  0.38635362  0.60180445  1
  Rh  Rh205  1  0.60449808  0.00260745  0.19963247  1
  Rh  Rh206  1  -0.00227994  0.79952621  -0.00290472  1
  Rh  Rh207  1  0.59150301  0.81689224  0.80740996  1
  Rh  Rh208  1  0.19898363  0.59618606  0.79358852  1
  Rh  Rh209  1  -0.00075600  -0.00414506  0.60101534  1
  Rh  Rh210  1  0.59747676  0.80832546  0.19776620  1
  Rh  Rh211  1  0.79952951  0.00110177  0.20178663  1
  Rh  Rh212  1  0.39928388  0.60308059  0.40104471  1
  Rh  Rh213  1  0.79989198  0.58935781  -0.00609139  1
  Rh  Rh214  1  0.19938010  0.20530670  0.79850612  1
  Rh  Rh215  1  0.39601444  0.00332287  0.00239132  1
  Rh  Rh216  1  -0.01074710  0.19484528  0.40522353  1
  Rh  Rh217  1  0.18769912  0.80866028  0.39598951  1
  Rh  Rh218  1  0.60575745  0.79693169  0.59470205  1
  Rh  Rh219  1  0.81347157  0.39240496  0.19156627  1
  Rh  Rh220  1  0.40161484  -0.00331908  0.21004357  1
  Rh  Rh221  1  0.00715018  0.80645514  0.20767459  1
  Rh  Rh222  1  0.20643641  -0.00863347  0.80575213  1
  Rh  Rh223  1  0.80781956  0.40151039  0.00737503  1
  Rh  Rh224  1  -0.00095993  0.00074187  -0.00134493  1
  Rh  Rh225  1  0.80222780  0.39657400  0.40647436  1
  Rh  Rh226  1  0.60543000  0.60330989  0.39801231  1
  Rh  Rh227  1  0.59773453  -0.00250768  0.40509436  1
  Rh  Rh228  1  0.40246395  0.19585789  0.20005623  1
  Rh  Rh229  1  0.39977185  0.19629295  0.40005672  1
  Rh  Rh230  1  0.80263847  0.00894768  0.40045122  1
  Rh  Rh231  1  0.19356592  -0.00387544  0.59808549  1
  Rh  Rh232  1  0.00666966  0.80765160  0.59627831  1
  Rh  Rh233  1  0.40159918  0.40123109  0.20385289  1
  Rh  Rh234  1  -0.00288187  0.40340507  0.00644983  1
  Rh  Rh235  1  -0.00527011  0.59718097  0.80776291  1
  Rh  Rh236  1  0.79767053  0.59969898  0.20777773  1
  Rh  Rh237  1  0.19919935  0.00349291  0.20058020  1
  Rh  Rh238  1  0.19770917  0.39962783  0.00327900  1
  Rh  Rh239  1  0.59703557  0.80841076  0.39886888  1
  Rh  Rh240  1  0.80726479  0.79434747  0.38999384  1
  Rh  Rh241  1  0.00697984  0.39994840  0.39682170  1
  Rh  Rh242  1  -0.00397337  0.19215461  -0.00463587  1
  Rh  Rh243  1  0.20295963  0.20520528  0.59616029  1
  Rh  Rh244  1  0.59337193  0.39194363  0.20535947  1
  Rh  Rh245  1  0.59527056  0.59752027  0.19741402  1
  Rh  Rh246  1  0.40248386  0.19240106  0.01078957  1
  Rh  Rh247  1  -0.00145121  0.00315166  0.19942953  1
  Rh  Rh248  1  0.79833081  0.39958598  0.79498507  1
  Rh  Rh249  1  0.80497963  -0.00526273  0.00326720  1
