# generated using pymatgen
data_ZrScNbPdRh
_symmetry_space_group_name_H-M   'P 1'
_cell_length_a   16.55796423
_cell_length_b   16.55875489
_cell_length_c   16.56239748
_cell_angle_alpha   90.02655267
_cell_angle_beta   90.01439906
_cell_angle_gamma   89.99207799
_symmetry_Int_Tables_number   1
_chemical_formula_structural   ZrScNbPdRh
_chemical_formula_sum   'Zr50 Sc50 Nb50 Pd50 Rh50'
_cell_volume   4541.06539634
_cell_formula_units_Z   50
loop_
 _symmetry_equiv_pos_site_id
 _symmetry_equiv_pos_as_xyz
  1  'x, y, z'
loop_
 _atom_site_type_symbol
 _atom_site_label
 _atom_site_symmetry_multiplicity
 _atom_site_fract_x
 _atom_site_fract_y
 _atom_site_fract_z
 _atom_site_occupancy
  Zr  Zr0  1  0.08939588  0.30636698  0.09711861  1
  Zr  Zr1  1  0.49789470  0.10306368  0.89958507  1
  Zr  Zr2  1  0.30558344  0.10630892  0.30673465  1
  Zr  Zr3  1  0.51520361  0.10439154  0.10511901  1
  Zr  Zr4  1  0.69848606  0.70276814  0.89194132  1
  Zr  Zr5  1  0.70079604  0.90838422  0.30153580  1
  Zr  Zr6  1  0.90199532  0.69779506  0.90023586  1
  Zr  Zr7  1  0.49328052  0.49650220  0.68777883  1
  Zr  Zr8  1  0.50197744  0.30167910  0.10049232  1
  Zr  Zr9  1  0.50231480  0.29779928  0.91113027  1
  Zr  Zr10  1  0.50017859  0.90048669  0.49008805  1
  Zr  Zr11  1  0.30615544  0.09351692  0.70967835  1
  Zr  Zr12  1  0.89710921  0.08354160  0.90729040  1
  Zr  Zr13  1  0.09781358  0.48882230  0.50115457  1
  Zr  Zr14  1  0.70550050  0.49925564  0.70012445  1
  Zr  Zr15  1  0.29996029  0.10050943  0.90010244  1
  Zr  Zr16  1  0.30748796  0.30329868  0.10107711  1
  Zr  Zr17  1  0.48562877  0.90273184  0.69632215  1
  Zr  Zr18  1  0.90144171  0.30176987  0.50355998  1
  Zr  Zr19  1  0.10062898  0.09374217  0.49590857  1
  Zr  Zr20  1  0.09687056  0.09925612  0.70165773  1
  Zr  Zr21  1  0.09760108  0.90482672  0.31012353  1
  Zr  Zr22  1  0.31237015  0.90234587  0.51036888  1
  Zr  Zr23  1  0.29657237  0.09813318  0.09587864  1
  Zr  Zr24  1  0.89618728  0.10256825  0.29439439  1
  Zr  Zr25  1  0.90045789  0.11136639  0.10250438  1
  Zr  Zr26  1  0.49998716  0.70275401  0.49906541  1
  Zr  Zr27  1  0.29499900  0.89581668  0.89154783  1
  Zr  Zr28  1  0.10190911  0.29962320  0.90091245  1
  Zr  Zr29  1  0.30067218  0.70209683  0.49343501  1
  Zr  Zr30  1  0.10550934  0.89752395  0.09928835  1
  Zr  Zr31  1  0.11024829  0.50502101  0.29662157  1
  Zr  Zr32  1  0.08829336  0.89501079  0.90511069  1
  Zr  Zr33  1  0.69505333  0.29940847  0.49906039  1
  Zr  Zr34  1  0.09276915  0.30269491  0.69702735  1
  Zr  Zr35  1  0.30449435  0.28935094  0.90424976  1
  Zr  Zr36  1  0.10658371  0.10232100  0.30620728  1
  Zr  Zr37  1  0.09899192  0.10425767  0.09720161  1
  Zr  Zr38  1  0.69575049  0.69292056  0.50402042  1
  Zr  Zr39  1  0.70990791  0.09692609  0.10384432  1
  Zr  Zr40  1  0.30100931  0.68786306  0.29981527  1
  Zr  Zr41  1  0.89737747  0.89598414  0.70140180  1
  Zr  Zr42  1  0.30985663  0.69950440  0.09680394  1
  Zr  Zr43  1  0.30340007  0.89013380  0.10033278  1
  Zr  Zr44  1  0.69417677  0.49522465  0.10237185  1
  Zr  Zr45  1  0.89890907  0.50159947  0.50116414  1
  Zr  Zr46  1  0.48793327  0.70087308  0.30149054  1
  Zr  Zr47  1  0.10771936  0.09908836  0.89845007  1
  Zr  Zr48  1  0.90468247  0.70218576  0.29831249  1
  Zr  Zr49  1  0.69838492  0.89367248  0.50049753  1
  Sc  Sc50  1  0.09888965  0.89481742  0.70474087  1
  Sc  Sc51  1  0.89232904  0.09707005  0.69979055  1
  Sc  Sc52  1  0.90797785  0.50537153  0.10137458  1
  Sc  Sc53  1  0.29669113  0.89336382  0.30248972  1
  Sc  Sc54  1  0.10320217  0.30846137  0.30200288  1
  Sc  Sc55  1  0.29699126  0.50534295  0.10609386  1
  Sc  Sc56  1  0.09696890  0.50116081  0.90851450  1
  Sc  Sc57  1  0.70905216  0.70336908  0.10605307  1
  Sc  Sc58  1  0.90278843  0.90928330  0.09057732  1
  Sc  Sc59  1  0.09867782  0.69807481  0.69757926  1
  Sc  Sc60  1  0.29824985  0.50603246  0.69331175  1
  Sc  Sc61  1  0.29619828  0.70119494  0.90042240  1
  Sc  Sc62  1  0.10231030  0.70187910  0.90302353  1
  Sc  Sc63  1  0.90076125  0.69622382  0.69436006  1
  Sc  Sc64  1  0.70308159  0.30068710  0.89708241  1
  Sc  Sc65  1  0.69719625  0.89400403  0.71230570  1
  Sc  Sc66  1  0.09130567  0.90056237  0.50144754  1
  Sc  Sc67  1  0.50353734  0.10133561  0.71011566  1
  Sc  Sc68  1  0.69170680  0.29684456  0.09369977  1
  Sc  Sc69  1  0.71085725  0.70491250  0.30064302  1
  Sc  Sc70  1  0.89962059  0.09194020  0.50931297  1
  Sc  Sc71  1  0.30701857  0.49454007  0.49884769  1
  Sc  Sc72  1  0.09866478  0.50328556  0.69253785  1
  Sc  Sc73  1  0.70902337  0.90284691  0.11036233  1
  Sc  Sc74  1  0.49061090  0.49666768  0.09589765  1
  Sc  Sc75  1  0.89585219  0.89979886  0.30925454  1
  Sc  Sc76  1  0.90384645  0.89882091  0.50460496  1
  Sc  Sc77  1  0.50113033  0.31249688  0.50303292  1
  Sc  Sc78  1  0.48611061  0.69967877  0.89907246  1
  Sc  Sc79  1  0.90096505  0.70634373  0.50624666  1
  Sc  Sc80  1  0.10954159  0.70304773  0.31057792  1
  Sc  Sc81  1  0.49543953  0.70252385  0.69889144  1
  Sc  Sc82  1  0.70194236  0.09554894  0.89221394  1
  Sc  Sc83  1  0.90404431  0.50130771  0.70375596  1
  Sc  Sc84  1  0.90397373  0.30153260  0.28424909  1
  Sc  Sc85  1  0.30574994  0.30365944  0.69475479  1
  Sc  Sc86  1  0.69599564  0.31830247  0.29689714  1
  Sc  Sc87  1  0.29868706  0.51276213  0.90782430  1
  Sc  Sc88  1  0.30213127  0.09827837  0.48976132  1
  Sc  Sc89  1  0.70321639  0.10427431  0.50902863  1
  Sc  Sc90  1  0.49552232  0.49836876  0.30560722  1
  Sc  Sc91  1  0.90621549  0.30383493  0.89508313  1
  Sc  Sc92  1  0.89700485  0.30115114  0.70432846  1
  Sc  Sc93  1  0.90133794  0.69920069  0.10230432  1
  Sc  Sc94  1  0.50149831  0.89311007  0.88574739  1
  Sc  Sc95  1  0.09808753  0.70066654  0.50379821  1
  Sc  Sc96  1  0.89079412  0.50008703  0.29678620  1
  Sc  Sc97  1  0.29392369  0.70375961  0.70093431  1
  Sc  Sc98  1  0.30087812  0.30150748  0.48916678  1
  Sc  Sc99  1  0.69989857  0.28577825  0.69653918  1
  Nb  Nb100  1  0.69072150  0.49627998  0.48691481  1
  Nb  Nb101  1  0.10215797  0.50473606  0.09576610  1
  Nb  Nb102  1  0.69722867  0.09561297  0.29744090  1
  Nb  Nb103  1  0.09725680  0.70205421  0.09299983  1
  Nb  Nb104  1  0.49581702  0.70321687  0.10166626  1
  Nb  Nb105  1  0.09712097  0.29710074  0.50170515  1
  Nb  Nb106  1  0.50597863  0.90743294  0.29997937  1
  Nb  Nb107  1  0.69138265  0.50691781  0.31054001  1
  Nb  Nb108  1  0.90066385  0.30212157  0.09321877  1
  Nb  Nb109  1  0.29852062  0.90123993  0.70195106  1
  Nb  Nb110  1  0.88723598  0.49826341  0.89690617  1
  Nb  Nb111  1  0.50516970  0.49973334  0.89894711  1
  Nb  Nb112  1  0.69465292  0.09834546  0.69601741  1
  Nb  Nb113  1  0.70081026  0.89764070  0.89620338  1
  Nb  Nb114  1  0.89208209  0.89781479  0.89667342  1
  Nb  Nb115  1  0.69962469  0.70366116  0.69851550  1
  Nb  Nb116  1  0.70133966  0.50101856  0.89852076  1
  Nb  Nb117  1  0.51701785  0.50136010  0.49572920  1
  Nb  Nb118  1  0.30080267  0.49453300  0.29967148  1
  Nb  Nb119  1  0.49878535  0.09196154  0.49681077  1
  Nb  Nb120  1  0.49796071  0.89532728  0.10013336  1
  Nb  Nb121  1  0.30877081  0.30390192  0.29815719  1
  Nb  Nb122  1  0.48904392  0.29558035  0.29622937  1
  Nb  Nb123  1  0.49895399  0.29850533  0.70106787  1
  Nb  Nb124  1  0.50719986  0.09346778  0.30466269  1
  Nb  Nb125  1  0.00430143  0.00066204  0.20164436  1
  Nb  Nb126  1  0.59719218  0.00163085  0.60227659  1
  Nb  Nb127  1  0.80422739  0.40465415  -0.00243120  1
  Nb  Nb128  1  0.40376912  0.19656817  0.59859652  1
  Nb  Nb129  1  0.20468769  0.40047613  0.80247085  1
  Nb  Nb130  1  0.40728870  -0.00559246  0.00366683  1
  Nb  Nb131  1  0.59195560  0.80071998  0.19837116  1
  Nb  Nb132  1  -0.00260830  0.20273006  0.40207692  1
  Nb  Nb133  1  0.20512314  0.20750529  0.20292982  1
  Nb  Nb134  1  0.00631281  0.80482288  0.19956672  1
  Nb  Nb135  1  0.60077934  -0.01039710  -0.00048166  1
  Nb  Nb136  1  0.40331123  0.40155283  0.80332831  1
  Nb  Nb137  1  0.20102713  0.19720031  0.59608010  1
  Nb  Nb138  1  0.59804991  0.19527753  0.39376133  1
  Nb  Nb139  1  0.59586526  0.60554190  0.19885093  1
  Nb  Nb140  1  0.59894395  0.60394355  -0.00033666  1
  Nb  Nb141  1  0.40837293  -0.00132640  0.20097891  1
  Nb  Nb142  1  0.79472079  0.40318616  0.59368871  1
  Nb  Nb143  1  0.59535373  0.40257909  0.79932389  1
  Nb  Nb144  1  0.20445716  0.00197295  0.60480552  1
  Nb  Nb145  1  0.00105885  0.59578206  0.39976439  1
  Nb  Nb146  1  0.79761603  0.20133915  0.39561935  1
  Nb  Nb147  1  0.79744597  0.80404542  -0.00805970  1
  Nb  Nb148  1  0.59953349  0.59557497  0.80001533  1
  Nb  Nb149  1  0.60072870  0.79980656  0.00351667  1
  Pd  Pd150  1  0.01081203  0.60802702  0.20625432  1
  Pd  Pd151  1  0.20547394  0.40193197  -0.00289994  1
  Pd  Pd152  1  0.58884594  0.40862714  0.20530719  1
  Pd  Pd153  1  0.20106346  0.80658685  0.41064985  1
  Pd  Pd154  1  0.60302869  0.79240154  0.38890969  1
  Pd  Pd155  1  -0.00896337  0.19220134  0.80592670  1
  Pd  Pd156  1  0.39178295  0.40813009  -0.00528032  1
  Pd  Pd157  1  0.40061555  0.59597299  0.79811568  1
  Pd  Pd158  1  0.19596508  0.78962475  0.19946727  1
  Pd  Pd159  1  0.78956101  -0.01023979  0.60697291  1
  Pd  Pd160  1  0.19702233  0.60865917  0.19244250  1
  Pd  Pd161  1  0.60831220  0.20714935  0.21037378  1
  Pd  Pd162  1  0.79980820  0.20789355  -0.00735130  1
  Pd  Pd163  1  0.60155692  0.20512876  0.80549213  1
  Pd  Pd164  1  0.79820047  0.00766024  0.40766296  1
  Pd  Pd165  1  -0.00375333  0.19821085  -0.01127543  1
  Pd  Pd166  1  0.20348244  -0.00777814  -0.00477301  1
  Pd  Pd167  1  0.80024223  0.39984920  0.18930460  1
  Pd  Pd168  1  0.20372536  0.00563370  0.20611774  1
  Pd  Pd169  1  0.60004717  0.60040964  0.60642098  1
  Pd  Pd170  1  0.80335008  0.39457232  0.39951101  1
  Pd  Pd171  1  0.80544736  0.60543162  0.40247692  1
  Pd  Pd172  1  0.00733742  0.41075235  0.80095846  1
  Pd  Pd173  1  0.41197702  0.20549876  0.40957173  1
  Pd  Pd174  1  0.80415339  0.19425401  0.80250138  1
  Pd  Pd175  1  0.78831395  0.21461104  0.20453356  1
  Pd  Pd176  1  0.00516853  0.59690055  0.80423958  1
  Pd  Pd177  1  0.39916955  0.19088845  0.19509727  1
  Pd  Pd178  1  0.59718181  0.80826480  0.60750072  1
  Pd  Pd179  1  0.80219680  0.79676935  0.40732018  1
  Pd  Pd180  1  0.19375691  0.59373075  0.80082034  1
  Pd  Pd181  1  0.79912285  0.60617452  0.79311656  1
  Pd  Pd182  1  -0.00509100  0.40129715  0.39006912  1
  Pd  Pd183  1  0.40233080  0.58967304  0.40766909  1
  Pd  Pd184  1  0.39808359  0.60373032  0.59198048  1
  Pd  Pd185  1  0.20407182  0.39953813  0.40004311  1
  Pd  Pd186  1  -0.00158678  0.79200943  0.79659260  1
  Pd  Pd187  1  0.79744709  0.59536916  0.59659954  1
  Pd  Pd188  1  -0.00129433  -0.00076208  0.79830529  1
  Pd  Pd189  1  0.20099285  0.39627194  0.19515164  1
  Pd  Pd190  1  0.60742422  0.39735976  0.60765702  1
  Pd  Pd191  1  0.00098264  0.40912410  0.19946895  1
  Pd  Pd192  1  0.19702935  0.80770224  0.59869232  1
  Pd  Pd193  1  -0.00185955  0.59733111  -0.00372005  1
  Pd  Pd194  1  0.79253418  0.59516339  0.20092329  1
  Pd  Pd195  1  0.79476818  0.60067815  0.00559781  1
  Pd  Pd196  1  0.20397822  0.21023406  0.78803680  1
  Pd  Pd197  1  0.20063002  0.60081625  0.59255165  1
  Pd  Pd198  1  -0.00147505  0.19563451  0.59744797  1
  Pd  Pd199  1  0.20517471  0.39280630  0.60322140  1
  Rh  Rh200  1  0.19669946  0.20987532  0.01072213  1
  Rh  Rh201  1  0.40260753  0.80773474  0.21147390  1
  Rh  Rh202  1  0.60071227  -0.00122888  0.79697468  1
  Rh  Rh203  1  0.58856592  0.39098108  0.39080975  1
  Rh  Rh204  1  0.79375761  0.39535737  0.79773183  1
  Rh  Rh205  1  0.79555763  0.79935278  0.60395198  1
  Rh  Rh206  1  0.40099664  0.01093137  0.60275722  1
  Rh  Rh207  1  0.40196086  -0.00360127  0.81084756  1
  Rh  Rh208  1  0.40333202  0.59941984  0.00077684  1
  Rh  Rh209  1  0.00019329  0.79081326  0.39763671  1
  Rh  Rh210  1  0.40205079  0.80481205  -0.01083323  1
  Rh  Rh211  1  -0.01152435  0.00947215  0.39455932  1
  Rh  Rh212  1  0.40195919  0.40598966  0.20424480  1
  Rh  Rh213  1  0.79523970  0.00157893  0.79411184  1
  Rh  Rh214  1  0.39706421  0.79068449  0.60298348  1
  Rh  Rh215  1  0.00659778  -0.00501028  0.60878698  1
  Rh  Rh216  1  0.60878014  0.40533359  -0.00654791  1
  Rh  Rh217  1  0.20976905  -0.01147007  0.41102547  1
  Rh  Rh218  1  0.40344630  0.59079048  0.19919981  1
  Rh  Rh219  1  0.40662603  0.18994330  0.01133451  1
  Rh  Rh220  1  -0.00900137  0.39946789  0.60661765  1
  Rh  Rh221  1  0.61100488  0.18795736  -0.00581549  1
  Rh  Rh222  1  0.19262170  -0.00724310  0.79823140  1
  Rh  Rh223  1  0.59899432  -0.00755920  0.19293658  1
  Rh  Rh224  1  0.39901184  0.20875857  0.79261102  1
  Rh  Rh225  1  0.39584404  -0.00671158  0.38879218  1
  Rh  Rh226  1  0.59797845  0.60985078  0.39258870  1
  Rh  Rh227  1  0.40577960  0.40260790  0.40045951  1
  Rh  Rh228  1  0.80669647  0.79361101  0.79991354  1
  Rh  Rh229  1  0.01266962  0.19748562  0.20778544  1
  Rh  Rh230  1  0.19805499  0.60593412  0.00638243  1
  Rh  Rh231  1  -0.00869959  0.40742860  -0.00021283  1
  Rh  Rh232  1  -0.00033855  0.80139680  0.60483384  1
  Rh  Rh233  1  0.19402849  0.21367192  0.39843899  1
  Rh  Rh234  1  0.78873748  -0.00669193  -0.00189950  1
  Rh  Rh235  1  0.80348005  0.20567741  0.59815341  1
  Rh  Rh236  1  0.81269343  -0.00500101  0.20159946  1
  Rh  Rh237  1  0.19750099  0.58954223  0.40820213  1
  Rh  Rh238  1  0.59348217  0.79041220  0.79812497  1
  Rh  Rh239  1  -0.01072669  0.79841135  0.00578146  1
  Rh  Rh240  1  0.00439949  0.00229355  0.00385109  1
  Rh  Rh241  1  0.39837364  0.39508560  0.59910811  1
  Rh  Rh242  1  0.58660333  0.18920502  0.59275248  1
  Rh  Rh243  1  0.00173676  0.59867045  0.59154777  1
  Rh  Rh244  1  0.39320013  0.79603504  0.79588245  1
  Rh  Rh245  1  0.39737291  0.80567866  0.39523554  1
  Rh  Rh246  1  0.20223131  0.79500022  -0.00128796  1
  Rh  Rh247  1  0.19578557  0.79784519  0.79975043  1
  Rh  Rh248  1  0.61260526  0.00751980  0.41186617  1
  Rh  Rh249  1  0.81451852  0.80771060  0.19380890  1
