# generated using pymatgen
data_ZrScNbPdRh
_symmetry_space_group_name_H-M   'P 1'
_cell_length_a   16.55340031
_cell_length_b   16.55916357
_cell_length_c   16.55718569
_cell_angle_alpha   90.00010643
_cell_angle_beta   89.99817378
_cell_angle_gamma   89.99280375
_symmetry_Int_Tables_number   1
_chemical_formula_structural   ZrScNbPdRh
_chemical_formula_sum   'Zr50 Sc50 Nb50 Pd50 Rh50'
_cell_volume   4538.49780309
_cell_formula_units_Z   50
loop_
 _symmetry_equiv_pos_site_id
 _symmetry_equiv_pos_as_xyz
  1  'x, y, z'
loop_
 _atom_site_type_symbol
 _atom_site_label
 _atom_site_symmetry_multiplicity
 _atom_site_fract_x
 _atom_site_fract_y
 _atom_site_fract_z
 _atom_site_occupancy
  Zr  Zr0  1  0.30858488  0.89805545  0.10043195  1
  Zr  Zr1  1  0.30395722  0.69734832  0.50028472  1
  Zr  Zr2  1  0.29450076  0.50049987  0.29882196  1
  Zr  Zr3  1  0.10326335  0.11135081  0.51286363  1
  Zr  Zr4  1  0.10178731  0.09677642  0.70952992  1
  Zr  Zr5  1  0.70131265  0.30336213  0.10664767  1
  Zr  Zr6  1  0.30457350  0.69958306  0.08876376  1
  Zr  Zr7  1  0.50246066  0.10167462  0.30102811  1
  Zr  Zr8  1  0.29111354  0.50355596  0.10266773  1
  Zr  Zr9  1  0.70352502  0.50156431  0.49020547  1
  Zr  Zr10  1  0.50481670  0.69050277  0.90488113  1
  Zr  Zr11  1  0.49956138  0.69968325  0.49697255  1
  Zr  Zr12  1  0.70553191  0.89853968  0.30417846  1
  Zr  Zr13  1  0.89632561  0.30061871  0.30105719  1
  Zr  Zr14  1  0.10471815  0.91079995  0.09749438  1
  Zr  Zr15  1  0.10235124  0.50301960  0.29454756  1
  Zr  Zr16  1  0.29024249  0.10494171  0.09815441  1
  Zr  Zr17  1  0.30289541  0.89741922  0.30208042  1
  Zr  Zr18  1  0.69779827  0.30683418  0.30361178  1
  Zr  Zr19  1  0.90622245  0.10456237  0.69471615  1
  Zr  Zr20  1  0.49945393  0.29785809  0.29601433  1
  Zr  Zr21  1  0.49720664  0.69511474  0.69366173  1
  Zr  Zr22  1  0.30808855  0.90173219  0.50078787  1
  Zr  Zr23  1  0.49302360  0.30217152  0.70990005  1
  Zr  Zr24  1  0.70445666  0.50102515  0.10008435  1
  Zr  Zr25  1  0.50452532  0.69837486  0.30228355  1
  Zr  Zr26  1  0.50225958  0.09192192  0.10218155  1
  Zr  Zr27  1  0.91058748  0.10054876  0.90079446  1
  Zr  Zr28  1  0.69851464  0.30402824  0.90144848  1
  Zr  Zr29  1  0.90372120  0.70468696  0.29724580  1
  Zr  Zr30  1  0.09383375  0.89174111  0.70735531  1
  Zr  Zr31  1  0.50113034  0.49178119  0.89551733  1
  Zr  Zr32  1  0.29004492  0.90273740  0.70528887  1
  Zr  Zr33  1  0.50438607  0.71131130  0.10128582  1
  Zr  Zr34  1  0.49402728  0.30186632  0.09500129  1
  Zr  Zr35  1  0.09873709  0.50044583  0.49695298  1
  Zr  Zr36  1  0.49656416  0.29135722  0.50083451  1
  Zr  Zr37  1  0.90062566  0.10377984  0.50296904  1
  Zr  Zr38  1  0.69579398  0.09481032  0.10163602  1
  Zr  Zr39  1  0.10546866  0.69495866  0.30559773  1
  Zr  Zr40  1  0.70765074  0.89744294  0.90022418  1
  Zr  Zr41  1  0.49591641  0.49462095  0.69998473  1
  Zr  Zr42  1  0.30135645  0.50930229  0.89571228  1
  Zr  Zr43  1  0.50415825  0.89342065  0.49549558  1
  Zr  Zr44  1  0.29846611  0.49592103  0.70682612  1
  Zr  Zr45  1  0.70683903  0.09813416  0.49450426  1
  Zr  Zr46  1  0.89481687  0.10034122  0.30121186  1
  Zr  Zr47  1  0.50614373  0.50405019  0.30055070  1
  Zr  Zr48  1  0.11071982  0.30383789  0.30563660  1
  Zr  Zr49  1  0.30034851  0.10315823  0.50038557  1
  Sc  Sc50  1  0.69662504  0.50876091  0.89719874  1
  Sc  Sc51  1  0.49819662  0.89448382  0.29071042  1
  Sc  Sc52  1  0.69934335  0.10915923  0.29999220  1
  Sc  Sc53  1  0.10653092  0.30469516  0.70826447  1
  Sc  Sc54  1  0.51048738  0.89069763  0.91834640  1
  Sc  Sc55  1  0.10304012  0.29048731  0.10642513  1
  Sc  Sc56  1  0.49551020  0.10587324  0.69599708  1
  Sc  Sc57  1  0.90090226  0.89345362  0.29736797  1
  Sc  Sc58  1  0.68851910  0.29818213  0.69269836  1
  Sc  Sc59  1  0.29676872  0.10219764  0.70082023  1
  Sc  Sc60  1  0.30213528  0.11081504  0.29888480  1
  Sc  Sc61  1  0.30121551  0.29772440  0.10698345  1
  Sc  Sc62  1  0.90335486  0.50118307  0.29996084  1
  Sc  Sc63  1  0.30827066  0.29248200  0.90601998  1
  Sc  Sc64  1  0.10521793  0.71233885  0.89450078  1
  Sc  Sc65  1  0.70212532  0.69942804  0.10085323  1
  Sc  Sc66  1  0.89864425  0.69614406  0.50046500  1
  Sc  Sc67  1  0.89996547  0.50612226  0.49216361  1
  Sc  Sc68  1  0.89691817  0.29191723  0.50290683  1
  Sc  Sc69  1  0.30038999  0.50009810  0.50611312  1
  Sc  Sc70  1  0.70047099  0.70621269  0.49800693  1
  Sc  Sc71  1  0.28590577  0.29210937  0.50108349  1
  Sc  Sc72  1  0.09786125  0.90562108  0.89950080  1
  Sc  Sc73  1  0.49288831  0.50438538  0.49835310  1
  Sc  Sc74  1  0.88655420  0.49789286  0.89289121  1
  Sc  Sc75  1  0.50478064  0.50351898  0.09991368  1
  Sc  Sc76  1  0.89270860  0.89658751  0.49208708  1
  Sc  Sc77  1  0.89170781  0.50890211  0.70282359  1
  Sc  Sc78  1  0.69679756  0.09498853  0.89731015  1
  Sc  Sc79  1  0.30456675  0.69496080  0.30425501  1
  Sc  Sc80  1  0.90833287  0.89287609  0.09706457  1
  Sc  Sc81  1  0.29004559  0.89353070  0.90293143  1
  Sc  Sc82  1  0.09540194  0.69895716  0.50085411  1
  Sc  Sc83  1  0.71107789  0.69844436  0.69372902  1
  Sc  Sc84  1  0.49330500  0.09367368  0.50496817  1
  Sc  Sc85  1  0.68828182  0.89456997  0.09733616  1
  Sc  Sc86  1  0.89680983  0.30216912  0.10945877  1
  Sc  Sc87  1  0.70014633  0.29532206  0.49426536  1
  Sc  Sc88  1  0.10388673  0.69293412  0.09996551  1
  Sc  Sc89  1  0.29544845  0.10469688  0.89721566  1
  Sc  Sc90  1  0.90452444  0.89088221  0.89710372  1
  Sc  Sc91  1  0.10584732  0.89436203  0.50950812  1
  Sc  Sc92  1  0.89901433  0.70593559  0.69342948  1
  Sc  Sc93  1  0.10730879  0.49610687  0.88505423  1
  Sc  Sc94  1  0.09642155  0.89578640  0.29534447  1
  Sc  Sc95  1  0.89146652  0.70152373  0.09974305  1
  Sc  Sc96  1  0.50323735  0.90206816  0.67818503  1
  Sc  Sc97  1  0.69692386  0.09848800  0.69616522  1
  Sc  Sc98  1  0.90483360  0.30567960  0.89352251  1
  Sc  Sc99  1  0.69829840  0.69837613  0.29338514  1
  Nb  Nb100  1  0.09906856  0.10979463  0.91262894  1
  Nb  Nb101  1  0.10128071  0.29981140  0.90509303  1
  Nb  Nb102  1  0.69358515  0.89966273  0.50740103  1
  Nb  Nb103  1  0.29944788  0.69460452  0.71094626  1
  Nb  Nb104  1  0.70624527  0.70268580  0.90201357  1
  Nb  Nb105  1  0.49828571  0.29091865  0.90015146  1
  Nb  Nb106  1  0.49455109  0.10351704  0.89828966  1
  Nb  Nb107  1  0.50108781  0.90015341  0.10138425  1
  Nb  Nb108  1  0.09837342  0.70047744  0.69915942  1
  Nb  Nb109  1  0.90850738  0.50155966  0.09721822  1
  Nb  Nb110  1  0.09946427  0.30254805  0.50547460  1
  Nb  Nb111  1  0.89728889  0.69750724  0.89859038  1
  Nb  Nb112  1  0.29857781  0.30796100  0.70324662  1
  Nb  Nb113  1  0.10013005  0.09969950  0.29469259  1
  Nb  Nb114  1  0.89549723  0.30133621  0.69568187  1
  Nb  Nb115  1  0.10493359  0.50031524  0.70042520  1
  Nb  Nb116  1  0.30099376  0.29928136  0.29864354  1
  Nb  Nb117  1  0.30632371  0.70053894  0.89449740  1
  Nb  Nb118  1  0.90249893  0.10047151  0.10113341  1
  Nb  Nb119  1  0.09188117  0.09829984  0.09542957  1
  Nb  Nb120  1  0.69905844  0.89781850  0.69544170  1
  Nb  Nb121  1  0.10099794  0.49987164  0.10029115  1
  Nb  Nb122  1  0.69929230  0.50332739  0.69403215  1
  Nb  Nb123  1  0.89343992  0.90324533  0.70169423  1
  Nb  Nb124  1  0.69327970  0.49803387  0.30091871  1
  Nb  Nb125  1  -0.00295048  0.39993232  0.60537014  1
  Nb  Nb126  1  0.39508678  0.39330450  0.39433974  1
  Nb  Nb127  1  0.00602669  0.40686194  0.00171766  1
  Nb  Nb128  1  0.00123924  0.60628049  0.79989825  1
  Nb  Nb129  1  0.79951396  0.19615747  -0.00138945  1
  Nb  Nb130  1  0.40312005  -0.00047155  -0.00208287  1
  Nb  Nb131  1  0.80653795  0.00334782  0.00361550  1
  Nb  Nb132  1  0.59355494  -0.00816083  0.79857825  1
  Nb  Nb133  1  0.80135376  0.00072123  0.19291446  1
  Nb  Nb134  1  0.00861303  0.19837258  0.39963085  1
  Nb  Nb135  1  -0.00161823  0.59426085  -0.00732205  1
  Nb  Nb136  1  0.60270358  -0.00469654  0.40312319  1
  Nb  Nb137  1  0.60158814  0.80084950  0.79577088  1
  Nb  Nb138  1  0.19752534  0.60143149  0.61099495  1
  Nb  Nb139  1  0.80021405  0.40210474  0.60011079  1
  Nb  Nb140  1  0.40538316  0.80160025  0.80190404  1
  Nb  Nb141  1  0.59727744  0.20081936  -0.00425232  1
  Nb  Nb142  1  0.80184239  0.20119669  0.79945620  1
  Nb  Nb143  1  0.19379437  0.00604890  0.39923711  1
  Nb  Nb144  1  0.19470800  0.39959318  -0.00043274  1
  Nb  Nb145  1  0.20515467  0.79944382  0.19693100  1
  Nb  Nb146  1  0.40803481  -0.00714374  0.80631742  1
  Nb  Nb147  1  0.60282109  0.59539903  0.59919188  1
  Nb  Nb148  1  0.00755069  0.00765279  0.40118831  1
  Nb  Nb149  1  0.79920696  -0.00618353  0.60286572  1
  Pd  Pd150  1  -0.00631811  -0.01270229  0.59295412  1
  Pd  Pd151  1  0.20754907  0.40367098  0.40684472  1
  Pd  Pd152  1  -0.00815965  0.80444571  0.59675513  1
  Pd  Pd153  1  0.00988431  0.79393500  0.19101552  1
  Pd  Pd154  1  0.00490367  0.79100772  0.00225425  1
  Pd  Pd155  1  0.40714362  0.59426947  0.00291149  1
  Pd  Pd156  1  0.58870037  0.39897509  0.40739039  1
  Pd  Pd157  1  0.40085993  0.60311416  0.19757134  1
  Pd  Pd158  1  0.39040688  0.40511110  -0.00208076  1
  Pd  Pd159  1  0.80333411  0.60002863  -0.00156097  1
  Pd  Pd160  1  -0.00045393  0.20765409  0.79533071  1
  Pd  Pd161  1  0.59936230  0.19391803  0.59511627  1
  Pd  Pd162  1  0.79964494  0.79443982  0.79620096  1
  Pd  Pd163  1  0.39535288  0.00552379  0.19867796  1
  Pd  Pd164  1  0.00267588  0.20276495  0.20549969  1
  Pd  Pd165  1  -0.00198771  0.40766890  0.79747476  1
  Pd  Pd166  1  0.20471985  0.00420518  -0.00795816  1
  Pd  Pd167  1  0.80989213  0.39504442  0.00120923  1
  Pd  Pd168  1  0.00566517  0.39573173  0.19659591  1
  Pd  Pd169  1  0.80164440  0.41223285  0.20626085  1
  Pd  Pd170  1  0.20294776  -0.00174866  0.20680174  1
  Pd  Pd171  1  0.60752900  0.60746324  0.79174950  1
  Pd  Pd172  1  0.40065346  0.40477213  0.20313204  1
  Pd  Pd173  1  0.40141096  0.00210227  0.39623048  1
  Pd  Pd174  1  -0.00684555  0.39274584  0.40818076  1
  Pd  Pd175  1  0.80097786  0.59455599  0.20530919  1
  Pd  Pd176  1  0.00233340  -0.00105005  0.80496572  1
  Pd  Pd177  1  0.00410646  0.80531236  0.40641591  1
  Pd  Pd178  1  0.59834196  0.20444759  0.19399088  1
  Pd  Pd179  1  0.18938604  0.59811438  -0.01214297  1
  Pd  Pd180  1  -0.00790271  0.21353623  0.00618640  1
  Pd  Pd181  1  -0.00750910  -0.00215428  0.20361739  1
  Pd  Pd182  1  0.19542984  0.79916960  0.00389640  1
  Pd  Pd183  1  0.60389540  0.19288991  0.80178299  1
  Pd  Pd184  1  0.19832973  0.80521974  0.39795522  1
  Pd  Pd185  1  0.20077013  0.00028932  0.59770937  1
  Pd  Pd186  1  0.79837006  0.60746731  0.39100735  1
  Pd  Pd187  1  0.39070467  0.20431632  0.60635739  1
  Pd  Pd188  1  0.60361883  0.40619008  0.58987120  1
  Pd  Pd189  1  0.60520977  0.39949364  0.79950731  1
  Pd  Pd190  1  0.39329163  0.39246870  0.59074647  1
  Pd  Pd191  1  0.78831647  0.39460015  0.78875638  1
  Pd  Pd192  1  0.79814244  0.79342739  0.40118312  1
  Pd  Pd193  1  0.20314579  0.20509040  0.80254401  1
  Pd  Pd194  1  0.39170524  0.80091316  0.60856351  1
  Pd  Pd195  1  0.59930755  0.39888491  0.00071936  1
  Pd  Pd196  1  0.20581852  0.79092497  0.60327505  1
  Pd  Pd197  1  -0.00219186  0.60654255  0.19481753  1
  Pd  Pd198  1  0.79708572  0.00721951  0.79787035  1
  Pd  Pd199  1  0.00118106  0.59366563  0.60653269  1
  Rh  Rh200  1  0.59987685  0.40451150  0.19589319  1
  Rh  Rh201  1  0.79753460  0.19467813  0.19598676  1
  Rh  Rh202  1  0.19667828  0.19776798  0.20036887  1
  Rh  Rh203  1  0.79555930  0.59325075  0.59368014  1
  Rh  Rh204  1  0.39880402  0.20573756  0.39976586  1
  Rh  Rh205  1  0.20397029  0.79777905  0.79935479  1
  Rh  Rh206  1  0.60451789  0.60105537  0.00345912  1
  Rh  Rh207  1  0.39643308  0.79258140  0.20147703  1
  Rh  Rh208  1  0.80103494  0.60629394  0.79886379  1
  Rh  Rh209  1  0.60913722  0.79002066  -0.00228801  1
  Rh  Rh210  1  0.60228753  0.80381070  0.39485294  1
  Rh  Rh211  1  0.20288702  0.60940877  0.19966635  1
  Rh  Rh212  1  0.79740319  0.80897082  0.19458786  1
  Rh  Rh213  1  0.80361856  0.20697934  0.39739451  1
  Rh  Rh214  1  -0.00238874  0.60447577  0.39446034  1
  Rh  Rh215  1  0.40043684  0.19727680  0.19759053  1
  Rh  Rh216  1  0.19830250  0.39602254  0.19298784  1
  Rh  Rh217  1  0.59652202  0.00704828  -0.00937192  1
  Rh  Rh218  1  -0.00238263  -0.00136900  -0.00218948  1
  Rh  Rh219  1  0.20210024  0.59835203  0.41166301  1
  Rh  Rh220  1  0.60486113  0.78545850  0.60503610  1
  Rh  Rh221  1  0.60685357  -0.00891791  0.21414393  1
  Rh  Rh222  1  0.80018425  0.80364900  0.00298628  1
  Rh  Rh223  1  0.20999211  0.38925463  0.81323393  1
  Rh  Rh224  1  0.40457384  0.19042564  0.00781453  1
  Rh  Rh225  1  0.19957970  0.20717893  0.61511370  1
  Rh  Rh226  1  0.60534835  0.00764584  0.59716622  1
  Rh  Rh227  1  0.40659370  0.60234472  0.80034333  1
  Rh  Rh228  1  0.79882861  -0.00334691  0.39946668  1
  Rh  Rh229  1  -0.00676667  0.79531452  0.79715376  1
  Rh  Rh230  1  0.60193606  0.80080166  0.20185311  1
  Rh  Rh231  1  0.80329937  0.39855357  0.40304568  1
  Rh  Rh232  1  0.80417396  0.80801174  0.59674815  1
  Rh  Rh233  1  0.60474777  0.60424276  0.40528007  1
  Rh  Rh234  1  0.39332336  0.00008309  0.60873411  1
  Rh  Rh235  1  0.01142585  0.21383217  0.60764537  1
  Rh  Rh236  1  0.39467932  0.39409545  0.80979231  1
  Rh  Rh237  1  0.19429529  0.40364308  0.59952779  1
  Rh  Rh238  1  0.19074703  0.61015992  0.79906442  1
  Rh  Rh239  1  0.59612570  0.19065525  0.40504143  1
  Rh  Rh240  1  0.40315928  0.79642742  0.39597517  1
  Rh  Rh241  1  0.39708159  0.59086051  0.39728315  1
  Rh  Rh242  1  0.79213259  0.20056026  0.60881662  1
  Rh  Rh243  1  0.19620080  0.00553639  0.80832677  1
  Rh  Rh244  1  0.19621523  0.20533504  0.00262726  1
  Rh  Rh245  1  0.60581099  0.59734683  0.19651490  1
  Rh  Rh246  1  0.39561437  0.59672152  0.60464657  1
  Rh  Rh247  1  0.19559199  0.19474698  0.39586427  1
  Rh  Rh248  1  0.39408641  0.19839822  0.79362559  1
  Rh  Rh249  1  0.39879414  0.80527601  -0.00766612  1
