# generated using pymatgen
data_ZrScNbPdRh
_symmetry_space_group_name_H-M   'P 1'
_cell_length_a   16.55773906
_cell_length_b   16.56076910
_cell_length_c   16.55822687
_cell_angle_alpha   90.00613154
_cell_angle_beta   89.97714798
_cell_angle_gamma   90.01915192
_symmetry_Int_Tables_number   1
_chemical_formula_structural   ZrScNbPdRh
_chemical_formula_sum   'Zr50 Sc50 Nb50 Pd50 Rh50'
_cell_volume   4540.41242904
_cell_formula_units_Z   50
loop_
 _symmetry_equiv_pos_site_id
 _symmetry_equiv_pos_as_xyz
  1  'x, y, z'
loop_
 _atom_site_type_symbol
 _atom_site_label
 _atom_site_symmetry_multiplicity
 _atom_site_fract_x
 _atom_site_fract_y
 _atom_site_fract_z
 _atom_site_occupancy
  Zr  Zr0  1  0.70420015  0.50335751  0.49478758  1
  Zr  Zr1  1  0.70859188  0.70260069  0.50761715  1
  Zr  Zr2  1  0.49716304  0.89506018  0.29807802  1
  Zr  Zr3  1  0.09688352  0.10051034  0.30466898  1
  Zr  Zr4  1  0.69343352  0.30020585  0.09696181  1
  Zr  Zr5  1  0.09698219  0.29669636  0.30433956  1
  Zr  Zr6  1  0.69967482  0.69165364  0.29982243  1
  Zr  Zr7  1  0.90407171  0.49484412  0.70363302  1
  Zr  Zr8  1  0.50312592  0.50111555  0.30550907  1
  Zr  Zr9  1  0.29910432  0.49696254  0.89815659  1
  Zr  Zr10  1  0.10307376  0.89527139  0.69768764  1
  Zr  Zr11  1  0.90295101  0.09485504  0.29335490  1
  Zr  Zr12  1  0.30254531  0.69421877  0.90289421  1
  Zr  Zr13  1  0.69882198  0.49925521  0.29961811  1
  Zr  Zr14  1  0.70275214  0.90712313  0.89268031  1
  Zr  Zr15  1  0.90200470  0.10454115  0.69465488  1
  Zr  Zr16  1  0.68895147  0.89955781  0.10067127  1
  Zr  Zr17  1  0.10836271  0.49126910  0.09855179  1
  Zr  Zr18  1  0.49528511  0.69253173  0.89511338  1
  Zr  Zr19  1  0.48963576  0.29935867  0.49697997  1
  Zr  Zr20  1  0.09343724  0.90126130  0.29702156  1
  Zr  Zr21  1  0.49935802  0.89335661  0.50579514  1
  Zr  Zr22  1  0.49626862  0.30714319  0.30141993  1
  Zr  Zr23  1  0.88999914  0.49387064  0.30478175  1
  Zr  Zr24  1  0.90722902  0.89428271  0.89499941  1
  Zr  Zr25  1  0.69997229  0.30237155  0.70440979  1
  Zr  Zr26  1  0.10027032  0.89706555  0.10352605  1
  Zr  Zr27  1  0.10518485  0.49181396  0.50819446  1
  Zr  Zr28  1  0.70438845  0.50760448  0.70508838  1
  Zr  Zr29  1  0.09600762  0.30188621  0.10375829  1
  Zr  Zr30  1  0.10517231  0.09998303  0.89910124  1
  Zr  Zr31  1  0.10838694  0.10408625  0.50000321  1
  Zr  Zr32  1  0.30923274  0.50112691  0.29244437  1
  Zr  Zr33  1  0.89509824  0.90092733  0.50900395  1
  Zr  Zr34  1  0.49391466  0.70130374  0.50423905  1
  Zr  Zr35  1  0.69870199  0.90715430  0.49723336  1
  Zr  Zr36  1  0.91119933  0.49796257  0.89779591  1
  Zr  Zr37  1  0.69478987  0.90416336  0.29951108  1
  Zr  Zr38  1  0.49844610  0.29699107  0.09556617  1
  Zr  Zr39  1  0.70320596  0.69277987  0.89352477  1
  Zr  Zr40  1  0.90059096  0.29447579  0.30060855  1
  Zr  Zr41  1  0.49478058  0.50417122  0.49743566  1
  Zr  Zr42  1  0.29952473  0.69408349  0.10426729  1
  Zr  Zr43  1  0.50244881  0.90238948  0.10725983  1
  Zr  Zr44  1  0.09110403  0.69412986  0.50169941  1
  Zr  Zr45  1  0.69759191  0.10231934  0.50067849  1
  Zr  Zr46  1  0.09675293  0.70000561  0.88737843  1
  Zr  Zr47  1  0.90638245  0.69525429  0.89669718  1
  Zr  Zr48  1  0.90143444  0.70066940  0.68745660  1
  Zr  Zr49  1  0.30511712  0.69926184  0.29955784  1
  Sc  Sc50  1  0.48598131  0.50701553  0.70641242  1
  Sc  Sc51  1  0.49581896  0.10064839  0.89726494  1
  Sc  Sc52  1  0.30354573  0.09758753  0.31446738  1
  Sc  Sc53  1  0.49069129  0.10256718  0.50199979  1
  Sc  Sc54  1  0.30116601  0.89277999  0.30214092  1
  Sc  Sc55  1  0.90531829  0.51211829  0.49912204  1
  Sc  Sc56  1  0.30759169  0.89892413  0.10237510  1
  Sc  Sc57  1  0.90849144  0.69276244  0.30935813  1
  Sc  Sc58  1  0.89597998  0.09826724  0.49723465  1
  Sc  Sc59  1  0.29780497  0.69603804  0.69358029  1
  Sc  Sc60  1  0.29864987  0.89890405  0.50670532  1
  Sc  Sc61  1  0.70733930  0.30465246  0.30439633  1
  Sc  Sc62  1  0.70053321  0.29362669  0.49282029  1
  Sc  Sc63  1  0.49954918  0.48504856  0.10654383  1
  Sc  Sc64  1  0.89746278  0.29496977  0.50112664  1
  Sc  Sc65  1  0.49560876  0.29713007  0.90588756  1
  Sc  Sc66  1  0.70140540  0.49567790  0.10765501  1
  Sc  Sc67  1  0.30143148  0.10320785  0.50902950  1
  Sc  Sc68  1  0.29697408  0.90787699  0.69540941  1
  Sc  Sc69  1  0.10171261  0.49965242  0.69766341  1
  Sc  Sc70  1  0.10340621  0.10144319  0.09588016  1
  Sc  Sc71  1  0.10689285  0.69927131  0.10516336  1
  Sc  Sc72  1  0.29570912  0.49616938  0.69867666  1
  Sc  Sc73  1  0.69817382  0.10522534  0.09690844  1
  Sc  Sc74  1  0.30119440  0.10079663  0.89132727  1
  Sc  Sc75  1  0.30344897  0.30694204  0.30779537  1
  Sc  Sc76  1  0.10411821  0.70795561  0.30179759  1
  Sc  Sc77  1  0.10499715  0.10840887  0.69481482  1
  Sc  Sc78  1  0.69173692  0.10159891  0.90052267  1
  Sc  Sc79  1  0.09713719  0.48793481  0.30524308  1
  Sc  Sc80  1  0.50410598  0.90445679  0.90836208  1
  Sc  Sc81  1  0.90346176  0.49347302  0.09365232  1
  Sc  Sc82  1  0.29712480  0.09823752  0.08104027  1
  Sc  Sc83  1  0.90605724  0.69559241  0.09404564  1
  Sc  Sc84  1  0.49470755  0.10145814  0.30981672  1
  Sc  Sc85  1  0.69698799  0.09521674  0.70586142  1
  Sc  Sc86  1  0.89464749  0.10038351  0.89312774  1
  Sc  Sc87  1  0.70146443  0.90739870  0.68914440  1
  Sc  Sc88  1  0.49805843  0.71107485  0.09815287  1
  Sc  Sc89  1  0.49837814  0.69646567  0.30515782  1
  Sc  Sc90  1  0.10549807  0.90180021  0.50242194  1
  Sc  Sc91  1  0.69952146  0.10238479  0.31155834  1
  Sc  Sc92  1  0.30161138  0.70309018  0.50441705  1
  Sc  Sc93  1  0.29813902  0.31107568  0.08965340  1
  Sc  Sc94  1  0.10088127  0.30077350  0.88822687  1
  Sc  Sc95  1  0.71047551  0.50244118  0.89288546  1
  Sc  Sc96  1  0.49771439  0.09655642  0.08945709  1
  Sc  Sc97  1  0.10495106  0.89627463  0.89381530  1
  Sc  Sc98  1  0.89583476  0.29391870  0.10793182  1
  Sc  Sc99  1  0.69671732  0.69787505  0.10122121  1
  Nb  Nb100  1  0.90155693  0.90535608  0.10659257  1
  Nb  Nb101  1  0.29762913  0.50124590  0.50495776  1
  Nb  Nb102  1  0.90648201  0.30086210  0.70796193  1
  Nb  Nb103  1  0.49799225  0.70293672  0.69983311  1
  Nb  Nb104  1  0.89801609  0.90494715  0.29433939  1
  Nb  Nb105  1  0.49437357  0.29947035  0.70271313  1
  Nb  Nb106  1  0.48434585  0.10256258  0.70134851  1
  Nb  Nb107  1  0.70130375  0.69664716  0.70215483  1
  Nb  Nb108  1  0.69911608  0.29864107  0.90098632  1
  Nb  Nb109  1  0.49916728  0.50362120  0.89486243  1
  Nb  Nb110  1  0.09855200  0.49927951  0.89717640  1
  Nb  Nb111  1  0.89813731  0.70004150  0.49769127  1
  Nb  Nb112  1  0.30548102  0.30002840  0.70772159  1
  Nb  Nb113  1  0.90248861  0.09877303  0.09982755  1
  Nb  Nb114  1  0.29522535  0.90230923  0.89585954  1
  Nb  Nb115  1  0.09513065  0.30300018  0.69427592  1
  Nb  Nb116  1  0.29321855  0.50001687  0.10219402  1
  Nb  Nb117  1  0.30098892  0.30126381  0.88885758  1
  Nb  Nb118  1  0.31794386  0.10067856  0.69991022  1
  Nb  Nb119  1  0.11463261  0.30079175  0.50535752  1
  Nb  Nb120  1  0.29634106  0.30876326  0.50697515  1
  Nb  Nb121  1  0.90439133  0.30418463  0.89301366  1
  Nb  Nb122  1  0.49391855  0.90027904  0.69835056  1
  Nb  Nb123  1  0.89658999  0.90655181  0.70098188  1
  Nb  Nb124  1  0.10075555  0.69865934  0.69553535  1
  Nb  Nb125  1  0.20359366  0.59447007  0.40463046  1
  Nb  Nb126  1  0.80492677  0.80448834  0.39578842  1
  Nb  Nb127  1  0.79873609  0.39856986  0.60514232  1
  Nb  Nb128  1  0.59774011  0.40155898  0.60604782  1
  Nb  Nb129  1  0.00342801  0.59211419  0.20293953  1
  Nb  Nb130  1  0.59912889  0.79787490  0.79167497  1
  Nb  Nb131  1  0.80200631  0.20920278  0.80186812  1
  Nb  Nb132  1  0.00058609  0.00016909  0.79706572  1
  Nb  Nb133  1  0.59520030  0.59395047  -0.00642523  1
  Nb  Nb134  1  0.79872157  0.79953382  0.79498930  1
  Nb  Nb135  1  0.59441589  0.40057555  0.80045395  1
  Nb  Nb136  1  0.20047612  0.00500841  0.20242270  1
  Nb  Nb137  1  0.20533712  0.79817607  -0.00486078  1
  Nb  Nb138  1  0.80255439  0.80638126  0.00036331  1
  Nb  Nb139  1  0.40305271  0.80407165  0.79777246  1
  Nb  Nb140  1  0.58988044  0.20529957  0.60837171  1
  Nb  Nb141  1  -0.00383004  0.00102623  -0.00081562  1
  Nb  Nb142  1  0.39525601  0.20097443  0.19652580  1
  Nb  Nb143  1  0.80651127  -0.00430935  0.00463036  1
  Nb  Nb144  1  0.80549467  0.80491212  0.20079083  1
  Nb  Nb145  1  0.59847414  0.60209060  0.60659688  1
  Nb  Nb146  1  0.80212144  0.38970296  -0.00938067  1
  Nb  Nb147  1  -0.00595223  0.19859298  -0.00442576  1
  Nb  Nb148  1  0.59146244  0.20493771  0.20304391  1
  Nb  Nb149  1  0.20601077  0.19870352  0.20181742  1
  Pd  Pd150  1  0.19828705  0.00618395  0.78957893  1
  Pd  Pd151  1  0.41210735  0.59968069  0.19113493  1
  Pd  Pd152  1  0.60415438  0.79299387  0.39808356  1
  Pd  Pd153  1  0.20662392  0.40530538  0.39626373  1
  Pd  Pd154  1  0.19572018  0.39390645  -0.01127754  1
  Pd  Pd155  1  0.20445136  -0.00676133  0.39851721  1
  Pd  Pd156  1  0.00648784  0.00238166  0.60204048  1
  Pd  Pd157  1  0.40749685  0.58683751  0.01245215  1
  Pd  Pd158  1  0.21111456  0.79534554  0.79743612  1
  Pd  Pd159  1  0.00405775  0.80117929  0.00551388  1
  Pd  Pd160  1  -0.00541279  0.39596042  0.41204274  1
  Pd  Pd161  1  0.00291220  0.20589436  0.59121038  1
  Pd  Pd162  1  0.39563854  0.80730076  -0.00693071  1
  Pd  Pd163  1  0.40081146  0.40349840  0.60431406  1
  Pd  Pd164  1  0.60302685  0.39645014  0.40596293  1
  Pd  Pd165  1  0.01362444  0.59818369  0.00744913  1
  Pd  Pd166  1  -0.00752629  0.40400632  0.20086134  1
  Pd  Pd167  1  -0.00773739  0.78735670  0.20084362  1
  Pd  Pd168  1  0.20096239  0.59625272  0.79573111  1
  Pd  Pd169  1  0.60552429  0.79170192  -0.01023212  1
  Pd  Pd170  1  0.19009271  0.59352591  0.21387168  1
  Pd  Pd171  1  0.78903488  0.19587952  0.20501560  1
  Pd  Pd172  1  0.39112350  0.01213045  0.19919422  1
  Pd  Pd173  1  0.79399709  0.59368612  0.00631275  1
  Pd  Pd174  1  0.78878081  0.00343709  0.19550849  1
  Pd  Pd175  1  0.79258816  0.20256182  0.60668996  1
  Pd  Pd176  1  0.19255690  0.60360156  -0.00370164  1
  Pd  Pd177  1  -0.00151806  0.20112640  0.41126478  1
  Pd  Pd178  1  0.59020689  0.01210951  0.60313759  1
  Pd  Pd179  1  0.81213432  0.60491535  0.19555218  1
  Pd  Pd180  1  0.59785989  0.01737555  0.20330905  1
  Pd  Pd181  1  0.20336258  0.20078624  0.79059186  1
  Pd  Pd182  1  0.60715429  0.40995257  -0.01180039  1
  Pd  Pd183  1  0.00188713  0.80334845  0.59814695  1
  Pd  Pd184  1  0.58932778  -0.00416554  0.79441211  1
  Pd  Pd185  1  0.59021598  0.60135097  0.18785730  1
  Pd  Pd186  1  0.20913796  0.20459757  0.39905672  1
  Pd  Pd187  1  0.80507178  0.19885521  -0.00807135  1
  Pd  Pd188  1  -0.00549943  0.80831239  0.40249450  1
  Pd  Pd189  1  0.19719474  0.21175798  0.00009180  1
  Pd  Pd190  1  0.20107882  0.79454930  0.40758655  1
  Pd  Pd191  1  -0.00269050  -0.00424418  0.40834161  1
  Pd  Pd192  1  0.59804338  0.20349395  0.79919212  1
  Pd  Pd193  1  0.60518911  0.79692782  0.60578501  1
  Pd  Pd194  1  0.58871558  0.00414875  0.40370485  1
  Pd  Pd195  1  0.39818087  -0.00770758  0.40877798  1
  Pd  Pd196  1  0.39832169  0.40487773  -0.00394197  1
  Pd  Pd197  1  0.21070445  0.20248826  0.60969035  1
  Pd  Pd198  1  0.39859982  -0.00273372  -0.00634130  1
  Pd  Pd199  1  -0.00703810  0.39471407  0.59307615  1
  Rh  Rh200  1  0.80621670  0.19484293  0.39457139  1
  Rh  Rh201  1  0.39243406  0.80366961  0.60827184  1
  Rh  Rh202  1  0.19602315  -0.01647237  0.00496730  1
  Rh  Rh203  1  0.38884456  0.60367420  0.79387831  1
  Rh  Rh204  1  0.60206827  0.79280710  0.20795978  1
  Rh  Rh205  1  0.20850565  0.80830946  0.19347481  1
  Rh  Rh206  1  0.39203842  0.20227962  -0.00347010  1
  Rh  Rh207  1  0.60120774  0.60680260  0.41144286  1
  Rh  Rh208  1  0.19759492  0.60234448  0.59441450  1
  Rh  Rh209  1  0.39250492  0.20425061  0.40099218  1
  Rh  Rh210  1  -0.00475029  0.80317356  0.78299119  1
  Rh  Rh211  1  0.59465958  0.20262246  0.40199335  1
  Rh  Rh212  1  0.40187422  -0.00797608  0.80386243  1
  Rh  Rh213  1  0.20489722  0.39138142  0.61170357  1
  Rh  Rh214  1  0.40037072  0.59910615  0.60128718  1
  Rh  Rh215  1  0.39680220  0.20866871  0.59980566  1
  Rh  Rh216  1  0.40231156  0.79601917  0.20274117  1
  Rh  Rh217  1  0.19748799  0.79516813  0.59956966  1
  Rh  Rh218  1  -0.00143617  0.39002220  -0.00246617  1
  Rh  Rh219  1  0.38994563  0.59947556  0.40521390  1
  Rh  Rh220  1  0.59473663  0.59810084  0.79765843  1
  Rh  Rh221  1  0.20280172  0.00887441  0.60287390  1
  Rh  Rh222  1  0.79823255  0.80406499  0.60188344  1
  Rh  Rh223  1  0.01055038  0.00815720  0.19348704  1
  Rh  Rh224  1  0.80516106  -0.00288593  0.39928409  1
  Rh  Rh225  1  0.19628064  0.39960633  0.79571627  1
  Rh  Rh226  1  -0.00292690  0.19415250  0.80241909  1
  Rh  Rh227  1  0.00820644  0.19368240  0.19296862  1
  Rh  Rh228  1  0.80095931  0.39686452  0.19210386  1
  Rh  Rh229  1  0.39186870  0.39481418  0.19370818  1
  Rh  Rh230  1  0.80489245  0.39924772  0.41160359  1
  Rh  Rh231  1  0.39316245  0.40678435  0.40618752  1
  Rh  Rh232  1  0.60487309  0.39359734  0.20888998  1
  Rh  Rh233  1  0.39972671  0.80183554  0.40254321  1
  Rh  Rh234  1  0.40080125  0.20315184  0.80748133  1
  Rh  Rh235  1  0.01357358  0.40216336  0.79826293  1
  Rh  Rh236  1  0.79987010  0.59345325  0.59981895  1
  Rh  Rh237  1  0.01119171  0.59506547  0.39425249  1
  Rh  Rh238  1  0.80083906  0.60699805  0.40037518  1
  Rh  Rh239  1  0.59588581  0.19596480  0.00198546  1
  Rh  Rh240  1  0.81751465  0.60687050  0.79458590  1
  Rh  Rh241  1  0.40073714  -0.00394084  0.59730244  1
  Rh  Rh242  1  0.40214412  0.39846423  0.80458960  1
  Rh  Rh243  1  0.79622223  0.39489849  0.80230488  1
  Rh  Rh244  1  0.20582478  0.39201326  0.20464744  1
  Rh  Rh245  1  0.60548001  0.00486205  0.00004423  1
  Rh  Rh246  1  0.00346961  0.59769464  0.79067260  1
  Rh  Rh247  1  0.80531788  0.00369709  0.79901788  1
  Rh  Rh248  1  0.00165147  0.59859713  0.60274065  1
  Rh  Rh249  1  0.79628310  0.00864238  0.59956851  1
