# generated using pymatgen
data_ZrScNbPdRh
_symmetry_space_group_name_H-M   'P 1'
_cell_length_a   16.55830851
_cell_length_b   16.55985417
_cell_length_c   16.56195056
_cell_angle_alpha   89.97321533
_cell_angle_beta   90.01480150
_cell_angle_gamma   90.01401332
_symmetry_Int_Tables_number   1
_chemical_formula_structural   ZrScNbPdRh
_chemical_formula_sum   'Zr50 Sc50 Nb50 Pd50 Rh50'
_cell_volume   4541.33862962
_cell_formula_units_Z   50
loop_
 _symmetry_equiv_pos_site_id
 _symmetry_equiv_pos_as_xyz
  1  'x, y, z'
loop_
 _atom_site_type_symbol
 _atom_site_label
 _atom_site_symmetry_multiplicity
 _atom_site_fract_x
 _atom_site_fract_y
 _atom_site_fract_z
 _atom_site_occupancy
  Zr  Zr0  1  0.29943719  0.89491164  0.09963347  1
  Zr  Zr1  1  0.89707022  0.50362997  0.49849468  1
  Zr  Zr2  1  0.10310441  0.49847363  0.11014785  1
  Zr  Zr3  1  0.90162992  0.50524472  0.10419043  1
  Zr  Zr4  1  0.09605841  0.88987407  0.30053741  1
  Zr  Zr5  1  0.49419848  0.50822529  0.69735038  1
  Zr  Zr6  1  0.10801898  0.30815674  0.29992338  1
  Zr  Zr7  1  0.10724991  0.31227409  0.89936888  1
  Zr  Zr8  1  0.49658134  0.10279688  0.28810490  1
  Zr  Zr9  1  0.29273314  0.50611230  0.28975510  1
  Zr  Zr10  1  0.30346215  0.90148021  0.70225027  1
  Zr  Zr11  1  0.89884620  0.89663243  0.10485375  1
  Zr  Zr12  1  0.70090874  0.69997215  0.10519114  1
  Zr  Zr13  1  0.70402047  0.09236581  0.30824484  1
  Zr  Zr14  1  0.70236099  0.30198626  0.89787103  1
  Zr  Zr15  1  0.70504200  0.69433829  0.49355903  1
  Zr  Zr16  1  0.89533193  0.90054032  0.30308524  1
  Zr  Zr17  1  0.10568794  0.68988955  0.70676701  1
  Zr  Zr18  1  0.89476659  0.10211217  0.29523425  1
  Zr  Zr19  1  0.69430374  0.09934128  0.89718812  1
  Zr  Zr20  1  0.29324303  0.49138765  0.90284184  1
  Zr  Zr21  1  0.10514726  0.30099771  0.10485252  1
  Zr  Zr22  1  0.09799994  0.09433186  0.69759712  1
  Zr  Zr23  1  0.09914531  0.50207165  0.30499663  1
  Zr  Zr24  1  0.69646613  0.49912723  0.30602204  1
  Zr  Zr25  1  0.09408430  0.50136457  0.49671399  1
  Zr  Zr26  1  0.30279668  0.10157819  0.89687234  1
  Zr  Zr27  1  0.49476522  0.89015064  0.70010614  1
  Zr  Zr28  1  0.90759623  0.30894457  0.50391593  1
  Zr  Zr29  1  0.09692859  0.89111475  0.10023216  1
  Zr  Zr30  1  0.50367835  0.68364800  0.09569674  1
  Zr  Zr31  1  0.10296849  0.69649790  0.30405866  1
  Zr  Zr32  1  0.09322263  0.89824272  0.50065668  1
  Zr  Zr33  1  0.50430491  0.49957013  0.49774709  1
  Zr  Zr34  1  0.69443272  0.90918498  0.48967773  1
  Zr  Zr35  1  0.30018101  0.09909584  0.28893393  1
  Zr  Zr36  1  0.09511102  0.69995841  0.49649147  1
  Zr  Zr37  1  0.89781464  0.30119490  0.89353630  1
  Zr  Zr38  1  0.89648939  0.70433147  0.30101877  1
  Zr  Zr39  1  0.70536115  0.69379252  0.89383107  1
  Zr  Zr40  1  0.69326340  0.10517934  0.70177866  1
  Zr  Zr41  1  0.89466350  0.50234707  0.90177907  1
  Zr  Zr42  1  0.29335558  0.70411143  0.89891403  1
  Zr  Zr43  1  0.70512528  0.70006996  0.69699631  1
  Zr  Zr44  1  0.50717580  0.30357380  0.29872925  1
  Zr  Zr45  1  0.50643198  0.90005277  0.30182806  1
  Zr  Zr46  1  0.28731130  0.30670972  0.69640407  1
  Zr  Zr47  1  0.09703939  0.89895632  0.69645502  1
  Zr  Zr48  1  0.30352315  0.89455407  0.50342611  1
  Zr  Zr49  1  0.49262268  0.30815575  0.49427454  1
  Sc  Sc50  1  0.10391915  0.88799537  0.90479248  1
  Sc  Sc51  1  0.29248762  0.69823696  0.49505295  1
  Sc  Sc52  1  0.30722992  0.70101388  0.70692423  1
  Sc  Sc53  1  0.10340211  0.10177256  0.11004401  1
  Sc  Sc54  1  0.90353381  0.90138765  0.91335590  1
  Sc  Sc55  1  0.50080357  0.30004335  0.10321064  1
  Sc  Sc56  1  0.30616091  0.89045392  0.89480469  1
  Sc  Sc57  1  0.90223465  0.50112507  0.69701868  1
  Sc  Sc58  1  0.90125769  0.89358317  0.69233642  1
  Sc  Sc59  1  0.50839142  0.30841069  0.69030495  1
  Sc  Sc60  1  0.69462542  0.49686736  0.70692789  1
  Sc  Sc61  1  0.09542768  0.30205463  0.69464236  1
  Sc  Sc62  1  0.70408402  0.31058122  0.49994730  1
  Sc  Sc63  1  0.29663675  0.50749016  0.69805705  1
  Sc  Sc64  1  0.88629599  0.30181688  0.29738654  1
  Sc  Sc65  1  0.30132292  0.49226644  0.50172791  1
  Sc  Sc66  1  0.50188791  0.90073010  0.50976508  1
  Sc  Sc67  1  0.09437411  0.09115764  0.89050126  1
  Sc  Sc68  1  0.09617668  0.09714846  0.50511807  1
  Sc  Sc69  1  0.50464965  0.90207209  0.10189612  1
  Sc  Sc70  1  0.29726938  0.30323099  0.90210388  1
  Sc  Sc71  1  0.30719765  0.31368730  0.08881412  1
  Sc  Sc72  1  0.30048513  0.29687014  0.30946149  1
  Sc  Sc73  1  0.09489121  0.50971604  0.89398296  1
  Sc  Sc74  1  0.10921102  0.10922946  0.29249532  1
  Sc  Sc75  1  0.50476782  0.51132342  0.89344082  1
  Sc  Sc76  1  0.90469675  0.50235610  0.30166791  1
  Sc  Sc77  1  0.90241479  0.30188908  0.70390284  1
  Sc  Sc78  1  0.50944948  0.09469318  0.50481687  1
  Sc  Sc79  1  0.70169770  0.50760180  0.10399864  1
  Sc  Sc80  1  0.69274025  0.09256186  0.09801800  1
  Sc  Sc81  1  0.70195176  0.30841115  0.10974156  1
  Sc  Sc82  1  0.49460500  0.69698570  0.89466988  1
  Sc  Sc83  1  0.29766837  0.10534391  0.49832747  1
  Sc  Sc84  1  0.90198342  0.09130902  0.49311921  1
  Sc  Sc85  1  0.29300611  0.89554685  0.29007131  1
  Sc  Sc86  1  0.69362738  0.89392689  0.70901591  1
  Sc  Sc87  1  0.89412178  0.69953819  0.50655376  1
  Sc  Sc88  1  0.89450075  0.30091924  0.10952688  1
  Sc  Sc89  1  0.70275624  0.30272067  0.70717219  1
  Sc  Sc90  1  0.90239857  0.70021781  0.09905056  1
  Sc  Sc91  1  0.10652998  0.30905077  0.50147478  1
  Sc  Sc92  1  0.49152573  0.29452498  0.91413162  1
  Sc  Sc93  1  0.50555537  0.09051463  0.69853039  1
  Sc  Sc94  1  0.50669114  0.49721619  0.29330634  1
  Sc  Sc95  1  0.90505347  0.89458575  0.49834978  1
  Sc  Sc96  1  0.70758768  0.90081194  0.09926719  1
  Sc  Sc97  1  0.50526084  0.70041384  0.51148561  1
  Sc  Sc98  1  0.70315860  0.89449276  0.29738485  1
  Sc  Sc99  1  0.50849063  0.10267093  0.90473483  1
  Nb  Nb100  1  0.69879889  0.49727256  0.90159963  1
  Nb  Nb101  1  0.70009451  0.09946724  0.50290160  1
  Nb  Nb102  1  0.49674126  0.49713833  0.09716371  1
  Nb  Nb103  1  0.50656474  0.90328110  0.89850911  1
  Nb  Nb104  1  0.89897552  0.10237027  0.70890539  1
  Nb  Nb105  1  0.69467637  0.30062953  0.29918540  1
  Nb  Nb106  1  0.30204114  0.69775163  0.30061559  1
  Nb  Nb107  1  0.29707664  0.10224402  0.70268054  1
  Nb  Nb108  1  0.30771897  0.50629332  0.09851313  1
  Nb  Nb109  1  0.09747493  0.69687542  0.90404747  1
  Nb  Nb110  1  0.90093660  0.09654955  0.09512275  1
  Nb  Nb111  1  0.30464920  0.30357354  0.50263730  1
  Nb  Nb112  1  0.30611093  0.69415545  0.09952875  1
  Nb  Nb113  1  0.09492460  0.70207321  0.09214175  1
  Nb  Nb114  1  0.48928289  0.10076846  0.09850725  1
  Nb  Nb115  1  0.70453212  0.50803803  0.49787214  1
  Nb  Nb116  1  0.89591676  0.70254010  0.70319591  1
  Nb  Nb117  1  0.10408865  0.50003338  0.69732123  1
  Nb  Nb118  1  0.90935843  0.68962655  0.89645147  1
  Nb  Nb119  1  0.90039877  0.10321106  0.89840825  1
  Nb  Nb120  1  0.69345351  0.90286958  0.90239662  1
  Nb  Nb121  1  0.50645615  0.69675462  0.29749960  1
  Nb  Nb122  1  0.69293727  0.69791682  0.30154587  1
  Nb  Nb123  1  0.30113243  0.09547040  0.10466700  1
  Nb  Nb124  1  0.49936309  0.69516689  0.70255238  1
  Nb  Nb125  1  0.19883357  0.19336157  0.00126252  1
  Nb  Nb126  1  0.40029902  0.00191034  0.00270995  1
  Nb  Nb127  1  0.20051323  0.60426660  0.00680656  1
  Nb  Nb128  1  0.60641116  0.20221638  0.39802197  1
  Nb  Nb129  1  0.39938558  0.39754379  0.79694972  1
  Nb  Nb130  1  0.20612097  0.00213402  0.00359737  1
  Nb  Nb131  1  0.40293307  0.78631640  0.20211201  1
  Nb  Nb132  1  0.80097331  0.19350246  0.60062386  1
  Nb  Nb133  1  0.39565257  0.20248694  0.78873086  1
  Nb  Nb134  1  0.80182665  0.00323037  0.80258871  1
  Nb  Nb135  1  -0.00039546  0.20600563  0.39660438  1
  Nb  Nb136  1  -0.00210030  0.39842862  0.00213501  1
  Nb  Nb137  1  0.20262596  -0.00376753  0.39740444  1
  Nb  Nb138  1  -0.00465852  -0.00106991  0.19843809  1
  Nb  Nb139  1  0.39672808  -0.00356706  0.39462624  1
  Nb  Nb140  1  0.60332745  0.80076260  -0.00729275  1
  Nb  Nb141  1  0.40180676  0.79608552  0.39293389  1
  Nb  Nb142  1  -0.00135986  0.20121177  -0.00057249  1
  Nb  Nb143  1  0.19707995  0.79979846  0.60255353  1
  Nb  Nb144  1  0.80559102  0.19468554  -0.00210296  1
  Nb  Nb145  1  0.60156254  0.40918122  -0.00070816  1
  Nb  Nb146  1  -0.00311250  0.78731676  0.80240665  1
  Nb  Nb147  1  0.40329993  0.60642539  0.39137972  1
  Nb  Nb148  1  0.39481587  0.20329960  0.60398141  1
  Nb  Nb149  1  0.79611580  0.00667727  0.60592841  1
  Pd  Pd150  1  0.78871546  0.19217854  0.19007656  1
  Pd  Pd151  1  -0.00740434  0.19497391  0.59483619  1
  Pd  Pd152  1  0.60704548  0.80082278  0.59822219  1
  Pd  Pd153  1  0.79994467  0.79368231  -0.00716323  1
  Pd  Pd154  1  -0.00317511  0.19913230  0.20133370  1
  Pd  Pd155  1  0.01066505  0.20410710  0.80323539  1
  Pd  Pd156  1  0.19311071  0.19653947  0.40798858  1
  Pd  Pd157  1  -0.00678774  0.39741201  0.20303759  1
  Pd  Pd158  1  0.00100474  0.40847244  0.79934439  1
  Pd  Pd159  1  0.20031602  0.20001537  0.59466554  1
  Pd  Pd160  1  0.19935371  -0.00952785  0.80843647  1
  Pd  Pd161  1  0.40983242  0.18942257  0.40759240  1
  Pd  Pd162  1  0.59852047  0.79989196  0.19104196  1
  Pd  Pd163  1  0.39625837  0.01119484  0.59577951  1
  Pd  Pd164  1  0.79919130  0.39556733  0.00579379  1
  Pd  Pd165  1  0.80095172  0.20537017  0.41097391  1
  Pd  Pd166  1  0.80065552  0.40201167  0.39739526  1
  Pd  Pd167  1  0.20465013  -0.00245981  0.59386301  1
  Pd  Pd168  1  0.60067141  0.20958617  0.59048402  1
  Pd  Pd169  1  0.41195223  0.80400449  0.00416971  1
  Pd  Pd170  1  0.20277204  0.78778409  0.19422124  1
  Pd  Pd171  1  0.79714841  0.39892418  0.60799461  1
  Pd  Pd172  1  0.39308668  0.21493577  0.19354962  1
  Pd  Pd173  1  0.60918878  0.20969256  0.01103546  1
  Pd  Pd174  1  0.60681972  0.19564715  0.19874269  1
  Pd  Pd175  1  0.39455995  0.41261023  0.38784144  1
  Pd  Pd176  1  0.59479733  0.79141240  0.80485152  1
  Pd  Pd177  1  0.60312513  -0.00136341  0.19740079  1
  Pd  Pd178  1  0.80036518  0.59155616  0.79281321  1
  Pd  Pd179  1  0.19466150  0.60951633  0.19312933  1
  Pd  Pd180  1  0.79195443  0.81182765  0.59325411  1
  Pd  Pd181  1  0.58778189  0.39415922  0.81094735  1
  Pd  Pd182  1  0.79983117  0.60014506  0.20794180  1
  Pd  Pd183  1  0.39746451  0.39678754  0.20509982  1
  Pd  Pd184  1  0.39488075  0.59586522  -0.01211112  1
  Pd  Pd185  1  0.20459121  0.60226040  0.59498349  1
  Pd  Pd186  1  -0.00894585  -0.01515466  0.79933860  1
  Pd  Pd187  1  0.01048981  0.01170277  0.38661234  1
  Pd  Pd188  1  0.58522998  0.20981710  0.80002849  1
  Pd  Pd189  1  0.60795416  0.40506923  0.59600099  1
  Pd  Pd190  1  0.39297601  0.60566867  0.58964968  1
  Pd  Pd191  1  0.59547410  0.79468446  0.40656262  1
  Pd  Pd192  1  0.79916735  0.60396932  0.00204158  1
  Pd  Pd193  1  0.01261131  0.00641166  0.00687785  1
  Pd  Pd194  1  0.81105436  0.81042695  0.80984395  1
  Pd  Pd195  1  0.19556482  0.20040861  0.80442043  1
  Pd  Pd196  1  -0.00524813  0.60212489  0.60368991  1
  Pd  Pd197  1  0.40918482  0.00676475  0.80590156  1
  Pd  Pd198  1  0.79681063  0.00399026  -0.00505608  1
  Pd  Pd199  1  0.60691290  0.59673615  0.60346656  1
  Rh  Rh200  1  0.59179287  -0.00574502  0.00372820  1
  Rh  Rh201  1  0.00599106  0.59204712  0.00690536  1
  Rh  Rh202  1  0.80234533  0.40669184  0.79607305  1
  Rh  Rh203  1  -0.00233088  0.79655920  0.20059135  1
  Rh  Rh204  1  0.59003532  0.01040158  0.39525601  1
  Rh  Rh205  1  0.41343541  0.41237081  -0.01031447  1
  Rh  Rh206  1  -0.00220382  0.39260641  0.39338234  1
  Rh  Rh207  1  0.60707274  0.59930417  -0.00446625  1
  Rh  Rh208  1  0.00714663  0.78623278  0.60969659  1
  Rh  Rh209  1  -0.01324261  0.00679416  0.60687847  1
  Rh  Rh210  1  0.21459482  0.21288107  0.18980664  1
  Rh  Rh211  1  0.18678059  -0.00642963  0.20050794  1
  Rh  Rh212  1  0.39403695  0.59447852  0.80207976  1
  Rh  Rh213  1  0.79714331  0.19677221  0.79947426  1
  Rh  Rh214  1  0.20162312  0.79542555  0.00429752  1
  Rh  Rh215  1  0.59993255  -0.00326675  0.79666464  1
  Rh  Rh216  1  0.20592978  0.40420306  0.40244067  1
  Rh  Rh217  1  0.79670161  0.79931756  0.40145702  1
  Rh  Rh218  1  0.40639807  0.79684730  0.80061887  1
  Rh  Rh219  1  0.59452387  0.60157856  0.40191143  1
  Rh  Rh220  1  0.40682754  0.59936758  0.20431777  1
  Rh  Rh221  1  0.80313843  0.00102764  0.19740207  1
  Rh  Rh222  1  0.60545952  0.39775811  0.40462570  1
  Rh  Rh223  1  0.60412014  0.60506529  0.79491364  1
  Rh  Rh224  1  0.21446958  0.39598685  0.19769777  1
  Rh  Rh225  1  0.60811413  -0.01061476  0.60791253  1
  Rh  Rh226  1  0.79717085  0.59566487  0.60485637  1
  Rh  Rh227  1  0.60146744  0.40727546  0.18958045  1
  Rh  Rh228  1  0.39114894  0.19135494  0.00078391  1
  Rh  Rh229  1  0.19162311  0.80236759  0.79225183  1
  Rh  Rh230  1  0.20393933  0.80662515  0.40647170  1
  Rh  Rh231  1  -0.00229456  0.60011466  0.79209221  1
  Rh  Rh232  1  0.19585392  0.40638847  0.59699401  1
  Rh  Rh233  1  0.79605017  0.41008986  0.20749950  1
  Rh  Rh234  1  -0.00770894  0.79132650  0.40200163  1
  Rh  Rh235  1  0.60061941  0.59376966  0.20116973  1
  Rh  Rh236  1  0.20394515  0.59630056  0.80863174  1
  Rh  Rh237  1  0.40372597  -0.01119192  0.19885566  1
  Rh  Rh238  1  0.00443558  0.40738093  0.60398325  1
  Rh  Rh239  1  0.39396139  0.78939579  0.59843574  1
  Rh  Rh240  1  0.19131939  0.40853610  0.00723479  1
  Rh  Rh241  1  0.80288563  -0.00535082  0.40647036  1
  Rh  Rh242  1  -0.00884517  0.60484877  0.40064094  1
  Rh  Rh243  1  0.80160580  0.60101572  0.39448116  1
  Rh  Rh244  1  0.79608047  0.79600699  0.20339262  1
  Rh  Rh245  1  0.20744992  0.59115647  0.40483737  1
  Rh  Rh246  1  -0.00836079  0.79214700  -0.00628903  1
  Rh  Rh247  1  0.39676259  0.39604550  0.60937436  1
  Rh  Rh248  1  0.19951443  0.40804334  0.79165644  1
  Rh  Rh249  1  0.00283868  0.60851299  0.20289789  1
