# generated using pymatgen
data_ZrScNbPdRh
_symmetry_space_group_name_H-M   'P 1'
_cell_length_a   16.55472744
_cell_length_b   16.55652028
_cell_length_c   16.55697123
_cell_angle_alpha   90.04774190
_cell_angle_beta   90.01936013
_cell_angle_gamma   89.97765215
_symmetry_Int_Tables_number   1
_chemical_formula_structural   ZrScNbPdRh
_chemical_formula_sum   'Zr50 Sc50 Nb50 Pd50 Rh50'
_cell_volume   4538.07622054
_cell_formula_units_Z   50
loop_
 _symmetry_equiv_pos_site_id
 _symmetry_equiv_pos_as_xyz
  1  'x, y, z'
loop_
 _atom_site_type_symbol
 _atom_site_label
 _atom_site_symmetry_multiplicity
 _atom_site_fract_x
 _atom_site_fract_y
 _atom_site_fract_z
 _atom_site_occupancy
  Zr  Zr0  1  0.10031181  0.49671380  0.10592500  1
  Zr  Zr1  1  0.09403184  0.69539723  0.09604814  1
  Zr  Zr2  1  0.49876532  0.69863863  0.90043726  1
  Zr  Zr3  1  0.70612559  0.49747872  0.31069263  1
  Zr  Zr4  1  0.49831849  0.50206100  0.90586205  1
  Zr  Zr5  1  0.29085664  0.10357518  0.89942503  1
  Zr  Zr6  1  0.90323221  0.30639462  0.89354470  1
  Zr  Zr7  1  0.30498427  0.90130980  0.09901648  1
  Zr  Zr8  1  0.50342207  0.29906720  0.90029420  1
  Zr  Zr9  1  0.89841145  0.71358796  0.69891914  1
  Zr  Zr10  1  0.29433064  0.09968918  0.69942711  1
  Zr  Zr11  1  0.30097761  0.70341722  0.69694705  1
  Zr  Zr12  1  0.70452131  0.08930933  0.49926096  1
  Zr  Zr13  1  0.29383982  0.28882311  0.30345364  1
  Zr  Zr14  1  0.09274068  0.50665992  0.29826251  1
  Zr  Zr15  1  0.69864777  0.30608536  0.29983002  1
  Zr  Zr16  1  0.50691563  0.88878210  0.69258258  1
  Zr  Zr17  1  0.30071192  0.09687815  0.11047145  1
  Zr  Zr18  1  0.30247580  0.50418376  0.90238855  1
  Zr  Zr19  1  0.50579031  0.89096630  0.30700760  1
  Zr  Zr20  1  0.29831953  0.29315687  0.69565368  1
  Zr  Zr21  1  0.89606756  0.08837210  0.90536651  1
  Zr  Zr22  1  0.49739605  0.09229771  0.10290731  1
  Zr  Zr23  1  0.70280712  0.09097055  0.09883959  1
  Zr  Zr24  1  0.09739803  0.49750186  0.90957448  1
  Zr  Zr25  1  0.29537864  0.89420900  0.69475527  1
  Zr  Zr26  1  0.49744818  0.50244895  0.69667370  1
  Zr  Zr27  1  0.09617326  0.89412377  0.91267723  1
  Zr  Zr28  1  0.08660912  0.30375232  0.69900869  1
  Zr  Zr29  1  0.70395093  0.69315414  0.90443857  1
  Zr  Zr30  1  0.90391496  0.08883755  0.69622344  1
  Zr  Zr31  1  0.10446697  0.10293141  0.69989309  1
  Zr  Zr32  1  0.70454781  0.31067685  0.49233453  1
  Zr  Zr33  1  0.90962472  0.69635927  0.29919983  1
  Zr  Zr34  1  0.29604085  0.88957979  0.29630186  1
  Zr  Zr35  1  0.49965388  0.30065421  0.30015890  1
  Zr  Zr36  1  0.29741092  0.10488142  0.48982012  1
  Zr  Zr37  1  0.50191515  0.49708629  0.09721574  1
  Zr  Zr38  1  0.69987767  0.51097968  0.10558627  1
  Zr  Zr39  1  0.69450750  0.30099308  0.69283746  1
  Zr  Zr40  1  0.50218577  0.90369713  0.10265446  1
  Zr  Zr41  1  0.29556218  0.29863530  0.10011157  1
  Zr  Zr42  1  0.49894525  0.30621980  0.50836008  1
  Zr  Zr43  1  0.10251092  0.30076880  0.49922393  1
  Zr  Zr44  1  0.70110024  0.89876098  0.11611214  1
  Zr  Zr45  1  0.89643280  0.10093596  0.10761507  1
  Zr  Zr46  1  0.09361012  0.89726008  0.30129534  1
  Zr  Zr47  1  0.90303895  0.29475904  0.49683016  1
  Zr  Zr48  1  0.30330176  0.50988931  0.69604532  1
  Zr  Zr49  1  0.09962964  0.09093978  0.09924079  1
  Sc  Sc50  1  0.50386677  0.12295120  0.69797078  1
  Sc  Sc51  1  0.90647773  0.50190808  0.10306452  1
  Sc  Sc52  1  0.49580114  0.50269561  0.51212002  1
  Sc  Sc53  1  0.90270213  0.89452342  0.30217927  1
  Sc  Sc54  1  0.90704442  0.70320598  0.50240584  1
  Sc  Sc55  1  0.47670206  0.10172531  0.29886704  1
  Sc  Sc56  1  0.49524405  0.70157474  0.69742306  1
  Sc  Sc57  1  0.09997920  0.90381281  0.69645632  1
  Sc  Sc58  1  0.89914591  0.90612087  0.49465002  1
  Sc  Sc59  1  0.50140220  0.30433917  0.09901010  1
  Sc  Sc60  1  0.90329517  0.89690470  0.89430553  1
  Sc  Sc61  1  0.10142360  0.29655778  0.90173959  1
  Sc  Sc62  1  0.09958762  0.89623411  0.49477660  1
  Sc  Sc63  1  0.30118519  0.70216615  0.90302584  1
  Sc  Sc64  1  0.70591060  0.29332613  0.09480079  1
  Sc  Sc65  1  0.09531272  0.09779522  0.49439439  1
  Sc  Sc66  1  0.91026851  0.90505121  0.09883121  1
  Sc  Sc67  1  0.29029275  0.50070513  0.09320116  1
  Sc  Sc68  1  0.70422937  0.90682841  0.90189875  1
  Sc  Sc69  1  0.90838324  0.09886717  0.30482500  1
  Sc  Sc70  1  0.27487206  0.49687647  0.29633717  1
  Sc  Sc71  1  0.69870716  0.10187739  0.90658092  1
  Sc  Sc72  1  0.50614518  0.10137877  0.90243805  1
  Sc  Sc73  1  0.29376615  0.70225500  0.50229825  1
  Sc  Sc74  1  0.49655396  0.09868446  0.49269374  1
  Sc  Sc75  1  0.89867031  0.28893949  0.30355546  1
  Sc  Sc76  1  0.10429187  0.09508870  0.89825976  1
  Sc  Sc77  1  0.70973800  0.70003830  0.50326380  1
  Sc  Sc78  1  0.90375093  0.30060516  0.10646693  1
  Sc  Sc79  1  0.29743148  0.89696391  0.49678747  1
  Sc  Sc80  1  0.70678956  0.49581249  0.91051963  1
  Sc  Sc81  1  0.70499387  0.90465749  0.68439374  1
  Sc  Sc82  1  0.50078222  0.89799469  0.90513265  1
  Sc  Sc83  1  0.71021305  0.70676393  0.29060373  1
  Sc  Sc84  1  0.69802714  0.71105657  0.69445906  1
  Sc  Sc85  1  0.29151477  0.50213951  0.50603223  1
  Sc  Sc86  1  0.10351609  0.89807208  0.10302683  1
  Sc  Sc87  1  0.71668437  0.09629015  0.29847495  1
  Sc  Sc88  1  0.50501864  0.69562980  0.10321676  1
  Sc  Sc89  1  0.89931067  0.49457372  0.90416948  1
  Sc  Sc90  1  0.29969775  0.89396879  0.90331266  1
  Sc  Sc91  1  0.29605467  0.70602949  0.10515597  1
  Sc  Sc92  1  0.51963293  0.49082475  0.29329324  1
  Sc  Sc93  1  0.29410115  0.30104423  0.49737415  1
  Sc  Sc94  1  0.29144819  0.29923685  0.90355412  1
  Sc  Sc95  1  0.09904529  0.30513151  0.09984053  1
  Sc  Sc96  1  0.09744213  0.70700171  0.68415031  1
  Sc  Sc97  1  0.49686971  0.71102018  0.50454234  1
  Sc  Sc98  1  0.90486308  0.48857372  0.70054174  1
  Sc  Sc99  1  0.89382882  0.50926365  0.49713198  1
  Nb  Nb100  1  0.89920399  0.29362297  0.70084831  1
  Nb  Nb101  1  0.70968252  0.69779313  0.09928216  1
  Nb  Nb102  1  0.68744863  0.90700498  0.48577270  1
  Nb  Nb103  1  0.09329018  0.69838487  0.90187846  1
  Nb  Nb104  1  0.90272283  0.49867046  0.29900145  1
  Nb  Nb105  1  0.29937804  0.69729469  0.29886054  1
  Nb  Nb106  1  0.70284388  0.10310614  0.69896654  1
  Nb  Nb107  1  0.10113181  0.30883414  0.30399242  1
  Nb  Nb108  1  0.09368998  0.68915733  0.49524142  1
  Nb  Nb109  1  0.88938100  0.69840072  0.10246870  1
  Nb  Nb110  1  0.50958223  0.90298799  0.50080018  1
  Nb  Nb111  1  0.89822976  0.90201726  0.69797838  1
  Nb  Nb112  1  0.09901871  0.50507562  0.69575349  1
  Nb  Nb113  1  0.09533421  0.50700729  0.50632159  1
  Nb  Nb114  1  0.10634546  0.69728387  0.29888820  1
  Nb  Nb115  1  0.90315340  0.70239781  0.90063127  1
  Nb  Nb116  1  0.89841054  0.10180338  0.49222721  1
  Nb  Nb117  1  0.10233029  0.10342198  0.29995218  1
  Nb  Nb118  1  0.70206149  0.89856724  0.31020452  1
  Nb  Nb119  1  0.70243343  0.29759310  0.89349302  1
  Nb  Nb120  1  0.49478389  0.69615684  0.30661070  1
  Nb  Nb121  1  0.29684840  0.10110390  0.29810651  1
  Nb  Nb122  1  0.69968436  0.50391041  0.69366728  1
  Nb  Nb123  1  0.69823442  0.50128749  0.50353076  1
  Nb  Nb124  1  0.49894770  0.30727180  0.70069926  1
  Nb  Nb125  1  0.80158784  0.20160217  0.79419519  1
  Nb  Nb126  1  0.40314013  -0.00170690  0.60263562  1
  Nb  Nb127  1  0.60057188  0.19547145  0.20395921  1
  Nb  Nb128  1  0.40045708  0.39769906  0.79751645  1
  Nb  Nb129  1  0.60059819  0.40177810  0.79665478  1
  Nb  Nb130  1  0.40448248  0.00084139  0.79045244  1
  Nb  Nb131  1  0.39799005  0.59488974  0.21149118  1
  Nb  Nb132  1  -0.00000054  0.60521101  0.80021472  1
  Nb  Nb133  1  0.80120413  0.40458701  0.20603741  1
  Nb  Nb134  1  0.61005701  0.79670203  0.00714217  1
  Nb  Nb135  1  0.80408865  0.19627711  0.60161894  1
  Nb  Nb136  1  0.39379004  0.40411580  0.20469627  1
  Nb  Nb137  1  0.60713793  0.59377251  0.79697523  1
  Nb  Nb138  1  -0.00262452  0.19349028  0.00098430  1
  Nb  Nb139  1  0.39650910  0.40817281  0.39353487  1
  Nb  Nb140  1  0.59926043  0.60068696  0.40251530  1
  Nb  Nb141  1  0.80300802  0.60111215  0.79649823  1
  Nb  Nb142  1  0.59840838  0.00390691  0.79138055  1
  Nb  Nb143  1  0.19938623  0.40810831  0.79371641  1
  Nb  Nb144  1  0.18851590  0.60185625  0.79937086  1
  Nb  Nb145  1  0.00411153  0.40456289  0.39959187  1
  Nb  Nb146  1  0.80185530  0.79495934  0.00515738  1
  Nb  Nb147  1  0.39734069  0.19632515  0.00351483  1
  Nb  Nb148  1  0.60129598  0.20152337  0.39528067  1
  Nb  Nb149  1  0.40111277  0.59650847  0.39090027  1
  Pd  Pd150  1  0.59609833  0.19919358  0.00831475  1
  Pd  Pd151  1  0.00021127  0.79769413  0.19478944  1
  Pd  Pd152  1  0.59928393  0.79170893  0.20078002  1
  Pd  Pd153  1  0.80372021  0.79952257  0.40295291  1
  Pd  Pd154  1  0.59076227  0.01017233  0.60655986  1
  Pd  Pd155  1  -0.00813964  0.40601937  0.58969411  1
  Pd  Pd156  1  0.59778648  0.61042964  0.59786078  1
  Pd  Pd157  1  -0.00183746  0.19234089  0.59554172  1
  Pd  Pd158  1  0.19821866  -0.00567428  0.20598121  1
  Pd  Pd159  1  0.00072783  0.81042001  0.59353599  1
  Pd  Pd160  1  0.20118084  0.79559347  0.00325810  1
  Pd  Pd161  1  0.60013934  0.60881770  0.20950112  1
  Pd  Pd162  1  0.19300988  0.79282410  0.40289890  1
  Pd  Pd163  1  0.00178025  -0.00393007  0.59154323  1
  Pd  Pd164  1  0.39662728  -0.01087043  0.40178411  1
  Pd  Pd165  1  0.39772101  0.79826957  0.40651028  1
  Pd  Pd166  1  0.60632829  0.19737346  0.58580846  1
  Pd  Pd167  1  0.61042503  0.39716280  -0.00094181  1
  Pd  Pd168  1  0.79373041  0.80145447  0.80452046  1
  Pd  Pd169  1  0.60779205  0.78613787  0.40253052  1
  Pd  Pd170  1  0.79888839  0.60740278  0.39796222  1
  Pd  Pd171  1  0.79154482  0.00195737  0.79744272  1
  Pd  Pd172  1  0.60853592  0.80291837  0.80774084  1
  Pd  Pd173  1  0.39669352  0.00517501  -0.01286729  1
  Pd  Pd174  1  0.18820424  0.20265303  0.19902351  1
  Pd  Pd175  1  0.59429374  0.01427863  0.38662155  1
  Pd  Pd176  1  -0.00364556  0.19118668  0.80975409  1
  Pd  Pd177  1  0.81073310  -0.00788674  0.20775928  1
  Pd  Pd178  1  0.59645887  0.00875346  0.21586513  1
  Pd  Pd179  1  0.00659090  0.20232963  0.19880455  1
  Pd  Pd180  1  0.39749435  0.19586564  0.59233359  1
  Pd  Pd181  1  0.39421643  0.60884738  0.01414691  1
  Pd  Pd182  1  0.20303574  0.60000204  0.40410248  1
  Pd  Pd183  1  0.79788616  0.81336247  0.58680912  1
  Pd  Pd184  1  0.00736115  0.80124430  0.79552485  1
  Pd  Pd185  1  0.20188043  -0.01149366  0.80622105  1
  Pd  Pd186  1  0.40607809  0.79438274  0.19664233  1
  Pd  Pd187  1  0.80713434  0.39812459  0.59803248  1
  Pd  Pd188  1  0.19827301  -0.00049559  0.39436627  1
  Pd  Pd189  1  0.80830052  0.60093634  0.60884277  1
  Pd  Pd190  1  0.80382857  0.39782204  0.01183053  1
  Pd  Pd191  1  0.80880224  0.20447938  -0.00689419  1
  Pd  Pd192  1  -0.00799975  0.59781017  -0.00020668  1
  Pd  Pd193  1  0.39931882  0.20050066  0.80819473  1
  Pd  Pd194  1  0.19065769  0.79460028  0.80044239  1
  Pd  Pd195  1  0.20265467  0.00079850  0.58999434  1
  Pd  Pd196  1  0.00640448  -0.00582337  0.80177277  1
  Pd  Pd197  1  0.20082813  0.40059275  0.60388955  1
  Pd  Pd198  1  0.79271962  0.40264015  0.79432388  1
  Pd  Pd199  1  0.40050138  0.80584188  0.80262547  1
  Rh  Rh200  1  -0.00667080  0.39401304  0.21067788  1
  Rh  Rh201  1  0.19654559  0.19283120  0.00810508  1
  Rh  Rh202  1  0.19360682  0.19812790  0.59649825  1
  Rh  Rh203  1  0.20416348  -0.00461552  0.00010349  1
  Rh  Rh204  1  0.79998599  -0.01246497  0.00673634  1
  Rh  Rh205  1  0.20060734  0.60727169  0.19411455  1
  Rh  Rh206  1  0.60310469  0.40557397  0.60111173  1
  Rh  Rh207  1  0.19300384  0.79624197  0.19941419  1
  Rh  Rh208  1  0.79413617  0.20640211  0.20251831  1
  Rh  Rh209  1  -0.00119849  0.59773579  0.40127318  1
  Rh  Rh210  1  0.20041578  0.39458812  0.19834575  1
  Rh  Rh211  1  0.39848665  0.80802140  0.59306336  1
  Rh  Rh212  1  0.00217165  -0.00042225  0.20779364  1
  Rh  Rh213  1  0.80436417  -0.00108671  0.59472593  1
  Rh  Rh214  1  0.40552159  0.20895669  0.19004620  1
  Rh  Rh215  1  0.39897464  -0.01417444  0.21409690  1
  Rh  Rh216  1  0.60931645  0.20143507  0.80110584  1
  Rh  Rh217  1  -0.00193415  0.39003755  0.00176123  1
  Rh  Rh218  1  0.19699914  0.60722783  0.60201023  1
  Rh  Rh219  1  0.58861002  0.40758678  0.41661464  1
  Rh  Rh220  1  0.19269027  0.19556977  0.39881313  1
  Rh  Rh221  1  0.80447381  0.59359218  0.20625493  1
  Rh  Rh222  1  -0.00135887  0.60417502  0.19636109  1
  Rh  Rh223  1  -0.00757706  0.59966838  0.60641893  1
  Rh  Rh224  1  0.80574527  -0.00539466  0.39612201  1
  Rh  Rh225  1  0.19314631  0.79784268  0.59191685  1
  Rh  Rh226  1  -0.00810938  0.79778050  0.00582830  1
  Rh  Rh227  1  0.39718033  0.60913972  0.59014207  1
  Rh  Rh228  1  0.00415901  0.79304665  0.40154619  1
  Rh  Rh229  1  0.20143919  0.60682412  -0.00256190  1
  Rh  Rh230  1  0.81549436  0.40311706  0.39813029  1
  Rh  Rh231  1  0.19336980  0.40666348  0.40572154  1
  Rh  Rh232  1  0.60795511  0.79867238  0.58784741  1
  Rh  Rh233  1  0.80845553  0.80536284  0.19946227  1
  Rh  Rh234  1  0.40935970  0.79636703  0.00673765  1
  Rh  Rh235  1  0.40129461  0.60022226  0.80013498  1
  Rh  Rh236  1  0.00130953  0.00158300  0.39715373  1
  Rh  Rh237  1  0.81107063  0.60143389  -0.00516947  1
  Rh  Rh238  1  0.00893425  0.20321569  0.39520237  1
  Rh  Rh239  1  0.79293427  0.19483818  0.40588029  1
  Rh  Rh240  1  0.59878900  0.60487699  -0.00324362  1
  Rh  Rh241  1  0.00893130  0.40841889  0.80111358  1
  Rh  Rh242  1  0.40241499  0.21187687  0.40611912  1
  Rh  Rh243  1  0.19094030  0.21165422  0.79417330  1
  Rh  Rh244  1  0.39170569  0.38948760  0.00053010  1
  Rh  Rh245  1  0.61100546  0.39123054  0.18473811  1
  Rh  Rh246  1  0.38947075  0.39728086  0.59923490  1
  Rh  Rh247  1  0.00085237  0.00171993  -0.00031520  1
  Rh  Rh248  1  0.19793523  0.40008710  -0.00421344  1
  Rh  Rh249  1  0.60382834  -0.00865398  -0.00623872  1
