# generated using pymatgen
data_ZrScNbPdRh
_symmetry_space_group_name_H-M   'P 1'
_cell_length_a   16.55661789
_cell_length_b   16.55399994
_cell_length_c   16.55752832
_cell_angle_alpha   90.01303007
_cell_angle_beta   90.04451711
_cell_angle_gamma   89.98946600
_symmetry_Int_Tables_number   1
_chemical_formula_structural   ZrScNbPdRh
_chemical_formula_sum   'Zr50 Sc50 Nb50 Pd50 Rh50'
_cell_volume   4538.05684782
_cell_formula_units_Z   50
loop_
 _symmetry_equiv_pos_site_id
 _symmetry_equiv_pos_as_xyz
  1  'x, y, z'
loop_
 _atom_site_type_symbol
 _atom_site_label
 _atom_site_symmetry_multiplicity
 _atom_site_fract_x
 _atom_site_fract_y
 _atom_site_fract_z
 _atom_site_occupancy
  Zr  Zr0  1  0.29542863  0.10497838  0.71355278  1
  Zr  Zr1  1  0.70831603  0.70324096  0.70011444  1
  Zr  Zr2  1  0.89692776  0.68529111  0.90220666  1
  Zr  Zr3  1  0.90283354  0.29786232  0.09128299  1
  Zr  Zr4  1  0.90371979  0.70357305  0.10287302  1
  Zr  Zr5  1  0.70774405  0.30004378  0.89739812  1
  Zr  Zr6  1  0.70141521  0.49900547  0.30941176  1
  Zr  Zr7  1  0.09480163  0.70848899  0.50106260  1
  Zr  Zr8  1  0.09660856  0.10823784  0.50744797  1
  Zr  Zr9  1  0.50013225  0.29500110  0.29462726  1
  Zr  Zr10  1  0.50357210  0.09860103  0.50243161  1
  Zr  Zr11  1  0.70202690  0.10124862  0.49036490  1
  Zr  Zr12  1  0.09529624  0.69861426  0.29414275  1
  Zr  Zr13  1  0.50773691  0.29644241  0.70311203  1
  Zr  Zr14  1  0.90335938  0.90440520  0.09173752  1
  Zr  Zr15  1  0.69729815  0.90666353  0.30064161  1
  Zr  Zr16  1  0.48986630  0.70470297  0.10546045  1
  Zr  Zr17  1  0.90378381  0.29680171  0.90193684  1
  Zr  Zr18  1  0.30185336  0.29146200  0.30022167  1
  Zr  Zr19  1  0.30389139  0.50038430  0.09355633  1
  Zr  Zr20  1  0.50325229  0.49475182  0.50416553  1
  Zr  Zr21  1  0.89810929  0.30083041  0.50179813  1
  Zr  Zr22  1  0.29790666  0.09708915  0.09946753  1
  Zr  Zr23  1  0.49208180  0.70581432  0.49991957  1
  Zr  Zr24  1  0.89659728  0.49231631  0.89549124  1
  Zr  Zr25  1  0.90945391  0.89307298  0.50973095  1
  Zr  Zr26  1  0.10248911  0.70626940  0.09446150  1
  Zr  Zr27  1  0.09847750  0.29006335  0.69382809  1
  Zr  Zr28  1  0.10312919  0.89917089  0.49801091  1
  Zr  Zr29  1  0.89641560  0.49566622  0.50102340  1
  Zr  Zr30  1  0.89862024  0.09717076  0.90158571  1
  Zr  Zr31  1  0.49414853  0.29778292  0.50090171  1
  Zr  Zr32  1  0.50089587  0.90695813  0.90038820  1
  Zr  Zr33  1  0.29728755  0.48897983  0.50413497  1
  Zr  Zr34  1  0.51155957  0.09491031  0.29927410  1
  Zr  Zr35  1  0.69490890  0.29862029  0.10385032  1
  Zr  Zr36  1  0.30086669  0.09415680  0.48416806  1
  Zr  Zr37  1  0.50290043  0.49541709  0.29973984  1
  Zr  Zr38  1  0.50232574  0.49405364  0.70377339  1
  Zr  Zr39  1  0.30259855  0.88503650  0.50412806  1
  Zr  Zr40  1  0.70043534  0.90252201  0.70260862  1
  Zr  Zr41  1  0.30211010  0.90896614  0.30574794  1
  Zr  Zr42  1  0.69796149  0.90167312  0.90147033  1
  Zr  Zr43  1  0.50103866  0.90758373  0.69457822  1
  Zr  Zr44  1  0.09139768  0.50558234  0.88527052  1
  Zr  Zr45  1  0.11661200  0.09697984  0.29843350  1
  Zr  Zr46  1  0.09699291  0.29748321  0.09012537  1
  Zr  Zr47  1  0.29859222  0.90482086  0.70183434  1
  Zr  Zr48  1  0.70020500  0.69632701  0.30180405  1
  Zr  Zr49  1  0.90396846  0.89370977  0.29733492  1
  Sc  Sc50  1  0.28599355  0.71406938  0.89429932  1
  Sc  Sc51  1  0.70856220  0.91370108  0.50567120  1
  Sc  Sc52  1  0.70100874  0.50095626  0.50160281  1
  Sc  Sc53  1  0.29554635  0.48834256  0.89215541  1
  Sc  Sc54  1  0.90171651  0.50035958  0.08992812  1
  Sc  Sc55  1  0.70525948  0.29937937  0.50899635  1
  Sc  Sc56  1  0.90414241  0.49766201  0.70140247  1
  Sc  Sc57  1  0.10388296  0.90613953  0.09834336  1
  Sc  Sc58  1  0.29893250  0.49798955  0.28644033  1
  Sc  Sc59  1  0.09826983  0.48967330  0.69798094  1
  Sc  Sc60  1  0.10559161  0.89698515  0.29841749  1
  Sc  Sc61  1  0.89369997  0.30187188  0.70436616  1
  Sc  Sc62  1  0.10571581  0.10184195  0.89426122  1
  Sc  Sc63  1  0.49991301  0.49365375  0.09804466  1
  Sc  Sc64  1  0.29637091  0.91007265  0.90329583  1
  Sc  Sc65  1  0.31090195  0.10148657  0.29033068  1
  Sc  Sc66  1  0.50018980  0.30470981  0.89568682  1
  Sc  Sc67  1  0.49886683  0.10031607  0.10727993  1
  Sc  Sc68  1  0.51142143  0.71373828  0.91196774  1
  Sc  Sc69  1  0.49713081  0.69919943  0.29465904  1
  Sc  Sc70  1  0.50456217  0.30227949  0.10054013  1
  Sc  Sc71  1  0.09710438  0.69449023  0.70634249  1
  Sc  Sc72  1  0.69464340  0.09875316  0.69398528  1
  Sc  Sc73  1  0.30238811  0.29387503  0.50218483  1
  Sc  Sc74  1  0.49640861  0.89989297  0.29542096  1
  Sc  Sc75  1  0.10142076  0.49656075  0.10676446  1
  Sc  Sc76  1  0.49753235  0.10171320  0.89323259  1
  Sc  Sc77  1  0.91300553  0.09750904  0.70036201  1
  Sc  Sc78  1  0.69306271  0.70090323  0.10013439  1
  Sc  Sc79  1  0.69924527  0.49031391  0.69726298  1
  Sc  Sc80  1  0.89274043  0.10037527  0.50628793  1
  Sc  Sc81  1  0.09018990  0.90112448  0.69718659  1
  Sc  Sc82  1  0.49985169  0.10242548  0.70493182  1
  Sc  Sc83  1  0.29779134  0.30630911  0.09526511  1
  Sc  Sc84  1  0.30422784  0.70376194  0.28776630  1
  Sc  Sc85  1  0.29369736  0.71140318  0.69413466  1
  Sc  Sc86  1  0.10523530  0.89579966  0.90833827  1
  Sc  Sc87  1  0.69687554  0.09887325  0.89799769  1
  Sc  Sc88  1  0.29887427  0.09662300  0.89636380  1
  Sc  Sc89  1  0.48926266  0.90519688  0.49594695  1
  Sc  Sc90  1  0.69770272  0.29613431  0.30795869  1
  Sc  Sc91  1  0.29634566  0.30383280  0.70274373  1
  Sc  Sc92  1  0.50099381  0.90213244  0.09765976  1
  Sc  Sc93  1  0.69133919  0.10060047  0.09952875  1
  Sc  Sc94  1  0.69577023  0.49899260  0.09797318  1
  Sc  Sc95  1  0.50609135  0.70098006  0.69841244  1
  Sc  Sc96  1  0.30390340  0.90157073  0.09612699  1
  Sc  Sc97  1  0.89529296  0.90413618  0.69930126  1
  Sc  Sc98  1  0.90949197  0.09787929  0.09138654  1
  Sc  Sc99  1  0.29439927  0.29973461  0.89676584  1
  Nb  Nb100  1  0.10325193  0.09736774  0.69792451  1
  Nb  Nb101  1  0.09335547  0.49648633  0.30549551  1
  Nb  Nb102  1  0.89821124  0.70525029  0.69431306  1
  Nb  Nb103  1  0.09285137  0.30493026  0.30091205  1
  Nb  Nb104  1  0.10340230  0.10031524  0.10241125  1
  Nb  Nb105  1  0.89642151  0.69863896  0.50505344  1
  Nb  Nb106  1  0.90019384  0.10329023  0.30462070  1
  Nb  Nb107  1  0.70602751  0.90342507  0.10051273  1
  Nb  Nb108  1  0.70505816  0.51375853  0.90552847  1
  Nb  Nb109  1  0.29848251  0.69882353  0.50060626  1
  Nb  Nb110  1  0.70446087  0.69766649  0.90334655  1
  Nb  Nb111  1  0.49632135  0.50453693  0.90080428  1
  Nb  Nb112  1  0.09351799  0.70188435  0.90161577  1
  Nb  Nb113  1  0.29658691  0.50426252  0.70006999  1
  Nb  Nb114  1  0.69795325  0.30256259  0.70642729  1
  Nb  Nb115  1  0.70623593  0.09782484  0.30225432  1
  Nb  Nb116  1  0.90223907  0.30303246  0.30264772  1
  Nb  Nb117  1  0.09625996  0.30514841  0.89657553  1
  Nb  Nb118  1  0.89588591  0.90243035  0.90292181  1
  Nb  Nb119  1  0.09616457  0.49698266  0.50089907  1
  Nb  Nb120  1  0.09685837  0.30610582  0.50316229  1
  Nb  Nb121  1  0.90029456  0.49517180  0.30632988  1
  Nb  Nb122  1  0.30126001  0.69407513  0.09706984  1
  Nb  Nb123  1  0.90062166  0.69755269  0.30375997  1
  Nb  Nb124  1  0.70411211  0.69706504  0.50132582  1
  Nb  Nb125  1  0.60605181  0.80095472  0.59244473  1
  Nb  Nb126  1  0.40452293  0.80185343  0.79975012  1
  Nb  Nb127  1  0.79846768  0.80128869  -0.00376665  1
  Nb  Nb128  1  0.39168379  0.59738898  0.40641399  1
  Nb  Nb129  1  0.60246844  0.59996333  0.80961316  1
  Nb  Nb130  1  0.18959779  0.39965058  0.39836520  1
  Nb  Nb131  1  0.80609545  0.59566109  0.20788284  1
  Nb  Nb132  1  0.39358247  0.59721151  0.60326601  1
  Nb  Nb133  1  0.80274449  0.00650522  0.20233537  1
  Nb  Nb134  1  0.80090378  0.79331212  0.40467278  1
  Nb  Nb135  1  -0.00204481  0.59720677  0.40108137  1
  Nb  Nb136  1  0.20098997  0.59710220  0.59348606  1
  Nb  Nb137  1  0.39828302  0.20062504  -0.00035811  1
  Nb  Nb138  1  0.60735535  0.79945639  0.40645724  1
  Nb  Nb139  1  -0.00884117  0.79592701  0.80835032  1
  Nb  Nb140  1  0.20003383  0.00427548  0.60016998  1
  Nb  Nb141  1  0.40177232  0.60493063  0.80249397  1
  Nb  Nb142  1  0.19603292  0.59483313  0.40155849  1
  Nb  Nb143  1  0.80651269  0.39828052  0.20584077  1
  Nb  Nb144  1  0.00096193  0.00648075  0.39811524  1
  Nb  Nb145  1  0.39475585  0.60298576  -0.00939562  1
  Nb  Nb146  1  0.20067578  0.60356373  -0.00449186  1
  Nb  Nb147  1  0.00122551  0.19975147  0.20559487  1
  Nb  Nb148  1  0.00189809  0.20297075  0.39572910  1
  Nb  Nb149  1  0.80677488  0.19818472  0.20589411  1
  Pd  Pd150  1  0.79724915  0.59255069  0.78938877  1
  Pd  Pd151  1  0.40099687  0.39523642  0.19557412  1
  Pd  Pd152  1  0.00871828  0.59297804  0.00324236  1
  Pd  Pd153  1  0.00196510  0.20017891  0.80132988  1
  Pd  Pd154  1  0.01198814  0.00388159  -0.00980069  1
  Pd  Pd155  1  0.60151231  0.39931797  -0.00875455  1
  Pd  Pd156  1  0.79914054  0.00891484  0.79541467  1
  Pd  Pd157  1  0.58876904  0.60576489  0.40341359  1
  Pd  Pd158  1  0.19005647  0.80829620  0.79497689  1
  Pd  Pd159  1  0.80733349  0.80063642  0.80706018  1
  Pd  Pd160  1  0.79488869  0.40113594  0.00499264  1
  Pd  Pd161  1  0.20379366  0.19684637  -0.00707382  1
  Pd  Pd162  1  0.00560013  -0.00921512  0.80781448  1
  Pd  Pd163  1  -0.00557115  0.59340108  0.20259005  1
  Pd  Pd164  1  0.60929317  0.40751174  0.81200206  1
  Pd  Pd165  1  0.60393318  0.20075182  0.60014087  1
  Pd  Pd166  1  0.79951857  0.59161147  0.60690749  1
  Pd  Pd167  1  -0.00547978  0.39837335  0.19285646  1
  Pd  Pd168  1  0.59782203  0.79599524  0.79564697  1
  Pd  Pd169  1  0.60436631  0.39074342  0.40760757  1
  Pd  Pd170  1  0.00417119  0.60002153  0.60064170  1
  Pd  Pd171  1  0.59923155  0.20335924  0.40218026  1
  Pd  Pd172  1  0.39947419  0.39697839  0.60994419  1
  Pd  Pd173  1  0.20549169  0.79138746  0.39112689  1
  Pd  Pd174  1  0.19482588  0.20890013  0.40295284  1
  Pd  Pd175  1  0.59929678  0.60368405  0.60553448  1
  Pd  Pd176  1  0.19816046  0.39306977  0.20337224  1
  Pd  Pd177  1  0.20443673  0.60237223  0.79863245  1
  Pd  Pd178  1  0.39160726  0.40293556  0.39286574  1
  Pd  Pd179  1  0.39161183  0.79857873  -0.00833342  1
  Pd  Pd180  1  0.39375033  0.19416071  0.60492606  1
  Pd  Pd181  1  0.00612129  0.80579529  0.19567892  1
  Pd  Pd182  1  0.81230040  -0.00888842  0.39943432  1
  Pd  Pd183  1  0.80151949  0.19696355  0.61033855  1
  Pd  Pd184  1  -0.00026443  0.00670968  0.20475176  1
  Pd  Pd185  1  0.59521940  0.00429895  0.00346746  1
  Pd  Pd186  1  0.39052003  0.01141463  0.60220598  1
  Pd  Pd187  1  0.20675545  0.80705762  0.19557323  1
  Pd  Pd188  1  0.59800452  0.80605731  0.20187437  1
  Pd  Pd189  1  0.79627765  0.19065604  0.00762351  1
  Pd  Pd190  1  0.19139029  0.40917452  -0.00766898  1
  Pd  Pd191  1  0.79826685  0.19135402  0.79207036  1
  Pd  Pd192  1  0.59050325  0.20022506  -0.00611643  1
  Pd  Pd193  1  0.60141973  0.59472423  0.19550723  1
  Pd  Pd194  1  0.59076390  0.60146028  0.00200162  1
  Pd  Pd195  1  0.79761961  0.80005258  0.19829701  1
  Pd  Pd196  1  0.39785651  0.39871453  0.79781539  1
  Pd  Pd197  1  0.19808422  0.59848828  0.19837546  1
  Pd  Pd198  1  0.19708058  0.20865391  0.19489880  1
  Pd  Pd199  1  0.21040493  0.19601890  0.59801207  1
  Rh  Rh200  1  0.60558889  0.20138239  0.80115649  1
  Rh  Rh201  1  0.40087844  0.20518521  0.18960391  1
  Rh  Rh202  1  0.79496421  0.39488878  0.40067777  1
  Rh  Rh203  1  0.00579289  0.40736358  -0.00637000  1
  Rh  Rh204  1  0.20435244  0.79763531  0.00419207  1
  Rh  Rh205  1  0.60715406  0.19863832  0.20425381  1
  Rh  Rh206  1  0.19649206  0.39925284  0.59985286  1
  Rh  Rh207  1  0.40686563  0.00342700  0.39482628  1
  Rh  Rh208  1  -0.00420309  0.39492123  0.60399766  1
  Rh  Rh209  1  -0.00015961  0.39020492  0.79575050  1
  Rh  Rh210  1  0.60853431  0.40146156  0.20403169  1
  Rh  Rh211  1  0.19087902  0.80103048  0.60491787  1
  Rh  Rh212  1  0.60301874  0.39113420  0.59707153  1
  Rh  Rh213  1  0.40151777  -0.00313956  0.19749662  1
  Rh  Rh214  1  0.60700962  -0.00158492  0.19627067  1
  Rh  Rh215  1  0.40146697  -0.00586211  0.80159006  1
  Rh  Rh216  1  0.19250382  0.39484384  0.79411550  1
  Rh  Rh217  1  0.19334654  0.20596143  0.80319304  1
  Rh  Rh218  1  0.80877034  0.60305761  0.40064631  1
  Rh  Rh219  1  0.39862311  0.20609971  0.80697147  1
  Rh  Rh220  1  0.00477979  0.00251586  0.59402813  1
  Rh  Rh221  1  0.79721874  0.60747954  0.01682470  1
  Rh  Rh222  1  0.79467976  0.80485739  0.59393924  1
  Rh  Rh223  1  0.19585914  -0.00385400  0.40621532  1
  Rh  Rh224  1  0.79546596  0.40295157  0.80214387  1
  Rh  Rh225  1  0.39537568  0.80696051  0.19849087  1
  Rh  Rh226  1  0.19184512  -0.00462553  0.79405909  1
  Rh  Rh227  1  0.40794479  0.19416131  0.39562831  1
  Rh  Rh228  1  -0.00674132  0.79809382  0.39948148  1
  Rh  Rh229  1  -0.00921459  0.80127105  -0.00704505  1
  Rh  Rh230  1  0.00207881  0.79481921  0.61270621  1
  Rh  Rh231  1  0.79921893  0.40041869  0.60497219  1
  Rh  Rh232  1  0.20569960  -0.00500347  0.19611777  1
  Rh  Rh233  1  0.00999958  0.19087182  -0.00219909  1
  Rh  Rh234  1  0.40792368  0.79506913  0.61161232  1
  Rh  Rh235  1  0.59574893  -0.00678789  0.40359804  1
  Rh  Rh236  1  0.59991392  -0.00213190  0.59523286  1
  Rh  Rh237  1  0.61031955  0.80635973  0.00769931  1
  Rh  Rh238  1  0.40217132  0.39697596  -0.00309519  1
  Rh  Rh239  1  0.60086434  0.00516846  0.79934010  1
  Rh  Rh240  1  0.19753300  0.00505114  0.00309938  1
  Rh  Rh241  1  -0.00788308  0.60685711  0.79141606  1
  Rh  Rh242  1  0.80404664  0.00558789  0.60555762  1
  Rh  Rh243  1  0.40218857  0.79267369  0.38929620  1
  Rh  Rh244  1  0.40250394  0.01166006  0.00092946  1
  Rh  Rh245  1  -0.00710796  0.20331778  0.59886980  1
  Rh  Rh246  1  0.00077513  0.39916781  0.40761680  1
  Rh  Rh247  1  0.79611813  0.00048313  0.00515797  1
  Rh  Rh248  1  0.40508595  0.59372257  0.19773986  1
  Rh  Rh249  1  0.80334547  0.20661027  0.39884599  1
