# generated using pymatgen
data_ZrScNbPdRh
_symmetry_space_group_name_H-M   'P 1'
_cell_length_a   16.56424205
_cell_length_b   16.55855784
_cell_length_c   16.55757722
_cell_angle_alpha   89.99071415
_cell_angle_beta   90.01586279
_cell_angle_gamma   90.00551540
_symmetry_Int_Tables_number   1
_chemical_formula_structural   ZrScNbPdRh
_chemical_formula_sum   'Zr50 Sc50 Nb50 Pd50 Rh50'
_cell_volume   4541.41136464
_cell_formula_units_Z   50
loop_
 _symmetry_equiv_pos_site_id
 _symmetry_equiv_pos_as_xyz
  1  'x, y, z'
loop_
 _atom_site_type_symbol
 _atom_site_label
 _atom_site_symmetry_multiplicity
 _atom_site_fract_x
 _atom_site_fract_y
 _atom_site_fract_z
 _atom_site_occupancy
  Zr  Zr0  1  0.89912257  0.70629100  0.90305341  1
  Zr  Zr1  1  0.10369997  0.30826501  0.49415117  1
  Zr  Zr2  1  0.90067578  0.30206524  0.09900637  1
  Zr  Zr3  1  0.29538781  0.50843759  0.29774515  1
  Zr  Zr4  1  0.49839789  0.29527158  0.09834871  1
  Zr  Zr5  1  0.69934187  0.68636049  0.29934352  1
  Zr  Zr6  1  0.49762569  0.49665190  0.50122270  1
  Zr  Zr7  1  0.29514696  0.49717548  0.70370859  1
  Zr  Zr8  1  0.30554540  0.90254665  0.30217503  1
  Zr  Zr9  1  0.09689624  0.90171853  0.09088465  1
  Zr  Zr10  1  0.09516570  0.50446058  0.50420977  1
  Zr  Zr11  1  0.69349092  0.09799212  0.29389267  1
  Zr  Zr12  1  0.09841895  0.50079793  0.89340005  1
  Zr  Zr13  1  0.69813120  0.09973480  0.10341921  1
  Zr  Zr14  1  0.70053051  0.10398702  0.90041934  1
  Zr  Zr15  1  0.30432766  0.69672795  0.10839292  1
  Zr  Zr16  1  0.50040369  0.10370174  0.70379264  1
  Zr  Zr17  1  0.50278193  0.09999406  0.49441587  1
  Zr  Zr18  1  0.09006729  0.50170671  0.09954306  1
  Zr  Zr19  1  0.29578836  0.30277510  0.50850556  1
  Zr  Zr20  1  0.30792425  0.69468400  0.90711575  1
  Zr  Zr21  1  0.89865505  0.89328827  0.09426346  1
  Zr  Zr22  1  0.91477247  0.50393006  0.70103414  1
  Zr  Zr23  1  0.70482258  0.30286674  0.29846068  1
  Zr  Zr24  1  0.29721670  0.10250893  0.70121656  1
  Zr  Zr25  1  0.29768033  0.49131504  0.89793686  1
  Zr  Zr26  1  0.09626153  0.69177638  0.30802951  1
  Zr  Zr27  1  0.69339658  0.30030377  0.70207490  1
  Zr  Zr28  1  0.70004609  0.69858668  0.69914723  1
  Zr  Zr29  1  0.30766648  0.31134673  0.09527610  1
  Zr  Zr30  1  0.30357468  0.09259137  0.50318210  1
  Zr  Zr31  1  0.49416181  0.49229692  0.70266131  1
  Zr  Zr32  1  0.69991783  0.69287967  0.89543074  1
  Zr  Zr33  1  0.49559939  0.68942529  0.09798233  1
  Zr  Zr34  1  0.29986047  0.69851010  0.49704929  1
  Zr  Zr35  1  0.89923261  0.89596192  0.48658096  1
  Zr  Zr36  1  0.28691724  0.29847196  0.89922902  1
  Zr  Zr37  1  0.70381173  0.70124473  0.49786305  1
  Zr  Zr38  1  0.50646516  0.30545087  0.50563960  1
  Zr  Zr39  1  0.50442601  0.09448273  0.29268712  1
  Zr  Zr40  1  0.30630442  0.90035553  0.09924966  1
  Zr  Zr41  1  0.49804383  0.89877187  0.69922351  1
  Zr  Zr42  1  0.29156885  0.30006262  0.30115179  1
  Zr  Zr43  1  0.70786357  0.30486284  0.89612182  1
  Zr  Zr44  1  0.49856508  0.89978654  0.49545778  1
  Zr  Zr45  1  0.11128898  0.10224549  0.29963963  1
  Zr  Zr46  1  0.10503795  0.29448646  0.09260227  1
  Zr  Zr47  1  0.50732460  0.69270675  0.71092006  1
  Zr  Zr48  1  0.90153058  0.31247349  0.29562225  1
  Zr  Zr49  1  0.49254697  0.49568203  0.10405689  1
  Sc  Sc50  1  0.09888257  0.88858009  0.70454886  1
  Sc  Sc51  1  0.69511784  0.50216660  0.48760163  1
  Sc  Sc52  1  0.09118863  0.69492128  0.09146830  1
  Sc  Sc53  1  0.48977511  0.30674765  0.90070466  1
  Sc  Sc54  1  0.49728295  0.91173778  0.10336247  1
  Sc  Sc55  1  0.29709216  0.30342431  0.70555860  1
  Sc  Sc56  1  0.49136138  0.69842766  0.30710958  1
  Sc  Sc57  1  0.49508753  0.30135772  0.29225148  1
  Sc  Sc58  1  0.89394468  0.30355094  0.89793768  1
  Sc  Sc59  1  0.31219526  0.09827971  0.09906226  1
  Sc  Sc60  1  0.70149909  0.89038474  0.89787383  1
  Sc  Sc61  1  0.89985718  0.69952684  0.49990391  1
  Sc  Sc62  1  0.30075693  0.50456125  0.09616660  1
  Sc  Sc63  1  0.88653217  0.09527576  0.30234961  1
  Sc  Sc64  1  0.09549472  0.69947232  0.89522509  1
  Sc  Sc65  1  0.70814277  0.29479024  0.09672079  1
  Sc  Sc66  1  0.50381739  0.50255699  0.30356410  1
  Sc  Sc67  1  0.10632192  0.29642153  0.69389013  1
  Sc  Sc68  1  0.90440412  0.29882674  0.70408911  1
  Sc  Sc69  1  0.89512175  0.69804720  0.09700595  1
  Sc  Sc70  1  0.29824892  0.90591000  0.69992963  1
  Sc  Sc71  1  0.50580428  0.70252882  0.49577712  1
  Sc  Sc72  1  0.90995703  0.10154972  0.90222824  1
  Sc  Sc73  1  0.30511781  0.10016514  0.30635544  1
  Sc  Sc74  1  0.08815550  0.49829119  0.30675732  1
  Sc  Sc75  1  0.70689759  0.90079001  0.30128894  1
  Sc  Sc76  1  0.90924875  0.29987478  0.50304443  1
  Sc  Sc77  1  0.69773973  0.50655247  0.70876018  1
  Sc  Sc78  1  0.69469932  0.30235330  0.49619531  1
  Sc  Sc79  1  0.69689090  0.88967379  0.70128615  1
  Sc  Sc80  1  0.50569366  0.90058049  0.30386568  1
  Sc  Sc81  1  0.90878715  0.10145713  0.50347979  1
  Sc  Sc82  1  0.70778646  0.89795596  0.10589586  1
  Sc  Sc83  1  0.91330611  0.89930278  0.70339414  1
  Sc  Sc84  1  0.50200049  0.90481125  0.90214998  1
  Sc  Sc85  1  0.89696488  0.69852040  0.30937583  1
  Sc  Sc86  1  0.49220231  0.50887410  0.89170701  1
  Sc  Sc87  1  0.09426465  0.90191439  0.50053761  1
  Sc  Sc88  1  0.10364462  0.10239716  0.50584968  1
  Sc  Sc89  1  0.50180738  0.10111985  0.90433188  1
  Sc  Sc90  1  0.69901904  0.89227373  0.49455939  1
  Sc  Sc91  1  0.28679183  0.70471179  0.69684885  1
  Sc  Sc92  1  0.09259824  0.90574407  0.89592864  1
  Sc  Sc93  1  0.28681912  0.49690078  0.50390475  1
  Sc  Sc94  1  0.69636107  0.10897983  0.48979050  1
  Sc  Sc95  1  0.69381511  0.11033549  0.71069821  1
  Sc  Sc96  1  0.09883373  0.09435011  0.69706993  1
  Sc  Sc97  1  0.90042853  0.69937338  0.69946361  1
  Sc  Sc98  1  0.30699112  0.90065565  0.50487590  1
  Sc  Sc99  1  0.09827954  0.90436539  0.31349684  1
  Nb  Nb100  1  0.90226638  0.10274056  0.70156276  1
  Nb  Nb101  1  0.89722133  0.49682318  0.10408051  1
  Nb  Nb102  1  0.70830245  0.49622626  0.90730781  1
  Nb  Nb103  1  0.49905893  0.70108333  0.89828930  1
  Nb  Nb104  1  0.50045108  0.30358751  0.69253699  1
  Nb  Nb105  1  0.29167509  0.09609147  0.88965835  1
  Nb  Nb106  1  0.10081693  0.30003768  0.29430926  1
  Nb  Nb107  1  0.70281204  0.49840787  0.29419572  1
  Nb  Nb108  1  0.90194179  0.89866551  0.89969280  1
  Nb  Nb109  1  0.09850308  0.69689646  0.50187834  1
  Nb  Nb110  1  0.10070476  0.51368393  0.70081631  1
  Nb  Nb111  1  0.90522793  0.49270260  0.49699465  1
  Nb  Nb112  1  0.69893911  0.51400339  0.10432012  1
  Nb  Nb113  1  0.09126663  0.09872942  0.09227826  1
  Nb  Nb114  1  0.51125499  0.10233432  0.10517352  1
  Nb  Nb115  1  0.09229305  0.68920296  0.69300011  1
  Nb  Nb116  1  0.10268288  0.29593298  0.90488059  1
  Nb  Nb117  1  0.89835608  0.49745601  0.90335875  1
  Nb  Nb118  1  0.29761896  0.90077965  0.90108051  1
  Nb  Nb119  1  0.29450779  0.70196575  0.30080161  1
  Nb  Nb120  1  0.89420765  0.49721753  0.29487152  1
  Nb  Nb121  1  0.69568175  0.69374646  0.10017257  1
  Nb  Nb122  1  0.10172492  0.10730466  0.90826604  1
  Nb  Nb123  1  0.90126126  0.89895658  0.29637581  1
  Nb  Nb124  1  0.90367866  0.09627164  0.09767522  1
  Nb  Nb125  1  0.60769898  0.40927429  0.00247097  1
  Nb  Nb126  1  0.80258204  0.40155212  0.60042150  1
  Nb  Nb127  1  -0.00259868  0.40202868  -0.00398858  1
  Nb  Nb128  1  0.60396417  0.00210930  0.59982147  1
  Nb  Nb129  1  0.00247510  0.19390733  0.19802499  1
  Nb  Nb130  1  0.60832462  0.40607334  0.19356296  1
  Nb  Nb131  1  0.59956568  0.79009900  0.00582442  1
  Nb  Nb132  1  0.19448401  0.39953200  0.19849737  1
  Nb  Nb133  1  0.19506381  -0.00176652  0.19472984  1
  Nb  Nb134  1  0.20085365  0.79391005  0.39870638  1
  Nb  Nb135  1  0.79945949  0.20032489  0.60490150  1
  Nb  Nb136  1  0.60128648  0.78988947  0.19422199  1
  Nb  Nb137  1  0.39917374  0.59844648  0.60282430  1
  Nb  Nb138  1  0.00128544  0.80557250  0.20539028  1
  Nb  Nb139  1  0.79758752  0.00592811  0.60711830  1
  Nb  Nb140  1  0.20637958  0.80331651  0.00062952  1
  Nb  Nb141  1  0.40504618  0.20399996  0.60264456  1
  Nb  Nb142  1  0.19471077  0.80111239  0.20158250  1
  Nb  Nb143  1  0.39456598  0.39901651  0.40242561  1
  Nb  Nb144  1  0.80659348  0.00137432  0.79991664  1
  Nb  Nb145  1  0.80562116  -0.00120870  -0.00435426  1
  Nb  Nb146  1  0.00549880  0.20451807  0.38812365  1
  Nb  Nb147  1  0.39737030  0.80017430  0.80592854  1
  Nb  Nb148  1  0.00013795  0.00066974  0.19826713  1
  Nb  Nb149  1  0.00882894  0.19897555  0.80629345  1
  Pd  Pd150  1  0.60982091  -0.01012582  0.00386607  1
  Pd  Pd151  1  0.19374769  -0.00836628  0.60142171  1
  Pd  Pd152  1  0.20278831  0.60776134  0.80192253  1
  Pd  Pd153  1  0.19034265  -0.00045713  0.79874485  1
  Pd  Pd154  1  0.20444199  0.19636402  0.18847965  1
  Pd  Pd155  1  0.60937254  -0.00596946  0.79688846  1
  Pd  Pd156  1  0.40085285  0.20575804  0.79897042  1
  Pd  Pd157  1  0.81098742  0.20461460  0.40849363  1
  Pd  Pd158  1  0.00263148  0.39625275  0.60615739  1
  Pd  Pd159  1  0.58937362  0.21129357  0.81152633  1
  Pd  Pd160  1  0.59797345  0.80243219  0.59723103  1
  Pd  Pd161  1  0.40270203  0.78949204  0.60902033  1
  Pd  Pd162  1  0.40328612  0.20869779  0.40573863  1
  Pd  Pd163  1  -0.00341396  0.79737256  0.59698199  1
  Pd  Pd164  1  0.80074805  0.79005517  0.20483269  1
  Pd  Pd165  1  0.00713257  0.39079961  0.80329201  1
  Pd  Pd166  1  -0.00275686  -0.00354532  0.60046853  1
  Pd  Pd167  1  0.79462682  0.00241526  0.40900166  1
  Pd  Pd168  1  0.39636623  0.19623092  0.20106398  1
  Pd  Pd169  1  -0.01038715  0.60776760  0.20351761  1
  Pd  Pd170  1  0.80744559  0.81011177  0.60368882  1
  Pd  Pd171  1  0.60108132  0.21153932  -0.00522900  1
  Pd  Pd172  1  0.19791160  0.60345361  -0.00095641  1
  Pd  Pd173  1  0.80145061  0.39950801  0.40909331  1
  Pd  Pd174  1  0.20186225  0.79693085  0.80829629  1
  Pd  Pd175  1  0.39540306  0.19236416  -0.00775213  1
  Pd  Pd176  1  0.39664578  0.59336884  0.40635643  1
  Pd  Pd177  1  0.40533486  0.80483331  -0.00327161  1
  Pd  Pd178  1  0.80679190  0.19285440  -0.00415321  1
  Pd  Pd179  1  0.59419692  0.59563214  -0.00902587  1
  Pd  Pd180  1  0.19789797  0.19820584  0.40898043  1
  Pd  Pd181  1  -0.00121682  0.01225257  0.39463561  1
  Pd  Pd182  1  0.20474225  0.00152017  0.00100143  1
  Pd  Pd183  1  0.61423246  0.41119819  0.60135354  1
  Pd  Pd184  1  0.39989746  -0.00346038  0.80507864  1
  Pd  Pd185  1  0.59542389  0.40346409  0.81007802  1
  Pd  Pd186  1  0.21426655  0.18910443  0.00637748  1
  Pd  Pd187  1  0.19503046  0.80383535  0.59184431  1
  Pd  Pd188  1  0.59630372  0.59633768  0.59670794  1
  Pd  Pd189  1  0.59371251  0.20898264  0.38879689  1
  Pd  Pd190  1  0.80559223  0.59957743  0.00162528  1
  Pd  Pd191  1  0.80715586  0.59651987  0.79877960  1
  Pd  Pd192  1  0.80435537  0.40641320  0.78822376  1
  Pd  Pd193  1  0.40784574  0.80048834  0.20611864  1
  Pd  Pd194  1  0.80667355  0.80553085  0.79229351  1
  Pd  Pd195  1  0.40210969  0.00933160  -0.00528363  1
  Pd  Pd196  1  0.80527881  0.58948397  0.59569551  1
  Pd  Pd197  1  0.80611870  0.59183628  0.40345303  1
  Pd  Pd198  1  0.80747410  0.19654942  0.20029061  1
  Pd  Pd199  1  0.19114853  0.59866448  0.19707722  1
  Rh  Rh200  1  0.20219004  0.59996511  0.59959782  1
  Rh  Rh201  1  0.79968202  0.40748527  0.00897287  1
  Rh  Rh202  1  -0.00698813  -0.00238942  -0.00396587  1
  Rh  Rh203  1  0.60388765  0.59294752  0.80743817  1
  Rh  Rh204  1  0.60151482  0.21016132  0.20027316  1
  Rh  Rh205  1  0.00489333  0.79676336  0.39824147  1
  Rh  Rh206  1  0.19177618  0.19504624  0.79894438  1
  Rh  Rh207  1  0.79096673  0.40702730  0.19114532  1
  Rh  Rh208  1  0.39507194  0.40090575  0.59759229  1
  Rh  Rh209  1  -0.00147101  0.20134059  0.60229859  1
  Rh  Rh210  1  -0.00657156  0.20977315  -0.00267261  1
  Rh  Rh211  1  0.59198083  0.80154756  0.80951510  1
  Rh  Rh212  1  0.19013869  0.39917795  0.79536664  1
  Rh  Rh213  1  0.60584526  0.79495042  0.38850672  1
  Rh  Rh214  1  0.41036787  0.00848983  0.60202162  1
  Rh  Rh215  1  0.00613175  0.39456324  0.19148464  1
  Rh  Rh216  1  0.38884873  0.61045013  0.79035706  1
  Rh  Rh217  1  0.20711679  -0.00773402  0.40346286  1
  Rh  Rh218  1  0.40438891  0.40564769  -0.00639540  1
  Rh  Rh219  1  0.80860306  0.59955557  0.19951856  1
  Rh  Rh220  1  0.18991480  0.40694244  0.61018027  1
  Rh  Rh221  1  0.40266078  0.59837141  0.20785476  1
  Rh  Rh222  1  0.19609437  0.60142760  0.40591191  1
  Rh  Rh223  1  0.59397301  0.39669801  0.38503206  1
  Rh  Rh224  1  0.59980418  0.60069698  0.39941051  1
  Rh  Rh225  1  0.78971714  0.80157595  -0.00135137  1
  Rh  Rh226  1  0.60109824  0.19239474  0.60059913  1
  Rh  Rh227  1  0.20047595  0.40783148  0.38946982  1
  Rh  Rh228  1  0.80549714  0.00128417  0.19234542  1
  Rh  Rh229  1  0.39250096  0.40496271  0.21063690  1
  Rh  Rh230  1  0.60422328  -0.01152944  0.19780271  1
  Rh  Rh231  1  0.79786304  0.79766312  0.39465196  1
  Rh  Rh232  1  0.40376218  -0.00182884  0.39709307  1
  Rh  Rh233  1  0.59264832  0.59931444  0.20710472  1
  Rh  Rh234  1  0.40071207  0.00542880  0.20276259  1
  Rh  Rh235  1  -0.00595800  0.60638258  0.80559238  1
  Rh  Rh236  1  0.19089000  0.40878778  0.00513469  1
  Rh  Rh237  1  -0.00609521  0.60392914  0.59308556  1
  Rh  Rh238  1  0.39437093  0.80172129  0.39989357  1
  Rh  Rh239  1  0.81044829  0.19403113  0.79810266  1
  Rh  Rh240  1  0.00560252  0.79738488  -0.00145456  1
  Rh  Rh241  1  0.60637247  -0.00414053  0.40360873  1
  Rh  Rh242  1  0.39699289  0.39230423  0.79966645  1
  Rh  Rh243  1  0.00129859  0.00803740  0.80434089  1
  Rh  Rh244  1  -0.00992117  0.59467235  0.40464927  1
  Rh  Rh245  1  -0.00919770  0.59296309  -0.00575713  1
  Rh  Rh246  1  -0.00060676  0.39887039  0.39753781  1
  Rh  Rh247  1  0.40101156  0.59166877  -0.00242141  1
  Rh  Rh248  1  0.20666206  0.19733636  0.60052769  1
  Rh  Rh249  1  0.00113056  0.79280221  0.79915098  1
