# generated using pymatgen
data_ZrScNbPdRh
_symmetry_space_group_name_H-M   'P 1'
_cell_length_a   16.56021198
_cell_length_b   16.56098681
_cell_length_c   16.55878938
_cell_angle_alpha   89.98047275
_cell_angle_beta   90.00087194
_cell_angle_gamma   89.99341261
_symmetry_Int_Tables_number   1
_chemical_formula_structural   ZrScNbPdRh
_chemical_formula_sum   'Zr50 Sc50 Nb50 Pd50 Rh50'
_cell_volume   4541.30485712
_cell_formula_units_Z   50
loop_
 _symmetry_equiv_pos_site_id
 _symmetry_equiv_pos_as_xyz
  1  'x, y, z'
loop_
 _atom_site_type_symbol
 _atom_site_label
 _atom_site_symmetry_multiplicity
 _atom_site_fract_x
 _atom_site_fract_y
 _atom_site_fract_z
 _atom_site_occupancy
  Zr  Zr0  1  0.50108177  0.09986438  0.89361947  1
  Zr  Zr1  1  0.30020235  0.89473862  0.88815217  1
  Zr  Zr2  1  0.49841069  0.50055276  0.50292214  1
  Zr  Zr3  1  0.69822755  0.49232057  0.50926927  1
  Zr  Zr4  1  0.49775642  0.90580235  0.50237363  1
  Zr  Zr5  1  0.10348980  0.50370163  0.10597940  1
  Zr  Zr6  1  0.09894164  0.89640355  0.50214810  1
  Zr  Zr7  1  0.69782829  0.90194147  0.49634033  1
  Zr  Zr8  1  0.10106195  0.29791055  0.09591375  1
  Zr  Zr9  1  0.90859996  0.30554832  0.90439234  1
  Zr  Zr10  1  0.30334807  0.49214607  0.49738881  1
  Zr  Zr11  1  0.50075845  0.10121233  0.50792216  1
  Zr  Zr12  1  0.49782080  0.49744002  0.10047312  1
  Zr  Zr13  1  0.49532427  0.30283200  0.10093914  1
  Zr  Zr14  1  0.30424226  0.29454592  0.09710214  1
  Zr  Zr15  1  0.69737398  0.30614501  0.69539654  1
  Zr  Zr16  1  0.49233656  0.30050331  0.49494521  1
  Zr  Zr17  1  0.10214818  0.68679596  0.30448247  1
  Zr  Zr18  1  0.68971760  0.90030583  0.91669122  1
  Zr  Zr19  1  0.90515633  0.49554299  0.89335921  1
  Zr  Zr20  1  0.91983875  0.50371333  0.30409489  1
  Zr  Zr21  1  0.70175202  0.30333462  0.09935513  1
  Zr  Zr22  1  0.30362292  0.89854397  0.30809540  1
  Zr  Zr23  1  0.30081725  0.70734372  0.70216523  1
  Zr  Zr24  1  0.50670197  0.30381033  0.30377031  1
  Zr  Zr25  1  0.10709022  0.90336659  0.30631083  1
  Zr  Zr26  1  0.10944403  0.89424358  0.89937947  1
  Zr  Zr27  1  0.09934345  0.10259221  0.10668868  1
  Zr  Zr28  1  0.90448658  0.28879295  0.09342838  1
  Zr  Zr29  1  0.10721191  0.69835854  0.09791857  1
  Zr  Zr30  1  0.89083084  0.51522617  0.69304193  1
  Zr  Zr31  1  0.49982876  0.69622094  0.69203927  1
  Zr  Zr32  1  0.90062054  0.89604459  0.50408572  1
  Zr  Zr33  1  0.70182702  0.89977122  0.10716366  1
  Zr  Zr34  1  0.70844689  0.09985498  0.30114721  1
  Zr  Zr35  1  0.49927510  0.89673634  0.30237083  1
  Zr  Zr36  1  0.49140074  0.50072067  0.30229202  1
  Zr  Zr37  1  0.70074930  0.71479918  0.09547631  1
  Zr  Zr38  1  0.29936324  0.49916424  0.10222203  1
  Zr  Zr39  1  0.49261031  0.90676760  0.70547805  1
  Zr  Zr40  1  0.89758396  0.70099905  0.10222996  1
  Zr  Zr41  1  0.89202790  0.89883905  0.10468291  1
  Zr  Zr42  1  0.69439465  0.09680367  0.89800824  1
  Zr  Zr43  1  0.90533678  0.10079734  0.50427545  1
  Zr  Zr44  1  0.10333105  0.49218574  0.89885431  1
  Zr  Zr45  1  0.09901929  0.09858442  0.29967413  1
  Zr  Zr46  1  0.10683167  0.30353138  0.70655318  1
  Zr  Zr47  1  0.89147963  0.70201002  0.88724045  1
  Zr  Zr48  1  0.11201247  0.69996496  0.90051527  1
  Zr  Zr49  1  0.29353886  0.09297531  0.29210662  1
  Sc  Sc50  1  0.09622216  0.50057211  0.70726642  1
  Sc  Sc51  1  0.48781652  0.10012543  0.30693398  1
  Sc  Sc52  1  0.71479246  0.09346686  0.09274614  1
  Sc  Sc53  1  0.48431686  0.10741418  0.10261811  1
  Sc  Sc54  1  0.49044564  0.70531732  0.90818919  1
  Sc  Sc55  1  0.69417248  0.49163739  0.09797305  1
  Sc  Sc56  1  0.70052262  0.29965935  0.89072199  1
  Sc  Sc57  1  0.11121639  0.49887157  0.30213327  1
  Sc  Sc58  1  0.09684435  0.50250164  0.48718781  1
  Sc  Sc59  1  0.08974705  0.70110508  0.69528437  1
  Sc  Sc60  1  0.69175222  0.69811601  0.49470185  1
  Sc  Sc61  1  0.90290047  0.70020036  0.30338668  1
  Sc  Sc62  1  0.30484943  0.69665720  0.09440598  1
  Sc  Sc63  1  0.29731874  0.10273260  0.10554608  1
  Sc  Sc64  1  0.30027702  0.89928301  0.50334353  1
  Sc  Sc65  1  0.29645438  0.10307039  0.70002985  1
  Sc  Sc66  1  0.30277872  0.71186369  0.49758182  1
  Sc  Sc67  1  0.91251490  0.89873228  0.90072973  1
  Sc  Sc68  1  0.49900909  0.70119392  0.49579724  1
  Sc  Sc69  1  0.49987994  0.30249431  0.70329173  1
  Sc  Sc70  1  0.89184536  0.29794746  0.69787647  1
  Sc  Sc71  1  0.69454391  0.29374505  0.50070672  1
  Sc  Sc72  1  0.89820315  0.29605857  0.50028359  1
  Sc  Sc73  1  0.49757039  0.70090638  0.29959494  1
  Sc  Sc74  1  0.09764698  0.30208656  0.49994792  1
  Sc  Sc75  1  0.10363311  0.08691575  0.89691415  1
  Sc  Sc76  1  0.90510359  0.10485340  0.29591719  1
  Sc  Sc77  1  0.70572220  0.89754683  0.30223167  1
  Sc  Sc78  1  0.10635372  0.90497599  0.70134083  1
  Sc  Sc79  1  0.89973863  0.10213903  0.69423456  1
  Sc  Sc80  1  0.29814029  0.30153201  0.50697998  1
  Sc  Sc81  1  0.10178879  0.90326722  0.09165037  1
  Sc  Sc82  1  0.29413936  0.30261878  0.70007957  1
  Sc  Sc83  1  0.30554276  0.10135981  0.50604289  1
  Sc  Sc84  1  0.90687340  0.89639821  0.70565701  1
  Sc  Sc85  1  0.29984663  0.30176317  0.29951124  1
  Sc  Sc86  1  0.50672046  0.89370310  0.09343517  1
  Sc  Sc87  1  0.69982580  0.91134105  0.70370395  1
  Sc  Sc88  1  0.68098838  0.49388052  0.29818874  1
  Sc  Sc89  1  0.69410677  0.11086753  0.69934557  1
  Sc  Sc90  1  0.30047546  0.89914276  0.10283740  1
  Sc  Sc91  1  0.89628441  0.90107634  0.30413530  1
  Sc  Sc92  1  0.50315757  0.09824145  0.70169435  1
  Sc  Sc93  1  0.49062616  0.30263409  0.89656206  1
  Sc  Sc94  1  0.70321666  0.48780411  0.89403479  1
  Sc  Sc95  1  0.90084928  0.48937336  0.09204509  1
  Sc  Sc96  1  0.69900062  0.09765591  0.50807194  1
  Sc  Sc97  1  0.69279108  0.70752952  0.29791843  1
  Sc  Sc98  1  0.49661077  0.70319019  0.10825268  1
  Sc  Sc99  1  0.91200973  0.69334677  0.51058804  1
  Nb  Nb100  1  0.70486583  0.69595312  0.70946305  1
  Nb  Nb101  1  0.09835662  0.10157499  0.50657880  1
  Nb  Nb102  1  0.29406435  0.69587135  0.89953600  1
  Nb  Nb103  1  0.10265007  0.70143054  0.50356577  1
  Nb  Nb104  1  0.09186685  0.29018614  0.30051292  1
  Nb  Nb105  1  0.29185164  0.29651672  0.89328020  1
  Nb  Nb106  1  0.50122077  0.50225717  0.69963818  1
  Nb  Nb107  1  0.10311105  0.10952288  0.69302424  1
  Nb  Nb108  1  0.30301585  0.10562857  0.89970588  1
  Nb  Nb109  1  0.70331687  0.29914584  0.29986487  1
  Nb  Nb110  1  0.30656480  0.89896647  0.69751448  1
  Nb  Nb111  1  0.10019353  0.30250744  0.89487467  1
  Nb  Nb112  1  0.89028699  0.70110190  0.70059655  1
  Nb  Nb113  1  0.30327842  0.49994126  0.69437375  1
  Nb  Nb114  1  0.89910186  0.49661712  0.49958048  1
  Nb  Nb115  1  0.90286328  0.29660925  0.30394246  1
  Nb  Nb116  1  0.29977279  0.50921951  0.29911159  1
  Nb  Nb117  1  0.69058375  0.50372555  0.69682018  1
  Nb  Nb118  1  0.90640521  0.10032099  0.09315488  1
  Nb  Nb119  1  0.49938691  0.50032221  0.89494845  1
  Nb  Nb120  1  0.69891729  0.69969678  0.89897997  1
  Nb  Nb121  1  0.30367817  0.70409976  0.29576085  1
  Nb  Nb122  1  0.29884155  0.50335165  0.89813522  1
  Nb  Nb123  1  0.50272726  0.90954749  0.89832802  1
  Nb  Nb124  1  0.90186006  0.10648063  0.90511807  1
  Nb  Nb125  1  0.60443315  0.19781902  0.19894230  1
  Nb  Nb126  1  0.80209970  0.40080262  0.39438001  1
  Nb  Nb127  1  0.00037244  0.39033438  0.20440187  1
  Nb  Nb128  1  0.60106509  0.00673260  0.19921196  1
  Nb  Nb129  1  0.80307089  0.00645065  0.80874082  1
  Nb  Nb130  1  0.80036845  0.58895858  0.39720297  1
  Nb  Nb131  1  0.39853988  0.59429699  0.80186356  1
  Nb  Nb132  1  0.60138220  0.60020266  -0.00829302  1
  Nb  Nb133  1  0.59751353  0.59919813  0.80094130  1
  Nb  Nb134  1  0.79643948  0.60018059  -0.00215418  1
  Nb  Nb135  1  0.20151136  0.60045852  0.59728381  1
  Nb  Nb136  1  0.60029402  0.79660576  0.80177467  1
  Nb  Nb137  1  0.80657997  0.39737088  0.21004138  1
  Nb  Nb138  1  -0.00659696  0.40681046  0.59888093  1
  Nb  Nb139  1  0.19241272  0.19494906  0.39992693  1
  Nb  Nb140  1  0.19883624  0.79618425  0.20585873  1
  Nb  Nb141  1  0.79870041  0.59239059  0.20110317  1
  Nb  Nb142  1  0.00543333  0.19862180  0.80296773  1
  Nb  Nb143  1  0.59695490  0.20022142  0.00408611  1
  Nb  Nb144  1  0.00792818  0.79874780  0.20119544  1
  Nb  Nb145  1  -0.00265208  0.60144336  -0.00507196  1
  Nb  Nb146  1  0.20005098  0.20269159  -0.01062460  1
  Nb  Nb147  1  0.60428072  0.80069942  0.60867726  1
  Nb  Nb148  1  0.39945840  -0.00020195  -0.01062398  1
  Nb  Nb149  1  0.79588095  0.79444087  0.60808103  1
  Pd  Pd150  1  0.58960990  0.39331924  0.59790845  1
  Pd  Pd151  1  0.40667201  0.79394084  0.80257482  1
  Pd  Pd152  1  0.00275948  0.60646314  0.80293973  1
  Pd  Pd153  1  0.21138099  0.60564065  0.40930126  1
  Pd  Pd154  1  0.20001547  0.39050247  0.39546151  1
  Pd  Pd155  1  0.80057134  0.20050901  0.40831644  1
  Pd  Pd156  1  0.19715180  0.79759911  0.60530849  1
  Pd  Pd157  1  0.80215060  0.19932912  0.19643839  1
  Pd  Pd158  1  0.00145579  0.79456133  0.39791718  1
  Pd  Pd159  1  0.39322755  0.40353805  0.79584913  1
  Pd  Pd160  1  0.60259270  0.59767503  0.39916561  1
  Pd  Pd161  1  0.59835526  0.00603868  0.39280463  1
  Pd  Pd162  1  -0.00355882  -0.00846979  0.20022700  1
  Pd  Pd163  1  0.19616128  0.39251982  0.20757493  1
  Pd  Pd164  1  0.80718391  0.00551318  0.40200185  1
  Pd  Pd165  1  0.40447272  0.59769018  -0.00160986  1
  Pd  Pd166  1  0.39404069  0.60582972  0.40175061  1
  Pd  Pd167  1  0.60164392  0.19321614  0.39713918  1
  Pd  Pd168  1  0.39939307  0.20510139  0.61076745  1
  Pd  Pd169  1  0.00186500  -0.00512594  0.60747531  1
  Pd  Pd170  1  0.79162660  0.81711161  0.80185483  1
  Pd  Pd171  1  0.20452632  0.00382427  0.79305459  1
  Pd  Pd172  1  0.39957313  0.20019027  0.79227180  1
  Pd  Pd173  1  0.79281804  0.20415068  -0.00791365  1
  Pd  Pd174  1  0.00038260  -0.00013487  0.00039247  1
  Pd  Pd175  1  0.80333442  0.40400027  0.79017361  1
  Pd  Pd176  1  0.20349496  0.59828391  0.78883185  1
  Pd  Pd177  1  -0.00267477  0.79469698  0.00333854  1
  Pd  Pd178  1  0.39135379  0.60176904  0.59733454  1
  Pd  Pd179  1  0.18895012  0.41018038  0.59924213  1
  Pd  Pd180  1  0.59743922  0.39713522  -0.01034813  1
  Pd  Pd181  1  0.38649466  0.19920501  0.39736749  1
  Pd  Pd182  1  -0.00313095  0.00919251  0.79402916  1
  Pd  Pd183  1  0.80420038  0.78638591  0.41022833  1
  Pd  Pd184  1  0.20412283  0.00792729  0.41469698  1
  Pd  Pd185  1  0.00200350  0.21283424  0.60583860  1
  Pd  Pd186  1  0.79057320  0.60859846  0.58907578  1
  Pd  Pd187  1  0.20472862  0.00138294  0.59947572  1
  Pd  Pd188  1  0.60488466  0.60334508  0.19040212  1
  Pd  Pd189  1  0.39318599  0.40145983  -0.00882042  1
  Pd  Pd190  1  0.00766245  0.79669269  0.79558766  1
  Pd  Pd191  1  0.39530867  0.39943893  0.20661573  1
  Pd  Pd192  1  0.80644432  0.19552858  0.80081658  1
  Pd  Pd193  1  -0.00444590  0.00197101  0.40074627  1
  Pd  Pd194  1  0.21073390  0.00559103  0.00291777  1
  Pd  Pd195  1  0.80205125  -0.00408265  0.60881062  1
  Pd  Pd196  1  0.81050938  -0.00609977  -0.00733271  1
  Pd  Pd197  1  0.40792925  -0.00894118  0.19111728  1
  Pd  Pd198  1  0.20565972  0.39703103  -0.00225618  1
  Pd  Pd199  1  0.39611863  0.80793258  -0.00168483  1
  Rh  Rh200  1  0.59077806  0.79082066  -0.00490882  1
  Rh  Rh201  1  0.80750674  0.79255032  0.21156067  1
  Rh  Rh202  1  0.21326465  0.60666341  0.19993154  1
  Rh  Rh203  1  -0.00734395  0.59757456  0.18683898  1
  Rh  Rh204  1  0.01548726  0.18963937  -0.01025799  1
  Rh  Rh205  1  0.19938724  0.79477626  0.39457948  1
  Rh  Rh206  1  -0.00408525  0.80350053  0.60414346  1
  Rh  Rh207  1  0.40463137  0.39744685  0.60372799  1
  Rh  Rh208  1  -0.00431610  0.20076949  0.19801862  1
  Rh  Rh209  1  0.80368025  0.39750130  0.59639087  1
  Rh  Rh210  1  -0.00190468  0.60650506  0.40954418  1
  Rh  Rh211  1  0.39499811  0.40003132  0.39637253  1
  Rh  Rh212  1  -0.00859721  0.39027657  0.78557115  1
  Rh  Rh213  1  0.19702314  0.79950113  0.79187971  1
  Rh  Rh214  1  0.21086897  0.80031464  0.00476418  1
  Rh  Rh215  1  0.60512230  0.60650058  0.60199717  1
  Rh  Rh216  1  0.59789688  0.80998790  0.20519768  1
  Rh  Rh217  1  0.79158194  0.58918100  0.80559390  1
  Rh  Rh218  1  0.00449356  0.19519174  0.40707470  1
  Rh  Rh219  1  0.40232716  0.20523661  0.21049262  1
  Rh  Rh220  1  0.19832936  -0.01145929  0.19494956  1
  Rh  Rh221  1  0.20931301  0.40740415  0.79917026  1
  Rh  Rh222  1  0.20260268  0.20376076  0.20250290  1
  Rh  Rh223  1  0.79926073  0.39931863  0.00179115  1
  Rh  Rh224  1  0.60337338  0.39944097  0.40678925  1
  Rh  Rh225  1  0.59540595  0.80375406  0.40545036  1
  Rh  Rh226  1  0.39537162  0.00253132  0.60461560  1
  Rh  Rh227  1  0.59952407  -0.00321804  0.60394699  1
  Rh  Rh228  1  0.80620748  0.80252888  -0.01044026  1
  Rh  Rh229  1  0.79545458  0.19897600  0.59582401  1
  Rh  Rh230  1  0.19797083  0.20037273  0.59154994  1
  Rh  Rh231  1  0.19907984  0.59428289  -0.00008945  1
  Rh  Rh232  1  -0.00258882  0.39070290  0.40214549  1
  Rh  Rh233  1  0.39090788  0.00597590  0.80094872  1
  Rh  Rh234  1  0.19387609  0.19247718  0.80448400  1
  Rh  Rh235  1  0.01253637  0.59078416  0.59613022  1
  Rh  Rh236  1  0.39553785  0.80159228  0.20001734  1
  Rh  Rh237  1  0.39712983  0.19709800  -0.00698670  1
  Rh  Rh238  1  0.59840641  0.40334326  0.79752248  1
  Rh  Rh239  1  0.80264615  0.00562650  0.20066206  1
  Rh  Rh240  1  0.60804570  -0.00295685  0.79656876  1
  Rh  Rh241  1  0.59433284  0.20361254  0.60053835  1
  Rh  Rh242  1  0.39860937  0.59908117  0.19940301  1
  Rh  Rh243  1  0.39592748  0.00174721  0.40607180  1
  Rh  Rh244  1  0.59562564  0.20799853  0.80416876  1
  Rh  Rh245  1  0.00969559  0.40695453  0.00813023  1
  Rh  Rh246  1  0.40702763  0.80589983  0.59710249  1
  Rh  Rh247  1  0.60147235  0.39213124  0.20032977  1
  Rh  Rh248  1  0.58414738  0.01563766  0.01577937  1
  Rh  Rh249  1  0.40399494  0.80036756  0.40190412  1
