# generated using pymatgen
data_ZrScNbPdRh
_symmetry_space_group_name_H-M   'P 1'
_cell_length_a   16.56378385
_cell_length_b   16.56252211
_cell_length_c   16.56540238
_cell_angle_alpha   89.98770414
_cell_angle_beta   90.00168277
_cell_angle_gamma   89.97701868
_symmetry_Int_Tables_number   1
_chemical_formula_structural   ZrScNbPdRh
_chemical_formula_sum   'Zr50 Sc50 Nb50 Pd50 Rh50'
_cell_volume   4544.51948777
_cell_formula_units_Z   50
loop_
 _symmetry_equiv_pos_site_id
 _symmetry_equiv_pos_as_xyz
  1  'x, y, z'
loop_
 _atom_site_type_symbol
 _atom_site_label
 _atom_site_symmetry_multiplicity
 _atom_site_fract_x
 _atom_site_fract_y
 _atom_site_fract_z
 _atom_site_occupancy
  Zr  Zr0  1  0.89204512  0.89329635  0.30632402  1
  Zr  Zr1  1  0.50416789  0.89719142  0.11095986  1
  Zr  Zr2  1  0.69826696  0.09997371  0.49475584  1
  Zr  Zr3  1  0.70364036  0.89537544  0.50337826  1
  Zr  Zr4  1  0.50336726  0.49642826  0.30163989  1
  Zr  Zr5  1  0.30603586  0.29955423  0.89889375  1
  Zr  Zr6  1  0.51050509  0.10092318  0.09988369  1
  Zr  Zr7  1  0.90317450  0.09816442  0.30392181  1
  Zr  Zr8  1  0.50468626  0.70153181  0.70349632  1
  Zr  Zr9  1  0.29153437  0.69983474  0.69839853  1
  Zr  Zr10  1  0.49213844  0.10449690  0.69591037  1
  Zr  Zr11  1  0.50861359  0.50876719  0.10477131  1
  Zr  Zr12  1  0.90138640  0.29072857  0.69991139  1
  Zr  Zr13  1  0.89312407  0.69976192  0.49432670  1
  Zr  Zr14  1  0.69768781  0.90133424  0.88413354  1
  Zr  Zr15  1  0.09988503  0.69636741  0.89605675  1
  Zr  Zr16  1  0.10554442  0.88906676  0.90707951  1
  Zr  Zr17  1  0.49783194  0.50010120  0.50216123  1
  Zr  Zr18  1  0.69081901  0.69204517  0.89234841  1
  Zr  Zr19  1  0.09906377  0.30168808  0.69618793  1
  Zr  Zr20  1  0.09951845  0.71237254  0.50532927  1
  Zr  Zr21  1  0.69540545  0.10194889  0.90550224  1
  Zr  Zr22  1  0.09327758  0.68764009  0.30187447  1
  Zr  Zr23  1  0.69766169  0.30196220  0.90221176  1
  Zr  Zr24  1  0.90066724  0.49808023  0.69087288  1
  Zr  Zr25  1  0.50005219  0.30065999  0.09148482  1
  Zr  Zr26  1  0.89673838  0.89691329  0.89189128  1
  Zr  Zr27  1  0.70027265  0.09482513  0.29963034  1
  Zr  Zr28  1  0.10708940  0.09118182  0.10301052  1
  Zr  Zr29  1  0.69467561  0.69071809  0.10836251  1
  Zr  Zr30  1  0.29410197  0.90357721  0.89878136  1
  Zr  Zr31  1  0.29400495  0.50627512  0.29816019  1
  Zr  Zr32  1  0.89776066  0.69804578  0.10911823  1
  Zr  Zr33  1  0.50578847  0.90712415  0.69741976  1
  Zr  Zr34  1  0.49422684  0.49594173  0.69967687  1
  Zr  Zr35  1  0.30539569  0.90180694  0.30450789  1
  Zr  Zr36  1  0.90064080  0.09106812  0.70044670  1
  Zr  Zr37  1  0.70014960  0.49696201  0.90005346  1
  Zr  Zr38  1  0.30108275  0.70221052  0.50516646  1
  Zr  Zr39  1  0.09310925  0.70722436  0.09502723  1
  Zr  Zr40  1  0.09789641  0.29847559  0.09611595  1
  Zr  Zr41  1  0.90017596  0.50409736  0.89731086  1
  Zr  Zr42  1  0.50133023  0.30330857  0.88863197  1
  Zr  Zr43  1  0.90658480  0.89347821  0.50504572  1
  Zr  Zr44  1  0.30128559  0.90854169  0.70403610  1
  Zr  Zr45  1  0.50669227  0.10078687  0.30716221  1
  Zr  Zr46  1  0.09714353  0.09994484  0.69715014  1
  Zr  Zr47  1  0.09864889  0.90221537  0.30734008  1
  Zr  Zr48  1  0.09211834  0.29831592  0.29586178  1
  Zr  Zr49  1  0.29182467  0.70822198  0.89580693  1
  Sc  Sc50  1  0.30564300  0.10236108  0.69769691  1
  Sc  Sc51  1  0.09660953  0.10071545  0.29847999  1
  Sc  Sc52  1  0.30144961  0.89977034  0.49221016  1
  Sc  Sc53  1  0.50244829  0.70451254  0.50290209  1
  Sc  Sc54  1  0.09783376  0.29717514  0.50659640  1
  Sc  Sc55  1  0.89853836  0.29087967  0.91029412  1
  Sc  Sc56  1  0.30249535  0.09439435  0.89127272  1
  Sc  Sc57  1  0.29916720  0.70229480  0.11493610  1
  Sc  Sc58  1  0.70038110  0.29665151  0.50223057  1
  Sc  Sc59  1  0.50088680  0.10839916  0.89792454  1
  Sc  Sc60  1  0.09945623  0.49384079  0.11039080  1
  Sc  Sc61  1  0.09796658  0.08355406  0.89939942  1
  Sc  Sc62  1  0.49661385  0.09996538  0.50159938  1
  Sc  Sc63  1  0.70049059  0.49922004  0.28688398  1
  Sc  Sc64  1  0.50013562  0.70764915  0.29515707  1
  Sc  Sc65  1  0.90390589  0.09681519  0.50066316  1
  Sc  Sc66  1  0.09232445  0.89655808  0.69410653  1
  Sc  Sc67  1  0.69361173  0.30653891  0.29699234  1
  Sc  Sc68  1  0.09966594  0.90031687  0.09929943  1
  Sc  Sc69  1  0.69690548  0.90182989  0.30494419  1
  Sc  Sc70  1  0.89882895  0.09809419  0.89671479  1
  Sc  Sc71  1  0.89990599  0.30218029  0.09501722  1
  Sc  Sc72  1  0.50496187  0.30129093  0.30672733  1
  Sc  Sc73  1  0.69891692  0.70638650  0.69691881  1
  Sc  Sc74  1  0.90364261  0.30273738  0.51136729  1
  Sc  Sc75  1  0.69966880  0.51068069  0.70143451  1
  Sc  Sc76  1  0.70063736  0.49711850  0.09805657  1
  Sc  Sc77  1  0.70176714  0.09572143  0.69595781  1
  Sc  Sc78  1  0.29945051  0.70121972  0.30800805  1
  Sc  Sc79  1  0.90976621  0.69590289  0.90089179  1
  Sc  Sc80  1  0.30633333  0.50300600  0.50594899  1
  Sc  Sc81  1  0.89481190  0.50136395  0.10143951  1
  Sc  Sc82  1  0.29446066  0.30709781  0.09257815  1
  Sc  Sc83  1  0.10820757  0.50336460  0.70072325  1
  Sc  Sc84  1  0.70839164  0.70404556  0.29951903  1
  Sc  Sc85  1  0.90282674  0.89186699  0.10432812  1
  Sc  Sc86  1  0.29738610  0.48857300  0.90035242  1
  Sc  Sc87  1  0.70262542  0.30501476  0.09450460  1
  Sc  Sc88  1  0.70080962  0.28953715  0.69794960  1
  Sc  Sc89  1  0.30364523  0.30873861  0.69089551  1
  Sc  Sc90  1  0.50974228  0.49390928  0.89513904  1
  Sc  Sc91  1  0.49292240  0.29780456  0.49720854  1
  Sc  Sc92  1  0.50140244  0.90610412  0.88925512  1
  Sc  Sc93  1  0.90293329  0.10007944  0.09220773  1
  Sc  Sc94  1  0.70250384  0.70158881  0.50571457  1
  Sc  Sc95  1  0.69787066  0.90006806  0.11538054  1
  Sc  Sc96  1  0.49951173  0.90385245  0.49396953  1
  Sc  Sc97  1  0.28518649  0.90007739  0.10397942  1
  Sc  Sc98  1  0.10477812  0.69865763  0.70253206  1
  Sc  Sc99  1  0.10178469  0.50235292  0.89780215  1
  Nb  Nb100  1  0.49842482  0.90286197  0.30386596  1
  Nb  Nb101  1  0.69938913  0.09808588  0.10150581  1
  Nb  Nb102  1  0.30303152  0.50230415  0.10047356  1
  Nb  Nb103  1  0.88690585  0.89687265  0.69849999  1
  Nb  Nb104  1  0.70773690  0.50307074  0.50391075  1
  Nb  Nb105  1  0.10782954  0.30449416  0.90185880  1
  Nb  Nb106  1  0.08476902  0.50013615  0.48984446  1
  Nb  Nb107  1  0.49878424  0.30462618  0.70019483  1
  Nb  Nb108  1  0.29939549  0.10184967  0.29788320  1
  Nb  Nb109  1  0.10227636  0.09762241  0.49751867  1
  Nb  Nb110  1  0.70476289  0.89960594  0.70166381  1
  Nb  Nb111  1  0.29827988  0.30039029  0.30164258  1
  Nb  Nb112  1  0.29807490  0.09785907  0.10389472  1
  Nb  Nb113  1  0.90618884  0.70082069  0.69558401  1
  Nb  Nb114  1  0.49850172  0.69923825  0.90159389  1
  Nb  Nb115  1  0.89866100  0.69508637  0.29832851  1
  Nb  Nb116  1  0.91460452  0.50603409  0.30933258  1
  Nb  Nb117  1  0.89651062  0.50131402  0.50014726  1
  Nb  Nb118  1  0.89900483  0.29663950  0.30156927  1
  Nb  Nb119  1  0.09964211  0.90106157  0.50212486  1
  Nb  Nb120  1  0.29675231  0.29984982  0.49484640  1
  Nb  Nb121  1  0.09377079  0.49671976  0.30827267  1
  Nb  Nb122  1  0.30523567  0.50749840  0.69751542  1
  Nb  Nb123  1  0.30393481  0.10357471  0.49934224  1
  Nb  Nb124  1  0.50357569  0.70144885  0.09661147  1
  Nb  Nb125  1  0.20756193  0.59788361  0.00691702  1
  Nb  Nb126  1  0.39538255  0.39838147  0.20144219  1
  Nb  Nb127  1  0.39398506  0.20134251  0.20151779  1
  Nb  Nb128  1  0.80778145  0.40475457  0.40025301  1
  Nb  Nb129  1  0.80473144  0.20579047  0.39415933  1
  Nb  Nb130  1  -0.00208446  0.39468411  0.80046218  1
  Nb  Nb131  1  0.20502588  0.20148031  0.40107515  1
  Nb  Nb132  1  0.39894112  0.00699738  0.20176645  1
  Nb  Nb133  1  0.19673517  0.20513305  0.80257023  1
  Nb  Nb134  1  0.79953458  0.19817630  0.20264238  1
  Nb  Nb135  1  0.59861730  0.79683613  -0.00070921  1
  Nb  Nb136  1  0.40038113  -0.00253892  0.00860440  1
  Nb  Nb137  1  0.19697023  0.00401151  0.58926557  1
  Nb  Nb138  1  -0.00362969  0.59933325  0.59254120  1
  Nb  Nb139  1  0.79227758  -0.00664772  -0.00068045  1
  Nb  Nb140  1  0.79026975  0.79906172  -0.00160320  1
  Nb  Nb141  1  0.60468692  0.59493473  0.40286560  1
  Nb  Nb142  1  0.40476857  0.79994007  0.00171355  1
  Nb  Nb143  1  0.19626790  0.39909680  0.39820076  1
  Nb  Nb144  1  0.39997333  0.60574476  -0.00108791  1
  Nb  Nb145  1  0.59856502  0.40159014  0.60075551  1
  Nb  Nb146  1  0.80575562  0.39705711  0.79894090  1
  Nb  Nb147  1  0.19984749  0.19653404  -0.00448958  1
  Nb  Nb148  1  0.39695119  0.60060580  0.80396474  1
  Nb  Nb149  1  0.39954545  0.80359469  0.60560645  1
  Pd  Pd150  1  0.60016078  -0.01110291  -0.00173807  1
  Pd  Pd151  1  0.80324764  0.78467841  0.80112620  1
  Pd  Pd152  1  0.19712917  0.40999574  0.58932716  1
  Pd  Pd153  1  0.79787749  0.60661921  0.00072188  1
  Pd  Pd154  1  0.20693483  0.19538880  0.60089519  1
  Pd  Pd155  1  -0.00322356  0.19332557  0.59367894  1
  Pd  Pd156  1  0.40808339  0.41183052  0.00286719  1
  Pd  Pd157  1  0.00281049  0.80151601  0.20907401  1
  Pd  Pd158  1  -0.01022042  0.40305964  0.19897967  1
  Pd  Pd159  1  0.19110797  0.60112220  0.19587262  1
  Pd  Pd160  1  0.20150575  0.39965793  0.79459041  1
  Pd  Pd161  1  -0.00828821  0.19666785  0.19198900  1
  Pd  Pd162  1  0.19792050  0.79755559  0.39661471  1
  Pd  Pd163  1  0.39721323  0.80529485  0.19923215  1
  Pd  Pd164  1  0.40865353  0.60800407  0.39804805  1
  Pd  Pd165  1  0.61344410  0.40431717  0.40958710  1
  Pd  Pd166  1  0.19346426  0.79872812  0.20948839  1
  Pd  Pd167  1  0.40283026  0.59978484  0.20074646  1
  Pd  Pd168  1  0.80078054  0.00138654  0.59434205  1
  Pd  Pd169  1  0.60102418  0.79332162  0.39889752  1
  Pd  Pd170  1  0.00208704  -0.01045395  0.79750699  1
  Pd  Pd171  1  -0.00348497  0.38702628  0.40504109  1
  Pd  Pd172  1  0.00072690  0.40668639  -0.00519780  1
  Pd  Pd173  1  0.79793873  0.19797619  0.80252345  1
  Pd  Pd174  1  0.80457453  0.60276255  0.79391357  1
  Pd  Pd175  1  0.00800027  0.20351706  0.81129271  1
  Pd  Pd176  1  0.80838090  0.39854897  0.20615244  1
  Pd  Pd177  1  0.80747246  0.00309038  0.19247781  1
  Pd  Pd178  1  0.60212124  -0.00102168  0.59695969  1
  Pd  Pd179  1  -0.00281367  -0.00173349  0.40416641  1
  Pd  Pd180  1  0.79034524  0.39540367  0.60268809  1
  Pd  Pd181  1  0.59275699  0.20632063  0.59659113  1
  Pd  Pd182  1  0.60094551  0.19634664  0.79431615  1
  Pd  Pd183  1  0.39829489  0.19791208  0.39636385  1
  Pd  Pd184  1  0.79250087  0.59353675  0.39181667  1
  Pd  Pd185  1  0.39254876  0.19030064  0.00316466  1
  Pd  Pd186  1  0.00864445  0.59137600  0.00786670  1
  Pd  Pd187  1  0.39081089  0.40319263  0.39700871  1
  Pd  Pd188  1  0.20285873  0.00770568  0.40045224  1
  Pd  Pd189  1  0.20282763  0.20391151  0.19806770  1
  Pd  Pd190  1  0.60018287  0.59769069  0.59659164  1
  Pd  Pd191  1  0.01049688  0.19292221  -0.00492992  1
  Pd  Pd192  1  0.40331386  0.79949025  0.79919380  1
  Pd  Pd193  1  0.20202212  0.39952283  0.20337408  1
  Pd  Pd194  1  -0.00945951  -0.00986115  0.00068931  1
  Pd  Pd195  1  0.60374520  0.20770442  0.19838463  1
  Pd  Pd196  1  -0.00466722  -0.00417955  0.19915018  1
  Pd  Pd197  1  0.19036334  0.59190863  0.58937578  1
  Pd  Pd198  1  0.19877044  0.59526058  0.41070243  1
  Pd  Pd199  1  0.00189025  0.80128684  0.79534859  1
  Rh  Rh200  1  0.00901508  0.41053159  0.60541862  1
  Rh  Rh201  1  0.59228457  0.59617785  0.79738507  1
  Rh  Rh202  1  0.60432229  0.20650008  0.00091031  1
  Rh  Rh203  1  0.40883930  0.00832523  0.80675749  1
  Rh  Rh204  1  0.20944208  0.59196466  0.80965548  1
  Rh  Rh205  1  0.59915856  0.59884366  -0.00364759  1
  Rh  Rh206  1  0.80596705  0.60916721  0.60467671  1
  Rh  Rh207  1  0.20992073  0.81526060  0.60142426  1
  Rh  Rh208  1  0.79780204  0.79906736  0.19881765  1
  Rh  Rh209  1  0.80345911  0.40218671  -0.00799136  1
  Rh  Rh210  1  0.40549176  0.79667052  0.40755517  1
  Rh  Rh211  1  0.79791090  0.80013981  0.40043381  1
  Rh  Rh212  1  0.40176308  0.61180872  0.60882094  1
  Rh  Rh213  1  0.79467386  0.19091017  0.00878348  1
  Rh  Rh214  1  0.39381068  0.40502555  0.79634730  1
  Rh  Rh215  1  0.59681969  0.80835758  0.60169331  1
  Rh  Rh216  1  -0.00962674  0.80227669  -0.00256921  1
  Rh  Rh217  1  -0.00370272  0.79658639  0.60476808  1
  Rh  Rh218  1  0.59819277  0.80181683  0.79911263  1
  Rh  Rh219  1  0.59557242  -0.00146957  0.20920834  1
  Rh  Rh220  1  0.60705424  0.20247213  0.40350178  1
  Rh  Rh221  1  0.80235553  0.00034017  0.40670097  1
  Rh  Rh222  1  0.00208726  0.20174441  0.40616844  1
  Rh  Rh223  1  0.61513854  0.39750363  0.78678123  1
  Rh  Rh224  1  0.59877126  0.60588100  0.21409892  1
  Rh  Rh225  1  -0.00052930  0.59317447  0.78561527  1
  Rh  Rh226  1  0.59064580  0.39518991  0.19288404  1
  Rh  Rh227  1  0.20537544  0.78983250  0.00929875  1
  Rh  Rh228  1  -0.00176758  0.61038034  0.40757331  1
  Rh  Rh229  1  0.80368146  0.19192104  0.59240792  1
  Rh  Rh230  1  0.79760989  0.00741237  0.80198645  1
  Rh  Rh231  1  0.20778982  0.00649274  -0.00138395  1
  Rh  Rh232  1  0.40314185  0.39504534  0.59687687  1
  Rh  Rh233  1  0.19059085  0.80978913  0.79106426  1
  Rh  Rh234  1  0.39889784  0.20832179  0.59856700  1
  Rh  Rh235  1  0.60003920  -0.00416869  0.40306293  1
  Rh  Rh236  1  0.20091554  -0.00496540  0.21036895  1
  Rh  Rh237  1  0.39039610  -0.00574751  0.59129578  1
  Rh  Rh238  1  0.60241762  0.79825853  0.20449466  1
  Rh  Rh239  1  0.19501506  0.40351561  0.00567817  1
  Rh  Rh240  1  -0.00013150  0.79659227  0.39556653  1
  Rh  Rh241  1  -0.00050381  0.59441245  0.19774796  1
  Rh  Rh242  1  0.59800645  0.40182588  0.00172249  1
  Rh  Rh243  1  0.00300467  -0.00248841  0.59842799  1
  Rh  Rh244  1  0.80701873  0.59252304  0.20679025  1
  Rh  Rh245  1  0.40158134  0.00611223  0.39679645  1
  Rh  Rh246  1  0.59987696  0.01025705  0.79033422  1
  Rh  Rh247  1  0.19320850  0.00410026  0.78793244  1
  Rh  Rh248  1  0.39461858  0.20596972  0.79198308  1
  Rh  Rh249  1  0.79999133  0.79757500  0.60395212  1
