# generated using pymatgen
data_ZrScNbPdRh
_symmetry_space_group_name_H-M   'P 1'
_cell_length_a   16.55242825
_cell_length_b   16.55419786
_cell_length_c   16.55200705
_cell_angle_alpha   90.02953125
_cell_angle_beta   90.02812981
_cell_angle_gamma   90.00374480
_symmetry_Int_Tables_number   1
_chemical_formula_structural   ZrScNbPdRh
_chemical_formula_sum   'Zr50 Sc50 Nb50 Pd50 Rh50'
_cell_volume   4535.45024868
_cell_formula_units_Z   50
loop_
 _symmetry_equiv_pos_site_id
 _symmetry_equiv_pos_as_xyz
  1  'x, y, z'
loop_
 _atom_site_type_symbol
 _atom_site_label
 _atom_site_symmetry_multiplicity
 _atom_site_fract_x
 _atom_site_fract_y
 _atom_site_fract_z
 _atom_site_occupancy
  Zr  Zr0  1  0.50624633  0.09741586  0.70323780  1
  Zr  Zr1  1  0.10224151  0.89344711  0.89726869  1
  Zr  Zr2  1  0.11041686  0.50050624  0.51021148  1
  Zr  Zr3  1  0.89118987  0.90946970  0.68703434  1
  Zr  Zr4  1  0.50657014  0.09372188  0.90953546  1
  Zr  Zr5  1  0.30296777  0.50558842  0.90367952  1
  Zr  Zr6  1  0.49487701  0.69726730  0.09810870  1
  Zr  Zr7  1  0.09816172  0.29980039  0.90248437  1
  Zr  Zr8  1  0.09539319  0.50196627  0.09672858  1
  Zr  Zr9  1  0.90617930  0.50053162  0.10638935  1
  Zr  Zr10  1  0.29928600  0.49063010  0.30392065  1
  Zr  Zr11  1  0.69892380  0.29443384  0.29706603  1
  Zr  Zr12  1  0.90156752  0.70340322  0.69427478  1
  Zr  Zr13  1  0.90262367  0.09303970  0.50570062  1
  Zr  Zr14  1  0.29803879  0.70093298  0.09154658  1
  Zr  Zr15  1  0.69920508  0.70521151  0.90480077  1
  Zr  Zr16  1  0.71245735  0.49035804  0.10622261  1
  Zr  Zr17  1  0.49852589  0.49915462  0.30166458  1
  Zr  Zr18  1  0.09738702  0.69872763  0.69478213  1
  Zr  Zr19  1  0.50486546  0.90092343  0.50653094  1
  Zr  Zr20  1  0.70285279  0.30874936  0.70297407  1
  Zr  Zr21  1  0.50601575  0.30534697  0.90844089  1
  Zr  Zr22  1  0.10389100  0.70122023  0.90939380  1
  Zr  Zr23  1  0.90088362  0.10369764  0.29576175  1
  Zr  Zr24  1  0.71030649  0.30289240  0.49923695  1
  Zr  Zr25  1  0.30016974  0.30220694  0.89817856  1
  Zr  Zr26  1  0.49326268  0.69657881  0.30062715  1
  Zr  Zr27  1  0.29850997  0.89979605  0.29935241  1
  Zr  Zr28  1  0.29678239  0.89762549  0.70910159  1
  Zr  Zr29  1  0.08805920  0.90006076  0.49416227  1
  Zr  Zr30  1  0.29761892  0.90766406  0.49113917  1
  Zr  Zr31  1  0.50590576  0.30765835  0.70645985  1
  Zr  Zr32  1  0.90559250  0.30226169  0.30561210  1
  Zr  Zr33  1  0.89407198  0.29351208  0.70107234  1
  Zr  Zr34  1  0.49774854  0.09799438  0.49842473  1
  Zr  Zr35  1  0.49703874  0.49531817  0.89739758  1
  Zr  Zr36  1  0.49604595  0.90364018  0.29974159  1
  Zr  Zr37  1  0.30688046  0.09815964  0.10608659  1
  Zr  Zr38  1  0.29437534  0.30719995  0.49371504  1
  Zr  Zr39  1  0.89479820  0.49581324  0.49391108  1
  Zr  Zr40  1  0.49590883  0.48980810  0.09490201  1
  Zr  Zr41  1  0.09438884  0.71211701  0.29865337  1
  Zr  Zr42  1  0.09181273  0.89745978  0.70069100  1
  Zr  Zr43  1  0.30452039  0.11143788  0.49566733  1
  Zr  Zr44  1  0.89034868  0.49943942  0.70302382  1
  Zr  Zr45  1  0.09534593  0.49424504  0.29102149  1
  Zr  Zr46  1  0.10123258  0.49965286  0.89655452  1
  Zr  Zr47  1  0.70798928  0.50574346  0.30550463  1
  Zr  Zr48  1  0.69774396  0.49978247  0.50179633  1
  Zr  Zr49  1  0.49785262  0.70710689  0.69614097  1
  Sc  Sc50  1  0.29716839  0.10036856  0.90102741  1
  Sc  Sc51  1  0.71344964  0.49677386  0.89825335  1
  Sc  Sc52  1  0.69038732  0.90759829  0.69575585  1
  Sc  Sc53  1  0.90639126  0.69902704  0.09897199  1
  Sc  Sc54  1  0.89690895  0.90027932  0.90973482  1
  Sc  Sc55  1  0.30605044  0.90338247  0.10101353  1
  Sc  Sc56  1  0.09810656  0.11359297  0.89955707  1
  Sc  Sc57  1  0.09966013  0.30068811  0.11011720  1
  Sc  Sc58  1  0.30177540  0.49990649  0.10001199  1
  Sc  Sc59  1  0.50459936  0.09222493  0.10540501  1
  Sc  Sc60  1  0.49551078  0.70675065  0.89790930  1
  Sc  Sc61  1  0.10501878  0.90220427  0.30106794  1
  Sc  Sc62  1  0.30319837  0.89751114  0.89924046  1
  Sc  Sc63  1  0.70043489  0.90004087  0.50334562  1
  Sc  Sc64  1  0.48421712  0.29572754  0.50411389  1
  Sc  Sc65  1  0.09901966  0.88787142  0.09623164  1
  Sc  Sc66  1  0.50042467  0.90736902  0.09639041  1
  Sc  Sc67  1  0.70158486  0.89508019  0.28725713  1
  Sc  Sc68  1  0.69415027  0.09953445  0.49387577  1
  Sc  Sc69  1  0.69895367  0.29757401  0.90616983  1
  Sc  Sc70  1  0.89713352  0.30655821  0.09745691  1
  Sc  Sc71  1  0.89656989  0.50017248  0.29299787  1
  Sc  Sc72  1  0.10357708  0.10749520  0.29459099  1
  Sc  Sc73  1  0.49880694  0.69449497  0.50174563  1
  Sc  Sc74  1  0.30471306  0.69655029  0.50434124  1
  Sc  Sc75  1  0.09808685  0.09352688  0.48798101  1
  Sc  Sc76  1  0.89930385  0.70119547  0.90731018  1
  Sc  Sc77  1  0.30245307  0.49320664  0.50687885  1
  Sc  Sc78  1  0.70447612  0.09635101  0.90556248  1
  Sc  Sc79  1  0.09572495  0.10535839  0.70845780  1
  Sc  Sc80  1  0.30644133  0.30293112  0.68918053  1
  Sc  Sc81  1  0.89901889  0.71048520  0.50017254  1
  Sc  Sc82  1  0.10076872  0.11001886  0.09834242  1
  Sc  Sc83  1  0.30348613  0.69925212  0.70194139  1
  Sc  Sc84  1  0.50141204  0.10161232  0.30182168  1
  Sc  Sc85  1  0.10182400  0.30294050  0.71292745  1
  Sc  Sc86  1  0.29893642  0.29448519  0.30219826  1
  Sc  Sc87  1  0.29870660  0.10698744  0.70628592  1
  Sc  Sc88  1  0.70244197  0.69210727  0.49614041  1
  Sc  Sc89  1  0.29980054  0.70306694  0.89872211  1
  Sc  Sc90  1  0.89198342  0.69539981  0.29808694  1
  Sc  Sc91  1  0.29938649  0.29811741  0.11073222  1
  Sc  Sc92  1  0.70613241  0.70920389  0.10097480  1
  Sc  Sc93  1  0.90253432  0.49216442  0.91136192  1
  Sc  Sc94  1  0.29759307  0.50265492  0.69551265  1
  Sc  Sc95  1  0.90452350  0.88726765  0.30153689  1
  Sc  Sc96  1  0.70137852  0.90364346  0.09746114  1
  Sc  Sc97  1  0.30098204  0.10058524  0.30065021  1
  Sc  Sc98  1  0.90143178  0.29864705  0.89928857  1
  Sc  Sc99  1  0.49670486  0.50180856  0.50299230  1
  Nb  Nb100  1  0.70433390  0.69159012  0.70451787  1
  Nb  Nb101  1  0.69760938  0.89529737  0.90031764  1
  Nb  Nb102  1  0.89131513  0.09676193  0.70464723  1
  Nb  Nb103  1  0.69706895  0.49964176  0.69905411  1
  Nb  Nb104  1  0.49762800  0.90226964  0.70211275  1
  Nb  Nb105  1  0.70997082  0.10064555  0.69973316  1
  Nb  Nb106  1  0.50947236  0.49942305  0.70061133  1
  Nb  Nb107  1  0.89936564  0.90515793  0.09439880  1
  Nb  Nb108  1  0.90330347  0.30020606  0.50098672  1
  Nb  Nb109  1  0.69499068  0.29402829  0.10113895  1
  Nb  Nb110  1  0.09710814  0.69606034  0.50541778  1
  Nb  Nb111  1  0.29744632  0.69983359  0.29904894  1
  Nb  Nb112  1  0.10095246  0.69341879  0.09674618  1
  Nb  Nb113  1  0.49885156  0.30034653  0.29465602  1
  Nb  Nb114  1  0.50736878  0.29632983  0.10173694  1
  Nb  Nb115  1  0.89819383  0.90620053  0.50018537  1
  Nb  Nb116  1  0.50628493  0.90523218  0.89057487  1
  Nb  Nb117  1  0.89911004  0.09548981  0.89933070  1
  Nb  Nb118  1  0.09543712  0.50546029  0.69480797  1
  Nb  Nb119  1  0.89168438  0.08784596  0.08698611  1
  Nb  Nb120  1  0.10030387  0.30240256  0.49763287  1
  Nb  Nb121  1  0.69523535  0.69514583  0.29984741  1
  Nb  Nb122  1  0.70051197  0.09707470  0.29636606  1
  Nb  Nb123  1  0.70248768  0.09603200  0.10157250  1
  Nb  Nb124  1  0.10584081  0.30118886  0.30356922  1
  Nb  Nb125  1  0.40820940  0.20389779  0.00279520  1
  Nb  Nb126  1  0.19895760  0.40006035  -0.00154340  1
  Nb  Nb127  1  0.40917310  0.20373919  0.80754374  1
  Nb  Nb128  1  0.19111824  0.20133636  0.59421229  1
  Nb  Nb129  1  -0.00069464  0.39523422  0.59961420  1
  Nb  Nb130  1  0.20033452  0.00138755  0.60001295  1
  Nb  Nb131  1  0.00677213  0.60163116  0.40391198  1
  Nb  Nb132  1  0.60436809  0.20014996  0.60594350  1
  Nb  Nb133  1  0.19944322  0.60721585  0.20370781  1
  Nb  Nb134  1  0.59944327  0.79481725  0.39361449  1
  Nb  Nb135  1  0.60449305  0.59872736  0.79820077  1
  Nb  Nb136  1  0.19525103  0.80442149  0.59676854  1
  Nb  Nb137  1  -0.00686666  -0.00023641  0.18832014  1
  Nb  Nb138  1  0.60151379  0.59746894  0.00042966  1
  Nb  Nb139  1  0.79586874  0.19286644  0.19230325  1
  Nb  Nb140  1  0.59747174  0.39587217  0.39637350  1
  Nb  Nb141  1  0.60142569  0.59935247  0.19596075  1
  Nb  Nb142  1  0.80289706  -0.00158675  0.39643485  1
  Nb  Nb143  1  0.79323214  0.80260294  0.79780110  1
  Nb  Nb144  1  0.19808967  0.00035878  -0.00008021  1
  Nb  Nb145  1  0.00157958  0.59893568  0.79719944  1
  Nb  Nb146  1  -0.00068829  0.20424011  0.59775081  1
  Nb  Nb147  1  0.39791541  -0.00278577  0.60574904  1
  Nb  Nb148  1  0.19679993  0.60393307  0.39573608  1
  Nb  Nb149  1  -0.01105228  0.00290433  0.80271923  1
  Pd  Pd150  1  0.59524298  0.79639065  0.19991428  1
  Pd  Pd151  1  -0.00961538  0.19719213  0.18937546  1
  Pd  Pd152  1  0.79614650  0.20083221  0.81059184  1
  Pd  Pd153  1  0.60909489  0.79139213  0.59442236  1
  Pd  Pd154  1  0.80571834  -0.00235044  0.20547335  1
  Pd  Pd155  1  -0.00445618  0.80285383  0.19304230  1
  Pd  Pd156  1  0.59322041  0.80223651  0.00402097  1
  Pd  Pd157  1  -0.00497706  -0.00154517  0.38268710  1
  Pd  Pd158  1  0.20947709  0.20146723  0.00658771  1
  Pd  Pd159  1  0.60017304  0.19070947  0.19696770  1
  Pd  Pd160  1  0.59413261  0.39193404  0.58800361  1
  Pd  Pd161  1  0.39872595  0.00557672  0.80075093  1
  Pd  Pd162  1  0.40421138  0.80858993  -0.00509577  1
  Pd  Pd163  1  0.20601409  0.40260502  0.79641174  1
  Pd  Pd164  1  0.18962622  0.00611622  0.80433667  1
  Pd  Pd165  1  0.60305578  0.40593715  0.20553769  1
  Pd  Pd166  1  0.18910254  -0.00045967  0.19156750  1
  Pd  Pd167  1  0.20304506  0.79886314  0.19230384  1
  Pd  Pd168  1  0.20045912  0.79309716  0.40886325  1
  Pd  Pd169  1  0.39571001  0.59645001  0.19735822  1
  Pd  Pd170  1  0.60344573  0.79677964  0.79372989  1
  Pd  Pd171  1  0.60386517  0.19748414  0.80004189  1
  Pd  Pd172  1  0.61026044  -0.01142750  0.39189653  1
  Pd  Pd173  1  0.79860198  0.19388412  0.59527536  1
  Pd  Pd174  1  -0.00878895  0.20305640  0.00600494  1
  Pd  Pd175  1  0.39156607  0.80684648  0.59731218  1
  Pd  Pd176  1  0.01189750  0.00128833  -0.00280893  1
  Pd  Pd177  1  0.39065938  0.59557810  0.40549090  1
  Pd  Pd178  1  0.80765556  0.79818893  0.19424720  1
  Pd  Pd179  1  0.40754671  0.60129157  0.79592985  1
  Pd  Pd180  1  0.80139707  0.20340933  0.00195844  1
  Pd  Pd181  1  -0.00542435  0.40492009  0.79492343  1
  Pd  Pd182  1  0.80153940  0.19186099  0.39766563  1
  Pd  Pd183  1  0.61184695  0.40792392  -0.00201030  1
  Pd  Pd184  1  0.40471633  0.79853518  0.40513114  1
  Pd  Pd185  1  0.00473334  0.19858858  0.40423412  1
  Pd  Pd186  1  0.59795320  0.60508318  0.60393545  1
  Pd  Pd187  1  0.80487785  0.60408584  0.80695928  1
  Pd  Pd188  1  -0.01385151  0.80140447  0.80516297  1
  Pd  Pd189  1  0.39421192  0.40090388  0.79294201  1
  Pd  Pd190  1  0.61133160  0.00197408  0.80179194  1
  Pd  Pd191  1  0.78919926  0.80050094  0.60349369  1
  Pd  Pd192  1  0.79899742  0.60032097  0.00643945  1
  Pd  Pd193  1  0.39873951  0.80294755  0.19641586  1
  Pd  Pd194  1  0.79135971  0.80458497  0.39887727  1
  Pd  Pd195  1  0.80305912  0.60068799  0.59357930  1
  Pd  Pd196  1  0.59133445  0.20876280  0.40788524  1
  Pd  Pd197  1  0.19577047  0.60425197  0.79540669  1
  Pd  Pd198  1  0.39739756  0.39425242  0.19954327  1
  Pd  Pd199  1  0.00598378  0.40777040  0.40383270  1
  Rh  Rh200  1  0.59864867  0.00841638  0.60189241  1
  Rh  Rh201  1  -0.00223211  0.39207096  0.20057496  1
  Rh  Rh202  1  0.79516112  0.60724160  0.19439434  1
  Rh  Rh203  1  0.59737725  0.59838122  0.39378592  1
  Rh  Rh204  1  0.00469303  0.60781566  0.20768366  1
  Rh  Rh205  1  0.78911049  0.00656967  0.58958116  1
  Rh  Rh206  1  -0.00488098  0.79522607  0.40415195  1
  Rh  Rh207  1  0.20120916  0.20200842  0.20507949  1
  Rh  Rh208  1  0.20223277  0.79145564  0.79527520  1
  Rh  Rh209  1  -0.00186141  0.60112480  -0.00851909  1
  Rh  Rh210  1  0.79671849  0.39734584  0.39349377  1
  Rh  Rh211  1  0.20056315  0.00553080  0.39803295  1
  Rh  Rh212  1  0.59985943  0.19302280  0.00955063  1
  Rh  Rh213  1  0.79124793  -0.00635768  -0.00674577  1
  Rh  Rh214  1  0.19955023  0.40258726  0.19666306  1
  Rh  Rh215  1  0.39472714  0.00402059  -0.00553833  1
  Rh  Rh216  1  0.20312075  0.59284896  0.00645546  1
  Rh  Rh217  1  0.00049245  0.80366708  0.59290692  1
  Rh  Rh218  1  0.20486573  0.80795732  0.00176545  1
  Rh  Rh219  1  0.40206945  0.00092510  0.20669337  1
  Rh  Rh220  1  0.40460530  0.20440437  0.39042962  1
  Rh  Rh221  1  0.39970625  0.00276075  0.40065431  1
  Rh  Rh222  1  0.00727397  0.39424773  0.00305845  1
  Rh  Rh223  1  0.39038682  0.38921936  0.01018984  1
  Rh  Rh224  1  0.79969692  0.39278743  0.00191798  1
  Rh  Rh225  1  -0.01041374  0.19235575  0.79618301  1
  Rh  Rh226  1  0.80237915  0.38735692  0.20427044  1
  Rh  Rh227  1  0.60127419  0.00048223  0.20170699  1
  Rh  Rh228  1  0.19539960  0.40411066  0.39705478  1
  Rh  Rh229  1  0.40668965  0.40820752  0.60435943  1
  Rh  Rh230  1  0.20942192  0.20810541  0.79299026  1
  Rh  Rh231  1  0.79991038  0.39601856  0.80479841  1
  Rh  Rh232  1  -0.01211444  0.59056155  0.59828567  1
  Rh  Rh233  1  0.61058790  0.41053613  0.80882058  1
  Rh  Rh234  1  0.79963065  -0.00881915  0.80613049  1
  Rh  Rh235  1  0.19196964  0.39044491  0.60874800  1
  Rh  Rh236  1  0.40426294  0.19079854  0.61251968  1
  Rh  Rh237  1  0.00682211  0.01097004  0.61070212  1
  Rh  Rh238  1  0.80441126  0.40344870  0.60076401  1
  Rh  Rh239  1  0.40755842  0.39442039  0.39830188  1
  Rh  Rh240  1  0.40476783  0.60116781  -0.00403214  1
  Rh  Rh241  1  0.40354301  0.80367087  0.80351723  1
  Rh  Rh242  1  0.80841966  0.60394553  0.40280426  1
  Rh  Rh243  1  0.20735332  0.60904928  0.59795766  1
  Rh  Rh244  1  0.40278499  0.59474005  0.60630905  1
  Rh  Rh245  1  0.40649450  0.19973786  0.19754389  1
  Rh  Rh246  1  0.80216149  0.80525804  -0.00008009  1
  Rh  Rh247  1  -0.00172411  0.79673294  0.00408667  1
  Rh  Rh248  1  0.60657531  -0.00547723  0.00075597  1
  Rh  Rh249  1  0.19615015  0.20112876  0.40115227  1
