# generated using pymatgen
data_ZrScNbPdRh
_symmetry_space_group_name_H-M   'P 1'
_cell_length_a   16.55419762
_cell_length_b   16.55559219
_cell_length_c   16.55430164
_cell_angle_alpha   89.97879958
_cell_angle_beta   89.99899603
_cell_angle_gamma   89.95216791
_symmetry_Int_Tables_number   1
_chemical_formula_structural   ZrScNbPdRh
_chemical_formula_sum   'Zr50 Sc50 Nb50 Pd50 Rh50'
_cell_volume   4536.94525231
_cell_formula_units_Z   50
loop_
 _symmetry_equiv_pos_site_id
 _symmetry_equiv_pos_as_xyz
  1  'x, y, z'
loop_
 _atom_site_type_symbol
 _atom_site_label
 _atom_site_symmetry_multiplicity
 _atom_site_fract_x
 _atom_site_fract_y
 _atom_site_fract_z
 _atom_site_occupancy
  Zr  Zr0  1  0.30631923  0.70773561  0.10543496  1
  Zr  Zr1  1  0.70424872  0.89076080  0.49933334  1
  Zr  Zr2  1  0.70279811  0.69140853  0.49122282  1
  Zr  Zr3  1  0.29776081  0.69819564  0.29769214  1
  Zr  Zr4  1  0.10501055  0.50355130  0.90060980  1
  Zr  Zr5  1  0.30582815  0.50431174  0.70126354  1
  Zr  Zr6  1  0.09795034  0.89690964  0.30855337  1
  Zr  Zr7  1  0.69575397  0.49183417  0.49396019  1
  Zr  Zr8  1  0.50051411  0.30287648  0.09838955  1
  Zr  Zr9  1  0.89746274  0.31172405  0.69969389  1
  Zr  Zr10  1  0.30513965  0.09762852  0.88933960  1
  Zr  Zr11  1  0.29835922  0.30432415  0.29857852  1
  Zr  Zr12  1  0.69202542  0.09702997  0.89918446  1
  Zr  Zr13  1  0.10536928  0.90102633  0.69472371  1
  Zr  Zr14  1  0.50426002  0.09961244  0.08917608  1
  Zr  Zr15  1  0.09819758  0.69469282  0.30530823  1
  Zr  Zr16  1  0.90527853  0.10863211  0.10463499  1
  Zr  Zr17  1  0.29120054  0.89613005  0.28930289  1
  Zr  Zr18  1  0.50554766  0.10366910  0.70557635  1
  Zr  Zr19  1  0.49751624  0.50313293  0.29159092  1
  Zr  Zr20  1  0.10156348  0.09799095  0.29557030  1
  Zr  Zr21  1  0.69884852  0.30881628  0.10539606  1
  Zr  Zr22  1  0.70069390  0.50226837  0.09898169  1
  Zr  Zr23  1  0.50050276  0.50089897  0.50791558  1
  Zr  Zr24  1  0.30020826  0.29614803  0.48982635  1
  Zr  Zr25  1  0.09280318  0.29819854  0.70590332  1
  Zr  Zr26  1  0.50125418  0.70151618  0.29082301  1
  Zr  Zr27  1  0.30379113  0.49819244  0.89521299  1
  Zr  Zr28  1  0.69813326  0.09006371  0.30236500  1
  Zr  Zr29  1  0.89999756  0.89467132  0.09635739  1
  Zr  Zr30  1  0.69796516  0.70574363  0.68654842  1
  Zr  Zr31  1  0.89973413  0.50339981  0.10466435  1
  Zr  Zr32  1  0.30142686  0.50205280  0.10594302  1
  Zr  Zr33  1  0.88840080  0.70101438  0.09644026  1
  Zr  Zr34  1  0.88115443  0.30115006  0.49966207  1
  Zr  Zr35  1  0.69920490  0.09670754  0.70869469  1
  Zr  Zr36  1  0.49955332  0.09890569  0.89491258  1
  Zr  Zr37  1  0.50000068  0.68318785  0.70855928  1
  Zr  Zr38  1  0.28413977  0.49574330  0.29770816  1
  Zr  Zr39  1  0.29976420  0.49492209  0.50472189  1
  Zr  Zr40  1  0.09502336  0.49874091  0.11026756  1
  Zr  Zr41  1  0.50305162  0.50302865  0.87778291  1
  Zr  Zr42  1  0.90642894  0.29617143  0.89757075  1
  Zr  Zr43  1  0.90135671  0.49673573  0.50699692  1
  Zr  Zr44  1  0.30094942  0.10139325  0.09569020  1
  Zr  Zr45  1  0.10173614  0.29827137  0.89831097  1
  Zr  Zr46  1  0.89582134  0.09073818  0.89677886  1
  Zr  Zr47  1  0.69884922  0.90846057  0.88903389  1
  Zr  Zr48  1  0.49537614  0.89533958  0.90722279  1
  Zr  Zr49  1  0.68796627  0.51322524  0.29729002  1
  Sc  Sc50  1  0.29168571  0.69995250  0.50758097  1
  Sc  Sc51  1  0.11487578  0.89678795  0.10768049  1
  Sc  Sc52  1  0.10328582  0.31494266  0.30200910  1
  Sc  Sc53  1  0.89754490  0.90046727  0.31306167  1
  Sc  Sc54  1  0.68894876  0.49992609  0.70536195  1
  Sc  Sc55  1  0.50194868  0.71261683  0.10040344  1
  Sc  Sc56  1  0.90646211  0.09927230  0.69614861  1
  Sc  Sc57  1  0.09010458  0.28879430  0.09179022  1
  Sc  Sc58  1  0.29777618  0.29341928  0.89232931  1
  Sc  Sc59  1  0.50025994  0.89958085  0.49366249  1
  Sc  Sc60  1  0.70025502  0.31457651  0.89766246  1
  Sc  Sc61  1  0.09699508  0.89667333  0.50170543  1
  Sc  Sc62  1  0.71377503  0.30905902  0.30366402  1
  Sc  Sc63  1  0.70903767  0.10777548  0.51012159  1
  Sc  Sc64  1  0.90650376  0.90149237  0.50318789  1
  Sc  Sc65  1  0.90053869  0.30313921  0.10988174  1
  Sc  Sc66  1  0.89973560  0.09631716  0.50170501  1
  Sc  Sc67  1  0.69762228  0.70463720  0.90609443  1
  Sc  Sc68  1  0.49276280  0.88346795  0.70529146  1
  Sc  Sc69  1  0.10600230  0.30195501  0.50853038  1
  Sc  Sc70  1  0.50268244  0.09492726  0.30378493  1
  Sc  Sc71  1  0.29109882  0.70261336  0.90283770  1
  Sc  Sc72  1  0.90451822  0.90585812  0.69713368  1
  Sc  Sc73  1  0.09807007  0.70377896  0.89538508  1
  Sc  Sc74  1  0.10217468  0.70327910  0.50621392  1
  Sc  Sc75  1  0.50224295  0.09566303  0.48987078  1
  Sc  Sc76  1  0.09887334  0.69579333  0.70018268  1
  Sc  Sc77  1  0.89469390  0.69213905  0.29962360  1
  Sc  Sc78  1  0.09853349  0.50528983  0.50003811  1
  Sc  Sc79  1  0.89256371  0.69649748  0.51498374  1
  Sc  Sc80  1  0.90361028  0.89572382  0.89813990  1
  Sc  Sc81  1  0.09998681  0.11565496  0.89560361  1
  Sc  Sc82  1  0.30970502  0.10802498  0.30689633  1
  Sc  Sc83  1  0.30069224  0.70560155  0.69479456  1
  Sc  Sc84  1  0.10237441  0.09987965  0.69714615  1
  Sc  Sc85  1  0.89762427  0.10388448  0.30464632  1
  Sc  Sc86  1  0.29520911  0.89774949  0.70632300  1
  Sc  Sc87  1  0.49517370  0.69898008  0.51490498  1
  Sc  Sc88  1  0.49291682  0.29800167  0.30011737  1
  Sc  Sc89  1  0.69490055  0.89038127  0.09826651  1
  Sc  Sc90  1  0.51816828  0.90224241  0.30180102  1
  Sc  Sc91  1  0.50515885  0.30404718  0.50510374  1
  Sc  Sc92  1  0.10107467  0.09788701  0.50649619  1
  Sc  Sc93  1  0.30237816  0.89371979  0.09494581  1
  Sc  Sc94  1  0.69582208  0.29278422  0.68884330  1
  Sc  Sc95  1  0.89150865  0.49058810  0.89895625  1
  Sc  Sc96  1  0.10146916  0.88873731  0.89762439  1
  Sc  Sc97  1  0.10142707  0.70448565  0.08979169  1
  Sc  Sc98  1  0.29308768  0.30326754  0.69791830  1
  Sc  Sc99  1  0.50685342  0.30082465  0.70104749  1
  Nb  Nb100  1  0.10183636  0.10027617  0.10002227  1
  Nb  Nb101  1  0.29854726  0.89891012  0.50248190  1
  Nb  Nb102  1  0.49699850  0.29983259  0.89700777  1
  Nb  Nb103  1  0.93055826  0.49583474  0.29670833  1
  Nb  Nb104  1  0.49989893  0.69746899  0.90401018  1
  Nb  Nb105  1  0.70373288  0.69798172  0.10518321  1
  Nb  Nb106  1  0.89629445  0.69189574  0.70415315  1
  Nb  Nb107  1  0.09012249  0.50376219  0.29944309  1
  Nb  Nb108  1  0.30148100  0.09077852  0.69629158  1
  Nb  Nb109  1  0.70213548  0.50530333  0.90087433  1
  Nb  Nb110  1  0.69792843  0.29778931  0.49934573  1
  Nb  Nb111  1  0.90720206  0.30076139  0.30398554  1
  Nb  Nb112  1  0.29921804  0.90369133  0.90026984  1
  Nb  Nb113  1  0.49484693  0.50272326  0.69652109  1
  Nb  Nb114  1  0.49272688  0.89872327  0.09694004  1
  Nb  Nb115  1  0.70282730  0.10222333  0.09965516  1
  Nb  Nb116  1  0.30336313  0.09751256  0.49956823  1
  Nb  Nb117  1  0.29878640  0.30193470  0.10069897  1
  Nb  Nb118  1  0.50477275  0.50211412  0.09944441  1
  Nb  Nb119  1  0.69802535  0.71120242  0.28931317  1
  Nb  Nb120  1  0.09430425  0.50074177  0.69548496  1
  Nb  Nb121  1  0.90544914  0.50553536  0.69806581  1
  Nb  Nb122  1  0.70210563  0.89198653  0.30172541  1
  Nb  Nb123  1  0.69853602  0.90009941  0.69935180  1
  Nb  Nb124  1  0.90007929  0.70123109  0.90042312  1
  Nb  Nb125  1  0.60540336  0.19817376  0.20081111  1
  Nb  Nb126  1  0.40479588  -0.00243475  0.19453404  1
  Nb  Nb127  1  -0.00296852  0.80196116  0.20205927  1
  Nb  Nb128  1  -0.00170781  -0.00307023  0.19854531  1
  Nb  Nb129  1  0.39600621  0.19039109  0.59805602  1
  Nb  Nb130  1  -0.00911632  0.60197972  -0.00402984  1
  Nb  Nb131  1  0.79971219  0.19994526  0.80335200  1
  Nb  Nb132  1  0.60994485  0.20373734  0.39858961  1
  Nb  Nb133  1  0.40202199  0.40213186  -0.00333362  1
  Nb  Nb134  1  0.19875037  0.00448111  -0.00289115  1
  Nb  Nb135  1  0.59842800  0.59921464  -0.00025414  1
  Nb  Nb136  1  0.40852003  0.59667549  -0.00009850  1
  Nb  Nb137  1  -0.00236159  0.20715082  0.39968491  1
  Nb  Nb138  1  0.20240672  0.20279300  0.19598303  1
  Nb  Nb139  1  0.39622332  0.60097973  0.39839922  1
  Nb  Nb140  1  0.39460939  0.79669685  0.39802825  1
  Nb  Nb141  1  0.80170373  0.79532058  0.79249211  1
  Nb  Nb142  1  0.79866425  -0.00407577  0.19866283  1
  Nb  Nb143  1  0.80149953  0.60328328  0.80022384  1
  Nb  Nb144  1  0.79693238  0.19857639  -0.00023351  1
  Nb  Nb145  1  0.20630641  -0.00014435  0.40296151  1
  Nb  Nb146  1  0.20558433  0.39710210  0.00427013  1
  Nb  Nb147  1  0.00949345  0.00127624  0.00589061  1
  Nb  Nb148  1  0.59967972  -0.00383326  0.60523676  1
  Nb  Nb149  1  0.39887395  0.00112702  0.60076421  1
  Pd  Pd150  1  0.19554688  0.40473841  0.60376351  1
  Pd  Pd151  1  0.20544444  0.19735991  0.60359045  1
  Pd  Pd152  1  -0.00301594  0.79463778  0.60665210  1
  Pd  Pd153  1  0.60218598  -0.00902766  0.00364628  1
  Pd  Pd154  1  0.40175974  0.38858389  0.60645164  1
  Pd  Pd155  1  0.80364446  0.59297859  0.21117829  1
  Pd  Pd156  1  0.80537673  0.39397119  0.00172272  1
  Pd  Pd157  1  0.79177757  0.80553344  -0.01077646  1
  Pd  Pd158  1  0.19130366  0.00129255  0.80801852  1
  Pd  Pd159  1  0.58784488  0.60960501  0.40291879  1
  Pd  Pd160  1  0.80902078  0.58937544  0.39256846  1
  Pd  Pd161  1  0.60399362  0.79494761  0.80219597  1
  Pd  Pd162  1  0.78778396  0.40715844  0.60864233  1
  Pd  Pd163  1  0.00573451  0.39255238  0.41461683  1
  Pd  Pd164  1  0.40455801  0.40676813  0.39928016  1
  Pd  Pd165  1  -0.00442730  0.80049515  0.79077027  1
  Pd  Pd166  1  0.79517460  0.19712045  0.20288599  1
  Pd  Pd167  1  0.40381822  0.19219724  0.20002376  1
  Pd  Pd168  1  -0.00691318  0.20500991  0.59191170  1
  Pd  Pd169  1  0.60820571  0.20858044  -0.00147026  1
  Pd  Pd170  1  0.60302384  0.39547506  0.79399675  1
  Pd  Pd171  1  0.20054839  0.59774562  0.00497123  1
  Pd  Pd172  1  0.80278650  0.00074658  0.00745384  1
  Pd  Pd173  1  0.80827710  0.79326936  0.40275586  1
  Pd  Pd174  1  0.20220296  0.59655250  0.40704147  1
  Pd  Pd175  1  0.19235465  0.60725069  0.19413611  1
  Pd  Pd176  1  0.39596369  0.20673903  0.78780152  1
  Pd  Pd177  1  0.80629185  0.41567263  0.38842203  1
  Pd  Pd178  1  0.40316048  0.40144069  0.19664411  1
  Pd  Pd179  1  -0.00646890  0.60872457  0.41451811  1
  Pd  Pd180  1  0.79823783  -0.00080903  0.40293366  1
  Pd  Pd181  1  0.59198842  0.80480908  0.59613545  1
  Pd  Pd182  1  -0.01090485  0.78801426  0.40083898  1
  Pd  Pd183  1  0.20254504  0.60651672  0.79281157  1
  Pd  Pd184  1  0.19105063  0.19595769  0.39531627  1
  Pd  Pd185  1  0.00963962  -0.00047668  0.80636632  1
  Pd  Pd186  1  0.59466862  0.39211956  0.39180523  1
  Pd  Pd187  1  0.19878617  0.40025924  0.80056259  1
  Pd  Pd188  1  0.59302091  0.78935651  0.40577117  1
  Pd  Pd189  1  0.39161323  0.79338358  0.80748534  1
  Pd  Pd190  1  0.79012745  0.58713518  0.60618422  1
  Pd  Pd191  1  -0.00498858  0.59388447  0.80830877  1
  Pd  Pd192  1  0.59255840  0.40820798  -0.00897947  1
  Pd  Pd193  1  0.79709259  -0.00295699  0.60276587  1
  Pd  Pd194  1  0.00310479  0.40601525  0.00138171  1
  Pd  Pd195  1  0.39652454  0.20724756  -0.00576336  1
  Pd  Pd196  1  0.60133971  -0.00110511  0.19110119  1
  Pd  Pd197  1  0.39421340  -0.01299368  0.39379860  1
  Pd  Pd198  1  0.80503534  0.41309530  0.21160454  1
  Pd  Pd199  1  0.00157627  0.40974838  0.80233628  1
  Rh  Rh200  1  0.80501211  -0.00244979  0.79213260  1
  Rh  Rh201  1  0.59078700  0.19072570  0.58744292  1
  Rh  Rh202  1  0.41094860  0.81481311  0.21069410  1
  Rh  Rh203  1  0.20898304  0.01276675  0.20035369  1
  Rh  Rh204  1  0.59920459  0.60975203  0.18860160  1
  Rh  Rh205  1  0.20484980  -0.00334557  0.59456768  1
  Rh  Rh206  1  0.18906497  0.39008997  0.19051586  1
  Rh  Rh207  1  -0.00850341  0.19268531  -0.00587422  1
  Rh  Rh208  1  -0.00724025  0.19717529  0.79429224  1
  Rh  Rh209  1  0.80643795  0.19991463  0.61055131  1
  Rh  Rh210  1  0.00659283  -0.00099147  0.59811792  1
  Rh  Rh211  1  0.60011875  0.80403840  0.19427071  1
  Rh  Rh212  1  0.79746896  0.60085736  -0.00768818  1
  Rh  Rh213  1  0.61665682  0.00420670  0.41631491  1
  Rh  Rh214  1  0.19779182  0.59602919  0.60560484  1
  Rh  Rh215  1  0.60467202  0.59459521  0.59765746  1
  Rh  Rh216  1  0.60849538  0.21154231  0.81138150  1
  Rh  Rh217  1  0.80092115  0.19959141  0.39820148  1
  Rh  Rh218  1  0.39311841  0.60093129  0.59603057  1
  Rh  Rh219  1  0.19891679  0.80189946  0.60293116  1
  Rh  Rh220  1  0.20338772  0.80813756  -0.00386552  1
  Rh  Rh221  1  0.80893348  0.80693905  0.60577113  1
  Rh  Rh222  1  0.60128470  0.40338712  0.60260574  1
  Rh  Rh223  1  0.18806581  0.78773457  0.20104331  1
  Rh  Rh224  1  0.58506435  -0.01369632  0.79284057  1
  Rh  Rh225  1  0.00938178  0.20339018  0.21301970  1
  Rh  Rh226  1  0.20092570  0.79798867  0.79791659  1
  Rh  Rh227  1  0.20583320  0.20143251  0.00330082  1
  Rh  Rh228  1  0.39771222  0.80816944  0.59329926  1
  Rh  Rh229  1  0.38984574  0.60925724  0.80447893  1
  Rh  Rh230  1  0.39574494  0.79344925  -0.00639731  1
  Rh  Rh231  1  0.00278456  0.79956742  0.00513077  1
  Rh  Rh232  1  0.79626395  0.40327449  0.79241239  1
  Rh  Rh233  1  0.00521596  0.38822919  0.19544326  1
  Rh  Rh234  1  0.40260865  0.39179999  0.79662252  1
  Rh  Rh235  1  0.20558153  0.80561245  0.40603495  1
  Rh  Rh236  1  0.39242907  -0.00269867  0.00064380  1
  Rh  Rh237  1  0.00873906  0.01091131  0.39946810  1
  Rh  Rh238  1  0.00278077  0.40103195  0.59895666  1
  Rh  Rh239  1  0.40468231  -0.00675570  0.79523253  1
  Rh  Rh240  1  0.60172098  0.79783945  0.00214728  1
  Rh  Rh241  1  0.00362483  0.60144064  0.59969566  1
  Rh  Rh242  1  0.40183589  0.59878590  0.19771665  1
  Rh  Rh243  1  0.61240115  0.60835604  0.80503580  1
  Rh  Rh244  1  0.00138949  0.61598477  0.18916842  1
  Rh  Rh245  1  0.41247473  0.20595664  0.40985203  1
  Rh  Rh246  1  0.80395978  0.80655985  0.20670889  1
  Rh  Rh247  1  0.59735808  0.39307850  0.20842295  1
  Rh  Rh248  1  0.20313483  0.19603595  0.78889440  1
  Rh  Rh249  1  0.19221293  0.40727408  0.40451495  1
