# generated using pymatgen
data_ZrScNbPdRh
_symmetry_space_group_name_H-M   'P 1'
_cell_length_a   16.56074641
_cell_length_b   16.56897437
_cell_length_c   16.56434586
_cell_angle_alpha   90.01419600
_cell_angle_beta   89.99735652
_cell_angle_gamma   90.06658557
_symmetry_Int_Tables_number   1
_chemical_formula_structural   ZrScNbPdRh
_chemical_formula_sum   'Zr50 Sc50 Nb50 Pd50 Rh50'
_cell_volume   4545.16355820
_cell_formula_units_Z   50
loop_
 _symmetry_equiv_pos_site_id
 _symmetry_equiv_pos_as_xyz
  1  'x, y, z'
loop_
 _atom_site_type_symbol
 _atom_site_label
 _atom_site_symmetry_multiplicity
 _atom_site_fract_x
 _atom_site_fract_y
 _atom_site_fract_z
 _atom_site_occupancy
  Zr  Zr0  1  0.29915463  0.69831376  0.29853788  1
  Zr  Zr1  1  0.90416964  0.50080018  0.30442606  1
  Zr  Zr2  1  0.30398659  0.90461979  0.09813265  1
  Zr  Zr3  1  0.49807563  0.49406255  0.70098251  1
  Zr  Zr4  1  0.49536394  0.09523003  0.89941663  1
  Zr  Zr5  1  0.30222515  0.29975687  0.10271514  1
  Zr  Zr6  1  0.10047525  0.10027499  0.70451373  1
  Zr  Zr7  1  0.49850638  0.49888960  0.30617766  1
  Zr  Zr8  1  0.69699229  0.30161347  0.09121738  1
  Zr  Zr9  1  0.50730754  0.89305489  0.90751840  1
  Zr  Zr10  1  0.10853721  0.10338030  0.89824037  1
  Zr  Zr11  1  0.09831286  0.90785288  0.89628464  1
  Zr  Zr12  1  0.49874259  0.69796017  0.89753688  1
  Zr  Zr13  1  0.50230958  0.70479716  0.69966949  1
  Zr  Zr14  1  0.90054505  0.89458834  0.90237590  1
  Zr  Zr15  1  0.10023079  0.49559321  0.71427246  1
  Zr  Zr16  1  0.49331867  0.30240333  0.29582317  1
  Zr  Zr17  1  0.70807198  0.09986698  0.70632030  1
  Zr  Zr18  1  0.10419293  0.69891322  0.29999963  1
  Zr  Zr19  1  0.09193189  0.68798783  0.90284829  1
  Zr  Zr20  1  0.89784317  0.10394207  0.90006088  1
  Zr  Zr21  1  0.29734889  0.10286171  0.08991409  1
  Zr  Zr22  1  0.68912470  0.30198489  0.29334224  1
  Zr  Zr23  1  0.69564404  0.49554194  0.69957228  1
  Zr  Zr24  1  0.70073650  0.09537406  0.09432514  1
  Zr  Zr25  1  0.90034566  0.70395606  0.08450780  1
  Zr  Zr26  1  0.48845766  0.31175514  0.49944369  1
  Zr  Zr27  1  0.10226001  0.69418295  0.69419439  1
  Zr  Zr28  1  0.49788463  0.10599951  0.70007463  1
  Zr  Zr29  1  0.09891752  0.89864277  0.09219395  1
  Zr  Zr30  1  0.90283393  0.89181623  0.50327894  1
  Zr  Zr31  1  0.50524606  0.69896914  0.08970754  1
  Zr  Zr32  1  0.90127698  0.10516023  0.10274125  1
  Zr  Zr33  1  0.30082544  0.90750701  0.49780476  1
  Zr  Zr34  1  0.69377263  0.70753561  0.89690390  1
  Zr  Zr35  1  0.89253795  0.50431911  0.10236448  1
  Zr  Zr36  1  0.89640959  0.69818241  0.69988671  1
  Zr  Zr37  1  0.49029091  0.09816870  0.09906381  1
  Zr  Zr38  1  0.29587039  0.49617397  0.09316505  1
  Zr  Zr39  1  0.69908778  0.91226908  0.89935864  1
  Zr  Zr40  1  0.90148549  0.69963641  0.50382698  1
  Zr  Zr41  1  0.70142817  0.49981872  0.50856257  1
  Zr  Zr42  1  0.70804489  0.90093713  0.70081907  1
  Zr  Zr43  1  0.70145692  0.10059652  0.30554612  1
  Zr  Zr44  1  0.10788597  0.29674728  0.10166267  1
  Zr  Zr45  1  0.49763505  0.49996791  0.10148451  1
  Zr  Zr46  1  0.89835371  0.10074827  0.29658233  1
  Zr  Zr47  1  0.90003803  0.29729018  0.90433042  1
  Zr  Zr48  1  0.29866724  0.70000312  0.69588114  1
  Zr  Zr49  1  0.91092953  0.51152546  0.89581929  1
  Sc  Sc50  1  0.50128406  0.89123186  0.51057726  1
  Sc  Sc51  1  0.69631005  0.69426284  0.69877095  1
  Sc  Sc52  1  0.90422407  0.29764694  0.70820435  1
  Sc  Sc53  1  0.69749566  0.49002432  0.89627633  1
  Sc  Sc54  1  0.29860174  0.09642779  0.49916289  1
  Sc  Sc55  1  0.30400234  0.50260634  0.30096593  1
  Sc  Sc56  1  0.90064255  0.10131181  0.70876009  1
  Sc  Sc57  1  0.69278734  0.30465509  0.49884482  1
  Sc  Sc58  1  0.89085167  0.49828133  0.70229085  1
  Sc  Sc59  1  0.09842035  0.09839897  0.49523891  1
  Sc  Sc60  1  0.49913626  0.89855952  0.70540579  1
  Sc  Sc61  1  0.10558964  0.90623773  0.69796275  1
  Sc  Sc62  1  0.09925488  0.70312163  0.49122614  1
  Sc  Sc63  1  0.29716477  0.90583293  0.30404544  1
  Sc  Sc64  1  0.10358803  0.29478815  0.30288633  1
  Sc  Sc65  1  0.89503686  0.90963374  0.09632174  1
  Sc  Sc66  1  0.69700816  0.70186860  0.50471774  1
  Sc  Sc67  1  0.10388884  0.29874886  0.89595267  1
  Sc  Sc68  1  0.90127050  0.29806769  0.09977376  1
  Sc  Sc69  1  0.30271942  0.30607253  0.70884940  1
  Sc  Sc70  1  0.69578212  0.49479287  0.10166977  1
  Sc  Sc71  1  0.30262009  0.09873108  0.70253245  1
  Sc  Sc72  1  0.50771632  0.68491093  0.30812144  1
  Sc  Sc73  1  0.90958563  0.69541237  0.30225711  1
  Sc  Sc74  1  0.30002837  0.29770156  0.30106962  1
  Sc  Sc75  1  0.29596931  0.70100696  0.50120041  1
  Sc  Sc76  1  0.90055593  0.29935383  0.30559507  1
  Sc  Sc77  1  0.30604869  0.90120363  0.68892118  1
  Sc  Sc78  1  0.49062986  0.10806916  0.30433698  1
  Sc  Sc79  1  0.10340683  0.90334751  0.49159251  1
  Sc  Sc80  1  0.49149219  0.11448468  0.50063799  1
  Sc  Sc81  1  0.49635768  0.30462870  0.69721842  1
  Sc  Sc82  1  0.30916092  0.90954021  0.89768369  1
  Sc  Sc83  1  0.11065465  0.69107302  0.10355046  1
  Sc  Sc84  1  0.90424708  0.10618634  0.48910388  1
  Sc  Sc85  1  0.70813161  0.90106492  0.30786119  1
  Sc  Sc86  1  0.30425836  0.09790570  0.30767099  1
  Sc  Sc87  1  0.08878736  0.09898504  0.30251570  1
  Sc  Sc88  1  0.69359658  0.50109209  0.29271104  1
  Sc  Sc89  1  0.09630079  0.10718678  0.09496471  1
  Sc  Sc90  1  0.30518157  0.68980871  0.09744121  1
  Sc  Sc91  1  0.69918386  0.90409478  0.09324984  1
  Sc  Sc92  1  0.30105371  0.29870409  0.90201063  1
  Sc  Sc93  1  0.90212032  0.90839890  0.30416012  1
  Sc  Sc94  1  0.09648295  0.29723556  0.71053189  1
  Sc  Sc95  1  0.50002577  0.49630573  0.90139700  1
  Sc  Sc96  1  0.50568318  0.69633803  0.49921993  1
  Sc  Sc97  1  0.49709158  0.30000404  0.10084478  1
  Sc  Sc98  1  0.69801414  0.68690267  0.09956388  1
  Sc  Sc99  1  0.70832376  0.89236614  0.50390310  1
  Nb  Nb100  1  0.49972509  0.90380430  0.30466945  1
  Nb  Nb101  1  0.49206156  0.50039447  0.49788490  1
  Nb  Nb102  1  0.50222705  0.89908217  0.10454265  1
  Nb  Nb103  1  0.90106958  0.70176491  0.89920933  1
  Nb  Nb104  1  0.70197442  0.10500686  0.90020830  1
  Nb  Nb105  1  0.09561760  0.51080919  0.29751561  1
  Nb  Nb106  1  0.70099495  0.30178809  0.70203047  1
  Nb  Nb107  1  0.29302968  0.49662509  0.89595985  1
  Nb  Nb108  1  0.90079345  0.90028394  0.69859230  1
  Nb  Nb109  1  0.69731727  0.10449928  0.50300146  1
  Nb  Nb110  1  0.29741278  0.49812675  0.70031899  1
  Nb  Nb111  1  0.10637134  0.49478691  0.90621039  1
  Nb  Nb112  1  0.69827839  0.69805891  0.30296936  1
  Nb  Nb113  1  0.70136864  0.29197471  0.90148137  1
  Nb  Nb114  1  0.09773280  0.49721492  0.48969606  1
  Nb  Nb115  1  0.30174254  0.69552228  0.90150782  1
  Nb  Nb116  1  0.09949341  0.29886504  0.49972575  1
  Nb  Nb117  1  0.50370219  0.30017006  0.90182673  1
  Nb  Nb118  1  0.09972840  0.89745428  0.29641964  1
  Nb  Nb119  1  0.90411374  0.30383162  0.49993216  1
  Nb  Nb120  1  0.30175992  0.10107796  0.90230787  1
  Nb  Nb121  1  0.89993668  0.49583565  0.49674721  1
  Nb  Nb122  1  0.10888213  0.49564741  0.10110049  1
  Nb  Nb123  1  0.29182720  0.30616416  0.49798392  1
  Nb  Nb124  1  0.30587307  0.49308820  0.49956359  1
  Nb  Nb125  1  -0.00499830  -0.00098594  0.60157849  1
  Nb  Nb126  1  0.60539160  0.20361955  0.80515120  1
  Nb  Nb127  1  0.60047013  0.80223711  0.20488845  1
  Nb  Nb128  1  0.19720343  0.20972605  0.59640492  1
  Nb  Nb129  1  0.40992300  0.80235833  0.20379224  1
  Nb  Nb130  1  0.00043715  0.79749680  0.79986872  1
  Nb  Nb131  1  0.79968459  0.79625614  0.20113410  1
  Nb  Nb132  1  0.39170945  0.59581467  0.79756922  1
  Nb  Nb133  1  0.40281632  0.80041842  0.39396907  1
  Nb  Nb134  1  0.00336367  0.39978829  0.59138686  1
  Nb  Nb135  1  0.00207885  0.58623160  0.59420303  1
  Nb  Nb136  1  0.19560959  -0.00114630  0.19797708  1
  Nb  Nb137  1  0.39602176  0.59094359  0.60197579  1
  Nb  Nb138  1  0.79374502  0.19891125  0.20025565  1
  Nb  Nb139  1  0.19574278  0.40186000  0.59453255  1
  Nb  Nb140  1  0.60601546  0.00797633  0.59677558  1
  Nb  Nb141  1  0.00792291  0.40861641  0.19856930  1
  Nb  Nb142  1  0.00722939  0.40647486  0.00462941  1
  Nb  Nb143  1  0.19935458  0.79613509  0.80592789  1
  Nb  Nb144  1  0.59424389  -0.00447852  0.20658118  1
  Nb  Nb145  1  0.79940129  0.20442942  0.59675799  1
  Nb  Nb146  1  0.00015751  0.80186747  0.19624774  1
  Nb  Nb147  1  0.20353753  0.79730231  -0.00978639  1
  Nb  Nb148  1  0.59878015  0.00292960  0.40609988  1
  Nb  Nb149  1  0.80042281  0.59663309  0.40257544  1
  Pd  Pd150  1  0.79773759  0.21042044  0.40173925  1
  Pd  Pd151  1  0.20271695  0.18578344  0.20775878  1
  Pd  Pd152  1  0.60092456  0.40489847  0.40308295  1
  Pd  Pd153  1  0.20302593  0.80461728  0.19078843  1
  Pd  Pd154  1  0.60524516  0.59026378  -0.00785520  1
  Pd  Pd155  1  0.59650536  0.00464312  0.79358906  1
  Pd  Pd156  1  0.39498929  0.80015120  0.00479398  1
  Pd  Pd157  1  0.20517404  0.59541560  0.40333631  1
  Pd  Pd158  1  0.40521106  0.60455301  0.19958853  1
  Pd  Pd159  1  0.21270769  -0.00509982  0.79487543  1
  Pd  Pd160  1  0.59751236  0.39164429  0.80125704  1
  Pd  Pd161  1  0.79111971  0.60077623  0.80506262  1
  Pd  Pd162  1  0.40073724  0.39805421  -0.00474845  1
  Pd  Pd163  1  0.59218616  0.19628974  -0.00289138  1
  Pd  Pd164  1  0.00578831  0.39374468  0.39392254  1
  Pd  Pd165  1  0.20643984  0.80390060  0.40063781  1
  Pd  Pd166  1  0.59943022  0.19160083  0.19643326  1
  Pd  Pd167  1  0.79834479  0.00075908  0.41167128  1
  Pd  Pd168  1  0.80647317  0.78955039  0.39347356  1
  Pd  Pd169  1  0.39629682  -0.00005340  0.20486221  1
  Pd  Pd170  1  0.20278870  0.60311128  0.80557388  1
  Pd  Pd171  1  -0.00197262  0.00900235  -0.00188893  1
  Pd  Pd172  1  0.80541061  0.39789300  0.80567942  1
  Pd  Pd173  1  0.19577158  0.80810224  0.59922672  1
  Pd  Pd174  1  0.80736217  0.39026299  0.60391740  1
  Pd  Pd175  1  0.79078257  0.40241596  0.39560226  1
  Pd  Pd176  1  0.38449530  0.20765600  0.59935441  1
  Pd  Pd177  1  0.19954883  0.40579799  0.39419233  1
  Pd  Pd178  1  0.79993381  0.60753130  0.20756008  1
  Pd  Pd179  1  -0.00219641  0.19866589  0.59899882  1
  Pd  Pd180  1  0.19721239  0.58915700  0.58830138  1
  Pd  Pd181  1  0.41161107  0.00228295  0.59663529  1
  Pd  Pd182  1  0.80185492  0.79862714  0.79820786  1
  Pd  Pd183  1  0.00044486  0.60382169  0.19054400  1
  Pd  Pd184  1  0.20095039  0.19224919  0.40206288  1
  Pd  Pd185  1  0.00577533  0.59290394  0.01189630  1
  Pd  Pd186  1  0.80583374  0.39170224  0.20320775  1
  Pd  Pd187  1  0.00512014  -0.00504941  0.19691927  1
  Pd  Pd188  1  0.78952242  0.59497648  -0.01072364  1
  Pd  Pd189  1  0.19914647  0.40463059  0.21358986  1
  Pd  Pd190  1  0.60451216  0.20305468  0.60723821  1
  Pd  Pd191  1  0.78918503  0.80040458  0.00509441  1
  Pd  Pd192  1  0.40354010  0.20509953  0.80441279  1
  Pd  Pd193  1  0.00995102  0.80451644  0.60564997  1
  Pd  Pd194  1  0.80640941  0.40588168  -0.00555829  1
  Pd  Pd195  1  0.59133493  0.59587853  0.59893829  1
  Pd  Pd196  1  0.59191914  0.20062471  0.40223704  1
  Pd  Pd197  1  0.59624070  0.80513530  0.39839878  1
  Pd  Pd198  1  0.39250045  0.79911224  0.80071228  1
  Pd  Pd199  1  0.80647196  0.01128874  0.59239708  1
  Rh  Rh200  1  0.80582758  0.60020211  0.59508137  1
  Rh  Rh201  1  -0.00749864  0.20996549  0.20424502  1
  Rh  Rh202  1  0.40088562  0.78813397  0.58981659  1
  Rh  Rh203  1  0.39868384  0.40400795  0.80801986  1
  Rh  Rh204  1  0.80045705  0.19782975  0.00754288  1
  Rh  Rh205  1  0.19823788  0.39283238  -0.00430184  1
  Rh  Rh206  1  0.19122213  0.01228393  0.59950904  1
  Rh  Rh207  1  0.59759930  0.39802093  -0.00020905  1
  Rh  Rh208  1  0.39783751  0.40176471  0.20080212  1
  Rh  Rh209  1  0.59181913  0.40192810  0.19474279  1
  Rh  Rh210  1  0.20390828  0.60165567  -0.00161275  1
  Rh  Rh211  1  0.20587768  0.59163723  0.20148328  1
  Rh  Rh212  1  0.00015016  0.80248658  0.38867101  1
  Rh  Rh213  1  0.39396596  0.20893404  0.40447154  1
  Rh  Rh214  1  0.60407219  0.80291618  0.79548455  1
  Rh  Rh215  1  0.39480907  0.60668269  0.41188901  1
  Rh  Rh216  1  0.80754333  -0.00136747  0.80792151  1
  Rh  Rh217  1  0.20720665  0.19887905  0.79541378  1
  Rh  Rh218  1  0.59371967  0.00351404  0.00466005  1
  Rh  Rh219  1  -0.00340892  0.60338323  0.40837191  1
  Rh  Rh220  1  0.59523204  0.60222972  0.19906975  1
  Rh  Rh221  1  0.20281435  0.20343105  -0.00580248  1
  Rh  Rh222  1  0.79023967  -0.00052714  0.20021954  1
  Rh  Rh223  1  0.40093295  -0.00160322  0.79922703  1
  Rh  Rh224  1  0.00146263  0.20401492  0.39758075  1
  Rh  Rh225  1  0.20213737  0.39415080  0.80033772  1
  Rh  Rh226  1  0.39203393  0.40145417  0.60210265  1
  Rh  Rh227  1  -0.00081853  -0.00611118  0.40671484  1
  Rh  Rh228  1  0.59507826  0.59834968  0.80196028  1
  Rh  Rh229  1  -0.00417561  0.40040223  0.80766504  1
  Rh  Rh230  1  0.40562372  -0.00376981  -0.00459424  1
  Rh  Rh231  1  0.00933075  0.79559656  -0.00076448  1
  Rh  Rh232  1  0.19370202  0.00376039  0.38847370  1
  Rh  Rh233  1  0.39424156  0.39837221  0.39264401  1
  Rh  Rh234  1  0.59658806  0.39940062  0.59862154  1
  Rh  Rh235  1  -0.00187551  0.60420087  0.78932027  1
  Rh  Rh236  1  0.61133980  0.59130186  0.40630361  1
  Rh  Rh237  1  0.80489651  0.00399636  -0.00619333  1
  Rh  Rh238  1  0.00183554  0.19828967  0.80753419  1
  Rh  Rh239  1  0.20139578  -0.00158643  0.00250451  1
  Rh  Rh240  1  0.39342311  0.19909996  0.19970810  1
  Rh  Rh241  1  0.79583772  0.20806783  0.79521755  1
  Rh  Rh242  1  0.79479505  0.79278605  0.60678899  1
  Rh  Rh243  1  -0.00733898  -0.00578182  0.79359710  1
  Rh  Rh244  1  0.60636785  0.80899403  0.60675889  1
  Rh  Rh245  1  0.60718093  0.80157356  0.00633711  1
  Rh  Rh246  1  0.00636972  0.20734012  -0.00370649  1
  Rh  Rh247  1  0.40952186  -0.00527004  0.41082354  1
  Rh  Rh248  1  0.39612643  0.58916663  -0.01064307  1
  Rh  Rh249  1  0.40060125  0.20484879  -0.00323576  1
