# generated using pymatgen
data_ZrScNbPdRh
_symmetry_space_group_name_H-M   'P 1'
_cell_length_a   16.55205989
_cell_length_b   16.55065999
_cell_length_c   16.55203776
_cell_angle_alpha   89.95157709
_cell_angle_beta   89.97032472
_cell_angle_gamma   89.96537580
_symmetry_Int_Tables_number   1
_chemical_formula_structural   ZrScNbPdRh
_chemical_formula_sum   'Zr50 Sc50 Nb50 Pd50 Rh50'
_cell_volume   4534.38656322
_cell_formula_units_Z   50
loop_
 _symmetry_equiv_pos_site_id
 _symmetry_equiv_pos_as_xyz
  1  'x, y, z'
loop_
 _atom_site_type_symbol
 _atom_site_label
 _atom_site_symmetry_multiplicity
 _atom_site_fract_x
 _atom_site_fract_y
 _atom_site_fract_z
 _atom_site_occupancy
  Zr  Zr0  1  0.09764938  0.50871645  0.29760177  1
  Zr  Zr1  1  0.10943107  0.50252303  0.10228523  1
  Zr  Zr2  1  0.50159487  0.49330008  0.70318963  1
  Zr  Zr3  1  0.49635529  0.29831997  0.09109623  1
  Zr  Zr4  1  0.09741868  0.89732607  0.30709977  1
  Zr  Zr5  1  0.29734074  0.29711823  0.69682596  1
  Zr  Zr6  1  0.69981460  0.10448190  0.29884757  1
  Zr  Zr7  1  0.10580115  0.50339243  0.90165629  1
  Zr  Zr8  1  0.50227872  0.70856328  0.49964775  1
  Zr  Zr9  1  0.90553598  0.90288735  0.49549497  1
  Zr  Zr10  1  0.48672214  0.90376386  0.09956495  1
  Zr  Zr11  1  0.69445792  0.09920106  0.89802054  1
  Zr  Zr12  1  0.50062524  0.29008141  0.30220854  1
  Zr  Zr13  1  0.29995052  0.08909200  0.10342646  1
  Zr  Zr14  1  0.69671804  0.71069622  0.30407945  1
  Zr  Zr15  1  0.10020670  0.89698595  0.50344234  1
  Zr  Zr16  1  0.49638078  0.69621847  0.30710397  1
  Zr  Zr17  1  0.90451944  0.49950805  0.10539094  1
  Zr  Zr18  1  0.50451742  0.29557234  0.50666566  1
  Zr  Zr19  1  0.49906516  0.50318838  0.30184370  1
  Zr  Zr20  1  0.30596507  0.10832153  0.30537015  1
  Zr  Zr21  1  0.89672053  0.29381690  0.50092504  1
  Zr  Zr22  1  0.90761866  0.29915279  0.89258245  1
  Zr  Zr23  1  0.70235663  0.09536402  0.09426893  1
  Zr  Zr24  1  0.69698614  0.29300630  0.10191636  1
  Zr  Zr25  1  0.29792525  0.50801966  0.29996403  1
  Zr  Zr26  1  0.68708351  0.29442549  0.68580442  1
  Zr  Zr27  1  0.69952205  0.70299277  0.90683258  1
  Zr  Zr28  1  0.89621482  0.49703592  0.89157608  1
  Zr  Zr29  1  0.50434649  0.89840924  0.69659035  1
  Zr  Zr30  1  0.29986042  0.29897741  0.10019603  1
  Zr  Zr31  1  0.49115933  0.90712897  0.50376315  1
  Zr  Zr32  1  0.69586219  0.09495412  0.70523117  1
  Zr  Zr33  1  0.29246931  0.69971189  0.50700209  1
  Zr  Zr34  1  0.69904589  0.49449957  0.09802635  1
  Zr  Zr35  1  0.90418238  0.50048239  0.30118621  1
  Zr  Zr36  1  0.50292423  0.70500459  0.10149648  1
  Zr  Zr37  1  0.90357309  0.10079452  0.49958372  1
  Zr  Zr38  1  0.90301861  0.10494516  0.09417376  1
  Zr  Zr39  1  0.09365669  0.49390978  0.69548949  1
  Zr  Zr40  1  0.29847903  0.49214520  0.51314358  1
  Zr  Zr41  1  0.90831782  0.70166799  0.30072040  1
  Zr  Zr42  1  0.10068388  0.30046064  0.51364305  1
  Zr  Zr43  1  0.09890635  0.29583324  0.09697795  1
  Zr  Zr44  1  0.30819519  0.50276569  0.70430265  1
  Zr  Zr45  1  0.09966126  0.09299896  0.50252450  1
  Zr  Zr46  1  0.10301293  0.50726466  0.50108143  1
  Zr  Zr47  1  0.69813701  0.89267990  0.10155799  1
  Zr  Zr48  1  0.50140721  0.49832633  0.89721591  1
  Zr  Zr49  1  0.89772197  0.10111131  0.30236036  1
  Sc  Sc50  1  0.10222121  0.69801022  0.31030520  1
  Sc  Sc51  1  0.89272701  0.50220846  0.69792547  1
  Sc  Sc52  1  0.50153433  0.09743727  0.70302417  1
  Sc  Sc53  1  0.10205288  0.10503308  0.30181992  1
  Sc  Sc54  1  0.11147196  0.69940966  0.89930722  1
  Sc  Sc55  1  0.50219971  0.10015867  0.90033358  1
  Sc  Sc56  1  0.89187310  0.29587171  0.30349824  1
  Sc  Sc57  1  0.49656824  0.70381393  0.89924086  1
  Sc  Sc58  1  0.49932398  0.09988218  0.09323450  1
  Sc  Sc59  1  0.89495040  0.10008382  0.69175752  1
  Sc  Sc60  1  0.89676205  0.71028410  0.10357689  1
  Sc  Sc61  1  0.89421634  0.90300834  0.09550397  1
  Sc  Sc62  1  0.30849816  0.90979317  0.70058799  1
  Sc  Sc63  1  0.69553496  0.89202748  0.50962249  1
  Sc  Sc64  1  0.90166580  0.70614131  0.69398657  1
  Sc  Sc65  1  0.30334676  0.90105546  0.90502819  1
  Sc  Sc66  1  0.10543467  0.69793702  0.10355205  1
  Sc  Sc67  1  0.89580629  0.49581425  0.50588772  1
  Sc  Sc68  1  0.29510116  0.09444898  0.88521310  1
  Sc  Sc69  1  0.49457601  0.29253749  0.89559091  1
  Sc  Sc70  1  0.48845173  0.70052208  0.70160671  1
  Sc  Sc71  1  0.69786706  0.11164748  0.50938647  1
  Sc  Sc72  1  0.89946006  0.89900190  0.68907006  1
  Sc  Sc73  1  0.10930206  0.90233816  0.89851903  1
  Sc  Sc74  1  0.30476556  0.69614472  0.89803886  1
  Sc  Sc75  1  0.70068948  0.91126386  0.90860171  1
  Sc  Sc76  1  0.50262290  0.49752081  0.49528648  1
  Sc  Sc77  1  0.70091072  0.70352719  0.49997369  1
  Sc  Sc78  1  0.09629282  0.29212760  0.70139766  1
  Sc  Sc79  1  0.89531571  0.29904041  0.09910290  1
  Sc  Sc80  1  0.89711486  0.10012425  0.90078023  1
  Sc  Sc81  1  0.90001979  0.90064275  0.90120660  1
  Sc  Sc82  1  0.90771100  0.30012636  0.69812665  1
  Sc  Sc83  1  0.90270630  0.89294980  0.30080270  1
  Sc  Sc84  1  0.69783900  0.50038715  0.88401693  1
  Sc  Sc85  1  0.11161091  0.09865520  0.70057050  1
  Sc  Sc86  1  0.70011171  0.29643516  0.30331439  1
  Sc  Sc87  1  0.49418408  0.90330019  0.90193789  1
  Sc  Sc88  1  0.30339936  0.70360459  0.30266615  1
  Sc  Sc89  1  0.10783987  0.29471515  0.29081580  1
  Sc  Sc90  1  0.70649986  0.69882733  0.69087217  1
  Sc  Sc91  1  0.69255041  0.48652290  0.31042432  1
  Sc  Sc92  1  0.11908219  0.90549062  0.09434611  1
  Sc  Sc93  1  0.30515424  0.70936794  0.10545108  1
  Sc  Sc94  1  0.70006603  0.29698519  0.89182135  1
  Sc  Sc95  1  0.10109103  0.09675505  0.89925120  1
  Sc  Sc96  1  0.89389998  0.70683208  0.50136287  1
  Sc  Sc97  1  0.49765210  0.29819299  0.70479974  1
  Sc  Sc98  1  0.29951423  0.50218886  0.90496096  1
  Sc  Sc99  1  0.49366173  0.89870821  0.30933383  1
  Nb  Nb100  1  0.50247562  0.09510418  0.31103875  1
  Nb  Nb101  1  0.08977836  0.89116785  0.70176058  1
  Nb  Nb102  1  0.10025482  0.29827999  0.89578007  1
  Nb  Nb103  1  0.30635839  0.50001524  0.10019704  1
  Nb  Nb104  1  0.29912145  0.91351374  0.49548977  1
  Nb  Nb105  1  0.69663075  0.90047807  0.70287504  1
  Nb  Nb106  1  0.70285076  0.90549649  0.30137983  1
  Nb  Nb107  1  0.70014107  0.49439174  0.50160682  1
  Nb  Nb108  1  0.49875501  0.49778335  0.10214649  1
  Nb  Nb109  1  0.30659268  0.90278011  0.10527106  1
  Nb  Nb110  1  0.30098189  0.29795132  0.30073176  1
  Nb  Nb111  1  0.09908771  0.70946231  0.69518853  1
  Nb  Nb112  1  0.29861555  0.09484857  0.50460155  1
  Nb  Nb113  1  0.90133022  0.70375815  0.89710639  1
  Nb  Nb114  1  0.10431299  0.70302172  0.50871409  1
  Nb  Nb115  1  0.30206183  0.70079045  0.70514734  1
  Nb  Nb116  1  0.69854665  0.70088499  0.10066292  1
  Nb  Nb117  1  0.69536310  0.49913845  0.69136622  1
  Nb  Nb118  1  0.29931075  0.29720590  0.49990064  1
  Nb  Nb119  1  0.09852753  0.10365684  0.09558903  1
  Nb  Nb120  1  0.29921891  0.10375547  0.69575200  1
  Nb  Nb121  1  0.29740408  0.29712042  0.90003789  1
  Nb  Nb122  1  0.30044490  0.90557524  0.28384425  1
  Nb  Nb123  1  0.48796465  0.09663221  0.48824611  1
  Nb  Nb124  1  0.70411143  0.31234662  0.49584060  1
  Nb  Nb125  1  0.00340573  0.79571264  -0.00549967  1
  Nb  Nb126  1  0.19949739  0.39575786  0.80193942  1
  Nb  Nb127  1  0.00276974  0.60797033  0.79995532  1
  Nb  Nb128  1  0.79632722  0.80271106  0.80045986  1
  Nb  Nb129  1  0.00429222  0.00439127  0.19385970  1
  Nb  Nb130  1  0.20228555  0.79814417  0.78926843  1
  Nb  Nb131  1  0.60239565  0.59506654  0.59835121  1
  Nb  Nb132  1  -0.00540685  0.60220435  -0.00452758  1
  Nb  Nb133  1  0.39796318  0.39997069  0.20221080  1
  Nb  Nb134  1  0.00266079  -0.00648316  0.79456639  1
  Nb  Nb135  1  0.79140477  0.60170096  0.20123266  1
  Nb  Nb136  1  0.39262308  0.39216242  0.39730584  1
  Nb  Nb137  1  0.39425557  0.19244663  0.59391107  1
  Nb  Nb138  1  0.00823867  0.39955468  0.40096183  1
  Nb  Nb139  1  0.00317960  0.40292266  -0.00388129  1
  Nb  Nb140  1  0.79630204  0.59782051  0.39641760  1
  Nb  Nb141  1  0.60733381  0.80449593  0.79710601  1
  Nb  Nb142  1  0.59750093  0.39949907  -0.00063230  1
  Nb  Nb143  1  0.80079777  0.60234899  0.00271066  1
  Nb  Nb144  1  0.60367584  0.60204635  0.19876978  1
  Nb  Nb145  1  0.59958492  -0.00136837  0.20785080  1
  Nb  Nb146  1  0.79546397  -0.00128139  0.39989705  1
  Nb  Nb147  1  0.19898430  0.20022632  -0.00133911  1
  Nb  Nb148  1  0.40482342  0.59526023  0.00885871  1
  Nb  Nb149  1  0.20161472  0.39715736  0.40072164  1
  Pd  Pd150  1  0.80376712  0.39478948  0.60705526  1
  Pd  Pd151  1  -0.00507183  0.19921594  0.20241413  1
  Pd  Pd152  1  -0.00735664  0.60130699  0.41406479  1
  Pd  Pd153  1  0.00117249  0.38919482  0.20253934  1
  Pd  Pd154  1  0.21116906  0.81275174  0.60611667  1
  Pd  Pd155  1  0.20532373  0.40069496  0.20547571  1
  Pd  Pd156  1  0.19543608  0.20282863  0.40682942  1
  Pd  Pd157  1  0.00411817  -0.00935615  -0.00199834  1
  Pd  Pd158  1  0.59968272  0.61284238  0.78845427  1
  Pd  Pd159  1  0.19970628  0.60058165  0.61186167  1
  Pd  Pd160  1  0.59493370  0.39943077  0.19872494  1
  Pd  Pd161  1  0.40947142  0.59993697  0.59558567  1
  Pd  Pd162  1  0.01106458  0.81172992  0.18568028  1
  Pd  Pd163  1  0.59488822  0.80961093  -0.00788504  1
  Pd  Pd164  1  0.59970308  0.81066384  0.40269420  1
  Pd  Pd165  1  0.59972368  0.59305459  0.00243231  1
  Pd  Pd166  1  0.60698512  0.20209150  0.40796088  1
  Pd  Pd167  1  0.79965946  0.20247308  0.79064610  1
  Pd  Pd168  1  0.20729192  0.80343731  0.39999812  1
  Pd  Pd169  1  0.59110274  0.80569297  0.20659902  1
  Pd  Pd170  1  0.39273957  0.59641997  0.41352966  1
  Pd  Pd171  1  0.79973791  0.20324478  -0.00612567  1
  Pd  Pd172  1  0.19281149  0.00708030  0.20677933  1
  Pd  Pd173  1  0.19623698  -0.00917649  0.60855602  1
  Pd  Pd174  1  0.80291685  0.60926892  0.79740062  1
  Pd  Pd175  1  0.19689264  0.79748269  0.20284398  1
  Pd  Pd176  1  0.79453382  -0.00274261  0.59175506  1
  Pd  Pd177  1  -0.00560608  0.60584512  0.60131083  1
  Pd  Pd178  1  0.79161267  0.39000928  0.78571357  1
  Pd  Pd179  1  0.19626933  0.60034682  0.79104651  1
  Pd  Pd180  1  0.19908702  0.39567300  -0.00411050  1
  Pd  Pd181  1  0.20462060  0.79764899  -0.00571487  1
  Pd  Pd182  1  0.80394923  -0.00119721  0.20225134  1
  Pd  Pd183  1  0.40467069  0.00254093  0.79983607  1
  Pd  Pd184  1  0.80198144  0.79973054  0.20355694  1
  Pd  Pd185  1  0.80931428  -0.00630424  0.79934606  1
  Pd  Pd186  1  0.79747125  0.40162272  -0.00643598  1
  Pd  Pd187  1  0.00827183  0.20860419  0.39861098  1
  Pd  Pd188  1  0.20729140  0.61108962  0.19914030  1
  Pd  Pd189  1  0.20288149  0.00118166  0.39238604  1
  Pd  Pd190  1  0.40536256  0.19598574  0.19805814  1
  Pd  Pd191  1  0.00186769  0.18388938  0.79577876  1
  Pd  Pd192  1  0.38917094  0.18811059  -0.00920442  1
  Pd  Pd193  1  0.59759830  0.00712921  0.59342408  1
  Pd  Pd194  1  0.60801176  -0.00364606  0.40464151  1
  Pd  Pd195  1  0.79688521  0.39981378  0.20892901  1
  Pd  Pd196  1  0.59296234  0.18903811  0.19637561  1
  Pd  Pd197  1  0.38699970  0.80706106  0.40204386  1
  Pd  Pd198  1  0.39040311  0.80442876  0.59920404  1
  Pd  Pd199  1  0.39282125  0.39649150  0.80701875  1
  Rh  Rh200  1  0.00618397  0.79169564  0.40899100  1
  Rh  Rh201  1  0.40955203  0.00600507  0.20852009  1
  Rh  Rh202  1  0.80009493  0.80585148  0.60401874  1
  Rh  Rh203  1  0.60217479  0.20615061  -0.00584819  1
  Rh  Rh204  1  0.00262246  0.19085206  0.60478241  1
  Rh  Rh205  1  0.40303794  0.80192617  0.20667437  1
  Rh  Rh206  1  0.20395187  0.59997199  0.40505477  1
  Rh  Rh207  1  0.40235645  0.59981685  0.80868839  1
  Rh  Rh208  1  0.40464929  0.40461678  0.00052602  1
  Rh  Rh209  1  0.60322023  0.39399440  0.80305140  1
  Rh  Rh210  1  0.80070631  0.00241422  -0.00100731  1
  Rh  Rh211  1  0.39555640  0.79492567  -0.00002578  1
  Rh  Rh212  1  0.80116812  0.20202665  0.19641289  1
  Rh  Rh213  1  0.21270811  0.60671098  0.01066884  1
  Rh  Rh214  1  0.00712526  0.40736364  0.80367576  1
  Rh  Rh215  1  0.19517944  -0.01091441  0.79220803  1
  Rh  Rh216  1  0.61161931  0.59897917  0.40358022  1
  Rh  Rh217  1  0.80576088  0.79715519  -0.00436605  1
  Rh  Rh218  1  0.39819434  0.80350603  0.80066380  1
  Rh  Rh219  1  0.00316559  0.20681035  -0.00664570  1
  Rh  Rh220  1  0.00643222  0.00347366  0.60907530  1
  Rh  Rh221  1  0.20418331  0.19297471  0.19115105  1
  Rh  Rh222  1  0.00230026  0.80087579  0.80737385  1
  Rh  Rh223  1  0.58711025  0.18970010  0.59967533  1
  Rh  Rh224  1  0.40267012  0.00794799  0.60127164  1
  Rh  Rh225  1  0.79987533  0.80403920  0.40002916  1
  Rh  Rh226  1  0.19875926  0.39770318  0.60737758  1
  Rh  Rh227  1  0.20266145  0.20469406  0.80503930  1
  Rh  Rh228  1  0.20683403  0.00778993  -0.00259581  1
  Rh  Rh229  1  0.79838658  0.20532418  0.60167535  1
  Rh  Rh230  1  0.40613157  0.39172200  0.59645027  1
  Rh  Rh231  1  -0.00481540  0.60998185  0.19118495  1
  Rh  Rh232  1  -0.00553005  0.39981200  0.59540860  1
  Rh  Rh233  1  0.59753972  0.78941961  0.60947971  1
  Rh  Rh234  1  0.79319269  0.19523817  0.40640716  1
  Rh  Rh235  1  -0.00589601  0.00036125  0.38886732  1
  Rh  Rh236  1  0.59313919  0.39166233  0.40425553  1
  Rh  Rh237  1  0.20318984  0.19553869  0.59563079  1
  Rh  Rh238  1  0.59526881  -0.00583477  0.80466305  1
  Rh  Rh239  1  0.39596484  0.19501939  0.79398310  1
  Rh  Rh240  1  0.59693947  -0.00269725  0.00860614  1
  Rh  Rh241  1  0.79277013  0.59862497  0.58997467  1
  Rh  Rh242  1  0.38881544  -0.00499939  0.39113611  1
  Rh  Rh243  1  0.40630274  0.59963431  0.19432428  1
  Rh  Rh244  1  0.39752999  0.20232038  0.40735878  1
  Rh  Rh245  1  -0.00315658  0.79702137  0.59090521  1
  Rh  Rh246  1  0.80858327  0.40400763  0.39910158  1
  Rh  Rh247  1  0.59708238  0.19827157  0.79883924  1
  Rh  Rh248  1  0.39421716  0.00374294  -0.00500726  1
  Rh  Rh249  1  0.59508725  0.40548461  0.59694980  1
