# generated using pymatgen
data_ZrScNbPdRh
_symmetry_space_group_name_H-M   'P 1'
_cell_length_a   16.55532332
_cell_length_b   16.55445704
_cell_length_c   16.55063733
_cell_angle_alpha   90.00364491
_cell_angle_beta   90.01146357
_cell_angle_gamma   89.98605387
_symmetry_Int_Tables_number   1
_chemical_formula_structural   ZrScNbPdRh
_chemical_formula_sum   'Zr50 Sc50 Nb50 Pd50 Rh50'
_cell_volume   4535.94006797
_cell_formula_units_Z   50
loop_
 _symmetry_equiv_pos_site_id
 _symmetry_equiv_pos_as_xyz
  1  'x, y, z'
loop_
 _atom_site_type_symbol
 _atom_site_label
 _atom_site_symmetry_multiplicity
 _atom_site_fract_x
 _atom_site_fract_y
 _atom_site_fract_z
 _atom_site_occupancy
  Zr  Zr0  1  0.10322396  0.09262056  0.29606404  1
  Zr  Zr1  1  0.09681280  0.70197076  0.89838869  1
  Zr  Zr2  1  0.89909687  0.69801843  0.29871830  1
  Zr  Zr3  1  0.30028584  0.49610472  0.50022814  1
  Zr  Zr4  1  0.09985254  0.69678927  0.09979384  1
  Zr  Zr5  1  0.30181287  0.69426478  0.49483655  1
  Zr  Zr6  1  0.69154559  0.90145589  0.49154290  1
  Zr  Zr7  1  0.10275906  0.49408219  0.49816252  1
  Zr  Zr8  1  0.50037353  0.69260216  0.90193632  1
  Zr  Zr9  1  0.89721735  0.30292063  0.30761583  1
  Zr  Zr10  1  0.10227073  0.10409672  0.09850302  1
  Zr  Zr11  1  0.90574765  0.90855452  0.49747030  1
  Zr  Zr12  1  0.89541531  0.69801575  0.49402038  1
  Zr  Zr13  1  0.69366060  0.69620278  0.70180674  1
  Zr  Zr14  1  0.10263744  0.90168935  0.10877597  1
  Zr  Zr15  1  0.10615099  0.90215391  0.69734440  1
  Zr  Zr16  1  0.30523459  0.69304315  0.10534770  1
  Zr  Zr17  1  0.69390437  0.69676688  0.89264184  1
  Zr  Zr18  1  0.89812797  0.30050718  0.90058784  1
  Zr  Zr19  1  0.90029339  0.29673969  0.69373258  1
  Zr  Zr20  1  0.50065816  0.29980533  0.50210742  1
  Zr  Zr21  1  0.70596443  0.49463138  0.29120602  1
  Zr  Zr22  1  0.70396558  0.90261128  0.30054219  1
  Zr  Zr23  1  0.70017394  0.30214148  0.10914856  1
  Zr  Zr24  1  0.48993948  0.10457023  0.29612650  1
  Zr  Zr25  1  0.69623345  0.90213860  0.89233602  1
  Zr  Zr26  1  0.10595134  0.49717681  0.89564801  1
  Zr  Zr27  1  0.10202490  0.70023099  0.70540014  1
  Zr  Zr28  1  0.90201075  0.09623513  0.68740462  1
  Zr  Zr29  1  0.30414991  0.11319993  0.49794061  1
  Zr  Zr30  1  0.90943238  0.90020329  0.29655756  1
  Zr  Zr31  1  0.49306943  0.69993756  0.30273810  1
  Zr  Zr32  1  0.50204813  0.90707736  0.69435111  1
  Zr  Zr33  1  0.30310040  0.90736116  0.70408802  1
  Zr  Zr34  1  0.70040231  0.29986928  0.90231827  1
  Zr  Zr35  1  0.89630362  0.49272152  0.89717101  1
  Zr  Zr36  1  0.89753577  0.49070861  0.69361114  1
  Zr  Zr37  1  0.50233768  0.69665505  0.70556159  1
  Zr  Zr38  1  0.10974846  0.89827737  0.90292621  1
  Zr  Zr39  1  0.29479345  0.49318588  0.09626713  1
  Zr  Zr40  1  0.50172484  0.30149488  0.70371803  1
  Zr  Zr41  1  0.09500542  0.70206263  0.49969132  1
  Zr  Zr42  1  0.69282209  0.49520569  0.70097653  1
  Zr  Zr43  1  0.70558923  0.90425461  0.10227061  1
  Zr  Zr44  1  0.30339307  0.30482896  0.90396155  1
  Zr  Zr45  1  0.29812650  0.49512700  0.71005156  1
  Zr  Zr46  1  0.69792856  0.49324628  0.49694621  1
  Zr  Zr47  1  0.10002136  0.09372053  0.50536021  1
  Zr  Zr48  1  0.90812679  0.10640668  0.90411864  1
  Zr  Zr49  1  0.69208190  0.68913960  0.10030167  1
  Sc  Sc50  1  0.50350516  0.28615915  0.10094496  1
  Sc  Sc51  1  0.29809604  0.68781174  0.89161429  1
  Sc  Sc52  1  0.30242895  0.70281043  0.69478273  1
  Sc  Sc53  1  0.89842758  0.11641905  0.49868846  1
  Sc  Sc54  1  0.49610001  0.11224391  0.90758717  1
  Sc  Sc55  1  0.31158240  0.89938851  0.51179244  1
  Sc  Sc56  1  0.29937383  0.69516999  0.30074726  1
  Sc  Sc57  1  0.49351504  0.90109718  0.31294335  1
  Sc  Sc58  1  0.50068049  0.10656855  0.70170029  1
  Sc  Sc59  1  0.89760399  0.90589610  0.10723316  1
  Sc  Sc60  1  0.29775852  0.10262490  0.70284153  1
  Sc  Sc61  1  0.49664230  0.49509046  0.69607552  1
  Sc  Sc62  1  0.09981138  0.49250085  0.70146665  1
  Sc  Sc63  1  0.48294378  0.90498032  0.10934398  1
  Sc  Sc64  1  0.10791209  0.30099511  0.49681457  1
  Sc  Sc65  1  0.29977671  0.10441391  0.29962452  1
  Sc  Sc66  1  0.70626366  0.70027483  0.30614623  1
  Sc  Sc67  1  0.50065987  0.90787497  0.89495268  1
  Sc  Sc68  1  0.89461887  0.29510039  0.09905693  1
  Sc  Sc69  1  0.49771722  0.09833303  0.49678631  1
  Sc  Sc70  1  0.48396394  0.49838816  0.89931281  1
  Sc  Sc71  1  0.50089100  0.51253578  0.09958128  1
  Sc  Sc72  1  0.09961487  0.49528605  0.28913224  1
  Sc  Sc73  1  0.90578995  0.89696491  0.89918349  1
  Sc  Sc74  1  0.30702863  0.09994275  0.10186172  1
  Sc  Sc75  1  0.30311275  0.30147033  0.69598191  1
  Sc  Sc76  1  0.69659842  0.10071083  0.90147007  1
  Sc  Sc77  1  0.69538585  0.29914864  0.49448904  1
  Sc  Sc78  1  0.10797547  0.29589034  0.70415927  1
  Sc  Sc79  1  0.29093841  0.90507869  0.09836014  1
  Sc  Sc80  1  0.49922786  0.29412377  0.90195765  1
  Sc  Sc81  1  0.70301143  0.10998718  0.30527976  1
  Sc  Sc82  1  0.09420158  0.70088613  0.29318395  1
  Sc  Sc83  1  0.90909272  0.70043902  0.89682966  1
  Sc  Sc84  1  0.48986521  0.70220774  0.50010973  1
  Sc  Sc85  1  0.90725234  0.69771222  0.70092030  1
  Sc  Sc86  1  0.30192095  0.10087905  0.90013784  1
  Sc  Sc87  1  0.90795113  0.69945952  0.10648471  1
  Sc  Sc88  1  0.11030080  0.10819855  0.89687844  1
  Sc  Sc89  1  0.29075855  0.50356325  0.30327033  1
  Sc  Sc90  1  0.51021820  0.29353077  0.29734407  1
  Sc  Sc91  1  0.69950537  0.10363598  0.49771269  1
  Sc  Sc92  1  0.10168585  0.29398425  0.90306426  1
  Sc  Sc93  1  0.50970033  0.49238287  0.29831814  1
  Sc  Sc94  1  0.70554531  0.49537604  0.89165924  1
  Sc  Sc95  1  0.70850412  0.10619881  0.10647778  1
  Sc  Sc96  1  0.10619057  0.29792821  0.29518704  1
  Sc  Sc97  1  0.90038283  0.10149013  0.10620254  1
  Sc  Sc98  1  0.10939387  0.30125663  0.10269820  1
  Sc  Sc99  1  0.89997841  0.10720443  0.29835722  1
  Nb  Nb100  1  0.89759915  0.90428524  0.69708438  1
  Nb  Nb101  1  0.68994980  0.29465773  0.70527226  1
  Nb  Nb102  1  0.30031838  0.30560474  0.49401279  1
  Nb  Nb103  1  0.49678492  0.70213179  0.10030078  1
  Nb  Nb104  1  0.69921856  0.70015134  0.49937298  1
  Nb  Nb105  1  0.50187421  0.10006735  0.10374578  1
  Nb  Nb106  1  0.10328165  0.09706667  0.70252402  1
  Nb  Nb107  1  0.49881494  0.49602895  0.49762849  1
  Nb  Nb108  1  0.30135011  0.29806725  0.29926937  1
  Nb  Nb109  1  0.30049531  0.90244373  0.90178591  1
  Nb  Nb110  1  0.69470497  0.30356760  0.29888714  1
  Nb  Nb111  1  0.50158807  0.89800156  0.50359993  1
  Nb  Nb112  1  0.89653877  0.49935082  0.10828790  1
  Nb  Nb113  1  0.09595663  0.90139442  0.49293176  1
  Nb  Nb114  1  0.89562140  0.50204017  0.29961609  1
  Nb  Nb115  1  0.29785250  0.49641673  0.90165409  1
  Nb  Nb116  1  0.70432509  0.49517812  0.10250152  1
  Nb  Nb117  1  0.70434771  0.09832041  0.70296506  1
  Nb  Nb118  1  0.89887443  0.31164313  0.49841742  1
  Nb  Nb119  1  0.10120272  0.90496842  0.30530099  1
  Nb  Nb120  1  0.70189280  0.90788105  0.69919409  1
  Nb  Nb121  1  0.09622606  0.49976356  0.09985775  1
  Nb  Nb122  1  0.29047692  0.90797613  0.29437031  1
  Nb  Nb123  1  0.29866355  0.30068027  0.10624414  1
  Nb  Nb124  1  0.89771596  0.48987781  0.49675470  1
  Nb  Nb125  1  0.39621560  0.39375634  0.20196211  1
  Nb  Nb126  1  0.79700130  0.19705689  0.79121799  1
  Nb  Nb127  1  -0.00873567  0.58915859  0.39973495  1
  Nb  Nb128  1  0.60157346  0.59889474  0.40586581  1
  Nb  Nb129  1  0.00486705  0.00183888  0.79688085  1
  Nb  Nb130  1  0.79723690  0.80521642  0.79317098  1
  Nb  Nb131  1  0.19624137  0.81028368  0.39845839  1
  Nb  Nb132  1  0.19867200  0.59831874  0.59783536  1
  Nb  Nb133  1  0.40000502  0.79874544  -0.00463726  1
  Nb  Nb134  1  0.39866041  0.39533428  0.39757856  1
  Nb  Nb135  1  0.79292347  0.79338624  -0.00444116  1
  Nb  Nb136  1  -0.00043618  0.40585033  0.00615807  1
  Nb  Nb137  1  0.19696451  0.59238119  -0.00010635  1
  Nb  Nb138  1  0.59403797  0.80461470  0.00747453  1
  Nb  Nb139  1  0.60408716  0.80403087  0.59670286  1
  Nb  Nb140  1  0.60546478  0.40196168  0.00590925  1
  Nb  Nb141  1  0.79818523  0.59900695  0.59464135  1
  Nb  Nb142  1  0.80151256  0.59685921  0.00416001  1
  Nb  Nb143  1  0.79698254  0.80304319  0.60259960  1
  Nb  Nb144  1  0.59481558  0.80186686  0.19856638  1
  Nb  Nb145  1  0.59742031  -0.00053861  0.20024603  1
  Nb  Nb146  1  0.40108548  0.80491706  0.80443249  1
  Nb  Nb147  1  0.59660396  0.00007477  0.01153867  1
  Nb  Nb148  1  0.00701756  0.00263022  -0.00332557  1
  Nb  Nb149  1  -0.00243865  0.80788935  0.59798723  1
  Pd  Pd150  1  0.19693633  0.79861032  0.59204320  1
  Pd  Pd151  1  0.19978414  0.20313161  0.60154231  1
  Pd  Pd152  1  0.39496886  0.80573925  0.20141298  1
  Pd  Pd153  1  -0.00294643  0.59261165  0.79662955  1
  Pd  Pd154  1  -0.00110463  0.60007375  0.59626358  1
  Pd  Pd155  1  0.39533965  0.59453032  0.60477183  1
  Pd  Pd156  1  0.78804320  0.39350996  0.60166843  1
  Pd  Pd157  1  0.38703438  0.80817464  0.39653058  1
  Pd  Pd158  1  0.59228442  0.01316534  0.80518285  1
  Pd  Pd159  1  0.00736599  0.20115786  0.40228354  1
  Pd  Pd160  1  0.79106953  0.20858218  0.59840029  1
  Pd  Pd161  1  0.60001014  0.00592155  0.59723910  1
  Pd  Pd162  1  0.60086890  0.19457850  0.59850026  1
  Pd  Pd163  1  -0.00307303  0.59262367  -0.00050131  1
  Pd  Pd164  1  -0.00770774  0.80889319  0.00942253  1
  Pd  Pd165  1  -0.00505465  0.39269085  0.19553440  1
  Pd  Pd166  1  0.80298344  0.80619617  0.40246530  1
  Pd  Pd167  1  0.81070240  0.00359070  0.80703747  1
  Pd  Pd168  1  0.01043572  0.20733804  0.59439688  1
  Pd  Pd169  1  -0.00189061  0.19546708  0.79344575  1
  Pd  Pd170  1  0.59493888  0.00908347  0.39192538  1
  Pd  Pd171  1  -0.00630776  0.01475023  0.39820494  1
  Pd  Pd172  1  0.00756824  0.40109755  0.39295310  1
  Pd  Pd173  1  0.60487812  0.58862185  -0.00862350  1
  Pd  Pd174  1  0.79623428  0.19586937  -0.00216816  1
  Pd  Pd175  1  0.40102190  0.20104293  0.60411734  1
  Pd  Pd176  1  0.79492117  0.79173871  0.19377086  1
  Pd  Pd177  1  0.20918178  0.19964150  0.00188602  1
  Pd  Pd178  1  0.40013581  0.58523680  0.20806633  1
  Pd  Pd179  1  0.20808092  0.00196595  0.59392796  1
  Pd  Pd180  1  0.80467956  -0.00283875  -0.00503350  1
  Pd  Pd181  1  0.59055366  0.40239766  0.81229237  1
  Pd  Pd182  1  0.80851651  0.60518808  0.79724748  1
  Pd  Pd183  1  0.21108533  0.79804890  0.80164670  1
  Pd  Pd184  1  0.21200972  -0.00326870  0.41050628  1
  Pd  Pd185  1  0.79456039  0.00010580  0.58762978  1
  Pd  Pd186  1  0.20218196  0.79619387  0.20803413  1
  Pd  Pd187  1  0.41261039  0.39415706  0.01132962  1
  Pd  Pd188  1  0.19469617  0.19927868  0.39636035  1
  Pd  Pd189  1  0.59803919  0.60263577  0.59150669  1
  Pd  Pd190  1  0.00963869  0.38987677  0.59994828  1
  Pd  Pd191  1  0.00406216  0.39309148  0.80435004  1
  Pd  Pd192  1  0.18696638  0.60634685  0.39795269  1
  Pd  Pd193  1  0.00034507  0.20688954  0.19833041  1
  Pd  Pd194  1  0.40385849  0.00563226  0.80336107  1
  Pd  Pd195  1  0.80779289  0.00770009  0.39919296  1
  Pd  Pd196  1  0.40365973  -0.00159058  -0.00133790  1
  Pd  Pd197  1  0.59944715  0.60506830  0.21239133  1
  Pd  Pd198  1  0.39225103  -0.00242534  0.40261703  1
  Pd  Pd199  1  0.21218184  0.78711369  -0.00142313  1
  Rh  Rh200  1  0.79773190  0.00863448  0.21186754  1
  Rh  Rh201  1  0.59018315  0.58199490  0.80456053  1
  Rh  Rh202  1  0.00400354  0.80452517  0.19999682  1
  Rh  Rh203  1  0.20505969  0.19595491  0.20109424  1
  Rh  Rh204  1  0.38986433  0.60349368  -0.00149233  1
  Rh  Rh205  1  0.39874957  0.60005418  0.79543754  1
  Rh  Rh206  1  0.19733417  0.00635369  -0.00068659  1
  Rh  Rh207  1  0.60445199  0.19551859  0.80211526  1
  Rh  Rh208  1  0.41123125  0.58522147  0.39330315  1
  Rh  Rh209  1  0.80211610  0.60446192  0.19409992  1
  Rh  Rh210  1  0.80197716  0.40760585  0.00646367  1
  Rh  Rh211  1  0.39711536  -0.00011188  0.20516758  1
  Rh  Rh212  1  0.59909350  0.39444519  0.60025312  1
  Rh  Rh213  1  0.40007371  0.39874451  0.59521007  1
  Rh  Rh214  1  0.00372881  0.20340362  0.00817672  1
  Rh  Rh215  1  0.40106964  0.01074846  0.59775056  1
  Rh  Rh216  1  0.19979538  0.59852130  0.79710399  1
  Rh  Rh217  1  0.39662709  0.20528309  0.19671902  1
  Rh  Rh218  1  0.19216953  0.40103221  -0.00029726  1
  Rh  Rh219  1  0.59802239  0.19857809  0.39841760  1
  Rh  Rh220  1  0.20504028  0.40099537  0.20221047  1
  Rh  Rh221  1  -0.00508782  0.81038957  0.78808901  1
  Rh  Rh222  1  0.19791919  0.00353234  0.80451904  1
  Rh  Rh223  1  0.20139123  0.40235647  0.60292088  1
  Rh  Rh224  1  0.39634469  0.20433313  0.80033458  1
  Rh  Rh225  1  0.19618256  0.59852369  0.19369384  1
  Rh  Rh226  1  0.20285380  0.39024016  0.80331115  1
  Rh  Rh227  1  0.41104399  0.79919248  0.60963549  1
  Rh  Rh228  1  0.60550941  0.19936165  0.00461380  1
  Rh  Rh229  1  0.20337538  0.00631111  0.19663154  1
  Rh  Rh230  1  0.40278475  0.20842338  0.39886450  1
  Rh  Rh231  1  0.80027998  0.20624083  0.20867695  1
  Rh  Rh232  1  0.00587245  -0.00201770  0.60363240  1
  Rh  Rh233  1  0.80709474  0.39309491  0.20272374  1
  Rh  Rh234  1  0.39538087  0.20286907  0.00516953  1
  Rh  Rh235  1  0.79829437  0.58885334  0.40489246  1
  Rh  Rh236  1  -0.00129245  0.59544897  0.20806482  1
  Rh  Rh237  1  0.59535140  0.40222381  0.40056435  1
  Rh  Rh238  1  0.58973994  0.39905244  0.18853521  1
  Rh  Rh239  1  0.20332230  0.39629264  0.39162358  1
  Rh  Rh240  1  0.20824645  0.20202247  0.79855385  1
  Rh  Rh241  1  0.59596187  0.80861370  0.79297021  1
  Rh  Rh242  1  0.59301842  0.78974894  0.40044398  1
  Rh  Rh243  1  0.79847923  0.21044860  0.40201072  1
  Rh  Rh244  1  0.79500435  0.39597348  0.39559078  1
  Rh  Rh245  1  0.60557809  0.19068477  0.20229208  1
  Rh  Rh246  1  0.00086147  0.00184130  0.19617381  1
  Rh  Rh247  1  0.39964158  0.39509769  0.80056536  1
  Rh  Rh248  1  0.79733945  0.38720982  0.78713820  1
  Rh  Rh249  1  0.00410032  0.79435989  0.39775626  1
