# generated using pymatgen
data_ZrScNbPdRh
_symmetry_space_group_name_H-M   'P 1'
_cell_length_a   16.56215775
_cell_length_b   16.56081986
_cell_length_c   16.56069926
_cell_angle_alpha   90.02472491
_cell_angle_beta   89.95566551
_cell_angle_gamma   90.00077228
_symmetry_Int_Tables_number   1
_chemical_formula_structural   ZrScNbPdRh
_chemical_formula_sum   'Zr50 Sc50 Nb50 Pd50 Rh50'
_cell_volume   4542.31501579
_cell_formula_units_Z   50
loop_
 _symmetry_equiv_pos_site_id
 _symmetry_equiv_pos_as_xyz
  1  'x, y, z'
loop_
 _atom_site_type_symbol
 _atom_site_label
 _atom_site_symmetry_multiplicity
 _atom_site_fract_x
 _atom_site_fract_y
 _atom_site_fract_z
 _atom_site_occupancy
  Zr  Zr0  1  0.90897114  0.30336293  0.09739789  1
  Zr  Zr1  1  0.10637899  0.50434687  0.69560677  1
  Zr  Zr2  1  0.69577548  0.68990156  0.29902850  1
  Zr  Zr3  1  0.90299211  0.90086978  0.30304099  1
  Zr  Zr4  1  0.30151823  0.69858182  0.90187960  1
  Zr  Zr5  1  0.11163592  0.69896376  0.29983956  1
  Zr  Zr6  1  0.89910933  0.29054776  0.90232377  1
  Zr  Zr7  1  0.29689526  0.50220018  0.50194481  1
  Zr  Zr8  1  0.50564494  0.10349038  0.69720135  1
  Zr  Zr9  1  0.49505166  0.70327778  0.29720338  1
  Zr  Zr10  1  0.10016199  0.69697944  0.89884757  1
  Zr  Zr11  1  0.69828086  0.30110103  0.09759355  1
  Zr  Zr12  1  0.70446479  0.50055486  0.49182305  1
  Zr  Zr13  1  0.50831072  0.30310986  0.90247108  1
  Zr  Zr14  1  0.69579793  0.10938021  0.10999233  1
  Zr  Zr15  1  0.29169928  0.90653145  0.10320969  1
  Zr  Zr16  1  0.89835925  0.29623220  0.69328765  1
  Zr  Zr17  1  0.89927788  0.49751778  0.09916620  1
  Zr  Zr18  1  0.70391202  0.69962926  0.09873128  1
  Zr  Zr19  1  0.69935468  0.90039221  0.71324914  1
  Zr  Zr20  1  0.49879417  0.89664179  0.29846754  1
  Zr  Zr21  1  0.90390935  0.10235415  0.29838430  1
  Zr  Zr22  1  0.70038844  0.29573232  0.30002958  1
  Zr  Zr23  1  0.29500575  0.90012944  0.49144967  1
  Zr  Zr24  1  0.90414422  0.10065159  0.70695388  1
  Zr  Zr25  1  0.49667121  0.69921957  0.90450102  1
  Zr  Zr26  1  0.09623770  0.10039930  0.89416409  1
  Zr  Zr27  1  0.09919831  0.70633417  0.49848483  1
  Zr  Zr28  1  0.10518211  0.09292662  0.11060812  1
  Zr  Zr29  1  0.49447850  0.30536619  0.69992638  1
  Zr  Zr30  1  0.10619816  0.50453247  0.49536400  1
  Zr  Zr31  1  0.50613075  0.89717168  0.10304791  1
  Zr  Zr32  1  0.29110812  0.10147398  0.49592978  1
  Zr  Zr33  1  0.51033391  0.50622026  0.30178723  1
  Zr  Zr34  1  0.50181554  0.28693467  0.10291320  1
  Zr  Zr35  1  0.29828780  0.50446178  0.30291009  1
  Zr  Zr36  1  0.50481134  0.70525295  0.10031273  1
  Zr  Zr37  1  0.50406004  0.90364839  0.70498581  1
  Zr  Zr38  1  0.49618692  0.49919529  0.90056077  1
  Zr  Zr39  1  0.71511927  0.10215440  0.90454855  1
  Zr  Zr40  1  0.89495038  0.91130305  0.89665732  1
  Zr  Zr41  1  0.30148514  0.29898036  0.29317682  1
  Zr  Zr42  1  0.29479890  0.89876412  0.70234379  1
  Zr  Zr43  1  0.10071987  0.29481415  0.49858189  1
  Zr  Zr44  1  0.70444994  0.49773924  0.10578932  1
  Zr  Zr45  1  0.09275795  0.10681518  0.68777030  1
  Zr  Zr46  1  0.70693528  0.69641869  0.49810743  1
  Zr  Zr47  1  0.89834615  0.70201477  0.09512381  1
  Zr  Zr48  1  0.70531117  0.89581452  0.50163150  1
  Zr  Zr49  1  0.29675434  0.29838434  0.10602016  1
  Sc  Sc50  1  0.49853641  0.10646843  0.91447854  1
  Sc  Sc51  1  0.90330212  0.29908605  0.30163268  1
  Sc  Sc52  1  0.49559606  0.69256871  0.48651614  1
  Sc  Sc53  1  0.69284649  0.90519915  0.29968772  1
  Sc  Sc54  1  0.70827498  0.30147830  0.49664307  1
  Sc  Sc55  1  0.28797044  0.70304118  0.10006492  1
  Sc  Sc56  1  0.49318065  0.70298216  0.71660707  1
  Sc  Sc57  1  0.50662403  0.49370603  0.10530212  1
  Sc  Sc58  1  0.70263406  0.29925956  0.70172046  1
  Sc  Sc59  1  0.69563022  0.10696414  0.30366517  1
  Sc  Sc60  1  0.49949729  0.91158862  0.49216393  1
  Sc  Sc61  1  0.71315930  0.49654946  0.70295119  1
  Sc  Sc62  1  0.29257531  0.70062772  0.70809576  1
  Sc  Sc63  1  0.27662674  0.10627044  0.70291888  1
  Sc  Sc64  1  0.90342581  0.70317343  0.90058516  1
  Sc  Sc65  1  0.90143046  0.70672756  0.30410186  1
  Sc  Sc66  1  0.90331034  0.70607773  0.70422069  1
  Sc  Sc67  1  0.09824240  0.90907459  0.29391187  1
  Sc  Sc68  1  0.91370983  0.10784666  0.50643159  1
  Sc  Sc69  1  0.89692134  0.10471320  0.08888475  1
  Sc  Sc70  1  0.70247878  0.89050052  0.09982256  1
  Sc  Sc71  1  0.09860526  0.48828852  0.09275813  1
  Sc  Sc72  1  0.09582173  0.89618642  0.69419696  1
  Sc  Sc73  1  0.09248582  0.29797345  0.91118952  1
  Sc  Sc74  1  0.48843199  0.49811784  0.70507018  1
  Sc  Sc75  1  0.71086904  0.70137038  0.70546451  1
  Sc  Sc76  1  0.29284141  0.70399612  0.48453133  1
  Sc  Sc77  1  0.29525983  0.10214828  0.29719887  1
  Sc  Sc78  1  0.30148996  0.49634750  0.69591630  1
  Sc  Sc79  1  0.28947369  0.90238484  0.90766815  1
  Sc  Sc80  1  0.90048325  0.70559568  0.49571157  1
  Sc  Sc81  1  0.10182027  0.70383894  0.70396239  1
  Sc  Sc82  1  0.30665667  0.09831995  0.09866040  1
  Sc  Sc83  1  0.50460123  0.89284947  0.89958181  1
  Sc  Sc84  1  0.69681107  0.10060747  0.70096497  1
  Sc  Sc85  1  0.49650465  0.30093541  0.49312713  1
  Sc  Sc86  1  0.89615848  0.49633007  0.90134849  1
  Sc  Sc87  1  0.91016879  0.88899986  0.50017804  1
  Sc  Sc88  1  0.09926271  0.49744956  0.30177857  1
  Sc  Sc89  1  0.90694845  0.89795106  0.10207654  1
  Sc  Sc90  1  0.89795637  0.49520531  0.48845945  1
  Sc  Sc91  1  0.49068969  0.49634596  0.49175813  1
  Sc  Sc92  1  0.89461838  0.49875378  0.70155408  1
  Sc  Sc93  1  0.28969262  0.49977229  0.10149619  1
  Sc  Sc94  1  0.49602907  0.30273714  0.29899495  1
  Sc  Sc95  1  0.30300147  0.30785222  0.49543761  1
  Sc  Sc96  1  0.70913613  0.71466595  0.90054769  1
  Sc  Sc97  1  0.10093416  0.89883319  0.10227761  1
  Sc  Sc98  1  0.29689036  0.50357323  0.90515543  1
  Sc  Sc99  1  0.68470107  0.10546963  0.49765317  1
  Nb  Nb100  1  0.89999624  0.90575518  0.69344103  1
  Nb  Nb101  1  0.70220238  0.49674062  0.29682128  1
  Nb  Nb102  1  0.10145270  0.29768018  0.09929475  1
  Nb  Nb103  1  0.30264379  0.70746383  0.29654410  1
  Nb  Nb104  1  0.69920610  0.90361594  0.90005447  1
  Nb  Nb105  1  0.90315326  0.10264404  0.89873016  1
  Nb  Nb106  1  0.69970728  0.30828857  0.90397008  1
  Nb  Nb107  1  0.09450786  0.69390224  0.10434356  1
  Nb  Nb108  1  0.90287655  0.49347363  0.29206025  1
  Nb  Nb109  1  0.10389215  0.29390296  0.70185745  1
  Nb  Nb110  1  0.29520306  0.09992683  0.90168325  1
  Nb  Nb111  1  0.49407137  0.10114740  0.49873601  1
  Nb  Nb112  1  0.50335284  0.09749698  0.10864637  1
  Nb  Nb113  1  0.50908309  0.09273197  0.30582974  1
  Nb  Nb114  1  0.09711058  0.10385223  0.30330310  1
  Nb  Nb115  1  0.09906835  0.90120420  0.90378484  1
  Nb  Nb116  1  0.10258794  0.09491459  0.49597846  1
  Nb  Nb117  1  0.29674335  0.29464383  0.90252942  1
  Nb  Nb118  1  0.09917357  0.49170645  0.89504647  1
  Nb  Nb119  1  0.09887926  0.90085140  0.49900425  1
  Nb  Nb120  1  0.89765367  0.30781046  0.50340822  1
  Nb  Nb121  1  0.30391355  0.88671799  0.29517214  1
  Nb  Nb122  1  0.29738280  0.29644697  0.70111430  1
  Nb  Nb123  1  0.09881330  0.28861573  0.28339453  1
  Nb  Nb124  1  0.69636699  0.48614719  0.90449843  1
  Nb  Nb125  1  0.80126662  0.00401488  0.20480435  1
  Nb  Nb126  1  0.00621588  0.39627079  0.79458126  1
  Nb  Nb127  1  0.40309202  0.80271617  0.59760116  1
  Nb  Nb128  1  0.59425527  0.79316066  0.59885571  1
  Nb  Nb129  1  -0.00028940  0.59956212  0.19710779  1
  Nb  Nb130  1  0.00305539  0.39937526  0.60038081  1
  Nb  Nb131  1  0.59600797  0.59952227  0.60506275  1
  Nb  Nb132  1  0.40653238  -0.00195363  0.20373372  1
  Nb  Nb133  1  0.60562024  0.59688676  -0.00567021  1
  Nb  Nb134  1  0.60135922  0.79712566  0.40285154  1
  Nb  Nb135  1  0.00253051  0.59573875  0.59680329  1
  Nb  Nb136  1  0.19935570  0.19849452  0.00239507  1
  Nb  Nb137  1  0.60028993  0.40820372  0.59846953  1
  Nb  Nb138  1  0.39749004  0.39201130  0.00171795  1
  Nb  Nb139  1  0.40006111  0.60919212  0.59906911  1
  Nb  Nb140  1  0.39654938  0.00556984  0.60411867  1
  Nb  Nb141  1  0.60505852  0.59562770  0.80578373  1
  Nb  Nb142  1  0.80418343  -0.00104830  0.59869025  1
  Nb  Nb143  1  0.39701317  0.60626656  0.20227368  1
  Nb  Nb144  1  0.39443067  0.01036761  0.80055322  1
  Nb  Nb145  1  0.39631020  0.19614683  0.60410314  1
  Nb  Nb146  1  0.39264942  0.19848740  0.80031193  1
  Nb  Nb147  1  0.60549590  0.00037864  0.00404475  1
  Nb  Nb148  1  0.19723905  0.39223289  0.80164940  1
  Nb  Nb149  1  0.80341797  0.00243755  0.40448885  1
  Pd  Pd150  1  0.79553079  0.19014278  0.59357112  1
  Pd  Pd151  1  0.81064816  0.59613184  0.39028495  1
  Pd  Pd152  1  0.00330054  0.59294274  0.00157785  1
  Pd  Pd153  1  0.00238482  0.00176258  0.00444094  1
  Pd  Pd154  1  0.19843358  -0.00413656  0.38872125  1
  Pd  Pd155  1  0.79993437  0.80295075  0.60716550  1
  Pd  Pd156  1  0.40463108  0.59000091  0.01562619  1
  Pd  Pd157  1  0.00683892  -0.00552839  0.79568048  1
  Pd  Pd158  1  0.00471481  0.79393752  0.20410399  1
  Pd  Pd159  1  -0.00450644  0.60186395  0.39620259  1
  Pd  Pd160  1  0.60428720  0.40650059  0.78753539  1
  Pd  Pd161  1  0.20545308  0.79603067  0.59887989  1
  Pd  Pd162  1  0.38745429  0.39667872  0.80980580  1
  Pd  Pd163  1  0.59378648  0.01260689  0.81752996  1
  Pd  Pd164  1  0.60265220  0.39586335  0.40354583  1
  Pd  Pd165  1  0.39330726  0.80776789  0.00330397  1
  Pd  Pd166  1  0.79709890  0.59968262  0.81052640  1
  Pd  Pd167  1  0.79520504  -0.00423055  0.01246728  1
  Pd  Pd168  1  0.20510895  0.59279214  0.80137828  1
  Pd  Pd169  1  0.80397173  0.19421646  0.40873740  1
  Pd  Pd170  1  0.40130262  0.40965559  0.19659751  1
  Pd  Pd171  1  0.19775331  0.20616490  0.39597014  1
  Pd  Pd172  1  0.79680353  0.20337203  0.79842555  1
  Pd  Pd173  1  -0.00452860  0.19510216  0.19194618  1
  Pd  Pd174  1  0.81096549  0.60227777  0.20684044  1
  Pd  Pd175  1  0.19830249  0.39238701  0.60300659  1
  Pd  Pd176  1  0.19094278  0.59789524  0.00112858  1
  Pd  Pd177  1  0.80259807  0.39003477  0.20337983  1
  Pd  Pd178  1  0.59612826  0.21474251  0.59313697  1
  Pd  Pd179  1  -0.00445542  0.59329478  0.79502401  1
  Pd  Pd180  1  0.60269937  -0.00597955  0.59458127  1
  Pd  Pd181  1  0.19541900  0.39110423  0.38899087  1
  Pd  Pd182  1  -0.00239514  -0.00070933  0.40714152  1
  Pd  Pd183  1  0.00378263  0.39202693  0.39845726  1
  Pd  Pd184  1  0.79691797  0.80621744  0.20709200  1
  Pd  Pd185  1  0.60035897  0.19688175  0.80765268  1
  Pd  Pd186  1  0.40801064  -0.00520195  -0.00009303  1
  Pd  Pd187  1  -0.00016644  0.20516774  0.40172014  1
  Pd  Pd188  1  0.39237999  0.80997546  0.80357347  1
  Pd  Pd189  1  0.19407004  -0.00436836  0.79883516  1
  Pd  Pd190  1  0.19723968  -0.00188176  0.59998687  1
  Pd  Pd191  1  0.39452635  0.20231810  -0.00094295  1
  Pd  Pd192  1  0.00104548  0.80317162  -0.00442161  1
  Pd  Pd193  1  0.19165266  0.79721662  0.00149614  1
  Pd  Pd194  1  0.79370502  0.59810988  -0.01067595  1
  Pd  Pd195  1  -0.00059679  0.80819975  0.80151483  1
  Pd  Pd196  1  0.19225532  0.40371221  0.20453079  1
  Pd  Pd197  1  0.40200776  0.19760690  0.39861948  1
  Pd  Pd198  1  0.80790120  0.59858315  0.59925837  1
  Pd  Pd199  1  0.39366466  0.00230746  0.39368896  1
  Rh  Rh200  1  0.79948687  0.40193725  0.59667392  1
  Rh  Rh201  1  -0.00731884  0.00547399  0.19609355  1
  Rh  Rh202  1  0.19327223  0.80435511  0.81010827  1
  Rh  Rh203  1  0.39655528  0.40287422  0.39315238  1
  Rh  Rh204  1  0.00088838  0.79382409  0.60100425  1
  Rh  Rh205  1  0.00184223  0.20777021  0.59437880  1
  Rh  Rh206  1  0.59514418  0.40184012  0.00792105  1
  Rh  Rh207  1  0.00635346  0.40336346  0.20148414  1
  Rh  Rh208  1  0.80794354  0.80860726  -0.00334563  1
  Rh  Rh209  1  0.80280103  0.40011637  0.38903569  1
  Rh  Rh210  1  0.60285631  0.00015396  0.19508496  1
  Rh  Rh211  1  0.80666085  0.20006005  0.19766083  1
  Rh  Rh212  1  0.01057142  0.80351883  0.39556812  1
  Rh  Rh213  1  0.79294267  0.80707090  0.39303082  1
  Rh  Rh214  1  0.19999699  0.19392225  0.19649772  1
  Rh  Rh215  1  -0.00097836  -0.00321617  0.59422322  1
  Rh  Rh216  1  0.60560692  0.80072731  -0.00605113  1
  Rh  Rh217  1  0.40335506  0.39880454  0.59552558  1
  Rh  Rh218  1  0.59672158  0.60023739  0.19086378  1
  Rh  Rh219  1  0.20384911  0.20453969  0.58905881  1
  Rh  Rh220  1  0.39107238  0.79941612  0.18642601  1
  Rh  Rh221  1  0.19033199  0.00656890  -0.00274973  1
  Rh  Rh222  1  0.79793865  0.20664806  0.00264606  1
  Rh  Rh223  1  0.60643297  -0.00328390  0.40468155  1
  Rh  Rh224  1  0.19569719  0.20555312  0.81122375  1
  Rh  Rh225  1  0.40584631  0.80418399  0.40872358  1
  Rh  Rh226  1  0.20764362  0.00068576  0.20871024  1
  Rh  Rh227  1  0.60337202  0.60017797  0.40518069  1
  Rh  Rh228  1  0.00951630  0.18920485  0.00579358  1
  Rh  Rh229  1  0.20354273  0.61138801  0.59551321  1
  Rh  Rh230  1  0.20308281  0.60281833  0.39731305  1
  Rh  Rh231  1  0.80182308  0.00283169  0.79318332  1
  Rh  Rh232  1  0.60562646  0.78841814  0.79916904  1
  Rh  Rh233  1  0.80398811  0.39538249  -0.00046936  1
  Rh  Rh234  1  0.00163693  0.20553249  0.80025466  1
  Rh  Rh235  1  0.60278437  0.39420378  0.20329833  1
  Rh  Rh236  1  0.60961221  0.79568618  0.20863089  1
  Rh  Rh237  1  0.19813272  0.59864353  0.19824892  1
  Rh  Rh238  1  -0.00334132  0.40242186  -0.00684788  1
  Rh  Rh239  1  0.80874281  0.80938571  0.80205906  1
  Rh  Rh240  1  0.19260976  0.81103550  0.39089138  1
  Rh  Rh241  1  0.19501834  0.80189094  0.19912840  1
  Rh  Rh242  1  0.20448459  0.39155707  -0.00588210  1
  Rh  Rh243  1  0.40797447  0.18514097  0.21181794  1
  Rh  Rh244  1  0.39194726  0.59890905  0.39673019  1
  Rh  Rh245  1  0.80599230  0.39194579  0.80606338  1
  Rh  Rh246  1  0.59239898  0.20436311  0.39997194  1
  Rh  Rh247  1  0.60942022  0.19296046  -0.00452451  1
  Rh  Rh248  1  0.39459666  0.59911782  0.79420684  1
  Rh  Rh249  1  0.59228501  0.20377635  0.21256891  1
