# generated using pymatgen
data_ZrScNbPdRh
_symmetry_space_group_name_H-M   'P 1'
_cell_length_a   16.55871244
_cell_length_b   16.55738068
_cell_length_c   16.55462568
_cell_angle_alpha   89.98709515
_cell_angle_beta   90.02025467
_cell_angle_gamma   89.95467721
_symmetry_Int_Tables_number   1
_chemical_formula_structural   ZrScNbPdRh
_chemical_formula_sum   'Zr50 Sc50 Nb50 Pd50 Rh50'
_cell_volume   4538.76178410
_cell_formula_units_Z   50
loop_
 _symmetry_equiv_pos_site_id
 _symmetry_equiv_pos_as_xyz
  1  'x, y, z'
loop_
 _atom_site_type_symbol
 _atom_site_label
 _atom_site_symmetry_multiplicity
 _atom_site_fract_x
 _atom_site_fract_y
 _atom_site_fract_z
 _atom_site_occupancy
  Zr  Zr0  1  0.71401125  0.69577574  0.90555068  1
  Zr  Zr1  1  0.49975244  0.69441119  0.90411710  1
  Zr  Zr2  1  0.70233114  0.49661695  0.69858443  1
  Zr  Zr3  1  0.69706732  0.90439133  0.89712145  1
  Zr  Zr4  1  0.49690016  0.69903484  0.10690052  1
  Zr  Zr5  1  0.89782672  0.09696856  0.09999011  1
  Zr  Zr6  1  0.90531663  0.30073401  0.90208387  1
  Zr  Zr7  1  0.09675810  0.11362834  0.49631797  1
  Zr  Zr8  1  0.89544982  0.30109901  0.09724570  1
  Zr  Zr9  1  0.10289373  0.90091753  0.10211937  1
  Zr  Zr10  1  0.29419470  0.69990282  0.70629939  1
  Zr  Zr11  1  0.90485298  0.29779042  0.29213633  1
  Zr  Zr12  1  0.89131544  0.10874059  0.69989142  1
  Zr  Zr13  1  0.30351100  0.89443335  0.69820595  1
  Zr  Zr14  1  0.28901445  0.30543778  0.70021466  1
  Zr  Zr15  1  0.09971588  0.68765828  0.30201446  1
  Zr  Zr16  1  0.90364974  0.69372772  0.89931296  1
  Zr  Zr17  1  0.30078840  0.29658974  0.28816493  1
  Zr  Zr18  1  0.50972328  0.30076143  0.70182510  1
  Zr  Zr19  1  0.29751719  0.70151447  0.50151024  1
  Zr  Zr20  1  0.90840841  0.29276085  0.50258299  1
  Zr  Zr21  1  0.90373488  0.89545391  0.29863527  1
  Zr  Zr22  1  0.10036581  0.50241679  0.49362312  1
  Zr  Zr23  1  0.90053195  0.90119467  0.10706986  1
  Zr  Zr24  1  0.30115134  0.89604637  0.50093380  1
  Zr  Zr25  1  0.90190437  0.69955144  0.49532614  1
  Zr  Zr26  1  0.49318683  0.49999359  0.69027417  1
  Zr  Zr27  1  0.49369488  0.89626229  0.49676980  1
  Zr  Zr28  1  0.09817682  0.30267453  0.70013183  1
  Zr  Zr29  1  0.70166674  0.89861355  0.49779338  1
  Zr  Zr30  1  0.70605487  0.11041313  0.50234850  1
  Zr  Zr31  1  0.89757842  0.50898433  0.90238125  1
  Zr  Zr32  1  0.49897616  0.29573609  0.90656338  1
  Zr  Zr33  1  0.30393294  0.10213762  0.29814740  1
  Zr  Zr34  1  0.50208106  0.30716772  0.50018388  1
  Zr  Zr35  1  0.49212053  0.69597744  0.69950478  1
  Zr  Zr36  1  0.69286665  0.49787094  0.29722864  1
  Zr  Zr37  1  0.69591001  0.30739468  0.90324875  1
  Zr  Zr38  1  0.70107451  0.10345894  0.70443815  1
  Zr  Zr39  1  0.10192715  0.50556206  0.10374542  1
  Zr  Zr40  1  0.69396034  0.11393301  0.30390609  1
  Zr  Zr41  1  0.90012978  0.90262413  0.49004270  1
  Zr  Zr42  1  0.69531063  0.30099244  0.29716099  1
  Zr  Zr43  1  0.09961816  0.30543586  0.50638440  1
  Zr  Zr44  1  0.90783919  0.49548496  0.09583812  1
  Zr  Zr45  1  0.10258192  0.70021963  0.49838862  1
  Zr  Zr46  1  0.69946308  0.29385057  0.69353248  1
  Zr  Zr47  1  0.30076178  0.09240158  0.70120067  1
  Zr  Zr48  1  0.89791896  0.10721445  0.90044462  1
  Zr  Zr49  1  0.29765880  0.89977978  0.89472914  1
  Sc  Sc50  1  0.10064428  0.89622258  0.29185018  1
  Sc  Sc51  1  0.70774052  0.88991076  0.29761234  1
  Sc  Sc52  1  0.10093407  0.29868468  0.30400769  1
  Sc  Sc53  1  0.90662732  0.09796106  0.30192701  1
  Sc  Sc54  1  0.10774016  0.69647363  0.10441252  1
  Sc  Sc55  1  0.70936119  0.89942671  0.10122672  1
  Sc  Sc56  1  0.29939157  0.69131405  0.10238319  1
  Sc  Sc57  1  0.69700723  0.69855803  0.49249792  1
  Sc  Sc58  1  0.11539119  0.89293016  0.70704096  1
  Sc  Sc59  1  0.69437566  0.10149695  0.90217683  1
  Sc  Sc60  1  0.69324382  0.69772528  0.69543624  1
  Sc  Sc61  1  0.29693346  0.70140389  0.29371661  1
  Sc  Sc62  1  0.29224482  0.89727666  0.10605775  1
  Sc  Sc63  1  0.49627692  0.10413449  0.49480690  1
  Sc  Sc64  1  0.30182346  0.09839162  0.48979718  1
  Sc  Sc65  1  0.49337000  0.49610686  0.10477255  1
  Sc  Sc66  1  0.50255197  0.70011068  0.50412756  1
  Sc  Sc67  1  0.10006202  0.08973366  0.09833595  1
  Sc  Sc68  1  0.90254832  0.30688212  0.69830032  1
  Sc  Sc69  1  0.09188534  0.31094513  0.10485892  1
  Sc  Sc70  1  0.30509208  0.90279410  0.29823043  1
  Sc  Sc71  1  0.50861621  0.90205794  0.89597283  1
  Sc  Sc72  1  0.10869951  0.69124435  0.90070377  1
  Sc  Sc73  1  0.29628761  0.49390004  0.29649505  1
  Sc  Sc74  1  0.29817768  0.10259370  0.10599513  1
  Sc  Sc75  1  0.50257589  0.70379019  0.29403887  1
  Sc  Sc76  1  0.49869398  0.29910037  0.29932759  1
  Sc  Sc77  1  0.89285394  0.90596670  0.90562616  1
  Sc  Sc78  1  0.50614085  0.89976864  0.10648066  1
  Sc  Sc79  1  0.89922465  0.70083095  0.29853480  1
  Sc  Sc80  1  0.10114284  0.50058668  0.29559528  1
  Sc  Sc81  1  0.49951176  0.10597206  0.09678707  1
  Sc  Sc82  1  0.89524867  0.69941673  0.09446116  1
  Sc  Sc83  1  0.49972629  0.49170946  0.29937206  1
  Sc  Sc84  1  0.29552016  0.30273476  0.49376628  1
  Sc  Sc85  1  0.29987685  0.49269341  0.50432888  1
  Sc  Sc86  1  0.09699102  0.49995916  0.90465399  1
  Sc  Sc87  1  0.49875142  0.89524452  0.70209977  1
  Sc  Sc88  1  0.49289826  0.30215964  0.09872699  1
  Sc  Sc89  1  0.69639901  0.50657988  0.49702572  1
  Sc  Sc90  1  0.49727666  0.49360767  0.91032910  1
  Sc  Sc91  1  0.10649270  0.10061994  0.29710434  1
  Sc  Sc92  1  0.29945929  0.68679097  0.90150067  1
  Sc  Sc93  1  0.11396434  0.90791454  0.90629345  1
  Sc  Sc94  1  0.90115020  0.50113303  0.50797986  1
  Sc  Sc95  1  0.10119804  0.89283572  0.49013892  1
  Sc  Sc96  1  0.89437236  0.91332905  0.70433961  1
  Sc  Sc97  1  0.29479946  0.09411960  0.89806896  1
  Sc  Sc98  1  0.69494091  0.69922541  0.29991654  1
  Sc  Sc99  1  0.90786661  0.50468798  0.30031825  1
  Nb  Nb100  1  0.70212926  0.50066374  0.90359349  1
  Nb  Nb101  1  0.10260644  0.10198943  0.69905389  1
  Nb  Nb102  1  0.09679347  0.50130237  0.69880594  1
  Nb  Nb103  1  0.29880412  0.30496861  0.90274731  1
  Nb  Nb104  1  0.69564348  0.09960868  0.10312430  1
  Nb  Nb105  1  0.70224779  0.90448940  0.70213782  1
  Nb  Nb106  1  0.90523388  0.09784408  0.50276373  1
  Nb  Nb107  1  0.50070751  0.90402580  0.29652124  1
  Nb  Nb108  1  0.70221768  0.29735297  0.49542419  1
  Nb  Nb109  1  0.29988577  0.30572665  0.09518914  1
  Nb  Nb110  1  0.70041365  0.30732611  0.10324043  1
  Nb  Nb111  1  0.50288852  0.10831576  0.69985895  1
  Nb  Nb112  1  0.49083819  0.50378860  0.49525164  1
  Nb  Nb113  1  0.29859759  0.49042028  0.09496032  1
  Nb  Nb114  1  0.90493346  0.69598909  0.70341450  1
  Nb  Nb115  1  0.49573258  0.09770075  0.29987644  1
  Nb  Nb116  1  0.29590729  0.50401036  0.70356022  1
  Nb  Nb117  1  0.70008486  0.70080896  0.10264381  1
  Nb  Nb118  1  0.10036304  0.29538567  0.89673505  1
  Nb  Nb119  1  0.70158531  0.48768935  0.09582910  1
  Nb  Nb120  1  0.09993901  0.10372038  0.89807115  1
  Nb  Nb121  1  0.29775282  0.49740757  0.90600127  1
  Nb  Nb122  1  0.90299249  0.50999404  0.70610853  1
  Nb  Nb123  1  0.09925996  0.69860624  0.70362163  1
  Nb  Nb124  1  0.50100743  0.10046709  0.90364478  1
  Nb  Nb125  1  0.00515186  0.00156808  0.60259061  1
  Nb  Nb126  1  0.00689695  0.00532898  0.79912000  1
  Nb  Nb127  1  0.60312383  0.79326668  0.00297983  1
  Nb  Nb128  1  -0.00421725  0.80206349  0.61002730  1
  Nb  Nb129  1  0.19426797  0.00091669  0.59757368  1
  Nb  Nb130  1  0.80504971  0.80141342  0.60585094  1
  Nb  Nb131  1  0.60194196  0.59427768  0.80712952  1
  Nb  Nb132  1  0.40125373  0.20256757  0.60806412  1
  Nb  Nb133  1  0.40301869  -0.00388511  -0.00248079  1
  Nb  Nb134  1  0.19713460  0.59819059  0.60783805  1
  Nb  Nb135  1  0.40336409  0.80192631  0.00120161  1
  Nb  Nb136  1  0.19685951  0.20860786  -0.00564437  1
  Nb  Nb137  1  0.80355702  0.79868560  0.79326573  1
  Nb  Nb138  1  -0.00101443  0.80193926  0.80146446  1
  Nb  Nb139  1  0.59697669  0.00011298  0.39610862  1
  Nb  Nb140  1  0.40037686  0.59691595  0.40220427  1
  Nb  Nb141  1  0.39093271  0.39851347  0.80259033  1
  Nb  Nb142  1  0.79201759  0.59491166  0.19272366  1
  Nb  Nb143  1  0.60151532  0.00613087  0.20665537  1
  Nb  Nb144  1  0.60103937  0.00168353  0.59894252  1
  Nb  Nb145  1  0.79835937  0.39327526  0.40229189  1
  Nb  Nb146  1  0.79953203  0.40768443  0.80084845  1
  Nb  Nb147  1  0.00238695  0.80161374  -0.00400081  1
  Nb  Nb148  1  0.60835965  0.59738544  0.00523573  1
  Nb  Nb149  1  0.40064862  0.20203951  0.80139846  1
  Pd  Pd150  1  0.80041742  0.19656686  0.19684531  1
  Pd  Pd151  1  0.19249257  0.20396955  0.18810709  1
  Pd  Pd152  1  0.60572272  0.20319628  0.00721341  1
  Pd  Pd153  1  0.21022468  0.19387015  0.59380873  1
  Pd  Pd154  1  0.59757274  0.40818300  0.80284552  1
  Pd  Pd155  1  0.41003854  0.00338110  0.80511140  1
  Pd  Pd156  1  0.00761480  0.19379454  0.19446931  1
  Pd  Pd157  1  0.20334197  0.79253014  -0.00096506  1
  Pd  Pd158  1  0.79354559  0.00567129  0.39138565  1
  Pd  Pd159  1  -0.00413538  0.40741105  0.80177366  1
  Pd  Pd160  1  0.81177673  0.20363699  0.39785183  1
  Pd  Pd161  1  0.80395460  0.39943984  0.59769868  1
  Pd  Pd162  1  0.38797833  0.19049697  -0.00352895  1
  Pd  Pd163  1  0.40158068  0.79078728  0.39181520  1
  Pd  Pd164  1  0.79745126  0.60877089  0.60095954  1
  Pd  Pd165  1  0.79029287  0.20100389  0.00237478  1
  Pd  Pd166  1  0.59648921  0.80160277  0.39394484  1
  Pd  Pd167  1  0.40442611  0.58760986  0.80725161  1
  Pd  Pd168  1  0.18973766  0.39642155  0.00161656  1
  Pd  Pd169  1  0.79398037  0.00423712  -0.00064689  1
  Pd  Pd170  1  0.60455477  0.40585749  0.58920162  1
  Pd  Pd171  1  0.59928646  0.59752052  0.59943360  1
  Pd  Pd172  1  0.80060442  0.59296755  0.39033289  1
  Pd  Pd173  1  0.60303855  0.40243530  0.40461951  1
  Pd  Pd174  1  0.20192394  0.39847937  0.39394901  1
  Pd  Pd175  1  0.19743883  -0.00140016  0.40072435  1
  Pd  Pd176  1  0.60362010  0.80602524  0.60298866  1
  Pd  Pd177  1  0.39898279  0.79598479  0.80855520  1
  Pd  Pd178  1  0.80027098  -0.00155803  0.59658798  1
  Pd  Pd179  1  0.19743318  0.40856245  0.80490326  1
  Pd  Pd180  1  0.40311668  0.00648141  0.59566281  1
  Pd  Pd181  1  0.00122005  -0.00526632  -0.00708135  1
  Pd  Pd182  1  0.40052465  0.20733156  0.40286995  1
  Pd  Pd183  1  0.80496442  0.40714789  0.20802715  1
  Pd  Pd184  1  0.59059245  0.20317262  0.19289516  1
  Pd  Pd185  1  -0.00062431  0.19830780  0.79348898  1
  Pd  Pd186  1  0.39421906  0.59314828  0.20858425  1
  Pd  Pd187  1  0.60769081  0.79017595  0.80371789  1
  Pd  Pd188  1  0.00936386  0.20025252  0.00980103  1
  Pd  Pd189  1  0.20528642  0.19687155  0.80438484  1
  Pd  Pd190  1  0.20053660  0.80125477  0.38838697  1
  Pd  Pd191  1  0.59396957  0.00586121  0.79236123  1
  Pd  Pd192  1  0.40357054  0.00079438  0.19008662  1
  Pd  Pd193  1  0.60192900  0.59359881  0.19510412  1
  Pd  Pd194  1  0.39429867  0.39366614  0.60382197  1
  Pd  Pd195  1  0.01028396  0.00141253  0.39909261  1
  Pd  Pd196  1  -0.00502035  0.40172845  0.39813554  1
  Pd  Pd197  1  0.00503204  0.60242798  0.59830258  1
  Pd  Pd198  1  0.79340596  0.00638022  0.21052618  1
  Pd  Pd199  1  0.00122662  0.78902066  0.19254518  1
  Rh  Rh200  1  0.80181314  0.80608290  -0.00297441  1
  Rh  Rh201  1  0.80081430  0.79340379  0.40293374  1
  Rh  Rh202  1  0.00042781  0.19971542  0.39475540  1
  Rh  Rh203  1  0.39715177  0.40486503  0.39600893  1
  Rh  Rh204  1  0.59883105  0.19673027  0.80894704  1
  Rh  Rh205  1  0.20939501  0.01119176  0.00457042  1
  Rh  Rh206  1  0.80192714  0.78860718  0.20255651  1
  Rh  Rh207  1  0.19384419  0.40925184  0.60028238  1
  Rh  Rh208  1  0.40024023  0.59864801  0.00558509  1
  Rh  Rh209  1  0.59480364  0.40207100  0.00740387  1
  Rh  Rh210  1  -0.00042826  0.40650381  0.60303243  1
  Rh  Rh211  1  0.19478971  0.59122282  0.79780109  1
  Rh  Rh212  1  0.00932290  0.60044167  0.80331369  1
  Rh  Rh213  1  0.19878849  0.79393161  0.80881121  1
  Rh  Rh214  1  0.00741230  0.60947478  0.00489449  1
  Rh  Rh215  1  0.40319497  -0.00288233  0.39848581  1
  Rh  Rh216  1  0.00305893  0.39921457  -0.00454724  1
  Rh  Rh217  1  0.80493504  0.20636580  0.59785688  1
  Rh  Rh218  1  0.40163649  0.79506422  0.60292787  1
  Rh  Rh219  1  0.20036580  0.79712345  0.20275315  1
  Rh  Rh220  1  0.40150995  0.20213217  0.19736885  1
  Rh  Rh221  1  0.39745697  0.80358472  0.19501736  1
  Rh  Rh222  1  0.20476925  0.59412386  0.00427433  1
  Rh  Rh223  1  0.58561967  0.60146161  0.39800116  1
  Rh  Rh224  1  0.39725696  0.39679152  0.19875400  1
  Rh  Rh225  1  0.20129150  0.20491032  0.39761054  1
  Rh  Rh226  1  0.38898861  0.60220389  0.59244946  1
  Rh  Rh227  1  0.21179626  0.59419065  0.40564150  1
  Rh  Rh228  1  0.59362683  0.39458878  0.19327384  1
  Rh  Rh229  1  0.79435899  0.21357091  0.80510899  1
  Rh  Rh230  1  0.60641998  0.81040676  0.19702536  1
  Rh  Rh231  1  0.80413025  0.39786661  -0.00623775  1
  Rh  Rh232  1  0.79666783  0.59135763  0.01391361  1
  Rh  Rh233  1  -0.00255697  0.59944359  0.39954007  1
  Rh  Rh234  1  0.59666741  -0.00439284  0.01173120  1
  Rh  Rh235  1  0.19992387  0.39851461  0.19784597  1
  Rh  Rh236  1  0.20249128  -0.00010033  0.20384481  1
  Rh  Rh237  1  0.59093785  0.19975616  0.40439412  1
  Rh  Rh238  1  0.19456841  0.79882637  0.59936195  1
  Rh  Rh239  1  0.39838782  0.40262933  -0.00150411  1
  Rh  Rh240  1  0.59406590  0.19462408  0.58932096  1
  Rh  Rh241  1  0.20597744  0.59401762  0.19906852  1
  Rh  Rh242  1  -0.00237203  0.19711932  0.60762481  1
  Rh  Rh243  1  -0.00791985  0.60252954  0.19563899  1
  Rh  Rh244  1  0.19367524  0.00266444  0.79377774  1
  Rh  Rh245  1  0.80255739  0.00150760  0.80865240  1
  Rh  Rh246  1  0.79133387  0.59990903  0.78890108  1
  Rh  Rh247  1  0.00082983  0.40198128  0.20458386  1
  Rh  Rh248  1  0.00104463  0.00194731  0.20269486  1
  Rh  Rh249  1  0.00254719  0.79604821  0.39710066  1
