# generated using pymatgen
data_ZrScNbPdRh
_symmetry_space_group_name_H-M   'P 1'
_cell_length_a   16.55370084
_cell_length_b   16.55611209
_cell_length_c   16.55371226
_cell_angle_alpha   90.01768909
_cell_angle_beta   90.00684283
_cell_angle_gamma   89.99759079
_symmetry_Int_Tables_number   1
_chemical_formula_structural   ZrScNbPdRh
_chemical_formula_sum   'Zr50 Sc50 Nb50 Pd50 Rh50'
_cell_volume   4536.79168374
_cell_formula_units_Z   50
loop_
 _symmetry_equiv_pos_site_id
 _symmetry_equiv_pos_as_xyz
  1  'x, y, z'
loop_
 _atom_site_type_symbol
 _atom_site_label
 _atom_site_symmetry_multiplicity
 _atom_site_fract_x
 _atom_site_fract_y
 _atom_site_fract_z
 _atom_site_occupancy
  Zr  Zr0  1  0.69847541  0.50271884  0.29535014  1
  Zr  Zr1  1  0.51358302  0.30145451  0.90094919  1
  Zr  Zr2  1  0.10526759  0.30543889  0.49677531  1
  Zr  Zr3  1  0.09629781  0.51081848  0.90059658  1
  Zr  Zr4  1  0.30026068  0.09389235  0.91011649  1
  Zr  Zr5  1  0.30204983  0.10305248  0.50288611  1
  Zr  Zr6  1  0.70303144  0.68740233  0.49943161  1
  Zr  Zr7  1  0.10545788  0.89706328  0.49572650  1
  Zr  Zr8  1  0.90696288  0.29344339  0.09318440  1
  Zr  Zr9  1  0.69960733  0.30357868  0.09990326  1
  Zr  Zr10  1  0.10339390  0.09536793  0.70500912  1
  Zr  Zr11  1  0.69426030  0.50694890  0.10401628  1
  Zr  Zr12  1  0.29516398  0.69947183  0.10106192  1
  Zr  Zr13  1  0.29809149  0.09777130  0.69495028  1
  Zr  Zr14  1  0.50154540  0.09632932  0.30448794  1
  Zr  Zr15  1  0.10511438  0.49630731  0.50395967  1
  Zr  Zr16  1  0.30036622  0.30204070  0.11099074  1
  Zr  Zr17  1  0.69540598  0.10612302  0.49851481  1
  Zr  Zr18  1  0.48957823  0.69861357  0.70448676  1
  Zr  Zr19  1  0.68828372  0.09443774  0.69995671  1
  Zr  Zr20  1  0.09731145  0.89975112  0.29636297  1
  Zr  Zr21  1  0.09916554  0.90758579  0.69722250  1
  Zr  Zr22  1  0.49869210  0.10342573  0.69419671  1
  Zr  Zr23  1  0.70929909  0.10200251  0.30569848  1
  Zr  Zr24  1  0.29460991  0.29988900  0.90947772  1
  Zr  Zr25  1  0.30061412  0.50636717  0.10126308  1
  Zr  Zr26  1  0.10608419  0.70567726  0.29641625  1
  Zr  Zr27  1  0.10480622  0.10434197  0.28978635  1
  Zr  Zr28  1  0.49901595  0.50527371  0.51039133  1
  Zr  Zr29  1  0.29730001  0.89725624  0.70026490  1
  Zr  Zr30  1  0.90174293  0.09613496  0.10224135  1
  Zr  Zr31  1  0.09374818  0.70054238  0.09726469  1
  Zr  Zr32  1  0.10276243  0.10040360  0.50418224  1
  Zr  Zr33  1  0.89863327  0.90348577  0.29742822  1
  Zr  Zr34  1  0.29913587  0.29732069  0.69574424  1
  Zr  Zr35  1  0.29800023  0.50444477  0.49665001  1
  Zr  Zr36  1  0.30391274  0.50528462  0.69363800  1
  Zr  Zr37  1  0.09834304  0.69921880  0.69603083  1
  Zr  Zr38  1  0.69020272  0.89465336  0.50427832  1
  Zr  Zr39  1  0.09725196  0.09418863  0.09587445  1
  Zr  Zr40  1  0.51178752  0.89665555  0.69394800  1
  Zr  Zr41  1  0.09099659  0.31311677  0.90372464  1
  Zr  Zr42  1  0.10978329  0.90469956  0.89952859  1
  Zr  Zr43  1  0.30509064  0.89838451  0.50115181  1
  Zr  Zr44  1  0.30147372  0.89175439  0.29956469  1
  Zr  Zr45  1  0.69784017  0.49400284  0.69294289  1
  Zr  Zr46  1  0.90071748  0.29583218  0.30117913  1
  Zr  Zr47  1  0.69775098  0.69904393  0.90277260  1
  Zr  Zr48  1  0.90158356  0.69607070  0.50822258  1
  Zr  Zr49  1  0.49667133  0.50608121  0.90167514  1
  Sc  Sc50  1  0.69527378  0.49145476  0.89986754  1
  Sc  Sc51  1  0.90197615  0.70301942  0.09733296  1
  Sc  Sc52  1  0.90081551  0.89972416  0.10045109  1
  Sc  Sc53  1  0.90823463  0.49729143  0.89611337  1
  Sc  Sc54  1  0.69139737  0.71344905  0.70345241  1
  Sc  Sc55  1  0.90544550  0.09370696  0.30058644  1
  Sc  Sc56  1  0.48899015  0.69047100  0.10209159  1
  Sc  Sc57  1  0.70391654  0.08996763  0.08849164  1
  Sc  Sc58  1  0.50087471  0.09685668  0.09065386  1
  Sc  Sc59  1  0.69898778  0.29436806  0.49991686  1
  Sc  Sc60  1  0.29531677  0.50106879  0.29734548  1
  Sc  Sc61  1  0.49874322  0.29895360  0.10222364  1
  Sc  Sc62  1  0.29096760  0.51245462  0.89815016  1
  Sc  Sc63  1  0.90180771  0.69766729  0.90709229  1
  Sc  Sc64  1  0.10072132  0.50156384  0.70923326  1
  Sc  Sc65  1  0.91355392  0.90752356  0.49550575  1
  Sc  Sc66  1  0.90139707  0.30640292  0.71008736  1
  Sc  Sc67  1  0.89725035  0.50640490  0.50748711  1
  Sc  Sc68  1  0.50243511  0.09706667  0.50096775  1
  Sc  Sc69  1  0.91629076  0.09691695  0.70204686  1
  Sc  Sc70  1  0.10105627  0.50277688  0.09359785  1
  Sc  Sc71  1  0.49310252  0.89407743  0.90772641  1
  Sc  Sc72  1  0.91076948  0.69933807  0.29422183  1
  Sc  Sc73  1  0.29952186  0.89141259  0.09181887  1
  Sc  Sc74  1  0.30171776  0.70539245  0.69861818  1
  Sc  Sc75  1  0.49563282  0.29753261  0.29221452  1
  Sc  Sc76  1  0.50331143  0.28860530  0.50318765  1
  Sc  Sc77  1  0.10347094  0.50146009  0.30751488  1
  Sc  Sc78  1  0.69475189  0.89415843  0.89683134  1
  Sc  Sc79  1  0.69365680  0.89936897  0.29621077  1
  Sc  Sc80  1  0.49272028  0.70520236  0.29651958  1
  Sc  Sc81  1  0.90194466  0.50500230  0.10185835  1
  Sc  Sc82  1  0.69655642  0.69497994  0.29422624  1
  Sc  Sc83  1  0.10479120  0.69845137  0.49823717  1
  Sc  Sc84  1  0.89658032  0.10831017  0.90701537  1
  Sc  Sc85  1  0.49538991  0.69906641  0.49821322  1
  Sc  Sc86  1  0.90478776  0.50587326  0.29773363  1
  Sc  Sc87  1  0.10521229  0.29620433  0.09840999  1
  Sc  Sc88  1  0.90589828  0.30638153  0.50682423  1
  Sc  Sc89  1  0.29735059  0.69889343  0.50333685  1
  Sc  Sc90  1  0.09423107  0.30363695  0.69659439  1
  Sc  Sc91  1  0.90110962  0.49858065  0.69788701  1
  Sc  Sc92  1  0.69953329  0.29707039  0.30517319  1
  Sc  Sc93  1  0.49480631  0.51167379  0.29330740  1
  Sc  Sc94  1  0.90041831  0.09983677  0.49237854  1
  Sc  Sc95  1  0.89866025  0.89223585  0.90517959  1
  Sc  Sc96  1  0.30020642  0.10810528  0.10224539  1
  Sc  Sc97  1  0.50702934  0.30337153  0.69477171  1
  Sc  Sc98  1  0.70302173  0.90038654  0.10644300  1
  Sc  Sc99  1  0.28835698  0.30210073  0.50300163  1
  Nb  Nb100  1  0.89983764  0.89926995  0.70193309  1
  Nb  Nb101  1  0.29242607  0.29441713  0.29753006  1
  Nb  Nb102  1  0.50098027  0.10000530  0.89646801  1
  Nb  Nb103  1  0.89100858  0.30428805  0.90114196  1
  Nb  Nb104  1  0.30054727  0.10259195  0.29624724  1
  Nb  Nb105  1  0.70677444  0.30154204  0.71125986  1
  Nb  Nb106  1  0.09582334  0.69826336  0.89796132  1
  Nb  Nb107  1  0.69503629  0.10471646  0.89573247  1
  Nb  Nb108  1  0.89784824  0.69896426  0.70106272  1
  Nb  Nb109  1  0.49485727  0.89868171  0.48461335  1
  Nb  Nb110  1  0.09561792  0.89502048  0.10102363  1
  Nb  Nb111  1  0.30403011  0.89420657  0.89578565  1
  Nb  Nb112  1  0.31380572  0.71386839  0.90158867  1
  Nb  Nb113  1  0.49242311  0.70141366  0.89939096  1
  Nb  Nb114  1  0.71096119  0.29456685  0.89301411  1
  Nb  Nb115  1  0.50117095  0.89456845  0.11097778  1
  Nb  Nb116  1  0.29720394  0.69545577  0.29817469  1
  Nb  Nb117  1  0.49517256  0.89968103  0.30229874  1
  Nb  Nb118  1  0.69939323  0.50202371  0.49585240  1
  Nb  Nb119  1  0.49435166  0.50015857  0.09796335  1
  Nb  Nb120  1  0.70109260  0.90074658  0.69936678  1
  Nb  Nb121  1  0.10853342  0.30264383  0.29993027  1
  Nb  Nb122  1  0.49788849  0.49938394  0.70459639  1
  Nb  Nb123  1  0.69905808  0.69664669  0.09705955  1
  Nb  Nb124  1  0.10737621  0.09934552  0.89840921  1
  Nb  Nb125  1  0.79564795  -0.00093548  0.79579217  1
  Nb  Nb126  1  0.59764859  0.40744093  0.40242381  1
  Nb  Nb127  1  0.59600386  0.79313359  0.00888635  1
  Nb  Nb128  1  0.20671561  0.00343177  0.39394321  1
  Nb  Nb129  1  0.80127738  0.79780834  0.40525491  1
  Nb  Nb130  1  0.40342239  -0.00640633  0.20353681  1
  Nb  Nb131  1  0.59620452  0.59986373  0.80038016  1
  Nb  Nb132  1  0.80047942  0.39428853  -0.00100867  1
  Nb  Nb133  1  0.40017310  0.19917798  0.80570655  1
  Nb  Nb134  1  0.40106010  0.39897341  0.80292846  1
  Nb  Nb135  1  0.00554794  0.39462294  0.20321428  1
  Nb  Nb136  1  0.40053746  0.39659406  0.39991202  1
  Nb  Nb137  1  0.00097365  0.79868602  0.79687214  1
  Nb  Nb138  1  0.79891418  -0.00275819  0.60564477  1
  Nb  Nb139  1  0.60748302  0.19412524  0.19915282  1
  Nb  Nb140  1  0.40084685  0.40510684  -0.00060581  1
  Nb  Nb141  1  0.79944951  0.19782851  0.19543948  1
  Nb  Nb142  1  0.79386737  0.40755629  0.40160548  1
  Nb  Nb143  1  0.19964518  0.19832814  0.80741171  1
  Nb  Nb144  1  0.39076906  0.20244066  0.39450048  1
  Nb  Nb145  1  0.80390694  0.80502901  0.60154452  1
  Nb  Nb146  1  0.40221282  0.00257021  0.80363873  1
  Nb  Nb147  1  0.79820544  0.19562403  0.60872467  1
  Nb  Nb148  1  0.01113464  0.20556021  0.39660426  1
  Nb  Nb149  1  0.79492023  0.60247583  0.79691630  1
  Pd  Pd150  1  0.40058958  0.40502347  0.20394710  1
  Pd  Pd151  1  0.59414189  0.60553027  -0.00088028  1
  Pd  Pd152  1  0.19577809  0.79585380  -0.00352157  1
  Pd  Pd153  1  0.19417271  0.79341520  0.79968317  1
  Pd  Pd154  1  -0.00533666  0.79409874  0.40082404  1
  Pd  Pd155  1  0.59672787  0.20407612  0.79500993  1
  Pd  Pd156  1  0.58961931  0.59928406  0.39532777  1
  Pd  Pd157  1  0.00544246  0.59243063  0.60326453  1
  Pd  Pd158  1  0.59905811  -0.01138392  -0.00482744  1
  Pd  Pd159  1  0.20315543  0.39667911  0.79592392  1
  Pd  Pd160  1  0.00600250  0.19769357  -0.00820201  1
  Pd  Pd161  1  -0.00146676  0.80350732  0.60264267  1
  Pd  Pd162  1  0.00463827  0.20406288  0.80912502  1
  Pd  Pd163  1  0.00478343  0.60148642  0.40247848  1
  Pd  Pd164  1  0.80142684  0.79492010  0.20502653  1
  Pd  Pd165  1  0.80614290  0.18662538  0.79184947  1
  Pd  Pd166  1  0.40159601  0.39326184  0.59679263  1
  Pd  Pd167  1  0.60102859  0.40138491  0.00284779  1
  Pd  Pd168  1  0.40170759  -0.00594368  0.00453119  1
  Pd  Pd169  1  0.59856673  0.79105673  0.19642798  1
  Pd  Pd170  1  0.79781367  0.39189130  0.59497320  1
  Pd  Pd171  1  0.60104738  0.60724942  0.60953778  1
  Pd  Pd172  1  0.20963738  -0.00701092  0.19524006  1
  Pd  Pd173  1  -0.00356148  -0.00430854  -0.00685569  1
  Pd  Pd174  1  0.59234957  0.39828604  0.20606063  1
  Pd  Pd175  1  0.59591329  -0.00732843  0.80985106  1
  Pd  Pd176  1  0.19161943  0.59520111  0.20038299  1
  Pd  Pd177  1  -0.00956523  -0.00494359  0.81424937  1
  Pd  Pd178  1  0.39486114  0.78805750  0.40070305  1
  Pd  Pd179  1  0.40901668  -0.00734485  0.60180600  1
  Pd  Pd180  1  0.60467736  -0.00251320  0.40159725  1
  Pd  Pd181  1  0.59600819  0.79081187  0.59317735  1
  Pd  Pd182  1  0.20448665  -0.00453150  0.00843334  1
  Pd  Pd183  1  0.20349098  0.40618932  0.00538174  1
  Pd  Pd184  1  0.80697733  0.60110871  0.39226242  1
  Pd  Pd185  1  0.80999037  0.39612805  0.19950915  1
  Pd  Pd186  1  -0.00787010  0.40084537  0.39684564  1
  Pd  Pd187  1  0.60324435  0.39387192  0.59452262  1
  Pd  Pd188  1  0.60678918  0.19733866  0.00465911  1
  Pd  Pd189  1  0.80494080  0.60842379  0.19996010  1
  Pd  Pd190  1  0.79187047  0.80280488  0.00559940  1
  Pd  Pd191  1  0.79364567  -0.01224223  0.40868729  1
  Pd  Pd192  1  0.80525857  0.58867875  -0.00728800  1
  Pd  Pd193  1  0.40500620  0.20754836  -0.00041297  1
  Pd  Pd194  1  0.59856812  0.00544859  0.20002236  1
  Pd  Pd195  1  0.79752636  -0.00551836  -0.01187977  1
  Pd  Pd196  1  0.80598830  0.79829003  0.79875637  1
  Pd  Pd197  1  -0.00424016  0.20013695  0.59468004  1
  Pd  Pd198  1  0.60377917  0.79169244  0.39513231  1
  Pd  Pd199  1  0.20791066  0.61356083  0.80030876  1
  Rh  Rh200  1  0.40492430  0.80280448  0.59627065  1
  Rh  Rh201  1  0.39593572  0.59796845  0.39786858  1
  Rh  Rh202  1  -0.00696135  0.40395963  0.00717433  1
  Rh  Rh203  1  -0.00859976  0.60836478  0.79968565  1
  Rh  Rh204  1  0.21210277  0.00422335  0.80306909  1
  Rh  Rh205  1  0.80079806  0.41103696  0.80707880  1
  Rh  Rh206  1  0.01636977  0.01132847  0.39608884  1
  Rh  Rh207  1  -0.00258464  0.80337109  0.19615812  1
  Rh  Rh208  1  0.19922375  0.80059192  0.59973068  1
  Rh  Rh209  1  0.39576128  0.60213823  0.20331212  1
  Rh  Rh210  1  0.19681469  0.40518264  0.60709846  1
  Rh  Rh211  1  -0.00014355  -0.00656921  0.19683432  1
  Rh  Rh212  1  0.20249387  0.61259202  -0.00751427  1
  Rh  Rh213  1  0.39594456  0.80046471  0.19804494  1
  Rh  Rh214  1  0.19905937  0.80094474  0.19544932  1
  Rh  Rh215  1  0.58736729  0.20742049  0.38953695  1
  Rh  Rh216  1  0.59027185  0.79699731  0.81087532  1
  Rh  Rh217  1  0.20484403  0.80070572  0.39968011  1
  Rh  Rh218  1  0.40543898  0.81174278  0.79464356  1
  Rh  Rh219  1  0.81537966  0.21067816  0.40894697  1
  Rh  Rh220  1  0.80053375  0.00483082  0.20145189  1
  Rh  Rh221  1  0.39919470  0.20428461  0.59512578  1
  Rh  Rh222  1  0.19931161  -0.00468837  0.59120649  1
  Rh  Rh223  1  0.00591051  0.59275729  0.19729406  1
  Rh  Rh224  1  0.79101285  0.60685278  0.61289820  1
  Rh  Rh225  1  0.19306242  0.40419634  0.19983393  1
  Rh  Rh226  1  0.39387936  0.00645384  0.39443041  1
  Rh  Rh227  1  0.40653740  0.79910474  0.00909314  1
  Rh  Rh228  1  0.21105548  0.40266522  0.39537686  1
  Rh  Rh229  1  0.19219308  0.20297581  0.61037899  1
  Rh  Rh230  1  0.59613728  -0.00336755  0.58993213  1
  Rh  Rh231  1  0.59369909  0.60404144  0.19543250  1
  Rh  Rh232  1  -0.00173147  0.40124082  0.79984925  1
  Rh  Rh233  1  0.59849767  0.40310134  0.79778004  1
  Rh  Rh234  1  0.61124389  0.20796771  0.60905834  1
  Rh  Rh235  1  -0.00003937  0.20531732  0.20553130  1
  Rh  Rh236  1  0.79218451  0.20317901  0.00359725  1
  Rh  Rh237  1  0.20029547  0.19405129  0.39906905  1
  Rh  Rh238  1  0.40954807  0.18800013  0.20296068  1
  Rh  Rh239  1  0.00226011  0.40639880  0.60400031  1
  Rh  Rh240  1  0.19646870  0.19978453  0.19107403  1
  Rh  Rh241  1  -0.00133722  0.00024959  0.59665172  1
  Rh  Rh242  1  0.20049264  0.60487657  0.39892369  1
  Rh  Rh243  1  0.39786704  0.59725166  0.80082786  1
  Rh  Rh244  1  0.19874581  0.60004212  0.60265051  1
  Rh  Rh245  1  0.39840027  0.60482629  0.59981023  1
  Rh  Rh246  1  -0.00307312  0.60096596  0.00110465  1
  Rh  Rh247  1  0.39148204  0.59898614  -0.00258227  1
  Rh  Rh248  1  0.00751414  0.80427964  -0.00644026  1
  Rh  Rh249  1  0.19247419  0.19852239  -0.00020178  1
