# generated using pymatgen
data_ZrScNbPdRh
_symmetry_space_group_name_H-M   'P 1'
_cell_length_a   16.55296355
_cell_length_b   16.55291843
_cell_length_c   16.55055031
_cell_angle_alpha   89.96583412
_cell_angle_beta   89.98573405
_cell_angle_gamma   90.02736686
_symmetry_Int_Tables_number   1
_chemical_formula_structural   ZrScNbPdRh
_chemical_formula_sum   'Zr50 Sc50 Nb50 Pd50 Rh50'
_cell_volume   4534.84692891
_cell_formula_units_Z   50
loop_
 _symmetry_equiv_pos_site_id
 _symmetry_equiv_pos_as_xyz
  1  'x, y, z'
loop_
 _atom_site_type_symbol
 _atom_site_label
 _atom_site_symmetry_multiplicity
 _atom_site_fract_x
 _atom_site_fract_y
 _atom_site_fract_z
 _atom_site_occupancy
  Zr  Zr0  1  0.30080953  0.89912751  0.50316196  1
  Zr  Zr1  1  0.70045761  0.30518757  0.08997437  1
  Zr  Zr2  1  0.69393937  0.69325201  0.49509602  1
  Zr  Zr3  1  0.29848860  0.50643550  0.90710188  1
  Zr  Zr4  1  0.10106346  0.28972443  0.70067956  1
  Zr  Zr5  1  0.69543102  0.70560536  0.69024289  1
  Zr  Zr6  1  0.70612714  0.89505173  0.50341005  1
  Zr  Zr7  1  0.09964674  0.09273990  0.70403789  1
  Zr  Zr8  1  0.69860133  0.89985281  0.90973906  1
  Zr  Zr9  1  0.89630052  0.90403787  0.09379464  1
  Zr  Zr10  1  0.70702847  0.30614966  0.50091130  1
  Zr  Zr11  1  0.29793674  0.70508513  0.69988526  1
  Zr  Zr12  1  0.48978378  0.49494652  0.10604018  1
  Zr  Zr13  1  0.09629657  0.30494610  0.90176423  1
  Zr  Zr14  1  0.69163398  0.89537182  0.30901791  1
  Zr  Zr15  1  0.89753066  0.90386505  0.30949187  1
  Zr  Zr16  1  0.29841986  0.10228718  0.10918689  1
  Zr  Zr17  1  0.69945615  0.09827060  0.69660537  1
  Zr  Zr18  1  0.70117782  0.70423298  0.09897863  1
  Zr  Zr19  1  0.50130769  0.29633294  0.50751688  1
  Zr  Zr20  1  0.09970340  0.70605654  0.69500660  1
  Zr  Zr21  1  0.28814827  0.29476607  0.29669833  1
  Zr  Zr22  1  0.50875143  0.29694085  0.89303221  1
  Zr  Zr23  1  0.69658312  0.70393018  0.90203206  1
  Zr  Zr24  1  0.29505667  0.49632910  0.49946832  1
  Zr  Zr25  1  0.49589692  0.09998465  0.89185117  1
  Zr  Zr26  1  0.50403858  0.90567511  0.29559465  1
  Zr  Zr27  1  0.89139044  0.30843500  0.88909186  1
  Zr  Zr28  1  0.30044809  0.30320283  0.89653476  1
  Zr  Zr29  1  0.10931483  0.29938948  0.49909309  1
  Zr  Zr30  1  0.90221414  0.10173003  0.69813379  1
  Zr  Zr31  1  0.10327846  0.89756912  0.10414344  1
  Zr  Zr32  1  0.50318621  0.90317572  0.49294665  1
  Zr  Zr33  1  0.70278403  0.10590043  0.09356833  1
  Zr  Zr34  1  0.90172608  0.29377680  0.31010800  1
  Zr  Zr35  1  0.10109262  0.29749124  0.10252249  1
  Zr  Zr36  1  0.10592420  0.09433598  0.30042658  1
  Zr  Zr37  1  0.68965091  0.90310533  0.10339479  1
  Zr  Zr38  1  0.70244356  0.48388895  0.90032021  1
  Zr  Zr39  1  0.09577593  0.50439098  0.70588027  1
  Zr  Zr40  1  0.29727025  0.29206348  0.69405602  1
  Zr  Zr41  1  0.30527687  0.50250819  0.29029325  1
  Zr  Zr42  1  0.30075400  0.70260228  0.51092612  1
  Zr  Zr43  1  0.49654991  0.71019192  0.90258904  1
  Zr  Zr44  1  0.90876464  0.49931394  0.89054923  1
  Zr  Zr45  1  0.29708976  0.29898960  0.10095981  1
  Zr  Zr46  1  0.49519276  0.49538110  0.89872376  1
  Zr  Zr47  1  0.90506782  0.10365025  0.30619352  1
  Zr  Zr48  1  0.30145604  0.91720918  0.29998800  1
  Zr  Zr49  1  0.49010758  0.09383324  0.29170014  1
  Sc  Sc50  1  0.10109853  0.29596345  0.30505131  1
  Sc  Sc51  1  0.50297227  0.69398631  0.30675281  1
  Sc  Sc52  1  0.89790506  0.29449122  0.10337204  1
  Sc  Sc53  1  0.90236856  0.50186860  0.69911798  1
  Sc  Sc54  1  0.70641971  0.31126521  0.30036512  1
  Sc  Sc55  1  0.90397467  0.70513845  0.89205235  1
  Sc  Sc56  1  0.89154833  0.49953897  0.49814049  1
  Sc  Sc57  1  0.49560621  0.69943373  0.09582808  1
  Sc  Sc58  1  0.90031930  0.10273589  0.49408820  1
  Sc  Sc59  1  0.30538961  0.09086996  0.89595650  1
  Sc  Sc60  1  0.91088343  0.70083984  0.69372133  1
  Sc  Sc61  1  0.89986156  0.10516700  0.09452822  1
  Sc  Sc62  1  0.90207414  0.50387736  0.11006658  1
  Sc  Sc63  1  0.30044036  0.69857697  0.09287960  1
  Sc  Sc64  1  0.49989018  0.30914040  0.29120392  1
  Sc  Sc65  1  0.89595105  0.50393963  0.30409482  1
  Sc  Sc66  1  0.69635750  0.49943317  0.68139938  1
  Sc  Sc67  1  0.30274132  0.89212401  0.89740068  1
  Sc  Sc68  1  0.10806603  0.89465568  0.30340995  1
  Sc  Sc69  1  0.10853045  0.70072732  0.88525868  1
  Sc  Sc70  1  0.70506028  0.09938655  0.30422975  1
  Sc  Sc71  1  0.90507913  0.69946324  0.11185464  1
  Sc  Sc72  1  0.10288106  0.49190574  0.50074069  1
  Sc  Sc73  1  0.09456219  0.09324519  0.50151579  1
  Sc  Sc74  1  0.10385424  0.89979747  0.50295019  1
  Sc  Sc75  1  0.10012325  0.49996154  0.29946329  1
  Sc  Sc76  1  0.49342519  0.09712738  0.09435584  1
  Sc  Sc77  1  0.50349005  0.10268461  0.50736373  1
  Sc  Sc78  1  0.90903094  0.69284979  0.30517498  1
  Sc  Sc79  1  0.30287001  0.09986936  0.70900154  1
  Sc  Sc80  1  0.29256415  0.50037456  0.70110287  1
  Sc  Sc81  1  0.10600035  0.50084671  0.10114986  1
  Sc  Sc82  1  0.10198323  0.50019198  0.89645478  1
  Sc  Sc83  1  0.09333283  0.10655972  0.09564928  1
  Sc  Sc84  1  0.29851669  0.09527944  0.49822185  1
  Sc  Sc85  1  0.90411593  0.90999831  0.89836648  1
  Sc  Sc86  1  0.10659211  0.70474014  0.11436041  1
  Sc  Sc87  1  0.49999764  0.88842101  0.70133100  1
  Sc  Sc88  1  0.69876153  0.11048760  0.90010604  1
  Sc  Sc89  1  0.30222086  0.69818809  0.29296553  1
  Sc  Sc90  1  0.50262470  0.49044702  0.69503209  1
  Sc  Sc91  1  0.90549659  0.70256976  0.50273828  1
  Sc  Sc92  1  0.29365683  0.89100693  0.09952672  1
  Sc  Sc93  1  0.69836438  0.29636595  0.69788473  1
  Sc  Sc94  1  0.70204428  0.09910026  0.50339572  1
  Sc  Sc95  1  0.50763176  0.50684889  0.49853735  1
  Sc  Sc96  1  0.29328957  0.90187596  0.70546539  1
  Sc  Sc97  1  0.89412486  0.09861452  0.90355875  1
  Sc  Sc98  1  0.08929298  0.09651217  0.89794400  1
  Sc  Sc99  1  0.90184283  0.90078558  0.50265266  1
  Nb  Nb100  1  0.49965896  0.29263746  0.09887593  1
  Nb  Nb101  1  0.89916609  0.89600263  0.69976452  1
  Nb  Nb102  1  0.10364192  0.70661984  0.49750780  1
  Nb  Nb103  1  0.09995526  0.90015579  0.89803278  1
  Nb  Nb104  1  0.49912303  0.10842228  0.70026955  1
  Nb  Nb105  1  0.70224926  0.50224568  0.10304496  1
  Nb  Nb106  1  0.09964170  0.69942246  0.30618933  1
  Nb  Nb107  1  0.90276995  0.29387291  0.69133119  1
  Nb  Nb108  1  0.49942972  0.50243159  0.29912596  1
  Nb  Nb109  1  0.90330987  0.29369976  0.50177932  1
  Nb  Nb110  1  0.09151960  0.89842705  0.71199118  1
  Nb  Nb111  1  0.70770808  0.90200625  0.69853284  1
  Nb  Nb112  1  0.69984986  0.69772564  0.30276961  1
  Nb  Nb113  1  0.30183691  0.50503997  0.10052832  1
  Nb  Nb114  1  0.69701103  0.50695587  0.31076818  1
  Nb  Nb115  1  0.69971830  0.49883663  0.48960770  1
  Nb  Nb116  1  0.69815015  0.29855102  0.90163549  1
  Nb  Nb117  1  0.30288842  0.09936557  0.29700083  1
  Nb  Nb118  1  0.50163451  0.90325195  0.09972204  1
  Nb  Nb119  1  0.30342775  0.70174948  0.90285438  1
  Nb  Nb120  1  0.49979155  0.90471283  0.90531260  1
  Nb  Nb121  1  0.49723771  0.28567636  0.69567522  1
  Nb  Nb122  1  0.29724411  0.30276324  0.49709041  1
  Nb  Nb123  1  0.49872498  0.69427309  0.69543843  1
  Nb  Nb124  1  0.49411620  0.70267207  0.50884755  1
  Nb  Nb125  1  0.00004772  0.60699719  -0.00017355  1
  Nb  Nb126  1  0.59860374  -0.00383257  0.79724646  1
  Nb  Nb127  1  0.40374164  0.60615824  0.80002754  1
  Nb  Nb128  1  0.59513388  0.20449316  0.39396494  1
  Nb  Nb129  1  0.00008182  0.39527233  0.20389631  1
  Nb  Nb130  1  0.39868041  0.20395803  0.39769208  1
  Nb  Nb131  1  0.40554560  0.80645904  0.20374083  1
  Nb  Nb132  1  0.59873987  0.20352584  0.19765825  1
  Nb  Nb133  1  0.60446256  0.59133388  0.00161606  1
  Nb  Nb134  1  0.79118321  0.60376581  0.80057079  1
  Nb  Nb135  1  -0.00478381  -0.00053937  0.20185524  1
  Nb  Nb136  1  0.00745681  0.79914725  -0.00187350  1
  Nb  Nb137  1  0.80116007  0.59719360  -0.00355564  1
  Nb  Nb138  1  0.40484980  0.00154201  0.60629214  1
  Nb  Nb139  1  0.59819084  0.60149175  0.80093304  1
  Nb  Nb140  1  0.40240567  0.80077869  0.40043984  1
  Nb  Nb141  1  0.79552586  0.80247265  0.20780525  1
  Nb  Nb142  1  0.39582570  0.39086730  0.59515697  1
  Nb  Nb143  1  -0.00215800  0.38925412  0.60024341  1
  Nb  Nb144  1  0.19705578  0.60838253  0.40211586  1
  Nb  Nb145  1  0.79986353  -0.00386111  0.20133692  1
  Nb  Nb146  1  0.79807632  0.80373615  0.79337945  1
  Nb  Nb147  1  0.39883356  0.39838183  0.40105146  1
  Nb  Nb148  1  0.60435624  0.59153325  0.20250436  1
  Nb  Nb149  1  0.19478602  -0.00532038  -0.00291112  1
  Pd  Pd150  1  0.79562144  -0.00269459  0.80566393  1
  Pd  Pd151  1  0.60359693  0.80361334  0.79815542  1
  Pd  Pd152  1  0.39924338  0.80007718  0.79768587  1
  Pd  Pd153  1  0.19934901  0.40083713  0.79789583  1
  Pd  Pd154  1  0.40175367  0.58688536  0.60678304  1
  Pd  Pd155  1  0.20157308  0.40364160  0.00379002  1
  Pd  Pd156  1  0.80931115  0.00404994  0.59389096  1
  Pd  Pd157  1  0.00070432  0.80490252  0.40355175  1
  Pd  Pd158  1  0.39813654  0.40052776  0.78796983  1
  Pd  Pd159  1  0.80627953  0.40035653  0.60169493  1
  Pd  Pd160  1  0.39761455  0.20105092  -0.00640105  1
  Pd  Pd161  1  0.79422903  0.40448190  0.78221840  1
  Pd  Pd162  1  -0.00919364  0.20708235  -0.00811586  1
  Pd  Pd163  1  0.60251230  0.01362609  0.40159054  1
  Pd  Pd164  1  0.20210479  0.18867387  0.40391790  1
  Pd  Pd165  1  0.00372371  0.59153734  0.59007535  1
  Pd  Pd166  1  0.20109565  0.19053109  0.81108417  1
  Pd  Pd167  1  0.80630579  0.40230898  0.20554599  1
  Pd  Pd168  1  0.20452246  -0.00029813  0.60599781  1
  Pd  Pd169  1  0.21084449  0.79646874  0.39494622  1
  Pd  Pd170  1  0.59287605  0.39766632  0.40111161  1
  Pd  Pd171  1  0.38857592  -0.00746795  0.00370099  1
  Pd  Pd172  1  0.18983067  0.60928534  0.00053199  1
  Pd  Pd173  1  0.39518623  0.60111435  0.40232913  1
  Pd  Pd174  1  -0.00529581  0.80590836  0.20317929  1
  Pd  Pd175  1  0.39388941  0.39237376  0.20141333  1
  Pd  Pd176  1  -0.00600658  0.19830160  0.80700079  1
  Pd  Pd177  1  0.59278044  0.40137542  0.00492984  1
  Pd  Pd178  1  0.80554608  0.79026899  0.39959529  1
  Pd  Pd179  1  -0.00466195  -0.00346127  0.60136442  1
  Pd  Pd180  1  0.39895109  0.39293496  0.00231531  1
  Pd  Pd181  1  0.81394080  0.79271296  -0.00156945  1
  Pd  Pd182  1  0.59539625  0.78795166  0.20045543  1
  Pd  Pd183  1  -0.00369114  0.40835439  0.01067059  1
  Pd  Pd184  1  0.19805745  0.60165922  0.20416719  1
  Pd  Pd185  1  0.59883550  0.01058377  -0.00594962  1
  Pd  Pd186  1  0.79706674  0.20060247  0.79767541  1
  Pd  Pd187  1  0.60365494  0.39869345  0.78795237  1
  Pd  Pd188  1  0.60478800  0.40100734  0.19888003  1
  Pd  Pd189  1  0.79617088  0.60550015  0.20246840  1
  Pd  Pd190  1  0.00666996  0.59408996  0.40798506  1
  Pd  Pd191  1  0.80206050  0.60338437  0.60012773  1
  Pd  Pd192  1  0.79362073  0.19693887  0.20294598  1
  Pd  Pd193  1  0.59334313  -0.00501928  0.60854835  1
  Pd  Pd194  1  0.20114207  0.18626555  0.59545065  1
  Pd  Pd195  1  0.81317294  0.40502498  0.00615832  1
  Pd  Pd196  1  0.20193850  0.18880345  -0.00938625  1
  Pd  Pd197  1  -0.00308523  0.40313964  0.40237609  1
  Pd  Pd198  1  0.59721759  0.80391365  0.59515857  1
  Pd  Pd199  1  0.19158061  0.59844601  0.59532697  1
  Rh  Rh200  1  0.19313896  0.00525258  0.19162942  1
  Rh  Rh201  1  0.61005223  0.20172351  0.59600606  1
  Rh  Rh202  1  0.80611000  0.79694129  0.60329228  1
  Rh  Rh203  1  0.40241708  0.80829125  0.00786277  1
  Rh  Rh204  1  0.19618426  -0.00093456  0.80763802  1
  Rh  Rh205  1  0.59577764  0.39630194  0.59813014  1
  Rh  Rh206  1  0.79493421  0.00489996  0.00175445  1
  Rh  Rh207  1  0.19423463  0.79958014  -0.00798379  1
  Rh  Rh208  1  0.00282875  0.19941913  0.20517893  1
  Rh  Rh209  1  0.21149673  0.60414727  0.80191971  1
  Rh  Rh210  1  -0.00518387  0.00142877  0.79795163  1
  Rh  Rh211  1  0.19909388  0.00183568  0.40365549  1
  Rh  Rh212  1  0.60775078  0.01632384  0.19567796  1
  Rh  Rh213  1  0.79996220  0.19643573  0.59759422  1
  Rh  Rh214  1  0.39503393  -0.00854704  0.18567137  1
  Rh  Rh215  1  0.00891108  0.59264754  0.19893243  1
  Rh  Rh216  1  0.00956518  0.19867963  0.40594117  1
  Rh  Rh217  1  0.19175954  0.80903602  0.60784173  1
  Rh  Rh218  1  -0.00332291  0.60724946  0.80299129  1
  Rh  Rh219  1  0.20197177  0.80196359  0.79965938  1
  Rh  Rh220  1  0.40031229  0.00529916  0.41008206  1
  Rh  Rh221  1  0.00916041  -0.00660420  0.00773691  1
  Rh  Rh222  1  0.59532894  0.60217174  0.39994195  1
  Rh  Rh223  1  0.40345818  0.59925061  -0.00405936  1
  Rh  Rh224  1  0.00353595  0.19964986  0.59383830  1
  Rh  Rh225  1  0.59497471  0.19977416  0.00313733  1
  Rh  Rh226  1  0.39070155  0.19417612  0.59506086  1
  Rh  Rh227  1  0.41196894  -0.00744286  0.79192900  1
  Rh  Rh228  1  0.20790111  0.41089560  0.38761498  1
  Rh  Rh229  1  0.19542602  0.40236196  0.19692311  1
  Rh  Rh230  1  0.19199155  0.19410124  0.19892944  1
  Rh  Rh231  1  0.00598939  -0.00503885  0.39662799  1
  Rh  Rh232  1  -0.00684314  0.80427956  0.80400083  1
  Rh  Rh233  1  0.19555033  0.39766318  0.61095993  1
  Rh  Rh234  1  0.39622523  0.20449851  0.80443472  1
  Rh  Rh235  1  0.80542791  0.40216472  0.39922909  1
  Rh  Rh236  1  0.40753470  0.60945867  0.19474097  1
  Rh  Rh237  1  0.59737581  0.59828259  0.59785298  1
  Rh  Rh238  1  0.21092607  0.79756256  0.20897661  1
  Rh  Rh239  1  0.80176309  0.60376965  0.40449519  1
  Rh  Rh240  1  0.40548188  0.20604153  0.20467280  1
  Rh  Rh241  1  0.00527600  0.80732911  0.59769330  1
  Rh  Rh242  1  0.00405295  0.39267063  0.78811979  1
  Rh  Rh243  1  0.59201233  0.79009537  0.40627111  1
  Rh  Rh244  1  0.60513548  0.19661147  0.79729168  1
  Rh  Rh245  1  0.58996240  0.80063804  0.00538380  1
  Rh  Rh246  1  0.79504833  -0.00027639  0.40277576  1
  Rh  Rh247  1  0.80516011  0.20942415  -0.00830632  1
  Rh  Rh248  1  0.40308393  0.80886858  0.59756151  1
  Rh  Rh249  1  0.79140857  0.20332787  0.40492913  1
