# generated using pymatgen
data_ZrScNbPdRh
_symmetry_space_group_name_H-M   'P 1'
_cell_length_a   16.56203921
_cell_length_b   16.55688409
_cell_length_c   16.56392155
_cell_angle_alpha   90.03679428
_cell_angle_beta   89.98832421
_cell_angle_gamma   90.01714073
_symmetry_Int_Tables_number   1
_chemical_formula_structural   ZrScNbPdRh
_chemical_formula_sum   'Zr50 Sc50 Nb50 Pd50 Rh50'
_cell_volume   4542.08716419
_cell_formula_units_Z   50
loop_
 _symmetry_equiv_pos_site_id
 _symmetry_equiv_pos_as_xyz
  1  'x, y, z'
loop_
 _atom_site_type_symbol
 _atom_site_label
 _atom_site_symmetry_multiplicity
 _atom_site_fract_x
 _atom_site_fract_y
 _atom_site_fract_z
 _atom_site_occupancy
  Zr  Zr0  1  0.90399881  0.09503561  0.09677467  1
  Zr  Zr1  1  0.29707967  0.30385925  0.89902925  1
  Zr  Zr2  1  0.69534036  0.49372729  0.49964916  1
  Zr  Zr3  1  0.50658620  0.70383591  0.29358328  1
  Zr  Zr4  1  0.89475271  0.89245531  0.69625294  1
  Zr  Zr5  1  0.70110908  0.29860338  0.29657266  1
  Zr  Zr6  1  0.50291630  0.30752803  0.11097329  1
  Zr  Zr7  1  0.29531888  0.09938826  0.30237372  1
  Zr  Zr8  1  0.09713998  0.50355696  0.49670286  1
  Zr  Zr9  1  0.10206297  0.30097790  0.69756541  1
  Zr  Zr10  1  0.10932629  0.69639034  0.30583423  1
  Zr  Zr11  1  0.09833190  0.90005215  0.69407556  1
  Zr  Zr12  1  0.70392069  0.10465478  0.89350259  1
  Zr  Zr13  1  0.29952569  0.71278333  0.49567672  1
  Zr  Zr14  1  0.90322260  0.30708197  0.10162814  1
  Zr  Zr15  1  0.28393962  0.89850176  0.69851638  1
  Zr  Zr16  1  0.70782959  0.29887614  0.09749048  1
  Zr  Zr17  1  0.29362936  0.50212718  0.09824440  1
  Zr  Zr18  1  0.70700310  0.49987395  0.69717012  1
  Zr  Zr19  1  0.70480949  0.90825716  0.49566146  1
  Zr  Zr20  1  0.69734056  0.70677059  0.09734842  1
  Zr  Zr21  1  0.09796360  0.50120833  0.09879003  1
  Zr  Zr22  1  0.88944797  0.10465200  0.70260385  1
  Zr  Zr23  1  0.49599414  0.70198845  0.50408574  1
  Zr  Zr24  1  0.09972381  0.30145792  0.09541621  1
  Zr  Zr25  1  0.91329058  0.90461329  0.10239334  1
  Zr  Zr26  1  0.31082551  0.89919625  0.10236805  1
  Zr  Zr27  1  0.89879707  0.69658947  0.69500069  1
  Zr  Zr28  1  0.89388584  0.70364146  0.89929354  1
  Zr  Zr29  1  0.29654341  0.89705397  0.29820646  1
  Zr  Zr30  1  0.29749528  0.50723621  0.90323653  1
  Zr  Zr31  1  0.50242311  0.89943774  0.50295567  1
  Zr  Zr32  1  0.09782759  0.49504512  0.69591145  1
  Zr  Zr33  1  0.90356814  0.29690908  0.69059098  1
  Zr  Zr34  1  0.49824687  0.29220649  0.89787172  1
  Zr  Zr35  1  0.49915618  0.50669135  0.90253580  1
  Zr  Zr36  1  0.49784068  0.49376591  0.69102591  1
  Zr  Zr37  1  0.49869458  0.10010185  0.30172807  1
  Zr  Zr38  1  0.90127822  0.49743990  0.69852339  1
  Zr  Zr39  1  0.89799597  0.90448376  0.90307660  1
  Zr  Zr40  1  0.49968137  0.70239321  0.70225601  1
  Zr  Zr41  1  0.50184660  0.10224739  0.89985719  1
  Zr  Zr42  1  0.10094480  0.10116018  0.69340514  1
  Zr  Zr43  1  0.90283692  0.50033304  0.30314284  1
  Zr  Zr44  1  0.89848373  0.29162612  0.90652587  1
  Zr  Zr45  1  0.50104644  0.71047234  0.09713400  1
  Zr  Zr46  1  0.09551097  0.71134372  0.69551184  1
  Zr  Zr47  1  0.50165961  0.30796928  0.50444122  1
  Zr  Zr48  1  0.49470510  0.29300222  0.30130980  1
  Zr  Zr49  1  0.89207388  0.10208599  0.49184858  1
  Sc  Sc50  1  0.48952412  0.09660260  0.10710780  1
  Sc  Sc51  1  0.29469139  0.28781257  0.49814882  1
  Sc  Sc52  1  0.90571356  0.70742171  0.08197412  1
  Sc  Sc53  1  0.29796358  0.08813138  0.69825248  1
  Sc  Sc54  1  0.09315567  0.69626734  0.89819810  1
  Sc  Sc55  1  0.50492143  0.70061122  0.90467666  1
  Sc  Sc56  1  0.50266236  0.09855958  0.49381993  1
  Sc  Sc57  1  0.89619478  0.10076994  0.90581743  1
  Sc  Sc58  1  0.70592154  0.50292712  0.30825321  1
  Sc  Sc59  1  0.30242865  0.70067149  0.09911106  1
  Sc  Sc60  1  0.29475924  0.29662873  0.10498962  1
  Sc  Sc61  1  0.70060918  0.90863124  0.29811684  1
  Sc  Sc62  1  0.10068530  0.29008027  0.50953144  1
  Sc  Sc63  1  0.30152252  0.50435498  0.50762233  1
  Sc  Sc64  1  0.90343130  0.70506977  0.49380679  1
  Sc  Sc65  1  0.10207835  0.09754926  0.30057922  1
  Sc  Sc66  1  0.28560199  0.50815480  0.29459602  1
  Sc  Sc67  1  0.10447723  0.09852908  0.49031489  1
  Sc  Sc68  1  0.50657681  0.89751163  0.70073102  1
  Sc  Sc69  1  0.29737376  0.49394350  0.70992868  1
  Sc  Sc70  1  0.09901831  0.89691852  0.88976829  1
  Sc  Sc71  1  0.69968441  0.89882804  0.70118263  1
  Sc  Sc72  1  0.70020097  0.09891612  0.70352573  1
  Sc  Sc73  1  0.51171169  0.49460376  0.29549091  1
  Sc  Sc74  1  0.89613580  0.29528114  0.29945975  1
  Sc  Sc75  1  0.09631564  0.09684887  0.10562601  1
  Sc  Sc76  1  0.49699833  0.30111862  0.70646942  1
  Sc  Sc77  1  0.10157859  0.50795761  0.29839347  1
  Sc  Sc78  1  0.10161668  0.89829879  0.49635568  1
  Sc  Sc79  1  0.70066183  0.89109967  0.89463834  1
  Sc  Sc80  1  0.30978070  0.10063567  0.90075676  1
  Sc  Sc81  1  0.69880420  0.09684512  0.30328680  1
  Sc  Sc82  1  0.70106042  0.49825684  0.08870996  1
  Sc  Sc83  1  0.70090688  0.70367842  0.70907858  1
  Sc  Sc84  1  0.90063640  0.50801868  0.90647631  1
  Sc  Sc85  1  0.29650320  0.10009272  0.10877044  1
  Sc  Sc86  1  0.70897707  0.30056163  0.49377117  1
  Sc  Sc87  1  0.70874204  0.09527618  0.11006868  1
  Sc  Sc88  1  0.50320870  0.90286421  0.28815340  1
  Sc  Sc89  1  0.70958791  0.29886944  0.70026652  1
  Sc  Sc90  1  0.49489251  0.89397925  0.90497788  1
  Sc  Sc91  1  0.50264777  0.10161708  0.71431209  1
  Sc  Sc92  1  0.89359261  0.50641327  0.50150996  1
  Sc  Sc93  1  0.71070441  0.69386567  0.49505195  1
  Sc  Sc94  1  0.10515408  0.49490353  0.90586737  1
  Sc  Sc95  1  0.29839591  0.28739250  0.29757884  1
  Sc  Sc96  1  0.09825568  0.90477381  0.29417348  1
  Sc  Sc97  1  0.70196526  0.69892917  0.30215508  1
  Sc  Sc98  1  0.70016311  0.90296012  0.10858057  1
  Sc  Sc99  1  0.90661306  0.09530336  0.30083496  1
  Nb  Nb100  1  0.09312786  0.10393664  0.90429475  1
  Nb  Nb101  1  0.30293025  0.69725938  0.29980345  1
  Nb  Nb102  1  0.10228228  0.69581957  0.49933766  1
  Nb  Nb103  1  0.09714215  0.29728168  0.90432872  1
  Nb  Nb104  1  0.29407108  0.70167115  0.70119276  1
  Nb  Nb105  1  0.30158586  0.90938510  0.50296779  1
  Nb  Nb106  1  0.09868722  0.29545436  0.30498354  1
  Nb  Nb107  1  0.90238208  0.29519710  0.49300242  1
  Nb  Nb108  1  0.09490385  0.71013228  0.09977658  1
  Nb  Nb109  1  0.90539139  0.50592319  0.10169121  1
  Nb  Nb110  1  0.69708561  0.10022057  0.49889707  1
  Nb  Nb111  1  0.49821218  0.49794806  0.50070104  1
  Nb  Nb112  1  0.70012683  0.30233033  0.90546591  1
  Nb  Nb113  1  0.29594487  0.89644281  0.89915243  1
  Nb  Nb114  1  0.10230357  0.89954271  0.09551958  1
  Nb  Nb115  1  0.30145186  0.69914527  0.89953367  1
  Nb  Nb116  1  0.49399240  0.50244113  0.10030090  1
  Nb  Nb117  1  0.90034519  0.70134798  0.30359747  1
  Nb  Nb118  1  0.89865731  0.90257088  0.49209630  1
  Nb  Nb119  1  0.89968635  0.89829383  0.31114504  1
  Nb  Nb120  1  0.69988374  0.69576275  0.90460136  1
  Nb  Nb121  1  0.29445689  0.29340298  0.70257174  1
  Nb  Nb122  1  0.50427340  0.89627701  0.09994535  1
  Nb  Nb123  1  0.29955243  0.09554122  0.49825443  1
  Nb  Nb124  1  0.69873518  0.50169002  0.89704528  1
  Nb  Nb125  1  0.59671941  0.00287634  0.00182282  1
  Nb  Nb126  1  0.81207948  0.79769965  0.20508979  1
  Nb  Nb127  1  0.60035993  0.80308694  0.40208749  1
  Nb  Nb128  1  0.60783749  0.40360123  0.80736365  1
  Nb  Nb129  1  0.00401052  0.39344054  0.40247910  1
  Nb  Nb130  1  -0.00347294  0.61036456  0.19620711  1
  Nb  Nb131  1  -0.00860915  -0.00299474  0.59675380  1
  Nb  Nb132  1  0.20071104  0.80373278  -0.00231449  1
  Nb  Nb133  1  0.40147876  0.40405226  0.00435820  1
  Nb  Nb134  1  0.19868003  -0.00584474  -0.00176118  1
  Nb  Nb135  1  0.40079760  0.19649366  0.60072174  1
  Nb  Nb136  1  0.39486420  -0.00301252  0.40250074  1
  Nb  Nb137  1  0.19706714  0.39710626  0.40006693  1
  Nb  Nb138  1  0.59936414  0.20132245  0.59831479  1
  Nb  Nb139  1  0.60276635  0.19816368  0.00209713  1
  Nb  Nb140  1  0.59757229  0.59588922  0.59761841  1
  Nb  Nb141  1  0.40347651  0.60076913  0.20216811  1
  Nb  Nb142  1  0.19896129  0.60961949  0.60226213  1
  Nb  Nb143  1  0.40264404  0.59773236  0.39505856  1
  Nb  Nb144  1  0.19480995  0.20148590  0.80369595  1
  Nb  Nb145  1  -0.00242217  0.00472815  0.79370997  1
  Nb  Nb146  1  0.81003432  0.60586583  0.19361838  1
  Nb  Nb147  1  0.00098000  0.39264437  0.80317093  1
  Nb  Nb148  1  0.39573979  0.40547113  0.39881765  1
  Nb  Nb149  1  0.38776867  0.79697309  0.80087459  1
  Pd  Pd150  1  -0.00170336  0.79786424  0.20656782  1
  Pd  Pd151  1  0.20146382  0.18890056  -0.00240350  1
  Pd  Pd152  1  0.39475409  0.80823489  0.61135815  1
  Pd  Pd153  1  0.60098059  0.19153361  0.19305263  1
  Pd  Pd154  1  0.59990939  -0.01044694  0.80830888  1
  Pd  Pd155  1  0.60561361  0.59389063  0.19325257  1
  Pd  Pd156  1  0.78768311  -0.00419324  0.00080955  1
  Pd  Pd157  1  0.80029038  0.60229273  0.80269021  1
  Pd  Pd158  1  0.59451978  0.60494421  0.40701590  1
  Pd  Pd159  1  0.60154722  0.60109261  0.00513939  1
  Pd  Pd160  1  0.00564063  0.40389224  0.20856001  1
  Pd  Pd161  1  0.80794245  0.19230610  0.20396863  1
  Pd  Pd162  1  0.39959089  0.60425698  0.79665773  1
  Pd  Pd163  1  0.79597558  0.81038081  0.00677942  1
  Pd  Pd164  1  0.20660349  0.40290339  0.59327826  1
  Pd  Pd165  1  0.00134800  0.19901064  0.80162825  1
  Pd  Pd166  1  0.79548900  0.79628563  0.59443508  1
  Pd  Pd167  1  0.40325552  0.20769530  0.01253434  1
  Pd  Pd168  1  0.59691798  0.39512451  0.39513227  1
  Pd  Pd169  1  0.40749923  0.80575799  0.39170044  1
  Pd  Pd170  1  0.39554752  0.60212897  0.60043094  1
  Pd  Pd171  1  0.80809947  0.40768654  -0.00317531  1
  Pd  Pd172  1  0.19298638  0.61272472  0.00323234  1
  Pd  Pd173  1  0.19618052  0.80723993  0.40021085  1
  Pd  Pd174  1  0.80041539  0.00176336  0.60083146  1
  Pd  Pd175  1  0.19065182  0.60313647  0.79442844  1
  Pd  Pd176  1  0.00075182  0.19829442  0.19949278  1
  Pd  Pd177  1  0.61397178  0.79061414  0.59356823  1
  Pd  Pd178  1  0.80484823  0.39595067  0.59081095  1
  Pd  Pd179  1  0.79559383  0.41049171  0.20015899  1
  Pd  Pd180  1  0.80559893  0.39598579  0.80853106  1
  Pd  Pd181  1  -0.00672981  0.80404457  0.80205613  1
  Pd  Pd182  1  0.40366912  0.40115575  0.80585673  1
  Pd  Pd183  1  0.00857943  0.79982929  0.40060272  1
  Pd  Pd184  1  0.19271560  0.01120154  0.81066749  1
  Pd  Pd185  1  0.60393938  0.20431380  0.40599904  1
  Pd  Pd186  1  0.38952319  0.40858421  0.20647515  1
  Pd  Pd187  1  0.61317540  0.40893944  0.19893514  1
  Pd  Pd188  1  0.38528142  0.38953770  0.59564562  1
  Pd  Pd189  1  0.40855387  0.00569111  0.60198824  1
  Pd  Pd190  1  0.19872925  0.39330343  0.20723225  1
  Pd  Pd191  1  0.00364020  0.59114944  0.80313797  1
  Pd  Pd192  1  0.00122821  0.60351398  0.59569800  1
  Pd  Pd193  1  -0.00270261  0.18893191  0.59067694  1
  Pd  Pd194  1  0.20164507  0.79783465  0.19479735  1
  Pd  Pd195  1  0.59790171  0.01019585  0.60473500  1
  Pd  Pd196  1  0.60103981  0.59644540  0.79272747  1
  Pd  Pd197  1  0.59304703  0.39529216  -0.00335558  1
  Pd  Pd198  1  0.40004525  -0.00091454  0.00109426  1
  Pd  Pd199  1  0.40112486  -0.01223678  0.79776215  1
  Rh  Rh200  1  0.20461800  -0.00452166  0.39989591  1
  Rh  Rh201  1  0.61051845  0.21270679  0.79837714  1
  Rh  Rh202  1  -0.00203917  0.59918076  0.39587755  1
  Rh  Rh203  1  0.00219405  0.20261402  0.39999258  1
  Rh  Rh204  1  0.59535840  0.00343413  0.19167803  1
  Rh  Rh205  1  0.00116954  -0.00198602  0.20580123  1
  Rh  Rh206  1  0.59377917  -0.00598516  0.39870100  1
  Rh  Rh207  1  0.19818383  0.79886734  0.59106715  1
  Rh  Rh208  1  0.38550679  0.19378092  0.78865707  1
  Rh  Rh209  1  0.39885188  -0.00158034  0.20783497  1
  Rh  Rh210  1  -0.00341121  0.80539857  0.58637598  1
  Rh  Rh211  1  0.00410786  0.60072072  0.00316547  1
  Rh  Rh212  1  0.21169348  0.59610134  0.41259421  1
  Rh  Rh213  1  0.20555853  0.39630187  0.00051415  1
  Rh  Rh214  1  0.80414630  -0.00406255  0.79894433  1
  Rh  Rh215  1  0.60644213  0.39755644  0.60900535  1
  Rh  Rh216  1  0.81108638  0.39758636  0.40015186  1
  Rh  Rh217  1  0.19002927  0.00102471  0.58988747  1
  Rh  Rh218  1  0.79459694  0.60474940  0.60048177  1
  Rh  Rh219  1  0.19183526  0.39296506  0.80465499  1
  Rh  Rh220  1  0.39808572  0.19680982  0.40768587  1
  Rh  Rh221  1  0.40093690  0.60038992  0.00796160  1
  Rh  Rh222  1  -0.00095548  0.19935158  0.01031269  1
  Rh  Rh223  1  -0.00421454  0.40199395  -0.00607782  1
  Rh  Rh224  1  0.00871038  0.80580329  -0.01035297  1
  Rh  Rh225  1  0.79875321  0.00543834  0.39503480  1
  Rh  Rh226  1  0.79590170  0.19541889  0.00500026  1
  Rh  Rh227  1  0.79929761  0.79592680  0.80118114  1
  Rh  Rh228  1  0.39947863  0.79482887  0.20179909  1
  Rh  Rh229  1  0.59337195  0.79788947  0.80668945  1
  Rh  Rh230  1  0.60529314  0.80956791  -0.00269653  1
  Rh  Rh231  1  0.79877293  0.20720007  0.80202907  1
  Rh  Rh232  1  0.20241839  0.79043175  0.80830549  1
  Rh  Rh233  1  0.80459898  0.59856766  0.39679065  1
  Rh  Rh234  1  0.19837638  -0.00095901  0.19208666  1
  Rh  Rh235  1  0.79247282  0.80416021  0.39393692  1
  Rh  Rh236  1  0.19009705  0.20018614  0.20003202  1
  Rh  Rh237  1  0.61303290  0.80497196  0.20673805  1
  Rh  Rh238  1  0.19786172  0.20197967  0.39895924  1
  Rh  Rh239  1  0.39825630  0.19904799  0.19822020  1
  Rh  Rh240  1  0.39486811  0.79815469  -0.00673929  1
  Rh  Rh241  1  0.19677123  0.61181163  0.18903003  1
  Rh  Rh242  1  0.79603334  0.59990044  0.00170188  1
  Rh  Rh243  1  0.00011806  -0.00184720  0.40345026  1
  Rh  Rh244  1  0.79091416  0.19858132  0.59160328  1
  Rh  Rh245  1  0.00951166  -0.00342882  -0.01029072  1
  Rh  Rh246  1  0.21038883  0.18961445  0.60509702  1
  Rh  Rh247  1  0.81359218  -0.00794225  0.20665681  1
  Rh  Rh248  1  0.79625945  0.19628178  0.39350802  1
  Rh  Rh249  1  -0.00881225  0.39814923  0.59344131  1
