# generated using pymatgen
data_ZrScNbPdRh
_symmetry_space_group_name_H-M   'P 1'
_cell_length_a   16.56012810
_cell_length_b   16.55677634
_cell_length_c   16.56044575
_cell_angle_alpha   90.00516133
_cell_angle_beta   89.98689620
_cell_angle_gamma   89.99268520
_symmetry_Int_Tables_number   1
_chemical_formula_structural   ZrScNbPdRh
_chemical_formula_sum   'Zr50 Sc50 Nb50 Pd50 Rh50'
_cell_volume   4540.58154574
_cell_formula_units_Z   50
loop_
 _symmetry_equiv_pos_site_id
 _symmetry_equiv_pos_as_xyz
  1  'x, y, z'
loop_
 _atom_site_type_symbol
 _atom_site_label
 _atom_site_symmetry_multiplicity
 _atom_site_fract_x
 _atom_site_fract_y
 _atom_site_fract_z
 _atom_site_occupancy
  Zr  Zr0  1  0.30079556  0.89833460  0.29683182  1
  Zr  Zr1  1  0.50225790  0.30479275  0.50303947  1
  Zr  Zr2  1  0.69558990  0.50256385  0.50093168  1
  Zr  Zr3  1  0.71402607  0.89606918  0.71088618  1
  Zr  Zr4  1  0.90121340  0.89027856  0.10684650  1
  Zr  Zr5  1  0.09812753  0.49547364  0.30609819  1
  Zr  Zr6  1  0.10335397  0.89254994  0.90224030  1
  Zr  Zr7  1  0.08206802  0.70450561  0.08334794  1
  Zr  Zr8  1  0.90329518  0.89502268  0.69138751  1
  Zr  Zr9  1  0.29047778  0.10330983  0.69914300  1
  Zr  Zr10  1  0.69538579  0.30471281  0.50107432  1
  Zr  Zr11  1  0.29909374  0.49322755  0.29295134  1
  Zr  Zr12  1  0.10676406  0.69880970  0.89294138  1
  Zr  Zr13  1  0.30732285  0.10025152  0.09523263  1
  Zr  Zr14  1  0.30881012  0.49659000  0.09790769  1
  Zr  Zr15  1  0.09862168  0.49029925  0.10894833  1
  Zr  Zr16  1  0.70826312  0.50390988  0.70451879  1
  Zr  Zr17  1  0.89545358  0.50382391  0.69844669  1
  Zr  Zr18  1  0.50697034  0.70278203  0.49869827  1
  Zr  Zr19  1  0.10513877  0.09683904  0.89626584  1
  Zr  Zr20  1  0.10091827  0.10640164  0.49916257  1
  Zr  Zr21  1  0.10191763  0.30217992  0.69572565  1
  Zr  Zr22  1  0.50642386  0.90088887  0.49255340  1
  Zr  Zr23  1  0.89759446  0.70069262  0.69587616  1
  Zr  Zr24  1  0.10097591  0.49807062  0.69965557  1
  Zr  Zr25  1  0.89554627  0.50202631  0.09338402  1
  Zr  Zr26  1  0.49533743  0.50356198  0.70658834  1
  Zr  Zr27  1  0.29826161  0.70310465  0.50111349  1
  Zr  Zr28  1  0.71006087  0.09117932  0.90939761  1
  Zr  Zr29  1  0.91208232  0.69293740  0.91958397  1
  Zr  Zr30  1  0.50050083  0.29527507  0.70527562  1
  Zr  Zr31  1  0.50594948  0.09455794  0.50231714  1
  Zr  Zr32  1  0.69621582  0.10424501  0.69940844  1
  Zr  Zr33  1  0.49757320  0.69870692  0.70742041  1
  Zr  Zr34  1  0.90015875  0.70114582  0.50573358  1
  Zr  Zr35  1  0.10038461  0.70189090  0.70133365  1
  Zr  Zr36  1  0.30204501  0.70435080  0.29449556  1
  Zr  Zr37  1  0.69961650  0.29925086  0.29669336  1
  Zr  Zr38  1  0.69008325  0.70830694  0.90099870  1
  Zr  Zr39  1  0.10125851  0.09743150  0.69515968  1
  Zr  Zr40  1  0.70282171  0.10011044  0.50055457  1
  Zr  Zr41  1  0.89743605  0.90504183  0.30468848  1
  Zr  Zr42  1  0.09712840  0.89740205  0.69956261  1
  Zr  Zr43  1  0.30062578  0.30472423  0.69951174  1
  Zr  Zr44  1  0.10485652  0.30329612  0.29839121  1
  Zr  Zr45  1  0.29619516  0.69288289  0.69913271  1
  Zr  Zr46  1  0.89702091  0.31660997  0.70189494  1
  Zr  Zr47  1  0.89106236  0.71016328  0.29293756  1
  Zr  Zr48  1  0.90287778  0.10190115  0.90227943  1
  Zr  Zr49  1  0.88224732  0.90626405  0.89975468  1
  Sc  Sc50  1  0.89520709  0.09166402  0.69330579  1
  Sc  Sc51  1  0.10035434  0.49940426  0.89118529  1
  Sc  Sc52  1  0.70280050  0.50417054  0.90227910  1
  Sc  Sc53  1  0.29718516  0.50050593  0.70337796  1
  Sc  Sc54  1  0.29608309  0.88820867  0.69940302  1
  Sc  Sc55  1  0.69972246  0.90106322  0.49810158  1
  Sc  Sc56  1  0.50211197  0.29991586  0.28215333  1
  Sc  Sc57  1  0.49776931  0.50722009  0.10110469  1
  Sc  Sc58  1  0.70618563  0.29319132  0.10518525  1
  Sc  Sc59  1  0.29418538  0.10084995  0.29652138  1
  Sc  Sc60  1  0.10325241  0.68812839  0.50089425  1
  Sc  Sc61  1  0.30042751  0.89511431  0.90762855  1
  Sc  Sc62  1  0.30737825  0.70204473  0.89938784  1
  Sc  Sc63  1  0.09653401  0.91108490  0.50525336  1
  Sc  Sc64  1  0.51372966  0.50539404  0.29471209  1
  Sc  Sc65  1  0.31368228  0.30277158  0.89379757  1
  Sc  Sc66  1  0.69539857  0.70335269  0.50459097  1
  Sc  Sc67  1  0.89395625  0.49402046  0.89860999  1
  Sc  Sc68  1  0.50833775  0.50178861  0.49783175  1
  Sc  Sc69  1  0.49640855  0.90767328  0.09947687  1
  Sc  Sc70  1  0.90552891  0.10441198  0.10242316  1
  Sc  Sc71  1  0.28461281  0.29879176  0.49765296  1
  Sc  Sc72  1  0.30962515  0.49889691  0.89734742  1
  Sc  Sc73  1  0.49709950  0.89421758  0.70069949  1
  Sc  Sc74  1  0.31772508  0.70169195  0.10232057  1
  Sc  Sc75  1  0.09923334  0.90247234  0.09921097  1
  Sc  Sc76  1  0.90929945  0.49725639  0.50468699  1
  Sc  Sc77  1  0.89722940  0.29868065  0.89994101  1
  Sc  Sc78  1  0.89829138  0.09469573  0.48694527  1
  Sc  Sc79  1  0.28716953  0.09758486  0.49479753  1
  Sc  Sc80  1  0.09314360  0.29950650  0.88514046  1
  Sc  Sc81  1  0.50379503  0.10743020  0.10481303  1
  Sc  Sc82  1  0.10535925  0.70185673  0.30734191  1
  Sc  Sc83  1  0.49474070  0.11847367  0.90509933  1
  Sc  Sc84  1  0.29317754  0.50303019  0.50357949  1
  Sc  Sc85  1  0.89863730  0.28689389  0.29583367  1
  Sc  Sc86  1  0.49642949  0.88478190  0.90265960  1
  Sc  Sc87  1  0.49809024  0.69079312  0.90553387  1
  Sc  Sc88  1  0.09231023  0.10088810  0.29969563  1
  Sc  Sc89  1  0.30921427  0.30157845  0.11767030  1
  Sc  Sc90  1  0.30319648  0.89842884  0.10053628  1
  Sc  Sc91  1  0.90395809  0.49469904  0.29677913  1
  Sc  Sc92  1  0.70427537  0.10652943  0.29508207  1
  Sc  Sc93  1  0.70365093  0.50011123  0.10618507  1
  Sc  Sc94  1  0.50508527  0.10471861  0.70291188  1
  Sc  Sc95  1  0.89423240  0.90624673  0.50415050  1
  Sc  Sc96  1  0.70980713  0.29357687  0.90070232  1
  Sc  Sc97  1  0.09444334  0.09910096  0.10282318  1
  Sc  Sc98  1  0.69489367  0.69921860  0.30106084  1
  Sc  Sc99  1  0.10058123  0.90630627  0.29403175  1
  Nb  Nb100  1  0.69720947  0.90564614  0.08957843  1
  Nb  Nb101  1  0.50064476  0.30699927  0.90046889  1
  Nb  Nb102  1  0.70168633  0.89541308  0.29606171  1
  Nb  Nb103  1  0.09801322  0.29750114  0.10497969  1
  Nb  Nb104  1  0.70241256  0.69616254  0.70254537  1
  Nb  Nb105  1  0.69677186  0.90510594  0.90686342  1
  Nb  Nb106  1  0.49943733  0.09904684  0.30232175  1
  Nb  Nb107  1  0.09116856  0.30709864  0.49334226  1
  Nb  Nb108  1  0.30471139  0.90175939  0.49833523  1
  Nb  Nb109  1  0.50441338  0.90153802  0.30199556  1
  Nb  Nb110  1  0.89603470  0.69674821  0.10529074  1
  Nb  Nb111  1  0.49998297  0.49546055  0.90233922  1
  Nb  Nb112  1  0.69873613  0.49720664  0.30788781  1
  Nb  Nb113  1  0.50182144  0.30011785  0.09474647  1
  Nb  Nb114  1  0.29923009  0.10017326  0.89906531  1
  Nb  Nb115  1  0.30483503  0.29938201  0.30283668  1
  Nb  Nb116  1  0.09670418  0.48917446  0.49217431  1
  Nb  Nb117  1  0.90616246  0.30210710  0.10207207  1
  Nb  Nb118  1  0.70047218  0.30228332  0.69935221  1
  Nb  Nb119  1  0.70010308  0.70350867  0.10409171  1
  Nb  Nb120  1  0.69914718  0.09109846  0.10052482  1
  Nb  Nb121  1  0.89806462  0.30277011  0.49860032  1
  Nb  Nb122  1  0.49819987  0.70338849  0.29345145  1
  Nb  Nb123  1  0.50455246  0.69637835  0.11179395  1
  Nb  Nb124  1  0.89449131  0.09541567  0.29825100  1
  Nb  Nb125  1  0.60002419  0.39760818  0.80524472  1
  Nb  Nb126  1  0.00323497  0.39372721  0.00543323  1
  Nb  Nb127  1  0.59580509  0.39618387  -0.00258487  1
  Nb  Nb128  1  0.40297606  0.20194610  0.39840980  1
  Nb  Nb129  1  0.79852927  0.40097292  0.40052608  1
  Nb  Nb130  1  -0.00574967  0.20850064  0.59327487  1
  Nb  Nb131  1  0.00013109  -0.00338720  0.80136027  1
  Nb  Nb132  1  0.20042105  0.59470677  0.00546547  1
  Nb  Nb133  1  0.39881119  0.00436045  0.80054758  1
  Nb  Nb134  1  0.19522204  0.60154491  0.19216029  1
  Nb  Nb135  1  -0.00167966  0.60502590  0.19607731  1
  Nb  Nb136  1  0.59271186  0.19912348  0.39621363  1
  Nb  Nb137  1  0.40147989  0.39843359  0.39537272  1
  Nb  Nb138  1  -0.00227822  0.80239459  0.40244877  1
  Nb  Nb139  1  0.79444806  -0.00407439  0.19675368  1
  Nb  Nb140  1  0.20145202  0.20576486  0.00028951  1
  Nb  Nb141  1  0.60069408  0.80557168  0.19755985  1
  Nb  Nb142  1  0.40326098  0.80187354  0.39598067  1
  Nb  Nb143  1  0.39657035  0.00172628  0.60015585  1
  Nb  Nb144  1  0.19786471  0.39275848  0.00298242  1
  Nb  Nb145  1  0.79823733  0.59432551  0.40046147  1
  Nb  Nb146  1  0.80183883  0.20954702  0.59789332  1
  Nb  Nb147  1  0.40239053  0.60345619  0.39472992  1
  Nb  Nb148  1  0.60119010  -0.00316656  0.80965700  1
  Nb  Nb149  1  0.39768514  0.19689592  0.59388706  1
  Pd  Pd150  1  0.80677854  0.19755827  0.79075122  1
  Pd  Pd151  1  0.39471831  0.39994325  0.59206614  1
  Pd  Pd152  1  0.60664469  0.80481514  0.61124466  1
  Pd  Pd153  1  0.79861389  0.59551204  0.20821369  1
  Pd  Pd154  1  0.80311492  0.61090130  0.81221187  1
  Pd  Pd155  1  -0.00973821  0.19243190  0.78662961  1
  Pd  Pd156  1  -0.00231275  0.20110615  0.39770828  1
  Pd  Pd157  1  0.60305906  0.59339435  0.00591072  1
  Pd  Pd158  1  -0.01072582  0.80402108  0.80837217  1
  Pd  Pd159  1  0.19429740  -0.00287423  0.39665138  1
  Pd  Pd160  1  0.19247635  0.79206004  0.18815206  1
  Pd  Pd161  1  0.19821205  0.40322541  0.59593924  1
  Pd  Pd162  1  -0.00268858  -0.00518429  -0.00211115  1
  Pd  Pd163  1  -0.00474061  0.59630186  0.80070172  1
  Pd  Pd164  1  0.58412997  0.00582863  -0.00831927  1
  Pd  Pd165  1  0.59902117  0.40372922  0.18892721  1
  Pd  Pd166  1  0.60033583  0.40691285  0.61451608  1
  Pd  Pd167  1  0.00865732  0.20677577  -0.00238367  1
  Pd  Pd168  1  0.79939977  0.79600902  0.40885605  1
  Pd  Pd169  1  0.40178464  0.59551679  0.59167941  1
  Pd  Pd170  1  0.20447912  -0.01183862  0.79920649  1
  Pd  Pd171  1  0.20742998  0.59401180  0.39466074  1
  Pd  Pd172  1  -0.01051260  0.60842414  0.39102268  1
  Pd  Pd173  1  0.80712767  0.78743239  0.80952546  1
  Pd  Pd174  1  0.60431547  -0.00125402  0.20390470  1
  Pd  Pd175  1  0.79953274  0.79444564  0.00178142  1
  Pd  Pd176  1  0.60746045  0.20447140  0.00081606  1
  Pd  Pd177  1  0.40309211  0.80498544  0.59489538  1
  Pd  Pd178  1  0.19190784  0.80271078  0.59184623  1
  Pd  Pd179  1  0.20919939  0.78955896  0.00815633  1
  Pd  Pd180  1  0.40648303  0.00013718  -0.01049864  1
  Pd  Pd181  1  0.59171540  0.79765601  0.01047566  1
  Pd  Pd182  1  0.01060558  0.79554204  0.20856919  1
  Pd  Pd183  1  0.80521273  0.39819142  0.20517344  1
  Pd  Pd184  1  0.61209107  0.00630033  0.39027337  1
  Pd  Pd185  1  0.20120941  0.00504403  0.00566851  1
  Pd  Pd186  1  0.19463631  0.81026379  0.40727476  1
  Pd  Pd187  1  0.20063481  0.19552860  0.19654195  1
  Pd  Pd188  1  0.60666947  0.19943741  0.81208299  1
  Pd  Pd189  1  0.80310607  0.19974593  0.00980702  1
  Pd  Pd190  1  0.59984714  -0.01117415  0.61402040  1
  Pd  Pd191  1  0.19988551  0.00466115  0.19346937  1
  Pd  Pd192  1  0.39429127  0.00341616  0.40098529  1
  Pd  Pd193  1  0.59827194  0.80402849  0.79744601  1
  Pd  Pd194  1  0.39969387  0.00314934  0.20207001  1
  Pd  Pd195  1  0.78865664  0.60611513  -0.00114912  1
  Pd  Pd196  1  0.39227180  0.21078399  0.00366318  1
  Pd  Pd197  1  0.60064935  0.60081274  0.60816557  1
  Pd  Pd198  1  0.00642493  0.59630557  0.60005878  1
  Pd  Pd199  1  0.20609201  0.20933927  0.80794592  1
  Rh  Rh200  1  0.80066387  0.39396348  0.00300091  1
  Rh  Rh201  1  0.79286723  0.00055128  0.39179984  1
  Rh  Rh202  1  0.20816632  -0.00833382  0.59985091  1
  Rh  Rh203  1  0.19366021  0.20679553  0.59450410  1
  Rh  Rh204  1  0.60072323  0.59607118  0.80103686  1
  Rh  Rh205  1  0.39594753  0.19299196  0.79091196  1
  Rh  Rh206  1  0.80904016  0.00270183  0.01465333  1
  Rh  Rh207  1  0.20703758  0.59852481  0.80591947  1
  Rh  Rh208  1  0.79222762  0.79882327  0.59815961  1
  Rh  Rh209  1  0.79664796  0.00415080  0.59889969  1
  Rh  Rh210  1  -0.00038967  0.19809254  0.20448762  1
  Rh  Rh211  1  0.00079633  -0.00369781  0.39878209  1
  Rh  Rh212  1  0.59764948  0.79798342  0.39014880  1
  Rh  Rh213  1  -0.00485501  0.40640303  0.80578096  1
  Rh  Rh214  1  0.79656128  0.60186566  0.59258728  1
  Rh  Rh215  1  0.78636717  0.80724781  0.18994650  1
  Rh  Rh216  1  0.79893538  0.00589033  0.79670098  1
  Rh  Rh217  1  -0.00823536  0.81305510  -0.00607893  1
  Rh  Rh218  1  0.39734211  0.59417988  0.20670429  1
  Rh  Rh219  1  -0.00898235  0.00260189  0.20184300  1
  Rh  Rh220  1  -0.00797908  0.39821821  0.20071458  1
  Rh  Rh221  1  0.20506360  0.39996930  0.40113238  1
  Rh  Rh222  1  0.20591617  0.39928298  0.80738696  1
  Rh  Rh223  1  -0.01018837  0.39214312  0.39216978  1
  Rh  Rh224  1  0.00396552  0.39990393  0.59975485  1
  Rh  Rh225  1  0.60185270  0.20211725  0.59465914  1
  Rh  Rh226  1  0.80330203  0.19093055  0.19226766  1
  Rh  Rh227  1  0.41116297  0.40473033  0.20363687  1
  Rh  Rh228  1  0.59650517  0.39066573  0.39099438  1
  Rh  Rh229  1  0.60860053  0.60449909  0.19934410  1
  Rh  Rh230  1  0.20364250  0.39706955  0.19865644  1
  Rh  Rh231  1  0.39921836  0.60088600  0.80385714  1
  Rh  Rh232  1  0.19954263  0.20369019  0.39439570  1
  Rh  Rh233  1  0.40397033  0.40307319  0.79687774  1
  Rh  Rh234  1  0.79790766  0.40065238  0.59244264  1
  Rh  Rh235  1  -0.00296864  0.01032485  0.60058887  1
  Rh  Rh236  1  0.79244168  0.20621526  0.40534957  1
  Rh  Rh237  1  0.00749063  0.58227433  0.00177070  1
  Rh  Rh238  1  0.40446032  0.19442387  0.20464013  1
  Rh  Rh239  1  0.20751629  0.79817094  0.80135674  1
  Rh  Rh240  1  0.39944373  0.60119898  -0.00004821  1
  Rh  Rh241  1  0.39729903  0.80074133  0.80027609  1
  Rh  Rh242  1  0.19267180  0.59306580  0.60009702  1
  Rh  Rh243  1  0.40663499  0.79510233  0.00723797  1
  Rh  Rh244  1  0.60053224  0.19598779  0.19948204  1
  Rh  Rh245  1  0.59997727  0.60784475  0.39682767  1
  Rh  Rh246  1  0.40288818  0.39538041  0.00481584  1
  Rh  Rh247  1  0.79098682  0.40025527  0.80676556  1
  Rh  Rh248  1  0.41140408  0.81196468  0.20117360  1
  Rh  Rh249  1  0.00701943  0.79665082  0.58811030  1
