# generated using pymatgen
data_ZrScNbPdRh
_symmetry_space_group_name_H-M   'P 1'
_cell_length_a   16.55300926
_cell_length_b   16.55240659
_cell_length_c   16.55205224
_cell_angle_alpha   90.02044950
_cell_angle_beta   90.00082470
_cell_angle_gamma   90.02485715
_symmetry_Int_Tables_number   1
_chemical_formula_structural   ZrScNbPdRh
_chemical_formula_sum   'Zr50 Sc50 Nb50 Pd50 Rh50'
_cell_volume   4535.13149053
_cell_formula_units_Z   50
loop_
 _symmetry_equiv_pos_site_id
 _symmetry_equiv_pos_as_xyz
  1  'x, y, z'
loop_
 _atom_site_type_symbol
 _atom_site_label
 _atom_site_symmetry_multiplicity
 _atom_site_fract_x
 _atom_site_fract_y
 _atom_site_fract_z
 _atom_site_occupancy
  Zr  Zr0  1  0.29432286  0.29513545  0.29777091  1
  Zr  Zr1  1  0.11364883  0.49976647  0.69748372  1
  Zr  Zr2  1  0.30806635  0.90387848  0.49792753  1
  Zr  Zr3  1  0.50218775  0.49606670  0.09468224  1
  Zr  Zr4  1  0.30037421  0.09893315  0.89731126  1
  Zr  Zr5  1  0.50140962  0.70709303  0.50008868  1
  Zr  Zr6  1  0.90254943  0.69778569  0.49146695  1
  Zr  Zr7  1  0.69734624  0.10364371  0.90390057  1
  Zr  Zr8  1  0.68368681  0.28281395  0.48896354  1
  Zr  Zr9  1  0.89263528  0.09433629  0.49925699  1
  Zr  Zr10  1  0.30387969  0.50406267  0.11268836  1
  Zr  Zr11  1  0.49121973  0.49772105  0.70765784  1
  Zr  Zr12  1  0.89620865  0.49524256  0.90663903  1
  Zr  Zr13  1  0.89652154  0.49451912  0.10036762  1
  Zr  Zr14  1  0.09705739  0.70587775  0.11100360  1
  Zr  Zr15  1  0.69192226  0.90585555  0.29439925  1
  Zr  Zr16  1  0.30530364  0.30114402  0.10192768  1
  Zr  Zr17  1  0.49724265  0.70468999  0.09547708  1
  Zr  Zr18  1  0.70157019  0.29906081  0.10706599  1
  Zr  Zr19  1  0.50731626  0.90790843  0.11112975  1
  Zr  Zr20  1  0.90248665  0.70536479  0.90102633  1
  Zr  Zr21  1  0.70165772  0.29730215  0.70264698  1
  Zr  Zr22  1  0.08689508  0.90246852  0.90483003  1
  Zr  Zr23  1  0.49856816  0.90362065  0.90241623  1
  Zr  Zr24  1  0.90336116  0.69847878  0.10426646  1
  Zr  Zr25  1  0.10236967  0.10221005  0.30161273  1
  Zr  Zr26  1  0.10481168  0.09877013  0.89309950  1
  Zr  Zr27  1  0.29985063  0.50174571  0.88446785  1
  Zr  Zr28  1  0.50504020  0.49403044  0.90055498  1
  Zr  Zr29  1  0.90648792  0.70564955  0.69932785  1
  Zr  Zr30  1  0.30524485  0.90629657  0.30761301  1
  Zr  Zr31  1  0.89984431  0.29891304  0.09365662  1
  Zr  Zr32  1  0.50412034  0.29997446  0.90401185  1
  Zr  Zr33  1  0.50476194  0.70727315  0.30276994  1
  Zr  Zr34  1  0.30518998  0.29444147  0.50405094  1
  Zr  Zr35  1  0.09452258  0.09695160  0.49972049  1
  Zr  Zr36  1  0.70475980  0.69350873  0.50740633  1
  Zr  Zr37  1  0.69321413  0.89441373  0.70564916  1
  Zr  Zr38  1  0.50525977  0.69124055  0.89327138  1
  Zr  Zr39  1  0.09775307  0.90830408  0.70375321  1
  Zr  Zr40  1  0.49894557  0.10279111  0.90342988  1
  Zr  Zr41  1  0.29479446  0.09838989  0.69985978  1
  Zr  Zr42  1  0.09884537  0.49322745  0.50331159  1
  Zr  Zr43  1  0.90708039  0.90168234  0.09026653  1
  Zr  Zr44  1  0.09630116  0.69713724  0.50205681  1
  Zr  Zr45  1  0.90621166  0.09319174  0.69075639  1
  Zr  Zr46  1  0.89696858  0.10525549  0.09867374  1
  Zr  Zr47  1  0.51126446  0.29976824  0.30614950  1
  Zr  Zr48  1  0.10406540  0.49425026  0.89702671  1
  Zr  Zr49  1  0.70004078  0.10569779  0.10860115  1
  Sc  Sc50  1  0.70725501  0.10539366  0.69330354  1
  Sc  Sc51  1  0.50157279  0.10761697  0.09843119  1
  Sc  Sc52  1  0.48938714  0.49705549  0.49680372  1
  Sc  Sc53  1  0.89846224  0.48732916  0.69632393  1
  Sc  Sc54  1  0.90107433  0.50102333  0.49868505  1
  Sc  Sc55  1  0.10054622  0.29849638  0.90121414  1
  Sc  Sc56  1  0.49942265  0.90105011  0.69139626  1
  Sc  Sc57  1  0.49071996  0.50261414  0.30061591  1
  Sc  Sc58  1  0.70683039  0.71269697  0.30458812  1
  Sc  Sc59  1  0.09298391  0.11057249  0.09645679  1
  Sc  Sc60  1  0.10500253  0.89371335  0.48634327  1
  Sc  Sc61  1  0.29600097  0.29936739  0.90068722  1
  Sc  Sc62  1  0.29677521  0.30321023  0.69821626  1
  Sc  Sc63  1  0.89323390  0.89353454  0.30274654  1
  Sc  Sc64  1  0.29470053  0.71163796  0.50564278  1
  Sc  Sc65  1  0.09738013  0.29534909  0.30603580  1
  Sc  Sc66  1  0.30026726  0.70321835  0.89442215  1
  Sc  Sc67  1  0.90555819  0.10046661  0.90857542  1
  Sc  Sc68  1  0.10063138  0.10477272  0.70232215  1
  Sc  Sc69  1  0.09815650  0.49136794  0.30240508  1
  Sc  Sc70  1  0.90606357  0.29853474  0.29686986  1
  Sc  Sc71  1  0.91080540  0.30382996  0.50028404  1
  Sc  Sc72  1  0.10033958  0.29739840  0.10068691  1
  Sc  Sc73  1  0.70739995  0.50254277  0.50218025  1
  Sc  Sc74  1  0.10464872  0.30325968  0.50090946  1
  Sc  Sc75  1  0.29992533  0.10261399  0.30308616  1
  Sc  Sc76  1  0.09762171  0.49536101  0.10653088  1
  Sc  Sc77  1  0.90444543  0.49664350  0.30166038  1
  Sc  Sc78  1  0.49220841  0.09603778  0.28649399  1
  Sc  Sc79  1  0.71070163  0.90307246  0.49388718  1
  Sc  Sc80  1  0.70394884  0.90848956  0.10577085  1
  Sc  Sc81  1  0.31220506  0.89414466  0.09463751  1
  Sc  Sc82  1  0.49419347  0.29888032  0.70572748  1
  Sc  Sc83  1  0.90643883  0.90522790  0.50348011  1
  Sc  Sc84  1  0.89728575  0.29750325  0.70017198  1
  Sc  Sc85  1  0.70164701  0.69458618  0.09213806  1
  Sc  Sc86  1  0.48633545  0.11053301  0.50368154  1
  Sc  Sc87  1  0.11168592  0.70141919  0.69457520  1
  Sc  Sc88  1  0.30862137  0.11043056  0.10935599  1
  Sc  Sc89  1  0.70349525  0.49265854  0.09343102  1
  Sc  Sc90  1  0.10032149  0.29858772  0.69911356  1
  Sc  Sc91  1  0.89865406  0.30142624  0.89997481  1
  Sc  Sc92  1  0.29725707  0.49103399  0.50543779  1
  Sc  Sc93  1  0.90295379  0.10319733  0.30722922  1
  Sc  Sc94  1  0.29841407  0.49621084  0.30257442  1
  Sc  Sc95  1  0.08966895  0.70871394  0.29945806  1
  Sc  Sc96  1  0.30107846  0.90265359  0.89564183  1
  Sc  Sc97  1  0.30273804  0.69031434  0.29386074  1
  Sc  Sc98  1  0.49044603  0.10010761  0.70181907  1
  Sc  Sc99  1  0.70314843  0.49977192  0.69313797  1
  Nb  Nb100  1  0.29614838  0.09698113  0.50355495  1
  Nb  Nb101  1  0.49971566  0.29776493  0.09633663  1
  Nb  Nb102  1  0.49372575  0.90562677  0.48847071  1
  Nb  Nb103  1  0.69791779  0.11150390  0.31006267  1
  Nb  Nb104  1  0.29389274  0.89333459  0.69326548  1
  Nb  Nb105  1  0.29843440  0.70043294  0.69975096  1
  Nb  Nb106  1  0.50973041  0.69912394  0.69791835  1
  Nb  Nb107  1  0.89821614  0.69368367  0.29964945  1
  Nb  Nb108  1  0.49601370  0.30243981  0.50615317  1
  Nb  Nb109  1  0.50027288  0.90040971  0.30397447  1
  Nb  Nb110  1  0.29907903  0.50479889  0.69986207  1
  Nb  Nb111  1  0.10294946  0.90016535  0.29405473  1
  Nb  Nb112  1  0.90222054  0.90137213  0.70595882  1
  Nb  Nb113  1  0.10181584  0.69651410  0.90403510  1
  Nb  Nb114  1  0.69840318  0.49439049  0.29744325  1
  Nb  Nb115  1  0.69836795  0.09722042  0.49349194  1
  Nb  Nb116  1  0.70046496  0.50795501  0.91131816  1
  Nb  Nb117  1  0.30194637  0.69892500  0.09888832  1
  Nb  Nb118  1  0.90141543  0.90051019  0.89555987  1
  Nb  Nb119  1  0.69772817  0.30069802  0.30016013  1
  Nb  Nb120  1  0.69784656  0.69907908  0.89598519  1
  Nb  Nb121  1  0.69678462  0.89957971  0.89535754  1
  Nb  Nb122  1  0.09866394  0.89700720  0.10409477  1
  Nb  Nb123  1  0.69733338  0.30105555  0.90011016  1
  Nb  Nb124  1  0.69031977  0.70173408  0.70234682  1
  Nb  Nb125  1  0.59538369  0.39280715  0.59630821  1
  Nb  Nb126  1  0.19513071  0.59939163  0.40499870  1
  Nb  Nb127  1  0.19619360  -0.00394490  0.00857658  1
  Nb  Nb128  1  0.80106976  0.79805953  0.60883253  1
  Nb  Nb129  1  0.39799230  0.60711530  0.61002054  1
  Nb  Nb130  1  0.19594077  0.79869861  0.00360126  1
  Nb  Nb131  1  0.79086325  0.39428496  0.39319006  1
  Nb  Nb132  1  0.79733682  0.59698002  0.20636331  1
  Nb  Nb133  1  0.79592091  0.80456756  -0.01172459  1
  Nb  Nb134  1  0.00023442  0.59862755  0.80356991  1
  Nb  Nb135  1  0.59948829  0.00362516  0.58713198  1
  Nb  Nb136  1  0.00581631  0.60024521  -0.00218777  1
  Nb  Nb137  1  0.40197887  0.79487764  0.78802439  1
  Nb  Nb138  1  0.60528952  0.80336997  -0.00698939  1
  Nb  Nb139  1  0.80325091  -0.00717605  0.80339206  1
  Nb  Nb140  1  0.59500963  0.00422964  0.40145039  1
  Nb  Nb141  1  0.19578266  -0.00469230  0.19462481  1
  Nb  Nb142  1  0.20144943  0.60419907  0.00385371  1
  Nb  Nb143  1  0.60544664  0.60024476  0.39657259  1
  Nb  Nb144  1  0.39480687  0.59851291  -0.00148175  1
  Nb  Nb145  1  0.00533686  -0.00363707  0.19954290  1
  Nb  Nb146  1  0.60527048  0.59891531  0.20446669  1
  Nb  Nb147  1  0.40549791  0.80170449  0.20447706  1
  Nb  Nb148  1  0.20356601  -0.00249557  0.59623296  1
  Nb  Nb149  1  0.79732785  0.60534652  0.80272448  1
  Pd  Pd150  1  0.00200292  0.40130142  0.79513877  1
  Pd  Pd151  1  0.00144575  0.20316841  0.59791020  1
  Pd  Pd152  1  0.60335166  0.01053484  0.78934345  1
  Pd  Pd153  1  0.60426624  -0.00090962  0.00511113  1
  Pd  Pd154  1  0.61044902  0.58741325  0.79587100  1
  Pd  Pd155  1  0.79233271  -0.00946588  0.60719046  1
  Pd  Pd156  1  0.20392374  0.40662909  0.00426617  1
  Pd  Pd157  1  0.59563778  0.40296682  0.19648283  1
  Pd  Pd158  1  -0.00540171  0.19970992  0.80153791  1
  Pd  Pd159  1  0.60188546  0.41116503  0.40931513  1
  Pd  Pd160  1  0.19996298  0.80404568  0.80648037  1
  Pd  Pd161  1  0.79876237  0.79583513  0.19007367  1
  Pd  Pd162  1  0.80410323  0.80281898  0.40758631  1
  Pd  Pd163  1  0.00247041  0.80708702  0.59656594  1
  Pd  Pd164  1  0.20393221  0.79068559  0.39178586  1
  Pd  Pd165  1  0.40410294  0.79811150  0.60385233  1
  Pd  Pd166  1  0.00186327  0.39370204  0.20016128  1
  Pd  Pd167  1  0.80863847  0.19042472  0.80517659  1
  Pd  Pd168  1  0.40662777  0.39532360  0.20771659  1
  Pd  Pd169  1  0.39131443  0.60646310  0.41210699  1
  Pd  Pd170  1  0.19049717  0.59898369  0.20774984  1
  Pd  Pd171  1  -0.00406837  0.59188283  0.60885740  1
  Pd  Pd172  1  0.39389455  0.20605013  0.80185765  1
  Pd  Pd173  1  0.40231237  0.19789461  0.39426207  1
  Pd  Pd174  1  0.80879212  0.60444317  0.61083239  1
  Pd  Pd175  1  0.00713526  0.59539308  0.39335611  1
  Pd  Pd176  1  0.39452996  0.39462354  0.39677173  1
  Pd  Pd177  1  0.59898786  0.19252922  0.79382426  1
  Pd  Pd178  1  0.80408053  0.20104846  0.21001920  1
  Pd  Pd179  1  0.80348652  0.20681371  0.58961939  1
  Pd  Pd180  1  0.39751051  -0.01006464  0.79135685  1
  Pd  Pd181  1  0.19900234  0.20063238  0.40681951  1
  Pd  Pd182  1  0.81058372  0.20949630  0.40281408  1
  Pd  Pd183  1  0.80828482  0.00726612  0.21001073  1
  Pd  Pd184  1  0.79506366  -0.00239417  -0.00609216  1
  Pd  Pd185  1  0.58991672  0.58649546  0.59306904  1
  Pd  Pd186  1  0.79061002  0.38572303  0.58501521  1
  Pd  Pd187  1  0.21490736  0.80595690  0.19980586  1
  Pd  Pd188  1  0.39413224  0.00824657  0.00894667  1
  Pd  Pd189  1  0.79849169  0.79874070  0.79838331  1
  Pd  Pd190  1  0.39137052  0.40436256  -0.00591371  1
  Pd  Pd191  1  0.60981191  0.40582410  0.79450935  1
  Pd  Pd192  1  0.60524291  0.81196244  0.58800608  1
  Pd  Pd193  1  0.79079264  0.40687495  0.80677111  1
  Pd  Pd194  1  0.60878901  0.80379021  0.40908634  1
  Pd  Pd195  1  0.20421778  0.19375638  0.00427943  1
  Pd  Pd196  1  0.59115741  0.19599429  0.60709999  1
  Pd  Pd197  1  -0.00177173  -0.00729413  0.39258104  1
  Pd  Pd198  1  0.01333556  0.79431941  0.79707055  1
  Pd  Pd199  1  0.19446631  0.39452958  0.20235306  1
  Rh  Rh200  1  0.79326776  0.38953406  -0.00462192  1
  Rh  Rh201  1  0.20310768  0.40187550  0.40068292  1
  Rh  Rh202  1  0.21031722  0.60033935  0.59079607  1
  Rh  Rh203  1  0.19736443  0.19571091  0.19816441  1
  Rh  Rh204  1  0.39933702  0.20026219  -0.00308017  1
  Rh  Rh205  1  0.79539418  0.59021458  0.39030862  1
  Rh  Rh206  1  -0.00486685  0.59557571  0.20011241  1
  Rh  Rh207  1  0.00000271  0.79468444  0.00118864  1
  Rh  Rh208  1  0.40569812  0.01281908  0.39961925  1
  Rh  Rh209  1  0.59586112  0.20056760  0.20076968  1
  Rh  Rh210  1  0.00326554  0.40078794  0.00214754  1
  Rh  Rh211  1  0.80692286  0.60693030  0.00023776  1
  Rh  Rh212  1  -0.00644992  0.39939099  0.40123442  1
  Rh  Rh213  1  -0.00434398  0.80182354  0.39526521  1
  Rh  Rh214  1  -0.01210960  0.80844668  0.20785253  1
  Rh  Rh215  1  0.39360032  0.79341751  0.39316777  1
  Rh  Rh216  1  0.39511271  0.20146809  0.60550004  1
  Rh  Rh217  1  0.19975702  0.19292881  0.59823857  1
  Rh  Rh218  1  0.20001824  0.00338565  0.40030848  1
  Rh  Rh219  1  0.58382397  0.18697942  0.39665566  1
  Rh  Rh220  1  0.58801788  0.80242198  0.80519777  1
  Rh  Rh221  1  0.19972840  0.20554911  0.79933589  1
  Rh  Rh222  1  -0.00220131  0.19479227  0.20029004  1
  Rh  Rh223  1  0.60403649  0.20556306  0.00503936  1
  Rh  Rh224  1  0.79373557  0.00157362  0.39110747  1
  Rh  Rh225  1  0.00156133  0.20565799  -0.00509019  1
  Rh  Rh226  1  0.00278941  0.39962865  0.60429344  1
  Rh  Rh227  1  0.40278885  0.40438462  0.60470861  1
  Rh  Rh228  1  0.59945963  0.79447826  0.18896791  1
  Rh  Rh229  1  0.20309746  0.39542458  0.60090703  1
  Rh  Rh230  1  0.39754991  0.60836164  0.79710105  1
  Rh  Rh231  1  0.40666315  0.21251058  0.20357325  1
  Rh  Rh232  1  0.00571261  0.00772395  0.00561153  1
  Rh  Rh233  1  -0.00768897  0.00912394  0.80157091  1
  Rh  Rh234  1  0.00947186  -0.00554195  0.59707069  1
  Rh  Rh235  1  0.19463198  0.60426071  0.80058583  1
  Rh  Rh236  1  0.59477813  0.60435221  0.00657615  1
  Rh  Rh237  1  0.39495736  0.39215670  0.80208055  1
  Rh  Rh238  1  0.20142692  0.39335399  0.79480991  1
  Rh  Rh239  1  0.41277860  0.60504029  0.19404105  1
  Rh  Rh240  1  0.60400933  0.01335398  0.20801624  1
  Rh  Rh241  1  0.60843925  0.39196552  0.00122613  1
  Rh  Rh242  1  0.39734703  0.00065149  0.60058545  1
  Rh  Rh243  1  0.00002793  0.19972368  0.40642481  1
  Rh  Rh244  1  0.20293749  -0.00435088  0.79956130  1
  Rh  Rh245  1  0.19251020  0.80947643  0.59793420  1
  Rh  Rh246  1  0.79483821  0.20484516  -0.00454553  1
  Rh  Rh247  1  0.40311580  0.79180477  -0.00907314  1
  Rh  Rh248  1  0.39147269  -0.00819007  0.19807758  1
  Rh  Rh249  1  0.80305464  0.40214963  0.20678192  1
