# generated using pymatgen
data_ZrScNbPdRh
_symmetry_space_group_name_H-M   'P 1'
_cell_length_a   16.55599082
_cell_length_b   16.56241557
_cell_length_c   16.56052887
_cell_angle_alpha   89.98891105
_cell_angle_beta   89.98857624
_cell_angle_gamma   90.01883427
_symmetry_Int_Tables_number   1
_chemical_formula_structural   ZrScNbPdRh
_chemical_formula_sum   'Zr50 Sc50 Nb50 Pd50 Rh50'
_cell_volume   4541.01583272
_cell_formula_units_Z   50
loop_
 _symmetry_equiv_pos_site_id
 _symmetry_equiv_pos_as_xyz
  1  'x, y, z'
loop_
 _atom_site_type_symbol
 _atom_site_label
 _atom_site_symmetry_multiplicity
 _atom_site_fract_x
 _atom_site_fract_y
 _atom_site_fract_z
 _atom_site_occupancy
  Zr  Zr0  1  0.68250812  0.90074256  0.09665486  1
  Zr  Zr1  1  0.90808077  0.29458028  0.89646273  1
  Zr  Zr2  1  0.90831768  0.69773597  0.90709409  1
  Zr  Zr3  1  0.69350362  0.70312328  0.89670121  1
  Zr  Zr4  1  0.90044448  0.70061901  0.50150592  1
  Zr  Zr5  1  0.69806969  0.49133678  0.30627375  1
  Zr  Zr6  1  0.49953567  0.91653333  0.49713857  1
  Zr  Zr7  1  0.89719448  0.10732021  0.90076988  1
  Zr  Zr8  1  0.29773198  0.50411886  0.70048053  1
  Zr  Zr9  1  0.08620391  0.48984105  0.28806015  1
  Zr  Zr10  1  0.49914541  0.29508565  0.70199261  1
  Zr  Zr11  1  0.50128781  0.90202441  0.29964089  1
  Zr  Zr12  1  0.50919228  0.50535887  0.48568431  1
  Zr  Zr13  1  0.70623834  0.50138557  0.49994985  1
  Zr  Zr14  1  0.90085801  0.90103260  0.29912838  1
  Zr  Zr15  1  0.70230799  0.10441362  0.10325975  1
  Zr  Zr16  1  0.09300414  0.29862405  0.70145170  1
  Zr  Zr17  1  0.29974817  0.90124936  0.69053552  1
  Zr  Zr18  1  0.29762460  0.70473527  0.29279651  1
  Zr  Zr19  1  0.10543083  0.30931941  0.10553366  1
  Zr  Zr20  1  0.10253547  0.30148248  0.50969651  1
  Zr  Zr21  1  0.70595660  0.29861208  0.70135498  1
  Zr  Zr22  1  0.10114533  0.69845927  0.90674752  1
  Zr  Zr23  1  0.89748893  0.69775865  0.29167867  1
  Zr  Zr24  1  0.29648214  0.70412160  0.90600250  1
  Zr  Zr25  1  0.50297474  0.70152205  0.70299085  1
  Zr  Zr26  1  0.49730068  0.28310353  0.50539332  1
  Zr  Zr27  1  0.09919633  0.10230781  0.69662929  1
  Zr  Zr28  1  0.49750682  0.90348415  0.69875628  1
  Zr  Zr29  1  0.29778450  0.30154769  0.69364603  1
  Zr  Zr30  1  0.70057218  0.69908367  0.69931523  1
  Zr  Zr31  1  0.29719594  0.90092056  0.49871444  1
  Zr  Zr32  1  0.10891830  0.09977639  0.29482063  1
  Zr  Zr33  1  0.09855357  0.89618395  0.91413622  1
  Zr  Zr34  1  0.70134354  0.69808684  0.50355232  1
  Zr  Zr35  1  0.90306959  0.89345044  0.69262590  1
  Zr  Zr36  1  0.29450274  0.70357809  0.49985844  1
  Zr  Zr37  1  0.10164995  0.89970940  0.10443691  1
  Zr  Zr38  1  0.50354812  0.50219352  0.70567063  1
  Zr  Zr39  1  0.50748566  0.70242541  0.49784968  1
  Zr  Zr40  1  0.10290566  0.49374513  0.69734432  1
  Zr  Zr41  1  0.09101837  0.50097005  0.50069677  1
  Zr  Zr42  1  0.90307518  0.50316189  0.11293602  1
  Zr  Zr43  1  0.50433710  0.30847355  0.29062261  1
  Zr  Zr44  1  0.70088770  0.70675087  0.29962652  1
  Zr  Zr45  1  0.31307685  0.10598465  0.49056698  1
  Zr  Zr46  1  0.30422370  0.69906882  0.69903044  1
  Zr  Zr47  1  0.70810422  0.49807448  0.09691527  1
  Zr  Zr48  1  0.09498879  0.10177491  0.90694261  1
  Zr  Zr49  1  0.09899592  0.70036466  0.49732585  1
  Sc  Sc50  1  0.09714574  0.49527536  0.90246113  1
  Sc  Sc51  1  0.70834850  0.09016869  0.90033504  1
  Sc  Sc52  1  0.50323450  0.08499409  0.10335130  1
  Sc  Sc53  1  0.70233925  0.29879201  0.28968582  1
  Sc  Sc54  1  0.49330992  0.69228656  0.30093201  1
  Sc  Sc55  1  0.69911134  0.90568927  0.30130764  1
  Sc  Sc56  1  0.29412457  0.49219672  0.10200891  1
  Sc  Sc57  1  0.30984411  0.50700081  0.28714566  1
  Sc  Sc58  1  0.70735322  0.10038331  0.70233212  1
  Sc  Sc59  1  0.10242538  0.70435765  0.09535035  1
  Sc  Sc60  1  0.09679603  0.09440387  0.10029629  1
  Sc  Sc61  1  0.89249530  0.31041358  0.30173967  1
  Sc  Sc62  1  0.70589739  0.50265234  0.70624521  1
  Sc  Sc63  1  0.28926598  0.29225317  0.29536662  1
  Sc  Sc64  1  0.69321068  0.89630106  0.49056913  1
  Sc  Sc65  1  0.30644456  0.90462795  0.91384146  1
  Sc  Sc66  1  0.29146906  0.90525762  0.29924714  1
  Sc  Sc67  1  0.70344325  0.30105310  0.10020613  1
  Sc  Sc68  1  0.90415897  0.49767640  0.89949062  1
  Sc  Sc69  1  0.89958704  0.49612146  0.70308887  1
  Sc  Sc70  1  0.50377191  0.30665339  0.09998680  1
  Sc  Sc71  1  0.89279791  0.69901316  0.69485978  1
  Sc  Sc72  1  0.30277888  0.30991972  0.89934910  1
  Sc  Sc73  1  0.89568567  0.10174023  0.09875004  1
  Sc  Sc74  1  0.49642172  0.10027301  0.68835200  1
  Sc  Sc75  1  0.89824524  0.10705458  0.70338617  1
  Sc  Sc76  1  0.50372722  0.31284926  0.90028700  1
  Sc  Sc77  1  0.49277263  0.08781229  0.89399847  1
  Sc  Sc78  1  0.29212453  0.50299684  0.90058670  1
  Sc  Sc79  1  0.70693562  0.30662877  0.90393449  1
  Sc  Sc80  1  0.69651317  0.90184009  0.89654106  1
  Sc  Sc81  1  0.50627984  0.49744063  0.90094729  1
  Sc  Sc82  1  0.69848529  0.49329024  0.89582519  1
  Sc  Sc83  1  0.69930586  0.09923566  0.50155075  1
  Sc  Sc84  1  0.89286152  0.90308280  0.90170002  1
  Sc  Sc85  1  0.50638030  0.89713599  0.90796852  1
  Sc  Sc86  1  0.09869090  0.69415633  0.69085013  1
  Sc  Sc87  1  0.89583670  0.10717565  0.50007427  1
  Sc  Sc88  1  0.49514933  0.08973191  0.30056271  1
  Sc  Sc89  1  0.49451722  0.90295391  0.10103817  1
  Sc  Sc90  1  0.90595436  0.90013732  0.10438310  1
  Sc  Sc91  1  0.49988511  0.70681558  0.89583083  1
  Sc  Sc92  1  0.10235153  0.10163623  0.50313138  1
  Sc  Sc93  1  0.70878786  0.29466995  0.50353338  1
  Sc  Sc94  1  0.70451260  0.89516481  0.70621425  1
  Sc  Sc95  1  0.49625521  0.71636000  0.10548697  1
  Sc  Sc96  1  0.49239004  0.48938480  0.11022065  1
  Sc  Sc97  1  0.29632602  0.50710118  0.50511002  1
  Sc  Sc98  1  0.10143552  0.71303245  0.29458353  1
  Sc  Sc99  1  0.10194073  0.89593393  0.50648090  1
  Nb  Nb100  1  0.30370284  0.10074326  0.71156555  1
  Nb  Nb101  1  0.90055765  0.30157571  0.50633722  1
  Nb  Nb102  1  0.10170517  0.90372284  0.69836240  1
  Nb  Nb103  1  0.30004874  0.29756355  0.10004133  1
  Nb  Nb104  1  0.09455657  0.90364457  0.29760053  1
  Nb  Nb105  1  0.50433960  0.10010799  0.49540142  1
  Nb  Nb106  1  0.89731316  0.29419089  0.70063882  1
  Nb  Nb107  1  0.30698457  0.89350868  0.10053459  1
  Nb  Nb108  1  0.29663041  0.09949476  0.90419130  1
  Nb  Nb109  1  0.89725485  0.49614514  0.48518996  1
  Nb  Nb110  1  0.89821571  0.29499109  0.09732387  1
  Nb  Nb111  1  0.30406911  0.70278689  0.10521034  1
  Nb  Nb112  1  0.70756829  0.10376256  0.29743739  1
  Nb  Nb113  1  0.89644965  0.49831880  0.30544195  1
  Nb  Nb114  1  0.09668964  0.29406290  0.90395300  1
  Nb  Nb115  1  0.29856311  0.10186506  0.29350182  1
  Nb  Nb116  1  0.70309027  0.69545498  0.10348263  1
  Nb  Nb117  1  0.90203432  0.89855704  0.50149324  1
  Nb  Nb118  1  0.30063040  0.09275745  0.09620741  1
  Nb  Nb119  1  0.10274421  0.49137492  0.10188847  1
  Nb  Nb120  1  0.30188099  0.30402461  0.49680895  1
  Nb  Nb121  1  0.50282075  0.49706971  0.29756862  1
  Nb  Nb122  1  0.09979664  0.29746966  0.29754974  1
  Nb  Nb123  1  0.89833672  0.10050677  0.29795337  1
  Nb  Nb124  1  0.88543240  0.69357467  0.10070391  1
  Nb  Nb125  1  -0.00242529  0.00230047  0.39535349  1
  Nb  Nb126  1  0.40482029  0.40071704  0.59328758  1
  Nb  Nb127  1  0.20523678  0.20123360  0.00086621  1
  Nb  Nb128  1  0.80519375  -0.00767852  0.59572831  1
  Nb  Nb129  1  0.00696981  0.80391634  0.79875339  1
  Nb  Nb130  1  0.19971049  0.00079002  0.80208987  1
  Nb  Nb131  1  0.39855578  0.80329785  0.40186062  1
  Nb  Nb132  1  0.19989575  0.40247024  0.39804807  1
  Nb  Nb133  1  0.00561123  -0.00469492  0.79794700  1
  Nb  Nb134  1  0.40160027  0.60424488  0.00801885  1
  Nb  Nb135  1  0.19375472  0.59459003  0.39274088  1
  Nb  Nb136  1  0.39252653  0.19488979  0.19275826  1
  Nb  Nb137  1  0.60142309  0.59725150  0.19791607  1
  Nb  Nb138  1  0.19553744  0.80776506  0.79812147  1
  Nb  Nb139  1  0.79570943  0.79198181  0.00763503  1
  Nb  Nb140  1  -0.00127311  0.20182139  0.39467099  1
  Nb  Nb141  1  0.59576438  0.19638472  -0.00525821  1
  Nb  Nb142  1  0.39838563  0.19752739  0.00303371  1
  Nb  Nb143  1  0.59958622  0.19419550  0.39474664  1
  Nb  Nb144  1  -0.00134804  0.20356256  0.20673573  1
  Nb  Nb145  1  0.59786481  0.60341868  0.00990459  1
  Nb  Nb146  1  0.20253704  0.19651448  0.80640606  1
  Nb  Nb147  1  0.39695990  0.39805984  0.40142685  1
  Nb  Nb148  1  0.59971462  0.19958281  0.80502939  1
  Nb  Nb149  1  0.59721794  0.39854507  0.59972619  1
  Pd  Pd150  1  -0.01170160  0.40114141  0.60359212  1
  Pd  Pd151  1  -0.01042152  -0.00003000  -0.00026030  1
  Pd  Pd152  1  0.40675265  0.80133256  0.59156407  1
  Pd  Pd153  1  -0.00371392  0.40146193  0.00353336  1
  Pd  Pd154  1  0.59025644  0.19229234  0.19828327  1
  Pd  Pd155  1  0.80193879  0.59938824  0.80610821  1
  Pd  Pd156  1  0.00199871  0.80629063  0.40042420  1
  Pd  Pd157  1  0.60247811  0.80912084  0.60153083  1
  Pd  Pd158  1  0.19411581  0.39333913  0.80600175  1
  Pd  Pd159  1  0.40268351  0.20286607  0.81108256  1
  Pd  Pd160  1  0.00475542  0.59339399  0.01161788  1
  Pd  Pd161  1  0.00298521  0.60405777  0.79433879  1
  Pd  Pd162  1  0.60081366  0.00596636  0.79571895  1
  Pd  Pd163  1  0.19304436  0.60666880  0.79855363  1
  Pd  Pd164  1  0.81083143  0.39943301  -0.00143772  1
  Pd  Pd165  1  0.19190345  0.59686909  0.19902100  1
  Pd  Pd166  1  0.60310752  0.59207569  0.60435484  1
  Pd  Pd167  1  0.39756387  0.40620089  0.79740949  1
  Pd  Pd168  1  0.80848461  0.79582696  0.80955573  1
  Pd  Pd169  1  0.40606071  0.59576515  0.59534725  1
  Pd  Pd170  1  0.20332128  0.59484424  0.01072790  1
  Pd  Pd171  1  0.80289455  0.00048753  0.40680359  1
  Pd  Pd172  1  0.40254852  0.59692594  0.81376209  1
  Pd  Pd173  1  -0.00683887  0.00714042  0.59596383  1
  Pd  Pd174  1  0.80199772  0.80138052  0.40236673  1
  Pd  Pd175  1  0.79644832  -0.00459221  0.19391674  1
  Pd  Pd176  1  0.59707658  0.79663742  0.20515844  1
  Pd  Pd177  1  0.00360045  0.60499105  0.38893990  1
  Pd  Pd178  1  0.19329924  0.00008190  0.40388074  1
  Pd  Pd179  1  0.79893581  -0.00962132  0.00839492  1
  Pd  Pd180  1  0.19535819  0.20489119  0.40461759  1
  Pd  Pd181  1  0.80154043  0.40454743  0.60093823  1
  Pd  Pd182  1  0.20885797  0.01111088  0.59904688  1
  Pd  Pd183  1  0.39794650  0.40494095  0.00028546  1
  Pd  Pd184  1  0.79318510  0.59966867  -0.01236329  1
  Pd  Pd185  1  0.39543766  -0.00936312  0.80346430  1
  Pd  Pd186  1  0.39377660  0.80914861  0.80589625  1
  Pd  Pd187  1  0.20526315  -0.00473924  0.19323075  1
  Pd  Pd188  1  0.79922424  0.20570073  0.39732606  1
  Pd  Pd189  1  0.00814355  0.60868630  0.19484008  1
  Pd  Pd190  1  0.39043218  0.59943223  0.39929183  1
  Pd  Pd191  1  -0.00982881  0.59437760  0.60282911  1
  Pd  Pd192  1  0.61214722  0.00094640  0.60472474  1
  Pd  Pd193  1  0.00199095  0.38882337  0.40095806  1
  Pd  Pd194  1  0.21026660  0.19310355  0.60242338  1
  Pd  Pd195  1  0.40675851  0.20627166  0.38253443  1
  Pd  Pd196  1  -0.00311634  0.79264154  0.19120886  1
  Pd  Pd197  1  0.60033809  0.38314691  0.40884952  1
  Pd  Pd198  1  0.79867798  0.60366721  0.39657048  1
  Pd  Pd199  1  0.79599516  0.81246146  0.19318995  1
  Rh  Rh200  1  0.39984808  0.79532337  0.00031966  1
  Rh  Rh201  1  0.39149749  0.00043230  0.20174854  1
  Rh  Rh202  1  0.20257180  -0.00269635  0.00448978  1
  Rh  Rh203  1  0.60145327  0.40161840  0.00574866  1
  Rh  Rh204  1  0.80253813  0.19284243  0.60110665  1
  Rh  Rh205  1  0.60769370  0.19906670  0.60205859  1
  Rh  Rh206  1  0.39532297  0.00979894  0.59681538  1
  Rh  Rh207  1  -0.01233797  0.79865042  0.00582295  1
  Rh  Rh208  1  0.20663765  0.40435989  0.20984328  1
  Rh  Rh209  1  0.59102162  0.79827453  0.39518027  1
  Rh  Rh210  1  -0.00093865  0.00848673  0.20677416  1
  Rh  Rh211  1  0.79252539  0.59146925  0.21279260  1
  Rh  Rh212  1  0.79272144  0.80583486  0.59009712  1
  Rh  Rh213  1  0.80320953  0.40096748  0.19892038  1
  Rh  Rh214  1  -0.01175878  0.39095834  0.19618830  1
  Rh  Rh215  1  0.79760739  0.39343600  0.40287051  1
  Rh  Rh216  1  0.60647450  0.00454325  0.20712390  1
  Rh  Rh217  1  0.60491375  0.39289125  0.79130975  1
  Rh  Rh218  1  0.41036502  0.60296825  0.18938787  1
  Rh  Rh219  1  0.19868896  0.19573080  0.18844985  1
  Rh  Rh220  1  0.19625871  0.79462087  0.60634659  1
  Rh  Rh221  1  0.00414290  0.19600056  0.79596483  1
  Rh  Rh222  1  0.20048151  0.79914866  0.39571103  1
  Rh  Rh223  1  0.39210201  0.19627899  0.60235517  1
  Rh  Rh224  1  0.59865290  0.00785882  -0.00443762  1
  Rh  Rh225  1  0.61058715  0.40839014  0.19258609  1
  Rh  Rh226  1  0.19824726  0.39592390  -0.00449358  1
  Rh  Rh227  1  0.60393081  0.79371287  0.00074118  1
  Rh  Rh228  1  0.00757082  0.20551593  0.01759772  1
  Rh  Rh229  1  0.00005717  0.39566022  0.79821733  1
  Rh  Rh230  1  0.39717788  0.80796640  0.20963668  1
  Rh  Rh231  1  0.60022557  0.59989276  0.80757470  1
  Rh  Rh232  1  -0.00744655  0.20104700  0.59454956  1
  Rh  Rh233  1  0.20136915  0.80786291  0.19628400  1
  Rh  Rh234  1  0.40370775  0.00169107  0.00306817  1
  Rh  Rh235  1  0.80906491  0.20369925  0.19902988  1
  Rh  Rh236  1  0.60895262  0.01282771  0.39303008  1
  Rh  Rh237  1  0.19695296  0.59973234  0.59521029  1
  Rh  Rh238  1  0.79086003  0.20183008  -0.00159856  1
  Rh  Rh239  1  0.80832339  0.39611806  0.80168802  1
  Rh  Rh240  1  0.79370825  0.20393299  0.80697800  1
  Rh  Rh241  1  0.39372967  -0.00375815  0.39419830  1
  Rh  Rh242  1  0.59531944  0.80632777  0.79401065  1
  Rh  Rh243  1  0.20755892  0.80411503  0.00460337  1
  Rh  Rh244  1  0.60687177  0.60671360  0.38758730  1
  Rh  Rh245  1  0.38931761  0.38883752  0.20905439  1
  Rh  Rh246  1  0.81155155  -0.00250065  0.78882710  1
  Rh  Rh247  1  0.00432223  0.79559472  0.60116336  1
  Rh  Rh248  1  0.20608294  0.40669132  0.59355558  1
  Rh  Rh249  1  0.80732458  0.59366527  0.59633651  1
