# generated using pymatgen
data_ZrScNbPdRh
_symmetry_space_group_name_H-M   'P 1'
_cell_length_a   16.56448695
_cell_length_b   16.56252911
_cell_length_c   16.56076252
_cell_angle_alpha   90.00313194
_cell_angle_beta   89.97104383
_cell_angle_gamma   89.99976983
_symmetry_Int_Tables_number   1
_chemical_formula_structural   ZrScNbPdRh
_chemical_formula_sum   'Zr50 Sc50 Nb50 Pd50 Rh50'
_cell_volume   4543.44125462
_cell_formula_units_Z   50
loop_
 _symmetry_equiv_pos_site_id
 _symmetry_equiv_pos_as_xyz
  1  'x, y, z'
loop_
 _atom_site_type_symbol
 _atom_site_label
 _atom_site_symmetry_multiplicity
 _atom_site_fract_x
 _atom_site_fract_y
 _atom_site_fract_z
 _atom_site_occupancy
  Zr  Zr0  1  0.71087369  0.89923557  0.50199417  1
  Zr  Zr1  1  0.29935003  0.11174533  0.70304756  1
  Zr  Zr2  1  0.10604237  0.70470217  0.09704669  1
  Zr  Zr3  1  0.09691295  0.10276849  0.70952412  1
  Zr  Zr4  1  0.29663655  0.49621197  0.90500850  1
  Zr  Zr5  1  0.10423967  0.29986723  0.90247145  1
  Zr  Zr6  1  0.70529398  0.90146545  0.30144493  1
  Zr  Zr7  1  0.69394422  0.29159091  0.29148254  1
  Zr  Zr8  1  0.49596891  0.30474785  0.29483004  1
  Zr  Zr9  1  0.30991096  0.90167595  0.49491168  1
  Zr  Zr10  1  0.28645139  0.30058919  0.49972867  1
  Zr  Zr11  1  0.50370207  0.50001571  0.29592385  1
  Zr  Zr12  1  0.69709190  0.50799458  0.69907845  1
  Zr  Zr13  1  0.50717949  0.30398386  0.09914015  1
  Zr  Zr14  1  0.49571624  0.29694851  0.70948357  1
  Zr  Zr15  1  0.49964808  0.49915367  0.88974466  1
  Zr  Zr16  1  0.70935843  0.89458729  0.89923586  1
  Zr  Zr17  1  0.89438339  0.49795698  0.29649523  1
  Zr  Zr18  1  0.70955125  0.90754309  0.10065631  1
  Zr  Zr19  1  0.10193936  0.89878112  0.70722478  1
  Zr  Zr20  1  0.89416770  0.29832217  0.10751735  1
  Zr  Zr21  1  0.70196063  0.10679912  0.70563944  1
  Zr  Zr22  1  0.30393925  0.09848374  0.90450407  1
  Zr  Zr23  1  0.89498842  0.50396517  0.89631106  1
  Zr  Zr24  1  0.09819471  0.49191384  0.49610309  1
  Zr  Zr25  1  0.70348729  0.50051157  0.30117338  1
  Zr  Zr26  1  0.70052544  0.49639149  0.10012057  1
  Zr  Zr27  1  0.09480892  0.89560833  0.49755496  1
  Zr  Zr28  1  0.09824920  0.50039803  0.91002899  1
  Zr  Zr29  1  0.49640806  0.09088989  0.50810535  1
  Zr  Zr30  1  0.29811261  0.90018066  0.30144845  1
  Zr  Zr31  1  0.90017615  0.10208928  0.49918050  1
  Zr  Zr32  1  0.89119928  0.49256981  0.69743284  1
  Zr  Zr33  1  0.49965908  0.09862886  0.08188514  1
  Zr  Zr34  1  0.29690266  0.70992158  0.69825816  1
  Zr  Zr35  1  0.30663215  0.70226155  0.49530203  1
  Zr  Zr36  1  0.49495772  0.91205334  0.89471794  1
  Zr  Zr37  1  0.29440497  0.09377627  0.09734955  1
  Zr  Zr38  1  0.09765299  0.70357909  0.69562275  1
  Zr  Zr39  1  0.30975425  0.70889105  0.29437421  1
  Zr  Zr40  1  0.90301514  0.90098743  0.10589064  1
  Zr  Zr41  1  0.10220500  0.29580097  0.68742669  1
  Zr  Zr42  1  0.10035637  0.69629360  0.90533659  1
  Zr  Zr43  1  0.90558743  0.70316597  0.10799852  1
  Zr  Zr44  1  0.50092146  0.70265310  0.49996001  1
  Zr  Zr45  1  0.90373272  0.29871698  0.50690583  1
  Zr  Zr46  1  0.69676861  0.29112313  0.09290287  1
  Zr  Zr47  1  0.50361276  0.49430480  0.10004708  1
  Zr  Zr48  1  0.90059430  0.89659450  0.30227175  1
  Zr  Zr49  1  0.90012664  0.10090649  0.89320371  1
  Sc  Sc50  1  0.10037840  0.10050789  0.30422617  1
  Sc  Sc51  1  0.08893003  0.30926221  0.10263298  1
  Sc  Sc52  1  0.08475096  0.50237542  0.69018099  1
  Sc  Sc53  1  0.10662235  0.09250913  0.90175266  1
  Sc  Sc54  1  0.88783567  0.29897718  0.89996376  1
  Sc  Sc55  1  0.10380960  0.90155260  0.29605057  1
  Sc  Sc56  1  0.89865301  0.49835539  0.49841797  1
  Sc  Sc57  1  0.70234280  0.29762006  0.50531987  1
  Sc  Sc58  1  0.50327678  0.69451550  0.30466780  1
  Sc  Sc59  1  0.29732021  0.70148611  0.89254751  1
  Sc  Sc60  1  0.89953394  0.49673312  0.10171096  1
  Sc  Sc61  1  0.89054393  0.69615603  0.90336187  1
  Sc  Sc62  1  0.70541844  0.30608512  0.70187187  1
  Sc  Sc63  1  0.31569679  0.49236179  0.69617588  1
  Sc  Sc64  1  0.31446920  0.49522511  0.30423261  1
  Sc  Sc65  1  0.08782564  0.70044338  0.49512891  1
  Sc  Sc66  1  0.70648670  0.90412258  0.69922069  1
  Sc  Sc67  1  0.50274921  0.69991261  0.11784881  1
  Sc  Sc68  1  0.70255771  0.49799649  0.50826679  1
  Sc  Sc69  1  0.49565999  0.28825075  0.49096622  1
  Sc  Sc70  1  0.90793867  0.09659255  0.29528921  1
  Sc  Sc71  1  0.30381732  0.49757554  0.09564828  1
  Sc  Sc72  1  0.49983473  0.50378028  0.50171999  1
  Sc  Sc73  1  0.30218092  0.30155399  0.89872919  1
  Sc  Sc74  1  0.49695148  0.68798268  0.70191752  1
  Sc  Sc75  1  0.69938202  0.69932492  0.30455839  1
  Sc  Sc76  1  0.89802090  0.71144783  0.49742000  1
  Sc  Sc77  1  0.30747129  0.49104717  0.49458825  1
  Sc  Sc78  1  0.70509417  0.69890130  0.10230973  1
  Sc  Sc79  1  0.29135046  0.09143752  0.30967593  1
  Sc  Sc80  1  0.70083980  0.10381779  0.90684314  1
  Sc  Sc81  1  0.49773028  0.88941147  0.30325010  1
  Sc  Sc82  1  0.70254642  0.70099365  0.50324096  1
  Sc  Sc83  1  0.10514663  0.10834994  0.49171767  1
  Sc  Sc84  1  0.29582099  0.89980438  0.88934760  1
  Sc  Sc85  1  0.08579615  0.49937009  0.30354292  1
  Sc  Sc86  1  0.30415239  0.30655655  0.08855561  1
  Sc  Sc87  1  0.30024119  0.10053306  0.49776450  1
  Sc  Sc88  1  0.50636742  0.49541709  0.69725177  1
  Sc  Sc89  1  0.50618968  0.30098893  0.90433894  1
  Sc  Sc90  1  0.89326564  0.69731570  0.70148509  1
  Sc  Sc91  1  0.08759767  0.70258732  0.29882727  1
  Sc  Sc92  1  0.10425393  0.08966590  0.09980429  1
  Sc  Sc93  1  0.50285193  0.90143807  0.09955119  1
  Sc  Sc94  1  0.89254049  0.09358544  0.10111397  1
  Sc  Sc95  1  0.50096340  0.11337683  0.31252124  1
  Sc  Sc96  1  0.70567892  0.49824099  0.89512323  1
  Sc  Sc97  1  0.89792327  0.90512886  0.90653959  1
  Sc  Sc98  1  0.89435773  0.90043066  0.70726221  1
  Sc  Sc99  1  0.70372846  0.09869430  0.50507535  1
  Nb  Nb100  1  0.50049316  0.09815684  0.88581904  1
  Nb  Nb101  1  0.50378230  0.09601915  0.70889373  1
  Nb  Nb102  1  0.49953330  0.70291315  0.89802351  1
  Nb  Nb103  1  0.29963072  0.70470575  0.10105683  1
  Nb  Nb104  1  0.90047067  0.29126652  0.70005157  1
  Nb  Nb105  1  0.69691933  0.69703379  0.89324111  1
  Nb  Nb106  1  0.69988844  0.29583047  0.90173851  1
  Nb  Nb107  1  0.10254333  0.30329361  0.48939413  1
  Nb  Nb108  1  0.89667247  0.90293046  0.50014735  1
  Nb  Nb109  1  0.90241284  0.11178534  0.69960461  1
  Nb  Nb110  1  0.50088846  0.91662097  0.69652593  1
  Nb  Nb111  1  0.50454095  0.90547652  0.50668501  1
  Nb  Nb112  1  0.90499693  0.69640551  0.30269462  1
  Nb  Nb113  1  0.90596740  0.29927973  0.29528644  1
  Nb  Nb114  1  0.69273445  0.10435913  0.30089346  1
  Nb  Nb115  1  0.28942819  0.89276541  0.11279917  1
  Nb  Nb116  1  0.69755668  0.70544119  0.70290550  1
  Nb  Nb117  1  0.29571204  0.89774003  0.69762281  1
  Nb  Nb118  1  0.69744269  0.10340644  0.10618442  1
  Nb  Nb119  1  0.29345296  0.30007874  0.69989469  1
  Nb  Nb120  1  0.29910473  0.30696030  0.30075437  1
  Nb  Nb121  1  0.09964116  0.30059722  0.30585932  1
  Nb  Nb122  1  0.10721638  0.50061507  0.09752212  1
  Nb  Nb123  1  0.10880580  0.89669906  0.09526064  1
  Nb  Nb124  1  0.09561316  0.90041278  0.90088386  1
  Nb  Nb125  1  0.19659553  0.40220649  0.20444204  1
  Nb  Nb126  1  0.39245763  0.19734980  0.19813775  1
  Nb  Nb127  1  0.59897717  0.00778047  0.20538540  1
  Nb  Nb128  1  0.59755454  0.80084508  0.79801751  1
  Nb  Nb129  1  0.40588302  0.60987025  -0.00015971  1
  Nb  Nb130  1  0.20086769  0.59723108  0.20110706  1
  Nb  Nb131  1  0.19716281  0.59356977  0.79058706  1
  Nb  Nb132  1  0.40076970  0.79587358  0.00298208  1
  Nb  Nb133  1  0.60147141  0.39673753  0.39635887  1
  Nb  Nb134  1  0.59305963  0.19355762  0.60912463  1
  Nb  Nb135  1  0.40235062  0.00406153  0.20084914  1
  Nb  Nb136  1  0.60163528  -0.00147499  0.40053215  1
  Nb  Nb137  1  0.20291177  0.21044894  0.20472005  1
  Nb  Nb138  1  -0.00100348  0.00229470  0.60252293  1
  Nb  Nb139  1  -0.00404903  0.19822878  0.00130244  1
  Nb  Nb140  1  0.80366078  0.20235604  0.39277883  1
  Nb  Nb141  1  0.19744467  -0.00390974  0.60337623  1
  Nb  Nb142  1  0.59713762  0.79544282  -0.00701693  1
  Nb  Nb143  1  0.00307201  0.80064954  0.80741628  1
  Nb  Nb144  1  0.59703478  0.60607030  -0.00560735  1
  Nb  Nb145  1  0.19422897  0.40292874  0.79251226  1
  Nb  Nb146  1  -0.00095180  0.39499178  0.79741794  1
  Nb  Nb147  1  0.59628174  0.80668072  0.60758363  1
  Nb  Nb148  1  0.20158582  0.59967916  0.39649734  1
  Nb  Nb149  1  0.20223618  0.59990515  0.59525585  1
  Pd  Pd150  1  0.80871834  0.00442895  0.60804520  1
  Pd  Pd151  1  0.60774522  0.39615677  0.80283651  1
  Pd  Pd152  1  0.00056023  0.60043074  0.79918487  1
  Pd  Pd153  1  0.01045859  0.19396361  0.19379058  1
  Pd  Pd154  1  0.40453332  0.20462857  -0.00383593  1
  Pd  Pd155  1  -0.00576886  0.80123064  -0.00389914  1
  Pd  Pd156  1  0.80038359  0.00530589  0.79898076  1
  Pd  Pd157  1  0.79463425  0.39006618  0.39955712  1
  Pd  Pd158  1  0.79820232  0.39963673  -0.00055351  1
  Pd  Pd159  1  0.61294961  -0.00354424  0.80423817  1
  Pd  Pd160  1  0.40767147  0.38846795  0.59404497  1
  Pd  Pd161  1  0.79978755  0.79294548  0.20735068  1
  Pd  Pd162  1  0.38697607  0.20024944  0.39451289  1
  Pd  Pd163  1  0.20088269  0.41081503  0.60496343  1
  Pd  Pd164  1  0.79916661  0.79326939  0.00237829  1
  Pd  Pd165  1  0.00875691  -0.00365923  0.19788063  1
  Pd  Pd166  1  0.60435369  0.80636607  0.19534755  1
  Pd  Pd167  1  0.00204963  0.20766222  0.81035225  1
  Pd  Pd168  1  0.79822874  0.01074535  0.39288286  1
  Pd  Pd169  1  -0.00057675  0.00549338  0.00207248  1
  Pd  Pd170  1  -0.00539679  0.60184781  0.59047319  1
  Pd  Pd171  1  0.39450513  0.59638638  0.19507311  1
  Pd  Pd172  1  0.40834527  0.80632911  0.79593798  1
  Pd  Pd173  1  0.19449396  0.79198183  0.39617153  1
  Pd  Pd174  1  0.00598806  0.59437919  0.19346860  1
  Pd  Pd175  1  0.41054481  0.80430428  0.60817365  1
  Pd  Pd176  1  0.00953372  0.19476201  0.59165480  1
  Pd  Pd177  1  0.20494921  0.00306088  0.79883920  1
  Pd  Pd178  1  0.19099160  0.20565885  0.01166810  1
  Pd  Pd179  1  0.80387679  0.60461584  0.40658825  1
  Pd  Pd180  1  0.59149326  0.38738818  0.59134810  1
  Pd  Pd181  1  0.60435174  0.59238201  0.40723931  1
  Pd  Pd182  1  -0.00800362  0.59963888  0.00843690  1
  Pd  Pd183  1  0.39821139  0.20439649  0.80840344  1
  Pd  Pd184  1  0.40210731  0.20340808  0.60148218  1
  Pd  Pd185  1  -0.00817046  0.39672875  0.39882058  1
  Pd  Pd186  1  -0.01035740  0.39424645  -0.00526477  1
  Pd  Pd187  1  0.60189627  0.80584546  0.40842004  1
  Pd  Pd188  1  0.20923172  0.80540502  -0.00882918  1
  Pd  Pd189  1  0.39141445  0.59805951  0.80106938  1
  Pd  Pd190  1  0.39610091  0.59815015  0.59886690  1
  Pd  Pd191  1  0.80407470  0.19263361  0.20552721  1
  Pd  Pd192  1  0.80159652  0.60585307  0.59621594  1
  Pd  Pd193  1  0.00306397  -0.00013422  0.40341425  1
  Pd  Pd194  1  -0.01285435  0.80763445  0.60882738  1
  Pd  Pd195  1  0.79874656  0.60492322  0.20025883  1
  Pd  Pd196  1  0.38781469  0.00395748  0.60900111  1
  Pd  Pd197  1  0.38786605  -0.01664229  0.00680477  1
  Pd  Pd198  1  0.19933216  0.79984975  0.58797501  1
  Pd  Pd199  1  0.60850680  -0.00237946  -0.00145486  1
  Rh  Rh200  1  0.60514748  0.40859655  -0.00870651  1
  Rh  Rh201  1  0.79782107  0.80011234  0.60312580  1
  Rh  Rh202  1  0.20381208  -0.01195843  -0.00365607  1
  Rh  Rh203  1  0.58329464  0.18933641  0.19042559  1
  Rh  Rh204  1  -0.00373340  0.39511481  0.60236063  1
  Rh  Rh205  1  0.60672289  0.59988007  0.19634117  1
  Rh  Rh206  1  0.40551566  0.81000491  0.19300603  1
  Rh  Rh207  1  0.60122374  0.60874156  0.60058860  1
  Rh  Rh208  1  0.80065516  0.39627767  0.60189718  1
  Rh  Rh209  1  0.19880152  0.39585794  0.00327128  1
  Rh  Rh210  1  0.39478676  0.39460510  0.80021871  1
  Rh  Rh211  1  0.79613738  0.60150876  0.79622834  1
  Rh  Rh212  1  0.80319929  0.79557782  0.80070569  1
  Rh  Rh213  1  0.79464374  0.20107487  0.59884810  1
  Rh  Rh214  1  0.60657716  0.00148124  0.59753682  1
  Rh  Rh215  1  0.21213489  0.60244843  0.00512829  1
  Rh  Rh216  1  0.00296181  0.40428146  0.20140604  1
  Rh  Rh217  1  0.40853176  0.40570616  -0.00464396  1
  Rh  Rh218  1  0.60939657  0.40277595  0.20449150  1
  Rh  Rh219  1  0.19886909  0.40967701  0.39027951  1
  Rh  Rh220  1  0.79456624  0.00674758  0.20631428  1
  Rh  Rh221  1  0.80230228  0.39451667  0.79791962  1
  Rh  Rh222  1  -0.00452166  0.59990284  0.40285695  1
  Rh  Rh223  1  0.19202663  0.79158476  0.20711179  1
  Rh  Rh224  1  0.41118898  0.39803684  0.40560490  1
  Rh  Rh225  1  -0.00582991  0.20499407  0.39761920  1
  Rh  Rh226  1  0.20249205  0.20672324  0.80459220  1
  Rh  Rh227  1  0.19734810  0.19385909  0.59413113  1
  Rh  Rh228  1  0.60352429  0.20335112  0.80108154  1
  Rh  Rh229  1  0.79580758  0.39538120  0.19912869  1
  Rh  Rh230  1  0.19494054  -0.00586183  0.41061361  1
  Rh  Rh231  1  0.80458850  0.79442419  0.39545613  1
  Rh  Rh232  1  0.20160203  0.00380255  0.20229597  1
  Rh  Rh233  1  0.60170592  0.60169258  0.79950012  1
  Rh  Rh234  1  0.79509499  0.60077412  0.00211036  1
  Rh  Rh235  1  0.61175641  0.19828186  0.41659494  1
  Rh  Rh236  1  0.79555782  0.20440713  0.80171449  1
  Rh  Rh237  1  0.41274860  -0.00361212  0.39142959  1
  Rh  Rh238  1  0.59868940  0.19590508  -0.00803001  1
  Rh  Rh239  1  0.00454302  0.80679218  0.19998492  1
  Rh  Rh240  1  0.39906861  0.60154321  0.39874453  1
  Rh  Rh241  1  0.39136059  0.39297504  0.19267057  1
  Rh  Rh242  1  0.40856554  0.80208318  0.40210197  1
  Rh  Rh243  1  0.79910019  0.00652837  0.00094410  1
  Rh  Rh244  1  0.19056982  0.79363398  0.80674456  1
  Rh  Rh245  1  -0.00485362  0.80362093  0.39542611  1
  Rh  Rh246  1  -0.00520052  -0.00569825  0.79646505  1
  Rh  Rh247  1  0.80342176  0.19427364  0.00180564  1
  Rh  Rh248  1  0.20217753  0.20364402  0.39365246  1
  Rh  Rh249  1  0.38917531  0.00194806  0.79134932  1
