# generated using pymatgen
data_ZrScNbPdRh
_symmetry_space_group_name_H-M   'P 1'
_cell_length_a   16.55286390
_cell_length_b   16.55323393
_cell_length_c   16.55558873
_cell_angle_alpha   90.01126458
_cell_angle_beta   90.02760747
_cell_angle_gamma   89.98602219
_symmetry_Int_Tables_number   1
_chemical_formula_structural   ZrScNbPdRh
_chemical_formula_sum   'Zr50 Sc50 Nb50 Pd50 Rh50'
_cell_volume   4536.28732064
_cell_formula_units_Z   50
loop_
 _symmetry_equiv_pos_site_id
 _symmetry_equiv_pos_as_xyz
  1  'x, y, z'
loop_
 _atom_site_type_symbol
 _atom_site_label
 _atom_site_symmetry_multiplicity
 _atom_site_fract_x
 _atom_site_fract_y
 _atom_site_fract_z
 _atom_site_occupancy
  Zr  Zr0  1  0.09173706  0.70857194  0.70037602  1
  Zr  Zr1  1  0.90393794  0.70627894  0.49590141  1
  Zr  Zr2  1  0.49280185  0.28931000  0.69789948  1
  Zr  Zr3  1  0.29946864  0.29883301  0.69112108  1
  Zr  Zr4  1  0.70660618  0.09635721  0.50320794  1
  Zr  Zr5  1  0.70746506  0.30056897  0.28460478  1
  Zr  Zr6  1  0.30280071  0.70096587  0.70682561  1
  Zr  Zr7  1  0.50133002  0.49872342  0.29778321  1
  Zr  Zr8  1  0.69456567  0.89843747  0.90975037  1
  Zr  Zr9  1  0.69891584  0.50152421  0.09884676  1
  Zr  Zr10  1  0.90193310  0.30613529  0.49155738  1
  Zr  Zr11  1  0.49910574  0.11026901  0.09744784  1
  Zr  Zr12  1  0.10215994  0.09580065  0.30427200  1
  Zr  Zr13  1  0.89254175  0.49281746  0.70705094  1
  Zr  Zr14  1  0.10314329  0.29847212  0.09297251  1
  Zr  Zr15  1  0.48846180  0.09548179  0.29809120  1
  Zr  Zr16  1  0.30260919  0.91672310  0.29587110  1
  Zr  Zr17  1  0.50216588  0.30522740  0.50013563  1
  Zr  Zr18  1  0.51087961  0.69674228  0.70063674  1
  Zr  Zr19  1  0.50432711  0.69742984  0.29632230  1
  Zr  Zr20  1  0.09703376  0.29959946  0.90444460  1
  Zr  Zr21  1  0.10406802  0.29899255  0.70175770  1
  Zr  Zr22  1  0.71120278  0.90185356  0.10643498  1
  Zr  Zr23  1  0.09668533  0.69919423  0.49257582  1
  Zr  Zr24  1  0.30884325  0.29550678  0.31171311  1
  Zr  Zr25  1  0.28802037  0.29970722  0.90063643  1
  Zr  Zr26  1  0.89542664  0.50234336  0.49933615  1
  Zr  Zr27  1  0.68767761  0.29939487  0.09198103  1
  Zr  Zr28  1  0.69687262  0.69804542  0.88978281  1
  Zr  Zr29  1  0.50180479  0.28563483  0.90345444  1
  Zr  Zr30  1  0.70561482  0.49926329  0.90213514  1
  Zr  Zr31  1  0.09455539  0.70844189  0.09983429  1
  Zr  Zr32  1  0.30391214  0.08905685  0.10498369  1
  Zr  Zr33  1  0.89877680  0.90607585  0.90944991  1
  Zr  Zr34  1  0.09510851  0.30100131  0.31002972  1
  Zr  Zr35  1  0.51034109  0.09556758  0.50845674  1
  Zr  Zr36  1  0.09986342  0.49747018  0.90258153  1
  Zr  Zr37  1  0.09998009  0.89510288  0.50750103  1
  Zr  Zr38  1  0.50295857  0.70762604  0.49285136  1
  Zr  Zr39  1  0.88144036  0.29387094  0.10687120  1
  Zr  Zr40  1  0.70240617  0.48829612  0.50225596  1
  Zr  Zr41  1  0.69705812  0.50449260  0.70566048  1
  Zr  Zr42  1  0.90030288  0.70470313  0.10336949  1
  Zr  Zr43  1  0.50076525  0.49487329  0.69665906  1
  Zr  Zr44  1  0.30270442  0.09691832  0.49314275  1
  Zr  Zr45  1  0.30951332  0.10035344  0.69464052  1
  Zr  Zr46  1  0.29581277  0.29350428  0.09697267  1
  Zr  Zr47  1  0.89801254  0.50214100  0.30558399  1
  Zr  Zr48  1  0.29901497  0.69937011  0.29689206  1
  Zr  Zr49  1  0.10373270  0.50823905  0.30909995  1
  Sc  Sc50  1  0.50285759  0.90208362  0.49473373  1
  Sc  Sc51  1  0.90511832  0.69992742  0.89913985  1
  Sc  Sc52  1  0.89608358  0.29843098  0.71062879  1
  Sc  Sc53  1  0.30116445  0.90760061  0.49993399  1
  Sc  Sc54  1  0.49631754  0.50795036  0.90080548  1
  Sc  Sc55  1  0.50801929  0.49049002  0.49679582  1
  Sc  Sc56  1  0.49731009  0.70576142  0.89703853  1
  Sc  Sc57  1  0.70036575  0.70635556  0.49399784  1
  Sc  Sc58  1  0.08958222  0.90210346  0.29284955  1
  Sc  Sc59  1  0.89163181  0.29885968  0.90064377  1
  Sc  Sc60  1  0.90418553  0.89246054  0.70516283  1
  Sc  Sc61  1  0.30092933  0.90168712  0.68763015  1
  Sc  Sc62  1  0.30238289  0.49333513  0.70691913  1
  Sc  Sc63  1  0.30956075  0.89552854  0.90995789  1
  Sc  Sc64  1  0.09349976  0.49998970  0.09219181  1
  Sc  Sc65  1  0.70178353  0.69924288  0.29751199  1
  Sc  Sc66  1  0.70191882  0.88918883  0.69796590  1
  Sc  Sc67  1  0.89469551  0.09238287  0.10167216  1
  Sc  Sc68  1  0.69647959  0.11130731  0.90730783  1
  Sc  Sc69  1  0.09936011  0.09743639  0.09309086  1
  Sc  Sc70  1  0.08740332  0.90581983  0.90413416  1
  Sc  Sc71  1  0.10369515  0.49892311  0.49815468  1
  Sc  Sc72  1  0.29780676  0.49021085  0.49929260  1
  Sc  Sc73  1  0.09503422  0.10105719  0.90254337  1
  Sc  Sc74  1  0.49621695  0.69124468  0.09640862  1
  Sc  Sc75  1  0.30824406  0.51164672  0.09812271  1
  Sc  Sc76  1  0.10409308  0.09493965  0.49320219  1
  Sc  Sc77  1  0.10988665  0.30313806  0.50068612  1
  Sc  Sc78  1  0.89290588  0.10002888  0.70606702  1
  Sc  Sc79  1  0.90074501  0.10377663  0.90169250  1
  Sc  Sc80  1  0.90200449  0.49492785  0.90095318  1
  Sc  Sc81  1  0.50399413  0.30136979  0.30112613  1
  Sc  Sc82  1  0.50895223  0.90129126  0.09667941  1
  Sc  Sc83  1  0.90263192  0.70004797  0.30109722  1
  Sc  Sc84  1  0.69928964  0.10579816  0.69108242  1
  Sc  Sc85  1  0.10032789  0.09929946  0.70478999  1
  Sc  Sc86  1  0.69928418  0.08973351  0.29176544  1
  Sc  Sc87  1  0.09390919  0.89999806  0.09819688  1
  Sc  Sc88  1  0.89542967  0.89915699  0.49028404  1
  Sc  Sc89  1  0.49424979  0.89670693  0.69509104  1
  Sc  Sc90  1  0.69728093  0.50499682  0.29823086  1
  Sc  Sc91  1  0.30963051  0.70414227  0.90251864  1
  Sc  Sc92  1  0.10253358  0.50204751  0.71195289  1
  Sc  Sc93  1  0.50525801  0.50567000  0.10195715  1
  Sc  Sc94  1  0.29855505  0.70786211  0.49806896  1
  Sc  Sc95  1  0.49884262  0.89598498  0.90281033  1
  Sc  Sc96  1  0.50901366  0.90081132  0.30245437  1
  Sc  Sc97  1  0.69752642  0.90336316  0.49181105  1
  Sc  Sc98  1  0.70751319  0.29804967  0.69898538  1
  Sc  Sc99  1  0.89691545  0.50997120  0.09515755  1
  Nb  Nb100  1  0.49399812  0.30255599  0.10233869  1
  Nb  Nb101  1  0.89426776  0.69981122  0.69820631  1
  Nb  Nb102  1  0.30037442  0.09884082  0.29851275  1
  Nb  Nb103  1  0.30555796  0.09438821  0.89897791  1
  Nb  Nb104  1  0.70137661  0.10735345  0.10283453  1
  Nb  Nb105  1  0.30811502  0.30033817  0.50944629  1
  Nb  Nb106  1  0.49847139  0.10123403  0.70720014  1
  Nb  Nb107  1  0.70592929  0.69651859  0.10251100  1
  Nb  Nb108  1  0.29598715  0.50426641  0.90228666  1
  Nb  Nb109  1  0.30218547  0.50328834  0.29865557  1
  Nb  Nb110  1  0.30033899  0.89206835  0.10049050  1
  Nb  Nb111  1  0.70014298  0.29436768  0.49636438  1
  Nb  Nb112  1  0.49210181  0.09896547  0.88784326  1
  Nb  Nb113  1  0.90764439  0.09880906  0.30481295  1
  Nb  Nb114  1  0.90433779  0.89747894  0.10462193  1
  Nb  Nb115  1  0.89582066  0.90680649  0.28528755  1
  Nb  Nb116  1  0.70430417  0.69489782  0.70269912  1
  Nb  Nb117  1  0.29885852  0.70593611  0.09830547  1
  Nb  Nb118  1  0.69990587  0.30177096  0.90369660  1
  Nb  Nb119  1  0.70200964  0.89737615  0.29415987  1
  Nb  Nb120  1  0.90138639  0.09960209  0.49934143  1
  Nb  Nb121  1  0.09888716  0.90615150  0.70159644  1
  Nb  Nb122  1  0.10395035  0.69563611  0.89737608  1
  Nb  Nb123  1  0.09870802  0.70083439  0.30263062  1
  Nb  Nb124  1  0.90326598  0.29872270  0.29952896  1
  Nb  Nb125  1  0.19549444  0.80198496  0.39172651  1
  Nb  Nb126  1  -0.00277760  0.19876004  0.59509093  1
  Nb  Nb127  1  0.39577286  0.39808293  0.19688773  1
  Nb  Nb128  1  0.39974376  0.59792588  0.40118728  1
  Nb  Nb129  1  0.79965444  0.60605644  0.60390882  1
  Nb  Nb130  1  0.19473282  0.80684591  0.80058007  1
  Nb  Nb131  1  0.59953376  0.39313380  0.80559784  1
  Nb  Nb132  1  -0.00353262  0.00254789  0.59997211  1
  Nb  Nb133  1  0.20438712  -0.00534152  0.80121953  1
  Nb  Nb134  1  -0.00355472  0.59944886  0.60523377  1
  Nb  Nb135  1  -0.00089143  0.39975124  0.60383817  1
  Nb  Nb136  1  0.20176424  0.40297078  0.20268081  1
  Nb  Nb137  1  0.80319944  0.19734357  0.39600337  1
  Nb  Nb138  1  0.40092257  0.60060734  0.59482328  1
  Nb  Nb139  1  0.20056107  0.60361621  0.60381294  1
  Nb  Nb140  1  0.00040015  0.39597438  0.20359534  1
  Nb  Nb141  1  0.19831608  0.60328230  0.19729092  1
  Nb  Nb142  1  0.19993682  0.20007797  0.20647731  1
  Nb  Nb143  1  0.39768695  0.39805577  0.00201686  1
  Nb  Nb144  1  -0.00033564  0.20178518  0.20584066  1
  Nb  Nb145  1  0.59695944  0.00593785  0.80017388  1
  Nb  Nb146  1  0.39573101  0.80195866  0.19559749  1
  Nb  Nb147  1  0.60942178  0.19849910  0.40117382  1
  Nb  Nb148  1  0.20112030  0.60790614  -0.00019479  1
  Nb  Nb149  1  0.78940140  -0.00246789  0.80580798  1
  Pd  Pd150  1  0.40224502  0.79596102  0.59804391  1
  Pd  Pd151  1  0.80020505  0.79297792  -0.00143146  1
  Pd  Pd152  1  0.00360163  0.59459790  0.19963836  1
  Pd  Pd153  1  0.39786852  -0.01273055  0.79701788  1
  Pd  Pd154  1  0.00060789  0.80337689  0.80704917  1
  Pd  Pd155  1  0.59631271  0.00188568  0.19636852  1
  Pd  Pd156  1  -0.00598680  0.59755069  0.79935840  1
  Pd  Pd157  1  0.40331474  0.59937330  0.79643834  1
  Pd  Pd158  1  0.60388189  0.80227467  0.59754092  1
  Pd  Pd159  1  0.60005469  0.60676448  -0.00402922  1
  Pd  Pd160  1  0.40512920  0.39390467  0.81098289  1
  Pd  Pd161  1  0.79928200  0.80050085  0.59617587  1
  Pd  Pd162  1  0.19123804  0.00128667  0.19442409  1
  Pd  Pd163  1  -0.01454655  0.39436644  0.00778462  1
  Pd  Pd164  1  0.58865972  0.40337621  -0.00579419  1
  Pd  Pd165  1  0.60097682  0.59763131  0.40534497  1
  Pd  Pd166  1  0.60573992  0.38953383  0.61142108  1
  Pd  Pd167  1  0.20303618  0.20105093  0.40389326  1
  Pd  Pd168  1  0.20123345  0.79673437  0.60134764  1
  Pd  Pd169  1  0.60311732  0.60233567  0.58918774  1
  Pd  Pd170  1  0.59618661  0.80929379  0.79709078  1
  Pd  Pd171  1  0.39260124  0.19828138  -0.00326758  1
  Pd  Pd172  1  0.60956078  0.19943573  0.79573826  1
  Pd  Pd173  1  0.00156469  -0.00934628  0.40571879  1
  Pd  Pd174  1  0.79770870  0.00228782  0.39128641  1
  Pd  Pd175  1  0.80995289  0.20745487  0.59554268  1
  Pd  Pd176  1  0.20726228  0.39656557  0.39980461  1
  Pd  Pd177  1  0.59716048  0.79428006  0.19256574  1
  Pd  Pd178  1  0.80177161  0.80512839  0.80671662  1
  Pd  Pd179  1  0.39418975  0.80333843  0.39056140  1
  Pd  Pd180  1  0.40816144  -0.00330015  0.00492970  1
  Pd  Pd181  1  0.19971923  0.80232014  0.20529150  1
  Pd  Pd182  1  0.41119483  0.19624543  0.40872003  1
  Pd  Pd183  1  0.80308658  0.60709179  -0.00586527  1
  Pd  Pd184  1  0.19958057  -0.00524282  -0.00740986  1
  Pd  Pd185  1  0.80789890  -0.01011541  0.60963007  1
  Pd  Pd186  1  0.19919808  0.40061778  0.79871455  1
  Pd  Pd187  1  0.60039836  0.79017249  0.00899432  1
  Pd  Pd188  1  0.79690183  0.00831152  -0.00163724  1
  Pd  Pd189  1  0.20348543  0.18783595  0.80434973  1
  Pd  Pd190  1  -0.01083017  0.19933219  0.00876702  1
  Pd  Pd191  1  -0.00245638  0.19847412  0.79671234  1
  Pd  Pd192  1  0.79324213  0.39611748  0.39263070  1
  Pd  Pd193  1  0.59559377  0.19885867  0.20646314  1
  Pd  Pd194  1  0.60134127  -0.00765365  0.61160635  1
  Pd  Pd195  1  0.19392754  0.19075107  0.59355857  1
  Pd  Pd196  1  0.59553708  0.01196378  -0.00590224  1
  Pd  Pd197  1  0.80487705  0.41270300  0.19628236  1
  Pd  Pd198  1  0.19461670  0.80227459  -0.01092072  1
  Pd  Pd199  1  0.79903442  0.80152099  0.38907423  1
  Rh  Rh200  1  0.59843263  0.20387491  0.59824470  1
  Rh  Rh201  1  0.39433488  0.20487156  0.20165856  1
  Rh  Rh202  1  -0.00643757  0.80476508  0.59973588  1
  Rh  Rh203  1  0.60376437  0.00387065  0.39411432  1
  Rh  Rh204  1  0.40500351  0.00070783  0.40373274  1
  Rh  Rh205  1  0.19289368  0.00602091  0.60642032  1
  Rh  Rh206  1  -0.00628074  0.80116448  0.20458023  1
  Rh  Rh207  1  0.80267610  0.79716512  0.20283867  1
  Rh  Rh208  1  0.59663337  0.59511804  0.80466449  1
  Rh  Rh209  1  0.39826334  0.40618328  0.39797127  1
  Rh  Rh210  1  0.39525371  0.59928697  -0.00535787  1
  Rh  Rh211  1  0.79612854  0.60364775  0.40514941  1
  Rh  Rh212  1  0.80163415  0.00384009  0.19913018  1
  Rh  Rh213  1  0.00043239  0.80831733  0.38921493  1
  Rh  Rh214  1  0.79062979  0.39551852  0.80640891  1
  Rh  Rh215  1  0.38785672  0.20479614  0.80169252  1
  Rh  Rh216  1  -0.00426651  0.59786721  0.40500994  1
  Rh  Rh217  1  -0.00101291  0.79891152  -0.00283155  1
  Rh  Rh218  1  0.79668828  0.19863822  0.00072252  1
  Rh  Rh219  1  0.19763934  -0.00963287  0.39856585  1
  Rh  Rh220  1  0.39541857  0.80486969  0.79665888  1
  Rh  Rh221  1  0.80687377  0.18487456  0.20840932  1
  Rh  Rh222  1  0.20542377  0.60831945  0.80377734  1
  Rh  Rh223  1  0.80212710  0.39893669  0.60287461  1
  Rh  Rh224  1  0.40942632  -0.00920583  0.19098692  1
  Rh  Rh225  1  0.39749445  0.60258045  0.20555305  1
  Rh  Rh226  1  0.40829417  0.79965873  0.01119468  1
  Rh  Rh227  1  0.59734281  0.19527904  0.00167345  1
  Rh  Rh228  1  0.79418660  0.19385591  0.80543664  1
  Rh  Rh229  1  0.20942737  0.60897636  0.40328644  1
  Rh  Rh230  1  0.40453180  0.19394064  0.59241417  1
  Rh  Rh231  1  0.79920207  0.60188956  0.20106210  1
  Rh  Rh232  1  0.40672192  0.00281290  0.59708510  1
  Rh  Rh233  1  -0.00061177  0.00679851  0.19460325  1
  Rh  Rh234  1  0.00541887  0.60416650  -0.00449311  1
  Rh  Rh235  1  -0.00545603  0.00315000  0.79456153  1
  Rh  Rh236  1  0.20986380  0.41762880  0.00788299  1
  Rh  Rh237  1  0.80645003  0.60195844  0.80131148  1
  Rh  Rh238  1  0.60972297  0.39030841  0.39025145  1
  Rh  Rh239  1  -0.00420114  0.19766275  0.40463741  1
  Rh  Rh240  1  0.20625201  0.18208571  -0.00005335  1
  Rh  Rh241  1  0.19584887  0.40900517  0.60474637  1
  Rh  Rh242  1  0.00244510  0.40886310  0.40280302  1
  Rh  Rh243  1  0.80062799  0.39923314  0.00265080  1
  Rh  Rh244  1  0.59389359  0.40185181  0.19824304  1
  Rh  Rh245  1  -0.00406065  0.00250243  0.00557398  1
  Rh  Rh246  1  0.60757045  0.80618666  0.39281934  1
  Rh  Rh247  1  0.00445486  0.39156062  0.80062096  1
  Rh  Rh248  1  0.60687596  0.60261557  0.19529554  1
  Rh  Rh249  1  0.39926785  0.40673956  0.59683150  1
