# generated using pymatgen
data_ZrScNbPdRh
_symmetry_space_group_name_H-M   'P 1'
_cell_length_a   16.55765986
_cell_length_b   16.55943478
_cell_length_c   16.55906350
_cell_angle_alpha   89.97375552
_cell_angle_beta   90.02053414
_cell_angle_gamma   90.02350030
_symmetry_Int_Tables_number   1
_chemical_formula_structural   ZrScNbPdRh
_chemical_formula_sum   'Zr50 Sc50 Nb50 Pd50 Rh50'
_cell_volume   4540.25376567
_cell_formula_units_Z   50
loop_
 _symmetry_equiv_pos_site_id
 _symmetry_equiv_pos_as_xyz
  1  'x, y, z'
loop_
 _atom_site_type_symbol
 _atom_site_label
 _atom_site_symmetry_multiplicity
 _atom_site_fract_x
 _atom_site_fract_y
 _atom_site_fract_z
 _atom_site_occupancy
  Zr  Zr0  1  0.48631144  0.88903143  0.90561760  1
  Zr  Zr1  1  0.69378880  0.69626870  0.70698370  1
  Zr  Zr2  1  0.69906621  0.09709757  0.70506428  1
  Zr  Zr3  1  0.89120767  0.10971609  0.50221503  1
  Zr  Zr4  1  0.69719837  0.89554845  0.50181774  1
  Zr  Zr5  1  0.08917813  0.88641739  0.09926751  1
  Zr  Zr6  1  0.90440172  0.30021250  0.69114686  1
  Zr  Zr7  1  0.09238537  0.30132865  0.51054207  1
  Zr  Zr8  1  0.90617261  0.29454446  0.09724338  1
  Zr  Zr9  1  0.70489736  0.91048495  0.70087646  1
  Zr  Zr10  1  0.68834853  0.70199315  0.09267288  1
  Zr  Zr11  1  0.49541301  0.70504162  0.29864613  1
  Zr  Zr12  1  0.89629715  0.69521751  0.49586429  1
  Zr  Zr13  1  0.51068749  0.30217569  0.89771949  1
  Zr  Zr14  1  0.51022984  0.69642651  0.90304028  1
  Zr  Zr15  1  0.31104527  0.90544223  0.09047365  1
  Zr  Zr16  1  0.88831538  0.29449983  0.29579027  1
  Zr  Zr17  1  0.49762735  0.70374573  0.10284538  1
  Zr  Zr18  1  0.69117497  0.30525503  0.28376216  1
  Zr  Zr19  1  0.89744585  0.49904212  0.30358276  1
  Zr  Zr20  1  0.89996259  0.30379652  0.90877314  1
  Zr  Zr21  1  0.10471179  0.11493923  0.11825778  1
  Zr  Zr22  1  0.89817613  0.48819762  0.09755406  1
  Zr  Zr23  1  0.49716848  0.30069148  0.49763769  1
  Zr  Zr24  1  0.89360685  0.30229594  0.50396554  1
  Zr  Zr25  1  0.49757424  0.50609457  0.09270266  1
  Zr  Zr26  1  0.09360859  0.90150969  0.68767531  1
  Zr  Zr27  1  0.69872410  0.89912355  0.09396182  1
  Zr  Zr28  1  0.29738627  0.09216418  0.90513588  1
  Zr  Zr29  1  0.49717142  0.50237057  0.50588852  1
  Zr  Zr30  1  0.50341795  0.70158581  0.49239916  1
  Zr  Zr31  1  0.90198388  0.10133080  0.28868377  1
  Zr  Zr32  1  0.90427765  0.90782486  0.90520817  1
  Zr  Zr33  1  0.30135779  0.50125837  0.50029934  1
  Zr  Zr34  1  0.30610341  0.50518360  0.89882510  1
  Zr  Zr35  1  0.29782732  0.09758806  0.49995349  1
  Zr  Zr36  1  0.09906764  0.50117365  0.49511399  1
  Zr  Zr37  1  0.69944919  0.69940004  0.50304967  1
  Zr  Zr38  1  0.91020541  0.49716334  0.89904371  1
  Zr  Zr39  1  0.30398475  0.70217932  0.30058427  1
  Zr  Zr40  1  0.10053326  0.50540572  0.09442330  1
  Zr  Zr41  1  0.10687892  0.69756491  0.10306803  1
  Zr  Zr42  1  0.29105987  0.09313613  0.29501912  1
  Zr  Zr43  1  0.09935443  0.90871212  0.89769020  1
  Zr  Zr44  1  0.90332300  0.89972014  0.29605707  1
  Zr  Zr45  1  0.69837526  0.09593481  0.09666550  1
  Zr  Zr46  1  0.51547789  0.09811561  0.70255345  1
  Zr  Zr47  1  0.49679571  0.50101666  0.70577408  1
  Zr  Zr48  1  0.30023398  0.29975176  0.50273610  1
  Zr  Zr49  1  0.30027109  0.50470373  0.30540794  1
  Sc  Sc50  1  0.10212449  0.70128099  0.69159498  1
  Sc  Sc51  1  0.90038356  0.90875867  0.09527952  1
  Sc  Sc52  1  0.10428196  0.09917800  0.88646404  1
  Sc  Sc53  1  0.89625192  0.89505096  0.51530075  1
  Sc  Sc54  1  0.49491756  0.70288960  0.70535675  1
  Sc  Sc55  1  0.69585132  0.69938733  0.31177223  1
  Sc  Sc56  1  0.28956056  0.10482369  0.69871817  1
  Sc  Sc57  1  0.11254598  0.90249883  0.29748699  1
  Sc  Sc58  1  0.90620052  0.09610141  0.90567944  1
  Sc  Sc59  1  0.90096776  0.69399688  0.69609553  1
  Sc  Sc60  1  0.69193595  0.89447392  0.29607808  1
  Sc  Sc61  1  0.69157810  0.49100114  0.10073512  1
  Sc  Sc62  1  0.29887052  0.30279313  0.31423165  1
  Sc  Sc63  1  0.69358904  0.50460115  0.49976363  1
  Sc  Sc64  1  0.30301404  0.68937286  0.10539447  1
  Sc  Sc65  1  0.09234202  0.29729822  0.89745280  1
  Sc  Sc66  1  0.69285923  0.09283668  0.90083214  1
  Sc  Sc67  1  0.29762287  0.29333500  0.70076678  1
  Sc  Sc68  1  0.69226133  0.50316094  0.69925291  1
  Sc  Sc69  1  0.69387335  0.50457220  0.89491198  1
  Sc  Sc70  1  0.30192147  0.29322011  0.90248879  1
  Sc  Sc71  1  0.30547748  0.89135587  0.69333702  1
  Sc  Sc72  1  0.91677565  0.70864260  0.09957980  1
  Sc  Sc73  1  0.69290719  0.29778265  0.69321689  1
  Sc  Sc74  1  0.90192902  0.69319479  0.30667124  1
  Sc  Sc75  1  0.09633337  0.51451961  0.70671636  1
  Sc  Sc76  1  0.51354409  0.30306532  0.09077571  1
  Sc  Sc77  1  0.49563121  0.09989177  0.50666422  1
  Sc  Sc78  1  0.09740271  0.50510815  0.30511708  1
  Sc  Sc79  1  0.89572909  0.09060511  0.70277656  1
  Sc  Sc80  1  0.49865709  0.09420667  0.28863083  1
  Sc  Sc81  1  0.50152315  0.09426060  0.09399936  1
  Sc  Sc82  1  0.50823628  0.49882225  0.29949225  1
  Sc  Sc83  1  0.10053929  0.68671638  0.89995131  1
  Sc  Sc84  1  0.90255528  0.69763641  0.89839224  1
  Sc  Sc85  1  0.90144560  0.50031905  0.69740818  1
  Sc  Sc86  1  0.31250089  0.70201999  0.89516796  1
  Sc  Sc87  1  0.30017816  0.70176510  0.49900759  1
  Sc  Sc88  1  0.90352270  0.49998871  0.49935571  1
  Sc  Sc89  1  0.70697781  0.10840235  0.28973066  1
  Sc  Sc90  1  0.09981856  0.30086404  0.29879017  1
  Sc  Sc91  1  0.49698702  0.89833642  0.29563266  1
  Sc  Sc92  1  0.49151241  0.90040736  0.50166210  1
  Sc  Sc93  1  0.29786781  0.10252074  0.09608487  1
  Sc  Sc94  1  0.69851648  0.10448878  0.51429215  1
  Sc  Sc95  1  0.50253524  0.89997405  0.10687994  1
  Sc  Sc96  1  0.50515186  0.30272458  0.70010625  1
  Sc  Sc97  1  0.50237572  0.89829504  0.69622763  1
  Sc  Sc98  1  0.09981057  0.28985658  0.70356277  1
  Sc  Sc99  1  0.30647248  0.90236152  0.29993361  1
  Nb  Nb100  1  0.70598339  0.30337452  0.08630493  1
  Nb  Nb101  1  0.10047439  0.09314314  0.50640513  1
  Nb  Nb102  1  0.10447560  0.49916706  0.90068049  1
  Nb  Nb103  1  0.29337361  0.89980189  0.49632521  1
  Nb  Nb104  1  0.70801129  0.89362843  0.90561730  1
  Nb  Nb105  1  0.50009030  0.49542499  0.89615104  1
  Nb  Nb106  1  0.50103006  0.10236668  0.89863175  1
  Nb  Nb107  1  0.29531393  0.69351630  0.70513858  1
  Nb  Nb108  1  0.70112698  0.30163450  0.90343985  1
  Nb  Nb109  1  0.09599664  0.71266468  0.50115248  1
  Nb  Nb110  1  0.10681199  0.30302373  0.10202759  1
  Nb  Nb111  1  0.49805133  0.29885301  0.29687025  1
  Nb  Nb112  1  0.29805101  0.50989969  0.70330501  1
  Nb  Nb113  1  0.10018205  0.10228827  0.69231530  1
  Nb  Nb114  1  0.89674461  0.89995684  0.70973639  1
  Nb  Nb115  1  0.70520813  0.49519448  0.29352257  1
  Nb  Nb116  1  0.29419835  0.29778725  0.10130731  1
  Nb  Nb117  1  0.10100355  0.09896699  0.30650099  1
  Nb  Nb118  1  0.70133781  0.70372606  0.90208965  1
  Nb  Nb119  1  0.29768885  0.90026242  0.89989153  1
  Nb  Nb120  1  0.09944644  0.70730841  0.29787547  1
  Nb  Nb121  1  0.10333018  0.89726288  0.50322208  1
  Nb  Nb122  1  0.70332167  0.29157097  0.49459095  1
  Nb  Nb123  1  0.89928897  0.10288533  0.10551828  1
  Nb  Nb124  1  0.30154704  0.49682565  0.10023284  1
  Nb  Nb125  1  0.80023128  0.00148307  0.40027744  1
  Nb  Nb126  1  0.59860365  0.20198507  0.39616838  1
  Nb  Nb127  1  0.79782681  0.20690761  0.80563852  1
  Nb  Nb128  1  0.00235825  0.19264773  0.40108364  1
  Nb  Nb129  1  0.00224937  0.00067522  0.40578696  1
  Nb  Nb130  1  -0.00030709  0.80528102  0.79704744  1
  Nb  Nb131  1  0.20107822  0.40229115  0.00064952  1
  Nb  Nb132  1  0.79144340  0.39529256  0.39849873  1
  Nb  Nb133  1  0.60544039  0.00699392  0.39995734  1
  Nb  Nb134  1  0.20142215  0.40915962  0.60861458  1
  Nb  Nb135  1  0.20556280  0.40118649  0.19446477  1
  Nb  Nb136  1  0.19885108  0.80123716  0.80118394  1
  Nb  Nb137  1  0.79744498  0.60210112  0.00370549  1
  Nb  Nb138  1  0.20173650  0.40805937  0.80176369  1
  Nb  Nb139  1  0.79935200  0.79248944  0.19679532  1
  Nb  Nb140  1  0.79744500  0.60183707  0.19397256  1
  Nb  Nb141  1  0.39991100  0.00288163  0.80460703  1
  Nb  Nb142  1  0.00632742  0.80584409  0.40433932  1
  Nb  Nb143  1  0.39664820  0.39608445  0.19569520  1
  Nb  Nb144  1  0.39763071  0.21059144  0.19840847  1
  Nb  Nb145  1  0.79969184  0.80336024  0.80446730  1
  Nb  Nb146  1  0.19124628  0.19193994  0.40658431  1
  Nb  Nb147  1  0.79918286  0.39367275  0.80215388  1
  Nb  Nb148  1  0.40702400  0.19056562  0.80430983  1
  Nb  Nb149  1  0.20362155  0.80090910  -0.00642329  1
  Pd  Pd150  1  0.60068144  0.59612778  0.39617319  1
  Pd  Pd151  1  0.19651621  0.60158250  0.59268510  1
  Pd  Pd152  1  0.19896340  0.59499836  0.20620050  1
  Pd  Pd153  1  -0.00525169  0.60203140  0.00050521  1
  Pd  Pd154  1  0.40580177  0.40619903  0.39387816  1
  Pd  Pd155  1  -0.01023553  0.00273591  0.59792216  1
  Pd  Pd156  1  0.01124450  0.01537720  0.01278678  1
  Pd  Pd157  1  0.39536932  0.00409000  0.61004131  1
  Pd  Pd158  1  0.60334890  0.39866258  0.59597253  1
  Pd  Pd159  1  0.79709951  0.59261083  0.59995576  1
  Pd  Pd160  1  0.59305390  -0.00862258  -0.00560158  1
  Pd  Pd161  1  0.20603803  -0.00696218  0.78559502  1
  Pd  Pd162  1  0.39691564  0.79229913  0.59695515  1
  Pd  Pd163  1  0.00079865  0.60021859  0.59618331  1
  Pd  Pd164  1  -0.00677760  0.39002642  0.39458652  1
  Pd  Pd165  1  0.59238245  -0.01547595  0.81265068  1
  Pd  Pd166  1  0.80322716  0.59747285  0.80631396  1
  Pd  Pd167  1  0.59360835  0.19820291  0.19316783  1
  Pd  Pd168  1  0.00678821  0.39882201  0.20322287  1
  Pd  Pd169  1  -0.01037427  0.19204465  0.79643985  1
  Pd  Pd170  1  0.40069253  0.18864945  0.38992102  1
  Pd  Pd171  1  0.60377788  0.60093595  0.20451874  1
  Pd  Pd172  1  0.60414588  0.39565230  0.40247936  1
  Pd  Pd173  1  0.19901176  -0.00951153  0.18962675  1
  Pd  Pd174  1  0.81062306  0.79258886  0.00241835  1
  Pd  Pd175  1  0.79723300  0.18948259  -0.00436647  1
  Pd  Pd176  1  0.21236807  0.80509823  0.19021067  1
  Pd  Pd177  1  0.40229707  0.60934842  0.60194669  1
  Pd  Pd178  1  0.78992570  0.40650242  0.59951340  1
  Pd  Pd179  1  0.39918320  0.60572958  -0.00339346  1
  Pd  Pd180  1  0.60476588  0.80789443  0.80171613  1
  Pd  Pd181  1  -0.00571473  0.59991974  0.20270092  1
  Pd  Pd182  1  0.20012155  0.80073438  0.39834287  1
  Pd  Pd183  1  0.18882636  -0.00171670  0.01122437  1
  Pd  Pd184  1  0.19493034  0.61163262  0.40287396  1
  Pd  Pd185  1  0.39795345  0.39211394  0.00222935  1
  Pd  Pd186  1  0.79326879  -0.00926855  0.20221177  1
  Pd  Pd187  1  0.40584829  0.19675201  0.61294359  1
  Pd  Pd188  1  0.00851426  -0.00185688  0.19961660  1
  Pd  Pd189  1  0.39257592  0.39975111  0.61134222  1
  Pd  Pd190  1  0.00375340  0.40063246  0.79270180  1
  Pd  Pd191  1  0.20787872  -0.00481208  0.60516181  1
  Pd  Pd192  1  0.01016635  0.19278930  0.00126484  1
  Pd  Pd193  1  0.80622551  0.80594614  0.39364221  1
  Pd  Pd194  1  0.40657230  0.20265167  0.00267193  1
  Pd  Pd195  1  0.19149574  0.20338449  -0.00845196  1
  Pd  Pd196  1  0.39290729  0.38999177  0.79567473  1
  Pd  Pd197  1  0.40699071  0.00151689  0.39740356  1
  Pd  Pd198  1  0.80024029  0.79448788  0.61213798  1
  Pd  Pd199  1  0.59742986  0.79909785  0.60248007  1
  Rh  Rh200  1  0.01253975  0.39620626  0.00295685  1
  Rh  Rh201  1  0.79169191  0.58828074  0.39584197  1
  Rh  Rh202  1  0.60311099  0.59348276  -0.00566014  1
  Rh  Rh203  1  0.59231993  0.81038377  0.40151589  1
  Rh  Rh204  1  -0.00839456  0.79716644  0.60117676  1
  Rh  Rh205  1  -0.00230481  0.19068837  0.60156846  1
  Rh  Rh206  1  0.20817735  0.79703946  0.60295169  1
  Rh  Rh207  1  0.20814160  0.21064921  0.21577532  1
  Rh  Rh208  1  0.80058812  0.00084864  0.59533940  1
  Rh  Rh209  1  0.59241099  0.60527910  0.60340396  1
  Rh  Rh210  1  0.79134499  0.41339644  -0.00963100  1
  Rh  Rh211  1  0.80019036  0.00220162  0.81313171  1
  Rh  Rh212  1  0.00991659  0.61247922  0.40103813  1
  Rh  Rh213  1  0.40430498  0.59160039  0.20628187  1
  Rh  Rh214  1  0.19451206  0.39113629  0.40786308  1
  Rh  Rh215  1  0.79675531  0.19911446  0.61658530  1
  Rh  Rh216  1  0.59089164  0.40182831  0.19281289  1
  Rh  Rh217  1  0.00217092  0.20728919  0.20553312  1
  Rh  Rh218  1  0.39638275  0.80570523  0.40293534  1
  Rh  Rh219  1  0.39379934  0.80277988  0.79454371  1
  Rh  Rh220  1  0.60512916  0.19796589  -0.00061977  1
  Rh  Rh221  1  0.00393057  0.00155999  0.79090457  1
  Rh  Rh222  1  0.59400917  0.59881696  0.80224981  1
  Rh  Rh223  1  0.60770066  0.40110315  0.79905612  1
  Rh  Rh224  1  0.40695024  0.00384734  -0.00395577  1
  Rh  Rh225  1  0.80214909  0.00677971  0.00030925  1
  Rh  Rh226  1  0.59866039  -0.00413364  0.58903730  1
  Rh  Rh227  1  0.19789678  -0.00163594  0.40645303  1
  Rh  Rh228  1  0.60395575  0.00048980  0.20442715  1
  Rh  Rh229  1  0.39408911  0.79120077  0.00687861  1
  Rh  Rh230  1  0.79372484  0.19921070  0.39566608  1
  Rh  Rh231  1  -0.00430554  0.79752047  0.21108746  1
  Rh  Rh232  1  0.39786431  0.00926143  0.19369548  1
  Rh  Rh233  1  0.60244697  0.40748127  -0.00578170  1
  Rh  Rh234  1  0.79405873  0.20505645  0.18147686  1
  Rh  Rh235  1  0.39555864  0.80136448  0.19668637  1
  Rh  Rh236  1  0.59427246  0.80680535  -0.00127919  1
  Rh  Rh237  1  0.20980860  0.60209289  -0.00465948  1
  Rh  Rh238  1  0.19621430  0.20569098  0.59477968  1
  Rh  Rh239  1  -0.00104785  0.60690007  0.79868355  1
  Rh  Rh240  1  0.60421555  0.20437713  0.80373101  1
  Rh  Rh241  1  0.40734245  0.60284264  0.80156535  1
  Rh  Rh242  1  0.60360047  0.79648560  0.20235109  1
  Rh  Rh243  1  0.01159228  0.79464301  -0.01526332  1
  Rh  Rh244  1  0.59503979  0.20473296  0.59139665  1
  Rh  Rh245  1  0.80039787  0.40027586  0.19830596  1
  Rh  Rh246  1  0.40534951  0.59891334  0.39880921  1
  Rh  Rh247  1  0.01290093  0.41113270  0.60926477  1
  Rh  Rh248  1  0.20105659  0.60409649  0.80467870  1
  Rh  Rh249  1  0.20444120  0.20480855  0.80299974  1
