# generated using pymatgen
data_ZrScNbPdRh
_symmetry_space_group_name_H-M   'P 1'
_cell_length_a   16.55707099
_cell_length_b   16.56218338
_cell_length_c   16.55905582
_cell_angle_alpha   90.02664650
_cell_angle_beta   89.97652451
_cell_angle_gamma   90.01827688
_symmetry_Int_Tables_number   1
_chemical_formula_structural   ZrScNbPdRh
_chemical_formula_sum   'Zr50 Sc50 Nb50 Pd50 Rh50'
_cell_volume   4540.84381684
_cell_formula_units_Z   50
loop_
 _symmetry_equiv_pos_site_id
 _symmetry_equiv_pos_as_xyz
  1  'x, y, z'
loop_
 _atom_site_type_symbol
 _atom_site_label
 _atom_site_symmetry_multiplicity
 _atom_site_fract_x
 _atom_site_fract_y
 _atom_site_fract_z
 _atom_site_occupancy
  Zr  Zr0  1  0.89985468  0.10280952  0.49205170  1
  Zr  Zr1  1  0.69427373  0.70125758  0.09557814  1
  Zr  Zr2  1  0.50026616  0.69250823  0.30358191  1
  Zr  Zr3  1  0.29232146  0.50032144  0.90009057  1
  Zr  Zr4  1  0.29806678  0.50130089  0.50831740  1
  Zr  Zr5  1  0.29789462  0.70943907  0.89774635  1
  Zr  Zr6  1  0.29560211  0.69496679  0.69298638  1
  Zr  Zr7  1  0.29292826  0.30066435  0.30070606  1
  Zr  Zr8  1  0.90581405  0.90548672  0.30227633  1
  Zr  Zr9  1  0.10794940  0.50400421  0.70208673  1
  Zr  Zr10  1  0.70435606  0.89891838  0.89878317  1
  Zr  Zr11  1  0.90487307  0.09908917  0.90727962  1
  Zr  Zr12  1  0.48972668  0.91112285  0.29623035  1
  Zr  Zr13  1  0.70196598  0.09712155  0.89873477  1
  Zr  Zr14  1  0.90711471  0.70712482  0.29836667  1
  Zr  Zr15  1  0.49989082  0.10107230  0.09850199  1
  Zr  Zr16  1  0.30420605  0.10076071  0.88683383  1
  Zr  Zr17  1  0.90567147  0.90319038  0.10196164  1
  Zr  Zr18  1  0.70154898  0.29893728  0.30180857  1
  Zr  Zr19  1  0.10307886  0.90420815  0.69449715  1
  Zr  Zr20  1  0.09756846  0.29595996  0.69978409  1
  Zr  Zr21  1  0.69857679  0.49960289  0.30723328  1
  Zr  Zr22  1  0.89580671  0.49855095  0.50597867  1
  Zr  Zr23  1  0.49428130  0.69211395  0.90905621  1
  Zr  Zr24  1  0.71120042  0.49740673  0.10341936  1
  Zr  Zr25  1  0.70977781  0.30231677  0.89294002  1
  Zr  Zr26  1  0.10450658  0.89270289  0.88745197  1
  Zr  Zr27  1  0.29863568  0.89774560  0.70694688  1
  Zr  Zr28  1  0.50046268  0.50242613  0.70089821  1
  Zr  Zr29  1  0.90097672  0.50294800  0.90551734  1
  Zr  Zr30  1  0.50042545  0.51658688  0.09688302  1
  Zr  Zr31  1  0.49687088  0.70021004  0.70583971  1
  Zr  Zr32  1  0.29696173  0.89814653  0.29053600  1
  Zr  Zr33  1  0.49204638  0.09585591  0.48743742  1
  Zr  Zr34  1  0.11294061  0.90063875  0.10259855  1
  Zr  Zr35  1  0.09542637  0.09634129  0.50415323  1
  Zr  Zr36  1  0.69484619  0.90455265  0.70069362  1
  Zr  Zr37  1  0.29527587  0.29619970  0.90168260  1
  Zr  Zr38  1  0.90892231  0.10139472  0.10928738  1
  Zr  Zr39  1  0.49712939  0.71057695  0.09427214  1
  Zr  Zr40  1  0.69824660  0.10104333  0.11220878  1
  Zr  Zr41  1  0.50367867  0.89421833  0.69260561  1
  Zr  Zr42  1  0.50014010  0.30010445  0.49399784  1
  Zr  Zr43  1  0.29924932  0.49756612  0.69610734  1
  Zr  Zr44  1  0.70322733  0.89796478  0.30476121  1
  Zr  Zr45  1  0.70566030  0.30256979  0.10014767  1
  Zr  Zr46  1  0.29883655  0.10131494  0.08616600  1
  Zr  Zr47  1  0.50424453  0.10453652  0.29585092  1
  Zr  Zr48  1  0.90301886  0.68838834  0.09942270  1
  Zr  Zr49  1  0.29504753  0.30065774  0.49952594  1
  Sc  Sc50  1  0.69686485  0.49125899  0.70032284  1
  Sc  Sc51  1  0.09041111  0.10598286  0.29980738  1
  Sc  Sc52  1  0.30033010  0.71048581  0.09757654  1
  Sc  Sc53  1  0.09674552  0.89983123  0.50109582  1
  Sc  Sc54  1  0.28849797  0.89317931  0.50717264  1
  Sc  Sc55  1  0.51036326  0.70232743  0.50360347  1
  Sc  Sc56  1  0.09579323  0.49323135  0.89632643  1
  Sc  Sc57  1  0.49935550  0.28909738  0.90198519  1
  Sc  Sc58  1  0.09191895  0.50040970  0.09449244  1
  Sc  Sc59  1  0.89832049  0.49839098  0.09681713  1
  Sc  Sc60  1  0.09707141  0.50113312  0.29522392  1
  Sc  Sc61  1  0.09661984  0.69643355  0.10879792  1
  Sc  Sc62  1  0.09982930  0.30500467  0.89809243  1
  Sc  Sc63  1  0.30577893  0.90120764  0.10026274  1
  Sc  Sc64  1  0.48929464  0.09883787  0.90224291  1
  Sc  Sc65  1  0.28913355  0.50252809  0.09923838  1
  Sc  Sc66  1  0.90551649  0.30454106  0.89210123  1
  Sc  Sc67  1  0.69874991  0.70017461  0.89613281  1
  Sc  Sc68  1  0.70048623  0.70235792  0.31058062  1
  Sc  Sc69  1  0.29790908  0.90260086  0.90234097  1
  Sc  Sc70  1  0.29996382  0.51044852  0.29849794  1
  Sc  Sc71  1  0.10262105  0.70993345  0.50678365  1
  Sc  Sc72  1  0.10230288  0.10427235  0.89404439  1
  Sc  Sc73  1  0.90338798  0.50325833  0.69395507  1
  Sc  Sc74  1  0.29231698  0.10227912  0.49451183  1
  Sc  Sc75  1  0.90133434  0.10617440  0.68844228  1
  Sc  Sc76  1  0.09694304  0.69653898  0.70832323  1
  Sc  Sc77  1  0.70382627  0.90049341  0.10344615  1
  Sc  Sc78  1  0.90025087  0.28857634  0.31067042  1
  Sc  Sc79  1  0.50500405  0.31348950  0.68864995  1
  Sc  Sc80  1  0.29732125  0.70456722  0.29465057  1
  Sc  Sc81  1  0.49455106  0.89166934  0.89935618  1
  Sc  Sc82  1  0.90464234  0.90746982  0.89610401  1
  Sc  Sc83  1  0.50666008  0.50001019  0.50604486  1
  Sc  Sc84  1  0.90320807  0.90566762  0.70932679  1
  Sc  Sc85  1  0.49905295  0.08783135  0.70579022  1
  Sc  Sc86  1  0.30988147  0.09797006  0.30405211  1
  Sc  Sc87  1  0.10135021  0.29576634  0.49699101  1
  Sc  Sc88  1  0.90156750  0.91267708  0.49679163  1
  Sc  Sc89  1  0.90109611  0.68719479  0.71230346  1
  Sc  Sc90  1  0.70635461  0.30813027  0.49923471  1
  Sc  Sc91  1  0.69483949  0.89202445  0.50460473  1
  Sc  Sc92  1  0.69859469  0.69627869  0.70316007  1
  Sc  Sc93  1  0.09690291  0.49327801  0.50714299  1
  Sc  Sc94  1  0.89471902  0.50026026  0.29462408  1
  Sc  Sc95  1  0.70108653  0.69580496  0.49774851  1
  Sc  Sc96  1  0.09820678  0.10618519  0.09974765  1
  Sc  Sc97  1  0.10661418  0.10036912  0.69499544  1
  Sc  Sc98  1  0.10179221  0.29597515  0.30502751  1
  Sc  Sc99  1  0.29469099  0.29810088  0.69929935  1
  Nb  Nb100  1  0.10268728  0.88725301  0.30571619  1
  Nb  Nb101  1  0.89981682  0.69014240  0.51342270  1
  Nb  Nb102  1  0.90374403  0.29876881  0.50943763  1
  Nb  Nb103  1  0.69474456  0.09644905  0.69402037  1
  Nb  Nb104  1  0.30130336  0.09668046  0.69637563  1
  Nb  Nb105  1  0.10176304  0.30187121  0.10448311  1
  Nb  Nb106  1  0.49797744  0.30170495  0.30107084  1
  Nb  Nb107  1  0.29475687  0.30358908  0.09847691  1
  Nb  Nb108  1  0.90280188  0.30214872  0.09812517  1
  Nb  Nb109  1  0.09662535  0.69965426  0.89849768  1
  Nb  Nb110  1  0.50002597  0.30121337  0.09868772  1
  Nb  Nb111  1  0.29491375  0.70127161  0.49810445  1
  Nb  Nb112  1  0.89535291  0.09815758  0.30775119  1
  Nb  Nb113  1  0.88897026  0.29913936  0.68695997  1
  Nb  Nb114  1  0.70759774  0.10091657  0.30696019  1
  Nb  Nb115  1  0.50073195  0.90426306  0.10285370  1
  Nb  Nb116  1  0.49571351  0.49825883  0.90196868  1
  Nb  Nb117  1  0.49714738  0.50157275  0.29889771  1
  Nb  Nb118  1  0.90798142  0.69958553  0.90024056  1
  Nb  Nb119  1  0.70052187  0.08887963  0.50171607  1
  Nb  Nb120  1  0.70577243  0.50345038  0.50251926  1
  Nb  Nb121  1  0.09765453  0.70372701  0.30734432  1
  Nb  Nb122  1  0.50141212  0.89894255  0.49770043  1
  Nb  Nb123  1  0.69910041  0.48715752  0.90192052  1
  Nb  Nb124  1  0.70423617  0.29346058  0.69891903  1
  Nb  Nb125  1  0.40164050  0.40249702  0.80588999  1
  Nb  Nb126  1  0.19470032  -0.00706092  0.39330433  1
  Nb  Nb127  1  0.40185171  0.40410985  0.39328221  1
  Nb  Nb128  1  0.59469858  0.80359816  0.20070032  1
  Nb  Nb129  1  0.39738077  -0.00087852  0.59762884  1
  Nb  Nb130  1  0.60745180  0.19929840  0.78923063  1
  Nb  Nb131  1  0.19420169  0.60759794  -0.00638351  1
  Nb  Nb132  1  -0.00260414  0.38958796  0.19632303  1
  Nb  Nb133  1  0.39854060  0.79956509  0.40402067  1
  Nb  Nb134  1  0.40344496  0.39946650  0.19869519  1
  Nb  Nb135  1  0.60318520  0.00146201  0.39796746  1
  Nb  Nb136  1  0.80564011  0.19915249  0.00366976  1
  Nb  Nb137  1  0.60233916  0.19249177  0.60023884  1
  Nb  Nb138  1  0.39940991  0.21150228  0.19410083  1
  Nb  Nb139  1  0.80847727  0.79597905  0.60411227  1
  Nb  Nb140  1  0.19453790  0.60768794  0.40293849  1
  Nb  Nb141  1  0.00164609  0.60562122  0.40391000  1
  Nb  Nb142  1  0.59655560  0.40216242  0.00104874  1
  Nb  Nb143  1  0.40181794  0.39886580  0.00322108  1
  Nb  Nb144  1  -0.00978944  0.79770456  0.60500191  1
  Nb  Nb145  1  0.81079159  0.79704809  -0.00221822  1
  Nb  Nb146  1  0.59086579  0.40246576  0.20047760  1
  Nb  Nb147  1  0.00115367  0.79686903  -0.00335137  1
  Nb  Nb148  1  0.40345198  0.19392590  0.59919984  1
  Nb  Nb149  1  0.59810607  -0.00255057  0.00496064  1
  Pd  Pd150  1  0.60536414  0.60201044  0.60045324  1
  Pd  Pd151  1  -0.00602749  0.40163897  0.78982596  1
  Pd  Pd152  1  -0.00519760  0.19904504  0.79260720  1
  Pd  Pd153  1  0.59603249  0.40686603  0.40082844  1
  Pd  Pd154  1  0.80811633  0.60389325  0.39778774  1
  Pd  Pd155  1  0.39408225  0.59696731  0.80144484  1
  Pd  Pd156  1  0.00303692  0.39676263  0.60563922  1
  Pd  Pd157  1  0.40660236  0.60445635  0.59210671  1
  Pd  Pd158  1  0.19614436  0.00251004  -0.00996180  1
  Pd  Pd159  1  0.79619286  0.00077454  0.00645401  1
  Pd  Pd160  1  0.80540912  0.00981146  0.79143093  1
  Pd  Pd161  1  -0.00941036  0.79652914  0.41497823  1
  Pd  Pd162  1  0.61112310  0.19468360  0.40772826  1
  Pd  Pd163  1  0.00567832  0.80231259  0.19257686  1
  Pd  Pd164  1  0.20177351  0.41507462  0.39656297  1
  Pd  Pd165  1  0.59569047  0.79670067  0.80424993  1
  Pd  Pd166  1  0.19447193  0.40546588  0.20031111  1
  Pd  Pd167  1  0.81082808  0.80027720  0.41315389  1
  Pd  Pd168  1  0.79349876  0.60409257  -0.00852476  1
  Pd  Pd169  1  0.19679477  0.60469605  0.19953203  1
  Pd  Pd170  1  0.79549918  0.79516532  0.19482060  1
  Pd  Pd171  1  0.19882520  0.01111246  0.20686631  1
  Pd  Pd172  1  0.01465568  -0.00753257  -0.00293406  1
  Pd  Pd173  1  0.59137792  0.00207198  0.81214198  1
  Pd  Pd174  1  0.61072055  0.59270721  -0.00856021  1
  Pd  Pd175  1  0.80973059  0.39762741  0.40040866  1
  Pd  Pd176  1  0.80466129  0.19083598  0.80107509  1
  Pd  Pd177  1  0.79597485  0.60776618  0.20773176  1
  Pd  Pd178  1  0.80918234  0.20324415  0.20055175  1
  Pd  Pd179  1  0.80217590  0.00042390  0.20450204  1
  Pd  Pd180  1  0.00418718  0.01267148  0.79354739  1
  Pd  Pd181  1  0.39877265  0.80065446  0.59296506  1
  Pd  Pd182  1  0.80747691  0.79829347  0.79911585  1
  Pd  Pd183  1  0.80473895  -0.00859785  0.60302541  1
  Pd  Pd184  1  0.59789326  0.20799179  0.20208294  1
  Pd  Pd185  1  -0.00459327  0.40523419  0.39302544  1
  Pd  Pd186  1  0.41065573  0.21059313  0.78354554  1
  Pd  Pd187  1  0.79232336  0.19698903  0.58914738  1
  Pd  Pd188  1  0.39587530  0.60153644  0.40960423  1
  Pd  Pd189  1  0.39111226  0.60333685  0.19218870  1
  Pd  Pd190  1  0.59209456  0.39111813  0.80569581  1
  Pd  Pd191  1  0.60826790  0.19884998  -0.00757694  1
  Pd  Pd192  1  0.19114248  0.20196789  -0.00470374  1
  Pd  Pd193  1  0.81046510  0.40730738  0.79047735  1
  Pd  Pd194  1  0.60393434  0.59566067  0.80670663  1
  Pd  Pd195  1  0.60823239  0.60383219  0.20536219  1
  Pd  Pd196  1  0.00147647  0.20792010  -0.00194522  1
  Pd  Pd197  1  0.79454837  0.58960742  0.80231465  1
  Pd  Pd198  1  0.20566212  0.19156181  0.20256128  1
  Pd  Pd199  1  0.01024339  -0.00049104  0.20728155  1
  Rh  Rh200  1  -0.00271878  0.20668584  0.20406118  1
  Rh  Rh201  1  0.19372830  0.39300255  0.60362369  1
  Rh  Rh202  1  0.19653906  0.40554279  0.00256542  1
  Rh  Rh203  1  0.19893167  0.60371518  0.80629959  1
  Rh  Rh204  1  0.40110548  -0.00847773  0.79481696  1
  Rh  Rh205  1  0.40594206  -0.00579054  -0.00087363  1
  Rh  Rh206  1  0.80494910  0.39292369  0.20832819  1
  Rh  Rh207  1  0.20602341  0.00272390  0.59277326  1
  Rh  Rh208  1  0.40030642  0.79808639  0.80088556  1
  Rh  Rh209  1  0.60910690  0.81170499  0.00455176  1
  Rh  Rh210  1  0.61154259  0.39706429  0.59499981  1
  Rh  Rh211  1  0.39473728  0.39372145  0.59811919  1
  Rh  Rh212  1  0.79682253  0.20074574  0.40867609  1
  Rh  Rh213  1  0.60746122  -0.00596206  0.20479773  1
  Rh  Rh214  1  0.80243267  0.39402572  -0.00395304  1
  Rh  Rh215  1  0.61047936  0.79338339  0.60442561  1
  Rh  Rh216  1  0.19945000  0.19858250  0.79619453  1
  Rh  Rh217  1  0.20410777  0.19826120  0.60014739  1
  Rh  Rh218  1  -0.00303017  0.79857566  0.79800665  1
  Rh  Rh219  1  0.39123106  0.01462668  0.18818937  1
  Rh  Rh220  1  0.60174847  0.59260033  0.40611649  1
  Rh  Rh221  1  0.38371772  0.59695146  0.00197544  1
  Rh  Rh222  1  0.00891826  0.60472577  0.59788810  1
  Rh  Rh223  1  0.19236519  0.79538416  0.00331212  1
  Rh  Rh224  1  -0.00076366  0.20072820  0.40549696  1
  Rh  Rh225  1  0.19141202  0.79595775  0.60877860  1
  Rh  Rh226  1  0.19508248  0.18762467  0.39830668  1
  Rh  Rh227  1  0.20354410  0.39520362  0.79620367  1
  Rh  Rh228  1  0.38822406  -0.01645011  0.41173375  1
  Rh  Rh229  1  0.79693124  0.40364249  0.60153038  1
  Rh  Rh230  1  -0.00311966  -0.00397931  0.60318079  1
  Rh  Rh231  1  0.40916870  0.79521426  0.20641858  1
  Rh  Rh232  1  0.00124345  0.59087446  0.80428492  1
  Rh  Rh233  1  0.00228387  0.20321093  0.59826857  1
  Rh  Rh234  1  0.00956190  0.00016927  0.39260104  1
  Rh  Rh235  1  0.00733718  0.60260339  -0.00444080  1
  Rh  Rh236  1  0.00232708  0.39497625  0.00614669  1
  Rh  Rh237  1  0.19992886  0.79475109  0.79355482  1
  Rh  Rh238  1  -0.00213917  0.59168182  0.20934125  1
  Rh  Rh239  1  0.19227326  0.60457236  0.59300233  1
  Rh  Rh240  1  0.39129488  0.21245043  0.39729466  1
  Rh  Rh241  1  0.79370771  -0.00329518  0.40200583  1
  Rh  Rh242  1  0.20867800  0.79994548  0.39650762  1
  Rh  Rh243  1  0.58970274  0.00485005  0.58876524  1
  Rh  Rh244  1  0.79158139  0.60111651  0.60644107  1
  Rh  Rh245  1  0.58601930  0.81031227  0.38748006  1
  Rh  Rh246  1  0.19639061  0.79395860  0.19734627  1
  Rh  Rh247  1  0.39731752  0.80840136  -0.00119280  1
  Rh  Rh248  1  0.20095907  0.00468168  0.79994548  1
  Rh  Rh249  1  0.39332353  0.20688329  0.00436324  1
