# generated using pymatgen
data_ZrScNbPdRh
_symmetry_space_group_name_H-M   'P 1'
_cell_length_a   16.55837069
_cell_length_b   16.56257838
_cell_length_c   16.55986587
_cell_angle_alpha   89.98017939
_cell_angle_beta   90.03441650
_cell_angle_gamma   89.98273929
_symmetry_Int_Tables_number   1
_chemical_formula_structural   ZrScNbPdRh
_chemical_formula_sum   'Zr50 Sc50 Nb50 Pd50 Rh50'
_cell_volume   4541.53053152
_cell_formula_units_Z   50
loop_
 _symmetry_equiv_pos_site_id
 _symmetry_equiv_pos_as_xyz
  1  'x, y, z'
loop_
 _atom_site_type_symbol
 _atom_site_label
 _atom_site_symmetry_multiplicity
 _atom_site_fract_x
 _atom_site_fract_y
 _atom_site_fract_z
 _atom_site_occupancy
  Zr  Zr0  1  0.91079078  0.10533622  0.29642497  1
  Zr  Zr1  1  0.10180331  0.29337635  0.90143299  1
  Zr  Zr2  1  0.90041772  0.10906911  0.49515048  1
  Zr  Zr3  1  0.09903703  0.89553386  0.10603848  1
  Zr  Zr4  1  0.90481440  0.91089195  0.89760153  1
  Zr  Zr5  1  0.50564702  0.49367279  0.90369255  1
  Zr  Zr6  1  0.69524214  0.90072150  0.90171250  1
  Zr  Zr7  1  0.50052277  0.50026288  0.69445536  1
  Zr  Zr8  1  0.90056429  0.28404625  0.90435846  1
  Zr  Zr9  1  0.90205314  0.30082705  0.68903587  1
  Zr  Zr10  1  0.10676079  0.70221518  0.10058496  1
  Zr  Zr11  1  0.29952346  0.09667374  0.90110023  1
  Zr  Zr12  1  0.70175644  0.10625125  0.29876645  1
  Zr  Zr13  1  0.11985919  0.70202099  0.90558556  1
  Zr  Zr14  1  0.09488709  0.29533056  0.50910131  1
  Zr  Zr15  1  0.69702629  0.09694793  0.10175816  1
  Zr  Zr16  1  0.69260169  0.10272081  0.69265213  1
  Zr  Zr17  1  0.29249212  0.29222360  0.90163931  1
  Zr  Zr18  1  0.70202117  0.90299374  0.51006815  1
  Zr  Zr19  1  0.50181758  0.90410699  0.11020206  1
  Zr  Zr20  1  0.69598875  0.30258995  0.29846980  1
  Zr  Zr21  1  0.09681152  0.49141765  0.69593960  1
  Zr  Zr22  1  0.31193595  0.69867756  0.71308517  1
  Zr  Zr23  1  0.90229573  0.29721972  0.29916130  1
  Zr  Zr24  1  0.30167382  0.29791960  0.29761887  1
  Zr  Zr25  1  0.89369464  0.49667223  0.89596655  1
  Zr  Zr26  1  0.89324352  0.90200400  0.69567248  1
  Zr  Zr27  1  0.30064502  0.48969090  0.30356313  1
  Zr  Zr28  1  0.10267697  0.09362381  0.10674674  1
  Zr  Zr29  1  0.69728225  0.89583925  0.29512148  1
  Zr  Zr30  1  0.69799215  0.50760539  0.49340868  1
  Zr  Zr31  1  0.90038282  0.49827069  0.29598118  1
  Zr  Zr32  1  0.49380800  0.08898359  0.09671726  1
  Zr  Zr33  1  0.29818668  0.50131328  0.69524214  1
  Zr  Zr34  1  0.29817485  0.90424760  0.50128525  1
  Zr  Zr35  1  0.11014670  0.70191775  0.49570993  1
  Zr  Zr36  1  0.29334225  0.30626836  0.49252624  1
  Zr  Zr37  1  0.50122723  0.29748575  0.89558534  1
  Zr  Zr38  1  0.89680429  0.10447251  0.70702380  1
  Zr  Zr39  1  0.30038309  0.69055809  0.09423969  1
  Zr  Zr40  1  0.70619571  0.49669659  0.89422803  1
  Zr  Zr41  1  0.70023280  0.89999509  0.10327146  1
  Zr  Zr42  1  0.10248250  0.90165805  0.90495344  1
  Zr  Zr43  1  0.89765429  0.50036340  0.70661385  1
  Zr  Zr44  1  0.09575957  0.29906766  0.30142123  1
  Zr  Zr45  1  0.49909944  0.30334759  0.29775013  1
  Zr  Zr46  1  0.69530044  0.70244913  0.49440021  1
  Zr  Zr47  1  0.90793374  0.89957403  0.29649473  1
  Zr  Zr48  1  0.50226031  0.09992643  0.50425960  1
  Zr  Zr49  1  0.70094249  0.69420830  0.30510366  1
  Sc  Sc50  1  0.70128560  0.49442735  0.09208401  1
  Sc  Sc51  1  0.29374059  0.09651248  0.49835966  1
  Sc  Sc52  1  0.10338884  0.11024828  0.68916821  1
  Sc  Sc53  1  0.31070698  0.90276422  0.69926972  1
  Sc  Sc54  1  0.30268461  0.51159621  0.90764478  1
  Sc  Sc55  1  0.30689879  0.70013594  0.49214973  1
  Sc  Sc56  1  0.69073354  0.71586158  0.69166572  1
  Sc  Sc57  1  0.49884216  0.91287789  0.90320391  1
  Sc  Sc58  1  0.49914130  0.70920673  0.30713914  1
  Sc  Sc59  1  0.69992659  0.10672120  0.50335711  1
  Sc  Sc60  1  0.69876622  0.10795378  0.89418933  1
  Sc  Sc61  1  0.10310305  0.90222655  0.29707366  1
  Sc  Sc62  1  0.09021540  0.09904810  0.90903795  1
  Sc  Sc63  1  0.49540437  0.10688062  0.29955319  1
  Sc  Sc64  1  0.70067783  0.30486343  0.89967318  1
  Sc  Sc65  1  0.89403719  0.68981341  0.89647117  1
  Sc  Sc66  1  0.29870490  0.70125008  0.30429247  1
  Sc  Sc67  1  0.10936878  0.69517725  0.70440608  1
  Sc  Sc68  1  0.50080650  0.09812425  0.70510610  1
  Sc  Sc69  1  0.30145917  0.89454434  0.89970754  1
  Sc  Sc70  1  0.90086053  0.49367951  0.50230387  1
  Sc  Sc71  1  0.09660920  0.48810957  0.09980974  1
  Sc  Sc72  1  0.89348082  0.70415721  0.10545085  1
  Sc  Sc73  1  0.70366392  0.30161148  0.10374872  1
  Sc  Sc74  1  0.09529595  0.90720209  0.69082775  1
  Sc  Sc75  1  0.11073416  0.49359362  0.49997576  1
  Sc  Sc76  1  0.90134488  0.48985003  0.10515679  1
  Sc  Sc77  1  0.28090928  0.29067349  0.70278626  1
  Sc  Sc78  1  0.09914685  0.49523552  0.89593513  1
  Sc  Sc79  1  0.10759004  0.70809011  0.29574558  1
  Sc  Sc80  1  0.69987028  0.29481884  0.50380993  1
  Sc  Sc81  1  0.29806505  0.09835394  0.69697718  1
  Sc  Sc82  1  0.50037960  0.90378924  0.70289896  1
  Sc  Sc83  1  0.89606058  0.69421898  0.29436564  1
  Sc  Sc84  1  0.48976984  0.49734679  0.09553039  1
  Sc  Sc85  1  0.48881275  0.90084109  0.49941692  1
  Sc  Sc86  1  0.69363334  0.90881806  0.69899321  1
  Sc  Sc87  1  0.90066388  0.89896541  0.10607477  1
  Sc  Sc88  1  0.50873086  0.30104882  0.49255109  1
  Sc  Sc89  1  0.70223929  0.69489294  0.90751044  1
  Sc  Sc90  1  0.30131385  0.90693076  0.10568376  1
  Sc  Sc91  1  0.69542000  0.30214377  0.69613881  1
  Sc  Sc92  1  0.90601795  0.90638029  0.51108982  1
  Sc  Sc93  1  0.29766782  0.50165473  0.49268121  1
  Sc  Sc94  1  0.49806874  0.09643248  0.89497057  1
  Sc  Sc95  1  0.09556233  0.29736202  0.70175360  1
  Sc  Sc96  1  0.49968264  0.49525423  0.30031320  1
  Sc  Sc97  1  0.30672395  0.89281979  0.30600110  1
  Sc  Sc98  1  0.50213828  0.50249296  0.49784542  1
  Sc  Sc99  1  0.49431678  0.69069392  0.89557973  1
  Nb  Nb100  1  0.89903053  0.10184666  0.90597962  1
  Nb  Nb101  1  0.89838037  0.29815675  0.49416708  1
  Nb  Nb102  1  0.69730407  0.70450496  0.10223674  1
  Nb  Nb103  1  0.49784972  0.30472376  0.09474238  1
  Nb  Nb104  1  0.10076369  0.29801074  0.09333980  1
  Nb  Nb105  1  0.30106287  0.70268005  0.90492227  1
  Nb  Nb106  1  0.89836873  0.70158756  0.50310691  1
  Nb  Nb107  1  0.90193507  0.70376822  0.69669490  1
  Nb  Nb108  1  0.49940423  0.29944139  0.69772718  1
  Nb  Nb109  1  0.29575119  0.30381648  0.10158035  1
  Nb  Nb110  1  0.50681775  0.69827507  0.50028182  1
  Nb  Nb111  1  0.90843247  0.29267584  0.10251468  1
  Nb  Nb112  1  0.30104579  0.49745168  0.10575113  1
  Nb  Nb113  1  0.70429071  0.50243275  0.29885555  1
  Nb  Nb114  1  0.29252212  0.11010218  0.29296652  1
  Nb  Nb115  1  0.09640026  0.09783344  0.30587319  1
  Nb  Nb116  1  0.29930847  0.10735631  0.10339519  1
  Nb  Nb117  1  0.49866760  0.69585102  0.10129191  1
  Nb  Nb118  1  0.09931435  0.08786839  0.49398644  1
  Nb  Nb119  1  0.09547622  0.50199900  0.29895336  1
  Nb  Nb120  1  0.49771219  0.69478321  0.69771115  1
  Nb  Nb121  1  0.50270733  0.90168673  0.30559375  1
  Nb  Nb122  1  0.90228001  0.10798662  0.09251057  1
  Nb  Nb123  1  0.70318003  0.49661851  0.69788439  1
  Nb  Nb124  1  0.10340296  0.90692707  0.49782194  1
  Nb  Nb125  1  0.59281856  0.79492153  0.00796897  1
  Nb  Nb126  1  -0.00191558  0.79807523  0.80069329  1
  Nb  Nb127  1  0.19687933  0.00003798  0.80045670  1
  Nb  Nb128  1  0.39647937  0.20222400  0.00887138  1
  Nb  Nb129  1  0.80238902  0.60430466  0.60348796  1
  Nb  Nb130  1  0.39991490  0.20847977  0.60029440  1
  Nb  Nb131  1  -0.00229834  0.60404702  0.59817059  1
  Nb  Nb132  1  0.60183236  0.60300978  0.19643372  1
  Nb  Nb133  1  0.39831164  0.39635560  0.79492347  1
  Nb  Nb134  1  0.79935040  0.39912503  0.39574929  1
  Nb  Nb135  1  -0.00133208  0.79827298  0.40692353  1
  Nb  Nb136  1  0.80530404  0.80360060  0.40453798  1
  Nb  Nb137  1  0.00198691  0.60372144  0.40378603  1
  Nb  Nb138  1  0.80037435  -0.00149539  0.39790080  1
  Nb  Nb139  1  0.00000653  0.79517806  -0.00658542  1
  Nb  Nb140  1  0.20450452  0.80253123  0.59777280  1
  Nb  Nb141  1  0.39972338  0.39236900  0.60393266  1
  Nb  Nb142  1  0.59140515  0.20264893  0.00413741  1
  Nb  Nb143  1  0.60073122  0.59789274  0.79051648  1
  Nb  Nb144  1  0.40439965  0.79456759  0.00460852  1
  Nb  Nb145  1  0.60250878  -0.00245734  0.39734009  1
  Nb  Nb146  1  0.80456970  0.00810498  -0.00049361  1
  Nb  Nb147  1  0.80455518  0.80215507  0.79735566  1
  Nb  Nb148  1  0.00160795  0.60305470  -0.00032338  1
  Nb  Nb149  1  0.20408886  0.58940352  0.19889834  1
  Pd  Pd150  1  0.20567413  -0.00070321  0.38736506  1
  Pd  Pd151  1  0.39736497  0.79713982  0.19823699  1
  Pd  Pd152  1  0.40610676  0.59963308  0.39556416  1
  Pd  Pd153  1  0.40177514  0.59831442  0.20933636  1
  Pd  Pd154  1  0.20209045  0.59196969  0.80191696  1
  Pd  Pd155  1  0.20695048  -0.00275844  0.20985600  1
  Pd  Pd156  1  0.19656876  0.81216166  0.78690638  1
  Pd  Pd157  1  0.01294003  0.79383136  0.60154046  1
  Pd  Pd158  1  0.60739736  0.59970610  0.60461098  1
  Pd  Pd159  1  0.80572271  0.38978399  0.00279443  1
  Pd  Pd160  1  0.39690693  0.20168722  0.79499146  1
  Pd  Pd161  1  0.40414604  0.20466253  0.19409682  1
  Pd  Pd162  1  0.80891719  0.00424836  0.19947088  1
  Pd  Pd163  1  0.59027594  0.19891856  0.19189034  1
  Pd  Pd164  1  0.19164555  0.20474331  0.19863110  1
  Pd  Pd165  1  0.00847266  0.60518168  0.19803538  1
  Pd  Pd166  1  0.80279711  0.80601180  -0.00691652  1
  Pd  Pd167  1  0.79089166  0.00075856  0.80376177  1
  Pd  Pd168  1  0.20727223  0.40495895  0.80356911  1
  Pd  Pd169  1  -0.00018654  0.40560540  0.40501753  1
  Pd  Pd170  1  0.79253421  0.59456041  0.18907519  1
  Pd  Pd171  1  0.20446499  0.40602762  -0.00237100  1
  Pd  Pd172  1  0.80222280  0.20351574  0.19558647  1
  Pd  Pd173  1  0.39287429  0.00276524  0.21313136  1
  Pd  Pd174  1  0.40015616  0.00838539  0.39300314  1
  Pd  Pd175  1  0.38951384  0.39481168  -0.00723521  1
  Pd  Pd176  1  0.78495938  0.61423977  0.78668803  1
  Pd  Pd177  1  0.79395345  0.20679788  0.79445410  1
  Pd  Pd178  1  -0.00550323  0.38885518  0.80557911  1
  Pd  Pd179  1  0.59888613  0.60101882  0.00025646  1
  Pd  Pd180  1  0.59598260  0.79234952  0.20015476  1
  Pd  Pd181  1  0.20517606  -0.00186017  -0.00051942  1
  Pd  Pd182  1  0.58594640  0.80844860  0.59627485  1
  Pd  Pd183  1  0.59714277  0.41148335  0.19185456  1
  Pd  Pd184  1  0.19397898  0.40002092  0.20304901  1
  Pd  Pd185  1  0.59730922  0.79267214  0.81000867  1
  Pd  Pd186  1  0.41201999  0.80473111  0.80981670  1
  Pd  Pd187  1  0.00728130  0.60696959  0.80243931  1
  Pd  Pd188  1  -0.00588736  0.40210941  -0.00484286  1
  Pd  Pd189  1  0.80781674  0.59641610  0.01073032  1
  Pd  Pd190  1  0.40015992  0.79498739  0.59778232  1
  Pd  Pd191  1  0.39611324  0.59767820  0.58987711  1
  Pd  Pd192  1  0.00902748  0.00591366  0.79312386  1
  Pd  Pd193  1  0.79538667  0.40355061  0.59142425  1
  Pd  Pd194  1  0.19390091  0.19789173  0.40322536  1
  Pd  Pd195  1  0.59934709  0.40205311  0.79419531  1
  Pd  Pd196  1  0.20300515  0.60698794  0.59947124  1
  Pd  Pd197  1  0.60600532  0.40164642  0.40175292  1
  Pd  Pd198  1  0.39820688  0.19768222  0.40678463  1
  Pd  Pd199  1  -0.00264697  0.01151632  0.60269495  1
  Rh  Rh200  1  0.80433795  0.38934575  0.79769324  1
  Rh  Rh201  1  0.19200300  0.58612485  0.00948071  1
  Rh  Rh202  1  0.40046502  0.39606460  0.19843226  1
  Rh  Rh203  1  0.40281039  0.60115488  -0.00124781  1
  Rh  Rh204  1  0.20475232  0.39622567  0.60287487  1
  Rh  Rh205  1  0.79692354  0.20457887  0.39852483  1
  Rh  Rh206  1  -0.00068344  0.40354852  0.59648482  1
  Rh  Rh207  1  0.60527451  0.39296479  0.00501755  1
  Rh  Rh208  1  0.40477107  0.59209556  0.80434265  1
  Rh  Rh209  1  0.00147026  0.19702971  0.79994580  1
  Rh  Rh210  1  0.20163356  -0.00551731  0.60580286  1
  Rh  Rh211  1  0.19509047  0.59442196  0.38649065  1
  Rh  Rh212  1  0.00360531  0.39005905  0.19659039  1
  Rh  Rh213  1  0.39182402  -0.00136101  0.00114088  1
  Rh  Rh214  1  0.20078097  0.19545237  0.00678660  1
  Rh  Rh215  1  0.39179967  -0.00047041  0.80018761  1
  Rh  Rh216  1  0.80020055  0.79730295  0.20833682  1
  Rh  Rh217  1  -0.00232492  0.19554699  0.59470080  1
  Rh  Rh218  1  0.20940207  0.80913807  0.00873474  1
  Rh  Rh219  1  0.58994179  0.59923275  0.38806019  1
  Rh  Rh220  1  0.40107883  0.01245941  0.60250963  1
  Rh  Rh221  1  0.80334407  0.39588496  0.20399683  1
  Rh  Rh222  1  0.18803413  0.18521887  0.80640961  1
  Rh  Rh223  1  -0.00723098  -0.00519847  0.01275172  1
  Rh  Rh224  1  0.40513550  0.79767616  0.40583202  1
  Rh  Rh225  1  0.60991649  0.00457319  -0.00482561  1
  Rh  Rh226  1  0.00916264  0.19923119  0.19302737  1
  Rh  Rh227  1  0.79665582  0.79722969  0.60087230  1
  Rh  Rh228  1  0.60063657  0.80974268  0.40779521  1
  Rh  Rh229  1  0.59763032  0.40032970  0.59595539  1
  Rh  Rh230  1  0.60254634  0.19389397  0.39937956  1
  Rh  Rh231  1  -0.00353080  -0.00599485  0.40091222  1
  Rh  Rh232  1  0.81201585  0.59557386  0.40743537  1
  Rh  Rh233  1  0.80174419  0.20072378  0.60175284  1
  Rh  Rh234  1  -0.00066730  0.00580867  0.19720503  1
  Rh  Rh235  1  -0.00128146  0.79394288  0.20200644  1
  Rh  Rh236  1  0.19722066  0.81006840  0.40563524  1
  Rh  Rh237  1  0.80309816  0.01385422  0.59505032  1
  Rh  Rh238  1  0.40416850  0.39955865  0.40732389  1
  Rh  Rh239  1  0.59217951  0.20250214  0.60176665  1
  Rh  Rh240  1  0.60206958  0.00506243  0.79987984  1
  Rh  Rh241  1  0.79020546  0.19768247  0.00563917  1
  Rh  Rh242  1  0.21142997  0.79573287  0.19837832  1
  Rh  Rh243  1  0.00791533  0.19853922  0.00602126  1
  Rh  Rh244  1  0.19183440  0.39809645  0.39431116  1
  Rh  Rh245  1  0.20267998  0.19694197  0.58905923  1
  Rh  Rh246  1  0.59266678  0.00534748  0.21317341  1
  Rh  Rh247  1  0.60154591  0.20180948  0.80253836  1
  Rh  Rh248  1  0.59253159  -0.00293862  0.59437934  1
  Rh  Rh249  1  0.00965554  0.19813267  0.40565844  1
