# generated using pymatgen
data_ZrScNbPdRh
_symmetry_space_group_name_H-M   'P 1'
_cell_length_a   16.56061816
_cell_length_b   16.56425907
_cell_length_c   16.56427719
_cell_angle_alpha   90.01574404
_cell_angle_beta   90.00931755
_cell_angle_gamma   90.01503393
_symmetry_Int_Tables_number   1
_chemical_formula_structural   ZrScNbPdRh
_chemical_formula_sum   'Zr50 Sc50 Nb50 Pd50 Rh50'
_cell_volume   4543.81886753
_cell_formula_units_Z   50
loop_
 _symmetry_equiv_pos_site_id
 _symmetry_equiv_pos_as_xyz
  1  'x, y, z'
loop_
 _atom_site_type_symbol
 _atom_site_label
 _atom_site_symmetry_multiplicity
 _atom_site_fract_x
 _atom_site_fract_y
 _atom_site_fract_z
 _atom_site_occupancy
  Zr  Zr0  1  0.49727119  0.69768656  0.09748864  1
  Zr  Zr1  1  0.50093604  0.50271117  0.70056629  1
  Zr  Zr2  1  0.70128142  0.70253411  0.68549585  1
  Zr  Zr3  1  0.70784283  0.29769494  0.09871524  1
  Zr  Zr4  1  0.10510475  0.89981106  0.09389372  1
  Zr  Zr5  1  0.69938039  0.49832593  0.89564310  1
  Zr  Zr6  1  0.89696557  0.51420043  0.90414350  1
  Zr  Zr7  1  0.29924536  0.70365425  0.09320435  1
  Zr  Zr8  1  0.10229831  0.70684013  0.50286780  1
  Zr  Zr9  1  0.51151282  0.69647264  0.29102629  1
  Zr  Zr10  1  0.10542562  0.50464128  0.49747989  1
  Zr  Zr11  1  0.69857696  0.49388082  0.09662582  1
  Zr  Zr12  1  0.90022874  0.70267197  0.69565880  1
  Zr  Zr13  1  0.49920527  0.30446390  0.29543766  1
  Zr  Zr14  1  0.89665260  0.50641160  0.69771207  1
  Zr  Zr15  1  0.50755708  0.69957386  0.50746402  1
  Zr  Zr16  1  0.09594350  0.89998390  0.89692678  1
  Zr  Zr17  1  0.29987272  0.50004441  0.49454006  1
  Zr  Zr18  1  0.69988855  0.09922726  0.51213885  1
  Zr  Zr19  1  0.30017184  0.29883009  0.30357441  1
  Zr  Zr20  1  0.90100775  0.29435577  0.29554185  1
  Zr  Zr21  1  0.30480469  0.09511607  0.28740325  1
  Zr  Zr22  1  0.10723473  0.90503795  0.29748384  1
  Zr  Zr23  1  0.09769869  0.30067814  0.89561376  1
  Zr  Zr24  1  0.89955477  0.69620634  0.09535965  1
  Zr  Zr25  1  0.50320232  0.09795699  0.51349086  1
  Zr  Zr26  1  0.90759351  0.09599892  0.30524437  1
  Zr  Zr27  1  0.30251513  0.69782661  0.90175924  1
  Zr  Zr28  1  0.89078947  0.09868325  0.69711375  1
  Zr  Zr29  1  0.29981927  0.90142217  0.30540560  1
  Zr  Zr30  1  0.30966262  0.09980872  0.70147974  1
  Zr  Zr31  1  0.89956642  0.90257447  0.09901787  1
  Zr  Zr32  1  0.89107146  0.90545602  0.89402860  1
  Zr  Zr33  1  0.88938477  0.10391170  0.10846230  1
  Zr  Zr34  1  0.30089742  0.49945970  0.69629130  1
  Zr  Zr35  1  0.69471991  0.49934418  0.29719884  1
  Zr  Zr36  1  0.51225853  0.29451161  0.09495831  1
  Zr  Zr37  1  0.70150758  0.90250012  0.09186544  1
  Zr  Zr38  1  0.09514544  0.70410857  0.90279170  1
  Zr  Zr39  1  0.30524337  0.50632881  0.09215495  1
  Zr  Zr40  1  0.28788562  0.69780566  0.49813888  1
  Zr  Zr41  1  0.09770962  0.29368925  0.50192169  1
  Zr  Zr42  1  0.88860933  0.70132990  0.50000393  1
  Zr  Zr43  1  0.70905195  0.69748811  0.90268919  1
  Zr  Zr44  1  0.49775518  0.10247521  0.10950092  1
  Zr  Zr45  1  0.89896790  0.69462805  0.30243230  1
  Zr  Zr46  1  0.29344450  0.90109930  0.10867212  1
  Zr  Zr47  1  0.70413494  0.09670538  0.29630851  1
  Zr  Zr48  1  0.10957694  0.10126500  0.69829360  1
  Zr  Zr49  1  0.88788590  0.29564102  0.90308223  1
  Sc  Sc50  1  0.90671349  0.49925387  0.10168848  1
  Sc  Sc51  1  0.10023720  0.69563514  0.30551188  1
  Sc  Sc52  1  0.29698501  0.09307969  0.50986456  1
  Sc  Sc53  1  0.50528656  0.49539503  0.88855319  1
  Sc  Sc54  1  0.09344488  0.89944981  0.69809606  1
  Sc  Sc55  1  0.69674453  0.30514289  0.29123507  1
  Sc  Sc56  1  0.49365065  0.09983830  0.90208805  1
  Sc  Sc57  1  0.30267279  0.30684094  0.49630245  1
  Sc  Sc58  1  0.91123351  0.28995351  0.51168982  1
  Sc  Sc59  1  0.29780511  0.90406749  0.70323163  1
  Sc  Sc60  1  0.29999622  0.09530707  0.09947857  1
  Sc  Sc61  1  0.29951176  0.09601674  0.89887666  1
  Sc  Sc62  1  0.29483358  0.29317576  0.69879644  1
  Sc  Sc63  1  0.69651707  0.30560780  0.90486772  1
  Sc  Sc64  1  0.09237575  0.09835699  0.50357668  1
  Sc  Sc65  1  0.89701484  0.90443365  0.30660360  1
  Sc  Sc66  1  0.30068393  0.90125422  0.90127628  1
  Sc  Sc67  1  0.30462042  0.49883784  0.89412230  1
  Sc  Sc68  1  0.69673391  0.10014476  0.10122890  1
  Sc  Sc69  1  0.09740772  0.70804977  0.69614463  1
  Sc  Sc70  1  0.69463089  0.50667762  0.50705275  1
  Sc  Sc71  1  0.50016083  0.90722627  0.89758617  1
  Sc  Sc72  1  0.49735237  0.30327153  0.69647942  1
  Sc  Sc73  1  0.70351235  0.89519482  0.50897036  1
  Sc  Sc74  1  0.09142970  0.50082328  0.69385907  1
  Sc  Sc75  1  0.70665134  0.69663062  0.30071844  1
  Sc  Sc76  1  0.09981326  0.49987327  0.29849120  1
  Sc  Sc77  1  0.09978441  0.29374488  0.69547012  1
  Sc  Sc78  1  0.50086179  0.91186340  0.69764272  1
  Sc  Sc79  1  0.29445355  0.70549004  0.30346929  1
  Sc  Sc80  1  0.50851162  0.89999425  0.09751778  1
  Sc  Sc81  1  0.29950907  0.29101146  0.11373512  1
  Sc  Sc82  1  0.29938815  0.69841430  0.70167699  1
  Sc  Sc83  1  0.90485037  0.90008578  0.50006775  1
  Sc  Sc84  1  0.71036512  0.09446368  0.89754374  1
  Sc  Sc85  1  0.29826288  0.29227909  0.88713886  1
  Sc  Sc86  1  0.49831352  0.50420104  0.10693737  1
  Sc  Sc87  1  0.50069426  0.69920626  0.70007313  1
  Sc  Sc88  1  0.69231725  0.29911781  0.50977725  1
  Sc  Sc89  1  0.49783141  0.30601868  0.50320620  1
  Sc  Sc90  1  0.70176796  0.89682358  0.29747821  1
  Sc  Sc91  1  0.50090614  0.49489516  0.50662733  1
  Sc  Sc92  1  0.10282722  0.30207766  0.29150595  1
  Sc  Sc93  1  0.10229425  0.70511968  0.09092438  1
  Sc  Sc94  1  0.49892203  0.90667621  0.49987830  1
  Sc  Sc95  1  0.30178481  0.48838078  0.29959778  1
  Sc  Sc96  1  0.49201050  0.70065727  0.89649666  1
  Sc  Sc97  1  0.69563753  0.70866945  0.10896301  1
  Sc  Sc98  1  0.90501834  0.70382087  0.89802083  1
  Sc  Sc99  1  0.49900899  0.90920060  0.30398729  1
  Nb  Nb100  1  0.29666567  0.88970875  0.49675031  1
  Nb  Nb101  1  0.69759477  0.70707312  0.50384993  1
  Nb  Nb102  1  0.70745739  0.29492950  0.70849226  1
  Nb  Nb103  1  0.50227641  0.50163183  0.30155792  1
  Nb  Nb104  1  0.50421355  0.29995130  0.90332538  1
  Nb  Nb105  1  0.09315159  0.49698996  0.90360475  1
  Nb  Nb106  1  0.09255147  0.30401969  0.09645329  1
  Nb  Nb107  1  0.90156784  0.49565134  0.50549627  1
  Nb  Nb108  1  0.89750293  0.50318782  0.31012320  1
  Nb  Nb109  1  0.90006934  0.10062412  0.90238772  1
  Nb  Nb110  1  0.09726830  0.10044362  0.90205625  1
  Nb  Nb111  1  0.09834416  0.49346868  0.09228729  1
  Nb  Nb112  1  0.69049144  0.10002102  0.69857841  1
  Nb  Nb113  1  0.50623048  0.09773668  0.69891432  1
  Nb  Nb114  1  0.70257085  0.90635545  0.70590894  1
  Nb  Nb115  1  0.10279697  0.10197732  0.30016685  1
  Nb  Nb116  1  0.90042442  0.10389144  0.49381679  1
  Nb  Nb117  1  0.90404286  0.29778766  0.09980442  1
  Nb  Nb118  1  0.90153685  0.29901231  0.70450484  1
  Nb  Nb119  1  0.69889470  0.49882465  0.70769332  1
  Nb  Nb120  1  0.10963757  0.89229888  0.50414436  1
  Nb  Nb121  1  0.50315659  0.10067026  0.30399167  1
  Nb  Nb122  1  0.69865408  0.90225044  0.89532410  1
  Nb  Nb123  1  0.10023825  0.10026030  0.10110670  1
  Nb  Nb124  1  0.89650628  0.89661477  0.70142067  1
  Nb  Nb125  1  -0.00818278  0.40234389  0.40252185  1
  Nb  Nb126  1  -0.00209329  0.19905075  0.00286832  1
  Nb  Nb127  1  0.40036448  0.80026575  0.20087689  1
  Nb  Nb128  1  -0.00787917  0.39758921  0.80085325  1
  Nb  Nb129  1  0.40328045  0.19360063  0.39747201  1
  Nb  Nb130  1  0.39451318  0.80285720  0.59275342  1
  Nb  Nb131  1  0.80340604  0.39831128  0.60631536  1
  Nb  Nb132  1  0.60251090  0.79583591  0.40428144  1
  Nb  Nb133  1  0.19732650  0.40237067  0.59675963  1
  Nb  Nb134  1  -0.00571853  0.19646499  0.80381559  1
  Nb  Nb135  1  0.60108284  0.19802856  0.79538050  1
  Nb  Nb136  1  0.20271752  0.19470024  0.39479116  1
  Nb  Nb137  1  0.59854235  0.19536964  0.39912663  1
  Nb  Nb138  1  0.40035888  0.39090112  -0.00309332  1
  Nb  Nb139  1  -0.00166548  0.00928679  -0.00174920  1
  Nb  Nb140  1  0.80611511  0.39878473  0.40807193  1
  Nb  Nb141  1  0.40733562  0.59916163  0.39684528  1
  Nb  Nb142  1  0.60909382  0.80791502  0.79821893  1
  Nb  Nb143  1  0.79948773  0.20120947  0.40412382  1
  Nb  Nb144  1  0.20071385  0.59597934  0.19005740  1
  Nb  Nb145  1  0.19266113  0.59739205  0.80424045  1
  Nb  Nb146  1  0.19878962  0.39569612  0.00050747  1
  Nb  Nb147  1  0.60136461  0.60028534  -0.00171300  1
  Nb  Nb148  1  0.18932168  0.20116152  0.00311093  1
  Nb  Nb149  1  -0.00001968  0.80020873  0.20049085  1
  Pd  Pd150  1  0.39805653  0.60672231  0.59410023  1
  Pd  Pd151  1  0.20003942  0.79499743  0.79839899  1
  Pd  Pd152  1  0.80392165  -0.00604594  0.59837931  1
  Pd  Pd153  1  0.79784309  0.79478244  0.79676418  1
  Pd  Pd154  1  -0.00030168  0.59869397  0.40857033  1
  Pd  Pd155  1  0.00570928  0.59892193  0.79799736  1
  Pd  Pd156  1  0.59986790  0.00955886  -0.00614676  1
  Pd  Pd157  1  0.38822070  0.20472176  0.00041836  1
  Pd  Pd158  1  0.59988680  0.60228545  0.40412998  1
  Pd  Pd159  1  0.41036295  0.19938131  0.79898071  1
  Pd  Pd160  1  -0.00199575  -0.00071764  0.59894550  1
  Pd  Pd161  1  0.39983074  -0.00326088  0.00516242  1
  Pd  Pd162  1  0.39821155  0.20544982  0.59459717  1
  Pd  Pd163  1  0.79455946  0.00155667  0.40678391  1
  Pd  Pd164  1  0.80079540  0.20522703  0.59751059  1
  Pd  Pd165  1  0.40387950  0.39753206  0.19083895  1
  Pd  Pd166  1  0.01073368  0.60402697  0.19383758  1
  Pd  Pd167  1  -0.00341743  0.00469052  0.79824075  1
  Pd  Pd168  1  0.40938895  0.80780271  0.78938728  1
  Pd  Pd169  1  0.20152324  -0.00729302  0.59965980  1
  Pd  Pd170  1  0.80943270  0.40458686  0.20365982  1
  Pd  Pd171  1  0.79746508  0.59481062  0.19532970  1
  Pd  Pd172  1  0.20119515  0.40558048  0.19044514  1
  Pd  Pd173  1  0.38938655  0.60667047  0.21150609  1
  Pd  Pd174  1  0.00239951  -0.00408041  0.19584158  1
  Pd  Pd175  1  0.60247386  0.61285636  0.80175379  1
  Pd  Pd176  1  0.40197849  0.81208954  0.00417038  1
  Pd  Pd177  1  0.41226437  0.79167654  0.39963601  1
  Pd  Pd178  1  0.00999163  -0.00681277  0.40730268  1
  Pd  Pd179  1  0.60551717  0.39455446  0.40253513  1
  Pd  Pd180  1  0.18994726  0.40826272  0.79399177  1
  Pd  Pd181  1  0.80781565  0.80362548  0.20459230  1
  Pd  Pd182  1  0.00108156  0.60814003  0.59298610  1
  Pd  Pd183  1  0.40184530  0.39357282  0.80056259  1
  Pd  Pd184  1  0.60860311  0.18967172  -0.01138202  1
  Pd  Pd185  1  0.39595425  0.00757487  0.40801468  1
  Pd  Pd186  1  0.19881622  0.00784123  0.40652655  1
  Pd  Pd187  1  0.80403092  0.40387098  0.79883035  1
  Pd  Pd188  1  0.59733103  0.79404572  -0.01236613  1
  Pd  Pd189  1  0.79184132  0.59397919  0.40880230  1
  Pd  Pd190  1  0.60859698  -0.00272891  0.40631964  1
  Pd  Pd191  1  0.60720019  0.39930023  0.61019042  1
  Pd  Pd192  1  0.20246962  0.00024836  0.80277889  1
  Pd  Pd193  1  0.00579111  0.19838396  0.19852240  1
  Pd  Pd194  1  0.00322429  0.80441631  0.39514100  1
  Pd  Pd195  1  0.80851607  0.40537622  0.00276128  1
  Pd  Pd196  1  0.60057056  -0.00462195  0.20010409  1
  Pd  Pd197  1  0.80267117  0.80028506  -0.00081916  1
  Pd  Pd198  1  -0.00563503  0.40643090  0.20726608  1
  Pd  Pd199  1  0.19452173  0.59314252  -0.00510511  1
  Rh  Rh200  1  0.40573086  0.20018228  0.20338026  1
  Rh  Rh201  1  -0.00443587  0.39599742  -0.00616630  1
  Rh  Rh202  1  0.79529356  0.20200692  0.20545835  1
  Rh  Rh203  1  0.60312235  0.59450760  0.60592889  1
  Rh  Rh204  1  -0.00352479  0.80512991  0.59699029  1
  Rh  Rh205  1  0.19700961  0.78985793  0.20278901  1
  Rh  Rh206  1  0.60071842  0.00394605  0.80326217  1
  Rh  Rh207  1  0.19581827  0.00400160  -0.00261011  1
  Rh  Rh208  1  0.79766034  0.60742564  0.79314328  1
  Rh  Rh209  1  0.18567652  0.39082703  0.40558974  1
  Rh  Rh210  1  0.60847622  0.59547212  0.19180596  1
  Rh  Rh211  1  0.79517776  -0.00479727  0.19949120  1
  Rh  Rh212  1  0.40099310  0.00200881  0.79912610  1
  Rh  Rh213  1  0.39030556  0.39794346  0.60303822  1
  Rh  Rh214  1  0.20401039  0.80643315  -0.01015033  1
  Rh  Rh215  1  0.00310030  0.20332756  0.39346525  1
  Rh  Rh216  1  0.79766809  0.19747347  0.00358305  1
  Rh  Rh217  1  0.79334205  0.79973657  0.40114087  1
  Rh  Rh218  1  0.00229996  0.60214341  0.00437814  1
  Rh  Rh219  1  -0.00193961  0.18792338  0.61187814  1
  Rh  Rh220  1  0.20753727  0.20697127  0.58866187  1
  Rh  Rh221  1  0.39294164  0.59969310  0.79897213  1
  Rh  Rh222  1  0.60029123  0.38684630  0.79439944  1
  Rh  Rh223  1  0.00132319  0.39756747  0.60177250  1
  Rh  Rh224  1  0.59662171  0.20670095  0.60569940  1
  Rh  Rh225  1  0.19737278  0.19012456  0.80405457  1
  Rh  Rh226  1  0.59442665  0.80926232  0.20899382  1
  Rh  Rh227  1  0.59231344  0.80935658  0.60284517  1
  Rh  Rh228  1  0.19329803  0.19528499  0.19888474  1
  Rh  Rh229  1  0.41542698  0.58553048  -0.01363172  1
  Rh  Rh230  1  0.19659694  0.00640592  0.19740067  1
  Rh  Rh231  1  0.79413668  0.59384067  0.59847632  1
  Rh  Rh232  1  0.80153391  0.00157921  0.00272559  1
  Rh  Rh233  1  -0.00463949  0.80378816  0.79623583  1
  Rh  Rh234  1  0.59009744  0.40942568  0.00132263  1
  Rh  Rh235  1  0.79238141  0.60044020  0.00962925  1
  Rh  Rh236  1  0.21001350  0.59369137  0.38327215  1
  Rh  Rh237  1  0.40786484  -0.00832078  0.19563556  1
  Rh  Rh238  1  0.41252257  0.40370492  0.40061617  1
  Rh  Rh239  1  0.79836800  0.00440054  0.79522043  1
  Rh  Rh240  1  0.59478410  0.40201025  0.19416591  1
  Rh  Rh241  1  0.60511076  -0.00852819  0.60144605  1
  Rh  Rh242  1  0.19502937  0.59541942  0.61295718  1
  Rh  Rh243  1  0.60431361  0.19957573  0.20598427  1
  Rh  Rh244  1  -0.00700746  0.80881602  0.00255758  1
  Rh  Rh245  1  0.20673296  0.80461653  0.60818773  1
  Rh  Rh246  1  0.19124778  0.80214073  0.39470585  1
  Rh  Rh247  1  0.79618914  0.19283637  0.79927076  1
  Rh  Rh248  1  0.39249269  -0.00980312  0.59970587  1
  Rh  Rh249  1  0.80508713  0.80831663  0.60072936  1
