# generated using pymatgen
data_ZrScNbPdRh
_symmetry_space_group_name_H-M   'P 1'
_cell_length_a   16.56758628
_cell_length_b   16.55580444
_cell_length_c   16.56639082
_cell_angle_alpha   89.99573202
_cell_angle_beta   90.07770356
_cell_angle_gamma   89.99716633
_symmetry_Int_Tables_number   1
_chemical_formula_structural   ZrScNbPdRh
_chemical_formula_sum   'Zr50 Sc50 Nb50 Pd50 Rh50'
_cell_volume   4543.98647669
_cell_formula_units_Z   50
loop_
 _symmetry_equiv_pos_site_id
 _symmetry_equiv_pos_as_xyz
  1  'x, y, z'
loop_
 _atom_site_type_symbol
 _atom_site_label
 _atom_site_symmetry_multiplicity
 _atom_site_fract_x
 _atom_site_fract_y
 _atom_site_fract_z
 _atom_site_occupancy
  Zr  Zr0  1  0.50167378  0.50402945  0.90106025  1
  Zr  Zr1  1  0.49931187  0.09989136  0.89490082  1
  Zr  Zr2  1  0.10191819  0.09484178  0.50332642  1
  Zr  Zr3  1  0.50395537  0.90201971  0.50111462  1
  Zr  Zr4  1  0.90265831  0.89796873  0.09853497  1
  Zr  Zr5  1  0.10330986  0.49954601  0.11238221  1
  Zr  Zr6  1  0.89750256  0.90188423  0.49411825  1
  Zr  Zr7  1  0.29334445  0.10042965  0.69866372  1
  Zr  Zr8  1  0.70242090  0.50516113  0.89441998  1
  Zr  Zr9  1  0.49592618  0.69826603  0.71203371  1
  Zr  Zr10  1  0.09747250  0.89943531  0.68814440  1
  Zr  Zr11  1  0.10037846  0.29978752  0.89563296  1
  Zr  Zr12  1  0.10050665  0.70397020  0.70180673  1
  Zr  Zr13  1  0.10534037  0.91230090  0.29838969  1
  Zr  Zr14  1  0.49902451  0.29999994  0.30755041  1
  Zr  Zr15  1  0.90113706  0.49602211  0.89007902  1
  Zr  Zr16  1  0.89231277  0.90082566  0.89850662  1
  Zr  Zr17  1  0.90046127  0.09728028  0.70097086  1
  Zr  Zr18  1  0.50533285  0.50596262  0.10093428  1
  Zr  Zr19  1  0.49882434  0.69684326  0.90945207  1
  Zr  Zr20  1  0.70730967  0.09901752  0.29745465  1
  Zr  Zr21  1  0.09031265  0.50291512  0.70245888  1
  Zr  Zr22  1  0.69743120  0.89843120  0.69611624  1
  Zr  Zr23  1  0.49767297  0.29254303  0.50037858  1
  Zr  Zr24  1  0.30768810  0.70481181  0.89627819  1
  Zr  Zr25  1  0.10571214  0.69000287  0.28319388  1
  Zr  Zr26  1  0.50480691  0.09578437  0.30058322  1
  Zr  Zr27  1  0.89306645  0.50099524  0.70100525  1
  Zr  Zr28  1  0.30354201  0.89345114  0.29631476  1
  Zr  Zr29  1  0.70330336  0.09436337  0.90753571  1
  Zr  Zr30  1  0.50448155  0.29300507  0.69997264  1
  Zr  Zr31  1  0.30374540  0.10011068  0.89436466  1
  Zr  Zr32  1  0.49797054  0.90068040  0.10588861  1
  Zr  Zr33  1  0.50115967  0.70148057  0.29838566  1
  Zr  Zr34  1  0.89976500  0.70524207  0.90309520  1
  Zr  Zr35  1  0.90192766  0.70133700  0.09637610  1
  Zr  Zr36  1  0.90735218  0.69933990  0.70035506  1
  Zr  Zr37  1  0.49542255  0.31284559  0.11051918  1
  Zr  Zr38  1  0.88923756  0.70461152  0.49297023  1
  Zr  Zr39  1  0.70260657  0.89261303  0.49821185  1
  Zr  Zr40  1  0.88890617  0.10266572  0.89495724  1
  Zr  Zr41  1  0.29217507  0.49847489  0.69946469  1
  Zr  Zr42  1  0.10324166  0.89781812  0.10127953  1
  Zr  Zr43  1  0.28525272  0.50378926  0.29730816  1
  Zr  Zr44  1  0.09907359  0.49976466  0.49423122  1
  Zr  Zr45  1  0.89590839  0.90888564  0.29887070  1
  Zr  Zr46  1  0.30084634  0.29334967  0.69506057  1
  Zr  Zr47  1  0.90041727  0.89817156  0.70449037  1
  Zr  Zr48  1  0.69833270  0.30759421  0.69509610  1
  Zr  Zr49  1  0.70722233  0.30002180  0.10484677  1
  Sc  Sc50  1  0.69546487  0.49581711  0.30481710  1
  Sc  Sc51  1  0.30096985  0.70163509  0.29955661  1
  Sc  Sc52  1  0.70241231  0.29933288  0.30337973  1
  Sc  Sc53  1  0.89701666  0.49263061  0.10297714  1
  Sc  Sc54  1  0.30142672  0.49341130  0.10052282  1
  Sc  Sc55  1  0.89558656  0.49961855  0.49955856  1
  Sc  Sc56  1  0.50801597  0.50329254  0.49672464  1
  Sc  Sc57  1  0.69020697  0.10082335  0.70801980  1
  Sc  Sc58  1  0.69982960  0.69203927  0.69363492  1
  Sc  Sc59  1  0.29790371  0.71270579  0.09696693  1
  Sc  Sc60  1  0.29576793  0.89671295  0.70739281  1
  Sc  Sc61  1  0.29769279  0.70239623  0.48906949  1
  Sc  Sc62  1  0.30082569  0.08659972  0.30588960  1
  Sc  Sc63  1  0.71493161  0.29434223  0.89777018  1
  Sc  Sc64  1  0.10283394  0.70774029  0.50373782  1
  Sc  Sc65  1  0.29668446  0.50300146  0.90201795  1
  Sc  Sc66  1  0.29530866  0.49913947  0.48809823  1
  Sc  Sc67  1  0.90045549  0.30626156  0.70308021  1
  Sc  Sc68  1  0.89712542  0.48937069  0.29842612  1
  Sc  Sc69  1  0.29513132  0.30539991  0.10473923  1
  Sc  Sc70  1  0.89774816  0.29680833  0.29694302  1
  Sc  Sc71  1  0.69784021  0.69904547  0.49742484  1
  Sc  Sc72  1  0.49074650  0.89902796  0.90075983  1
  Sc  Sc73  1  0.50258330  0.90486061  0.70310298  1
  Sc  Sc74  1  0.69345845  0.29704634  0.49707392  1
  Sc  Sc75  1  0.09864688  0.69706851  0.90102343  1
  Sc  Sc76  1  0.11392818  0.10023112  0.89779571  1
  Sc  Sc77  1  0.09690591  0.70134757  0.09410267  1
  Sc  Sc78  1  0.30200620  0.90300956  0.90546798  1
  Sc  Sc79  1  0.50358823  0.49543411  0.29797615  1
  Sc  Sc80  1  0.50610801  0.69965228  0.49086035  1
  Sc  Sc81  1  0.09438055  0.29955285  0.50158448  1
  Sc  Sc82  1  0.88981231  0.10630448  0.11061351  1
  Sc  Sc83  1  0.90093917  0.29689367  0.49398127  1
  Sc  Sc84  1  0.90629529  0.10274323  0.49051590  1
  Sc  Sc85  1  0.51943345  0.50186243  0.70025675  1
  Sc  Sc86  1  0.50171597  0.10689077  0.49980739  1
  Sc  Sc87  1  0.10107425  0.30414352  0.69444698  1
  Sc  Sc88  1  0.09605442  0.89796636  0.89756405  1
  Sc  Sc89  1  0.10884017  0.10555405  0.11052048  1
  Sc  Sc90  1  0.29621555  0.29514371  0.89833967  1
  Sc  Sc91  1  0.10175163  0.29652165  0.10958531  1
  Sc  Sc92  1  0.29018116  0.90029980  0.48620194  1
  Sc  Sc93  1  0.10313202  0.50389883  0.89602175  1
  Sc  Sc94  1  0.29506634  0.70552196  0.70683622  1
  Sc  Sc95  1  0.49944796  0.09951055  0.70271122  1
  Sc  Sc96  1  0.90235989  0.10211930  0.30230243  1
  Sc  Sc97  1  0.89726806  0.30024129  0.10863954  1
  Sc  Sc98  1  0.49543800  0.89479149  0.30173528  1
  Sc  Sc99  1  0.69167961  0.70130445  0.30929469  1
  Nb  Nb100  1  0.70391506  0.70296200  0.91124080  1
  Nb  Nb101  1  0.69501304  0.69502071  0.10204002  1
  Nb  Nb102  1  0.30202670  0.90266218  0.10170514  1
  Nb  Nb103  1  0.70046003  0.49700402  0.69319087  1
  Nb  Nb104  1  0.10099363  0.49755538  0.30056936  1
  Nb  Nb105  1  0.69603956  0.50213856  0.10193117  1
  Nb  Nb106  1  0.09639894  0.89769252  0.49405273  1
  Nb  Nb107  1  0.30513840  0.10383547  0.50016026  1
  Nb  Nb108  1  0.89602548  0.70056949  0.29620241  1
  Nb  Nb109  1  0.10368177  0.30081160  0.29488706  1
  Nb  Nb110  1  0.31124508  0.29107347  0.49619935  1
  Nb  Nb111  1  0.50697285  0.69906765  0.10320265  1
  Nb  Nb112  1  0.30792662  0.09967251  0.09526299  1
  Nb  Nb113  1  0.70115485  0.90509024  0.10195794  1
  Nb  Nb114  1  0.10223902  0.10807835  0.30328087  1
  Nb  Nb115  1  0.70392229  0.90380994  0.30038932  1
  Nb  Nb116  1  0.50615708  0.10043075  0.10372993  1
  Nb  Nb117  1  0.70702457  0.89519444  0.90699289  1
  Nb  Nb118  1  0.30650878  0.30243744  0.30520681  1
  Nb  Nb119  1  0.90083395  0.29621027  0.90162676  1
  Nb  Nb120  1  0.68845375  0.09686603  0.10502744  1
  Nb  Nb121  1  0.69494847  0.50347228  0.51756059  1
  Nb  Nb122  1  0.09584420  0.10334912  0.69542065  1
  Nb  Nb123  1  0.69874776  0.10009634  0.49998233  1
  Nb  Nb124  1  0.50006031  0.29869000  0.90327282  1
  Nb  Nb125  1  0.39411278  -0.00041171  0.59525020  1
  Nb  Nb126  1  -0.00347679  0.19909332  -0.00367210  1
  Nb  Nb127  1  0.40483952  0.60368387  0.19657736  1
  Nb  Nb128  1  0.40024198  0.40159616  0.60007962  1
  Nb  Nb129  1  0.20066356  0.60012205  0.60006048  1
  Nb  Nb130  1  0.39598493  0.59964133  0.59994827  1
  Nb  Nb131  1  0.00030439  0.79806453  0.39026599  1
  Nb  Nb132  1  0.39946811  0.19565548  0.19819247  1
  Nb  Nb133  1  0.60823509  -0.00123915  0.39953182  1
  Nb  Nb134  1  -0.00025165  0.39287375  -0.00274904  1
  Nb  Nb135  1  -0.00027817  0.60489582  0.39087166  1
  Nb  Nb136  1  0.79776315  0.19347867  0.59884727  1
  Nb  Nb137  1  0.79343665  0.60440698  0.19838454  1
  Nb  Nb138  1  0.39831709  0.79966303  0.59816832  1
  Nb  Nb139  1  0.40628031  0.19790165  0.00744969  1
  Nb  Nb140  1  0.60649951  0.80009556  0.00552104  1
  Nb  Nb141  1  0.79327865  0.79817367  0.19889399  1
  Nb  Nb142  1  0.00090452  0.19797582  0.80142245  1
  Nb  Nb143  1  0.60788809  0.79645254  0.81358561  1
  Nb  Nb144  1  0.60300268  0.39756901  0.00030795  1
  Nb  Nb145  1  0.79612960  0.00381495  0.59771285  1
  Nb  Nb146  1  0.20480500  0.20181050  0.39899229  1
  Nb  Nb147  1  0.40561991  0.39676377  0.79629396  1
  Nb  Nb148  1  0.59644579  0.20132605  0.00664071  1
  Nb  Nb149  1  -0.00140002  0.00904559  0.00079060  1
  Pd  Pd150  1  0.19002366  0.79437170  0.38958304  1
  Pd  Pd151  1  0.19563439  -0.00027600  0.00369780  1
  Pd  Pd152  1  0.60313406  0.40100704  0.40716985  1
  Pd  Pd153  1  0.59078990  0.78962797  0.60790466  1
  Pd  Pd154  1  0.40172815  0.59608523  0.39581348  1
  Pd  Pd155  1  0.00230643  0.60354825  0.58708760  1
  Pd  Pd156  1  -0.00070617  0.58692260  -0.00091022  1
  Pd  Pd157  1  -0.01161860  0.58984861  0.20276901  1
  Pd  Pd158  1  0.79634625  0.60847672  0.79760779  1
  Pd  Pd159  1  -0.00062239  0.40101906  0.39409002  1
  Pd  Pd160  1  0.79385827  0.79142103  0.79217863  1
  Pd  Pd161  1  0.19645863  0.20450484  0.59157293  1
  Pd  Pd162  1  0.60764243  0.20393049  0.80935364  1
  Pd  Pd163  1  0.19977350  0.80328422  -0.00574288  1
  Pd  Pd164  1  0.20635831  -0.00856425  0.59472464  1
  Pd  Pd165  1  0.59832947  0.20756516  0.20276480  1
  Pd  Pd166  1  0.80348601  0.39133904  0.59136372  1
  Pd  Pd167  1  0.00647872  0.20475242  0.39531574  1
  Pd  Pd168  1  0.79834804  0.59104108  0.39401245  1
  Pd  Pd169  1  0.80114572  0.40226871  -0.00049743  1
  Pd  Pd170  1  0.59544213  -0.00505541  -0.00364195  1
  Pd  Pd171  1  0.38979262  0.60305316  0.01112812  1
  Pd  Pd172  1  -0.00802470  0.39921669  0.59789365  1
  Pd  Pd173  1  0.20225328  0.20165745  0.00426986  1
  Pd  Pd174  1  0.21482249  0.19921815  0.21118865  1
  Pd  Pd175  1  0.39906582  0.00226944  0.20119784  1
  Pd  Pd176  1  0.80178664  0.60319245  0.59887733  1
  Pd  Pd177  1  0.20414108  0.60152719  0.00357172  1
  Pd  Pd178  1  -0.00743318  0.00063888  0.59354596  1
  Pd  Pd179  1  -0.00501347  0.79948719  0.59026359  1
  Pd  Pd180  1  0.60237330  0.39556876  0.80858617  1
  Pd  Pd181  1  0.39644946  0.58810580  0.79392284  1
  Pd  Pd182  1  0.40291950  0.41094112  0.40304628  1
  Pd  Pd183  1  0.19804577  0.38646718  0.40277944  1
  Pd  Pd184  1  0.00930240  0.00641979  0.80672345  1
  Pd  Pd185  1  0.79329764  0.40059147  0.40753481  1
  Pd  Pd186  1  0.20715217  0.00391710  0.19741964  1
  Pd  Pd187  1  0.60249854  -0.01043949  0.81076379  1
  Pd  Pd188  1  0.20571141  0.40099277  0.58830618  1
  Pd  Pd189  1  0.00100705  0.01201234  0.19456706  1
  Pd  Pd190  1  0.19482209  -0.00533815  0.79727242  1
  Pd  Pd191  1  0.20480689  0.39809753  0.80177872  1
  Pd  Pd192  1  0.40423959  0.00269991  0.00064286  1
  Pd  Pd193  1  0.80549192  0.00578928  0.01079415  1
  Pd  Pd194  1  0.39972022  0.39587565  -0.00856654  1
  Pd  Pd195  1  0.19598736  0.80389106  0.80749123  1
  Pd  Pd196  1  0.80414111  0.59303740  0.00596904  1
  Pd  Pd197  1  0.60592009  0.80643565  0.20029334  1
  Pd  Pd198  1  0.19217424  0.39909458  0.00106961  1
  Pd  Pd199  1  -0.00165500  0.80220364  0.20523872  1
  Rh  Rh200  1  0.40372739  0.19445051  0.60557285  1
  Rh  Rh201  1  -0.00050793  0.20008781  0.19954340  1
  Rh  Rh202  1  0.80371642  0.20520987  0.78567606  1
  Rh  Rh203  1  0.40098725  0.80178801  0.40557364  1
  Rh  Rh204  1  0.40629754  0.80244409  0.00788537  1
  Rh  Rh205  1  0.20706824  0.80074163  0.59663756  1
  Rh  Rh206  1  0.79478569  0.80005076  0.01214212  1
  Rh  Rh207  1  -0.00125507  0.60380500  0.80506026  1
  Rh  Rh208  1  0.80336600  0.80282256  0.60546640  1
  Rh  Rh209  1  0.19205640  0.20004541  0.78968028  1
  Rh  Rh210  1  0.60501421  0.19711390  0.60152700  1
  Rh  Rh211  1  0.79720180  0.19931446  0.20415368  1
  Rh  Rh212  1  0.79524205  0.00644033  0.40652291  1
  Rh  Rh213  1  0.39807696  0.79335658  0.19510860  1
  Rh  Rh214  1  0.60524407  0.59856533  -0.00413038  1
  Rh  Rh215  1  0.61190790  0.60789370  0.80287831  1
  Rh  Rh216  1  0.20153169  0.80285527  0.19786339  1
  Rh  Rh217  1  0.39546824  -0.00108268  0.79005762  1
  Rh  Rh218  1  0.80072889  0.79921004  0.38917086  1
  Rh  Rh219  1  0.21311704  0.60484343  0.18663472  1
  Rh  Rh220  1  0.39209246  0.40702248  0.21238996  1
  Rh  Rh221  1  0.60777144  0.39954703  0.19803264  1
  Rh  Rh222  1  0.39473193  0.19152708  0.38831363  1
  Rh  Rh223  1  0.19631289  0.00791662  0.40298729  1
  Rh  Rh224  1  0.60575863  0.59427748  0.40195717  1
  Rh  Rh225  1  0.80035461  0.20036169  0.40421796  1
  Rh  Rh226  1  0.39840022  0.20396392  0.80450786  1
  Rh  Rh227  1  0.79629660  0.39820848  0.79828098  1
  Rh  Rh228  1  0.40904759  -0.00022054  0.40849426  1
  Rh  Rh229  1  0.19737744  0.60390864  0.79587815  1
  Rh  Rh230  1  0.79791157  -0.00175439  0.19493089  1
  Rh  Rh231  1  0.59678982  0.00819866  0.59167752  1
  Rh  Rh232  1  0.00099750  0.79863012  0.80386852  1
  Rh  Rh233  1  -0.00706109  0.19997275  0.60767843  1
  Rh  Rh234  1  0.20144518  0.39679109  0.20361157  1
  Rh  Rh235  1  0.59987442  0.59662984  0.20922614  1
  Rh  Rh236  1  0.40628478  0.80768284  0.79686081  1
  Rh  Rh237  1  0.00686074  -0.00257201  0.39815775  1
  Rh  Rh238  1  0.00405985  0.39576827  0.19907069  1
  Rh  Rh239  1  0.59280269  0.39848360  0.59377981  1
  Rh  Rh240  1  0.18693966  0.60749542  0.40494704  1
  Rh  Rh241  1  0.59338554  0.60510136  0.59864493  1
  Rh  Rh242  1  0.60490972  0.19363703  0.39508727  1
  Rh  Rh243  1  0.00268587  0.80898223  -0.00447209  1
  Rh  Rh244  1  0.00042433  0.39508504  0.80284095  1
  Rh  Rh245  1  0.79355461  0.40653300  0.20417094  1
  Rh  Rh246  1  0.78809470  -0.00453564  0.79180342  1
  Rh  Rh247  1  0.60078516  -0.00724245  0.20928186  1
  Rh  Rh248  1  0.60092271  0.80794003  0.39576969  1
  Rh  Rh249  1  0.79679459  0.19506760  0.00977545  1
