# generated using pymatgen
data_ZrScNbPdRh
_symmetry_space_group_name_H-M   'P 1'
_cell_length_a   16.55605595
_cell_length_b   16.55997116
_cell_length_c   16.55920755
_cell_angle_alpha   90.01931555
_cell_angle_beta   90.01308110
_cell_angle_gamma   90.01294072
_symmetry_Int_Tables_number   1
_chemical_formula_structural   ZrScNbPdRh
_chemical_formula_sum   'Zr50 Sc50 Nb50 Pd50 Rh50'
_cell_volume   4540.00116118
_cell_formula_units_Z   50
loop_
 _symmetry_equiv_pos_site_id
 _symmetry_equiv_pos_as_xyz
  1  'x, y, z'
loop_
 _atom_site_type_symbol
 _atom_site_label
 _atom_site_symmetry_multiplicity
 _atom_site_fract_x
 _atom_site_fract_y
 _atom_site_fract_z
 _atom_site_occupancy
  Zr  Zr0  1  0.50192837  0.10314229  0.69445295  1
  Zr  Zr1  1  0.50064316  0.48490192  0.90638495  1
  Zr  Zr2  1  0.49775696  0.69876274  0.70673594  1
  Zr  Zr3  1  0.29707778  0.89285207  0.70622493  1
  Zr  Zr4  1  0.10092279  0.49923639  0.49138620  1
  Zr  Zr5  1  0.30478730  0.50720117  0.51017818  1
  Zr  Zr6  1  0.88730344  0.49835603  0.70240890  1
  Zr  Zr7  1  0.10223870  0.70251254  0.70397255  1
  Zr  Zr8  1  0.69704698  0.92159504  0.28938642  1
  Zr  Zr9  1  0.71301691  0.49549498  0.30014873  1
  Zr  Zr10  1  0.89304202  0.49862853  0.10843527  1
  Zr  Zr11  1  0.50348667  0.30194596  0.30309234  1
  Zr  Zr12  1  0.10265120  0.30158188  0.89322089  1
  Zr  Zr13  1  0.69069793  0.90016080  0.89623992  1
  Zr  Zr14  1  0.09927802  0.70560386  0.10219819  1
  Zr  Zr15  1  0.09928106  0.49270175  0.30133618  1
  Zr  Zr16  1  0.09584669  0.70491305  0.30813097  1
  Zr  Zr17  1  0.69479972  0.29669426  0.30103926  1
  Zr  Zr18  1  0.09800831  0.90338025  0.10129210  1
  Zr  Zr19  1  0.50217466  0.29900346  0.50052240  1
  Zr  Zr20  1  0.90003676  0.69686107  0.29919195  1
  Zr  Zr21  1  0.50589135  0.10635613  0.50244348  1
  Zr  Zr22  1  0.09274807  0.10564683  0.49970426  1
  Zr  Zr23  1  0.50321611  0.49555790  0.69942701  1
  Zr  Zr24  1  0.09444759  0.90291567  0.90585891  1
  Zr  Zr25  1  0.29332052  0.30133721  0.49830465  1
  Zr  Zr26  1  0.10329383  0.89663487  0.70908418  1
  Zr  Zr27  1  0.70115646  0.69442624  0.49421582  1
  Zr  Zr28  1  0.29725118  0.90951790  0.30402047  1
  Zr  Zr29  1  0.89612567  0.10229704  0.89828135  1
  Zr  Zr30  1  0.50265685  0.30886772  0.09316321  1
  Zr  Zr31  1  0.50230771  0.89350736  0.70935955  1
  Zr  Zr32  1  0.69065802  0.10674445  0.89236467  1
  Zr  Zr33  1  0.29287344  0.69217707  0.69470449  1
  Zr  Zr34  1  0.29088908  0.49435070  0.90011683  1
  Zr  Zr35  1  0.89395785  0.69988885  0.08872425  1
  Zr  Zr36  1  0.48886186  0.10118434  0.08820961  1
  Zr  Zr37  1  0.31062879  0.69957777  0.09921300  1
  Zr  Zr38  1  0.11300864  0.69847428  0.50526924  1
  Zr  Zr39  1  0.49798925  0.89791808  0.09126715  1
  Zr  Zr40  1  0.09724128  0.29509606  0.49434729  1
  Zr  Zr41  1  0.90106269  0.10408190  0.10544819  1
  Zr  Zr42  1  0.70669532  0.49977798  0.50349256  1
  Zr  Zr43  1  0.30601397  0.90118819  0.10632762  1
  Zr  Zr44  1  0.50901586  0.28590788  0.90319436  1
  Zr  Zr45  1  0.30494686  0.50117848  0.09668789  1
  Zr  Zr46  1  0.29897867  0.28979581  0.10406498  1
  Zr  Zr47  1  0.69776957  0.69183728  0.70257412  1
  Zr  Zr48  1  0.50873518  0.09759191  0.29544695  1
  Zr  Zr49  1  0.70167623  0.91013617  0.50175723  1
  Sc  Sc50  1  0.10140640  0.90770195  0.49221666  1
  Sc  Sc51  1  0.49778952  0.49801564  0.49905788  1
  Sc  Sc52  1  0.50397397  0.71221528  0.90319589  1
  Sc  Sc53  1  0.89641555  0.10366053  0.69169156  1
  Sc  Sc54  1  0.89616524  0.29515686  0.69794412  1
  Sc  Sc55  1  0.89683437  0.30035457  0.50108518  1
  Sc  Sc56  1  0.11698977  0.49677997  0.71159153  1
  Sc  Sc57  1  0.29914482  0.29788220  0.90449479  1
  Sc  Sc58  1  0.10652145  0.29590599  0.11724878  1
  Sc  Sc59  1  0.30054626  0.89688279  0.90498571  1
  Sc  Sc60  1  0.69594355  0.49728586  0.89278411  1
  Sc  Sc61  1  0.29460892  0.09982892  0.49701341  1
  Sc  Sc62  1  0.49458265  0.68988555  0.49023007  1
  Sc  Sc63  1  0.69325523  0.50303990  0.10427744  1
  Sc  Sc64  1  0.49451331  0.90496624  0.49532792  1
  Sc  Sc65  1  0.69754299  0.69559367  0.09323514  1
  Sc  Sc66  1  0.10847037  0.09874220  0.90128240  1
  Sc  Sc67  1  0.69753941  0.68378524  0.29603740  1
  Sc  Sc68  1  0.10697665  0.50029592  0.09336793  1
  Sc  Sc69  1  0.50243518  0.30006623  0.69400921  1
  Sc  Sc70  1  0.30125660  0.49331368  0.30201441  1
  Sc  Sc71  1  0.89572587  0.90449940  0.70360208  1
  Sc  Sc72  1  0.69487707  0.29400567  0.90085416  1
  Sc  Sc73  1  0.10227973  0.29555218  0.69658059  1
  Sc  Sc74  1  0.89543745  0.70187481  0.71039693  1
  Sc  Sc75  1  0.50378125  0.50099998  0.29909239  1
  Sc  Sc76  1  0.30837823  0.69923709  0.90533122  1
  Sc  Sc77  1  0.70075999  0.30075157  0.49999193  1
  Sc  Sc78  1  0.29794671  0.30338784  0.69429305  1
  Sc  Sc79  1  0.90622490  0.91738815  0.49948153  1
  Sc  Sc80  1  0.29904278  0.89949586  0.49426505  1
  Sc  Sc81  1  0.89542565  0.50031724  0.89848564  1
  Sc  Sc82  1  0.90618067  0.30939052  0.29386845  1
  Sc  Sc83  1  0.48971445  0.90455091  0.29748618  1
  Sc  Sc84  1  0.90707307  0.69344309  0.49026766  1
  Sc  Sc85  1  0.69847595  0.89866576  0.09263664  1
  Sc  Sc86  1  0.70443317  0.29713075  0.69548801  1
  Sc  Sc87  1  0.89606001  0.89115497  0.90357061  1
  Sc  Sc88  1  0.49825426  0.69099485  0.30268457  1
  Sc  Sc89  1  0.89482199  0.49593232  0.48910811  1
  Sc  Sc90  1  0.09307394  0.70650394  0.90894286  1
  Sc  Sc91  1  0.30499376  0.70911579  0.31210329  1
  Sc  Sc92  1  0.69819113  0.29421608  0.10334494  1
  Sc  Sc93  1  0.29577504  0.10147399  0.91324822  1
  Sc  Sc94  1  0.89293920  0.29412290  0.88845694  1
  Sc  Sc95  1  0.70584580  0.70501456  0.90224784  1
  Sc  Sc96  1  0.09507131  0.11014126  0.31023223  1
  Sc  Sc97  1  0.10082235  0.10694091  0.70121266  1
  Sc  Sc98  1  0.90660102  0.90690730  0.09821573  1
  Sc  Sc99  1  0.29093745  0.30017223  0.29214401  1
  Nb  Nb100  1  0.10376247  0.30455063  0.30874675  1
  Nb  Nb101  1  0.49716944  0.51060661  0.09658714  1
  Nb  Nb102  1  0.29318636  0.10379088  0.10738467  1
  Nb  Nb103  1  0.70188830  0.50551420  0.69748152  1
  Nb  Nb104  1  0.30022468  0.09434465  0.70235358  1
  Nb  Nb105  1  0.30757899  0.50112417  0.70349852  1
  Nb  Nb106  1  0.49874449  0.90475942  0.90141233  1
  Nb  Nb107  1  0.90487399  0.10633429  0.49513967  1
  Nb  Nb108  1  0.90075443  0.49999109  0.29801690  1
  Nb  Nb109  1  0.89473946  0.09499922  0.30086570  1
  Nb  Nb110  1  0.90115061  0.69947505  0.90085515  1
  Nb  Nb111  1  0.70296741  0.10280685  0.29405947  1
  Nb  Nb112  1  0.30176541  0.10295681  0.29431994  1
  Nb  Nb113  1  0.09797370  0.49424549  0.89932732  1
  Nb  Nb114  1  0.49865094  0.09734495  0.89786563  1
  Nb  Nb115  1  0.09665635  0.90287463  0.29860026  1
  Nb  Nb116  1  0.90281235  0.90267869  0.29770731  1
  Nb  Nb117  1  0.90249208  0.30095746  0.09603580  1
  Nb  Nb118  1  0.10115970  0.09956231  0.09552687  1
  Nb  Nb119  1  0.70183157  0.89940887  0.69419634  1
  Nb  Nb120  1  0.30297477  0.70057595  0.50727969  1
  Nb  Nb121  1  0.70145223  0.09539763  0.68815126  1
  Nb  Nb122  1  0.50135601  0.69143071  0.10071686  1
  Nb  Nb123  1  0.70413977  0.10173287  0.49998354  1
  Nb  Nb124  1  0.70249060  0.09453243  0.11540762  1
  Nb  Nb125  1  0.79924011  0.80200267  0.59408187  1
  Nb  Nb126  1  0.00372114  0.59679223  0.60787932  1
  Nb  Nb127  1  0.79983663  0.19012337  0.39455282  1
  Nb  Nb128  1  0.19621849  0.00639871  0.20236231  1
  Nb  Nb129  1  0.19865847  0.60594980  0.20150519  1
  Nb  Nb130  1  0.20045095  0.00075734  0.60654968  1
  Nb  Nb131  1  0.39996981  0.79448749  0.59925723  1
  Nb  Nb132  1  -0.00137073  0.79732907  0.60117415  1
  Nb  Nb133  1  0.79812370  0.80861105  0.39390221  1
  Nb  Nb134  1  0.60725169  0.80359103  0.39499140  1
  Nb  Nb135  1  0.00080915  -0.00048315  0.80366460  1
  Nb  Nb136  1  -0.00309244  0.39361060  -0.00083020  1
  Nb  Nb137  1  0.40040208  0.59037831  0.80095222  1
  Nb  Nb138  1  0.79515837  0.00888940  0.00052046  1
  Nb  Nb139  1  0.40218553  0.00343040  0.80474325  1
  Nb  Nb140  1  0.40207577  0.19121247  0.79982844  1
  Nb  Nb141  1  0.79750450  0.80413424  0.20548412  1
  Nb  Nb142  1  0.00136956  0.59806126  0.80395324  1
  Nb  Nb143  1  0.40047222  0.20012170  0.39498862  1
  Nb  Nb144  1  0.00253518  0.59904147  0.20085031  1
  Nb  Nb145  1  0.80369199  0.39470671  0.00426642  1
  Nb  Nb146  1  0.00150094  0.20406177  0.00410835  1
  Nb  Nb147  1  0.60214261  0.79902736  0.59556775  1
  Nb  Nb148  1  0.00082425  0.40756203  0.60178659  1
  Nb  Nb149  1  0.60011208  0.79773328  0.20126257  1
  Pd  Pd150  1  0.39320035  0.59966159  0.21002811  1
  Pd  Pd151  1  0.39509494  0.39520404  0.40060791  1
  Pd  Pd152  1  0.60672024  0.00756687  0.00476578  1
  Pd  Pd153  1  0.59982943  0.60066187  -0.00890624  1
  Pd  Pd154  1  0.00794596  0.40491171  0.19206144  1
  Pd  Pd155  1  0.39332249  -0.00931238  0.60387111  1
  Pd  Pd156  1  0.80327264  0.00360132  0.40194559  1
  Pd  Pd157  1  -0.00225594  0.40459316  0.79617504  1
  Pd  Pd158  1  0.60484375  0.40786571  0.40377494  1
  Pd  Pd159  1  0.81253510  0.60771565  0.59646703  1
  Pd  Pd160  1  0.19521383  0.40401915  0.60073201  1
  Pd  Pd161  1  0.80228494  0.00217963  0.80232249  1
  Pd  Pd162  1  0.19864729  0.60630855  0.00031540  1
  Pd  Pd163  1  0.19317639  0.38921204  0.00772523  1
  Pd  Pd164  1  0.39733805  0.39079790  0.80003110  1
  Pd  Pd165  1  0.40917755  0.79439557  0.20528507  1
  Pd  Pd166  1  0.00019741  0.59034718  -0.00118887  1
  Pd  Pd167  1  0.39527917  0.39387113  0.00071990  1
  Pd  Pd168  1  0.59170409  0.19863909  0.19086404  1
  Pd  Pd169  1  0.59314093  0.60030119  0.81155772  1
  Pd  Pd170  1  -0.00887963  0.79695093  0.19521043  1
  Pd  Pd171  1  0.19892441  0.60641040  0.81428204  1
  Pd  Pd172  1  0.20648955  -0.00328522  0.00738717  1
  Pd  Pd173  1  0.21087267  0.20143422  0.79868912  1
  Pd  Pd174  1  0.00331850  0.19932752  0.20375429  1
  Pd  Pd175  1  0.79769108  0.19948858  0.00333076  1
  Pd  Pd176  1  0.00662097  0.00884701  0.20751745  1
  Pd  Pd177  1  0.59430591  -0.00567720  0.60076110  1
  Pd  Pd178  1  0.20367034  0.80043799  0.00050435  1
  Pd  Pd179  1  0.39900014  0.01203242  0.40276958  1
  Pd  Pd180  1  0.20349625  0.80239085  0.20631235  1
  Pd  Pd181  1  0.20964060  0.59919016  0.39308820  1
  Pd  Pd182  1  0.39166856  0.20288622  0.59879403  1
  Pd  Pd183  1  0.79088361  0.39417032  0.80348652  1
  Pd  Pd184  1  0.80596056  0.20954574  0.20712199  1
  Pd  Pd185  1  0.59718205  0.00127057  0.40092514  1
  Pd  Pd186  1  0.40207228  0.40110320  0.19799562  1
  Pd  Pd187  1  0.59207388  0.60200378  0.59404937  1
  Pd  Pd188  1  0.59929825  0.40700910  0.19619881  1
  Pd  Pd189  1  0.79601340  0.80087266  0.79715247  1
  Pd  Pd190  1  0.20289351  0.79176973  0.81684194  1
  Pd  Pd191  1  0.79174948  0.58911284  -0.00620758  1
  Pd  Pd192  1  0.20008429  0.80429918  0.40271080  1
  Pd  Pd193  1  0.40806460  0.20299207  0.20366339  1
  Pd  Pd194  1  0.00638954  -0.00358195  0.61083602  1
  Pd  Pd195  1  -0.00579354  0.80903043  0.40964010  1
  Pd  Pd196  1  0.60696679  0.39088177  0.79476234  1
  Pd  Pd197  1  0.00120089  0.19363680  0.80249943  1
  Pd  Pd198  1  0.60580432  0.40003104  0.60033308  1
  Pd  Pd199  1  0.59865159  0.00362938  0.79272920  1
  Rh  Rh200  1  0.60515524  0.19370770  0.40278338  1
  Rh  Rh201  1  -0.01284124  0.20828178  0.39365207  1
  Rh  Rh202  1  0.79039266  0.19358283  0.78768052  1
  Rh  Rh203  1  0.40436639  0.79884978  0.00005933  1
  Rh  Rh204  1  0.61045459  0.20243804  0.59927383  1
  Rh  Rh205  1  0.20076417  0.40781269  0.19768053  1
  Rh  Rh206  1  0.80464967  0.60715042  0.19829366  1
  Rh  Rh207  1  0.40104333  0.39877679  0.59860883  1
  Rh  Rh208  1  -0.00536967  0.79976065  0.79801398  1
  Rh  Rh209  1  0.80572741  0.00295417  0.59925173  1
  Rh  Rh210  1  0.39187817  0.00042973  -0.00415333  1
  Rh  Rh211  1  0.20539055  0.40011385  0.40078872  1
  Rh  Rh212  1  0.39781824  0.00587651  0.19613011  1
  Rh  Rh213  1  0.80215970  0.40034277  0.60029970  1
  Rh  Rh214  1  0.40982969  0.59817160  -0.01176212  1
  Rh  Rh215  1  0.20046568  0.00274108  0.79833979  1
  Rh  Rh216  1  0.80020957  0.19605823  0.59102083  1
  Rh  Rh217  1  0.60518432  0.19122329  0.01010643  1
  Rh  Rh218  1  0.39646186  0.80035130  0.80114922  1
  Rh  Rh219  1  0.00098237  0.00142582  0.39201722  1
  Rh  Rh220  1  0.39618360  0.20175822  -0.00487324  1
  Rh  Rh221  1  0.79425028  0.39353549  0.19578227  1
  Rh  Rh222  1  0.61032705  0.40194199  0.00556969  1
  Rh  Rh223  1  0.19109952  0.20514492  0.00465361  1
  Rh  Rh224  1  -0.00235474  0.21055724  0.60005764  1
  Rh  Rh225  1  0.20647983  0.39305023  0.79786124  1
  Rh  Rh226  1  0.19489883  0.00635030  0.39631727  1
  Rh  Rh227  1  0.59785935  0.19934429  0.78780422  1
  Rh  Rh228  1  0.80303799  0.59953970  0.39765819  1
  Rh  Rh229  1  0.58791514  -0.00305595  0.18746773  1
  Rh  Rh230  1  -0.00083716  0.59344994  0.39608459  1
  Rh  Rh231  1  -0.00832523  0.01083085  -0.00905030  1
  Rh  Rh232  1  0.80149698  0.60131665  0.80767384  1
  Rh  Rh233  1  0.79981257  0.80845749  0.00403161  1
  Rh  Rh234  1  0.60851731  0.79903144  0.79751760  1
  Rh  Rh235  1  0.19093773  0.19169253  0.20866239  1
  Rh  Rh236  1  0.40851802  0.79858862  0.40757883  1
  Rh  Rh237  1  0.80746797  -0.00585615  0.19058205  1
  Rh  Rh238  1  0.39377151  0.59540415  0.39922703  1
  Rh  Rh239  1  0.19497865  0.58912516  0.60095456  1
  Rh  Rh240  1  0.20181851  0.19063105  0.59912032  1
  Rh  Rh241  1  0.40677772  0.60301963  0.60695116  1
  Rh  Rh242  1  0.19913403  0.81332285  0.59051829  1
  Rh  Rh243  1  -0.00578179  0.39602001  0.40476208  1
  Rh  Rh244  1  0.60171757  0.59424681  0.39912655  1
  Rh  Rh245  1  0.20787097  0.19992074  0.39477839  1
  Rh  Rh246  1  0.59750257  0.79628228  0.00645536  1
  Rh  Rh247  1  0.59693866  0.59996418  0.19900636  1
  Rh  Rh248  1  -0.00515899  0.80284362  0.00464703  1
  Rh  Rh249  1  0.80135154  0.38897144  0.39484454  1
