# generated using pymatgen
data_ZrScNbPdRh
_symmetry_space_group_name_H-M   'P 1'
_cell_length_a   16.55227197
_cell_length_b   16.55333287
_cell_length_c   16.55345428
_cell_angle_alpha   90.03781342
_cell_angle_beta   90.04026466
_cell_angle_gamma   90.00042812
_symmetry_Int_Tables_number   1
_chemical_formula_structural   ZrScNbPdRh
_chemical_formula_sum   'Zr50 Sc50 Nb50 Pd50 Rh50'
_cell_volume   4535.56603031
_cell_formula_units_Z   50
loop_
 _symmetry_equiv_pos_site_id
 _symmetry_equiv_pos_as_xyz
  1  'x, y, z'
loop_
 _atom_site_type_symbol
 _atom_site_label
 _atom_site_symmetry_multiplicity
 _atom_site_fract_x
 _atom_site_fract_y
 _atom_site_fract_z
 _atom_site_occupancy
  Zr  Zr0  1  0.70948431  0.30110583  0.30296834  1
  Zr  Zr1  1  0.09589100  0.89952777  0.49963606  1
  Zr  Zr2  1  0.70112602  0.70346625  0.89119489  1
  Zr  Zr3  1  0.30657022  0.09472435  0.10096649  1
  Zr  Zr4  1  0.50000136  0.29654263  0.49490479  1
  Zr  Zr5  1  0.50256293  0.50840145  0.09430906  1
  Zr  Zr6  1  0.89462750  0.49928712  0.09843847  1
  Zr  Zr7  1  0.09850110  0.70248907  0.49085282  1
  Zr  Zr8  1  0.50661838  0.30554316  0.69887656  1
  Zr  Zr9  1  0.49350618  0.30237566  0.90114455  1
  Zr  Zr10  1  0.50206313  0.09816274  0.91247439  1
  Zr  Zr11  1  0.08953136  0.89145854  0.09602773  1
  Zr  Zr12  1  0.89131745  0.70330212  0.70740858  1
  Zr  Zr13  1  0.49724875  0.10058839  0.29656512  1
  Zr  Zr14  1  0.89771882  0.10332332  0.89699598  1
  Zr  Zr15  1  0.30301512  0.50100447  0.89780347  1
  Zr  Zr16  1  0.30340430  0.30654793  0.70487538  1
  Zr  Zr17  1  0.70326802  0.09877741  0.90271496  1
  Zr  Zr18  1  0.10059817  0.49827491  0.70321888  1
  Zr  Zr19  1  0.29948783  0.89653127  0.70438291  1
  Zr  Zr20  1  0.70262171  0.89080115  0.70679311  1
  Zr  Zr21  1  0.29467568  0.50548074  0.70085330  1
  Zr  Zr22  1  0.29241300  0.70854472  0.29627733  1
  Zr  Zr23  1  0.71144263  0.10146390  0.49706531  1
  Zr  Zr24  1  0.90314909  0.30645509  0.90245022  1
  Zr  Zr25  1  0.29228424  0.70737126  0.49203571  1
  Zr  Zr26  1  0.30700111  0.49551316  0.09973629  1
  Zr  Zr27  1  0.31002660  0.29408857  0.30347359  1
  Zr  Zr28  1  0.29808853  0.50434434  0.49879748  1
  Zr  Zr29  1  0.50115182  0.90047010  0.29827428  1
  Zr  Zr30  1  0.50595420  0.69757294  0.49199533  1
  Zr  Zr31  1  0.08957207  0.49932805  0.10004814  1
  Zr  Zr32  1  0.69845582  0.69960759  0.30961003  1
  Zr  Zr33  1  0.91150958  0.50666600  0.69732875  1
  Zr  Zr34  1  0.50001345  0.30011429  0.29992137  1
  Zr  Zr35  1  0.90018910  0.90079657  0.49688181  1
  Zr  Zr36  1  0.70467139  0.10432334  0.30542685  1
  Zr  Zr37  1  0.70554571  0.30790131  0.89149425  1
  Zr  Zr38  1  0.50302088  0.90118509  0.69968461  1
  Zr  Zr39  1  0.10361325  0.10296857  0.10206675  1
  Zr  Zr40  1  0.30125503  0.49063093  0.29683114  1
  Zr  Zr41  1  0.29533716  0.90086963  0.30426011  1
  Zr  Zr42  1  0.70401754  0.89386767  0.49645768  1
  Zr  Zr43  1  0.09516995  0.29494504  0.09394350  1
  Zr  Zr44  1  0.69872915  0.70314283  0.70216534  1
  Zr  Zr45  1  0.50142575  0.09376382  0.10174323  1
  Zr  Zr46  1  0.29360315  0.09993906  0.29778642  1
  Zr  Zr47  1  0.50072418  0.89670283  0.89976629  1
  Zr  Zr48  1  0.10382738  0.89943499  0.70400681  1
  Zr  Zr49  1  0.29468706  0.09948053  0.48877651  1
  Sc  Sc50  1  0.90046076  0.10437329  0.69160614  1
  Sc  Sc51  1  0.70754448  0.31318011  0.10614352  1
  Sc  Sc52  1  0.09149512  0.70245034  0.29975582  1
  Sc  Sc53  1  0.90051933  0.91113960  0.91852379  1
  Sc  Sc54  1  0.09091677  0.10300870  0.49221247  1
  Sc  Sc55  1  0.90026214  0.70779271  0.49581755  1
  Sc  Sc56  1  0.90489039  0.09728453  0.09669174  1
  Sc  Sc57  1  0.49346106  0.69238885  0.90067526  1
  Sc  Sc58  1  0.50312495  0.30964911  0.09973523  1
  Sc  Sc59  1  0.89947474  0.89945975  0.68944202  1
  Sc  Sc60  1  0.69764575  0.50112370  0.10416808  1
  Sc  Sc61  1  0.70131349  0.50134555  0.90588990  1
  Sc  Sc62  1  0.90589258  0.49481040  0.49360626  1
  Sc  Sc63  1  0.30480129  0.10639145  0.90716271  1
  Sc  Sc64  1  0.09259331  0.10129918  0.69433684  1
  Sc  Sc65  1  0.09802010  0.69270172  0.70356436  1
  Sc  Sc66  1  0.69692872  0.90513995  0.10446736  1
  Sc  Sc67  1  0.30307788  0.70707198  0.09844013  1
  Sc  Sc68  1  0.49482847  0.90602692  0.10304955  1
  Sc  Sc69  1  0.29937105  0.09872629  0.70449644  1
  Sc  Sc70  1  0.49363864  0.50133046  0.70211319  1
  Sc  Sc71  1  0.90932937  0.69577964  0.10861524  1
  Sc  Sc72  1  0.49734174  0.69790579  0.70759402  1
  Sc  Sc73  1  0.90044792  0.50094061  0.30493464  1
  Sc  Sc74  1  0.70037744  0.68851264  0.11196619  1
  Sc  Sc75  1  0.68521299  0.49356939  0.70807024  1
  Sc  Sc76  1  0.10337127  0.70317859  0.90502860  1
  Sc  Sc77  1  0.69458839  0.09377369  0.09581599  1
  Sc  Sc78  1  0.70166640  0.89441013  0.30242038  1
  Sc  Sc79  1  0.90443999  0.50460298  0.90174783  1
  Sc  Sc80  1  0.70809862  0.50274499  0.29663739  1
  Sc  Sc81  1  0.30084201  0.70076730  0.89742777  1
  Sc  Sc82  1  0.30306311  0.30214160  0.49019157  1
  Sc  Sc83  1  0.29787647  0.29506181  0.10274323  1
  Sc  Sc84  1  0.90057110  0.29413076  0.70022188  1
  Sc  Sc85  1  0.70872676  0.10353825  0.69856657  1
  Sc  Sc86  1  0.50998259  0.09318531  0.49775511  1
  Sc  Sc87  1  0.70309661  0.29134779  0.49938319  1
  Sc  Sc88  1  0.09923451  0.28464356  0.29820802  1
  Sc  Sc89  1  0.09189301  0.50161432  0.50428678  1
  Sc  Sc90  1  0.29972592  0.89420043  0.10415856  1
  Sc  Sc91  1  0.29417190  0.88892992  0.89886891  1
  Sc  Sc92  1  0.90019785  0.70009651  0.29937612  1
  Sc  Sc93  1  0.29730442  0.69741245  0.70750167  1
  Sc  Sc94  1  0.50542969  0.09803708  0.69712212  1
  Sc  Sc95  1  0.49680040  0.49499140  0.28654400  1
  Sc  Sc96  1  0.90391912  0.30068352  0.49826104  1
  Sc  Sc97  1  0.70281207  0.90571554  0.89833114  1
  Sc  Sc98  1  0.50454308  0.70291994  0.29047014  1
  Sc  Sc99  1  0.50024935  0.50084367  0.50675071  1
  Nb  Nb100  1  0.90038007  0.10009023  0.50328930  1
  Nb  Nb101  1  0.29715998  0.29994830  0.90104838  1
  Nb  Nb102  1  0.29882670  0.90097934  0.49868202  1
  Nb  Nb103  1  0.09693978  0.49808508  0.89964908  1
  Nb  Nb104  1  0.10061284  0.90015303  0.90144829  1
  Nb  Nb105  1  0.89867373  0.89888806  0.10421389  1
  Nb  Nb106  1  0.49744148  0.89976207  0.50166227  1
  Nb  Nb107  1  0.89298168  0.70098834  0.89526152  1
  Nb  Nb108  1  0.50407420  0.69599252  0.09556661  1
  Nb  Nb109  1  0.10000807  0.30312422  0.50563133  1
  Nb  Nb110  1  0.89435284  0.29544960  0.29066958  1
  Nb  Nb111  1  0.90556584  0.10888706  0.30272537  1
  Nb  Nb112  1  0.10493336  0.69742986  0.10371828  1
  Nb  Nb113  1  0.09847166  0.29807139  0.89994296  1
  Nb  Nb114  1  0.49699064  0.50067717  0.91170147  1
  Nb  Nb115  1  0.09619823  0.49774694  0.29941636  1
  Nb  Nb116  1  0.69696329  0.69602818  0.49640689  1
  Nb  Nb117  1  0.89965567  0.30066395  0.10450081  1
  Nb  Nb118  1  0.10193327  0.09348066  0.30160917  1
  Nb  Nb119  1  0.10053943  0.10186306  0.90349417  1
  Nb  Nb120  1  0.09990213  0.30123325  0.69333923  1
  Nb  Nb121  1  0.90702317  0.89623670  0.29319786  1
  Nb  Nb122  1  0.09515352  0.90420197  0.29610299  1
  Nb  Nb123  1  0.70259309  0.50225775  0.49570582  1
  Nb  Nb124  1  0.70183820  0.30062792  0.70179699  1
  Nb  Nb125  1  0.20136348  0.00085857  0.59513487  1
  Nb  Nb126  1  0.80195648  0.20610723  0.00048166  1
  Nb  Nb127  1  0.40156733  0.80484053  0.59217617  1
  Nb  Nb128  1  0.19401192  0.20805130  0.80150262  1
  Nb  Nb129  1  0.19462362  0.59678394  0.19677853  1
  Nb  Nb130  1  0.19665338  0.59275324  0.00434146  1
  Nb  Nb131  1  0.79241567  0.59597989  0.59588169  1
  Nb  Nb132  1  0.79496559  0.40487837  0.60101820  1
  Nb  Nb133  1  0.60525142  0.40181290  0.40121205  1
  Nb  Nb134  1  0.81095608  -0.00145224  0.20620839  1
  Nb  Nb135  1  0.60280256  0.20617328  0.80211662  1
  Nb  Nb136  1  0.20083068  0.20344370  0.60116315  1
  Nb  Nb137  1  0.39613271  0.60254057  0.39567930  1
  Nb  Nb138  1  0.39637605  0.19901991  0.59869193  1
  Nb  Nb139  1  0.60328456  0.79318467  0.00230994  1
  Nb  Nb140  1  0.19187368  0.39870350  0.39705077  1
  Nb  Nb141  1  0.00563646  -0.00180622  0.80643000  1
  Nb  Nb142  1  0.19519165  0.39845024  -0.00781897  1
  Nb  Nb143  1  0.40082553  -0.00182685  0.80349179  1
  Nb  Nb144  1  -0.00307636  0.80561184  0.80871724  1
  Nb  Nb145  1  0.19315620  -0.00188194  -0.00322996  1
  Nb  Nb146  1  0.80028884  0.79743501  0.00542431  1
  Nb  Nb147  1  -0.00415743  0.39314843  0.20170667  1
  Nb  Nb148  1  0.59699892  0.79879351  0.59424095  1
  Nb  Nb149  1  0.60291535  0.20075485  0.20148066  1
  Pd  Pd150  1  0.19583711  0.60528788  0.59958950  1
  Pd  Pd151  1  0.80919091  0.60283220  0.40479190  1
  Pd  Pd152  1  0.40426894  0.40738547  0.80213805  1
  Pd  Pd153  1  0.60010564  0.19720293  0.60380251  1
  Pd  Pd154  1  0.60309283  -0.00392589  0.39756175  1
  Pd  Pd155  1  0.61082486  0.21260240  0.00467304  1
  Pd  Pd156  1  0.79810625  -0.00062478  0.60325955  1
  Pd  Pd157  1  0.19856472  0.59204706  0.38996404  1
  Pd  Pd158  1  0.60754410  0.39989342  0.59087116  1
  Pd  Pd159  1  0.60099520  0.80024199  0.19155647  1
  Pd  Pd160  1  -0.00784971  0.60939113  0.59160950  1
  Pd  Pd161  1  0.80825697  0.41035067  0.79128677  1
  Pd  Pd162  1  0.81027525  -0.00234304  0.39130488  1
  Pd  Pd163  1  0.20102311  0.01142081  0.80390297  1
  Pd  Pd164  1  0.00390840  0.19676913  0.79712838  1
  Pd  Pd165  1  0.00116691  0.60851946  -0.00538342  1
  Pd  Pd166  1  0.81343765  -0.00296679  0.79263929  1
  Pd  Pd167  1  0.40570468  0.79900534  0.00259872  1
  Pd  Pd168  1  -0.00764178  0.19751250  0.00047887  1
  Pd  Pd169  1  0.39781437  0.39563384  0.59450047  1
  Pd  Pd170  1  0.60324717  0.60240781  0.60464230  1
  Pd  Pd171  1  -0.00181415  0.39747842  0.79510535  1
  Pd  Pd172  1  0.39238464  0.00276894  0.60328630  1
  Pd  Pd173  1  0.19510851  0.39760990  0.80465771  1
  Pd  Pd174  1  0.40157556  0.00173213  0.39698167  1
  Pd  Pd175  1  0.59797609  0.00975306  0.80160795  1
  Pd  Pd176  1  0.00481842  0.38981863  0.39081124  1
  Pd  Pd177  1  0.19160272  0.39690574  0.19998308  1
  Pd  Pd178  1  0.39369193  0.61028820  0.20256450  1
  Pd  Pd179  1  -0.00160721  0.20494871  0.40090755  1
  Pd  Pd180  1  -0.00242013  0.00693779  0.19959190  1
  Pd  Pd181  1  -0.00508649  0.00031635  0.39744038  1
  Pd  Pd182  1  0.79623786  0.58734251  0.79339774  1
  Pd  Pd183  1  0.60443881  0.40031723  -0.00118381  1
  Pd  Pd184  1  0.40542814  0.79664281  0.39763034  1
  Pd  Pd185  1  0.59010790  0.58648644  0.38832177  1
  Pd  Pd186  1  0.40165071  0.20728467  0.00967434  1
  Pd  Pd187  1  0.79533825  0.18797243  0.18753369  1
  Pd  Pd188  1  0.59274405  0.59278345  0.80789778  1
  Pd  Pd189  1  0.40391819  0.19191306  0.79524529  1
  Pd  Pd190  1  0.79735116  0.60761343  0.00317137  1
  Pd  Pd191  1  0.00044512  0.79391307  0.60856284  1
  Pd  Pd192  1  -0.00858304  0.79072423  -0.00324857  1
  Pd  Pd193  1  0.20262724  0.79927441  0.60360921  1
  Pd  Pd194  1  0.79732417  0.80074283  0.19680935  1
  Pd  Pd195  1  0.20159472  0.20104455  0.20091134  1
  Pd  Pd196  1  0.39712502  0.61270729  0.59588703  1
  Pd  Pd197  1  0.61396556  -0.00458477  0.59898907  1
  Pd  Pd198  1  0.19820907  -0.00839261  0.19104594  1
  Pd  Pd199  1  0.20315248  0.39895840  0.59173146  1
  Rh  Rh200  1  0.59126168  0.40075448  0.80867532  1
  Rh  Rh201  1  0.59886321  0.20451057  0.39345439  1
  Rh  Rh202  1  0.80541356  0.79812092  0.39637337  1
  Rh  Rh203  1  0.40263909  0.80279654  0.79352703  1
  Rh  Rh204  1  0.80393321  0.59968260  0.20423202  1
  Rh  Rh205  1  0.00213380  0.20140939  0.59312240  1
  Rh  Rh206  1  0.18831420  0.81102494  0.39307016  1
  Rh  Rh207  1  0.60455110  0.60587031  -0.00236036  1
  Rh  Rh208  1  -0.00832017  0.39584551  0.60547523  1
  Rh  Rh209  1  0.00191810  0.59331987  0.20605786  1
  Rh  Rh210  1  0.38518809  -0.01087097  -0.00865599  1
  Rh  Rh211  1  0.39356858  0.39477873  0.00108947  1
  Rh  Rh212  1  -0.00001512  0.39841731  0.00282023  1
  Rh  Rh213  1  0.20043159  0.79946879  0.00347239  1
  Rh  Rh214  1  0.79743897  0.00014478  0.01337836  1
  Rh  Rh215  1  0.20282141  0.19985127  -0.00585727  1
  Rh  Rh216  1  0.19063647  0.79946889  0.20157760  1
  Rh  Rh217  1  0.60032168  -0.01478576  -0.00059395  1
  Rh  Rh218  1  0.40589896  0.79999250  0.19830929  1
  Rh  Rh219  1  0.40539599  0.41451626  0.40515262  1
  Rh  Rh220  1  0.81339202  0.20150304  0.40692226  1
  Rh  Rh221  1  0.39242740  -0.00456149  0.20601852  1
  Rh  Rh222  1  0.79724074  0.39619362  0.40558193  1
  Rh  Rh223  1  0.00326394  0.60969776  0.80999431  1
  Rh  Rh224  1  0.59307103  0.79595226  0.80368487  1
  Rh  Rh225  1  -0.00012891  0.80361911  0.39389689  1
  Rh  Rh226  1  0.00314765  0.00227660  0.60213960  1
  Rh  Rh227  1  0.60035949  0.59771283  0.20324304  1
  Rh  Rh228  1  0.59712126  0.80562026  0.40320849  1
  Rh  Rh229  1  0.19126771  0.79029471  0.80028543  1
  Rh  Rh230  1  0.80507224  0.20826151  0.59651526  1
  Rh  Rh231  1  0.39191227  0.60478430  0.00063377  1
  Rh  Rh232  1  0.79238475  0.78983488  0.59202905  1
  Rh  Rh233  1  0.19518316  0.59970008  0.80921457  1
  Rh  Rh234  1  0.80208009  0.39910339  0.00088894  1
  Rh  Rh235  1  0.40215113  0.39198058  0.19112762  1
  Rh  Rh236  1  0.19301087  0.20761850  0.40478251  1
  Rh  Rh237  1  0.40067303  0.59488968  0.80250769  1
  Rh  Rh238  1  0.80812840  0.40870396  0.20392874  1
  Rh  Rh239  1  0.40744287  0.18742604  0.40756770  1
  Rh  Rh240  1  0.79553307  0.19920475  0.80365873  1
  Rh  Rh241  1  -0.00145551  0.60232552  0.40068108  1
  Rh  Rh242  1  0.40861677  0.20138965  0.19284952  1
  Rh  Rh243  1  -0.00021836  0.19734323  0.20217945  1
  Rh  Rh244  1  0.61092413  0.00710033  0.20884288  1
  Rh  Rh245  1  0.81495088  0.81701093  0.81562322  1
  Rh  Rh246  1  0.19027699  -0.00474249  0.40282391  1
  Rh  Rh247  1  0.60451828  0.39647804  0.20914691  1
  Rh  Rh248  1  0.00666297  0.00514627  -0.00108797  1
  Rh  Rh249  1  0.00306580  0.79706284  0.20137131  1
