# generated using pymatgen
data_ZrScNbPdRh
_symmetry_space_group_name_H-M   'P 1'
_cell_length_a   16.56283277
_cell_length_b   16.55304815
_cell_length_c   16.55872757
_cell_angle_alpha   89.95253029
_cell_angle_beta   90.01795103
_cell_angle_gamma   89.99768760
_symmetry_Int_Tables_number   1
_chemical_formula_structural   ZrScNbPdRh
_chemical_formula_sum   'Zr50 Sc50 Nb50 Pd50 Rh50'
_cell_volume   4539.82786054
_cell_formula_units_Z   50
loop_
 _symmetry_equiv_pos_site_id
 _symmetry_equiv_pos_as_xyz
  1  'x, y, z'
loop_
 _atom_site_type_symbol
 _atom_site_label
 _atom_site_symmetry_multiplicity
 _atom_site_fract_x
 _atom_site_fract_y
 _atom_site_fract_z
 _atom_site_occupancy
  Zr  Zr0  1  0.50255557  0.50105683  0.10099393  1
  Zr  Zr1  1  0.09906180  0.70347048  0.10542797  1
  Zr  Zr2  1  0.70682538  0.90154797  0.89377526  1
  Zr  Zr3  1  0.70085038  0.50204550  0.09887665  1
  Zr  Zr4  1  0.30186383  0.51476606  0.49879068  1
  Zr  Zr5  1  0.49723746  0.29594891  0.09566959  1
  Zr  Zr6  1  0.69938553  0.70737958  0.70346483  1
  Zr  Zr7  1  0.49785805  0.09580942  0.29770980  1
  Zr  Zr8  1  0.09727313  0.10631064  0.30556361  1
  Zr  Zr9  1  0.30150923  0.90548309  0.70246965  1
  Zr  Zr10  1  0.09243576  0.29516539  0.69784024  1
  Zr  Zr11  1  0.09390987  0.89880911  0.89128097  1
  Zr  Zr12  1  0.29945622  0.50732407  0.88599897  1
  Zr  Zr13  1  0.10411349  0.29433333  0.10031817  1
  Zr  Zr14  1  0.89759170  0.70195833  0.89660525  1
  Zr  Zr15  1  0.69826758  0.90078673  0.29491988  1
  Zr  Zr16  1  0.30125016  0.70684359  0.49732149  1
  Zr  Zr17  1  0.49774049  0.09916804  0.49978686  1
  Zr  Zr18  1  0.29650525  0.50186823  0.11526215  1
  Zr  Zr19  1  0.30742567  0.09772764  0.30488712  1
  Zr  Zr20  1  0.89696378  0.50273967  0.49195603  1
  Zr  Zr21  1  0.48684820  0.69755451  0.50494535  1
  Zr  Zr22  1  0.10001724  0.50193686  0.09978886  1
  Zr  Zr23  1  0.70123538  0.69737504  0.09687207  1
  Zr  Zr24  1  0.68500077  0.89625537  0.10275213  1
  Zr  Zr25  1  0.29994086  0.29893585  0.09904578  1
  Zr  Zr26  1  0.10008287  0.49930357  0.69767564  1
  Zr  Zr27  1  0.10016952  0.29088034  0.50073065  1
  Zr  Zr28  1  0.10201053  0.09290748  0.90511712  1
  Zr  Zr29  1  0.90020556  0.69903667  0.30128975  1
  Zr  Zr30  1  0.90325305  0.70509015  0.49309709  1
  Zr  Zr31  1  0.50302064  0.71166697  0.09551568  1
  Zr  Zr32  1  0.89941786  0.49162883  0.70163809  1
  Zr  Zr33  1  0.29631572  0.29049434  0.70126941  1
  Zr  Zr34  1  0.30395223  0.10338277  0.70683013  1
  Zr  Zr35  1  0.10304953  0.49315478  0.49773318  1
  Zr  Zr36  1  0.70264731  0.70375024  0.29441830  1
  Zr  Zr37  1  0.50786620  0.50608976  0.70181659  1
  Zr  Zr38  1  0.30203758  0.28384179  0.90118215  1
  Zr  Zr39  1  0.10081296  0.09932268  0.68932460  1
  Zr  Zr40  1  0.89665827  0.29513796  0.88671526  1
  Zr  Zr41  1  0.29649804  0.89364934  0.30775070  1
  Zr  Zr42  1  0.89847622  0.09388896  0.28700471  1
  Zr  Zr43  1  0.70297516  0.89870626  0.51126068  1
  Zr  Zr44  1  0.89363394  0.69446892  0.09676039  1
  Zr  Zr45  1  0.69935049  0.50691547  0.69626619  1
  Zr  Zr46  1  0.49289842  0.29904711  0.30115628  1
  Zr  Zr47  1  0.10101873  0.30338318  0.30941213  1
  Zr  Zr48  1  0.71116507  0.09480185  0.89373153  1
  Zr  Zr49  1  0.29371648  0.69470733  0.30740099  1
  Sc  Sc50  1  0.29135179  0.50653120  0.69519269  1
  Sc  Sc51  1  0.90576675  0.90955811  0.10715640  1
  Sc  Sc52  1  0.89611522  0.29708138  0.30193420  1
  Sc  Sc53  1  0.50669382  0.89562165  0.69938301  1
  Sc  Sc54  1  0.70765551  0.30250667  0.29895662  1
  Sc  Sc55  1  0.09937220  0.69819139  0.49607203  1
  Sc  Sc56  1  0.90140600  0.89480302  0.29947514  1
  Sc  Sc57  1  0.70625080  0.09288051  0.50305635  1
  Sc  Sc58  1  0.49388566  0.09431261  0.70355446  1
  Sc  Sc59  1  0.48988954  0.70177594  0.30336280  1
  Sc  Sc60  1  0.91311685  0.90239244  0.70181074  1
  Sc  Sc61  1  0.10020644  0.90294642  0.09945081  1
  Sc  Sc62  1  0.90131211  0.30903894  0.49656740  1
  Sc  Sc63  1  0.88760868  0.29929277  0.10245973  1
  Sc  Sc64  1  0.69983012  0.70308765  0.90106239  1
  Sc  Sc65  1  0.29669466  0.89622861  0.10142885  1
  Sc  Sc66  1  0.50479626  0.31013776  0.49483030  1
  Sc  Sc67  1  0.11321520  0.49875286  0.30214645  1
  Sc  Sc68  1  0.09628971  0.50468147  0.88695433  1
  Sc  Sc69  1  0.70606341  0.49270607  0.29919116  1
  Sc  Sc70  1  0.29834591  0.70747114  0.10787484  1
  Sc  Sc71  1  0.69596378  0.90352244  0.70369758  1
  Sc  Sc72  1  0.90253253  0.10185560  0.71101860  1
  Sc  Sc73  1  0.71059893  0.70006095  0.50559430  1
  Sc  Sc74  1  0.29437326  0.10839036  0.09619634  1
  Sc  Sc75  1  0.70705250  0.32142575  0.70474616  1
  Sc  Sc76  1  0.09734136  0.09713071  0.10347074  1
  Sc  Sc77  1  0.88762409  0.50207205  0.09380568  1
  Sc  Sc78  1  0.50337631  0.29632084  0.90310285  1
  Sc  Sc79  1  0.49111087  0.49068371  0.30212899  1
  Sc  Sc80  1  0.10114694  0.29456635  0.88859085  1
  Sc  Sc81  1  0.70700641  0.09580098  0.09954844  1
  Sc  Sc82  1  0.69620473  0.50044291  0.89907133  1
  Sc  Sc83  1  0.09854856  0.69957367  0.89194931  1
  Sc  Sc84  1  0.69879092  0.30523073  0.09533850  1
  Sc  Sc85  1  0.09575195  0.69965343  0.70178374  1
  Sc  Sc86  1  0.50395218  0.70129062  0.69815660  1
  Sc  Sc87  1  0.09385534  0.89160525  0.29771610  1
  Sc  Sc88  1  0.30208436  0.69215157  0.69601233  1
  Sc  Sc89  1  0.71147236  0.09823424  0.29895392  1
  Sc  Sc90  1  0.51074626  0.89979785  0.90079287  1
  Sc  Sc91  1  0.89475408  0.09566621  0.50283241  1
  Sc  Sc92  1  0.28650027  0.90276755  0.90458187  1
  Sc  Sc93  1  0.29627232  0.09164632  0.50496170  1
  Sc  Sc94  1  0.49623927  0.90509045  0.28750339  1
  Sc  Sc95  1  0.10004598  0.70664888  0.30312210  1
  Sc  Sc96  1  0.50852701  0.50767800  0.89382559  1
  Sc  Sc97  1  0.29950109  0.29852300  0.49877572  1
  Sc  Sc98  1  0.89905059  0.69412747  0.69758560  1
  Sc  Sc99  1  0.50179804  0.10404711  0.89958714  1
  Nb  Nb100  1  0.69559729  0.29500760  0.89817367  1
  Nb  Nb101  1  0.10027753  0.90957492  0.51062618  1
  Nb  Nb102  1  0.90779769  0.89984386  0.50242905  1
  Nb  Nb103  1  0.50518341  0.50307287  0.50099809  1
  Nb  Nb104  1  0.10022636  0.90182216  0.69641248  1
  Nb  Nb105  1  0.10037082  0.09535783  0.50137238  1
  Nb  Nb106  1  0.69355796  0.48587414  0.49916900  1
  Nb  Nb107  1  0.49826438  0.29863764  0.70356762  1
  Nb  Nb108  1  0.49988739  0.09176346  0.10631124  1
  Nb  Nb109  1  0.90325849  0.09928817  0.09859106  1
  Nb  Nb110  1  0.30119353  0.09925756  0.90302441  1
  Nb  Nb111  1  0.90228779  0.09085289  0.90470984  1
  Nb  Nb112  1  0.29876724  0.31176831  0.29622394  1
  Nb  Nb113  1  0.30050146  0.89316967  0.50203837  1
  Nb  Nb114  1  0.49599792  0.69692531  0.89696497  1
  Nb  Nb115  1  0.90750077  0.50357943  0.90101685  1
  Nb  Nb116  1  0.69830945  0.09903909  0.69762529  1
  Nb  Nb117  1  0.90121006  0.49589664  0.29704944  1
  Nb  Nb118  1  0.69995072  0.30400501  0.49968050  1
  Nb  Nb119  1  0.90562878  0.91090152  0.89790333  1
  Nb  Nb120  1  0.49812538  0.88872730  0.50430965  1
  Nb  Nb121  1  0.29667701  0.49503515  0.30016247  1
  Nb  Nb122  1  0.49992220  0.90958127  0.10158818  1
  Nb  Nb123  1  0.30188674  0.69949781  0.89940893  1
  Nb  Nb124  1  0.90240934  0.30013254  0.69961867  1
  Nb  Nb125  1  -0.00432584  0.59452081  0.20273469  1
  Nb  Nb126  1  0.60639004  0.20435330  0.60237357  1
  Nb  Nb127  1  0.59961436  0.59750273  0.40231467  1
  Nb  Nb128  1  0.79483006  0.20885155  0.60607571  1
  Nb  Nb129  1  0.20572520  0.59958212  -0.00178250  1
  Nb  Nb130  1  0.40097197  0.39709570  0.79659733  1
  Nb  Nb131  1  0.20183809  0.00252717  0.20827622  1
  Nb  Nb132  1  0.59874301  -0.00485043  0.40422645  1
  Nb  Nb133  1  0.39812949  0.79541369  0.80744234  1
  Nb  Nb134  1  0.20098028  0.40438301  -0.00452688  1
  Nb  Nb135  1  0.60387631  0.19696052  0.40105154  1
  Nb  Nb136  1  0.40299032  0.00109475  0.00491321  1
  Nb  Nb137  1  0.39296056  0.40931845  -0.00586853  1
  Nb  Nb138  1  0.00336927  -0.00135511  0.40747490  1
  Nb  Nb139  1  0.00002117  0.39657267  -0.00265279  1
  Nb  Nb140  1  -0.00107486  0.40389438  0.19671086  1
  Nb  Nb141  1  0.59721390  0.80110872  0.40472091  1
  Nb  Nb142  1  0.40486509  0.40363233  0.60547639  1
  Nb  Nb143  1  -0.00898108  0.19707260  -0.00284141  1
  Nb  Nb144  1  -0.00591324  0.80307502  -0.00526241  1
  Nb  Nb145  1  0.19783462  0.80983232  0.59990761  1
  Nb  Nb146  1  0.59977846  0.60137229  0.20407058  1
  Nb  Nb147  1  0.59737992  0.19684215  0.20170057  1
  Nb  Nb148  1  0.60838342  0.20326303  0.79264943  1
  Nb  Nb149  1  0.39667907  0.60374655  -0.00213729  1
  Pd  Pd150  1  0.80190576  0.19943685  0.00186872  1
  Pd  Pd151  1  0.80942331  0.00098243  0.61214732  1
  Pd  Pd152  1  0.59405902  0.00359648  0.59945836  1
  Pd  Pd153  1  0.79866512  0.20120641  0.40845975  1
  Pd  Pd154  1  0.59544846  0.39463704  0.60550899  1
  Pd  Pd155  1  0.40339185  -0.01006690  0.81465551  1
  Pd  Pd156  1  -0.00029658  0.59913419  0.59918312  1
  Pd  Pd157  1  0.40282781  -0.00584794  0.59916139  1
  Pd  Pd158  1  0.59416556  0.40238303  -0.00727862  1
  Pd  Pd159  1  0.00593369  0.79502344  0.59945115  1
  Pd  Pd160  1  0.79879051  0.40844825  0.80884662  1
  Pd  Pd161  1  0.60099254  0.80024196  -0.00749012  1
  Pd  Pd162  1  0.79051930  0.59451021  0.39875198  1
  Pd  Pd163  1  0.60523503  0.60883694  0.59178447  1
  Pd  Pd164  1  0.20750854  0.39665595  0.59710218  1
  Pd  Pd165  1  0.39968177  0.19916044  0.19734210  1
  Pd  Pd166  1  0.20489460  0.19777180  0.21009667  1
  Pd  Pd167  1  0.79442544  0.20063548  0.79080978  1
  Pd  Pd168  1  0.00799193  0.59391573  0.39093720  1
  Pd  Pd169  1  0.00561882  0.60227529  0.00114250  1
  Pd  Pd170  1  0.19222253  -0.00620386  0.39634508  1
  Pd  Pd171  1  0.39926334  0.80692413  -0.00643466  1
  Pd  Pd172  1  0.21033965  0.19944057  0.40296984  1
  Pd  Pd173  1  0.79851894  0.59647499  0.80494360  1
  Pd  Pd174  1  0.20363266  0.39439265  0.80057748  1
  Pd  Pd175  1  0.79541727  0.80733716  0.40283884  1
  Pd  Pd176  1  -0.01260864  0.19203443  0.40648131  1
  Pd  Pd177  1  0.80462909  -0.00928257  0.39960391  1
  Pd  Pd178  1  -0.00693763  0.20804459  0.19463051  1
  Pd  Pd179  1  0.80696102  0.81209435  0.00373882  1
  Pd  Pd180  1  0.80592029  0.80674022  0.19128012  1
  Pd  Pd181  1  -0.01299584  0.19656242  0.59408810  1
  Pd  Pd182  1  0.20607052  0.79380588  0.78945821  1
  Pd  Pd183  1  0.80367891  0.40023021  -0.01090497  1
  Pd  Pd184  1  0.39909893  0.20382041  0.40630825  1
  Pd  Pd185  1  0.19034408  0.79501900  -0.00217520  1
  Pd  Pd186  1  0.40698746  0.20734119  0.59352890  1
  Pd  Pd187  1  0.19506614  0.00512959  0.79707863  1
  Pd  Pd188  1  0.60176024  0.39679334  0.20574789  1
  Pd  Pd189  1  0.40629107  -0.01051000  0.40700973  1
  Pd  Pd190  1  0.39913565  0.80212837  0.20285262  1
  Pd  Pd191  1  0.79971962  -0.00904121  0.00811837  1
  Pd  Pd192  1  -0.00216699  0.40010629  0.59558161  1
  Pd  Pd193  1  0.39344845  0.40568987  0.41017682  1
  Pd  Pd194  1  0.59873306  0.00720258  -0.00549763  1
  Pd  Pd195  1  0.60579935  0.19022567  0.00226186  1
  Pd  Pd196  1  0.80220134  0.59546286  0.59512796  1
  Pd  Pd197  1  0.80986213  0.80686886  0.60894905  1
  Pd  Pd198  1  0.40511350  0.60389265  0.20030012  1
  Pd  Pd199  1  0.80863662  0.80846769  0.79146362  1
  Rh  Rh200  1  -0.00062686  0.40092515  0.80173229  1
  Rh  Rh201  1  0.00974938  0.00271477  0.20893808  1
  Rh  Rh202  1  0.59020287  0.79371379  0.20801204  1
  Rh  Rh203  1  0.80527815  0.39983064  0.19988616  1
  Rh  Rh204  1  0.39170466  0.80345426  0.61370574  1
  Rh  Rh205  1  0.59623312  0.60416020  0.00445974  1
  Rh  Rh206  1  0.20278264  0.19496294  0.59562221  1
  Rh  Rh207  1  0.80306442  -0.00412943  0.79358184  1
  Rh  Rh208  1  -0.00552014  0.00600788  0.59866916  1
  Rh  Rh209  1  0.60808831  0.60944098  0.79987284  1
  Rh  Rh210  1  0.60328830  0.79315313  0.59495194  1
  Rh  Rh211  1  0.60789573  0.00874415  0.20635195  1
  Rh  Rh212  1  0.20027664  0.80659300  0.20354034  1
  Rh  Rh213  1  0.59352528  0.79698310  0.80313476  1
  Rh  Rh214  1  0.79323472  0.20022369  0.19366298  1
  Rh  Rh215  1  0.79388739  0.59564571  -0.01126394  1
  Rh  Rh216  1  0.39867336  0.39647146  0.19480261  1
  Rh  Rh217  1  0.40225991  0.59233324  0.60711479  1
  Rh  Rh218  1  0.40514613  0.19184256  0.00049633  1
  Rh  Rh219  1  0.60056878  0.00766660  0.79966391  1
  Rh  Rh220  1  0.19745474  0.59945435  0.39970452  1
  Rh  Rh221  1  0.00087672  -0.00120763  0.00297536  1
  Rh  Rh222  1  0.20636421  -0.00061188  0.60330075  1
  Rh  Rh223  1  0.79889928  0.59527938  0.20554533  1
  Rh  Rh224  1  0.60177471  0.39929335  0.39359688  1
  Rh  Rh225  1  0.19258659  0.61196127  0.59686983  1
  Rh  Rh226  1  0.00512357  0.00618245  0.79509130  1
  Rh  Rh227  1  0.19360136  0.18967155  0.79921968  1
  Rh  Rh228  1  0.19459119  0.60755928  0.79802242  1
  Rh  Rh229  1  0.18934583  0.20034921  -0.00667930  1
  Rh  Rh230  1  -0.00438579  0.59965489  0.79252664  1
  Rh  Rh231  1  0.79831689  -0.00386470  0.19420371  1
  Rh  Rh232  1  0.19449587  0.39288480  0.19895061  1
  Rh  Rh233  1  0.20743960  0.00265463  0.01134027  1
  Rh  Rh234  1  0.40454907  0.60189306  0.79692567  1
  Rh  Rh235  1  0.40407402  0.59277414  0.39348801  1
  Rh  Rh236  1  0.00300137  0.19127321  0.80554285  1
  Rh  Rh237  1  0.40929423  0.20067443  0.80466734  1
  Rh  Rh238  1  0.59596068  0.39284520  0.80518804  1
  Rh  Rh239  1  0.80077184  0.40046357  0.40084231  1
  Rh  Rh240  1  0.00458316  0.80933490  0.40885576  1
  Rh  Rh241  1  0.20730420  0.39869263  0.40663841  1
  Rh  Rh242  1  0.00080601  0.40334089  0.39336002  1
  Rh  Rh243  1  0.38417650  0.00041618  0.18861379  1
  Rh  Rh244  1  0.19106516  0.80552940  0.41132973  1
  Rh  Rh245  1  0.19409928  0.60839394  0.20485533  1
  Rh  Rh246  1  -0.00536142  0.79881820  0.80198983  1
  Rh  Rh247  1  0.40745620  0.80653415  0.39496667  1
  Rh  Rh248  1  0.80478390  0.40005988  0.59514768  1
  Rh  Rh249  1  -0.00760045  0.79054505  0.19118417  1
