# generated using pymatgen
data_ZrScNbPdRh
_symmetry_space_group_name_H-M   'P 1'
_cell_length_a   16.56109490
_cell_length_b   16.55638282
_cell_length_c   16.56039784
_cell_angle_alpha   90.00136733
_cell_angle_beta   89.98790464
_cell_angle_gamma   90.05030213
_symmetry_Int_Tables_number   1
_chemical_formula_structural   ZrScNbPdRh
_chemical_formula_sum   'Zr50 Sc50 Nb50 Pd50 Rh50'
_cell_volume   4540.72388882
_cell_formula_units_Z   50
loop_
 _symmetry_equiv_pos_site_id
 _symmetry_equiv_pos_as_xyz
  1  'x, y, z'
loop_
 _atom_site_type_symbol
 _atom_site_label
 _atom_site_symmetry_multiplicity
 _atom_site_fract_x
 _atom_site_fract_y
 _atom_site_fract_z
 _atom_site_occupancy
  Zr  Zr0  1  0.89176085  0.69583951  0.69394936  1
  Zr  Zr1  1  0.89391615  0.10096269  0.70120853  1
  Zr  Zr2  1  0.10586435  0.29947365  0.50121965  1
  Zr  Zr3  1  0.70436393  0.29102358  0.69928292  1
  Zr  Zr4  1  0.09374577  0.71286575  0.09952456  1
  Zr  Zr5  1  0.70395798  0.31162225  0.30449242  1
  Zr  Zr6  1  0.89589816  0.89964842  0.70287207  1
  Zr  Zr7  1  0.89781947  0.50036352  0.09894448  1
  Zr  Zr8  1  0.09627300  0.29626534  0.10589213  1
  Zr  Zr9  1  0.30315618  0.29339610  0.89426518  1
  Zr  Zr10  1  0.70534890  0.49864765  0.29955085  1
  Zr  Zr11  1  0.89614778  0.08900710  0.49875631  1
  Zr  Zr12  1  0.09080638  0.29832687  0.90086799  1
  Zr  Zr13  1  0.69635601  0.69489936  0.29812554  1
  Zr  Zr14  1  0.30192040  0.50558755  0.89753814  1
  Zr  Zr15  1  0.29011547  0.69741317  0.10081181  1
  Zr  Zr16  1  0.51038246  0.50010061  0.30718314  1
  Zr  Zr17  1  0.89150656  0.49620802  0.30891155  1
  Zr  Zr18  1  0.09367574  0.09913954  0.89305930  1
  Zr  Zr19  1  0.90322351  0.10235530  0.30009996  1
  Zr  Zr20  1  0.70755670  0.50318763  0.09944694  1
  Zr  Zr21  1  0.70893198  0.89973470  0.50226745  1
  Zr  Zr22  1  0.10064947  0.50259807  0.89752345  1
  Zr  Zr23  1  0.50337619  0.90218248  0.09794015  1
  Zr  Zr24  1  0.09971973  0.69627972  0.70308444  1
  Zr  Zr25  1  0.29553778  0.90390955  0.08875695  1
  Zr  Zr26  1  0.89791291  0.70586875  0.90251506  1
  Zr  Zr27  1  0.51017196  0.70524865  0.10347794  1
  Zr  Zr28  1  0.10242182  0.28792172  0.69796318  1
  Zr  Zr29  1  0.90170759  0.49562651  0.90030014  1
  Zr  Zr30  1  0.89753301  0.29954140  0.08925925  1
  Zr  Zr31  1  0.29969906  0.90165495  0.88910057  1
  Zr  Zr32  1  0.29537236  0.70026586  0.30099751  1
  Zr  Zr33  1  0.11060607  0.89738869  0.69532148  1
  Zr  Zr34  1  0.29805475  0.10520232  0.70530158  1
  Zr  Zr35  1  0.69780594  0.09770690  0.70444466  1
  Zr  Zr36  1  0.90098629  0.50667922  0.69924882  1
  Zr  Zr37  1  0.29952844  0.10171075  0.30349065  1
  Zr  Zr38  1  0.69790431  0.29301915  0.09455760  1
  Zr  Zr39  1  0.90088692  0.09703609  0.10065463  1
  Zr  Zr40  1  0.09654266  0.10879879  0.29244219  1
  Zr  Zr41  1  0.29435859  0.50199450  0.29763568  1
  Zr  Zr42  1  0.50322399  0.10549513  0.69783508  1
  Zr  Zr43  1  0.09885359  0.50402851  0.09732201  1
  Zr  Zr44  1  0.70806631  0.49732507  0.48644750  1
  Zr  Zr45  1  0.10896198  0.69616858  0.89684894  1
  Zr  Zr46  1  0.29271373  0.10440434  0.09881086  1
  Zr  Zr47  1  0.89923932  0.29626722  0.89488963  1
  Zr  Zr48  1  0.70168531  0.09926606  0.51542595  1
  Zr  Zr49  1  0.70408318  0.50051307  0.70221394  1
  Sc  Sc50  1  0.50820307  0.90291054  0.49452534  1
  Sc  Sc51  1  0.69539569  0.89912423  0.08848621  1
  Sc  Sc52  1  0.09339801  0.09771118  0.50307200  1
  Sc  Sc53  1  0.29344276  0.90624222  0.31137366  1
  Sc  Sc54  1  0.10037376  0.70494112  0.29259559  1
  Sc  Sc55  1  0.49829931  0.29271229  0.50477119  1
  Sc  Sc56  1  0.70597901  0.70265525  0.50249209  1
  Sc  Sc57  1  0.31068800  0.71139169  0.70713306  1
  Sc  Sc58  1  0.91215807  0.29707403  0.49841056  1
  Sc  Sc59  1  0.50738649  0.10878605  0.08618258  1
  Sc  Sc60  1  0.09796144  0.89691152  0.30257834  1
  Sc  Sc61  1  0.51200788  0.29383533  0.31040201  1
  Sc  Sc62  1  0.90187490  0.30111552  0.30015770  1
  Sc  Sc63  1  0.49889718  0.09919382  0.49577665  1
  Sc  Sc64  1  0.49501521  0.29916303  0.70171164  1
  Sc  Sc65  1  0.70760496  0.10157977  0.09791748  1
  Sc  Sc66  1  0.49474919  0.50458853  0.50849988  1
  Sc  Sc67  1  0.09979569  0.09597479  0.70121753  1
  Sc  Sc68  1  0.28848178  0.49849548  0.09999427  1
  Sc  Sc69  1  0.28276191  0.89401996  0.50210341  1
  Sc  Sc70  1  0.09715851  0.48721449  0.50448157  1
  Sc  Sc71  1  0.70490505  0.29863738  0.89749360  1
  Sc  Sc72  1  0.50379224  0.88849123  0.70469303  1
  Sc  Sc73  1  0.10065828  0.90375337  0.89948638  1
  Sc  Sc74  1  0.69905616  0.09825977  0.89758373  1
  Sc  Sc75  1  0.31706999  0.48789684  0.69560304  1
  Sc  Sc76  1  0.90394358  0.70277991  0.29324563  1
  Sc  Sc77  1  0.70366519  0.11085142  0.29994647  1
  Sc  Sc78  1  0.09090688  0.30356673  0.30257304  1
  Sc  Sc79  1  0.69044852  0.89154364  0.30989591  1
  Sc  Sc80  1  0.50207173  0.69771588  0.88249120  1
  Sc  Sc81  1  0.90236020  0.70271792  0.09293461  1
  Sc  Sc82  1  0.70555372  0.49316414  0.89586970  1
  Sc  Sc83  1  0.89303666  0.90220040  0.89923032  1
  Sc  Sc84  1  0.09566324  0.49250897  0.29974993  1
  Sc  Sc85  1  0.70093796  0.89909986  0.70484811  1
  Sc  Sc86  1  0.30677845  0.10136408  0.49820714  1
  Sc  Sc87  1  0.69956360  0.29427276  0.49593405  1
  Sc  Sc88  1  0.28580003  0.30458468  0.29245330  1
  Sc  Sc89  1  0.89420043  0.90547134  0.30035725  1
  Sc  Sc90  1  0.90362976  0.89953776  0.09634337  1
  Sc  Sc91  1  0.89828725  0.09580282  0.89849765  1
  Sc  Sc92  1  0.50494314  0.50660247  0.71059681  1
  Sc  Sc93  1  0.30508554  0.29129720  0.69218030  1
  Sc  Sc94  1  0.29586327  0.30289881  0.09809875  1
  Sc  Sc95  1  0.49946761  0.70050646  0.51058321  1
  Sc  Sc96  1  0.10531434  0.71072290  0.51146312  1
  Sc  Sc97  1  0.51061595  0.70401074  0.30400064  1
  Sc  Sc98  1  0.09380589  0.50521947  0.70229971  1
  Sc  Sc99  1  0.30251147  0.09384152  0.89379274  1
  Nb  Nb100  1  0.49052722  0.09289620  0.30356802  1
  Nb  Nb101  1  0.51250036  0.69664960  0.69936560  1
  Nb  Nb102  1  0.50053820  0.29954606  0.91613046  1
  Nb  Nb103  1  0.50055893  0.30202697  0.09438597  1
  Nb  Nb104  1  0.89802795  0.69648587  0.50595230  1
  Nb  Nb105  1  0.49647128  0.90192600  0.30274827  1
  Nb  Nb106  1  0.29994195  0.90565607  0.69973646  1
  Nb  Nb107  1  0.09581799  0.89611725  0.50268179  1
  Nb  Nb108  1  0.89600893  0.29807471  0.69994282  1
  Nb  Nb109  1  0.70923145  0.70827457  0.90833604  1
  Nb  Nb110  1  0.89837770  0.51078879  0.50591741  1
  Nb  Nb111  1  0.09551343  0.09922105  0.09694949  1
  Nb  Nb112  1  0.50058222  0.49751447  0.09336750  1
  Nb  Nb113  1  0.30103533  0.49785894  0.49904888  1
  Nb  Nb114  1  0.30259534  0.69834112  0.90073786  1
  Nb  Nb115  1  0.30202103  0.69622036  0.49804549  1
  Nb  Nb116  1  0.89691673  0.89316333  0.50414590  1
  Nb  Nb117  1  0.70143339  0.70266305  0.09559365  1
  Nb  Nb118  1  0.70386627  0.90023946  0.89807925  1
  Nb  Nb119  1  0.49848912  0.49778092  0.90617878  1
  Nb  Nb120  1  0.29864702  0.30780393  0.50430737  1
  Nb  Nb121  1  0.50246208  0.10213330  0.89291694  1
  Nb  Nb122  1  0.50484168  0.91230453  0.90499250  1
  Nb  Nb123  1  0.09888963  0.90327443  0.09709483  1
  Nb  Nb124  1  0.69205893  0.70041954  0.70699041  1
  Nb  Nb125  1  0.19594995  0.00171620  0.19355978  1
  Nb  Nb126  1  0.60705928  0.40063880  0.60227231  1
  Nb  Nb127  1  0.39967009  0.80383447  0.20108976  1
  Nb  Nb128  1  0.60040479  0.60002751  -0.00356473  1
  Nb  Nb129  1  0.79107512  0.79762167  0.19397403  1
  Nb  Nb130  1  0.40718513  0.20202771  0.19974514  1
  Nb  Nb131  1  0.39610969  -0.00699695  0.60532610  1
  Nb  Nb132  1  -0.00544492  0.80087736  0.41205315  1
  Nb  Nb133  1  0.40700170  0.59854993  0.19531892  1
  Nb  Nb134  1  0.40081682  0.79684797  -0.00498892  1
  Nb  Nb135  1  0.40049360  0.00254406  0.19995879  1
  Nb  Nb136  1  0.21149849  0.59870526  0.59557328  1
  Nb  Nb137  1  0.19979065  0.20426220  0.40340564  1
  Nb  Nb138  1  0.59091857  0.00333314  0.20555754  1
  Nb  Nb139  1  0.41075702  0.39962567  0.20007144  1
  Nb  Nb140  1  0.19200804  0.19643712  -0.00229445  1
  Nb  Nb141  1  0.59595456  0.39789613  0.19078812  1
  Nb  Nb142  1  0.80306630  0.40125797  0.60042925  1
  Nb  Nb143  1  0.39424326  0.40157150  0.39958511  1
  Nb  Nb144  1  0.20024359  0.39677845  0.79923463  1
  Nb  Nb145  1  0.39714864  0.79856351  0.39945943  1
  Nb  Nb146  1  0.19789205  0.59880354  0.40868775  1
  Nb  Nb147  1  0.00010118  0.79747983  0.79701275  1
  Nb  Nb148  1  0.40535952  0.60259597  -0.00036895  1
  Nb  Nb149  1  -0.00030042  0.60515910  0.40964309  1
  Pd  Pd150  1  0.40152277  0.00461475  -0.00031242  1
  Pd  Pd151  1  0.39807233  0.80670445  0.59174236  1
  Pd  Pd152  1  0.60393096  0.80458269  0.80756999  1
  Pd  Pd153  1  0.60940552  0.59818787  0.81115331  1
  Pd  Pd154  1  0.60765203  0.00931347  0.00148989  1
  Pd  Pd155  1  0.39797289  0.60499730  0.61264545  1
  Pd  Pd156  1  -0.00330769  0.79991366  0.60423038  1
  Pd  Pd157  1  0.80559966  0.20262424  0.40590857  1
  Pd  Pd158  1  0.21673814  0.59169616  0.78248197  1
  Pd  Pd159  1  0.39393771  0.19535633  0.00033009  1
  Pd  Pd160  1  0.39947103  0.60187369  0.39331503  1
  Pd  Pd161  1  0.38973523  0.21539908  0.39333389  1
  Pd  Pd162  1  0.00295466  -0.00721937  0.39985231  1
  Pd  Pd163  1  0.79740732  0.60397836  0.80677717  1
  Pd  Pd164  1  0.60968774  0.00872081  0.39565039  1
  Pd  Pd165  1  0.78309174  -0.01160791  0.20221187  1
  Pd  Pd166  1  0.40657849  0.80377442  0.80456654  1
  Pd  Pd167  1  -0.00414769  -0.00423644  -0.00549825  1
  Pd  Pd168  1  0.00409405  0.39682011  0.79124852  1
  Pd  Pd169  1  0.00024614  0.59863541  0.20731723  1
  Pd  Pd170  1  0.59453313  0.19774599  0.20139282  1
  Pd  Pd171  1  0.80701609  0.60973213  0.19848125  1
  Pd  Pd172  1  0.19891710  0.39211264  -0.00751452  1
  Pd  Pd173  1  0.59576555  0.20963609  0.80724525  1
  Pd  Pd174  1  0.00054128  0.60301338  -0.00281952  1
  Pd  Pd175  1  -0.00604452  0.39893808  0.60518874  1
  Pd  Pd176  1  0.59175003  -0.00696369  0.60674045  1
  Pd  Pd177  1  0.59894217  0.59247929  0.19350401  1
  Pd  Pd178  1  0.19968325  0.40597678  0.61296722  1
  Pd  Pd179  1  0.60714259  0.59364409  0.59542920  1
  Pd  Pd180  1  0.41088382  -0.00130940  0.79155983  1
  Pd  Pd181  1  -0.00610136  0.40103744  0.19782357  1
  Pd  Pd182  1  0.61006601  0.40362208  -0.00088545  1
  Pd  Pd183  1  0.18939447  0.00854834  0.40088629  1
  Pd  Pd184  1  0.80681597  0.79320439  0.39198795  1
  Pd  Pd185  1  0.59981629  0.60647185  0.41395358  1
  Pd  Pd186  1  -0.00284001  -0.00309528  0.60435415  1
  Pd  Pd187  1  0.60307855  0.19089906  0.40422133  1
  Pd  Pd188  1  0.59294764  0.79471957  -0.01465832  1
  Pd  Pd189  1  0.20542326  0.00882339  0.59444303  1
  Pd  Pd190  1  0.20061714  0.80253103  -0.00968377  1
  Pd  Pd191  1  -0.00372260  0.19293581  0.60072403  1
  Pd  Pd192  1  0.60669073  0.80252191  0.59815903  1
  Pd  Pd193  1  0.38933804  0.40520273  0.00501534  1
  Pd  Pd194  1  0.40341331  0.39433611  0.80333196  1
  Pd  Pd195  1  0.20416751  0.81446715  0.20223938  1
  Pd  Pd196  1  0.80448360  0.20702650  0.20093872  1
  Pd  Pd197  1  0.00411892  -0.00738444  0.20228007  1
  Pd  Pd198  1  0.79118843  0.00275495  0.39410919  1
  Pd  Pd199  1  0.59459301  0.39295917  0.79855860  1
  Rh  Rh200  1  0.58791245  0.40001222  0.41319570  1
  Rh  Rh201  1  0.20410508  0.19445873  0.59059311  1
  Rh  Rh202  1  0.39522573  -0.01392779  0.41027138  1
  Rh  Rh203  1  0.79984515  -0.00510467  0.60575020  1
  Rh  Rh204  1  0.80758286  0.61063271  0.39702147  1
  Rh  Rh205  1  0.40221516  0.60088421  0.79888717  1
  Rh  Rh206  1  0.79910320  0.39798154  -0.00233936  1
  Rh  Rh207  1  0.19389515  0.79149918  0.40195664  1
  Rh  Rh208  1  0.59358802  0.79445409  0.40874016  1
  Rh  Rh209  1  0.00072912  -0.00922802  0.79498202  1
  Rh  Rh210  1  0.19300707  0.40193676  0.19753067  1
  Rh  Rh211  1  0.80594117  0.39738153  0.79298476  1
  Rh  Rh212  1  0.19158691  0.00748907  -0.00142785  1
  Rh  Rh213  1  -0.00992537  0.20311563  0.19677985  1
  Rh  Rh214  1  0.59790568  -0.00441976  0.80159156  1
  Rh  Rh215  1  0.39932301  0.19115517  0.59806275  1
  Rh  Rh216  1  0.19950637  0.19818351  0.19875571  1
  Rh  Rh217  1  0.79606350  0.39286144  0.19359482  1
  Rh  Rh218  1  0.19700133  0.20317667  0.80607672  1
  Rh  Rh219  1  0.59838477  0.20447094  0.59932355  1
  Rh  Rh220  1  0.40962031  0.20261045  0.80558103  1
  Rh  Rh221  1  0.01407446  0.60032616  0.59141435  1
  Rh  Rh222  1  0.41119729  0.39702005  0.59210330  1
  Rh  Rh223  1  -0.00460271  0.40847332  0.40339246  1
  Rh  Rh224  1  0.81246733  0.39102183  0.41328979  1
  Rh  Rh225  1  0.80111777  0.19377403  -0.00612664  1
  Rh  Rh226  1  -0.00914315  0.60842595  0.80579182  1
  Rh  Rh227  1  0.79488897  0.00128588  0.80209311  1
  Rh  Rh228  1  0.21034997  0.79302753  0.60774383  1
  Rh  Rh229  1  -0.00069123  0.40367680  0.00237643  1
  Rh  Rh230  1  0.80763186  0.20580561  0.59338446  1
  Rh  Rh231  1  0.20257291  0.39849207  0.39982986  1
  Rh  Rh232  1  0.19708275  0.00050911  0.79858830  1
  Rh  Rh233  1  -0.00018745  0.19439533  0.00108188  1
  Rh  Rh234  1  0.80173571  0.19476001  0.80409525  1
  Rh  Rh235  1  0.18968048  0.59679961  0.20446916  1
  Rh  Rh236  1  0.60461425  0.19760505  -0.00869233  1
  Rh  Rh237  1  0.00564207  0.19801260  0.40054675  1
  Rh  Rh238  1  0.20009031  0.60222987  0.00294515  1
  Rh  Rh239  1  0.78781490  0.59910388  0.60007797  1
  Rh  Rh240  1  0.79242755  0.79751559  0.60697856  1
  Rh  Rh241  1  0.19830872  0.80135337  0.80012952  1
  Rh  Rh242  1  0.79893157  -0.00123018  -0.00161506  1
  Rh  Rh243  1  0.80129770  0.80799932  0.00654936  1
  Rh  Rh244  1  0.00475367  0.80439053  -0.00965154  1
  Rh  Rh245  1  -0.00703013  0.19703986  0.79244756  1
  Rh  Rh246  1  -0.00973324  0.80860621  0.20359882  1
  Rh  Rh247  1  0.79925136  0.79617056  0.79738423  1
  Rh  Rh248  1  0.60497887  0.81096844  0.20229334  1
  Rh  Rh249  1  0.79634160  0.59943148  -0.00557804  1
