# generated using pymatgen
data_ZrScNbPdRh
_symmetry_space_group_name_H-M   'P 1'
_cell_length_a   16.56183571
_cell_length_b   16.55822334
_cell_length_c   16.56032790
_cell_angle_alpha   90.02455489
_cell_angle_beta   90.01397468
_cell_angle_gamma   90.00869897
_symmetry_Int_Tables_number   1
_chemical_formula_structural   ZrScNbPdRh
_chemical_formula_sum   'Zr50 Sc50 Nb50 Pd50 Rh50'
_cell_volume   4541.41387297
_cell_formula_units_Z   50
loop_
 _symmetry_equiv_pos_site_id
 _symmetry_equiv_pos_as_xyz
  1  'x, y, z'
loop_
 _atom_site_type_symbol
 _atom_site_label
 _atom_site_symmetry_multiplicity
 _atom_site_fract_x
 _atom_site_fract_y
 _atom_site_fract_z
 _atom_site_occupancy
  Zr  Zr0  1  0.50643929  0.29862868  0.50049184  1
  Zr  Zr1  1  0.49718722  0.89976866  0.70086118  1
  Zr  Zr2  1  0.09388353  0.89697615  0.50502177  1
  Zr  Zr3  1  0.89816727  0.09903402  0.10937929  1
  Zr  Zr4  1  0.50153330  0.29300900  0.30405634  1
  Zr  Zr5  1  0.70127129  0.50570679  0.29823321  1
  Zr  Zr6  1  0.10223897  0.10448123  0.09679005  1
  Zr  Zr7  1  0.90074276  0.69468565  0.70352641  1
  Zr  Zr8  1  0.90434149  0.50159938  0.90327309  1
  Zr  Zr9  1  0.69808793  0.90491383  0.10813779  1
  Zr  Zr10  1  0.49268820  0.50489802  0.50667412  1
  Zr  Zr11  1  0.90688309  0.69908191  0.50678257  1
  Zr  Zr12  1  0.69083013  0.70207726  0.30100615  1
  Zr  Zr13  1  0.10510307  0.90128556  0.30105128  1
  Zr  Zr14  1  0.90482212  0.50444091  0.29347972  1
  Zr  Zr15  1  0.90769323  0.49818853  0.50194855  1
  Zr  Zr16  1  0.09613469  0.70985147  0.69405120  1
  Zr  Zr17  1  0.70803610  0.29241004  0.90925781  1
  Zr  Zr18  1  0.29827229  0.50559279  0.49812048  1
  Zr  Zr19  1  0.69722585  0.50416144  0.89920258  1
  Zr  Zr20  1  0.29704468  0.10514438  0.90751110  1
  Zr  Zr21  1  0.69793121  0.70400956  0.50207214  1
  Zr  Zr22  1  0.50645073  0.30615280  0.70192703  1
  Zr  Zr23  1  0.09865026  0.50243341  0.49687530  1
  Zr  Zr24  1  0.49971904  0.70119663  0.90865496  1
  Zr  Zr25  1  0.70119475  0.10441323  0.09370406  1
  Zr  Zr26  1  0.09034118  0.10118560  0.29520031  1
  Zr  Zr27  1  0.30442570  0.28861646  0.10193832  1
  Zr  Zr28  1  0.30066465  0.69478433  0.49578934  1
  Zr  Zr29  1  0.50099927  0.10285639  0.89840772  1
  Zr  Zr30  1  0.89306569  0.29524402  0.69296753  1
  Zr  Zr31  1  0.29418799  0.50123730  0.29799728  1
  Zr  Zr32  1  0.89999725  0.88926272  0.09442360  1
  Zr  Zr33  1  0.70614466  0.09753222  0.49417002  1
  Zr  Zr34  1  0.29737996  0.30517996  0.89574387  1
  Zr  Zr35  1  0.09780562  0.10141929  0.90748124  1
  Zr  Zr36  1  0.89952293  0.89878738  0.90324243  1
  Zr  Zr37  1  0.50351495  0.89141079  0.89605652  1
  Zr  Zr38  1  0.70434389  0.90486365  0.90248946  1
  Zr  Zr39  1  0.70403945  0.29872934  0.30780955  1
  Zr  Zr40  1  0.09399040  0.31168005  0.29071196  1
  Zr  Zr41  1  0.89947393  0.29582970  0.49703056  1
  Zr  Zr42  1  0.49267274  0.10532476  0.10146113  1
  Zr  Zr43  1  0.28725823  0.50357881  0.90102919  1
  Zr  Zr44  1  0.29103893  0.09894890  0.69489347  1
  Zr  Zr45  1  0.29809651  0.09311021  0.10150480  1
  Zr  Zr46  1  0.29955138  0.09487765  0.29438549  1
  Zr  Zr47  1  0.89557341  0.50323670  0.69983396  1
  Zr  Zr48  1  0.89733097  0.90457784  0.49965014  1
  Zr  Zr49  1  0.50131624  0.51125306  0.09883107  1
  Sc  Sc50  1  0.49781647  0.70270387  0.49475190  1
  Sc  Sc51  1  0.09630476  0.09203484  0.69355788  1
  Sc  Sc52  1  0.89968489  0.10089484  0.50488230  1
  Sc  Sc53  1  0.91205376  0.69852373  0.91252680  1
  Sc  Sc54  1  0.69954225  0.90148084  0.49704946  1
  Sc  Sc55  1  0.29993491  0.89732740  0.29896410  1
  Sc  Sc56  1  0.10485512  0.68593131  0.90163357  1
  Sc  Sc57  1  0.49935598  0.70283741  0.70187624  1
  Sc  Sc58  1  0.29677931  0.30465332  0.69983263  1
  Sc  Sc59  1  0.49738606  0.49521016  0.70367036  1
  Sc  Sc60  1  0.08596494  0.70600572  0.10372954  1
  Sc  Sc61  1  0.90641547  0.91039975  0.29843279  1
  Sc  Sc62  1  0.50473242  0.50596856  0.30949492  1
  Sc  Sc63  1  0.29676150  0.29953397  0.50681972  1
  Sc  Sc64  1  0.49993552  0.70664009  0.29867332  1
  Sc  Sc65  1  0.71207072  0.50545435  0.09831167  1
  Sc  Sc66  1  0.09928773  0.49565993  0.70243797  1
  Sc  Sc67  1  0.70381632  0.08762580  0.29608266  1
  Sc  Sc68  1  0.69062921  0.69785370  0.09611971  1
  Sc  Sc69  1  0.49652020  0.29678588  0.89339169  1
  Sc  Sc70  1  0.09334414  0.50275990  0.29489292  1
  Sc  Sc71  1  0.10083026  0.90202005  0.10276213  1
  Sc  Sc72  1  0.50167365  0.90048583  0.49221792  1
  Sc  Sc73  1  0.91458294  0.90160823  0.69911140  1
  Sc  Sc74  1  0.70213870  0.29484216  0.50230434  1
  Sc  Sc75  1  0.30143482  0.10152105  0.50110862  1
  Sc  Sc76  1  0.89187112  0.09069871  0.89550865  1
  Sc  Sc77  1  0.09257378  0.10771250  0.50468747  1
  Sc  Sc78  1  0.10110537  0.69818734  0.49878658  1
  Sc  Sc79  1  0.49526836  0.10649515  0.69460832  1
  Sc  Sc80  1  0.90159691  0.30011648  0.30003307  1
  Sc  Sc81  1  0.69894765  0.49533215  0.49466143  1
  Sc  Sc82  1  0.10223442  0.30379511  0.69089656  1
  Sc  Sc83  1  0.69511262  0.69441968  0.89947838  1
  Sc  Sc84  1  0.09010676  0.30131924  0.50412714  1
  Sc  Sc85  1  0.29912735  0.49600001  0.69516220  1
  Sc  Sc86  1  0.09283969  0.70259977  0.30150725  1
  Sc  Sc87  1  0.70638434  0.69243028  0.70261324  1
  Sc  Sc88  1  0.70171542  0.89767945  0.70387597  1
  Sc  Sc89  1  0.50553026  0.49709375  0.88982532  1
  Sc  Sc90  1  0.29571525  0.89095380  0.89338239  1
  Sc  Sc91  1  0.28963636  0.70155664  0.69733709  1
  Sc  Sc92  1  0.51077834  0.89942225  0.29787341  1
  Sc  Sc93  1  0.30264715  0.30099699  0.29834088  1
  Sc  Sc94  1  0.29626482  0.90295118  0.49122671  1
  Sc  Sc95  1  0.09717354  0.89748255  0.89806373  1
  Sc  Sc96  1  0.90607376  0.30850916  0.90774508  1
  Sc  Sc97  1  0.50393063  0.09469405  0.30205249  1
  Sc  Sc98  1  0.29975003  0.50863244  0.09489734  1
  Sc  Sc99  1  0.50252818  0.10596739  0.49465000  1
  Nb  Nb100  1  0.29523740  0.70032947  0.29773294  1
  Nb  Nb101  1  0.09903954  0.30585039  0.90434412  1
  Nb  Nb102  1  0.10247161  0.48313383  0.90837351  1
  Nb  Nb103  1  0.90173672  0.50699232  0.10187503  1
  Nb  Nb104  1  0.10481648  0.49161278  0.10555315  1
  Nb  Nb105  1  0.50156896  0.29644044  0.09862164  1
  Nb  Nb106  1  0.50183232  0.89207431  0.09560862  1
  Nb  Nb107  1  0.70023421  0.89923696  0.29907681  1
  Nb  Nb108  1  0.89909870  0.69532959  0.11039074  1
  Nb  Nb109  1  0.70398306  0.29929018  0.09816221  1
  Nb  Nb110  1  0.09340182  0.30505739  0.09370757  1
  Nb  Nb111  1  0.88998056  0.31075529  0.09679729  1
  Nb  Nb112  1  0.70282504  0.29984596  0.70346045  1
  Nb  Nb113  1  0.90257153  0.69700778  0.29225791  1
  Nb  Nb114  1  0.70238028  0.09459542  0.89532274  1
  Nb  Nb115  1  0.71839784  0.10334579  0.70833125  1
  Nb  Nb116  1  0.11342554  0.89598285  0.69667658  1
  Nb  Nb117  1  0.31321831  0.69827516  0.09704551  1
  Nb  Nb118  1  0.30397747  0.89467104  0.10152740  1
  Nb  Nb119  1  0.69395264  0.49995963  0.71221949  1
  Nb  Nb120  1  0.49272709  0.70879561  0.09379083  1
  Nb  Nb121  1  0.30153728  0.69069652  0.91314199  1
  Nb  Nb122  1  0.89706730  0.10293187  0.70138611  1
  Nb  Nb123  1  0.89965733  0.10328031  0.30453848  1
  Nb  Nb124  1  0.29114453  0.90048197  0.69540181  1
  Nb  Nb125  1  0.40842031  0.40037767  0.19559548  1
  Nb  Nb126  1  0.40516969  0.39989969  0.00363333  1
  Nb  Nb127  1  0.60032385  0.39325481  0.00767955  1
  Nb  Nb128  1  0.60069013  0.59578672  0.60321276  1
  Nb  Nb129  1  0.60509572  0.00622834  0.60467326  1
  Nb  Nb130  1  0.61511250  0.19655425  0.79735676  1
  Nb  Nb131  1  0.20938908  0.79054660  0.00756885  1
  Nb  Nb132  1  0.80052171  0.79659999  0.20454834  1
  Nb  Nb133  1  0.79565146  0.40105582  0.79871897  1
  Nb  Nb134  1  0.39336700  -0.00148941  0.79795549  1
  Nb  Nb135  1  0.20283882  0.60984686  0.19541852  1
  Nb  Nb136  1  0.80749442  0.79706504  0.80464785  1
  Nb  Nb137  1  0.60102826  0.39484986  0.19462462  1
  Nb  Nb138  1  0.59599361  0.00081498  -0.00098056  1
  Nb  Nb139  1  0.40219894  -0.00979378  -0.00216955  1
  Nb  Nb140  1  0.60441817  0.20562816  0.19427194  1
  Nb  Nb141  1  0.80528301  0.60768852  0.39762618  1
  Nb  Nb142  1  0.80313680  0.79776639  0.39161171  1
  Nb  Nb143  1  0.19261288  0.20291580  0.19905966  1
  Nb  Nb144  1  0.19326710  0.20466995  0.39220789  1
  Nb  Nb145  1  0.19743200  0.39905315  0.39806699  1
  Nb  Nb146  1  0.39215717  0.60449708  0.80475799  1
  Nb  Nb147  1  0.00168233  0.20072193  0.80107187  1
  Nb  Nb148  1  0.39222193  0.80480312  0.60059110  1
  Nb  Nb149  1  0.18886887  0.20180534  0.80480461  1
  Pd  Pd150  1  0.61198718  0.79195054  0.79757362  1
  Pd  Pd151  1  0.80774018  0.40778857  0.39838739  1
  Pd  Pd152  1  0.19934406  0.78977547  0.80975577  1
  Pd  Pd153  1  0.00031721  0.00735587  0.40646906  1
  Pd  Pd154  1  0.80374282  0.80555766  0.60571579  1
  Pd  Pd155  1  0.60999121  0.19241567  0.60780164  1
  Pd  Pd156  1  -0.00334183  0.20962072  0.19367346  1
  Pd  Pd157  1  0.40570356  -0.00506089  0.59836630  1
  Pd  Pd158  1  0.00119207  0.79710041  0.80588850  1
  Pd  Pd159  1  0.59780157  0.40212734  0.39992852  1
  Pd  Pd160  1  0.79772478  0.20018682  0.20697818  1
  Pd  Pd161  1  0.19827059  0.79667037  0.40226466  1
  Pd  Pd162  1  0.00854512  0.59507571  0.80057938  1
  Pd  Pd163  1  0.20561476  -0.01661322  -0.00111097  1
  Pd  Pd164  1  0.39085287  0.19840931  0.40021505  1
  Pd  Pd165  1  0.39954820  0.59835504  0.20805491  1
  Pd  Pd166  1  0.60689425  0.40658020  0.59914179  1
  Pd  Pd167  1  0.81407234  0.19241716  -0.00425598  1
  Pd  Pd168  1  0.20066555  0.79446694  0.19374435  1
  Pd  Pd169  1  0.39469048  0.39883424  0.39789853  1
  Pd  Pd170  1  0.79844092  0.40158069  0.20124163  1
  Pd  Pd171  1  0.80205834  0.60735984  -0.00194559  1
  Pd  Pd172  1  0.00294235  0.00338072  0.79613348  1
  Pd  Pd173  1  0.59276666  0.80052735  0.60005792  1
  Pd  Pd174  1  0.79211040  0.40598380  0.60260631  1
  Pd  Pd175  1  0.00006327  -0.00435913  0.19457557  1
  Pd  Pd176  1  0.79799771  -0.00445715  0.60739505  1
  Pd  Pd177  1  0.39849768  0.20616671  0.60174555  1
  Pd  Pd178  1  0.40711483  -0.01135507  0.19843419  1
  Pd  Pd179  1  0.19936219  0.00490006  0.80426799  1
  Pd  Pd180  1  0.19518197  0.59762860  0.60674576  1
  Pd  Pd181  1  0.38691553  0.79522875  0.79407942  1
  Pd  Pd182  1  0.59510952  0.00875226  0.79398479  1
  Pd  Pd183  1  0.19295340  0.01114911  0.40529915  1
  Pd  Pd184  1  0.40392232  0.80433566  0.20711440  1
  Pd  Pd185  1  0.19619407  0.00122269  0.58719613  1
  Pd  Pd186  1  0.40289427  0.60604180  0.39140138  1
  Pd  Pd187  1  -0.00312268  -0.00094163  0.00436678  1
  Pd  Pd188  1  0.19854651  0.60020945  0.79302234  1
  Pd  Pd189  1  0.78993300  0.59162004  0.59324691  1
  Pd  Pd190  1  0.79405256  0.78884488  0.00212120  1
  Pd  Pd191  1  0.39810116  0.39490970  0.60001476  1
  Pd  Pd192  1  -0.01061931  0.20035990  -0.00226176  1
  Pd  Pd193  1  0.39223207  0.19619671  0.79241453  1
  Pd  Pd194  1  -0.00560979  0.80023291  0.39635277  1
  Pd  Pd195  1  0.21016370  0.39513026  0.01153803  1
  Pd  Pd196  1  0.00915127  0.59219647  0.00852111  1
  Pd  Pd197  1  0.40386013  -0.00193974  0.39822055  1
  Pd  Pd198  1  0.59811132  0.60242340  0.19565073  1
  Pd  Pd199  1  -0.00483620  0.39269679  0.79304897  1
  Rh  Rh200  1  0.60682254  0.80448090  0.00223894  1
  Rh  Rh201  1  0.80282295  0.19447177  0.39756928  1
  Rh  Rh202  1  0.60049601  0.19794539  -0.00446594  1
  Rh  Rh203  1  0.19737976  0.19924802  0.60019442  1
  Rh  Rh204  1  0.80810694  -0.01385468  0.79339337  1
  Rh  Rh205  1  0.00146844  -0.00220850  0.60287459  1
  Rh  Rh206  1  0.40959585  0.58931526  -0.01137185  1
  Rh  Rh207  1  0.19524011  0.21113248  0.00202618  1
  Rh  Rh208  1  0.39336161  0.80690058  -0.00229054  1
  Rh  Rh209  1  0.19925266  0.40491809  0.58961283  1
  Rh  Rh210  1  0.39929094  0.20288497  -0.00629866  1
  Rh  Rh211  1  -0.00055691  0.80274714  0.60076551  1
  Rh  Rh212  1  0.00241102  0.39946362  0.40074325  1
  Rh  Rh213  1  0.80763563  -0.00497065  0.20172767  1
  Rh  Rh214  1  0.79569539  0.60653287  0.20305046  1
  Rh  Rh215  1  0.39512320  0.79991704  0.40009826  1
  Rh  Rh216  1  -0.00593133  0.80805028  0.20508009  1
  Rh  Rh217  1  0.59458156  0.00720296  0.19025789  1
  Rh  Rh218  1  0.60086906  0.79706535  0.19399461  1
  Rh  Rh219  1  0.39045843  0.41259594  0.80779578  1
  Rh  Rh220  1  -0.00194493  0.40154855  0.60278253  1
  Rh  Rh221  1  0.58753526  0.60601338  0.79248535  1
  Rh  Rh222  1  0.00967064  0.59591252  0.19266839  1
  Rh  Rh223  1  -0.00336253  0.19792713  0.60948109  1
  Rh  Rh224  1  0.40139224  0.20151628  0.20982615  1
  Rh  Rh225  1  0.79811285  0.40955421  -0.00297631  1
  Rh  Rh226  1  0.60460845  0.80526783  0.39988664  1
  Rh  Rh227  1  0.19467626  0.39468259  0.79610042  1
  Rh  Rh228  1  0.20887982  0.39977641  0.19807135  1
  Rh  Rh229  1  0.60858632  0.19219274  0.39065439  1
  Rh  Rh230  1  0.00800994  0.59861339  0.60636117  1
  Rh  Rh231  1  0.80672266  0.20798672  0.80689939  1
  Rh  Rh232  1  0.01077912  0.80047589  -0.00301838  1
  Rh  Rh233  1  -0.01185676  0.40117014  0.19072839  1
  Rh  Rh234  1  0.59606516  0.59642213  0.00015525  1
  Rh  Rh235  1  0.80639106  0.60120522  0.80962563  1
  Rh  Rh236  1  0.40709516  0.60983357  0.61147766  1
  Rh  Rh237  1  -0.00088931  0.20023757  0.39912010  1
  Rh  Rh238  1  0.19833457  0.00064080  0.19953881  1
  Rh  Rh239  1  0.79739942  0.19742516  0.59450541  1
  Rh  Rh240  1  0.79784703  0.00340483  0.00580671  1
  Rh  Rh241  1  0.61109075  0.38482560  0.81239120  1
  Rh  Rh242  1  -0.00326715  0.40696338  0.01059306  1
  Rh  Rh243  1  0.18750406  0.60551957  0.01535292  1
  Rh  Rh244  1  0.80384699  -0.00372496  0.39258310  1
  Rh  Rh245  1  0.60215139  0.60179214  0.41295819  1
  Rh  Rh246  1  -0.00389391  0.60380410  0.39973107  1
  Rh  Rh247  1  0.19153508  0.59783919  0.38695308  1
  Rh  Rh248  1  0.60217229  -0.00045587  0.40747139  1
  Rh  Rh249  1  0.20610610  0.80215422  0.58811578  1
