# generated using pymatgen
data_ZrScNbPdRh
_symmetry_space_group_name_H-M   'P 1'
_cell_length_a   16.56167970
_cell_length_b   16.55705283
_cell_length_c   16.55626131
_cell_angle_alpha   89.99182808
_cell_angle_beta   90.02812332
_cell_angle_gamma   89.99348872
_symmetry_Int_Tables_number   1
_chemical_formula_structural   ZrScNbPdRh
_chemical_formula_sum   'Zr50 Sc50 Nb50 Pd50 Rh50'
_cell_volume   4539.93493259
_cell_formula_units_Z   50
loop_
 _symmetry_equiv_pos_site_id
 _symmetry_equiv_pos_as_xyz
  1  'x, y, z'
loop_
 _atom_site_type_symbol
 _atom_site_label
 _atom_site_symmetry_multiplicity
 _atom_site_fract_x
 _atom_site_fract_y
 _atom_site_fract_z
 _atom_site_occupancy
  Zr  Zr0  1  0.69301452  0.90935878  0.88960798  1
  Zr  Zr1  1  0.10538512  0.49456240  0.50021952  1
  Zr  Zr2  1  0.90147366  0.50222218  0.50212280  1
  Zr  Zr3  1  0.50074233  0.69032234  0.10129513  1
  Zr  Zr4  1  0.30206449  0.70204588  0.10206949  1
  Zr  Zr5  1  0.70614469  0.09423553  0.71040231  1
  Zr  Zr6  1  0.90149996  0.29681181  0.90321880  1
  Zr  Zr7  1  0.70151282  0.90334644  0.48756367  1
  Zr  Zr8  1  0.70144892  0.90056808  0.29915846  1
  Zr  Zr9  1  0.70551902  0.90054750  0.09547408  1
  Zr  Zr10  1  0.90601520  0.70160494  0.50161810  1
  Zr  Zr11  1  0.89213711  0.30470490  0.49388704  1
  Zr  Zr12  1  0.29896990  0.49860533  0.10499175  1
  Zr  Zr13  1  0.09759023  0.70366725  0.89012197  1
  Zr  Zr14  1  0.89900258  0.89545682  0.29346755  1
  Zr  Zr15  1  0.09657778  0.89980862  0.90431958  1
  Zr  Zr16  1  0.90603617  0.49824435  0.90915168  1
  Zr  Zr17  1  0.89714939  0.09110807  0.50079426  1
  Zr  Zr18  1  0.50706455  0.49035268  0.10306841  1
  Zr  Zr19  1  0.09977832  0.49794592  0.09701633  1
  Zr  Zr20  1  0.89879598  0.50094546  0.30410906  1
  Zr  Zr21  1  0.49554276  0.49792442  0.30007742  1
  Zr  Zr22  1  0.30289124  0.90800140  0.90987552  1
  Zr  Zr23  1  0.49845216  0.89492516  0.30606363  1
  Zr  Zr24  1  0.90812016  0.70718936  0.69844859  1
  Zr  Zr25  1  0.10555355  0.30086566  0.70406777  1
  Zr  Zr26  1  0.90583194  0.91880064  0.70346985  1
  Zr  Zr27  1  0.50381427  0.70621469  0.49527861  1
  Zr  Zr28  1  0.70091941  0.70045644  0.10099294  1
  Zr  Zr29  1  0.09493998  0.30385314  0.90834954  1
  Zr  Zr30  1  0.30070798  0.30045001  0.30224070  1
  Zr  Zr31  1  0.29818119  0.69727878  0.89523151  1
  Zr  Zr32  1  0.30651678  0.10050309  0.70822306  1
  Zr  Zr33  1  0.10745114  0.50274323  0.29644312  1
  Zr  Zr34  1  0.49753883  0.69783409  0.29479313  1
  Zr  Zr35  1  0.09533245  0.29848813  0.30415533  1
  Zr  Zr36  1  0.68903464  0.30204762  0.10089891  1
  Zr  Zr37  1  0.49672843  0.30212006  0.49877235  1
  Zr  Zr38  1  0.10040778  0.30160516  0.49775648  1
  Zr  Zr39  1  0.30401821  0.50653457  0.90028530  1
  Zr  Zr40  1  0.69447266  0.29645356  0.50728695  1
  Zr  Zr41  1  0.49627389  0.89476971  0.50533652  1
  Zr  Zr42  1  0.30413571  0.89707648  0.69399777  1
  Zr  Zr43  1  0.10252755  0.71024595  0.70035755  1
  Zr  Zr44  1  0.29880335  0.51046372  0.70314940  1
  Zr  Zr45  1  0.71084660  0.50103038  0.90067325  1
  Zr  Zr46  1  0.49433145  0.09554192  0.90118859  1
  Zr  Zr47  1  0.49901721  0.69845049  0.90117057  1
  Zr  Zr48  1  0.70575711  0.49809502  0.09825350  1
  Zr  Zr49  1  0.29915916  0.09401518  0.08712760  1
  Sc  Sc50  1  0.70713773  0.49572809  0.29255214  1
  Sc  Sc51  1  0.71589655  0.49137926  0.50548186  1
  Sc  Sc52  1  0.08766198  0.09207639  0.70912531  1
  Sc  Sc53  1  0.89776496  0.89639986  0.90550103  1
  Sc  Sc54  1  0.70751495  0.71312539  0.89979225  1
  Sc  Sc55  1  0.90228446  0.90576482  0.10102044  1
  Sc  Sc56  1  0.89331825  0.50641270  0.69826588  1
  Sc  Sc57  1  0.89946709  0.69787193  0.29380246  1
  Sc  Sc58  1  0.49438410  0.09900354  0.69564604  1
  Sc  Sc59  1  0.70901122  0.70872095  0.70492696  1
  Sc  Sc60  1  0.89859753  0.29683175  0.30354025  1
  Sc  Sc61  1  0.48753623  0.49821690  0.50373064  1
  Sc  Sc62  1  0.09777436  0.09195710  0.48230521  1
  Sc  Sc63  1  0.49298375  0.50039026  0.69180671  1
  Sc  Sc64  1  0.49897433  0.88815428  0.10027103  1
  Sc  Sc65  1  0.70821074  0.30416253  0.90029210  1
  Sc  Sc66  1  0.49566876  0.10577429  0.49569326  1
  Sc  Sc67  1  0.29809930  0.29233094  0.70486549  1
  Sc  Sc68  1  0.49931315  0.29257261  0.91198728  1
  Sc  Sc69  1  0.29595718  0.70967958  0.50058488  1
  Sc  Sc70  1  0.29616692  0.28266901  0.89869064  1
  Sc  Sc71  1  0.90253295  0.28671243  0.10934891  1
  Sc  Sc72  1  0.29632128  0.30283399  0.49844100  1
  Sc  Sc73  1  0.89923243  0.70349026  0.89534700  1
  Sc  Sc74  1  0.49433331  0.29250539  0.29390252  1
  Sc  Sc75  1  0.90369360  0.09734605  0.89131109  1
  Sc  Sc76  1  0.30070294  0.30167564  0.09733174  1
  Sc  Sc77  1  0.70860671  0.70661222  0.49266287  1
  Sc  Sc78  1  0.29980101  0.50107451  0.29848086  1
  Sc  Sc79  1  0.49678471  0.50651737  0.90885880  1
  Sc  Sc80  1  0.89923743  0.70520174  0.10444437  1
  Sc  Sc81  1  0.09534333  0.70094308  0.10809874  1
  Sc  Sc82  1  0.70906331  0.70184464  0.29959279  1
  Sc  Sc83  1  0.89537864  0.29724351  0.71212438  1
  Sc  Sc84  1  0.10099263  0.90386241  0.29413422  1
  Sc  Sc85  1  0.29714776  0.69881269  0.29376856  1
  Sc  Sc86  1  0.08990705  0.09476054  0.09996114  1
  Sc  Sc87  1  0.29793642  0.49441100  0.49681902  1
  Sc  Sc88  1  0.09972687  0.89241582  0.49102713  1
  Sc  Sc89  1  0.09989736  0.10437777  0.90770227  1
  Sc  Sc90  1  0.29964599  0.89932329  0.49565386  1
  Sc  Sc91  1  0.70785637  0.29689325  0.30350908  1
  Sc  Sc92  1  0.69559005  0.09755606  0.09823608  1
  Sc  Sc93  1  0.49303988  0.70227707  0.69187258  1
  Sc  Sc94  1  0.49977699  0.29455847  0.68804906  1
  Sc  Sc95  1  0.29220614  0.89704264  0.29966179  1
  Sc  Sc96  1  0.10586605  0.70654990  0.29683967  1
  Sc  Sc97  1  0.90364712  0.10386857  0.28947803  1
  Sc  Sc98  1  0.29459330  0.89679011  0.10073679  1
  Sc  Sc99  1  0.50269549  0.90181925  0.69834315  1
  Nb  Nb100  1  0.69523577  0.30029074  0.69613399  1
  Nb  Nb101  1  0.09831388  0.50036428  0.90148151  1
  Nb  Nb102  1  0.10749786  0.89961985  0.70593505  1
  Nb  Nb103  1  0.30214862  0.09804476  0.89555452  1
  Nb  Nb104  1  0.89866240  0.10278207  0.69855614  1
  Nb  Nb105  1  0.29403473  0.70276442  0.70719055  1
  Nb  Nb106  1  0.69183633  0.09740927  0.31397354  1
  Nb  Nb107  1  0.90154917  0.09995754  0.09587121  1
  Nb  Nb108  1  0.50329624  0.11760608  0.10271588  1
  Nb  Nb109  1  0.10062308  0.50185889  0.69916808  1
  Nb  Nb110  1  0.89879112  0.89882591  0.49518142  1
  Nb  Nb111  1  0.09704184  0.90295961  0.09960091  1
  Nb  Nb112  1  0.10131820  0.29913245  0.10462439  1
  Nb  Nb113  1  0.29668732  0.09346935  0.50033002  1
  Nb  Nb114  1  0.29944997  0.09828147  0.30756866  1
  Nb  Nb115  1  0.90422848  0.50979014  0.10871522  1
  Nb  Nb116  1  0.69829721  0.10330712  0.49614594  1
  Nb  Nb117  1  0.70184940  0.90354560  0.70244142  1
  Nb  Nb118  1  0.69648876  0.49302019  0.69587823  1
  Nb  Nb119  1  0.10620921  0.09914721  0.29507137  1
  Nb  Nb120  1  0.69432138  0.09999782  0.90063609  1
  Nb  Nb121  1  0.50413714  0.29041571  0.09946955  1
  Nb  Nb122  1  0.50085860  0.89984463  0.89256768  1
  Nb  Nb123  1  0.09721709  0.69970514  0.50543877  1
  Nb  Nb124  1  0.49230108  0.10222496  0.29726277  1
  Nb  Nb125  1  0.60683788  0.59919343  0.59787653  1
  Nb  Nb126  1  0.20399722  0.00012572  0.80099476  1
  Nb  Nb127  1  0.40487359  0.00882021  0.20271481  1
  Nb  Nb128  1  0.80595961  0.81582479  0.59888856  1
  Nb  Nb129  1  0.79878920  0.19272804  -0.00042791  1
  Nb  Nb130  1  0.60239658  0.59373162  0.40458043  1
  Nb  Nb131  1  0.40039940  0.39860196  0.80304488  1
  Nb  Nb132  1  0.79924738  0.19464681  0.60413380  1
  Nb  Nb133  1  0.59775139  0.40029745  0.79529736  1
  Nb  Nb134  1  0.60445550  0.20205128  0.80033299  1
  Nb  Nb135  1  -0.00292072  0.19928287  0.59918832  1
  Nb  Nb136  1  0.00655301  0.60209677  0.40467916  1
  Nb  Nb137  1  0.19643404  0.60672545  0.60482568  1
  Nb  Nb138  1  0.00217188  0.40285416  0.19857833  1
  Nb  Nb139  1  0.59838245  0.40346202  0.40148158  1
  Nb  Nb140  1  0.19826540  0.19325594  0.20334268  1
  Nb  Nb141  1  0.60897570  -0.00002570  0.59539041  1
  Nb  Nb142  1  0.19843163  0.00136666  0.60338145  1
  Nb  Nb143  1  0.19985809  0.40730783  0.80608579  1
  Nb  Nb144  1  0.19352702  0.18638670  0.59884073  1
  Nb  Nb145  1  0.59187552  0.00689179  0.20574374  1
  Nb  Nb146  1  0.39798596  0.80167724  0.80358899  1
  Nb  Nb147  1  0.19498026  0.59775073  -0.00465740  1
  Nb  Nb148  1  0.00116826  0.39578884  0.60269087  1
  Nb  Nb149  1  0.60500795  0.59404551  0.79269999  1
  Pd  Pd150  1  0.40323934  0.39427240  0.19723809  1
  Pd  Pd151  1  0.80461570  0.00612471  -0.00691589  1
  Pd  Pd152  1  0.39195381  0.60960490  0.59308637  1
  Pd  Pd153  1  0.79292743  0.61289629  0.60162988  1
  Pd  Pd154  1  0.38562708  0.19578158  0.19346989  1
  Pd  Pd155  1  0.39846637  -0.00202689  0.39944296  1
  Pd  Pd156  1  0.00224973  0.61162275  0.00077524  1
  Pd  Pd157  1  0.00061860  0.40703381  0.79375119  1
  Pd  Pd158  1  0.01188400  0.00002936  0.59380926  1
  Pd  Pd159  1  0.20568492  0.00313086  0.19659390  1
  Pd  Pd160  1  0.39893994  0.60413678  0.40404434  1
  Pd  Pd161  1  -0.00262034  -0.00291636  0.38814885  1
  Pd  Pd162  1  0.79845884  0.60183016  0.79673833  1
  Pd  Pd163  1  0.40281726  0.79985056  -0.00316234  1
  Pd  Pd164  1  0.60787281  0.59700170  0.20863190  1
  Pd  Pd165  1  0.00334154  0.19928620  0.79932291  1
  Pd  Pd166  1  0.60896642  0.19839604  0.21123212  1
  Pd  Pd167  1  -0.00342822  0.59567159  0.79768005  1
  Pd  Pd168  1  0.39001341  0.79557946  0.39337066  1
  Pd  Pd169  1  0.60257523  0.80252727  -0.00331372  1
  Pd  Pd170  1  0.80680232  0.60945274  0.00123134  1
  Pd  Pd171  1  0.79940642  0.40159230  0.79540761  1
  Pd  Pd172  1  0.59456783  0.20911669  0.39499314  1
  Pd  Pd173  1  -0.00021382  0.81709560  0.60215025  1
  Pd  Pd174  1  0.81108776  0.39512310  0.19537187  1
  Pd  Pd175  1  0.79334247  0.00034245  0.59777426  1
  Pd  Pd176  1  0.19389862  0.79201999  0.00368561  1
  Pd  Pd177  1  0.59920351  0.39967802  -0.01117535  1
  Pd  Pd178  1  0.39736547  0.39239306  -0.00396754  1
  Pd  Pd179  1  0.60299981  0.80325118  0.20245428  1
  Pd  Pd180  1  0.59241822  0.79229185  0.79241129  1
  Pd  Pd181  1  -0.00151133  0.79601328  0.00652922  1
  Pd  Pd182  1  0.19532875  0.19680405  0.00705625  1
  Pd  Pd183  1  0.00122012  0.79404066  0.39044391  1
  Pd  Pd184  1  0.60940493  0.60135652  -0.00887926  1
  Pd  Pd185  1  0.20375484  0.19881657  0.40241785  1
  Pd  Pd186  1  0.41390033  -0.00237008  0.01205460  1
  Pd  Pd187  1  0.19961170  0.60695435  0.40776465  1
  Pd  Pd188  1  -0.00775419  0.19318524  0.40157710  1
  Pd  Pd189  1  0.79298725  0.00959374  0.20343187  1
  Pd  Pd190  1  0.58999870  -0.00167248  0.00990372  1
  Pd  Pd191  1  0.58768729  0.00210311  0.40336035  1
  Pd  Pd192  1  0.81160474  0.39037498  0.01472656  1
  Pd  Pd193  1  0.38719790  0.20046512  0.59326795  1
  Pd  Pd194  1  0.61253948  0.80054170  0.60355057  1
  Pd  Pd195  1  0.80874911  0.00628814  0.38793318  1
  Pd  Pd196  1  0.78951673  0.19093245  0.19671746  1
  Pd  Pd197  1  0.38748293  0.39353256  0.60837209  1
  Pd  Pd198  1  0.20671479  0.40073690  -0.00652249  1
  Pd  Pd199  1  -0.00955591  0.39449376  0.01445665  1
  Rh  Rh200  1  0.00545976  -0.00225677  0.81018214  1
  Rh  Rh201  1  0.19720071  0.79875323  0.39820405  1
  Rh  Rh202  1  0.59506996  0.39194906  0.20971046  1
  Rh  Rh203  1  0.39468212  0.20000461  0.40544119  1
  Rh  Rh204  1  0.79138530  0.39945127  0.39744454  1
  Rh  Rh205  1  0.60915355  0.20176619  -0.00824717  1
  Rh  Rh206  1  0.41589196  0.60319006  0.79509890  1
  Rh  Rh207  1  0.60997241  0.18323026  0.60944756  1
  Rh  Rh208  1  -0.00027572  0.00032212  0.19876782  1
  Rh  Rh209  1  0.80007750  0.80234651  0.19454027  1
  Rh  Rh210  1  -0.00557281  0.19871034  0.00294378  1
  Rh  Rh211  1  0.19595430  0.80538602  0.19499371  1
  Rh  Rh212  1  0.20208824  0.60412897  0.19096165  1
  Rh  Rh213  1  0.59534052  0.40981415  0.59428095  1
  Rh  Rh214  1  0.20088559  0.40354911  0.61138881  1
  Rh  Rh215  1  0.39513980  0.79670413  0.60391039  1
  Rh  Rh216  1  0.58989709  0.00786176  0.79135875  1
  Rh  Rh217  1  0.39635837  0.80641827  0.20255899  1
  Rh  Rh218  1  0.39405632  0.59906457  0.01238869  1
  Rh  Rh219  1  0.00959004  0.59064247  0.59670543  1
  Rh  Rh220  1  0.19389172  0.38957127  0.20474199  1
  Rh  Rh221  1  0.39958173  0.59509322  0.19743432  1
  Rh  Rh222  1  0.80214952  0.19259331  0.40375236  1
  Rh  Rh223  1  0.39668319  0.19908701  0.00215863  1
  Rh  Rh224  1  0.19910402  0.80207339  0.59596378  1
  Rh  Rh225  1  0.41525002  0.20890541  0.80464459  1
  Rh  Rh226  1  0.79262900  0.19906858  0.80448386  1
  Rh  Rh227  1  0.00068827  0.59581799  0.20998364  1
  Rh  Rh228  1  0.00208178  0.80661869  0.19817418  1
  Rh  Rh229  1  0.39978869  -0.00951692  0.79940049  1
  Rh  Rh230  1  -0.00543225  0.80882594  0.79761247  1
  Rh  Rh231  1  0.80330416  0.59857089  0.39893650  1
  Rh  Rh232  1  0.00133444  0.41070942  0.39671331  1
  Rh  Rh233  1  0.81166134  0.38778863  0.61052231  1
  Rh  Rh234  1  0.20623259  0.40058311  0.39256162  1
  Rh  Rh235  1  0.80910344  0.79916013  0.40092938  1
  Rh  Rh236  1  0.80080320  0.80180457  0.00221059  1
  Rh  Rh237  1  0.19274669  0.19275194  0.79697717  1
  Rh  Rh238  1  0.40212727  0.00059708  0.59221640  1
  Rh  Rh239  1  0.80536705  -0.00166312  0.80947226  1
  Rh  Rh240  1  0.40283307  0.39656912  0.39707616  1
  Rh  Rh241  1  0.20020343  -0.00557068  0.40204863  1
  Rh  Rh242  1  0.00910397  0.20132899  0.19942329  1
  Rh  Rh243  1  0.21072533  0.81403715  0.80747662  1
  Rh  Rh244  1  0.19183517  0.00214590  -0.00451272  1
  Rh  Rh245  1  0.60314169  0.78926550  0.39112137  1
  Rh  Rh246  1  0.80769801  0.81159218  0.79267206  1
  Rh  Rh247  1  0.79704243  0.60207592  0.19642389  1
  Rh  Rh248  1  -0.00383311  0.00096944  -0.00030003  1
  Rh  Rh249  1  0.18752847  0.59549038  0.79945483  1
