# generated using pymatgen
data_ZrScNbPdRh
_symmetry_space_group_name_H-M   'P 1'
_cell_length_a   16.55413504
_cell_length_b   16.55505539
_cell_length_c   16.55615319
_cell_angle_alpha   89.98195357
_cell_angle_beta   90.00113185
_cell_angle_gamma   90.00700893
_symmetry_Int_Tables_number   1
_chemical_formula_structural   ZrScNbPdRh
_chemical_formula_sum   'Zr50 Sc50 Nb50 Pd50 Rh50'
_cell_volume   4537.29005034
_cell_formula_units_Z   50
loop_
 _symmetry_equiv_pos_site_id
 _symmetry_equiv_pos_as_xyz
  1  'x, y, z'
loop_
 _atom_site_type_symbol
 _atom_site_label
 _atom_site_symmetry_multiplicity
 _atom_site_fract_x
 _atom_site_fract_y
 _atom_site_fract_z
 _atom_site_occupancy
  Zr  Zr0  1  0.90530627  0.50217397  0.69613284  1
  Zr  Zr1  1  0.49862552  0.29099641  0.49752639  1
  Zr  Zr2  1  0.29617620  0.09016487  0.90155718  1
  Zr  Zr3  1  0.90326623  0.70112952  0.09682751  1
  Zr  Zr4  1  0.91414487  0.09823701  0.70091431  1
  Zr  Zr5  1  0.10328612  0.09589144  0.30395360  1
  Zr  Zr6  1  0.50259743  0.30603035  0.30537939  1
  Zr  Zr7  1  0.10905138  0.10033971  0.10057996  1
  Zr  Zr8  1  0.49436839  0.50338740  0.70438221  1
  Zr  Zr9  1  0.30482242  0.10672995  0.49664064  1
  Zr  Zr10  1  0.90505327  0.90516755  0.90002179  1
  Zr  Zr11  1  0.10292946  0.30240935  0.89885576  1
  Zr  Zr12  1  0.70791231  0.29538585  0.09736181  1
  Zr  Zr13  1  0.90765546  0.90351561  0.29586830  1
  Zr  Zr14  1  0.70509281  0.90984069  0.89759386  1
  Zr  Zr15  1  0.69541735  0.89880338  0.49626567  1
  Zr  Zr16  1  0.90001987  0.10792232  0.50188777  1
  Zr  Zr17  1  0.49573170  0.49902399  0.90483246  1
  Zr  Zr18  1  0.70659531  0.69582201  0.70444586  1
  Zr  Zr19  1  0.30036772  0.49811872  0.49823056  1
  Zr  Zr20  1  0.48821557  0.49940568  0.10218873  1
  Zr  Zr21  1  0.10436962  0.49835367  0.89664745  1
  Zr  Zr22  1  0.89476695  0.69174934  0.50174669  1
  Zr  Zr23  1  0.70921704  0.50886544  0.49886227  1
  Zr  Zr24  1  0.50056122  0.69960405  0.28630455  1
  Zr  Zr25  1  0.29748456  0.90751910  0.30028208  1
  Zr  Zr26  1  0.90891712  0.69839776  0.70135620  1
  Zr  Zr27  1  0.10105985  0.30964140  0.30543475  1
  Zr  Zr28  1  0.70098216  0.28841400  0.29709451  1
  Zr  Zr29  1  0.49777054  0.10404417  0.30154795  1
  Zr  Zr30  1  0.09919851  0.89952398  0.09931168  1
  Zr  Zr31  1  0.29043215  0.10228029  0.69760969  1
  Zr  Zr32  1  0.50417831  0.29222097  0.70321989  1
  Zr  Zr33  1  0.29444007  0.29460073  0.69763411  1
  Zr  Zr34  1  0.69953649  0.70561517  0.10381546  1
  Zr  Zr35  1  0.50249593  0.90782880  0.69776859  1
  Zr  Zr36  1  0.70925483  0.70295247  0.90459330  1
  Zr  Zr37  1  0.49851190  0.70011656  0.49322055  1
  Zr  Zr38  1  0.89868056  0.30546948  0.10493231  1
  Zr  Zr39  1  0.90854292  0.89623135  0.49357293  1
  Zr  Zr40  1  0.29654642  0.70058256  0.29419604  1
  Zr  Zr41  1  0.09948382  0.69874547  0.70450414  1
  Zr  Zr42  1  0.29575882  0.29737958  0.09674450  1
  Zr  Zr43  1  0.29762694  0.70184336  0.70418451  1
  Zr  Zr44  1  0.29761071  0.30128642  0.89952967  1
  Zr  Zr45  1  0.08698032  0.10119771  0.89291971  1
  Zr  Zr46  1  0.69638935  0.49684268  0.30582712  1
  Zr  Zr47  1  0.70124840  0.29225698  0.89855315  1
  Zr  Zr48  1  0.90889397  0.50138797  0.10064408  1
  Zr  Zr49  1  0.31251664  0.70036995  0.09812479  1
  Sc  Sc50  1  0.29347251  0.90612792  0.50150143  1
  Sc  Sc51  1  0.90575527  0.89842921  0.70742111  1
  Sc  Sc52  1  0.70275905  0.50337370  0.70414305  1
  Sc  Sc53  1  0.29567613  0.70607500  0.50196848  1
  Sc  Sc54  1  0.10007335  0.50352482  0.29222983  1
  Sc  Sc55  1  0.09478118  0.90415633  0.30408261  1
  Sc  Sc56  1  0.49536158  0.89054338  0.10277149  1
  Sc  Sc57  1  0.10013381  0.90096110  0.49576990  1
  Sc  Sc58  1  0.90385360  0.49635089  0.50769904  1
  Sc  Sc59  1  0.29690920  0.70668920  0.89937479  1
  Sc  Sc60  1  0.49998000  0.30211131  0.10643845  1
  Sc  Sc61  1  0.10943427  0.30153633  0.50010628  1
  Sc  Sc62  1  0.30008913  0.89664950  0.90611857  1
  Sc  Sc63  1  0.69618720  0.11249482  0.49770769  1
  Sc  Sc64  1  0.70343884  0.48994464  0.09488468  1
  Sc  Sc65  1  0.10106198  0.70342334  0.89819772  1
  Sc  Sc66  1  0.70080281  0.29553091  0.50128751  1
  Sc  Sc67  1  0.89993814  0.70668595  0.29873235  1
  Sc  Sc68  1  0.49871314  0.49467121  0.48291907  1
  Sc  Sc69  1  0.49867108  0.30196736  0.89804733  1
  Sc  Sc70  1  0.10035516  0.89721571  0.90637415  1
  Sc  Sc71  1  0.69243586  0.10619323  0.70876474  1
  Sc  Sc72  1  0.90292196  0.89856826  0.10703331  1
  Sc  Sc73  1  0.30279466  0.49881193  0.29793079  1
  Sc  Sc74  1  0.10114456  0.09755284  0.50404359  1
  Sc  Sc75  1  0.91013750  0.49483117  0.29904849  1
  Sc  Sc76  1  0.69823983  0.90331219  0.09801227  1
  Sc  Sc77  1  0.09793523  0.48972255  0.50166987  1
  Sc  Sc78  1  0.89606099  0.29043488  0.91174346  1
  Sc  Sc79  1  0.50340557  0.09348144  0.11135783  1
  Sc  Sc80  1  0.70012472  0.49657049  0.90157529  1
  Sc  Sc81  1  0.49405811  0.10288690  0.69090152  1
  Sc  Sc82  1  0.70610233  0.89251920  0.29193095  1
  Sc  Sc83  1  0.49291025  0.69736003  0.71121150  1
  Sc  Sc84  1  0.48818988  0.70685771  0.90396836  1
  Sc  Sc85  1  0.69989214  0.69817870  0.30847766  1
  Sc  Sc86  1  0.09612502  0.49357342  0.70889855  1
  Sc  Sc87  1  0.09405396  0.71436555  0.51161210  1
  Sc  Sc88  1  0.09664943  0.69840460  0.10051189  1
  Sc  Sc89  1  0.90533567  0.50114087  0.90050667  1
  Sc  Sc90  1  0.09672519  0.70261624  0.29102467  1
  Sc  Sc91  1  0.50219244  0.09554062  0.89261992  1
  Sc  Sc92  1  0.49546940  0.91409261  0.50094126  1
  Sc  Sc93  1  0.89677529  0.09854022  0.29253537  1
  Sc  Sc94  1  0.89779502  0.09623977  0.10100213  1
  Sc  Sc95  1  0.29821183  0.10188198  0.29800177  1
  Sc  Sc96  1  0.30015470  0.49021797  0.89917926  1
  Sc  Sc97  1  0.29657316  0.90386400  0.70290777  1
  Sc  Sc98  1  0.49609520  0.90094572  0.90142992  1
  Sc  Sc99  1  0.90397284  0.29419929  0.68412786  1
  Nb  Nb100  1  0.09666683  0.89999874  0.69467162  1
  Nb  Nb101  1  0.29782408  0.09589340  0.09822929  1
  Nb  Nb102  1  0.90347892  0.30073565  0.29979429  1
  Nb  Nb103  1  0.69969971  0.10002936  0.29220032  1
  Nb  Nb104  1  0.90355250  0.70733889  0.89739097  1
  Nb  Nb105  1  0.69829921  0.90066924  0.69442814  1
  Nb  Nb106  1  0.50450396  0.49364798  0.29978578  1
  Nb  Nb107  1  0.49891495  0.69687923  0.09773589  1
  Nb  Nb108  1  0.10584221  0.28159281  0.70363955  1
  Nb  Nb109  1  0.29253216  0.90505387  0.09541420  1
  Nb  Nb110  1  0.09983025  0.30201472  0.09527508  1
  Nb  Nb111  1  0.88928716  0.09480502  0.89667477  1
  Nb  Nb112  1  0.69985956  0.10119162  0.10955232  1
  Nb  Nb113  1  0.49643969  0.10260432  0.49755785  1
  Nb  Nb114  1  0.29428220  0.29846237  0.31142380  1
  Nb  Nb115  1  0.29698305  0.49798095  0.09671155  1
  Nb  Nb116  1  0.69491168  0.30112060  0.70264995  1
  Nb  Nb117  1  0.10201460  0.50118918  0.10193836  1
  Nb  Nb118  1  0.89985892  0.29788389  0.49433663  1
  Nb  Nb119  1  0.29937033  0.30361870  0.49364991  1
  Nb  Nb120  1  0.49328079  0.90199470  0.30294837  1
  Nb  Nb121  1  0.70919064  0.10310955  0.90905313  1
  Nb  Nb122  1  0.70142439  0.69978199  0.50167115  1
  Nb  Nb123  1  0.09937913  0.10613586  0.70049422  1
  Nb  Nb124  1  0.29726222  0.50362834  0.69879976  1
  Nb  Nb125  1  0.80592189  0.39179164  0.39969914  1
  Nb  Nb126  1  0.79597060  0.80221785  0.60014745  1
  Nb  Nb127  1  0.40090031  0.80402487  0.39692982  1
  Nb  Nb128  1  0.79521213  0.00317301  0.40031291  1
  Nb  Nb129  1  0.59683796  0.40380685  0.60126531  1
  Nb  Nb130  1  0.60067527  0.79380052  0.60171491  1
  Nb  Nb131  1  0.00454182  0.60197908  0.40405380  1
  Nb  Nb132  1  0.39917584  0.39789370  0.59967388  1
  Nb  Nb133  1  0.60155404  0.00520316  0.39307642  1
  Nb  Nb134  1  0.60353147  0.19215982  0.00230909  1
  Nb  Nb135  1  0.80093857  0.59865933  0.19887912  1
  Nb  Nb136  1  0.40458147  0.80147637  0.59840087  1
  Nb  Nb137  1  -0.00291127  0.20602254  0.39634464  1
  Nb  Nb138  1  0.19970490  0.39791780  0.19228830  1
  Nb  Nb139  1  0.80010893  0.39071980  0.79454960  1
  Nb  Nb140  1  0.00572153  0.20750620  0.20100427  1
  Nb  Nb141  1  0.60662196  0.80433390  0.79683709  1
  Nb  Nb142  1  0.39904267  0.19248370  0.00480849  1
  Nb  Nb143  1  0.20065103  0.59753904  0.60240845  1
  Nb  Nb144  1  0.20544909  0.80553470  0.19327286  1
  Nb  Nb145  1  0.20358711  0.59446940  0.00688229  1
  Nb  Nb146  1  0.59815102  0.60145063  0.59663812  1
  Nb  Nb147  1  0.79802012  -0.00298238  0.59802744  1
  Nb  Nb148  1  0.19439363  0.60170280  0.40461328  1
  Nb  Nb149  1  0.59459860  0.60541015  0.00568446  1
  Pd  Pd150  1  0.19752369  0.00025328  0.59845064  1
  Pd  Pd151  1  0.39823994  0.19500967  0.80723876  1
  Pd  Pd152  1  0.19048328  -0.00657779  0.80369695  1
  Pd  Pd153  1  0.39717769  -0.00005299  0.79581743  1
  Pd  Pd154  1  0.19975213  0.40224454  0.60790057  1
  Pd  Pd155  1  0.39893940  0.59302547  0.20528033  1
  Pd  Pd156  1  0.40727639  0.00172456  0.00683283  1
  Pd  Pd157  1  0.39656228  -0.00143220  0.19566206  1
  Pd  Pd158  1  0.60512301  0.00957347  0.59150225  1
  Pd  Pd159  1  -0.01002679  0.38567018  0.79807152  1
  Pd  Pd160  1  0.39405770  0.39746330  0.79247778  1
  Pd  Pd161  1  0.79246531  0.39698883  0.60005309  1
  Pd  Pd162  1  0.59787003  0.60943276  0.81067080  1
  Pd  Pd163  1  0.39700740  0.20337786  0.19922651  1
  Pd  Pd164  1  0.19829866  0.79700930  0.39341416  1
  Pd  Pd165  1  0.00929300  0.38879070  0.60255484  1
  Pd  Pd166  1  0.80614755  0.81116283  0.00448146  1
  Pd  Pd167  1  -0.00048831  0.00379699  0.00377256  1
  Pd  Pd168  1  0.38954321  0.59885382  0.81248070  1
  Pd  Pd169  1  -0.00078808  -0.00369583  0.59799328  1
  Pd  Pd170  1  0.60246875  0.00233075  0.80237937  1
  Pd  Pd171  1  -0.00052596  0.39991537  -0.00282241  1
  Pd  Pd172  1  0.80324127  -0.00295638  0.01048523  1
  Pd  Pd173  1  0.60531463  0.40361037  0.79841265  1
  Pd  Pd174  1  0.80766785  0.20314502  0.79027092  1
  Pd  Pd175  1  0.60375507  0.39951442  0.19573577  1
  Pd  Pd176  1  0.59558944  0.00555870  0.00113064  1
  Pd  Pd177  1  0.39981348  0.60097901  0.59647910  1
  Pd  Pd178  1  0.60761155  0.59257826  0.19328677  1
  Pd  Pd179  1  0.59692321  0.79809906  -0.00807431  1
  Pd  Pd180  1  0.60016223  0.80488064  0.20139178  1
  Pd  Pd181  1  0.60019780  -0.01017862  0.20583416  1
  Pd  Pd182  1  0.79347732  0.19376102  0.60855239  1
  Pd  Pd183  1  0.79614632  0.59524328  0.00354393  1
  Pd  Pd184  1  -0.01071808  0.20902446  0.80320753  1
  Pd  Pd185  1  0.20095436  0.19463902  -0.00751002  1
  Pd  Pd186  1  0.80007926  0.40672882  0.20884704  1
  Pd  Pd187  1  0.39016673  0.39414652  0.20635185  1
  Pd  Pd188  1  0.00914562  0.60438134  -0.00669057  1
  Pd  Pd189  1  0.80829296  0.59132169  0.80489277  1
  Pd  Pd190  1  0.80051536  0.80531521  0.79671597  1
  Pd  Pd191  1  0.19747402  0.20615932  0.20583814  1
  Pd  Pd192  1  0.59687483  0.60027502  0.39975089  1
  Pd  Pd193  1  0.39548425  0.60456282  0.39186935  1
  Pd  Pd194  1  -0.00556851  0.19323249  0.00668502  1
  Pd  Pd195  1  0.80279027  0.80392657  0.40006018  1
  Pd  Pd196  1  0.19526888  0.80973566  0.79916328  1
  Pd  Pd197  1  0.79954105  0.00460669  0.78845683  1
  Pd  Pd198  1  0.59470517  0.39628248  0.00215407  1
  Pd  Pd199  1  0.59198992  0.80651929  0.39883077  1
  Rh  Rh200  1  0.00949615  0.39486929  0.19493187  1
  Rh  Rh201  1  0.80061792  0.79358551  0.19871788  1
  Rh  Rh202  1  0.39734982  0.39709230  0.39779109  1
  Rh  Rh203  1  0.01286164  0.59613488  0.59596208  1
  Rh  Rh204  1  0.19593991  0.40619119  0.00369998  1
  Rh  Rh205  1  -0.00595229  0.80603484  0.60388492  1
  Rh  Rh206  1  0.20117934  0.00454790  0.40405978  1
  Rh  Rh207  1  -0.00888237  0.60264253  0.20511347  1
  Rh  Rh208  1  0.39698062  0.20199580  0.39442039  1
  Rh  Rh209  1  0.00668491  -0.00468570  0.79788093  1
  Rh  Rh210  1  0.81351299  0.58956278  0.38864670  1
  Rh  Rh211  1  0.59967414  0.20230567  0.60066693  1
  Rh  Rh212  1  0.39277063  0.00151238  0.60088632  1
  Rh  Rh213  1  0.39679121  0.59800564  -0.00487316  1
  Rh  Rh214  1  0.80889892  0.19730438  0.19844609  1
  Rh  Rh215  1  0.59878065  0.19388969  0.80882799  1
  Rh  Rh216  1  0.80031925  0.19082548  0.00941690  1
  Rh  Rh217  1  0.59834586  0.20303157  0.19322259  1
  Rh  Rh218  1  -0.00539409  0.40208670  0.40683935  1
  Rh  Rh219  1  0.19862557  -0.00512970  0.19945307  1
  Rh  Rh220  1  0.20485922  0.79935475  0.60809551  1
  Rh  Rh221  1  0.79643968  -0.00259030  0.20200725  1
  Rh  Rh222  1  -0.00379964  0.79791171  -0.00244570  1
  Rh  Rh223  1  0.80683309  0.40364744  -0.01208102  1
  Rh  Rh224  1  -0.00192927  0.60420192  0.80736806  1
  Rh  Rh225  1  0.01272367  0.20509785  0.59088521  1
  Rh  Rh226  1  0.39811019  0.80574317  0.00301824  1
  Rh  Rh227  1  0.61126313  0.39566281  0.40734862  1
  Rh  Rh228  1  0.00276179  0.79142070  0.39762005  1
  Rh  Rh229  1  0.79894731  0.60231029  0.60607940  1
  Rh  Rh230  1  0.20035272  0.19464429  0.80856988  1
  Rh  Rh231  1  0.80626961  0.19872478  0.39175025  1
  Rh  Rh232  1  0.40198763  0.38985972  0.00162468  1
  Rh  Rh233  1  0.20078553  0.39728471  0.79229474  1
  Rh  Rh234  1  0.20335324  0.41101433  0.39086038  1
  Rh  Rh235  1  0.00740848  0.80204723  0.19877492  1
  Rh  Rh236  1  0.40154310  0.00062853  0.40028552  1
  Rh  Rh237  1  0.39515398  0.20448352  0.59793500  1
  Rh  Rh238  1  0.20250481  0.59546198  0.80251761  1
  Rh  Rh239  1  0.19285331  0.00286119  -0.00603661  1
  Rh  Rh240  1  0.59850809  0.19536542  0.39704338  1
  Rh  Rh241  1  0.39385712  0.80815316  0.20231004  1
  Rh  Rh242  1  0.20278077  0.78973730  0.00869898  1
  Rh  Rh243  1  -0.00782802  0.01152522  0.40070201  1
  Rh  Rh244  1  0.40611159  0.81063830  0.79300799  1
  Rh  Rh245  1  0.19866699  0.19848918  0.59206436  1
  Rh  Rh246  1  0.00542448  0.00908133  0.19744008  1
  Rh  Rh247  1  0.19608546  0.19741357  0.40396212  1
  Rh  Rh248  1  0.20244842  0.60051062  0.19591695  1
  Rh  Rh249  1  0.00593438  0.80471548  0.80335679  1
