# generated using pymatgen
data_ZrScNbPdRh
_symmetry_space_group_name_H-M   'P 1'
_cell_length_a   16.55555255
_cell_length_b   16.55308858
_cell_length_c   16.55339141
_cell_angle_alpha   89.99507383
_cell_angle_beta   90.01426587
_cell_angle_gamma   90.01280278
_symmetry_Int_Tables_number   1
_chemical_formula_structural   ZrScNbPdRh
_chemical_formula_sum   'Zr50 Sc50 Nb50 Pd50 Rh50'
_cell_volume   4536.38261580
_cell_formula_units_Z   50
loop_
 _symmetry_equiv_pos_site_id
 _symmetry_equiv_pos_as_xyz
  1  'x, y, z'
loop_
 _atom_site_type_symbol
 _atom_site_label
 _atom_site_symmetry_multiplicity
 _atom_site_fract_x
 _atom_site_fract_y
 _atom_site_fract_z
 _atom_site_occupancy
  Zr  Zr0  1  0.50247618  0.69172885  0.29661110  1
  Zr  Zr1  1  0.49801624  0.09670433  0.51253420  1
  Zr  Zr2  1  0.09422814  0.90031365  0.50704106  1
  Zr  Zr3  1  0.90053806  0.89019544  0.30445571  1
  Zr  Zr4  1  0.91099701  0.10013587  0.30503342  1
  Zr  Zr5  1  0.29537503  0.70535772  0.90089641  1
  Zr  Zr6  1  0.50372084  0.49848193  0.70626112  1
  Zr  Zr7  1  0.29856544  0.28681119  0.30513032  1
  Zr  Zr8  1  0.11323369  0.09858701  0.31025635  1
  Zr  Zr9  1  0.49759867  0.08419405  0.09653728  1
  Zr  Zr10  1  0.09935638  0.09712156  0.69775722  1
  Zr  Zr11  1  0.30167006  0.29894414  0.89290350  1
  Zr  Zr12  1  0.28776906  0.90246860  0.29945529  1
  Zr  Zr13  1  0.50385567  0.49175323  0.49161848  1
  Zr  Zr14  1  0.70250916  0.09397867  0.30718812  1
  Zr  Zr15  1  0.69881763  0.30336595  0.30296323  1
  Zr  Zr16  1  0.70157081  0.70033638  0.09672366  1
  Zr  Zr17  1  0.09995253  0.08612178  0.89629038  1
  Zr  Zr18  1  0.49631234  0.89443495  0.50131368  1
  Zr  Zr19  1  0.49898354  0.50863335  0.11287384  1
  Zr  Zr20  1  0.29777759  0.30301592  0.69879237  1
  Zr  Zr21  1  0.10120979  0.49126685  0.09951501  1
  Zr  Zr22  1  0.28993404  0.30532171  0.10237187  1
  Zr  Zr23  1  0.10156903  0.30017383  0.29372103  1
  Zr  Zr24  1  0.30674167  0.09908548  0.69965054  1
  Zr  Zr25  1  0.90413051  0.70549253  0.50151771  1
  Zr  Zr26  1  0.30285826  0.49903789  0.29993392  1
  Zr  Zr27  1  0.90076514  0.89521170  0.69010517  1
  Zr  Zr28  1  0.30192754  0.70092524  0.70513300  1
  Zr  Zr29  1  0.49446302  0.70039577  0.70802691  1
  Zr  Zr30  1  0.10410813  0.69789645  0.08790712  1
  Zr  Zr31  1  0.10638298  0.90192659  0.09810141  1
  Zr  Zr32  1  0.90486929  0.68965505  0.89988376  1
  Zr  Zr33  1  0.09084328  0.69939223  0.30897899  1
  Zr  Zr34  1  0.09232076  0.50179833  0.29749075  1
  Zr  Zr35  1  0.69641094  0.69716713  0.90243061  1
  Zr  Zr36  1  0.49555726  0.10064242  0.29211767  1
  Zr  Zr37  1  0.90596841  0.50582064  0.09876184  1
  Zr  Zr38  1  0.09618513  0.49989818  0.69791314  1
  Zr  Zr39  1  0.88995301  0.49758162  0.70047836  1
  Zr  Zr40  1  0.69900886  0.29427582  0.90342992  1
  Zr  Zr41  1  0.09728360  0.90295008  0.30423604  1
  Zr  Zr42  1  0.50245445  0.89700980  0.30108120  1
  Zr  Zr43  1  0.49274329  0.70209515  0.89936831  1
  Zr  Zr44  1  0.70883220  0.69799531  0.69783599  1
  Zr  Zr45  1  0.68342597  0.50101169  0.29869671  1
  Zr  Zr46  1  0.89424713  0.29804908  0.50691179  1
  Zr  Zr47  1  0.29102977  0.69877597  0.50455357  1
  Zr  Zr48  1  0.69497081  0.10459458  0.70077851  1
  Zr  Zr49  1  0.49173228  0.70506959  0.09267240  1
  Sc  Sc50  1  0.70170763  0.30183942  0.50731843  1
  Sc  Sc51  1  0.09808656  0.30453322  0.10086553  1
  Sc  Sc52  1  0.90291360  0.10374025  0.50206373  1
  Sc  Sc53  1  0.69661512  0.90592669  0.09088050  1
  Sc  Sc54  1  0.89687508  0.29743018  0.89002808  1
  Sc  Sc55  1  0.09570151  0.09363241  0.10778079  1
  Sc  Sc56  1  0.70069348  0.10313209  0.09275608  1
  Sc  Sc57  1  0.30241273  0.90185024  0.70126390  1
  Sc  Sc58  1  0.29692357  0.70868259  0.30185588  1
  Sc  Sc59  1  0.49364886  0.90395656  0.91214149  1
  Sc  Sc60  1  0.30335677  0.89719578  0.09697882  1
  Sc  Sc61  1  0.91029781  0.30483108  0.30829107  1
  Sc  Sc62  1  0.29704619  0.50111043  0.09505885  1
  Sc  Sc63  1  0.70834409  0.09343720  0.89575615  1
  Sc  Sc64  1  0.69976308  0.90574249  0.49474800  1
  Sc  Sc65  1  0.90110908  0.10091117  0.09608574  1
  Sc  Sc66  1  0.90506276  0.30022173  0.69968914  1
  Sc  Sc67  1  0.30043827  0.08919481  0.89210247  1
  Sc  Sc68  1  0.49640885  0.09900855  0.70325226  1
  Sc  Sc69  1  0.89484864  0.69508229  0.10965544  1
  Sc  Sc70  1  0.70627309  0.69922553  0.50119757  1
  Sc  Sc71  1  0.29801176  0.11167276  0.49439761  1
  Sc  Sc72  1  0.90058265  0.50000781  0.49933935  1
  Sc  Sc73  1  0.09426712  0.50894034  0.90379311  1
  Sc  Sc74  1  0.90269714  0.50075725  0.89621093  1
  Sc  Sc75  1  0.10293360  0.30523981  0.89268747  1
  Sc  Sc76  1  0.90815269  0.29701056  0.10080275  1
  Sc  Sc77  1  0.09249682  0.30557042  0.50019476  1
  Sc  Sc78  1  0.70099834  0.49160074  0.49959960  1
  Sc  Sc79  1  0.49206724  0.30109185  0.50609553  1
  Sc  Sc80  1  0.50213889  0.30560033  0.30421050  1
  Sc  Sc81  1  0.70453817  0.10185745  0.50376539  1
  Sc  Sc82  1  0.90616664  0.10849561  0.70500339  1
  Sc  Sc83  1  0.90260134  0.90113562  0.49870381  1
  Sc  Sc84  1  0.29979366  0.89235627  0.50444488  1
  Sc  Sc85  1  0.29588860  0.49516587  0.69791998  1
  Sc  Sc86  1  0.10491904  0.51368479  0.50254838  1
  Sc  Sc87  1  0.48987007  0.90677703  0.69969398  1
  Sc  Sc88  1  0.70307585  0.89588853  0.30541801  1
  Sc  Sc89  1  0.50229182  0.50155790  0.89352006  1
  Sc  Sc90  1  0.69848987  0.29657849  0.09802455  1
  Sc  Sc91  1  0.69914384  0.49971928  0.89253002  1
  Sc  Sc92  1  0.89863154  0.69587831  0.69379609  1
  Sc  Sc93  1  0.29987625  0.49686300  0.89529136  1
  Sc  Sc94  1  0.51414804  0.29309613  0.10133148  1
  Sc  Sc95  1  0.70676296  0.90342825  0.70811117  1
  Sc  Sc96  1  0.89495315  0.91368831  0.89018425  1
  Sc  Sc97  1  0.90336823  0.89715866  0.10648854  1
  Sc  Sc98  1  0.49990299  0.29624493  0.70511031  1
  Sc  Sc99  1  0.69704471  0.50594346  0.09772636  1
  Nb  Nb100  1  0.30523306  0.10266353  0.10816263  1
  Nb  Nb101  1  0.30284624  0.69669719  0.10122279  1
  Nb  Nb102  1  0.49091948  0.10389250  0.89715921  1
  Nb  Nb103  1  0.89646029  0.69696736  0.29595722  1
  Nb  Nb104  1  0.70238813  0.89648888  0.89706456  1
  Nb  Nb105  1  0.10264085  0.69662007  0.69801392  1
  Nb  Nb106  1  0.09485587  0.90513407  0.69993474  1
  Nb  Nb107  1  0.10108843  0.70142276  0.50634890  1
  Nb  Nb108  1  0.10056688  0.29797506  0.69601757  1
  Nb  Nb109  1  0.30237586  0.49556607  0.50174688  1
  Nb  Nb110  1  0.69681696  0.49656065  0.69476458  1
  Nb  Nb111  1  0.10739868  0.89773804  0.90032629  1
  Nb  Nb112  1  0.29823634  0.30860470  0.50230765  1
  Nb  Nb113  1  0.90103323  0.10919304  0.90055940  1
  Nb  Nb114  1  0.50300265  0.89491835  0.09667078  1
  Nb  Nb115  1  0.29277071  0.89993600  0.89856557  1
  Nb  Nb116  1  0.10066353  0.70383897  0.89410617  1
  Nb  Nb117  1  0.90428378  0.51174571  0.29260250  1
  Nb  Nb118  1  0.49950333  0.49880492  0.30097434  1
  Nb  Nb119  1  0.70888236  0.70240364  0.28920200  1
  Nb  Nb120  1  0.49649402  0.29732008  0.90412559  1
  Nb  Nb121  1  0.49663914  0.70036575  0.50261950  1
  Nb  Nb122  1  0.30132877  0.09905223  0.29707410  1
  Nb  Nb123  1  0.09775857  0.09942104  0.50488399  1
  Nb  Nb124  1  0.70590019  0.31034729  0.69912911  1
  Nb  Nb125  1  0.40184295  0.59752125  0.40482249  1
  Nb  Nb126  1  0.19647952  0.20636035  0.59993707  1
  Nb  Nb127  1  0.20190105  0.19388703  -0.00079237  1
  Nb  Nb128  1  0.20007925  0.60340469  0.19767180  1
  Nb  Nb129  1  0.39756589  0.19783037  0.00073395  1
  Nb  Nb130  1  0.60025455  0.80205790  0.80305367  1
  Nb  Nb131  1  0.80201888  0.00399452  0.20579066  1
  Nb  Nb132  1  0.80307703  0.20017539  0.20625738  1
  Nb  Nb133  1  0.00982504  0.80016384  0.79998415  1
  Nb  Nb134  1  0.39605717  0.00342234  0.39418865  1
  Nb  Nb135  1  0.80078387  0.39937033  0.00239582  1
  Nb  Nb136  1  0.00220690  0.80265027  -0.01113911  1
  Nb  Nb137  1  0.59837625  0.79966496  0.19479800  1
  Nb  Nb138  1  0.40557616  0.39272595  0.00285696  1
  Nb  Nb139  1  0.59720932  0.79565692  0.60510444  1
  Nb  Nb140  1  0.59795032  0.19614101  0.40254871  1
  Nb  Nb141  1  0.80400913  0.80071733  -0.00614404  1
  Nb  Nb142  1  0.40275127  0.59770013  0.59399393  1
  Nb  Nb143  1  0.00614297  0.19440694  -0.00918605  1
  Nb  Nb144  1  0.40163873  0.39952257  0.19841415  1
  Nb  Nb145  1  0.20447278  0.40034588  0.40345229  1
  Nb  Nb146  1  0.80260264  0.60257319  0.38778968  1
  Nb  Nb147  1  0.59601854  0.60096948  0.60057967  1
  Nb  Nb148  1  0.80244784  0.00396490  0.60490821  1
  Nb  Nb149  1  0.80240144  0.40145297  0.19998625  1
  Pd  Pd150  1  0.59965940  0.40735089  0.00249056  1
  Pd  Pd151  1  -0.00006941  0.40468420  0.59681200  1
  Pd  Pd152  1  0.60191787  0.39094887  0.80270605  1
  Pd  Pd153  1  0.00565229  0.79347649  0.19174898  1
  Pd  Pd154  1  0.20018738  0.59349706  0.79967619  1
  Pd  Pd155  1  0.59995541  0.20838288  0.59792393  1
  Pd  Pd156  1  0.40533220  0.40380269  0.60766034  1
  Pd  Pd157  1  0.21023720  0.00701453  0.00768449  1
  Pd  Pd158  1  0.79802776  0.59563410  0.80131682  1
  Pd  Pd159  1  -0.00717831  -0.00301676  -0.00166998  1
  Pd  Pd160  1  0.60677864  0.79041505  0.40077695  1
  Pd  Pd161  1  0.80397804  0.41144285  0.39211018  1
  Pd  Pd162  1  0.60493648  0.60845316  0.40640768  1
  Pd  Pd163  1  0.40580410  0.20992222  0.19230587  1
  Pd  Pd164  1  -0.00493359  -0.00271664  0.79677987  1
  Pd  Pd165  1  0.59233007  -0.00634733  0.80659869  1
  Pd  Pd166  1  0.00373548  0.40790221  0.40477877  1
  Pd  Pd167  1  0.20699106  -0.00182775  0.41402950  1
  Pd  Pd168  1  -0.00440091  0.59823613  0.60054055  1
  Pd  Pd169  1  0.19571948  0.79343070  0.19722012  1
  Pd  Pd170  1  0.80765063  -0.00433564  0.00479545  1
  Pd  Pd171  1  0.19626610  0.80361334  0.60829263  1
  Pd  Pd172  1  0.60727626  0.19682424  0.20589881  1
  Pd  Pd173  1  0.79807680  0.20279936  0.79325779  1
  Pd  Pd174  1  0.19243895  0.19367422  0.19288596  1
  Pd  Pd175  1  0.19692094  0.80697370  0.78962529  1
  Pd  Pd176  1  0.20751009  0.00644324  0.59603909  1
  Pd  Pd177  1  0.19312840  0.40815091  0.80138338  1
  Pd  Pd178  1  0.59074405  0.00678902  0.40408829  1
  Pd  Pd179  1  0.40786155  0.19650621  0.40534681  1
  Pd  Pd180  1  0.59624586  0.18709894  -0.00642044  1
  Pd  Pd181  1  0.60997413  -0.00845664  0.19987676  1
  Pd  Pd182  1  0.00690861  0.20159800  0.40581865  1
  Pd  Pd183  1  0.60125430  0.00433091  -0.01203929  1
  Pd  Pd184  1  0.39762015  0.59022003  -0.00699389  1
  Pd  Pd185  1  0.40188609  0.80478600  0.20086226  1
  Pd  Pd186  1  -0.00327986  -0.00077049  0.20330985  1
  Pd  Pd187  1  0.60715421  -0.01063361  0.60541636  1
  Pd  Pd188  1  0.20480528  0.59748308  0.39512770  1
  Pd  Pd189  1  0.60019622  0.20212429  0.80289332  1
  Pd  Pd190  1  0.20304098  0.59630738  -0.00173941  1
  Pd  Pd191  1  0.79777353  0.79558617  0.40507546  1
  Pd  Pd192  1  0.39512371  -0.01232869  0.20178524  1
  Pd  Pd193  1  0.39526232  0.79900121  0.39775467  1
  Pd  Pd194  1  0.00033906  0.40047440  0.80077012  1
  Pd  Pd195  1  0.59367982  0.59431366  -0.00221043  1
  Pd  Pd196  1  0.79700948  0.20091410  0.39971109  1
  Pd  Pd197  1  -0.00679086  0.39048627  -0.00932239  1
  Pd  Pd198  1  0.80665680  0.79664220  0.80544599  1
  Pd  Pd199  1  0.19611949  0.19393174  0.79916862  1
  Rh  Rh200  1  0.20340595  0.00391775  0.19523474  1
  Rh  Rh201  1  0.39008043  0.59299502  0.79614765  1
  Rh  Rh202  1  0.79076749  0.58784806  0.20440150  1
  Rh  Rh203  1  0.60373583  0.61046176  0.19644451  1
  Rh  Rh204  1  0.78927021  0.81436520  0.18893879  1
  Rh  Rh205  1  0.00811454  0.79382849  0.60734196  1
  Rh  Rh206  1  0.79347103  0.58939396  0.58830407  1
  Rh  Rh207  1  0.59857348  0.39923132  0.19496864  1
  Rh  Rh208  1  0.20284487  0.80056288  0.00118331  1
  Rh  Rh209  1  0.40219116  0.79419489  0.60358484  1
  Rh  Rh210  1  0.39002094  0.59882958  0.20616416  1
  Rh  Rh211  1  0.38911692  0.80394956  -0.00339935  1
  Rh  Rh212  1  0.60753060  0.80337595  -0.00242035  1
  Rh  Rh213  1  0.39144791  0.20327630  0.60298207  1
  Rh  Rh214  1  0.40244783  0.81130016  0.81022329  1
  Rh  Rh215  1  0.40159100  0.20028904  0.80028661  1
  Rh  Rh216  1  0.80204205  0.59659996  -0.00290506  1
  Rh  Rh217  1  0.19255928  0.20838015  0.41141067  1
  Rh  Rh218  1  0.00051164  0.60432706  0.00258597  1
  Rh  Rh219  1  -0.00054108  0.20048523  0.19572128  1
  Rh  Rh220  1  0.59904446  0.38543918  0.40744383  1
  Rh  Rh221  1  0.20310331  0.39574281  -0.00866533  1
  Rh  Rh222  1  0.00244392  0.00018253  0.40510396  1
  Rh  Rh223  1  -0.00863560  0.00594230  0.59901713  1
  Rh  Rh224  1  0.60690273  0.60670978  0.79319949  1
  Rh  Rh225  1  0.81119289  0.20854102  0.00600597  1
  Rh  Rh226  1  0.80265317  0.40013864  0.60212329  1
  Rh  Rh227  1  0.39328819  0.00184437  -0.00111188  1
  Rh  Rh228  1  -0.00815659  0.39861891  0.20104944  1
  Rh  Rh229  1  0.40389547  0.40012361  0.80371990  1
  Rh  Rh230  1  0.00196236  0.79775361  0.40460700  1
  Rh  Rh231  1  0.81096404  0.00013020  0.40329048  1
  Rh  Rh232  1  0.20483562  0.59794481  0.60615883  1
  Rh  Rh233  1  0.59841188  0.39975049  0.60236269  1
  Rh  Rh234  1  0.00617490  0.20072309  0.59824527  1
  Rh  Rh235  1  0.39087441  0.00116529  0.58917080  1
  Rh  Rh236  1  0.79494560  0.39886519  0.80355989  1
  Rh  Rh237  1  0.00864954  0.20085870  0.80515979  1
  Rh  Rh238  1  0.79925009  0.19673304  0.60796819  1
  Rh  Rh239  1  0.19037761  0.80250499  0.40646580  1
  Rh  Rh240  1  0.39470760  0.39914311  0.39236803  1
  Rh  Rh241  1  0.01126490  0.60754737  0.19214979  1
  Rh  Rh242  1  0.20232661  -0.00620834  0.79223036  1
  Rh  Rh243  1  0.40089667  -0.00567700  0.80638350  1
  Rh  Rh244  1  -0.00812030  0.60401045  0.40781331  1
  Rh  Rh245  1  0.78917212  0.81503121  0.59330085  1
  Rh  Rh246  1  0.19207697  0.39746163  0.59400721  1
  Rh  Rh247  1  0.80473722  0.01046905  0.79188485  1
  Rh  Rh248  1  0.20270959  0.40787594  0.21017358  1
  Rh  Rh249  1  0.00198761  0.60453439  0.78931360  1
