# generated using pymatgen
data_ZrScNbPdRh
_symmetry_space_group_name_H-M   'P 1'
_cell_length_a   16.56774884
_cell_length_b   16.56590415
_cell_length_c   16.56551340
_cell_angle_alpha   90.02438648
_cell_angle_beta   90.00925153
_cell_angle_gamma   90.03478931
_symmetry_Int_Tables_number   1
_chemical_formula_structural   ZrScNbPdRh
_chemical_formula_sum   'Zr50 Sc50 Nb50 Pd50 Rh50'
_cell_volume   4546.56517888
_cell_formula_units_Z   50
loop_
 _symmetry_equiv_pos_site_id
 _symmetry_equiv_pos_as_xyz
  1  'x, y, z'
loop_
 _atom_site_type_symbol
 _atom_site_label
 _atom_site_symmetry_multiplicity
 _atom_site_fract_x
 _atom_site_fract_y
 _atom_site_fract_z
 _atom_site_occupancy
  Zr  Zr0  1  0.30299444  0.69722517  0.90526057  1
  Zr  Zr1  1  0.69502145  0.30891062  0.30468463  1
  Zr  Zr2  1  0.69151775  0.69595663  0.09867704  1
  Zr  Zr3  1  0.49807616  0.89206022  0.69716686  1
  Zr  Zr4  1  0.10159192  0.50905697  0.10226324  1
  Zr  Zr5  1  0.29501259  0.30341969  0.49902586  1
  Zr  Zr6  1  0.50908188  0.10169067  0.09993363  1
  Zr  Zr7  1  0.70797044  0.49704502  0.49430519  1
  Zr  Zr8  1  0.49452440  0.91085074  0.31488402  1
  Zr  Zr9  1  0.49810432  0.29853642  0.30498852  1
  Zr  Zr10  1  0.69946665  0.29940691  0.09872806  1
  Zr  Zr11  1  0.30682694  0.89332772  0.49334321  1
  Zr  Zr12  1  0.70000064  0.69401682  0.29283394  1
  Zr  Zr13  1  0.11556302  0.89748669  0.10069849  1
  Zr  Zr14  1  0.50601207  0.68297128  0.89868459  1
  Zr  Zr15  1  0.49629762  0.69409119  0.70564722  1
  Zr  Zr16  1  0.10259567  0.50113510  0.89796717  1
  Zr  Zr17  1  0.70388997  0.10279794  0.49870368  1
  Zr  Zr18  1  0.10029710  0.30466019  0.89537740  1
  Zr  Zr19  1  0.69884868  0.30190600  0.90265059  1
  Zr  Zr20  1  0.09817861  0.30294271  0.10371596  1
  Zr  Zr21  1  0.70789423  0.89375155  0.69816367  1
  Zr  Zr22  1  0.88949241  0.49547106  0.29917200  1
  Zr  Zr23  1  0.10319069  0.10284572  0.50473885  1
  Zr  Zr24  1  0.90064121  0.68886534  0.50057225  1
  Zr  Zr25  1  0.90721494  0.89926262  0.29798789  1
  Zr  Zr26  1  0.70910719  0.69192888  0.89668881  1
  Zr  Zr27  1  0.29404162  0.70131022  0.30133818  1
  Zr  Zr28  1  0.49372572  0.69059215  0.09427297  1
  Zr  Zr29  1  0.49434308  0.70767592  0.51240855  1
  Zr  Zr30  1  0.69245951  0.09914400  0.30170884  1
  Zr  Zr31  1  0.29311812  0.89923288  0.29830637  1
  Zr  Zr32  1  0.90448911  0.29363303  0.89025559  1
  Zr  Zr33  1  0.10671771  0.49227578  0.49522271  1
  Zr  Zr34  1  0.50086868  0.09767468  0.70519898  1
  Zr  Zr35  1  0.70475915  0.69711347  0.50650674  1
  Zr  Zr36  1  0.70155016  0.90213216  0.29337630  1
  Zr  Zr37  1  0.89640516  0.49643655  0.50631518  1
  Zr  Zr38  1  0.89887298  0.11552634  0.70175713  1
  Zr  Zr39  1  0.70454792  0.28232458  0.69934074  1
  Zr  Zr40  1  0.90139450  0.69662557  0.10477732  1
  Zr  Zr41  1  0.29757111  0.49309503  0.50069929  1
  Zr  Zr42  1  0.70104175  0.89735565  0.50488054  1
  Zr  Zr43  1  0.09488610  0.30470545  0.30093692  1
  Zr  Zr44  1  0.29652696  0.51135700  0.09335868  1
  Zr  Zr45  1  0.90869469  0.90136271  0.70445217  1
  Zr  Zr46  1  0.30662410  0.70085408  0.70451458  1
  Zr  Zr47  1  0.69644220  0.50118731  0.90354547  1
  Zr  Zr48  1  0.70350296  0.90846251  0.09507009  1
  Zr  Zr49  1  0.50025358  0.10709893  0.29713741  1
  Sc  Sc50  1  0.09681512  0.50482139  0.69898363  1
  Sc  Sc51  1  0.30717245  0.10912137  0.30454646  1
  Sc  Sc52  1  0.50295611  0.30403439  0.11314653  1
  Sc  Sc53  1  0.90649966  0.90605245  0.49802803  1
  Sc  Sc54  1  0.10065325  0.10197873  0.90056242  1
  Sc  Sc55  1  0.49700700  0.49271334  0.29081608  1
  Sc  Sc56  1  0.51147872  0.30812883  0.69773826  1
  Sc  Sc57  1  0.30229223  0.49984031  0.69625847  1
  Sc  Sc58  1  0.90348799  0.69860625  0.29263781  1
  Sc  Sc59  1  0.09701591  0.11036709  0.30008749  1
  Sc  Sc60  1  0.50463878  0.09293881  0.89969668  1
  Sc  Sc61  1  0.90059899  0.30074501  0.10501331  1
  Sc  Sc62  1  0.90479016  0.69492944  0.70549848  1
  Sc  Sc63  1  0.50551179  0.89681813  0.08902961  1
  Sc  Sc64  1  0.10428458  0.70079569  0.88470015  1
  Sc  Sc65  1  0.90475193  0.09816060  0.90263539  1
  Sc  Sc66  1  0.29082957  0.09705484  0.09257839  1
  Sc  Sc67  1  0.10018020  0.89399465  0.30470087  1
  Sc  Sc68  1  0.28762850  0.30977638  0.89553087  1
  Sc  Sc69  1  0.29240686  0.49940682  0.89638595  1
  Sc  Sc70  1  0.89508161  0.51087378  0.89474075  1
  Sc  Sc71  1  0.31037162  0.30586071  0.30078352  1
  Sc  Sc72  1  0.29802041  0.90428330  0.90720281  1
  Sc  Sc73  1  0.09693153  0.09524389  0.69760575  1
  Sc  Sc74  1  0.49282230  0.49318116  0.51027923  1
  Sc  Sc75  1  0.50131871  0.90645071  0.89894692  1
  Sc  Sc76  1  0.09549092  0.69970793  0.28685605  1
  Sc  Sc77  1  0.90250639  0.90545130  0.89746436  1
  Sc  Sc78  1  0.30299463  0.69061294  0.50017033  1
  Sc  Sc79  1  0.09355756  0.90726518  0.50773842  1
  Sc  Sc80  1  0.69233209  0.30310815  0.50057025  1
  Sc  Sc81  1  0.09693171  0.69197976  0.50480293  1
  Sc  Sc82  1  0.28876926  0.09270166  0.70232252  1
  Sc  Sc83  1  0.90081213  0.10056568  0.30655547  1
  Sc  Sc84  1  0.09923844  0.10878326  0.10068690  1
  Sc  Sc85  1  0.30022072  0.50222316  0.30744540  1
  Sc  Sc86  1  0.30098822  0.90406352  0.70869965  1
  Sc  Sc87  1  0.89232911  0.49759353  0.10542523  1
  Sc  Sc88  1  0.28711424  0.30696831  0.70046801  1
  Sc  Sc89  1  0.90291008  0.30081109  0.29801311  1
  Sc  Sc90  1  0.89552063  0.09464885  0.09606907  1
  Sc  Sc91  1  0.29897679  0.30417232  0.10079417  1
  Sc  Sc92  1  0.09737391  0.90554278  0.70593136  1
  Sc  Sc93  1  0.90630162  0.09925928  0.49946001  1
  Sc  Sc94  1  0.50126530  0.09910995  0.48217844  1
  Sc  Sc95  1  0.69917721  0.10170416  0.90795628  1
  Sc  Sc96  1  0.70007647  0.49704702  0.10528852  1
  Sc  Sc97  1  0.70031863  0.49219371  0.69527033  1
  Sc  Sc98  1  0.89720588  0.90500407  0.10026422  1
  Sc  Sc99  1  0.50147898  0.69176618  0.29016922  1
  Nb  Nb100  1  0.70496556  0.89648043  0.89761270  1
  Nb  Nb101  1  0.49878330  0.30538994  0.89888591  1
  Nb  Nb102  1  0.90126516  0.70140765  0.90003576  1
  Nb  Nb103  1  0.69954403  0.70629368  0.69926531  1
  Nb  Nb104  1  0.29052611  0.70685782  0.09619788  1
  Nb  Nb105  1  0.50318867  0.50590881  0.70836532  1
  Nb  Nb106  1  0.09847969  0.70264282  0.69756810  1
  Nb  Nb107  1  0.70138225  0.09737170  0.10565986  1
  Nb  Nb108  1  0.69987030  0.09857342  0.69884578  1
  Nb  Nb109  1  0.10266273  0.30063873  0.50339520  1
  Nb  Nb110  1  0.49529476  0.50261974  0.09865449  1
  Nb  Nb111  1  0.09626731  0.49927926  0.29687751  1
  Nb  Nb112  1  0.90514562  0.49068038  0.70027102  1
  Nb  Nb113  1  0.10329738  0.69990766  0.09847032  1
  Nb  Nb114  1  0.08562023  0.30147055  0.70376129  1
  Nb  Nb115  1  0.70050443  0.49885235  0.30362492  1
  Nb  Nb116  1  0.29862192  0.89640916  0.10040218  1
  Nb  Nb117  1  0.50313096  0.49552743  0.89297841  1
  Nb  Nb118  1  0.90685041  0.30139785  0.70162236  1
  Nb  Nb119  1  0.30853941  0.10532983  0.89493190  1
  Nb  Nb120  1  0.50037290  0.90029965  0.50248363  1
  Nb  Nb121  1  0.29653427  0.10110650  0.50608490  1
  Nb  Nb122  1  0.09090119  0.89744467  0.89988173  1
  Nb  Nb123  1  0.49483541  0.30008238  0.50132904  1
  Nb  Nb124  1  0.90875276  0.30219057  0.50728707  1
  Nb  Nb125  1  0.19853982  0.79661361  0.60641074  1
  Nb  Nb126  1  0.39520893  -0.00544186  0.19493440  1
  Nb  Nb127  1  0.40301987  0.00313211  0.59412646  1
  Nb  Nb128  1  0.79127531  0.19571749  0.20024467  1
  Nb  Nb129  1  0.60230787  0.79650641  0.40273455  1
  Nb  Nb130  1  0.19574985  0.40695081  0.20257529  1
  Nb  Nb131  1  0.80612203  0.39412436  0.79463340  1
  Nb  Nb132  1  0.60196273  0.59984512  0.40546236  1
  Nb  Nb133  1  0.39911087  0.20412624  0.80088791  1
  Nb  Nb134  1  0.00122622  0.40639277  -0.00306069  1
  Nb  Nb135  1  0.59828482  0.00033550  0.59969089  1
  Nb  Nb136  1  0.80368560  0.79606088  -0.00472083  1
  Nb  Nb137  1  0.00231942  0.79574959  -0.00100235  1
  Nb  Nb138  1  0.20322304  0.00557108  0.40546749  1
  Nb  Nb139  1  0.79543916  0.00468998  0.79548491  1
  Nb  Nb140  1  0.39326057  0.80360812  0.19302591  1
  Nb  Nb141  1  0.40200692  0.20666958  -0.00981679  1
  Nb  Nb142  1  -0.00082443  0.58982733  0.39631921  1
  Nb  Nb143  1  0.60027261  0.60020813  0.60276804  1
  Nb  Nb144  1  0.60672759  0.79473887  0.79998460  1
  Nb  Nb145  1  0.00109634  0.60578324  -0.00107979  1
  Nb  Nb146  1  0.00449289  -0.00116880  0.20049076  1
  Nb  Nb147  1  0.40666800  0.40135055  -0.00515939  1
  Nb  Nb148  1  0.39771460  0.19733952  0.60136588  1
  Nb  Nb149  1  0.79807876  0.79712415  0.39884631  1
  Pd  Pd150  1  0.20372651  0.59708207  0.79242857  1
  Pd  Pd151  1  0.20299521  0.20302400  0.39546739  1
  Pd  Pd152  1  0.00253821  0.79858550  0.59996402  1
  Pd  Pd153  1  -0.00229460  0.20586740  0.00382030  1
  Pd  Pd154  1  0.59256055  0.40371249  0.00886589  1
  Pd  Pd155  1  0.81177889  0.40219953  -0.00898752  1
  Pd  Pd156  1  0.40936518  0.78767307  0.39007323  1
  Pd  Pd157  1  0.80397716  0.19885092  0.00432740  1
  Pd  Pd158  1  0.59590889  0.19947306  0.80789673  1
  Pd  Pd159  1  0.60606805  0.79792132  -0.01064877  1
  Pd  Pd160  1  0.40104114  0.39314514  0.61086965  1
  Pd  Pd161  1  0.41174140  0.59573988  0.40249472  1
  Pd  Pd162  1  0.40671968  0.80313197  0.81391343  1
  Pd  Pd163  1  0.80385003  0.20882242  0.39915480  1
  Pd  Pd164  1  0.80430419  0.00415161  0.60526119  1
  Pd  Pd165  1  0.19839483  0.19918771  0.79461529  1
  Pd  Pd166  1  0.20545203  0.20515131  -0.00387638  1
  Pd  Pd167  1  0.39671317  0.39772462  0.79892003  1
  Pd  Pd168  1  -0.00151988  0.78885997  0.40438903  1
  Pd  Pd169  1  0.79909920  0.59143696  0.78838052  1
  Pd  Pd170  1  0.80059170  -0.00572896  0.39769114  1
  Pd  Pd171  1  0.00779500  0.40275434  0.59937335  1
  Pd  Pd172  1  0.59357634  0.20108268  -0.00279810  1
  Pd  Pd173  1  0.81796123  0.79879300  0.59612028  1
  Pd  Pd174  1  0.58976265  0.19196046  0.59076009  1
  Pd  Pd175  1  0.80580934  0.20495472  0.58922665  1
  Pd  Pd176  1  -0.00186209  0.20328370  0.40571404  1
  Pd  Pd177  1  0.39311900  0.19231947  0.18514176  1
  Pd  Pd178  1  0.00784387  -0.00591682  0.00828779  1
  Pd  Pd179  1  0.40257207  0.80042330  -0.00202311  1
  Pd  Pd180  1  0.18956411  0.60427367  0.39548765  1
  Pd  Pd181  1  0.19762722  0.20580903  0.61021993  1
  Pd  Pd182  1  0.80162938  0.80072484  0.19528169  1
  Pd  Pd183  1  0.19701558  0.00433320  -0.00805887  1
  Pd  Pd184  1  0.20820505  0.20731386  0.20575127  1
  Pd  Pd185  1  0.19943631  0.80659229  0.79812473  1
  Pd  Pd186  1  0.58830274  0.40860410  0.40588875  1
  Pd  Pd187  1  0.18663131  0.80048465  0.41376626  1
  Pd  Pd188  1  0.58575340  0.80704972  0.20473319  1
  Pd  Pd189  1  0.40031682  0.00721462  0.00572940  1
  Pd  Pd190  1  0.39011068  0.60376015  0.20107813  1
  Pd  Pd191  1  0.19594678  -0.00210564  0.81142056  1
  Pd  Pd192  1  0.79646568  0.38833278  0.60400903  1
  Pd  Pd193  1  0.79909910  0.59768925  0.61441931  1
  Pd  Pd194  1  0.19948779  0.01179951  0.20999748  1
  Pd  Pd195  1  0.20236879  0.60362665  0.60421396  1
  Pd  Pd196  1  0.60915821  -0.00817909  0.79680478  1
  Pd  Pd197  1  0.61081458  0.39725644  0.79385391  1
  Pd  Pd198  1  -0.00600539  0.40204978  0.40104289  1
  Pd  Pd199  1  0.58921266  -0.00818614  0.19770395  1
  Rh  Rh200  1  -0.00082310  0.59989996  0.79958948  1
  Rh  Rh201  1  0.79595048  0.59667743  0.19817563  1
  Rh  Rh202  1  0.21124908  -0.01658268  0.59115302  1
  Rh  Rh203  1  -0.00433844  0.59275066  0.20149384  1
  Rh  Rh204  1  0.19923705  0.39798972  0.01109455  1
  Rh  Rh205  1  -0.00560008  0.00768677  0.80012475  1
  Rh  Rh206  1  0.80308420  0.60583540  0.38936097  1
  Rh  Rh207  1  0.38965754  0.00838594  0.40136075  1
  Rh  Rh208  1  0.60741529  0.20600761  0.20323625  1
  Rh  Rh209  1  0.00491518  0.20233147  0.59730418  1
  Rh  Rh210  1  0.39676337  0.00559354  0.79607361  1
  Rh  Rh211  1  0.59993434  0.58985416  0.00496616  1
  Rh  Rh212  1  -0.00440632  0.40733842  0.80635781  1
  Rh  Rh213  1  0.79671883  0.19656216  0.80713941  1
  Rh  Rh214  1  0.60987516  -0.00646729  0.40740952  1
  Rh  Rh215  1  0.59805993  0.20520359  0.40346165  1
  Rh  Rh216  1  0.38836399  0.40986613  0.18861159  1
  Rh  Rh217  1  0.20105889  0.39337770  0.39001005  1
  Rh  Rh218  1  0.80971005  0.00985117  0.20803769  1
  Rh  Rh219  1  0.19150617  0.61240016  -0.00753039  1
  Rh  Rh220  1  0.80744478  0.38889264  0.40492963  1
  Rh  Rh221  1  0.00583767  0.81330489  0.18748354  1
  Rh  Rh222  1  0.40285530  0.59343120  0.60254183  1
  Rh  Rh223  1  -0.01538993  0.18844959  0.19555841  1
  Rh  Rh224  1  0.39231714  0.58956138  0.80446290  1
  Rh  Rh225  1  0.60035271  0.40374061  0.19911544  1
  Rh  Rh226  1  0.19366047  0.79817554  -0.01023969  1
  Rh  Rh227  1  0.01388744  0.00423679  0.39308607  1
  Rh  Rh228  1  0.79606306  -0.00358646  -0.01109222  1
  Rh  Rh229  1  0.40211285  0.58869307  -0.00991924  1
  Rh  Rh230  1  0.19049968  0.40538926  0.78893302  1
  Rh  Rh231  1  0.80262926  0.80508399  0.80456321  1
  Rh  Rh232  1  0.39833791  0.20508987  0.41099637  1
  Rh  Rh233  1  0.80423171  0.60406571  0.00776183  1
  Rh  Rh234  1  0.00914275  0.19295553  0.79900385  1
  Rh  Rh235  1  0.20447527  0.59904834  0.20481651  1
  Rh  Rh236  1  0.59880506  0.79810273  0.60362707  1
  Rh  Rh237  1  0.60652919  0.00083615  -0.00181808  1
  Rh  Rh238  1  -0.00028154  0.79768402  0.80343800  1
  Rh  Rh239  1  0.19073624  0.39772874  0.60551028  1
  Rh  Rh240  1  0.20106087  0.79375788  0.20055059  1
  Rh  Rh241  1  0.00414382  0.40733948  0.19259203  1
  Rh  Rh242  1  0.38710859  0.80650949  0.60414885  1
  Rh  Rh243  1  -0.00695259  0.00680938  0.60448689  1
  Rh  Rh244  1  0.60031527  0.58673883  0.20187839  1
  Rh  Rh245  1  0.79442920  0.39045394  0.20319908  1
  Rh  Rh246  1  0.59893758  0.40588131  0.59976437  1
  Rh  Rh247  1  0.00029903  0.59307314  0.59830597  1
  Rh  Rh248  1  0.40183146  0.40208893  0.40225806  1
  Rh  Rh249  1  0.61152545  0.60051598  0.79025039  1
