# generated using pymatgen
data_ZrScNbPdRh
_symmetry_space_group_name_H-M   'P 1'
_cell_length_a   16.56152768
_cell_length_b   16.56008340
_cell_length_c   16.56339587
_cell_angle_alpha   89.97918351
_cell_angle_beta   89.98866079
_cell_angle_gamma   89.95476008
_symmetry_Int_Tables_number   1
_chemical_formula_structural   ZrScNbPdRh
_chemical_formula_sum   'Zr50 Sc50 Nb50 Pd50 Rh50'
_cell_volume   4542.67977768
_cell_formula_units_Z   50
loop_
 _symmetry_equiv_pos_site_id
 _symmetry_equiv_pos_as_xyz
  1  'x, y, z'
loop_
 _atom_site_type_symbol
 _atom_site_label
 _atom_site_symmetry_multiplicity
 _atom_site_fract_x
 _atom_site_fract_y
 _atom_site_fract_z
 _atom_site_occupancy
  Zr  Zr0  1  0.70345129  0.29973684  0.29471733  1
  Zr  Zr1  1  0.50130963  0.11091232  0.50653492  1
  Zr  Zr2  1  0.10201462  0.28759350  0.30520962  1
  Zr  Zr3  1  0.10109175  0.69597974  0.09710953  1
  Zr  Zr4  1  0.10520003  0.49973090  0.49732555  1
  Zr  Zr5  1  0.29901115  0.49866252  0.69342228  1
  Zr  Zr6  1  0.29316164  0.89954685  0.50794811  1
  Zr  Zr7  1  0.49612366  0.70777039  0.69853037  1
  Zr  Zr8  1  0.10665581  0.09586854  0.49561616  1
  Zr  Zr9  1  0.50093956  0.90679651  0.29305673  1
  Zr  Zr10  1  0.49983643  0.09893163  0.29769742  1
  Zr  Zr11  1  0.69397683  0.70570464  0.70419357  1
  Zr  Zr12  1  0.70746343  0.09578636  0.09765240  1
  Zr  Zr13  1  0.70128909  0.69383145  0.30582241  1
  Zr  Zr14  1  0.49141603  0.50400109  0.48912908  1
  Zr  Zr15  1  0.70161261  0.29738607  0.49566543  1
  Zr  Zr16  1  0.10338000  0.10306776  0.69216901  1
  Zr  Zr17  1  0.89825963  0.10392236  0.09163070  1
  Zr  Zr18  1  0.29695210  0.29444611  0.70174572  1
  Zr  Zr19  1  0.29635626  0.49535651  0.49388734  1
  Zr  Zr20  1  0.29153950  0.49372942  0.90665036  1
  Zr  Zr21  1  0.89709864  0.29221349  0.50116306  1
  Zr  Zr22  1  0.90469253  0.69860657  0.10746224  1
  Zr  Zr23  1  0.90550698  0.70477328  0.30867390  1
  Zr  Zr24  1  0.69530042  0.71186521  0.49714388  1
  Zr  Zr25  1  0.50297987  0.10414830  0.09310488  1
  Zr  Zr26  1  0.10197891  0.50013278  0.09682807  1
  Zr  Zr27  1  0.08988132  0.50266917  0.90613007  1
  Zr  Zr28  1  0.49315058  0.30362077  0.50310880  1
  Zr  Zr29  1  0.69519731  0.70190280  0.09938521  1
  Zr  Zr30  1  0.69911338  0.91108964  0.30770294  1
  Zr  Zr31  1  0.09909045  0.70473510  0.29861069  1
  Zr  Zr32  1  0.89568799  0.70570261  0.69938000  1
  Zr  Zr33  1  0.30834330  0.51095412  0.29620768  1
  Zr  Zr34  1  0.10960757  0.10014175  0.90600591  1
  Zr  Zr35  1  0.49672298  0.09838725  0.89537850  1
  Zr  Zr36  1  0.69683086  0.90328856  0.10295020  1
  Zr  Zr37  1  0.70571521  0.09481786  0.49266192  1
  Zr  Zr38  1  0.49968870  0.90170146  0.09955337  1
  Zr  Zr39  1  0.09961147  0.90095645  0.90353794  1
  Zr  Zr40  1  0.70379390  0.50563466  0.09402043  1
  Zr  Zr41  1  0.70358208  0.29639731  0.69665746  1
  Zr  Zr42  1  0.49469591  0.28903065  0.90784237  1
  Zr  Zr43  1  0.91280982  0.90010739  0.29884843  1
  Zr  Zr44  1  0.49428469  0.69069013  0.30656666  1
  Zr  Zr45  1  0.09908729  0.70544222  0.90258927  1
  Zr  Zr46  1  0.50077499  0.10236692  0.70556888  1
  Zr  Zr47  1  0.89347998  0.89686925  0.50199616  1
  Zr  Zr48  1  0.89180450  0.50042151  0.70701983  1
  Zr  Zr49  1  0.70250656  0.89749535  0.69691337  1
  Sc  Sc50  1  0.10622592  0.89718985  0.69664927  1
  Sc  Sc51  1  0.29179402  0.90190143  0.89398415  1
  Sc  Sc52  1  0.10017918  0.70385773  0.49638742  1
  Sc  Sc53  1  0.09898543  0.28851073  0.70289724  1
  Sc  Sc54  1  0.48939877  0.49284456  0.10517805  1
  Sc  Sc55  1  0.49646061  0.29707479  0.10319084  1
  Sc  Sc56  1  0.90250743  0.29620606  0.29148566  1
  Sc  Sc57  1  0.10310585  0.28432410  0.49918289  1
  Sc  Sc58  1  0.70575677  0.50020294  0.48667341  1
  Sc  Sc59  1  0.08908298  0.30085126  0.09952630  1
  Sc  Sc60  1  0.09700969  0.90794492  0.50253464  1
  Sc  Sc61  1  0.50231691  0.29278403  0.69838253  1
  Sc  Sc62  1  0.30083574  0.69700234  0.50903837  1
  Sc  Sc63  1  0.90754971  0.09878707  0.29332080  1
  Sc  Sc64  1  0.51533106  0.49013963  0.90171766  1
  Sc  Sc65  1  0.68581519  0.30712998  0.89783227  1
  Sc  Sc66  1  0.90219076  0.90119438  0.90695718  1
  Sc  Sc67  1  0.69791553  0.49564289  0.71725771  1
  Sc  Sc68  1  0.50940105  0.89236123  0.50304688  1
  Sc  Sc69  1  0.11612908  0.50506612  0.30696042  1
  Sc  Sc70  1  0.91090941  0.49992898  0.09824881  1
  Sc  Sc71  1  0.09818933  0.90740010  0.08983867  1
  Sc  Sc72  1  0.30114597  0.89377058  0.70395944  1
  Sc  Sc73  1  0.89516634  0.50462868  0.30070447  1
  Sc  Sc74  1  0.49597565  0.49225692  0.69529051  1
  Sc  Sc75  1  0.90433960  0.91360761  0.09846770  1
  Sc  Sc76  1  0.09796959  0.50158063  0.70477155  1
  Sc  Sc77  1  0.30638521  0.91312154  0.28915202  1
  Sc  Sc78  1  0.49953859  0.89728866  0.71110105  1
  Sc  Sc79  1  0.30057565  0.29259661  0.49676308  1
  Sc  Sc80  1  0.70545402  0.09786240  0.29240055  1
  Sc  Sc81  1  0.09557709  0.70431410  0.70465622  1
  Sc  Sc82  1  0.69019992  0.69380763  0.90326408  1
  Sc  Sc83  1  0.69481097  0.90098738  0.89729757  1
  Sc  Sc84  1  0.90901700  0.69761670  0.89756432  1
  Sc  Sc85  1  0.30159275  0.70517148  0.90451973  1
  Sc  Sc86  1  0.30052654  0.29320282  0.30038896  1
  Sc  Sc87  1  0.89333371  0.90177582  0.69596509  1
  Sc  Sc88  1  0.29820999  0.70895963  0.69741362  1
  Sc  Sc89  1  0.90528344  0.28377348  0.89829623  1
  Sc  Sc90  1  0.70040070  0.09592426  0.89896859  1
  Sc  Sc91  1  0.10694439  0.29961105  0.90053842  1
  Sc  Sc92  1  0.49831407  0.70900278  0.09603328  1
  Sc  Sc93  1  0.30103502  0.50400936  0.10035408  1
  Sc  Sc94  1  0.30423327  0.69444417  0.09872307  1
  Sc  Sc95  1  0.50107228  0.70861277  0.90013155  1
  Sc  Sc96  1  0.29314926  0.10415947  0.10339032  1
  Sc  Sc97  1  0.29168185  0.10126037  0.29610715  1
  Sc  Sc98  1  0.69918140  0.49356199  0.29900349  1
  Sc  Sc99  1  0.70181146  0.29163283  0.10149706  1
  Nb  Nb100  1  0.89908402  0.11332797  0.70837511  1
  Nb  Nb101  1  0.29913185  0.09638792  0.50629498  1
  Nb  Nb102  1  0.30311846  0.10596334  0.89628525  1
  Nb  Nb103  1  0.90358413  0.29315244  0.69810778  1
  Nb  Nb104  1  0.10018901  0.09959575  0.10418948  1
  Nb  Nb105  1  0.10222360  0.90622476  0.30474103  1
  Nb  Nb106  1  0.89879384  0.49814534  0.89743531  1
  Nb  Nb107  1  0.30212674  0.09721343  0.70405215  1
  Nb  Nb108  1  0.50211416  0.69927986  0.50030014  1
  Nb  Nb109  1  0.70610705  0.49726925  0.90326758  1
  Nb  Nb110  1  0.49486931  0.90470940  0.89719311  1
  Nb  Nb111  1  0.70091095  0.09439985  0.69877818  1
  Nb  Nb112  1  0.70030568  0.90748044  0.50332081  1
  Nb  Nb113  1  0.10210419  0.09560059  0.29949192  1
  Nb  Nb114  1  0.90607740  0.09906118  0.51016969  1
  Nb  Nb115  1  0.89954419  0.30329802  0.09507634  1
  Nb  Nb116  1  0.30186760  0.30383832  0.10209847  1
  Nb  Nb117  1  0.89637835  0.69558856  0.49695023  1
  Nb  Nb118  1  0.90192764  0.09588668  0.89618107  1
  Nb  Nb119  1  0.30080441  0.29256043  0.90229963  1
  Nb  Nb120  1  0.29526673  0.70045034  0.29642487  1
  Nb  Nb121  1  0.49782457  0.49836276  0.29709946  1
  Nb  Nb122  1  0.30519988  0.90740717  0.09985015  1
  Nb  Nb123  1  0.50284371  0.30686501  0.29839284  1
  Nb  Nb124  1  0.90108376  0.49892773  0.50221243  1
  Nb  Nb125  1  -0.00251531  0.00978973  0.79926526  1
  Nb  Nb126  1  0.20312765  0.39606227  0.19983513  1
  Nb  Nb127  1  0.19487627  0.39710087  0.59819322  1
  Nb  Nb128  1  0.59688631  0.20561766  0.39423652  1
  Nb  Nb129  1  0.80036853  0.80267499  0.20166905  1
  Nb  Nb130  1  0.39505074  0.00182106  -0.00490811  1
  Nb  Nb131  1  0.60294733  0.40296457  0.59425093  1
  Nb  Nb132  1  0.59448961  0.59599222  0.20277901  1
  Nb  Nb133  1  0.39436877  0.39614973  0.80609765  1
  Nb  Nb134  1  0.40308272  0.00295918  0.60164265  1
  Nb  Nb135  1  0.39939671  -0.00021614  0.41066557  1
  Nb  Nb136  1  0.20351263  0.59898599  0.80468165  1
  Nb  Nb137  1  0.39564537  0.59306417  0.80245345  1
  Nb  Nb138  1  -0.00290339  0.39829218  0.60102820  1
  Nb  Nb139  1  0.79836584  0.79788218  0.00855273  1
  Nb  Nb140  1  0.80407180  0.40157718  -0.00567145  1
  Nb  Nb141  1  -0.00796382  0.39578453  0.79668353  1
  Nb  Nb142  1  0.60155891  0.59877249  0.59542296  1
  Nb  Nb143  1  -0.00937721  0.59687883  0.59637228  1
  Nb  Nb144  1  0.20466794  0.80685105  0.39009165  1
  Nb  Nb145  1  0.79742602  0.60279420  0.59733043  1
  Nb  Nb146  1  0.00055286  0.39849140  0.40706125  1
  Nb  Nb147  1  0.60407380  0.00227005  0.60228952  1
  Nb  Nb148  1  0.20119871  0.80593380  0.20036257  1
  Nb  Nb149  1  0.39564261  0.80208205  0.39854462  1
  Pd  Pd150  1  0.40896958  0.59518355  -0.00764619  1
  Pd  Pd151  1  0.18877165  0.60080875  0.60763552  1
  Pd  Pd152  1  0.59364799  0.80476357  0.39243105  1
  Pd  Pd153  1  0.01060701  0.40597833  0.21497720  1
  Pd  Pd154  1  0.79260693  0.20760064  -0.00995034  1
  Pd  Pd155  1  0.00221687  0.59403247  0.39999116  1
  Pd  Pd156  1  0.39980616  0.19453968  0.39456782  1
  Pd  Pd157  1  0.20186590  0.20491615  0.00924523  1
  Pd  Pd158  1  0.39440026  0.79590212  0.20378558  1
  Pd  Pd159  1  0.80375901  0.40150253  0.19009735  1
  Pd  Pd160  1  0.39330497  0.39569829  0.39054978  1
  Pd  Pd161  1  0.59813440  0.39828482  0.40259768  1
  Pd  Pd162  1  0.60633737  0.19847308  0.80347776  1
  Pd  Pd163  1  0.79529801  0.40709153  0.60109079  1
  Pd  Pd164  1  0.39866910  0.20000438  0.19875853  1
  Pd  Pd165  1  0.19759473  0.39141271  0.00925420  1
  Pd  Pd166  1  0.60281213  0.79428703  0.21041496  1
  Pd  Pd167  1  0.00718087  0.58994067  0.21018940  1
  Pd  Pd168  1  0.39467925  0.81060628  -0.00540079  1
  Pd  Pd169  1  0.80531286  -0.00290302  0.80174118  1
  Pd  Pd170  1  0.80444171  0.19142016  0.39062694  1
  Pd  Pd171  1  0.80597356  0.38425508  0.81070849  1
  Pd  Pd172  1  0.19340119  -0.00435707  0.19467836  1
  Pd  Pd173  1  0.60148464  0.40465667  0.19170602  1
  Pd  Pd174  1  -0.00003527  0.19602379  0.19488193  1
  Pd  Pd175  1  0.79628169  0.61013718  0.80431231  1
  Pd  Pd176  1  0.20735424  0.80225770  0.00896871  1
  Pd  Pd177  1  0.40041764  0.39950558  -0.00292226  1
  Pd  Pd178  1  0.60155197  0.19683523  0.20247407  1
  Pd  Pd179  1  0.79716621  0.60207788  0.20279605  1
  Pd  Pd180  1  0.19551999  0.00015526  0.79615729  1
  Pd  Pd181  1  0.79029933  0.20349788  0.80807786  1
  Pd  Pd182  1  0.00535503  0.19764381  -0.00173703  1
  Pd  Pd183  1  0.80849308  0.60260449  -0.00608031  1
  Pd  Pd184  1  0.40594669  0.60224766  0.60413536  1
  Pd  Pd185  1  0.81109037  0.39594069  0.39322621  1
  Pd  Pd186  1  0.59615003  -0.00114554  -0.00487827  1
  Pd  Pd187  1  -0.00283350  0.81585641  0.79818449  1
  Pd  Pd188  1  0.00197151  0.79575811  0.59584504  1
  Pd  Pd189  1  0.00599772  0.81073145  0.18980202  1
  Pd  Pd190  1  0.60420069  0.39542002  0.01218291  1
  Pd  Pd191  1  0.81426607  0.00562765  0.39618279  1
  Pd  Pd192  1  -0.00446497  0.00505063  0.40392344  1
  Pd  Pd193  1  0.58907894  0.59543477  0.79529168  1
  Pd  Pd194  1  0.58794451  0.59767913  0.00644161  1
  Pd  Pd195  1  0.79975145  0.80619004  0.39529763  1
  Pd  Pd196  1  0.79712106  0.19149794  0.60033868  1
  Pd  Pd197  1  -0.00601831  0.00226585  0.61005380  1
  Pd  Pd198  1  0.79960286  0.79842907  0.81691739  1
  Pd  Pd199  1  0.19543260  0.40079892  0.79524576  1
  Rh  Rh200  1  -0.00348228  0.19465241  0.40271883  1
  Rh  Rh201  1  0.20566828  0.19027562  0.40023166  1
  Rh  Rh202  1  0.00794341  0.00420366  0.19694653  1
  Rh  Rh203  1  0.80035987  0.59929301  0.40259058  1
  Rh  Rh204  1  0.80779002  0.19866598  0.19615843  1
  Rh  Rh205  1  0.59810340  0.80446571  0.80623287  1
  Rh  Rh206  1  0.20012527  0.60412709  -0.00404469  1
  Rh  Rh207  1  0.39617421  0.39160802  0.60590666  1
  Rh  Rh208  1  0.40775368  0.60660386  0.19372639  1
  Rh  Rh209  1  0.39810436  0.20603197  0.79803045  1
  Rh  Rh210  1  0.20000405  0.19476807  0.80145954  1
  Rh  Rh211  1  0.20660230  0.20129483  0.59868242  1
  Rh  Rh212  1  -0.00549038  0.60324154  0.00008066  1
  Rh  Rh213  1  0.79935689  -0.00596068  -0.00473504  1
  Rh  Rh214  1  0.58972698  0.39586427  0.78985925  1
  Rh  Rh215  1  0.60096840  0.00751908  0.19467069  1
  Rh  Rh216  1  0.00177962  0.01062829  -0.00589583  1
  Rh  Rh217  1  0.00847736  0.19683201  0.80336348  1
  Rh  Rh218  1  0.61346907  0.19948404  0.59385805  1
  Rh  Rh219  1  0.60580162  0.19809606  -0.00069983  1
  Rh  Rh220  1  0.40492688  0.80764463  0.59426521  1
  Rh  Rh221  1  0.39054627  0.19543120  0.60735073  1
  Rh  Rh222  1  0.59948617  0.80334455  0.60299190  1
  Rh  Rh223  1  0.80150660  0.00790123  0.60409262  1
  Rh  Rh224  1  0.39038450  0.60879675  0.40471655  1
  Rh  Rh225  1  0.00118040  0.19849591  0.59662036  1
  Rh  Rh226  1  0.39435102  -0.00177013  0.80178640  1
  Rh  Rh227  1  0.20690399  -0.00124219  0.39663734  1
  Rh  Rh228  1  0.19999898  0.59927295  0.19358404  1
  Rh  Rh229  1  0.60343239  0.80620184  -0.00683221  1
  Rh  Rh230  1  0.20776640  -0.00025489  0.60969937  1
  Rh  Rh231  1  0.39057053  0.19321902  0.00674879  1
  Rh  Rh232  1  -0.01053824  0.39249057  -0.01250602  1
  Rh  Rh233  1  0.60035355  0.59266790  0.39852556  1
  Rh  Rh234  1  0.00458983  0.59418288  0.79568618  1
  Rh  Rh235  1  0.80570908  -0.00552745  0.20266513  1
  Rh  Rh236  1  0.40271140  0.01261791  0.19101965  1
  Rh  Rh237  1  0.00717421  0.80639298  0.41005190  1
  Rh  Rh238  1  0.19250902  0.20660272  0.19420899  1
  Rh  Rh239  1  0.19862413  0.79165003  0.80095740  1
  Rh  Rh240  1  0.19590734  0.38796168  0.39952418  1
  Rh  Rh241  1  0.60235892  -0.00176829  0.79350519  1
  Rh  Rh242  1  0.20667984  0.61487311  0.40330164  1
  Rh  Rh243  1  0.79770855  0.79509301  0.59453755  1
  Rh  Rh244  1  0.20879845  0.00368751  0.00294278  1
  Rh  Rh245  1  0.39762909  0.79474760  0.80512091  1
  Rh  Rh246  1  0.39129130  0.39495296  0.20583613  1
  Rh  Rh247  1  0.58958004  0.00795205  0.41091026  1
  Rh  Rh248  1  -0.00922129  0.79768154  0.00493390  1
  Rh  Rh249  1  0.19281876  0.79900184  0.59407077  1
