# generated using pymatgen
data_ZrScNbPdRh
_symmetry_space_group_name_H-M   'P 1'
_cell_length_a   16.57148800
_cell_length_b   16.56221878
_cell_length_c   16.56707529
_cell_angle_alpha   90.01484626
_cell_angle_beta   89.98780470
_cell_angle_gamma   89.98230330
_symmetry_Int_Tables_number   1
_chemical_formula_structural   ZrScNbPdRh
_chemical_formula_sum   'Zr50 Sc50 Nb50 Pd50 Rh50'
_cell_volume   4547.00911233
_cell_formula_units_Z   50
loop_
 _symmetry_equiv_pos_site_id
 _symmetry_equiv_pos_as_xyz
  1  'x, y, z'
loop_
 _atom_site_type_symbol
 _atom_site_label
 _atom_site_symmetry_multiplicity
 _atom_site_fract_x
 _atom_site_fract_y
 _atom_site_fract_z
 _atom_site_occupancy
  Zr  Zr0  1  0.50075113  0.69108868  0.70356992  1
  Zr  Zr1  1  0.69065000  0.90251525  0.30092518  1
  Zr  Zr2  1  0.10109915  0.70337177  0.49882861  1
  Zr  Zr3  1  0.50053585  0.10330520  0.10379205  1
  Zr  Zr4  1  0.30359272  0.09770614  0.89432106  1
  Zr  Zr5  1  0.48297519  0.10488087  0.69854433  1
  Zr  Zr6  1  0.09575401  0.11148725  0.30597084  1
  Zr  Zr7  1  0.49666025  0.09705988  0.49855109  1
  Zr  Zr8  1  0.49838441  0.30469891  0.69306748  1
  Zr  Zr9  1  0.28990437  0.90394569  0.70284271  1
  Zr  Zr10  1  0.70149117  0.10462205  0.49539678  1
  Zr  Zr11  1  0.50753392  0.09746795  0.29523043  1
  Zr  Zr12  1  0.10235595  0.70726995  0.29742823  1
  Zr  Zr13  1  0.30462452  0.49291898  0.89904675  1
  Zr  Zr14  1  0.89796381  0.50855334  0.49783051  1
  Zr  Zr15  1  0.49983108  0.89976101  0.49241933  1
  Zr  Zr16  1  0.30498834  0.69620934  0.90046987  1
  Zr  Zr17  1  0.90230491  0.50421518  0.29460437  1
  Zr  Zr18  1  0.49943097  0.49600593  0.70013927  1
  Zr  Zr19  1  0.09650415  0.09671695  0.50321914  1
  Zr  Zr20  1  0.89722094  0.50424258  0.69980146  1
  Zr  Zr21  1  0.90204266  0.10519527  0.10654207  1
  Zr  Zr22  1  0.49927418  0.10087496  0.90024645  1
  Zr  Zr23  1  0.29691405  0.10932252  0.49268612  1
  Zr  Zr24  1  0.49920878  0.48839426  0.50180247  1
  Zr  Zr25  1  0.50274148  0.89987139  0.68822373  1
  Zr  Zr26  1  0.49997636  0.89823522  0.30176069  1
  Zr  Zr27  1  0.49949469  0.70343833  0.49622936  1
  Zr  Zr28  1  0.90611636  0.10765875  0.49830851  1
  Zr  Zr29  1  0.09321023  0.89766253  0.50779846  1
  Zr  Zr30  1  0.30097190  0.88995056  0.29633593  1
  Zr  Zr31  1  0.29483345  0.69088258  0.69332482  1
  Zr  Zr32  1  0.28569808  0.29184284  0.30191843  1
  Zr  Zr33  1  0.50024454  0.89611920  0.90087101  1
  Zr  Zr34  1  0.10379836  0.28943960  0.71209866  1
  Zr  Zr35  1  0.50814649  0.49999794  0.09889510  1
  Zr  Zr36  1  0.09771566  0.10553564  0.88612169  1
  Zr  Zr37  1  0.89524898  0.49584363  0.10123026  1
  Zr  Zr38  1  0.50100066  0.50064971  0.29507681  1
  Zr  Zr39  1  0.69843877  0.30295764  0.90255077  1
  Zr  Zr40  1  0.10017873  0.30474900  0.10720019  1
  Zr  Zr41  1  0.70758776  0.89861916  0.89668197  1
  Zr  Zr42  1  0.90520571  0.90230448  0.09716166  1
  Zr  Zr43  1  0.70046363  0.50312871  0.69463710  1
  Zr  Zr44  1  0.49901136  0.50005110  0.90413694  1
  Zr  Zr45  1  0.70291500  0.71093545  0.29123107  1
  Zr  Zr46  1  0.10580763  0.48748369  0.90402383  1
  Zr  Zr47  1  0.31170612  0.50576002  0.09550744  1
  Zr  Zr48  1  0.29945630  0.89994218  0.90123177  1
  Zr  Zr49  1  0.09451784  0.49360561  0.69784008  1
  Sc  Sc50  1  0.69614660  0.29025486  0.30226498  1
  Sc  Sc51  1  0.90759895  0.90321087  0.89578408  1
  Sc  Sc52  1  0.69631967  0.89647844  0.10958473  1
  Sc  Sc53  1  0.89584176  0.28423179  0.29475003  1
  Sc  Sc54  1  0.90801618  0.09829204  0.70384010  1
  Sc  Sc55  1  0.09483130  0.10218923  0.10809359  1
  Sc  Sc56  1  0.30778887  0.89870822  0.10481751  1
  Sc  Sc57  1  0.30326099  0.29939314  0.70487512  1
  Sc  Sc58  1  0.09690968  0.89807022  0.30928333  1
  Sc  Sc59  1  0.69068914  0.29559904  0.49786258  1
  Sc  Sc60  1  0.08922835  0.70957048  0.89291364  1
  Sc  Sc61  1  0.49867808  0.90008593  0.11007233  1
  Sc  Sc62  1  0.30103663  0.89810763  0.48742321  1
  Sc  Sc63  1  0.91325979  0.30245954  0.69446628  1
  Sc  Sc64  1  0.09048353  0.49227053  0.10602272  1
  Sc  Sc65  1  0.91168075  0.90083040  0.49895285  1
  Sc  Sc66  1  0.89860915  0.70590155  0.89315007  1
  Sc  Sc67  1  0.69172836  0.50184341  0.49520445  1
  Sc  Sc68  1  0.10313345  0.50311312  0.49404892  1
  Sc  Sc69  1  0.70301561  0.69382993  0.49200494  1
  Sc  Sc70  1  0.89461889  0.30208983  0.89570649  1
  Sc  Sc71  1  0.70242775  0.50135766  0.09792160  1
  Sc  Sc72  1  0.29141485  0.48943519  0.30798579  1
  Sc  Sc73  1  0.30933348  0.10486698  0.10667294  1
  Sc  Sc74  1  0.49740946  0.29686356  0.90398984  1
  Sc  Sc75  1  0.89501867  0.50107001  0.89549209  1
  Sc  Sc76  1  0.31249018  0.70473585  0.10829087  1
  Sc  Sc77  1  0.70704339  0.10668743  0.89617337  1
  Sc  Sc78  1  0.68941288  0.90029637  0.50205283  1
  Sc  Sc79  1  0.70048108  0.29486544  0.69651171  1
  Sc  Sc80  1  0.89660669  0.09474403  0.89844169  1
  Sc  Sc81  1  0.49816505  0.29660025  0.49541254  1
  Sc  Sc82  1  0.70990967  0.09698665  0.69693062  1
  Sc  Sc83  1  0.90058036  0.70017700  0.70843475  1
  Sc  Sc84  1  0.70413130  0.49802725  0.90938462  1
  Sc  Sc85  1  0.70538951  0.89885414  0.69879819  1
  Sc  Sc86  1  0.09310266  0.89628729  0.10506190  1
  Sc  Sc87  1  0.70580896  0.69685974  0.70534590  1
  Sc  Sc88  1  0.70138047  0.10554575  0.10027012  1
  Sc  Sc89  1  0.09875014  0.49506717  0.29674033  1
  Sc  Sc90  1  0.09079809  0.29124936  0.50892956  1
  Sc  Sc91  1  0.70180327  0.30283615  0.09910727  1
  Sc  Sc92  1  0.49842654  0.69989674  0.29360314  1
  Sc  Sc93  1  0.09908114  0.71212862  0.69584493  1
  Sc  Sc94  1  0.90104570  0.90373389  0.70306530  1
  Sc  Sc95  1  0.69991411  0.69895998  0.89964111  1
  Sc  Sc96  1  0.50722584  0.69575910  0.90448695  1
  Sc  Sc97  1  0.31064188  0.49718296  0.69957808  1
  Sc  Sc98  1  0.50458427  0.69224940  0.10216488  1
  Sc  Sc99  1  0.69470107  0.49973271  0.29720233  1
  Nb  Nb100  1  0.90236216  0.70223939  0.10632371  1
  Nb  Nb101  1  0.90154634  0.30160782  0.10153192  1
  Nb  Nb102  1  0.29816989  0.31227114  0.49159368  1
  Nb  Nb103  1  0.50006425  0.29447832  0.10724505  1
  Nb  Nb104  1  0.29446313  0.49833796  0.50149419  1
  Nb  Nb105  1  0.89409105  0.89918133  0.30305878  1
  Nb  Nb106  1  0.09687032  0.70482537  0.09885813  1
  Nb  Nb107  1  0.90071761  0.30209658  0.50008934  1
  Nb  Nb108  1  0.10129805  0.90201692  0.90046956  1
  Nb  Nb109  1  0.28598205  0.30949723  0.90330322  1
  Nb  Nb110  1  0.29328923  0.69135158  0.49863088  1
  Nb  Nb111  1  0.70708393  0.70090214  0.10076374  1
  Nb  Nb112  1  0.89754932  0.70851679  0.30590009  1
  Nb  Nb113  1  0.70510012  0.10165397  0.29985815  1
  Nb  Nb114  1  0.50555565  0.30100701  0.29739387  1
  Nb  Nb115  1  0.11085818  0.09601046  0.69749623  1
  Nb  Nb116  1  0.09939430  0.30392904  0.29959748  1
  Nb  Nb117  1  0.90168455  0.70176873  0.49767760  1
  Nb  Nb118  1  0.09674637  0.90738522  0.70390817  1
  Nb  Nb119  1  0.29889575  0.70186540  0.30211974  1
  Nb  Nb120  1  0.28830475  0.10029471  0.69968897  1
  Nb  Nb121  1  0.29048601  0.09852415  0.30049440  1
  Nb  Nb122  1  0.89892520  0.09883618  0.30262300  1
  Nb  Nb123  1  0.10913359  0.30027354  0.90338409  1
  Nb  Nb124  1  0.29971862  0.29843097  0.10040409  1
  Nb  Nb125  1  -0.00219934  0.60531956  0.59701237  1
  Nb  Nb126  1  0.00444381  0.20846261  -0.00179271  1
  Nb  Nb127  1  0.19765878  0.59657004  0.80400091  1
  Nb  Nb128  1  0.80499753  0.39605935  0.40240850  1
  Nb  Nb129  1  0.59589921  0.00240692  0.80154978  1
  Nb  Nb130  1  -0.00644726  0.39425246  0.39919645  1
  Nb  Nb131  1  0.19877130  0.60646305  0.19465353  1
  Nb  Nb132  1  0.19990240  0.20227588  -0.00007069  1
  Nb  Nb133  1  0.00052647  0.60546512  0.00544855  1
  Nb  Nb134  1  0.59854545  -0.00009231  -0.00473888  1
  Nb  Nb135  1  0.40038062  0.79881280  0.79138469  1
  Nb  Nb136  1  0.39145890  0.59876318  0.40429750  1
  Nb  Nb137  1  0.59907297  0.39968389  0.79916563  1
  Nb  Nb138  1  0.19758739  0.00146469  0.00222569  1
  Nb  Nb139  1  0.80362772  0.40092044  0.59127367  1
  Nb  Nb140  1  0.80435731  0.79741610  0.00879155  1
  Nb  Nb141  1  0.19567092  0.80039938  0.00161758  1
  Nb  Nb142  1  0.39525688  0.79511284  0.59928728  1
  Nb  Nb143  1  0.80266887  0.00339864  0.39590116  1
  Nb  Nb144  1  0.19274861  0.60566473  0.00287941  1
  Nb  Nb145  1  0.80728602  0.79368428  0.59429199  1
  Nb  Nb146  1  0.20252558  0.39907852  0.59620009  1
  Nb  Nb147  1  0.20138357  0.00180481  0.20299624  1
  Nb  Nb148  1  0.40211140  0.38937441  0.19877856  1
  Nb  Nb149  1  0.80397210  0.00106538  0.20839743  1
  Pd  Pd150  1  0.80628098  -0.00984917  0.58965975  1
  Pd  Pd151  1  0.79734137  0.39238185  0.20840904  1
  Pd  Pd152  1  -0.00473576  0.80314107  0.20799806  1
  Pd  Pd153  1  0.19562202  -0.00394857  0.39661319  1
  Pd  Pd154  1  0.60855510  0.78855244  0.60125426  1
  Pd  Pd155  1  0.60216468  0.60425501  0.59570979  1
  Pd  Pd156  1  0.40278917  0.40137591  0.39145211  1
  Pd  Pd157  1  0.20557449  0.80699208  0.59413224  1
  Pd  Pd158  1  0.60789583  0.58979296  0.80770051  1
  Pd  Pd159  1  0.80906163  0.60844882  -0.00379741  1
  Pd  Pd160  1  0.59856544  0.80361177  0.79386063  1
  Pd  Pd161  1  0.60260952  0.19745740  0.00299226  1
  Pd  Pd162  1  0.39728136  0.00432472  0.39147723  1
  Pd  Pd163  1  0.60146442  0.01050734  0.60642825  1
  Pd  Pd164  1  0.20842387  0.40995138  0.19290734  1
  Pd  Pd165  1  0.60112351  0.19894960  0.79289793  1
  Pd  Pd166  1  0.40104774  0.00005197  0.00970937  1
  Pd  Pd167  1  0.39853988  0.20259170  0.21226115  1
  Pd  Pd168  1  0.00448137  0.60348647  0.19789785  1
  Pd  Pd169  1  0.38712975  -0.00485748  0.59499675  1
  Pd  Pd170  1  0.00463595  0.60014410  0.39784938  1
  Pd  Pd171  1  0.40355804  0.20129124  0.39106823  1
  Pd  Pd172  1  0.80787061  0.20281229  0.79267633  1
  Pd  Pd173  1  0.59766435  0.19283404  0.60343864  1
  Pd  Pd174  1  -0.00921552  0.39931853  -0.00624796  1
  Pd  Pd175  1  0.79335043  0.39763721  0.78968931  1
  Pd  Pd176  1  0.00260253  -0.00319767  0.21120288  1
  Pd  Pd177  1  0.19942207  0.59964503  0.38913865  1
  Pd  Pd178  1  0.79507065  0.59724663  0.38981327  1
  Pd  Pd179  1  0.59265756  0.60424840  0.39341122  1
  Pd  Pd180  1  0.39305587  0.20935722  0.80490672  1
  Pd  Pd181  1  0.40070530  0.79523694  0.00005551  1
  Pd  Pd182  1  0.79589859  0.81095642  0.41050681  1
  Pd  Pd183  1  0.00687640  0.59938327  0.80172380  1
  Pd  Pd184  1  0.80641285  0.20685115  0.60280101  1
  Pd  Pd185  1  0.20537217  -0.00340854  0.58998737  1
  Pd  Pd186  1  0.40303006  0.59860394  0.59108681  1
  Pd  Pd187  1  0.40385696  -0.00816293  0.79322861  1
  Pd  Pd188  1  0.60286936  0.39580144  0.19789850  1
  Pd  Pd189  1  0.39211684  0.20642246  -0.00494857  1
  Pd  Pd190  1  0.20069814  0.79334484  0.80475076  1
  Pd  Pd191  1  0.80883698  0.20453850  0.00123014  1
  Pd  Pd192  1  0.79786523  0.60145398  0.20465678  1
  Pd  Pd193  1  0.20647241  0.21034327  0.59533397  1
  Pd  Pd194  1  -0.00191201  0.39499679  0.80787582  1
  Pd  Pd195  1  0.00854390  0.01147215  -0.00366738  1
  Pd  Pd196  1  0.38894463  0.20714540  0.59477227  1
  Pd  Pd197  1  0.60680497  0.80255971  0.00811109  1
  Pd  Pd198  1  0.79172118  -0.00626132  0.00892559  1
  Pd  Pd199  1  0.40603695  0.39015015  0.00596661  1
  Rh  Rh200  1  0.60444584  0.00658084  0.40185168  1
  Rh  Rh201  1  0.60833146  0.00702910  0.19179734  1
  Rh  Rh202  1  0.20235214  0.80180709  0.19257286  1
  Rh  Rh203  1  -0.01074750  0.39087230  0.21185653  1
  Rh  Rh204  1  0.39532280  0.78862405  0.40366934  1
  Rh  Rh205  1  0.80589387  0.60428007  0.60135537  1
  Rh  Rh206  1  0.00197165  0.00447165  0.60721350  1
  Rh  Rh207  1  0.39701657  0.60317466  0.80308946  1
  Rh  Rh208  1  0.61101388  0.60398928  0.19672829  1
  Rh  Rh209  1  0.60570248  0.60055647  0.00433641  1
  Rh  Rh210  1  0.80793630  0.80655458  0.19528103  1
  Rh  Rh211  1  0.60984606  0.39713335  0.60354935  1
  Rh  Rh212  1  0.00009726  0.81078663  0.79495637  1
  Rh  Rh213  1  0.79668603  0.19748246  0.19559400  1
  Rh  Rh214  1  -0.00335027  0.00088271  0.39905254  1
  Rh  Rh215  1  0.19564858  0.00123027  0.80477843  1
  Rh  Rh216  1  0.40773126  0.79783276  0.20312738  1
  Rh  Rh217  1  0.59744189  0.39549970  -0.00203506  1
  Rh  Rh218  1  -0.00532336  0.20388742  0.80590434  1
  Rh  Rh219  1  -0.00775302  0.79579349  0.60773967  1
  Rh  Rh220  1  0.39273716  0.00158313  0.20770475  1
  Rh  Rh221  1  0.80242890  0.80201766  0.79935086  1
  Rh  Rh222  1  0.60225143  0.79459539  0.39589418  1
  Rh  Rh223  1  0.60663880  0.20088658  0.19922520  1
  Rh  Rh224  1  0.18228732  0.39041600  0.41025094  1
  Rh  Rh225  1  0.20369543  0.40580571  0.78632635  1
  Rh  Rh226  1  0.00455339  0.00037178  0.79725693  1
  Rh  Rh227  1  0.60541806  0.39607320  0.39876765  1
  Rh  Rh228  1  0.19140127  0.20518122  0.40808454  1
  Rh  Rh229  1  0.39175562  0.39552292  0.59547586  1
  Rh  Rh230  1  0.59380599  0.79349230  0.19614184  1
  Rh  Rh231  1  0.79568887  0.59941314  0.80648309  1
  Rh  Rh232  1  0.80347789  0.39713542  0.00337465  1
  Rh  Rh233  1  0.20274229  0.40256459  0.01360330  1
  Rh  Rh234  1  -0.00382901  0.79564369  -0.00428572  1
  Rh  Rh235  1  0.80054454  0.20033873  0.40347354  1
  Rh  Rh236  1  0.38592665  0.58787656  0.21802963  1
  Rh  Rh237  1  0.00110300  0.20614952  0.19725770  1
  Rh  Rh238  1  0.00109836  0.41154217  0.58781926  1
  Rh  Rh239  1  0.19788105  0.80086483  0.40552441  1
  Rh  Rh240  1  0.19782634  0.19290373  0.19317880  1
  Rh  Rh241  1  0.79530106  0.00095883  0.79972799  1
  Rh  Rh242  1  -0.00055749  0.79870066  0.39668743  1
  Rh  Rh243  1  0.00103234  0.20830027  0.39701189  1
  Rh  Rh244  1  0.40390685  0.60507930  -0.00287006  1
  Rh  Rh245  1  0.40668436  0.39332889  0.80468772  1
  Rh  Rh246  1  0.00119166  0.19144077  0.60933407  1
  Rh  Rh247  1  0.20964504  0.19869564  0.80438574  1
  Rh  Rh248  1  0.59304650  0.19602035  0.39732354  1
  Rh  Rh249  1  0.19007822  0.58943579  0.60915827  1
