# generated using pymatgen
data_ZrScNbPdRh
_symmetry_space_group_name_H-M   'P 1'
_cell_length_a   16.56104616
_cell_length_b   16.56425362
_cell_length_c   16.55749005
_cell_angle_alpha   89.99130437
_cell_angle_beta   89.96371060
_cell_angle_gamma   90.01687318
_symmetry_Int_Tables_number   1
_chemical_formula_structural   ZrScNbPdRh
_chemical_formula_sum   'Zr50 Sc50 Nb50 Pd50 Rh50'
_cell_volume   4542.07217323
_cell_formula_units_Z   50
loop_
 _symmetry_equiv_pos_site_id
 _symmetry_equiv_pos_as_xyz
  1  'x, y, z'
loop_
 _atom_site_type_symbol
 _atom_site_label
 _atom_site_symmetry_multiplicity
 _atom_site_fract_x
 _atom_site_fract_y
 _atom_site_fract_z
 _atom_site_occupancy
  Zr  Zr0  1  0.89904983  0.09685648  0.31322863  1
  Zr  Zr1  1  0.30444686  0.89897953  0.10571041  1
  Zr  Zr2  1  0.09929632  0.50117274  0.10008368  1
  Zr  Zr3  1  0.89914196  0.89635453  0.31036627  1
  Zr  Zr4  1  0.11399898  0.49709825  0.89325295  1
  Zr  Zr5  1  0.10149087  0.70417501  0.89474868  1
  Zr  Zr6  1  0.30331756  0.31079988  0.90756089  1
  Zr  Zr7  1  0.70333072  0.69969298  0.31363270  1
  Zr  Zr8  1  0.89578387  0.09402841  0.50042090  1
  Zr  Zr9  1  0.71367704  0.68332115  0.88835819  1
  Zr  Zr10  1  0.30123463  0.29203031  0.69631244  1
  Zr  Zr11  1  0.09745089  0.09605830  0.90922208  1
  Zr  Zr12  1  0.30740100  0.30754659  0.50227053  1
  Zr  Zr13  1  0.88492373  0.50560166  0.90539724  1
  Zr  Zr14  1  0.50162842  0.90114555  0.30323813  1
  Zr  Zr15  1  0.10422033  0.10394241  0.30173740  1
  Zr  Zr16  1  0.69315458  0.50352414  0.29729925  1
  Zr  Zr17  1  0.70692777  0.50932387  0.49996979  1
  Zr  Zr18  1  0.09493581  0.89756592  0.89476880  1
  Zr  Zr19  1  0.30575898  0.50492303  0.89430034  1
  Zr  Zr20  1  0.69466533  0.09477951  0.10225096  1
  Zr  Zr21  1  0.30111219  0.50366898  0.09268410  1
  Zr  Zr22  1  0.30671362  0.89595675  0.29572516  1
  Zr  Zr23  1  0.69311308  0.90098954  0.49577068  1
  Zr  Zr24  1  0.69758069  0.30313730  0.50417243  1
  Zr  Zr25  1  0.11199956  0.30754739  0.50031396  1
  Zr  Zr26  1  0.89643946  0.30447835  0.30082596  1
  Zr  Zr27  1  0.50354234  0.70168297  0.69285853  1
  Zr  Zr28  1  0.29414880  0.50154442  0.49984807  1
  Zr  Zr29  1  0.49595729  0.30078053  0.30880391  1
  Zr  Zr30  1  0.29857530  0.70605806  0.88594225  1
  Zr  Zr31  1  0.50368275  0.88362286  0.09535536  1
  Zr  Zr32  1  0.70706398  0.09888721  0.49648567  1
  Zr  Zr33  1  0.89588775  0.29732704  0.89764100  1
  Zr  Zr34  1  0.70031454  0.30174756  0.10488753  1
  Zr  Zr35  1  0.09947635  0.49940863  0.31321456  1
  Zr  Zr36  1  0.09811699  0.50158057  0.50740711  1
  Zr  Zr37  1  0.49959254  0.49831646  0.30507773  1
  Zr  Zr38  1  0.09784962  0.69849103  0.50100035  1
  Zr  Zr39  1  0.89334636  0.69624146  0.09652519  1
  Zr  Zr40  1  0.70235485  0.89902211  0.29308201  1
  Zr  Zr41  1  0.90342956  0.89623768  0.70026436  1
  Zr  Zr42  1  0.89835365  0.29701557  0.69727366  1
  Zr  Zr43  1  0.69987427  0.10340743  0.89648330  1
  Zr  Zr44  1  0.10126076  0.89883072  0.30083743  1
  Zr  Zr45  1  0.89162151  0.29960435  0.50165462  1
  Zr  Zr46  1  0.09738044  0.31142904  0.69966896  1
  Zr  Zr47  1  0.31094907  0.70272698  0.10487078  1
  Zr  Zr48  1  0.49723378  0.30238191  0.50130313  1
  Zr  Zr49  1  0.89391195  0.69703601  0.49701961  1
  Sc  Sc50  1  0.11291304  0.09984312  0.10561258  1
  Sc  Sc51  1  0.30226442  0.11209293  0.10697679  1
  Sc  Sc52  1  0.89640242  0.10521099  0.69427303  1
  Sc  Sc53  1  0.10673729  0.70254195  0.09942381  1
  Sc  Sc54  1  0.49630634  0.10115946  0.30002645  1
  Sc  Sc55  1  0.50058919  0.89653029  0.89613943  1
  Sc  Sc56  1  0.90333650  0.89323301  0.10778190  1
  Sc  Sc57  1  0.49911516  0.50344217  0.10426501  1
  Sc  Sc58  1  0.29797336  0.28413253  0.30482955  1
  Sc  Sc59  1  0.50665967  0.90792877  0.69267371  1
  Sc  Sc60  1  0.49867790  0.29722502  0.09806368  1
  Sc  Sc61  1  0.50262773  0.30649039  0.89887889  1
  Sc  Sc62  1  0.69371921  0.50682016  0.69681671  1
  Sc  Sc63  1  0.30047340  0.10389995  0.51329306  1
  Sc  Sc64  1  0.49791893  0.30579487  0.69925853  1
  Sc  Sc65  1  0.09566439  0.09903229  0.49979151  1
  Sc  Sc66  1  0.09916308  0.89749372  0.09673682  1
  Sc  Sc67  1  0.68648935  0.90460468  0.89699670  1
  Sc  Sc68  1  0.50149706  0.10639055  0.10059990  1
  Sc  Sc69  1  0.69686975  0.09986470  0.70431791  1
  Sc  Sc70  1  0.51370728  0.10563014  0.89557733  1
  Sc  Sc71  1  0.30306122  0.51577029  0.31070535  1
  Sc  Sc72  1  0.10493581  0.10873897  0.69305140  1
  Sc  Sc73  1  0.69012159  0.29395676  0.89426584  1
  Sc  Sc74  1  0.69269916  0.49448741  0.89251944  1
  Sc  Sc75  1  0.89510991  0.69793914  0.70327138  1
  Sc  Sc76  1  0.69409288  0.30300033  0.30648010  1
  Sc  Sc77  1  0.50356814  0.69252406  0.29746368  1
  Sc  Sc78  1  0.29539802  0.89225469  0.69278410  1
  Sc  Sc79  1  0.10386130  0.70305893  0.69520913  1
  Sc  Sc80  1  0.90515258  0.08828870  0.09862926  1
  Sc  Sc81  1  0.29643847  0.12150636  0.90326990  1
  Sc  Sc82  1  0.90025618  0.70263810  0.89265742  1
  Sc  Sc83  1  0.10562007  0.29950988  0.89767554  1
  Sc  Sc84  1  0.09914457  0.70038017  0.30674519  1
  Sc  Sc85  1  0.09884401  0.89320983  0.69557493  1
  Sc  Sc86  1  0.90669339  0.09693727  0.89387934  1
  Sc  Sc87  1  0.10295846  0.30421165  0.10092608  1
  Sc  Sc88  1  0.48980991  0.70631440  0.89762219  1
  Sc  Sc89  1  0.90134059  0.49355373  0.31104772  1
  Sc  Sc90  1  0.90010085  0.70652684  0.30562809  1
  Sc  Sc91  1  0.49998520  0.49480442  0.70171812  1
  Sc  Sc92  1  0.30390623  0.89200097  0.49790184  1
  Sc  Sc93  1  0.09339102  0.89682386  0.50551958  1
  Sc  Sc94  1  0.10297096  0.30080570  0.30850226  1
  Sc  Sc95  1  0.49912830  0.09418604  0.49836502  1
  Sc  Sc96  1  0.49154484  0.48894521  0.49994084  1
  Sc  Sc97  1  0.70231526  0.49763736  0.09682725  1
  Sc  Sc98  1  0.69504248  0.70344433  0.10630788  1
  Sc  Sc99  1  0.50331764  0.90159247  0.49662154  1
  Nb  Nb100  1  0.49422593  0.10520695  0.69798035  1
  Nb  Nb101  1  0.90461273  0.50144985  0.50461113  1
  Nb  Nb102  1  0.69946286  0.29814336  0.69980794  1
  Nb  Nb103  1  0.70328643  0.09693586  0.29942296  1
  Nb  Nb104  1  0.30121097  0.70178880  0.31011571  1
  Nb  Nb105  1  0.89741667  0.49194936  0.10122915  1
  Nb  Nb106  1  0.28970761  0.50771146  0.70100268  1
  Nb  Nb107  1  0.50191688  0.69801274  0.09565802  1
  Nb  Nb108  1  0.30131524  0.89947445  0.89522247  1
  Nb  Nb109  1  0.89714882  0.30851358  0.10204549  1
  Nb  Nb110  1  0.70073198  0.90040428  0.69701356  1
  Nb  Nb111  1  0.30208345  0.69754437  0.49821460  1
  Nb  Nb112  1  0.29347592  0.09115245  0.28951587  1
  Nb  Nb113  1  0.29933132  0.69952596  0.69405575  1
  Nb  Nb114  1  0.69694681  0.70064770  0.50647606  1
  Nb  Nb115  1  0.49855222  0.49605594  0.90121021  1
  Nb  Nb116  1  0.89708044  0.90222724  0.50403467  1
  Nb  Nb117  1  0.50484930  0.70650380  0.50148945  1
  Nb  Nb118  1  0.90655016  0.90269194  0.89998754  1
  Nb  Nb119  1  0.30267879  0.30057110  0.10200540  1
  Nb  Nb120  1  0.10091571  0.49858220  0.69844564  1
  Nb  Nb121  1  0.70118396  0.89689300  0.09750566  1
  Nb  Nb122  1  0.69982613  0.69712765  0.69116214  1
  Nb  Nb123  1  0.90960057  0.49298214  0.69411358  1
  Nb  Nb124  1  0.30494647  0.10205767  0.70185265  1
  Nb  Nb125  1  -0.00589475  0.59378972  0.19609472  1
  Nb  Nb126  1  0.80547392  0.59466438  0.20113393  1
  Nb  Nb127  1  0.79198712  0.80031279  0.59926082  1
  Nb  Nb128  1  0.79969767  -0.00624642  -0.00350092  1
  Nb  Nb129  1  0.60908734  0.79374849  0.78908656  1
  Nb  Nb130  1  0.20504370  -0.00030661  0.39555205  1
  Nb  Nb131  1  0.20748421  0.00287405  0.80145862  1
  Nb  Nb132  1  0.39354562  0.00711160  0.80010870  1
  Nb  Nb133  1  0.00340010  0.58968996  0.79901863  1
  Nb  Nb134  1  0.59875203  0.20112981  0.60193239  1
  Nb  Nb135  1  0.20991203  0.40351505  0.20255421  1
  Nb  Nb136  1  0.80028908  0.39694838  0.79136052  1
  Nb  Nb137  1  0.59429481  0.60258335  -0.00342744  1
  Nb  Nb138  1  0.39544003  -0.00037648  -0.00731428  1
  Nb  Nb139  1  0.21059098  -0.00376973  -0.00648747  1
  Nb  Nb140  1  0.39394503  0.60623629  0.59882395  1
  Nb  Nb141  1  0.00276716  0.00296368  0.20928607  1
  Nb  Nb142  1  -0.00722783  0.20113244  0.19779556  1
  Nb  Nb143  1  0.80376601  0.19622483  0.00722030  1
  Nb  Nb144  1  0.79571096  0.80876654  -0.00506064  1
  Nb  Nb145  1  0.80356168  0.19742771  0.19887487  1
  Nb  Nb146  1  0.39078083  0.39801055  0.20078052  1
  Nb  Nb147  1  0.80091089  -0.00763266  0.80264391  1
  Nb  Nb148  1  -0.00675101  0.20383153  0.00843264  1
  Nb  Nb149  1  -0.00121844  0.59394444  -0.00115874  1
  Pd  Pd150  1  -0.00680838  0.40563901  0.81044716  1
  Pd  Pd151  1  0.58860005  0.60431083  0.80500223  1
  Pd  Pd152  1  0.19400403  0.19958835  0.79894346  1
  Pd  Pd153  1  0.59163170  0.59736834  0.41187248  1
  Pd  Pd154  1  0.59145460  -0.00170137  0.19955796  1
  Pd  Pd155  1  0.59815970  0.40547845  0.00217386  1
  Pd  Pd156  1  0.20040881  0.60916126  -0.00285500  1
  Pd  Pd157  1  0.20806050  0.80240562  -0.00021326  1
  Pd  Pd158  1  0.39552488  -0.00565036  0.60265696  1
  Pd  Pd159  1  0.58699553  0.59092905  0.59124583  1
  Pd  Pd160  1  0.40117325  0.59899768  0.20395941  1
  Pd  Pd161  1  0.19889250  0.80488848  0.40537146  1
  Pd  Pd162  1  0.00070324  0.79431183  0.20133297  1
  Pd  Pd163  1  0.40500045  0.60307786  -0.00556310  1
  Pd  Pd164  1  0.39340523  0.18755227  0.40187598  1
  Pd  Pd165  1  0.40716251  0.20190156  0.80847772  1
  Pd  Pd166  1  -0.00253001  0.60668210  0.60814520  1
  Pd  Pd167  1  0.00397808  0.00619421  0.78700753  1
  Pd  Pd168  1  0.19508978  0.59976534  0.20874610  1
  Pd  Pd169  1  0.59025949  0.39815710  0.19782175  1
  Pd  Pd170  1  0.41001573  0.00225273  0.18917406  1
  Pd  Pd171  1  0.00673806  0.19633840  0.80327172  1
  Pd  Pd172  1  0.39599608  0.40083210  0.79417767  1
  Pd  Pd173  1  0.79375474  0.80798614  0.80075183  1
  Pd  Pd174  1  0.61096537  0.78568478  -0.01533656  1
  Pd  Pd175  1  0.00251665  0.00264731  0.60529490  1
  Pd  Pd176  1  0.39022807  0.00582153  0.40337797  1
  Pd  Pd177  1  0.20063142  0.79324659  0.20262936  1
  Pd  Pd178  1  0.00285440  0.39957997  -0.00870921  1
  Pd  Pd179  1  -0.00043100  0.20776711  0.40378681  1
  Pd  Pd180  1  0.00904947  0.39925563  0.20638862  1
  Pd  Pd181  1  0.20127414  -0.00303330  0.59890241  1
  Pd  Pd182  1  0.60113020  0.19315554  0.40498883  1
  Pd  Pd183  1  0.59950520  0.79372310  0.20678962  1
  Pd  Pd184  1  0.20859065  0.19006462  0.40961351  1
  Pd  Pd185  1  0.40820721  0.19773310  -0.00413639  1
  Pd  Pd186  1  0.40291296  0.80230556  0.60011123  1
  Pd  Pd187  1  0.79511269  0.40859598  0.60656448  1
  Pd  Pd188  1  0.00321517  0.20556685  0.59186530  1
  Pd  Pd189  1  0.59323413  -0.00083607  0.00113676  1
  Pd  Pd190  1  0.60230338  0.01068335  0.60123149  1
  Pd  Pd191  1  -0.00748136  0.79288544  0.00024828  1
  Pd  Pd192  1  0.40731714  0.81174659  0.78602401  1
  Pd  Pd193  1  0.78766667  0.39065098  -0.01039135  1
  Pd  Pd194  1  0.60198440  0.20215040  0.20723154  1
  Pd  Pd195  1  0.19989135  0.39783003  0.00531690  1
  Pd  Pd196  1  0.40665591  0.59910368  0.79102039  1
  Pd  Pd197  1  0.80732394  0.00011616  0.19637928  1
  Pd  Pd198  1  0.79465611  0.40405491  0.40057025  1
  Pd  Pd199  1  0.40960890  0.79293119  0.39661162  1
  Rh  Rh200  1  0.39064860  0.39978309  0.38910175  1
  Rh  Rh201  1  0.20221248  0.60406323  0.59993735  1
  Rh  Rh202  1  0.60368575  0.40770019  0.40721847  1
  Rh  Rh203  1  0.80511805  0.59536982  0.39522178  1
  Rh  Rh204  1  0.40811128  0.79084578  0.20703919  1
  Rh  Rh205  1  0.38955858  0.41143178  0.61032164  1
  Rh  Rh206  1  0.79443606  0.40278923  0.20769463  1
  Rh  Rh207  1  0.21075440  0.39595605  0.79298327  1
  Rh  Rh208  1  0.19877707  0.80550439  0.79199330  1
  Rh  Rh209  1  0.60358627  0.39932430  0.79553437  1
  Rh  Rh210  1  0.19352838  0.60663312  0.79332677  1
  Rh  Rh211  1  0.19672311  0.60675122  0.40320065  1
  Rh  Rh212  1  0.80697301  0.60091092  0.60184425  1
  Rh  Rh213  1  0.20100922  0.79602822  0.59350558  1
  Rh  Rh214  1  0.59680785  0.79870769  0.39796874  1
  Rh  Rh215  1  0.39489299  0.80145219  -0.00119778  1
  Rh  Rh216  1  0.20874416  0.40164915  0.39212908  1
  Rh  Rh217  1  0.59274598  0.20515190  0.78772659  1
  Rh  Rh218  1  0.79691003  0.80494133  0.41157123  1
  Rh  Rh219  1  -0.00064730  0.80162707  0.40859112  1
  Rh  Rh220  1  -0.01225234  0.79444544  0.59812858  1
  Rh  Rh221  1  0.60314343  0.00367586  0.39109135  1
  Rh  Rh222  1  0.19390171  0.20120116  0.00574132  1
  Rh  Rh223  1  -0.00227763  0.39575200  0.41135257  1
  Rh  Rh224  1  0.79252500  0.60344041  0.01037893  1
  Rh  Rh225  1  0.20601916  0.40009859  0.60779782  1
  Rh  Rh226  1  0.00529972  0.00076330  0.00961301  1
  Rh  Rh227  1  0.60486530  0.20333976  0.00328793  1
  Rh  Rh228  1  0.40929868  0.20030535  0.59684944  1
  Rh  Rh229  1  0.00807675  -0.00846916  0.40131122  1
  Rh  Rh230  1  0.60359817  0.39720844  0.60018542  1
  Rh  Rh231  1  0.40150900  0.20480624  0.20527473  1
  Rh  Rh232  1  0.79395472  0.20297991  0.39314292  1
  Rh  Rh233  1  0.00129381  0.79087108  0.79524630  1
  Rh  Rh234  1  0.40674318  0.40238262  0.00710197  1
  Rh  Rh235  1  0.79975848  0.19895105  0.80081078  1
  Rh  Rh236  1  0.60455049  0.80305400  0.60081279  1
  Rh  Rh237  1  0.60708906  0.60103303  0.19159471  1
  Rh  Rh238  1  -0.00010498  0.39399922  0.59172384  1
  Rh  Rh239  1  0.79358955  -0.00798482  0.39991538  1
  Rh  Rh240  1  0.79052393  0.19454703  0.60319047  1
  Rh  Rh241  1  0.40831289  0.60855995  0.41146657  1
  Rh  Rh242  1  0.19505194  0.21270035  0.19948556  1
  Rh  Rh243  1  0.19619435  -0.00777484  0.19841398  1
  Rh  Rh244  1  0.59640915  -0.00369405  0.79286005  1
  Rh  Rh245  1  0.19881599  0.20292188  0.59886389  1
  Rh  Rh246  1  0.79750135  0.79237717  0.19664071  1
  Rh  Rh247  1  -0.00462356  0.59979679  0.39793918  1
  Rh  Rh248  1  0.80824656  0.58359643  0.78257266  1
  Rh  Rh249  1  0.80077677  -0.00461908  0.60738236  1
