# generated using pymatgen
data_ZrScNbPdRh
_symmetry_space_group_name_H-M   'P 1'
_cell_length_a   16.55316581
_cell_length_b   16.55047453
_cell_length_c   16.55457279
_cell_angle_alpha   90.01228105
_cell_angle_beta   90.00716969
_cell_angle_gamma   89.98424659
_symmetry_Int_Tables_number   1
_chemical_formula_structural   ZrScNbPdRh
_chemical_formula_sum   'Zr50 Sc50 Nb50 Pd50 Rh50'
_cell_volume   4535.33596299
_cell_formula_units_Z   50
loop_
 _symmetry_equiv_pos_site_id
 _symmetry_equiv_pos_as_xyz
  1  'x, y, z'
loop_
 _atom_site_type_symbol
 _atom_site_label
 _atom_site_symmetry_multiplicity
 _atom_site_fract_x
 _atom_site_fract_y
 _atom_site_fract_z
 _atom_site_occupancy
  Zr  Zr0  1  0.70938529  0.09492162  0.10247951  1
  Zr  Zr1  1  0.69966790  0.29868450  0.10385118  1
  Zr  Zr2  1  0.70987138  0.30263263  0.90048424  1
  Zr  Zr3  1  0.68879202  0.30691687  0.30516603  1
  Zr  Zr4  1  0.49967061  0.90367776  0.09283480  1
  Zr  Zr5  1  0.70111983  0.70527972  0.89626593  1
  Zr  Zr6  1  0.90458231  0.10017053  0.09990645  1
  Zr  Zr7  1  0.70009356  0.10602341  0.49898140  1
  Zr  Zr8  1  0.29396797  0.69953715  0.69925261  1
  Zr  Zr9  1  0.50052206  0.91395260  0.89803621  1
  Zr  Zr10  1  0.90610842  0.09592158  0.50658514  1
  Zr  Zr11  1  0.70374915  0.10633966  0.29981564  1
  Zr  Zr12  1  0.10138623  0.30056969  0.90008644  1
  Zr  Zr13  1  0.89755813  0.90009144  0.10086731  1
  Zr  Zr14  1  0.90013027  0.50973321  0.29440687  1
  Zr  Zr15  1  0.09615361  0.89264355  0.30186161  1
  Zr  Zr16  1  0.70011153  0.90379184  0.70678721  1
  Zr  Zr17  1  0.09895284  0.09856408  0.09690348  1
  Zr  Zr18  1  0.29731821  0.90070108  0.89921698  1
  Zr  Zr19  1  0.09744094  0.10107396  0.50528520  1
  Zr  Zr20  1  0.90363985  0.49488430  0.51762303  1
  Zr  Zr21  1  0.29346388  0.30167395  0.28608466  1
  Zr  Zr22  1  0.29832016  0.70208178  0.28975684  1
  Zr  Zr23  1  0.50920067  0.09191480  0.71018816  1
  Zr  Zr24  1  0.29835315  0.08980643  0.49828476  1
  Zr  Zr25  1  0.49910900  0.30175759  0.70046294  1
  Zr  Zr26  1  0.50530374  0.30661343  0.89673390  1
  Zr  Zr27  1  0.50498660  0.49781864  0.70481664  1
  Zr  Zr28  1  0.90030185  0.29814992  0.09125752  1
  Zr  Zr29  1  0.10590733  0.90051352  0.49877440  1
  Zr  Zr30  1  0.50046998  0.50729129  0.50327421  1
  Zr  Zr31  1  0.90247714  0.70231008  0.29496982  1
  Zr  Zr32  1  0.09436040  0.30078143  0.50792951  1
  Zr  Zr33  1  0.70750975  0.89801227  0.29772171  1
  Zr  Zr34  1  0.90132465  0.70320372  0.90049122  1
  Zr  Zr35  1  0.90287068  0.09589085  0.70722015  1
  Zr  Zr36  1  0.29836960  0.09376613  0.89650319  1
  Zr  Zr37  1  0.90040869  0.90324644  0.69573763  1
  Zr  Zr38  1  0.29222172  0.09334528  0.10093748  1
  Zr  Zr39  1  0.10774748  0.70076152  0.50202962  1
  Zr  Zr40  1  0.50044726  0.90021612  0.50203290  1
  Zr  Zr41  1  0.50541434  0.89791482  0.70156533  1
  Zr  Zr42  1  0.10433074  0.50074166  0.50782958  1
  Zr  Zr43  1  0.09195323  0.50159752  0.69530351  1
  Zr  Zr44  1  0.90280794  0.49805911  0.90416178  1
  Zr  Zr45  1  0.09423361  0.49821405  0.29385988  1
  Zr  Zr46  1  0.69508807  0.50084958  0.89709884  1
  Zr  Zr47  1  0.09946725  0.10160446  0.89936389  1
  Zr  Zr48  1  0.30568758  0.88815603  0.10058822  1
  Zr  Zr49  1  0.29761336  0.51386756  0.09551640  1
  Sc  Sc50  1  0.09645918  0.09879567  0.28873725  1
  Sc  Sc51  1  0.89665051  0.30102601  0.70359001  1
  Sc  Sc52  1  0.09664530  0.70061782  0.69471821  1
  Sc  Sc53  1  0.29852990  0.31396500  0.09226959  1
  Sc  Sc54  1  0.69743878  0.70087642  0.70285186  1
  Sc  Sc55  1  0.50547201  0.49524643  0.30266772  1
  Sc  Sc56  1  0.30289485  0.49086378  0.69777951  1
  Sc  Sc57  1  0.69366823  0.49793460  0.10205478  1
  Sc  Sc58  1  0.09985641  0.89659906  0.69880026  1
  Sc  Sc59  1  0.09635558  0.50812004  0.09333224  1
  Sc  Sc60  1  0.09776585  0.69926818  0.10019311  1
  Sc  Sc61  1  0.90428327  0.90180458  0.50221569  1
  Sc  Sc62  1  0.68840601  0.69891990  0.50395817  1
  Sc  Sc63  1  0.49381871  0.50411857  0.09617107  1
  Sc  Sc64  1  0.48432692  0.70092259  0.10047508  1
  Sc  Sc65  1  0.09687188  0.70571680  0.90388957  1
  Sc  Sc66  1  0.48965075  0.09358740  0.30674872  1
  Sc  Sc67  1  0.70740657  0.88837080  0.50777647  1
  Sc  Sc68  1  0.69684638  0.70493683  0.08835841  1
  Sc  Sc69  1  0.70343006  0.09608936  0.89257968  1
  Sc  Sc70  1  0.50986075  0.30337050  0.50275104  1
  Sc  Sc71  1  0.90616177  0.29637764  0.50224841  1
  Sc  Sc72  1  0.70326603  0.90172257  0.08529874  1
  Sc  Sc73  1  0.29583596  0.10169941  0.69425659  1
  Sc  Sc74  1  0.69987753  0.30403608  0.50199004  1
  Sc  Sc75  1  0.29943653  0.49455535  0.90548198  1
  Sc  Sc76  1  0.10423302  0.29610664  0.10501773  1
  Sc  Sc77  1  0.29396956  0.90036018  0.29986272  1
  Sc  Sc78  1  0.28981712  0.30650880  0.89785147  1
  Sc  Sc79  1  0.09569941  0.10109073  0.70143223  1
  Sc  Sc80  1  0.10948144  0.29697476  0.70076194  1
  Sc  Sc81  1  0.69713344  0.30225018  0.70271222  1
  Sc  Sc82  1  0.48894389  0.89798439  0.29922224  1
  Sc  Sc83  1  0.50640315  0.69109367  0.69759790  1
  Sc  Sc84  1  0.70742126  0.69676902  0.31839971  1
  Sc  Sc85  1  0.29917912  0.50968752  0.29061499  1
  Sc  Sc86  1  0.49827632  0.31638381  0.10102430  1
  Sc  Sc87  1  0.29405688  0.09175415  0.29639652  1
  Sc  Sc88  1  0.89000643  0.70476706  0.50202767  1
  Sc  Sc89  1  0.90108844  0.89814042  0.89789489  1
  Sc  Sc90  1  0.90867956  0.90212399  0.30086516  1
  Sc  Sc91  1  0.69594093  0.49807562  0.50115210  1
  Sc  Sc92  1  0.49613019  0.09912506  0.50688908  1
  Sc  Sc93  1  0.29402901  0.70093270  0.91055320  1
  Sc  Sc94  1  0.29507372  0.29629332  0.52048913  1
  Sc  Sc95  1  0.09558172  0.90570948  0.10000089  1
  Sc  Sc96  1  0.90322816  0.10413022  0.29459246  1
  Sc  Sc97  1  0.29355508  0.68486221  0.49812402  1
  Sc  Sc98  1  0.50917099  0.68968005  0.89019549  1
  Sc  Sc99  1  0.29144491  0.90438536  0.69750473  1
  Nb  Nb100  1  0.29949259  0.69391707  0.10279395  1
  Nb  Nb101  1  0.89982119  0.50620351  0.70032696  1
  Nb  Nb102  1  0.50006070  0.69913573  0.49847316  1
  Nb  Nb103  1  0.29895021  0.89702981  0.49748747  1
  Nb  Nb104  1  0.90335600  0.29635681  0.89888538  1
  Nb  Nb105  1  0.29833445  0.49451652  0.49645284  1
  Nb  Nb106  1  0.90176288  0.69541687  0.09900027  1
  Nb  Nb107  1  0.49695960  0.09760968  0.90424809  1
  Nb  Nb108  1  0.29854126  0.29499502  0.70680537  1
  Nb  Nb109  1  0.70737607  0.09678709  0.69935042  1
  Nb  Nb110  1  0.70971299  0.49614229  0.69238346  1
  Nb  Nb111  1  0.90390068  0.68512994  0.70311281  1
  Nb  Nb112  1  0.10219037  0.90632502  0.89812546  1
  Nb  Nb113  1  0.49556695  0.30155679  0.30002762  1
  Nb  Nb114  1  0.91030478  0.11759897  0.89340542  1
  Nb  Nb115  1  0.69877096  0.89061519  0.90129744  1
  Nb  Nb116  1  0.09884103  0.70258053  0.30405771  1
  Nb  Nb117  1  0.50162565  0.69890464  0.30545929  1
  Nb  Nb118  1  0.50311062  0.49746746  0.89448445  1
  Nb  Nb119  1  0.90962795  0.30767778  0.29822639  1
  Nb  Nb120  1  0.90248988  0.51237719  0.10271532  1
  Nb  Nb121  1  0.70136025  0.50091411  0.30120747  1
  Nb  Nb122  1  0.10514843  0.49779904  0.89946873  1
  Nb  Nb123  1  0.50088673  0.09488257  0.09387497  1
  Nb  Nb124  1  0.09665002  0.30030876  0.30166187  1
  Nb  Nb125  1  0.79929790  0.79421558  0.19560769  1
  Nb  Nb126  1  0.40167910  0.19884738  0.80421411  1
  Nb  Nb127  1  -0.00223200  0.40390136  0.80440599  1
  Nb  Nb128  1  0.79826052  0.00376826  0.40116404  1
  Nb  Nb129  1  0.39961018  0.80084412  0.79541761  1
  Nb  Nb130  1  0.80437718  0.59990782  0.00145249  1
  Nb  Nb131  1  0.00171117  0.60208165  0.40181178  1
  Nb  Nb132  1  0.59974331  0.00003352  0.19984199  1
  Nb  Nb133  1  0.58799909  0.19573696  0.19731968  1
  Nb  Nb134  1  0.40560067  0.19788287  -0.00062136  1
  Nb  Nb135  1  0.60059607  0.79871048  0.20191475  1
  Nb  Nb136  1  0.19573121  0.59498251  0.80209106  1
  Nb  Nb137  1  0.79911020  0.19304046  0.60552146  1
  Nb  Nb138  1  0.39108880  0.20999454  0.39671857  1
  Nb  Nb139  1  0.20134879  0.39585955  0.39958977  1
  Nb  Nb140  1  0.39895443  0.79625404  0.59632377  1
  Nb  Nb141  1  0.19836271  0.20729694  0.39729934  1
  Nb  Nb142  1  0.60592267  -0.00189530  0.39739498  1
  Nb  Nb143  1  0.40356309  0.20003564  0.19504611  1
  Nb  Nb144  1  0.59607118  0.19571287  0.00275639  1
  Nb  Nb145  1  0.39138060  0.39647595  0.40254608  1
  Nb  Nb146  1  0.80537512  0.40431649  0.20397616  1
  Nb  Nb147  1  0.60010352  0.60871393  0.20705881  1
  Nb  Nb148  1  0.39870525  0.79286560  0.40727848  1
  Nb  Nb149  1  0.80644096  0.40198488  0.39247547  1
  Pd  Pd150  1  0.40847955  0.79365570  -0.01487991  1
  Pd  Pd151  1  0.60944311  -0.00270870  0.59200975  1
  Pd  Pd152  1  0.40253903  0.39777747  0.59562380  1
  Pd  Pd153  1  0.80993454  0.20588664  0.40454878  1
  Pd  Pd154  1  0.00606728  0.39904189  0.00229578  1
  Pd  Pd155  1  0.20717851  0.20373112  0.00099287  1
  Pd  Pd156  1  0.40031436  0.40746337  0.20268632  1
  Pd  Pd157  1  -0.00211687  0.39865875  0.18621002  1
  Pd  Pd158  1  0.00788481  0.59818018  0.80706769  1
  Pd  Pd159  1  0.80274995  0.21306284  0.20772142  1
  Pd  Pd160  1  0.40128245  0.00152134  0.19907698  1
  Pd  Pd161  1  0.80831352  0.00494585  -0.01399154  1
  Pd  Pd162  1  0.80032098  0.79259837  0.61005245  1
  Pd  Pd163  1  0.79673204  0.59876026  0.80444183  1
  Pd  Pd164  1  0.19105811  0.00557779  0.39403768  1
  Pd  Pd165  1  0.40387678  0.60058195  -0.01281453  1
  Pd  Pd166  1  0.60479215  0.20000105  0.60646552  1
  Pd  Pd167  1  0.79294842  0.60580559  0.59703253  1
  Pd  Pd168  1  0.38901167  0.60373379  0.80540448  1
  Pd  Pd169  1  0.78500716  0.60532799  0.19070802  1
  Pd  Pd170  1  0.00402805  0.19408783  0.39463745  1
  Pd  Pd171  1  0.19914055  0.79401344  0.80165950  1
  Pd  Pd172  1  0.40294350  0.19823910  0.60367787  1
  Pd  Pd173  1  0.58779880  0.79505430  -0.00111660  1
  Pd  Pd174  1  0.80060873  0.41016351  0.00981545  1
  Pd  Pd175  1  -0.00637981  0.00088129  -0.00900544  1
  Pd  Pd176  1  0.80513772  0.59165341  0.41419097  1
  Pd  Pd177  1  0.59540378  0.80699900  0.39604645  1
  Pd  Pd178  1  0.19191060  0.80368010  0.00698149  1
  Pd  Pd179  1  0.59895491  0.60055134  0.00688755  1
  Pd  Pd180  1  0.39622714  0.60103110  0.60201569  1
  Pd  Pd181  1  0.39443647  0.39622461  0.80496353  1
  Pd  Pd182  1  0.40068831  0.59657563  0.39395762  1
  Pd  Pd183  1  0.80463179  0.40205173  0.79644627  1
  Pd  Pd184  1  0.39704619  -0.00461626  0.60719040  1
  Pd  Pd185  1  0.80493453  -0.00178586  0.80988835  1
  Pd  Pd186  1  0.80613036  0.79913157  0.79130783  1
  Pd  Pd187  1  0.00380194  0.80409231  0.00363703  1
  Pd  Pd188  1  -0.00316110  0.79659630  0.59902916  1
  Pd  Pd189  1  0.19466957  0.59326265  0.39118998  1
  Pd  Pd190  1  0.19315819  0.80036444  0.19356163  1
  Pd  Pd191  1  0.00138684  0.80226661  0.79544518  1
  Pd  Pd192  1  -0.00432296  0.79432627  0.40909050  1
  Pd  Pd193  1  0.19497214  0.40838568  0.19519752  1
  Pd  Pd194  1  0.59966135  0.40006744  0.00161522  1
  Pd  Pd195  1  0.79622885  0.19135461  -0.00684845  1
  Pd  Pd196  1  0.00030341  0.40879956  0.40470551  1
  Pd  Pd197  1  0.58436429  0.19360019  0.39677125  1
  Pd  Pd198  1  0.19392792  0.00307485  0.79218449  1
  Pd  Pd199  1  0.60205261  0.19789376  0.80536180  1
  Rh  Rh200  1  0.40182077  -0.00471203  0.40343021  1
  Rh  Rh201  1  0.19431172  0.40628112  0.00754649  1
  Rh  Rh202  1  0.40352739  0.79644235  0.20629504  1
  Rh  Rh203  1  0.80543082  0.79409629  0.00309920  1
  Rh  Rh204  1  0.00194863  -0.00428014  0.80432991  1
  Rh  Rh205  1  0.80294262  -0.00829948  0.20361385  1
  Rh  Rh206  1  0.60962893  -0.00127735  0.80832046  1
  Rh  Rh207  1  0.59350689  0.80314438  0.80329983  1
  Rh  Rh208  1  -0.00171888  0.60258103  -0.00534905  1
  Rh  Rh209  1  0.80057814  0.39134479  0.59643366  1
  Rh  Rh210  1  0.19552304  -0.00160243  0.60069954  1
  Rh  Rh211  1  -0.00268920  0.39135592  0.61537146  1
  Rh  Rh212  1  0.59539737  0.79550216  0.60476408  1
  Rh  Rh213  1  0.00493708  0.21155953  0.79638785  1
  Rh  Rh214  1  -0.00265229  0.00520076  0.39803748  1
  Rh  Rh215  1  0.00740777  -0.00560957  0.60440082  1
  Rh  Rh216  1  0.60846821  0.40375640  0.79482826  1
  Rh  Rh217  1  0.40164897  0.40114854  -0.00656754  1
  Rh  Rh218  1  0.61271770  0.00484865  -0.00240489  1
  Rh  Rh219  1  0.79865831  0.20110779  0.79575672  1
  Rh  Rh220  1  0.79495418  0.00441036  0.59251270  1
  Rh  Rh221  1  0.20138489  -0.01067572  0.00252939  1
  Rh  Rh222  1  -0.00781064  0.20230734  0.61151485  1
  Rh  Rh223  1  0.19689793  0.60212381  -0.00484729  1
  Rh  Rh224  1  0.40967881  0.59933802  0.20468176  1
  Rh  Rh225  1  0.59729220  0.40583672  0.40429516  1
  Rh  Rh226  1  0.20453727  0.19517541  0.79903444  1
  Rh  Rh227  1  0.39523525  0.00029391  0.79272149  1
  Rh  Rh228  1  0.38864104  0.00105455  0.00304043  1
  Rh  Rh229  1  0.59945435  0.59523283  0.39828478  1
  Rh  Rh230  1  0.80892008  0.81022208  0.39443237  1
  Rh  Rh231  1  0.20600103  0.80137882  0.59470275  1
  Rh  Rh232  1  0.20228971  0.40058737  0.60285055  1
  Rh  Rh233  1  0.20592662  0.59086509  0.61079728  1
  Rh  Rh234  1  0.21005425  0.79698047  0.40061652  1
  Rh  Rh235  1  0.19524878  -0.00980260  0.19928077  1
  Rh  Rh236  1  -0.00304151  0.79746507  0.19441321  1
  Rh  Rh237  1  0.20055757  0.19680843  0.20080685  1
  Rh  Rh238  1  0.00011070  -0.00048277  0.20054613  1
  Rh  Rh239  1  0.19246680  0.60473486  0.19734297  1
  Rh  Rh240  1  0.00411659  0.20117193  0.00199655  1
  Rh  Rh241  1  0.00941283  0.60859895  0.20392597  1
  Rh  Rh242  1  0.60349688  0.59659489  0.60253359  1
  Rh  Rh243  1  0.19350582  0.40781497  0.79170003  1
  Rh  Rh244  1  -0.00423303  0.61258069  0.58982963  1
  Rh  Rh245  1  0.61033252  0.59142892  0.79090502  1
  Rh  Rh246  1  0.60179169  0.40560753  0.20171779  1
  Rh  Rh247  1  0.60238226  0.40471348  0.60393736  1
  Rh  Rh248  1  0.19887036  0.19448830  0.59892076  1
  Rh  Rh249  1  0.00025326  0.20411547  0.19600121  1
