# generated using pymatgen
data_ZrScNbPdRh
_symmetry_space_group_name_H-M   'P 1'
_cell_length_a   16.55650047
_cell_length_b   16.55607651
_cell_length_c   16.55474529
_cell_angle_alpha   89.98760715
_cell_angle_beta   89.98803202
_cell_angle_gamma   90.01779639
_symmetry_Int_Tables_number   1
_chemical_formula_structural   ZrScNbPdRh
_chemical_formula_sum   'Zr50 Sc50 Nb50 Pd50 Rh50'
_cell_volume   4537.83220601
_cell_formula_units_Z   50
loop_
 _symmetry_equiv_pos_site_id
 _symmetry_equiv_pos_as_xyz
  1  'x, y, z'
loop_
 _atom_site_type_symbol
 _atom_site_label
 _atom_site_symmetry_multiplicity
 _atom_site_fract_x
 _atom_site_fract_y
 _atom_site_fract_z
 _atom_site_occupancy
  Zr  Zr0  1  0.90327339  0.30274681  0.89862271  1
  Zr  Zr1  1  0.70853370  0.10249719  0.71371536  1
  Zr  Zr2  1  0.89720743  0.49369397  0.10220469  1
  Zr  Zr3  1  0.90368553  0.10490926  0.50432531  1
  Zr  Zr4  1  0.10712127  0.30023938  0.10108626  1
  Zr  Zr5  1  0.90450860  0.69702367  0.10305836  1
  Zr  Zr6  1  0.91120755  0.69841870  0.90580888  1
  Zr  Zr7  1  0.10761947  0.90611547  0.30475832  1
  Zr  Zr8  1  0.70650759  0.50175027  0.29856886  1
  Zr  Zr9  1  0.29418156  0.29476794  0.30295252  1
  Zr  Zr10  1  0.30201075  0.50513627  0.70021342  1
  Zr  Zr11  1  0.10355116  0.30729559  0.49362078  1
  Zr  Zr12  1  0.49225330  0.29648962  0.90177178  1
  Zr  Zr13  1  0.69834727  0.89797794  0.89988680  1
  Zr  Zr14  1  0.69907123  0.89832515  0.10181564  1
  Zr  Zr15  1  0.30302809  0.29487076  0.70072395  1
  Zr  Zr16  1  0.29395153  0.49984784  0.10195536  1
  Zr  Zr17  1  0.69964349  0.89869733  0.70594698  1
  Zr  Zr18  1  0.69683446  0.10462076  0.90897813  1
  Zr  Zr19  1  0.69703964  0.50326697  0.90041824  1
  Zr  Zr20  1  0.89776965  0.09841623  0.09571524  1
  Zr  Zr21  1  0.69388699  0.70093703  0.10179086  1
  Zr  Zr22  1  0.89541509  0.10295894  0.89505574  1
  Zr  Zr23  1  0.69568648  0.30712656  0.28829208  1
  Zr  Zr24  1  0.70824707  0.50332002  0.69560662  1
  Zr  Zr25  1  0.49530397  0.30155681  0.49496529  1
  Zr  Zr26  1  0.50500605  0.70419443  0.49562451  1
  Zr  Zr27  1  0.90519787  0.29766967  0.50378707  1
  Zr  Zr28  1  0.10526722  0.69792491  0.90399790  1
  Zr  Zr29  1  0.10670511  0.49368806  0.30555804  1
  Zr  Zr30  1  0.09897921  0.30049566  0.90127011  1
  Zr  Zr31  1  0.49843267  0.30485666  0.70848405  1
  Zr  Zr32  1  0.10393573  0.70012157  0.50310467  1
  Zr  Zr33  1  0.50166138  0.50571268  0.70412551  1
  Zr  Zr34  1  0.30616268  0.09604975  0.89818644  1
  Zr  Zr35  1  0.09947894  0.10045685  0.89660271  1
  Zr  Zr36  1  0.09660352  0.09883409  0.09303772  1
  Zr  Zr37  1  0.90499767  0.49669421  0.89594117  1
  Zr  Zr38  1  0.49976137  0.51050954  0.49614045  1
  Zr  Zr39  1  0.90118702  0.90560091  0.70327493  1
  Zr  Zr40  1  0.49251842  0.70531456  0.89974779  1
  Zr  Zr41  1  0.29561165  0.10228152  0.70043007  1
  Zr  Zr42  1  0.69908002  0.49486691  0.10906971  1
  Zr  Zr43  1  0.49507621  0.10011484  0.29489851  1
  Zr  Zr44  1  0.69944294  0.10131155  0.50323405  1
  Zr  Zr45  1  0.70023646  0.09588853  0.29332513  1
  Zr  Zr46  1  0.68203653  0.89858430  0.49917531  1
  Zr  Zr47  1  0.69466968  0.69323918  0.69930265  1
  Zr  Zr48  1  0.89988622  0.09838765  0.29986057  1
  Zr  Zr49  1  0.10228465  0.50122062  0.10232633  1
  Sc  Sc50  1  0.49491069  0.29982629  0.29482332  1
  Sc  Sc51  1  0.49535820  0.90060620  0.68657288  1
  Sc  Sc52  1  0.29643869  0.89629947  0.10041669  1
  Sc  Sc53  1  0.10096401  0.29387738  0.69869717  1
  Sc  Sc54  1  0.90422414  0.29912217  0.31241499  1
  Sc  Sc55  1  0.69375421  0.70563620  0.89692754  1
  Sc  Sc56  1  0.30563625  0.90271885  0.30019624  1
  Sc  Sc57  1  0.89278050  0.69660311  0.49172231  1
  Sc  Sc58  1  0.71642320  0.30141619  0.50314385  1
  Sc  Sc59  1  0.30118595  0.70060138  0.29507222  1
  Sc  Sc60  1  0.90606866  0.11166415  0.69627094  1
  Sc  Sc61  1  0.49564589  0.49821066  0.89715392  1
  Sc  Sc62  1  0.10390090  0.89756489  0.69635964  1
  Sc  Sc63  1  0.89360704  0.88850282  0.29506939  1
  Sc  Sc64  1  0.29892214  0.69906420  0.10006242  1
  Sc  Sc65  1  0.10124824  0.90024988  0.90973463  1
  Sc  Sc66  1  0.30717942  0.09894730  0.09880028  1
  Sc  Sc67  1  0.10255519  0.69822633  0.09592534  1
  Sc  Sc68  1  0.09988146  0.69649566  0.29737933  1
  Sc  Sc69  1  0.29783600  0.09555458  0.30137548  1
  Sc  Sc70  1  0.90116114  0.89478204  0.09908812  1
  Sc  Sc71  1  0.10143570  0.90312985  0.50398320  1
  Sc  Sc72  1  0.49757891  0.50250419  0.29937005  1
  Sc  Sc73  1  0.10645618  0.10795203  0.30252892  1
  Sc  Sc74  1  0.70227352  0.69566327  0.29664704  1
  Sc  Sc75  1  0.30340657  0.90083916  0.49941549  1
  Sc  Sc76  1  0.50222639  0.50040911  0.09472947  1
  Sc  Sc77  1  0.70013299  0.89473117  0.29494275  1
  Sc  Sc78  1  0.69698436  0.29334755  0.89484328  1
  Sc  Sc79  1  0.90225453  0.89478611  0.90176881  1
  Sc  Sc80  1  0.10156314  0.89794308  0.09583193  1
  Sc  Sc81  1  0.09936284  0.50530944  0.90229687  1
  Sc  Sc82  1  0.10637934  0.50688516  0.69625868  1
  Sc  Sc83  1  0.30130764  0.69583007  0.50289040  1
  Sc  Sc84  1  0.29498873  0.50789690  0.30339284  1
  Sc  Sc85  1  0.49688984  0.89652130  0.09213329  1
  Sc  Sc86  1  0.10755109  0.69720680  0.69743856  1
  Sc  Sc87  1  0.09479146  0.10600320  0.50479863  1
  Sc  Sc88  1  0.69894169  0.30293933  0.09285401  1
  Sc  Sc89  1  0.30514234  0.89860483  0.69744113  1
  Sc  Sc90  1  0.49943500  0.29710067  0.09692185  1
  Sc  Sc91  1  0.49592002  0.70289352  0.30065990  1
  Sc  Sc92  1  0.49886285  0.08535083  0.50091339  1
  Sc  Sc93  1  0.11381443  0.49958084  0.50194413  1
  Sc  Sc94  1  0.30540406  0.50712520  0.90328671  1
  Sc  Sc95  1  0.30287959  0.69901692  0.69697107  1
  Sc  Sc96  1  0.49416606  0.69721164  0.69943096  1
  Sc  Sc97  1  0.89680628  0.69898290  0.29752501  1
  Sc  Sc98  1  0.90106277  0.68950849  0.70391276  1
  Sc  Sc99  1  0.48813050  0.10157842  0.70085062  1
  Nb  Nb100  1  0.69952208  0.68694995  0.50215280  1
  Nb  Nb101  1  0.29890666  0.70220929  0.89702382  1
  Nb  Nb102  1  0.49351803  0.90288670  0.90106003  1
  Nb  Nb103  1  0.69640233  0.09866623  0.09779930  1
  Nb  Nb104  1  0.89436759  0.30776414  0.69763657  1
  Nb  Nb105  1  0.90019089  0.49837411  0.30101896  1
  Nb  Nb106  1  0.89251439  0.49821223  0.49833728  1
  Nb  Nb107  1  0.29427245  0.10635563  0.50639611  1
  Nb  Nb108  1  0.49882074  0.89853550  0.48664011  1
  Nb  Nb109  1  0.90132347  0.30037350  0.09889373  1
  Nb  Nb110  1  0.29650389  0.30353470  0.50579589  1
  Nb  Nb111  1  0.89807924  0.49516596  0.69691520  1
  Nb  Nb112  1  0.49994896  0.09378783  0.91476986  1
  Nb  Nb113  1  0.49999666  0.90499925  0.31799508  1
  Nb  Nb114  1  0.89952030  0.89970791  0.50113828  1
  Nb  Nb115  1  0.50595807  0.09724773  0.08987718  1
  Nb  Nb116  1  0.30024342  0.30674026  0.09196932  1
  Nb  Nb117  1  0.50498293  0.70159071  0.10000927  1
  Nb  Nb118  1  0.29830949  0.49374902  0.50276130  1
  Nb  Nb119  1  0.30578277  0.30380609  0.90345333  1
  Nb  Nb120  1  0.30878502  0.89291326  0.90064563  1
  Nb  Nb121  1  0.09872800  0.09945535  0.70036723  1
  Nb  Nb122  1  0.09925310  0.30374443  0.30023253  1
  Nb  Nb123  1  0.70132066  0.29975536  0.69570891  1
  Nb  Nb124  1  0.70194821  0.51046379  0.49954175  1
  Nb  Nb125  1  0.20725546  0.79983078  0.80708168  1
  Nb  Nb126  1  0.60100756  0.20675457  0.60125329  1
  Nb  Nb127  1  0.60471486  0.40155313  0.40540074  1
  Nb  Nb128  1  0.59296373  0.00155246  0.19639822  1
  Nb  Nb129  1  -0.00551405  -0.00248639  0.39932927  1
  Nb  Nb130  1  0.79742575  0.80046431  0.59657210  1
  Nb  Nb131  1  0.79957520  0.59843869  0.00232466  1
  Nb  Nb132  1  0.00100662  0.00126770  0.20401531  1
  Nb  Nb133  1  0.20123398  0.00806811  0.60236819  1
  Nb  Nb134  1  0.60215283  0.40047855  0.59608917  1
  Nb  Nb135  1  0.00487710  0.00380298  0.79809227  1
  Nb  Nb136  1  0.79444744  0.00177038  0.00052978  1
  Nb  Nb137  1  0.80150426  -0.00454546  0.40668788  1
  Nb  Nb138  1  -0.00709698  0.40636685  0.59991721  1
  Nb  Nb139  1  0.00180626  0.39528358  0.20479820  1
  Nb  Nb140  1  0.38953547  0.39820652  0.19520734  1
  Nb  Nb141  1  0.20629617  0.39766612  0.80255727  1
  Nb  Nb142  1  0.59053892  0.00020891  0.81031131  1
  Nb  Nb143  1  -0.00341845  0.58915796  0.40143296  1
  Nb  Nb144  1  0.80203798  0.20061677  0.19345291  1
  Nb  Nb145  1  -0.00831528  0.80006999  0.59749270  1
  Nb  Nb146  1  0.20005846  0.80112695  0.40134215  1
  Nb  Nb147  1  0.60065541  0.20315228  0.40285047  1
  Nb  Nb148  1  0.39939333  0.40183601  0.59573617  1
  Nb  Nb149  1  0.79976904  -0.00426957  0.59763448  1
  Pd  Pd150  1  0.39725096  0.79595412  0.00737246  1
  Pd  Pd151  1  0.79240981  0.39705143  0.80305498  1
  Pd  Pd152  1  0.40304322  0.59546809  0.19432373  1
  Pd  Pd153  1  0.00704991  0.59672791  0.79546002  1
  Pd  Pd154  1  0.20725897  -0.00214250  0.00091955  1
  Pd  Pd155  1  0.00611387  0.79790625  0.40392022  1
  Pd  Pd156  1  0.20816316  0.19617408  -0.00249534  1
  Pd  Pd157  1  0.60051700  0.60481037  -0.00420289  1
  Pd  Pd158  1  0.60159382  0.19823815  0.19674857  1
  Pd  Pd159  1  0.40101015  0.79893683  0.59260351  1
  Pd  Pd160  1  0.38975450  0.00788669  0.40527331  1
  Pd  Pd161  1  0.60087698  0.00986857  0.61490297  1
  Pd  Pd162  1  0.39391409  0.20505012  0.19100127  1
  Pd  Pd163  1  0.80502535  0.78948186  0.79718630  1
  Pd  Pd164  1  0.40464919  -0.00268571  0.79687198  1
  Pd  Pd165  1  0.80030012  0.79610722  0.00269810  1
  Pd  Pd166  1  0.00630615  0.80652142  0.19980131  1
  Pd  Pd167  1  0.58997262  0.19062452  0.79767748  1
  Pd  Pd168  1  0.40638790  -0.00822724  0.19444116  1
  Pd  Pd169  1  0.59289887  0.59783586  0.20426979  1
  Pd  Pd170  1  0.39736658  0.40284057  0.39455076  1
  Pd  Pd171  1  0.59594626  0.39608753  -0.00271010  1
  Pd  Pd172  1  0.20637100  0.19593389  0.19454402  1
  Pd  Pd173  1  0.60752739  0.40358532  0.79702889  1
  Pd  Pd174  1  0.01145643  0.80296765  0.79463691  1
  Pd  Pd175  1  0.59847690  0.79429098  0.60235892  1
  Pd  Pd176  1  0.19794909  0.19837150  0.40488349  1
  Pd  Pd177  1  0.78956794  0.80132594  0.40499169  1
  Pd  Pd178  1  0.79332645  0.19880656  0.39118805  1
  Pd  Pd179  1  0.39342968  0.60584075  0.39930477  1
  Pd  Pd180  1  0.40635181  0.80624096  0.20205382  1
  Pd  Pd181  1  0.19669482  -0.01137477  0.79677404  1
  Pd  Pd182  1  0.40623770  0.20143940  0.59427996  1
  Pd  Pd183  1  0.19572037  0.00496913  0.19422743  1
  Pd  Pd184  1  -0.00512645  0.59969258  0.59193770  1
  Pd  Pd185  1  0.79655880  0.40066090  -0.00585341  1
  Pd  Pd186  1  0.58767375  0.80859443  0.20689407  1
  Pd  Pd187  1  0.19952224  0.40689934  -0.01149094  1
  Pd  Pd188  1  0.80194398  0.60468621  0.80937699  1
  Pd  Pd189  1  0.01290173  0.40301151  0.78794829  1
  Pd  Pd190  1  0.60701524  0.78971913  0.39094136  1
  Pd  Pd191  1  0.20251955  0.20561497  0.80541594  1
  Pd  Pd192  1  -0.00115209  0.20339577  -0.00205761  1
  Pd  Pd193  1  0.19761507  0.79765616  0.20507031  1
  Pd  Pd194  1  0.00339324  0.59205519  0.20760888  1
  Pd  Pd195  1  0.58550940  0.80567603  0.79546730  1
  Pd  Pd196  1  0.79662789  0.39951494  0.39987870  1
  Pd  Pd197  1  0.39981079  0.60317459  0.00443360  1
  Pd  Pd198  1  0.40172325  0.19119348  0.40524226  1
  Pd  Pd199  1  -0.00375310  0.20236534  0.20442163  1
  Rh  Rh200  1  0.60403085  0.59823191  0.39249255  1
  Rh  Rh201  1  0.00435404  0.39931746  0.00910555  1
  Rh  Rh202  1  0.39146883  0.00001817  0.59269211  1
  Rh  Rh203  1  0.39411886  -0.00349028  0.00414154  1
  Rh  Rh204  1  0.19862892  0.60527161  0.19986856  1
  Rh  Rh205  1  0.80684335  0.60528407  0.59909448  1
  Rh  Rh206  1  0.80456798  0.59954194  0.39521159  1
  Rh  Rh207  1  0.38995771  0.40307708  0.79701087  1
  Rh  Rh208  1  0.20345077  0.60176070  0.80191635  1
  Rh  Rh209  1  0.80040243  0.60185755  0.19460292  1
  Rh  Rh210  1  0.59665604  0.20798364  0.00137545  1
  Rh  Rh211  1  0.40229085  0.40353653  0.00601351  1
  Rh  Rh212  1  0.60322467  -0.00959324  0.00089618  1
  Rh  Rh213  1  0.59526586  0.60191519  0.80462981  1
  Rh  Rh214  1  0.79965492  0.00213801  0.19536007  1
  Rh  Rh215  1  0.80389876  -0.00074403  0.80457336  1
  Rh  Rh216  1  0.20751784  0.60009870  0.59887049  1
  Rh  Rh217  1  0.79711472  0.19502016  0.60897573  1
  Rh  Rh218  1  0.19721949  0.80450454  0.59903546  1
  Rh  Rh219  1  0.20384840  0.60096270  0.00067602  1
  Rh  Rh220  1  0.79959724  0.20165507  0.00589694  1
  Rh  Rh221  1  0.19396000  0.19839853  0.59707568  1
  Rh  Rh222  1  0.20226583  0.39559061  0.20645953  1
  Rh  Rh223  1  0.21028720  0.39818700  0.39699857  1
  Rh  Rh224  1  0.59316880  0.79865091  -0.00219757  1
  Rh  Rh225  1  0.00202391  -0.00642860  0.60341353  1
  Rh  Rh226  1  0.80713657  0.21238264  0.79757882  1
  Rh  Rh227  1  0.39715104  0.80191399  0.79541109  1
  Rh  Rh228  1  0.40270647  0.19378838  0.81053344  1
  Rh  Rh229  1  0.00065912  0.40695504  0.40379168  1
  Rh  Rh230  1  0.39232478  0.79703197  0.40055776  1
  Rh  Rh231  1  0.80064831  0.79106621  0.19567042  1
  Rh  Rh232  1  0.39815560  0.19857865  0.00085366  1
  Rh  Rh233  1  -0.01005782  -0.00331786  -0.00219560  1
  Rh  Rh234  1  0.00520490  0.21359200  0.60337103  1
  Rh  Rh235  1  0.40026591  0.59681705  0.59570210  1
  Rh  Rh236  1  0.20265641  0.39801414  0.61101014  1
  Rh  Rh237  1  0.59487619  0.59916682  0.60153039  1
  Rh  Rh238  1  0.60423118  0.00650753  0.39008112  1
  Rh  Rh239  1  0.00539711  0.79989444  0.00479024  1
  Rh  Rh240  1  -0.00465421  0.59291731  0.00261363  1
  Rh  Rh241  1  0.20509344  0.79901916  -0.00507501  1
  Rh  Rh242  1  0.19884665  0.60765046  0.40212257  1
  Rh  Rh243  1  0.00739729  0.19575280  0.39995833  1
  Rh  Rh244  1  0.40031655  0.60425491  0.80406360  1
  Rh  Rh245  1  0.19793449  -0.00128748  0.41227654  1
  Rh  Rh246  1  0.58438232  0.40411230  0.20390009  1
  Rh  Rh247  1  0.81357268  0.38774185  0.20481420  1
  Rh  Rh248  1  0.80049456  0.40453735  0.59847858  1
  Rh  Rh249  1  -0.00330681  0.20013242  0.79622858  1
