# generated using pymatgen
data_ZrScNbPdRh
_symmetry_space_group_name_H-M   'P 1'
_cell_length_a   16.55577559
_cell_length_b   16.55437138
_cell_length_c   16.55420902
_cell_angle_alpha   90.02341934
_cell_angle_beta   90.03836874
_cell_angle_gamma   90.01279406
_symmetry_Int_Tables_number   1
_chemical_formula_structural   ZrScNbPdRh
_chemical_formula_sum   'Zr50 Sc50 Nb50 Pd50 Rh50'
_cell_volume   4537.01812978
_cell_formula_units_Z   50
loop_
 _symmetry_equiv_pos_site_id
 _symmetry_equiv_pos_as_xyz
  1  'x, y, z'
loop_
 _atom_site_type_symbol
 _atom_site_label
 _atom_site_symmetry_multiplicity
 _atom_site_fract_x
 _atom_site_fract_y
 _atom_site_fract_z
 _atom_site_occupancy
  Zr  Zr0  1  0.30011264  0.90342105  0.49999144  1
  Zr  Zr1  1  0.10439796  0.09822424  0.89986030  1
  Zr  Zr2  1  0.11065523  0.50018935  0.30813166  1
  Zr  Zr3  1  0.69946605  0.49211275  0.89638213  1
  Zr  Zr4  1  0.29982431  0.70424894  0.50310943  1
  Zr  Zr5  1  0.50471102  0.89051165  0.29949573  1
  Zr  Zr6  1  0.70679252  0.89552194  0.30687689  1
  Zr  Zr7  1  0.10303122  0.90047924  0.69773515  1
  Zr  Zr8  1  0.50119184  0.49676040  0.89834243  1
  Zr  Zr9  1  0.09774128  0.69747078  0.30950801  1
  Zr  Zr10  1  0.71589867  0.69578294  0.09858131  1
  Zr  Zr11  1  0.70488622  0.70285345  0.89945721  1
  Zr  Zr12  1  0.30172096  0.29600781  0.89332066  1
  Zr  Zr13  1  0.30339233  0.29530391  0.69806086  1
  Zr  Zr14  1  0.09650267  0.69763674  0.09999518  1
  Zr  Zr15  1  0.49995981  0.11194230  0.30214511  1
  Zr  Zr16  1  0.29887524  0.89978302  0.69267880  1
  Zr  Zr17  1  0.29853686  0.09868627  0.30736018  1
  Zr  Zr18  1  0.10469602  0.29859103  0.69041522  1
  Zr  Zr19  1  0.89444180  0.29072872  0.30285369  1
  Zr  Zr20  1  0.89607270  0.70328082  0.09536511  1
  Zr  Zr21  1  0.50037155  0.90371601  0.50609210  1
  Zr  Zr22  1  0.89780830  0.70244456  0.90508907  1
  Zr  Zr23  1  0.70293186  0.29711673  0.50203300  1
  Zr  Zr24  1  0.89953291  0.90341749  0.29834365  1
  Zr  Zr25  1  0.69492484  0.30371845  0.69538290  1
  Zr  Zr26  1  0.30064599  0.30266637  0.30050962  1
  Zr  Zr27  1  0.08911573  0.90680683  0.09437810  1
  Zr  Zr28  1  0.10286121  0.89482975  0.50516728  1
  Zr  Zr29  1  0.30764385  0.50121128  0.90071618  1
  Zr  Zr30  1  0.29245340  0.49676260  0.49730671  1
  Zr  Zr31  1  0.70292119  0.29667981  0.30263547  1
  Zr  Zr32  1  0.89961325  0.29444488  0.69589825  1
  Zr  Zr33  1  0.09864154  0.30021147  0.88965943  1
  Zr  Zr34  1  0.90010282  0.89020577  0.49537745  1
  Zr  Zr35  1  0.09826065  0.30152831  0.09956054  1
  Zr  Zr36  1  0.51334621  0.90675585  0.69968797  1
  Zr  Zr37  1  0.70636827  0.30600920  0.10017210  1
  Zr  Zr38  1  0.50323658  0.69310921  0.69491219  1
  Zr  Zr39  1  0.88830346  0.49839716  0.09597989  1
  Zr  Zr40  1  0.50737753  0.09647495  0.09614863  1
  Zr  Zr41  1  0.89537309  0.10453231  0.88393401  1
  Zr  Zr42  1  0.09814875  0.50549685  0.88486863  1
  Zr  Zr43  1  0.68981112  0.69888623  0.30327924  1
  Zr  Zr44  1  0.10042097  0.09823746  0.30627987  1
  Zr  Zr45  1  0.50227625  0.50661097  0.28919770  1
  Zr  Zr46  1  0.49766551  0.49853729  0.09441687  1
  Zr  Zr47  1  0.69301597  0.70085948  0.50240409  1
  Zr  Zr48  1  0.89390667  0.70666153  0.30749421  1
  Zr  Zr49  1  0.90845302  0.69894421  0.50186609  1
  Sc  Sc50  1  0.30092335  0.69765880  0.69871220  1
  Sc  Sc51  1  0.29882071  0.10503025  0.09698798  1
  Sc  Sc52  1  0.50301477  0.28927640  0.51103279  1
  Sc  Sc53  1  0.90235057  0.49850438  0.50388531  1
  Sc  Sc54  1  0.89488196  0.10498389  0.69784423  1
  Sc  Sc55  1  0.69488489  0.50095439  0.70198034  1
  Sc  Sc56  1  0.69760544  0.49566446  0.50565751  1
  Sc  Sc57  1  0.29935406  0.10613499  0.69837782  1
  Sc  Sc58  1  0.09565273  0.49841056  0.09816794  1
  Sc  Sc59  1  0.69886795  0.09920567  0.71199925  1
  Sc  Sc60  1  0.89742696  0.30602461  0.88687978  1
  Sc  Sc61  1  0.69808607  0.90035268  0.10061580  1
  Sc  Sc62  1  0.89357077  0.29895761  0.50248580  1
  Sc  Sc63  1  0.50423000  0.70164300  0.50089034  1
  Sc  Sc64  1  0.10067520  0.09745541  0.10536146  1
  Sc  Sc65  1  0.51295098  0.10605786  0.90040738  1
  Sc  Sc66  1  0.49176015  0.70062811  0.10557564  1
  Sc  Sc67  1  0.29418029  0.70108487  0.29430334  1
  Sc  Sc68  1  0.89957663  0.11013139  0.50247805  1
  Sc  Sc69  1  0.50056601  0.70119847  0.90465630  1
  Sc  Sc70  1  0.69407801  0.10090522  0.10506386  1
  Sc  Sc71  1  0.30758873  0.50217184  0.10582613  1
  Sc  Sc72  1  0.51548103  0.89732461  0.90370155  1
  Sc  Sc73  1  0.10921501  0.90263655  0.30000766  1
  Sc  Sc74  1  0.89592262  0.89835742  0.69611124  1
  Sc  Sc75  1  0.50362396  0.89380375  0.09945575  1
  Sc  Sc76  1  0.29838542  0.10779000  0.89635660  1
  Sc  Sc77  1  0.50231272  0.29927778  0.09855520  1
  Sc  Sc78  1  0.29736635  0.89808581  0.30663630  1
  Sc  Sc79  1  0.10257309  0.69885955  0.70408564  1
  Sc  Sc80  1  0.50169072  0.30082774  0.90258229  1
  Sc  Sc81  1  0.89538329  0.10117814  0.30267679  1
  Sc  Sc82  1  0.30233661  0.69686862  0.89445565  1
  Sc  Sc83  1  0.09524929  0.49837797  0.49850699  1
  Sc  Sc84  1  0.30498267  0.69926617  0.10021045  1
  Sc  Sc85  1  0.90037124  0.49952920  0.89310075  1
  Sc  Sc86  1  0.69944761  0.90240729  0.88822980  1
  Sc  Sc87  1  0.90426536  0.09498289  0.11540748  1
  Sc  Sc88  1  0.28881738  0.90559864  0.89473204  1
  Sc  Sc89  1  0.30365728  0.30157219  0.09683292  1
  Sc  Sc90  1  0.90169655  0.50094757  0.69624782  1
  Sc  Sc91  1  0.30773869  0.49716436  0.69888019  1
  Sc  Sc92  1  0.10887306  0.29141792  0.30158262  1
  Sc  Sc93  1  0.50064469  0.10604170  0.69478823  1
  Sc  Sc94  1  0.29274641  0.29829527  0.50865392  1
  Sc  Sc95  1  0.89250623  0.49584998  0.31017640  1
  Sc  Sc96  1  0.30337764  0.89148200  0.10558441  1
  Sc  Sc97  1  0.50449982  0.51010202  0.51063049  1
  Sc  Sc98  1  0.69502770  0.29986578  0.89602572  1
  Sc  Sc99  1  0.70338652  0.70540018  0.70287171  1
  Nb  Nb100  1  0.70451574  0.09835860  0.90470972  1
  Nb  Nb101  1  0.10062018  0.10469720  0.50372783  1
  Nb  Nb102  1  0.69457233  0.49988080  0.30266475  1
  Nb  Nb103  1  0.70041019  0.10078557  0.30626303  1
  Nb  Nb104  1  0.49781537  0.30050516  0.69869929  1
  Nb  Nb105  1  0.49799557  0.30243601  0.30404350  1
  Nb  Nb106  1  0.69384782  0.90236438  0.50366025  1
  Nb  Nb107  1  0.69554404  0.90421476  0.69685975  1
  Nb  Nb108  1  0.09153427  0.10266281  0.69354505  1
  Nb  Nb109  1  0.69543332  0.10362298  0.50214684  1
  Nb  Nb110  1  0.90421700  0.90274742  0.90636438  1
  Nb  Nb111  1  0.09620722  0.69828567  0.49552184  1
  Nb  Nb112  1  0.50025112  0.69665871  0.30485248  1
  Nb  Nb113  1  0.09528700  0.29684653  0.50025172  1
  Nb  Nb114  1  0.30919001  0.09537787  0.50171089  1
  Nb  Nb115  1  0.09806272  0.69913461  0.89937490  1
  Nb  Nb116  1  0.69793932  0.49921715  0.10175748  1
  Nb  Nb117  1  0.89914032  0.29743456  0.10300432  1
  Nb  Nb118  1  0.90053382  0.89877550  0.09665417  1
  Nb  Nb119  1  0.29985177  0.49870289  0.30673108  1
  Nb  Nb120  1  0.10491875  0.49926468  0.69496902  1
  Nb  Nb121  1  0.90050562  0.70751092  0.69888914  1
  Nb  Nb122  1  0.49806837  0.09565838  0.50362556  1
  Nb  Nb123  1  0.09568111  0.90132892  0.90037964  1
  Nb  Nb124  1  0.50348457  0.49560165  0.69803630  1
  Nb  Nb125  1  0.80575026  0.19683098  0.00088632  1
  Nb  Nb126  1  0.59399704  0.39885582  0.39590223  1
  Nb  Nb127  1  0.40422996  -0.00207611  0.80220894  1
  Nb  Nb128  1  0.00273909  0.39082368  0.39721942  1
  Nb  Nb129  1  0.00314899  -0.00398095  0.79900879  1
  Nb  Nb130  1  0.40628854  0.40171419  0.39758355  1
  Nb  Nb131  1  0.00039203  0.80296434  0.80739937  1
  Nb  Nb132  1  0.40395436  0.80889756  0.79607802  1
  Nb  Nb133  1  0.19012244  0.79666225  -0.00569481  1
  Nb  Nb134  1  0.40512667  0.00311982  0.20027495  1
  Nb  Nb135  1  0.19633356  0.59947538  -0.00609216  1
  Nb  Nb136  1  0.19918375  0.40462725  -0.00761681  1
  Nb  Nb137  1  0.60377731  0.00679672  0.40343037  1
  Nb  Nb138  1  0.39983023  0.59604399  0.39478174  1
  Nb  Nb139  1  0.60680359  0.59439613  0.00404724  1
  Nb  Nb140  1  0.19575186  0.59820538  0.59810639  1
  Nb  Nb141  1  0.79211425  0.60074141  0.40242039  1
  Nb  Nb142  1  0.40314622  -0.00066990  -0.00238570  1
  Nb  Nb143  1  0.00423869  0.00240587  0.40760326  1
  Nb  Nb144  1  -0.00574415  0.59842538  0.20507491  1
  Nb  Nb145  1  0.80422150  0.00320073  -0.00389395  1
  Nb  Nb146  1  0.78947010  -0.00309497  0.59585991  1
  Nb  Nb147  1  -0.00404423  0.39966389  0.20483306  1
  Nb  Nb148  1  -0.00445750  0.79890007  0.19755627  1
  Nb  Nb149  1  -0.00790357  0.20335342  -0.00004404  1
  Pd  Pd150  1  -0.00672692  0.60725312  0.79013599  1
  Pd  Pd151  1  0.60294058  0.79112974  0.19242037  1
  Pd  Pd152  1  0.80340529  0.40230108  0.20765518  1
  Pd  Pd153  1  0.40406010  0.60535078  0.79724086  1
  Pd  Pd154  1  0.80149939  0.39381596  -0.00807856  1
  Pd  Pd155  1  -0.01247599  0.00180766  0.59937200  1
  Pd  Pd156  1  0.59844504  -0.00223610  0.21032974  1
  Pd  Pd157  1  0.59992243  0.20243883  0.79808907  1
  Pd  Pd158  1  0.40610635  0.39502367  0.79881455  1
  Pd  Pd159  1  0.00244779  0.20184893  0.19996273  1
  Pd  Pd160  1  0.20590312  0.19918040  0.40898694  1
  Pd  Pd161  1  -0.00210103  0.40071913  0.78530511  1
  Pd  Pd162  1  0.60732499  0.79150670  0.00683035  1
  Pd  Pd163  1  0.80210220  0.00738274  0.41009642  1
  Pd  Pd164  1  0.40989350  -0.00235430  0.39185342  1
  Pd  Pd165  1  0.19297619  0.80205413  0.19361381  1
  Pd  Pd166  1  0.20649477  0.40322509  0.79742526  1
  Pd  Pd167  1  0.00651444  0.60347159  0.60588744  1
  Pd  Pd168  1  0.80263724  0.59514604  0.21217962  1
  Pd  Pd169  1  -0.00049934  0.59252653  0.00193046  1
  Pd  Pd170  1  0.38943086  0.80799216  -0.01217260  1
  Pd  Pd171  1  -0.00034411  0.39837689  0.00085543  1
  Pd  Pd172  1  0.39831128  0.19675715  0.19514278  1
  Pd  Pd173  1  0.80393656  0.59803613  0.79634374  1
  Pd  Pd174  1  0.20945622  -0.00668623  0.00789263  1
  Pd  Pd175  1  0.19823854  0.59430580  0.19266022  1
  Pd  Pd176  1  0.39536983  0.20875361  0.41156028  1
  Pd  Pd177  1  0.79401118  0.00083848  0.19422485  1
  Pd  Pd178  1  0.19341965  0.20703999  0.00054695  1
  Pd  Pd179  1  0.40693133  0.80118256  0.60616332  1
  Pd  Pd180  1  0.19734446  0.40438165  0.19274323  1
  Pd  Pd181  1  0.59951640  0.60375147  0.80591957  1
  Pd  Pd182  1  0.80178566  0.40454595  0.60270427  1
  Pd  Pd183  1  0.20957953  -0.00159937  0.19413549  1
  Pd  Pd184  1  0.20024311  0.00795236  0.79311609  1
  Pd  Pd185  1  0.39996083  0.39785571  0.20085634  1
  Pd  Pd186  1  0.59945863  0.39404725  0.20175482  1
  Pd  Pd187  1  0.40487410  0.19480696  -0.00317991  1
  Pd  Pd188  1  0.59904813  0.20213793  0.40545161  1
  Pd  Pd189  1  0.80572313  0.80846776  0.80064788  1
  Pd  Pd190  1  0.20177646  0.79600525  0.80380632  1
  Pd  Pd191  1  0.60103355  0.60747482  0.18973681  1
  Pd  Pd192  1  -0.00930374  0.01691582  -0.00550935  1
  Pd  Pd193  1  0.20421135  0.19791764  0.19702080  1
  Pd  Pd194  1  0.79630198  0.60017130  0.59795910  1
  Pd  Pd195  1  0.20344238  0.00970193  0.59805046  1
  Pd  Pd196  1  0.40619230  0.39997598  0.59191966  1
  Pd  Pd197  1  0.39868557  0.79245548  0.39735561  1
  Pd  Pd198  1  0.60313892  0.20716476  0.19815426  1
  Pd  Pd199  1  0.79457873  0.80317723  0.59767336  1
  Rh  Rh200  1  0.00311530  -0.00582132  0.21210412  1
  Rh  Rh201  1  0.61173965  0.20562482  0.00316353  1
  Rh  Rh202  1  0.59421607  0.39968900  0.59788266  1
  Rh  Rh203  1  0.19743687  0.38883295  0.40326902  1
  Rh  Rh204  1  0.60141299  0.79694724  0.60379700  1
  Rh  Rh205  1  0.00804566  0.19522802  0.79955705  1
  Rh  Rh206  1  0.40688930  0.19605171  0.79944903  1
  Rh  Rh207  1  0.00236502  0.39554995  0.59553218  1
  Rh  Rh208  1  0.20110993  0.19333693  0.59682266  1
  Rh  Rh209  1  0.78987586  0.20943714  0.79973069  1
  Rh  Rh210  1  0.80482193  -0.00679996  0.79623020  1
  Rh  Rh211  1  0.59794772  0.80678128  0.40559123  1
  Rh  Rh212  1  0.60443970  -0.00172354  -0.00344531  1
  Rh  Rh213  1  0.39176522  0.59571245  0.59404728  1
  Rh  Rh214  1  0.59315462  0.39561249  0.79359266  1
  Rh  Rh215  1  0.79411529  0.19372696  0.19548961  1
  Rh  Rh216  1  0.60071369  0.40310831  0.00229447  1
  Rh  Rh217  1  -0.00189496  0.20409854  0.59766660  1
  Rh  Rh218  1  0.00496177  0.79304333  0.60941331  1
  Rh  Rh219  1  0.20749052  0.60866136  0.40877903  1
  Rh  Rh220  1  0.40003632  0.80336224  0.20886823  1
  Rh  Rh221  1  0.79453225  0.58870371  -0.01103981  1
  Rh  Rh222  1  0.79859995  0.19497437  0.40301254  1
  Rh  Rh223  1  0.79133420  0.79175076  0.40954536  1
  Rh  Rh224  1  0.39561137  0.60619530  0.20834905  1
  Rh  Rh225  1  0.60514203  0.01076604  0.59857616  1
  Rh  Rh226  1  0.19557973  0.00317639  0.41222525  1
  Rh  Rh227  1  0.01015724  0.81299086  0.39168785  1
  Rh  Rh228  1  -0.00841098  0.58824901  0.39675709  1
  Rh  Rh229  1  0.60214922  0.19583605  0.60564469  1
  Rh  Rh230  1  0.40353683  0.60240164  0.00083145  1
  Rh  Rh231  1  0.39485086  0.39530495  -0.00096422  1
  Rh  Rh232  1  -0.00055422  0.19917080  0.40424511  1
  Rh  Rh233  1  0.39858940  0.19626925  0.59852185  1
  Rh  Rh234  1  0.19483346  0.19569812  0.78980877  1
  Rh  Rh235  1  0.19455071  0.40544629  0.59863942  1
  Rh  Rh236  1  0.00280706  0.79813539  -0.00066005  1
  Rh  Rh237  1  0.79813664  0.40012012  0.79265935  1
  Rh  Rh238  1  0.39766984  0.00529226  0.60874635  1
  Rh  Rh239  1  0.19962191  0.79824474  0.40269843  1
  Rh  Rh240  1  0.59856916  0.59089460  0.40230891  1
  Rh  Rh241  1  0.79361007  0.40572824  0.40428204  1
  Rh  Rh242  1  0.79275570  0.81672269  -0.00394379  1
  Rh  Rh243  1  0.60637471  0.59937021  0.60693540  1
  Rh  Rh244  1  0.19242611  0.78748689  0.59747942  1
  Rh  Rh245  1  0.80301365  0.80669832  0.19655399  1
  Rh  Rh246  1  0.59558459  0.79378293  0.79331308  1
  Rh  Rh247  1  0.59731456  0.00662153  0.80280633  1
  Rh  Rh248  1  0.20414557  0.59753191  0.79466877  1
  Rh  Rh249  1  0.79132328  0.19156818  0.60516703  1
