# generated using pymatgen
data_ZrScNbPdRh
_symmetry_space_group_name_H-M   'P 1'
_cell_length_a   16.56542492
_cell_length_b   16.56197410
_cell_length_c   16.56028898
_cell_angle_alpha   89.99457242
_cell_angle_beta   90.00532555
_cell_angle_gamma   89.97739060
_symmetry_Int_Tables_number   1
_chemical_formula_structural   ZrScNbPdRh
_chemical_formula_sum   'Zr50 Sc50 Nb50 Pd50 Rh50'
_cell_volume   4543.41654217
_cell_formula_units_Z   50
loop_
 _symmetry_equiv_pos_site_id
 _symmetry_equiv_pos_as_xyz
  1  'x, y, z'
loop_
 _atom_site_type_symbol
 _atom_site_label
 _atom_site_symmetry_multiplicity
 _atom_site_fract_x
 _atom_site_fract_y
 _atom_site_fract_z
 _atom_site_occupancy
  Zr  Zr0  1  0.10322501  0.49257676  0.10361303  1
  Zr  Zr1  1  0.30447186  0.50543158  0.49631406  1
  Zr  Zr2  1  0.30401984  0.09821462  0.90687914  1
  Zr  Zr3  1  0.70582203  0.48722080  0.89448024  1
  Zr  Zr4  1  0.89973434  0.89900162  0.69819750  1
  Zr  Zr5  1  0.10263753  0.70192906  0.31200475  1
  Zr  Zr6  1  0.49416840  0.69912020  0.70568239  1
  Zr  Zr7  1  0.10325166  0.09552599  0.09563730  1
  Zr  Zr8  1  0.10102835  0.30377741  0.70641889  1
  Zr  Zr9  1  0.89194698  0.50077636  0.09945867  1
  Zr  Zr10  1  0.29704239  0.90128804  0.29828091  1
  Zr  Zr11  1  0.90050709  0.10069500  0.50245430  1
  Zr  Zr12  1  0.70088627  0.49861473  0.30528906  1
  Zr  Zr13  1  0.30002498  0.70696819  0.89799384  1
  Zr  Zr14  1  0.49803625  0.10304815  0.09502086  1
  Zr  Zr15  1  0.50261237  0.49573606  0.49325138  1
  Zr  Zr16  1  0.50017353  0.50266317  0.70232490  1
  Zr  Zr17  1  0.49676704  0.50557105  0.10058559  1
  Zr  Zr18  1  0.50601459  0.10233333  0.68757823  1
  Zr  Zr19  1  0.09895924  0.09595748  0.49444684  1
  Zr  Zr20  1  0.50678469  0.69752811  0.10417444  1
  Zr  Zr21  1  0.30249373  0.90403657  0.89182595  1
  Zr  Zr22  1  0.49390623  0.09671305  0.30000753  1
  Zr  Zr23  1  0.89218787  0.29820750  0.30211684  1
  Zr  Zr24  1  0.89966063  0.30165639  0.49839583  1
  Zr  Zr25  1  0.69786643  0.09528404  0.70185701  1
  Zr  Zr26  1  0.10014800  0.90151565  0.10164629  1
  Zr  Zr27  1  0.70521220  0.89927606  0.89970601  1
  Zr  Zr28  1  0.08893341  0.29979477  0.51163311  1
  Zr  Zr29  1  0.69694212  0.29972474  0.90743071  1
  Zr  Zr30  1  0.89597386  0.90052963  0.50497913  1
  Zr  Zr31  1  0.49316107  0.29564077  0.50633931  1
  Zr  Zr32  1  0.70256248  0.69814329  0.50201889  1
  Zr  Zr33  1  0.09878458  0.89245459  0.50089250  1
  Zr  Zr34  1  0.10463298  0.70823478  0.09762348  1
  Zr  Zr35  1  0.69379514  0.30609256  0.71478216  1
  Zr  Zr36  1  0.91234239  0.30089572  0.69503702  1
  Zr  Zr37  1  0.30389512  0.50465211  0.90721411  1
  Zr  Zr38  1  0.90150001  0.49669000  0.30084136  1
  Zr  Zr39  1  0.30289750  0.31018450  0.89775328  1
  Zr  Zr40  1  0.89550911  0.69650513  0.30209098  1
  Zr  Zr41  1  0.10507450  0.89681200  0.69491885  1
  Zr  Zr42  1  0.30269287  0.69010942  0.09404861  1
  Zr  Zr43  1  0.29865472  0.90574126  0.50536531  1
  Zr  Zr44  1  0.50354669  0.30462032  0.30391834  1
  Zr  Zr45  1  0.29363602  0.29286184  0.29749131  1
  Zr  Zr46  1  0.10971115  0.90650848  0.29587116  1
  Zr  Zr47  1  0.70172548  0.89217568  0.29562612  1
  Zr  Zr48  1  0.30577787  0.49866252  0.70581701  1
  Zr  Zr49  1  0.69979764  0.68843856  0.69042001  1
  Sc  Sc50  1  0.29688397  0.68950582  0.31074498  1
  Sc  Sc51  1  0.89901355  0.09814061  0.30597388  1
  Sc  Sc52  1  0.09067733  0.49487927  0.70402915  1
  Sc  Sc53  1  0.89612299  0.70524335  0.49925959  1
  Sc  Sc54  1  0.50612443  0.90039395  0.30252585  1
  Sc  Sc55  1  0.70022063  0.30769672  0.48900426  1
  Sc  Sc56  1  0.09838284  0.70335429  0.90502290  1
  Sc  Sc57  1  0.10821434  0.29498354  0.10192186  1
  Sc  Sc58  1  0.31093872  0.10293738  0.49464643  1
  Sc  Sc59  1  0.89588284  0.50654592  0.71140152  1
  Sc  Sc60  1  0.70832139  0.10323339  0.29527420  1
  Sc  Sc61  1  0.70092646  0.70789753  0.10799356  1
  Sc  Sc62  1  0.49766933  0.09617078  0.89914392  1
  Sc  Sc63  1  0.89734090  0.09967235  0.09199525  1
  Sc  Sc64  1  0.89710461  0.51171828  0.90226669  1
  Sc  Sc65  1  0.89509870  0.89832038  0.09429001  1
  Sc  Sc66  1  0.89438866  0.29300819  0.10047403  1
  Sc  Sc67  1  0.90003808  0.69956106  0.08993976  1
  Sc  Sc68  1  0.49701210  0.49751995  0.89953095  1
  Sc  Sc69  1  0.09154180  0.29548175  0.89770690  1
  Sc  Sc70  1  0.49822064  0.70289931  0.90314134  1
  Sc  Sc71  1  0.89533325  0.29774462  0.90708952  1
  Sc  Sc72  1  0.51421874  0.30133024  0.09073028  1
  Sc  Sc73  1  0.09906778  0.30092465  0.29807019  1
  Sc  Sc74  1  0.50011422  0.89177266  0.10048276  1
  Sc  Sc75  1  0.50147047  0.50818311  0.30089191  1
  Sc  Sc76  1  0.49265207  0.90327346  0.69785739  1
  Sc  Sc77  1  0.70116982  0.89897254  0.70029640  1
  Sc  Sc78  1  0.50696255  0.69802663  0.50167099  1
  Sc  Sc79  1  0.08994444  0.09895723  0.70273559  1
  Sc  Sc80  1  0.29035237  0.90326270  0.09908044  1
  Sc  Sc81  1  0.29268676  0.69329590  0.50642797  1
  Sc  Sc82  1  0.69420563  0.70198440  0.29822097  1
  Sc  Sc83  1  0.49958425  0.89228022  0.89776743  1
  Sc  Sc84  1  0.09190646  0.50613491  0.49867262  1
  Sc  Sc85  1  0.70300175  0.09892049  0.89937478  1
  Sc  Sc86  1  0.89576999  0.50583693  0.49336236  1
  Sc  Sc87  1  0.31070505  0.29635578  0.49830767  1
  Sc  Sc88  1  0.29380473  0.09616776  0.30236814  1
  Sc  Sc89  1  0.50982132  0.90487910  0.49922835  1
  Sc  Sc90  1  0.70259002  0.30010132  0.29510223  1
  Sc  Sc91  1  0.30864295  0.08276749  0.69887938  1
  Sc  Sc92  1  0.69792809  0.70759078  0.89678545  1
  Sc  Sc93  1  0.09729605  0.50081824  0.89423425  1
  Sc  Sc94  1  0.90467002  0.08965538  0.70120740  1
  Sc  Sc95  1  0.30059254  0.89176972  0.70195012  1
  Sc  Sc96  1  0.10625848  0.89879145  0.90696177  1
  Sc  Sc97  1  0.89399246  0.90201934  0.29999724  1
  Sc  Sc98  1  0.70228101  0.29462414  0.09614031  1
  Sc  Sc99  1  0.09479069  0.10127171  0.90286719  1
  Nb  Nb100  1  0.69733177  0.50073366  0.09516192  1
  Nb  Nb101  1  0.69995235  0.90014687  0.10145647  1
  Nb  Nb102  1  0.29837384  0.49341580  0.10001282  1
  Nb  Nb103  1  0.89594974  0.89617052  0.89495754  1
  Nb  Nb104  1  0.50059505  0.70392780  0.29820464  1
  Nb  Nb105  1  0.90726924  0.70601263  0.89469594  1
  Nb  Nb106  1  0.69877707  0.50582691  0.50819201  1
  Nb  Nb107  1  0.29558552  0.30302002  0.09948345  1
  Nb  Nb108  1  0.10259852  0.09861578  0.29404995  1
  Nb  Nb109  1  0.29550020  0.69920241  0.70217601  1
  Nb  Nb110  1  0.69854420  0.10334375  0.09726021  1
  Nb  Nb111  1  0.70139189  0.50051586  0.69787317  1
  Nb  Nb112  1  0.68990226  0.09323395  0.50878758  1
  Nb  Nb113  1  0.29516711  0.49865899  0.30177200  1
  Nb  Nb114  1  0.69913144  0.89712079  0.49803796  1
  Nb  Nb115  1  0.09613073  0.70169465  0.50587361  1
  Nb  Nb116  1  0.30048311  0.11097429  0.09704137  1
  Nb  Nb117  1  0.50859468  0.30225226  0.89214317  1
  Nb  Nb118  1  0.90137857  0.69980051  0.70036157  1
  Nb  Nb119  1  0.49524025  0.30212165  0.69895473  1
  Nb  Nb120  1  0.90269364  0.10248479  0.89622831  1
  Nb  Nb121  1  0.09895618  0.50114319  0.30053606  1
  Nb  Nb122  1  0.30548603  0.30419371  0.69731161  1
  Nb  Nb123  1  0.50578118  0.10155411  0.50125084  1
  Nb  Nb124  1  0.10384934  0.70681240  0.69564418  1
  Nb  Nb125  1  0.39132996  0.39902865  0.19527791  1
  Nb  Nb126  1  0.60606000  0.00172289  0.19139739  1
  Nb  Nb127  1  0.40111974  0.20592313  0.79517598  1
  Nb  Nb128  1  0.00366433  0.79708242  0.20120234  1
  Nb  Nb129  1  0.60552170  0.59613625  0.00315973  1
  Nb  Nb130  1  0.79459179  0.40285669  0.60424333  1
  Nb  Nb131  1  0.60239096  0.40339973  0.60362275  1
  Nb  Nb132  1  0.59737402  0.19234865  0.40501896  1
  Nb  Nb133  1  0.00533612  0.60099815  0.20190709  1
  Nb  Nb134  1  0.19831240  0.40269742  0.40287994  1
  Nb  Nb135  1  0.60632930  -0.00365678  0.00677594  1
  Nb  Nb136  1  0.00386616  0.19189172  0.20223196  1
  Nb  Nb137  1  0.39527072  0.20582620  0.19156072  1
  Nb  Nb138  1  0.79531073  0.20309806  0.60308292  1
  Nb  Nb139  1  -0.00298105  0.40209837  0.00639238  1
  Nb  Nb140  1  0.20447969  0.39791129  0.59849188  1
  Nb  Nb141  1  -0.00021048  0.61134405  0.60425030  1
  Nb  Nb142  1  0.19914560  0.59179336  0.20121772  1
  Nb  Nb143  1  0.21061331  0.20211983  0.79405390  1
  Nb  Nb144  1  0.20423696  0.20294711  0.60735895  1
  Nb  Nb145  1  0.40224703  0.79736724  0.39814192  1
  Nb  Nb146  1  0.39634728  0.79366959  0.20697199  1
  Nb  Nb147  1  0.80352167  0.19896362  0.79534052  1
  Nb  Nb148  1  0.20059317  0.60583274  0.79364192  1
  Nb  Nb149  1  -0.00277392  0.79884419  0.79853228  1
  Pd  Pd150  1  0.59860429  0.40460271  0.19691435  1
  Pd  Pd151  1  0.59587132  0.19549285  0.20667584  1
  Pd  Pd152  1  0.60982041  0.00472636  0.39036002  1
  Pd  Pd153  1  0.40515378  -0.01028330  0.00516568  1
  Pd  Pd154  1  -0.00154623  0.39207633  0.19566730  1
  Pd  Pd155  1  0.40647992  0.21272295  -0.00424666  1
  Pd  Pd156  1  0.40200665  -0.00698602  0.40479457  1
  Pd  Pd157  1  -0.00521700  -0.00463694  -0.00726690  1
  Pd  Pd158  1  0.80082421  0.00402936  0.19558740  1
  Pd  Pd159  1  0.79649720  0.00152064  0.60076256  1
  Pd  Pd160  1  -0.01180167  0.40080135  0.81486332  1
  Pd  Pd161  1  0.19840364  0.00921291  0.59968063  1
  Pd  Pd162  1  0.39943903  -0.00187173  0.19269308  1
  Pd  Pd163  1  0.79140441  0.00169028  0.40366813  1
  Pd  Pd164  1  -0.00920489  -0.00063236  0.20036118  1
  Pd  Pd165  1  0.39262080  0.59865124  0.20799843  1
  Pd  Pd166  1  0.61080383  0.21396125  0.59405204  1
  Pd  Pd167  1  0.00441962  0.20003087  0.39067913  1
  Pd  Pd168  1  0.79846005  0.79411027  0.00150470  1
  Pd  Pd169  1  0.80017391  0.79435098  0.79213838  1
  Pd  Pd170  1  0.60183666  0.60515990  0.39743661  1
  Pd  Pd171  1  0.00471295  -0.01077306  0.80781619  1
  Pd  Pd172  1  0.79484977  0.60758192  0.80589775  1
  Pd  Pd173  1  0.40504006  0.60335703  0.59608389  1
  Pd  Pd174  1  0.19656747  0.20395804  -0.01034489  1
  Pd  Pd175  1  0.79071001  0.60984341  -0.00757894  1
  Pd  Pd176  1  0.60220766  0.59719920  0.81111395  1
  Pd  Pd177  1  0.59852379  0.80216656  0.79301168  1
  Pd  Pd178  1  0.78911410  0.19309617  0.40902439  1
  Pd  Pd179  1  0.19511712  0.20608698  0.41005910  1
  Pd  Pd180  1  0.79252829  0.39658737  0.19431872  1
  Pd  Pd181  1  0.18975233  0.59008482  0.60714958  1
  Pd  Pd182  1  0.19279956  0.59674420  -0.00312348  1
  Pd  Pd183  1  0.39562677  0.80335463  0.00774164  1
  Pd  Pd184  1  0.19459135  0.00914721  0.80143935  1
  Pd  Pd185  1  0.60075835  0.80351322  0.60410959  1
  Pd  Pd186  1  0.39868109  0.79583708  0.59174196  1
  Pd  Pd187  1  0.00382643  0.59539265  0.00496942  1
  Pd  Pd188  1  0.39386411  0.39895444  0.39186092  1
  Pd  Pd189  1  0.59480853  -0.00452435  0.80682007  1
  Pd  Pd190  1  0.00106059  -0.00679499  0.39693852  1
  Pd  Pd191  1  0.00420373  0.39971913  0.40114004  1
  Pd  Pd192  1  0.59744243  0.19282097  0.80573767  1
  Pd  Pd193  1  0.20972807  0.79908605  0.40752269  1
  Pd  Pd194  1  0.40830476  0.39402696  0.00450006  1
  Pd  Pd195  1  0.79889573  0.60314385  0.20021211  1
  Pd  Pd196  1  -0.00435068  0.80712266  0.39465067  1
  Pd  Pd197  1  0.18963516  0.39736178  -0.01040450  1
  Pd  Pd198  1  0.79851466  0.00297038  -0.00418781  1
  Pd  Pd199  1  0.79730871  0.79775883  0.40018390  1
  Rh  Rh200  1  0.60253867  0.39783210  0.40386709  1
  Rh  Rh201  1  0.20772230  0.79984563  0.59565606  1
  Rh  Rh202  1  0.19836980  0.19296766  0.19733713  1
  Rh  Rh203  1  0.20416424  0.00226510  -0.00065362  1
  Rh  Rh204  1  0.79623237  0.40675747  0.40446940  1
  Rh  Rh205  1  -0.00475257  0.19853096  0.80166051  1
  Rh  Rh206  1  -0.00047420  0.18990509  0.60319480  1
  Rh  Rh207  1  0.79406606  0.60060097  0.39997114  1
  Rh  Rh208  1  0.40802034  0.19827264  0.39119531  1
  Rh  Rh209  1  0.59357835  0.80723133  0.20124335  1
  Rh  Rh210  1  0.00996690  0.61368340  0.79350403  1
  Rh  Rh211  1  0.19246605  0.59277823  0.40194565  1
  Rh  Rh212  1  -0.00153043  0.20444223  0.00837460  1
  Rh  Rh213  1  0.40938448  0.60133168  -0.00527350  1
  Rh  Rh214  1  0.20211961  0.40406461  0.79774870  1
  Rh  Rh215  1  0.40648817  -0.00012136  0.59313855  1
  Rh  Rh216  1  0.00393146  -0.00226424  0.59508158  1
  Rh  Rh217  1  0.40557675  0.60711932  0.40063812  1
  Rh  Rh218  1  0.40716535  0.39623312  0.80285727  1
  Rh  Rh219  1  0.20459725  0.78657189  0.20263042  1
  Rh  Rh220  1  0.59231198  0.59522299  0.59976112  1
  Rh  Rh221  1  0.81186680  0.59564064  0.60031692  1
  Rh  Rh222  1  0.80905733  0.19543748  0.19794696  1
  Rh  Rh223  1  -0.00535081  0.80837726  -0.00293278  1
  Rh  Rh224  1  0.19933946  0.00224002  0.40341149  1
  Rh  Rh225  1  0.80480676  0.39859752  0.00340609  1
  Rh  Rh226  1  0.59264140  0.40855740  0.79751569  1
  Rh  Rh227  1  0.80007120  0.19392990  -0.00844571  1
  Rh  Rh228  1  0.59891759  0.79771056  0.40345939  1
  Rh  Rh229  1  0.20819204  0.00995383  0.19363920  1
  Rh  Rh230  1  -0.00029269  0.60517550  0.40315556  1
  Rh  Rh231  1  0.60023882  0.19092643  -0.00788863  1
  Rh  Rh232  1  0.39296595  0.18974183  0.60872395  1
  Rh  Rh233  1  0.40083790  0.79976782  0.79592532  1
  Rh  Rh234  1  0.80853297  0.39351207  0.79703316  1
  Rh  Rh235  1  0.20727759  0.80611788  -0.00318563  1
  Rh  Rh236  1  0.19302292  0.79523582  0.80315962  1
  Rh  Rh237  1  0.40257149  0.40844164  0.59905431  1
  Rh  Rh238  1  0.60507973  0.79925250  0.00104198  1
  Rh  Rh239  1  0.81122657  0.79888589  0.19763183  1
  Rh  Rh240  1  -0.00535608  0.79695821  0.60422552  1
  Rh  Rh241  1  0.60007192  0.40702491  -0.00076162  1
  Rh  Rh242  1  0.60121562  -0.01097381  0.60157038  1
  Rh  Rh243  1  0.40698134  0.00267281  0.79931725  1
  Rh  Rh244  1  0.79513849  0.79965552  0.60179274  1
  Rh  Rh245  1  0.20384996  0.40246323  0.20920371  1
  Rh  Rh246  1  0.80513780  0.00679147  0.80325183  1
  Rh  Rh247  1  -0.01072738  0.42035422  0.59865985  1
  Rh  Rh248  1  0.39389852  0.60565384  0.80618817  1
  Rh  Rh249  1  0.60753537  0.59683547  0.19714111  1
