# generated using pymatgen
data_ZrScNbPdRh
_symmetry_space_group_name_H-M   'P 1'
_cell_length_a   16.55933884
_cell_length_b   16.56163092
_cell_length_c   16.56076911
_cell_angle_alpha   90.06473376
_cell_angle_beta   89.97347289
_cell_angle_gamma   90.01604081
_symmetry_Int_Tables_number   1
_chemical_formula_structural   ZrScNbPdRh
_chemical_formula_sum   'Zr50 Sc50 Nb50 Pd50 Rh50'
_cell_volume   4541.78170453
_cell_formula_units_Z   50
loop_
 _symmetry_equiv_pos_site_id
 _symmetry_equiv_pos_as_xyz
  1  'x, y, z'
loop_
 _atom_site_type_symbol
 _atom_site_label
 _atom_site_symmetry_multiplicity
 _atom_site_fract_x
 _atom_site_fract_y
 _atom_site_fract_z
 _atom_site_occupancy
  Zr  Zr0  1  0.69853250  0.70849261  0.10410008  1
  Zr  Zr1  1  0.49889454  0.10285325  0.71135546  1
  Zr  Zr2  1  0.50764505  0.30162396  0.30493444  1
  Zr  Zr3  1  0.49286899  0.50724430  0.89734135  1
  Zr  Zr4  1  0.89516097  0.09842361  0.30016094  1
  Zr  Zr5  1  0.50470536  0.10431913  0.08880750  1
  Zr  Zr6  1  0.49449616  0.49389612  0.70085564  1
  Zr  Zr7  1  0.09146910  0.69992342  0.49272029  1
  Zr  Zr8  1  0.50520099  0.88947079  0.10212166  1
  Zr  Zr9  1  0.29447922  0.91096182  0.89200211  1
  Zr  Zr10  1  0.30423290  0.09767525  0.90269828  1
  Zr  Zr11  1  0.70092521  0.10513328  0.29248841  1
  Zr  Zr12  1  0.70128350  0.90426171  0.29156340  1
  Zr  Zr13  1  0.89407904  0.69708580  0.69362309  1
  Zr  Zr14  1  0.90250641  0.29336683  0.29875242  1
  Zr  Zr15  1  0.89915870  0.29260812  0.49972149  1
  Zr  Zr16  1  0.49577917  0.29801032  0.50194268  1
  Zr  Zr17  1  0.68923724  0.89734305  0.50587940  1
  Zr  Zr18  1  0.70012805  0.09864373  0.90757737  1
  Zr  Zr19  1  0.10092036  0.70224761  0.70715199  1
  Zr  Zr20  1  0.70414378  0.70785205  0.69459000  1
  Zr  Zr21  1  0.30540798  0.30231452  0.69526340  1
  Zr  Zr22  1  0.09901749  0.29790947  0.29148161  1
  Zr  Zr23  1  0.50143937  0.29221332  0.70432247  1
  Zr  Zr24  1  0.70621951  0.89689479  0.70279204  1
  Zr  Zr25  1  0.09641753  0.90540116  0.50061205  1
  Zr  Zr26  1  0.09579386  0.30156291  0.89794816  1
  Zr  Zr27  1  0.91188927  0.49764422  0.29444397  1
  Zr  Zr28  1  0.49518809  0.70284315  0.28535896  1
  Zr  Zr29  1  0.29947660  0.09591432  0.71182631  1
  Zr  Zr30  1  0.50311966  0.49277217  0.48907689  1
  Zr  Zr31  1  0.29807884  0.50053106  0.90447423  1
  Zr  Zr32  1  0.89909539  0.50099346  0.70612527  1
  Zr  Zr33  1  0.49698574  0.50022621  0.29932872  1
  Zr  Zr34  1  0.69624253  0.10636402  0.70735581  1
  Zr  Zr35  1  0.90415475  0.09362365  0.49748444  1
  Zr  Zr36  1  0.89964433  0.70946824  0.30957920  1
  Zr  Zr37  1  0.30063709  0.09007387  0.49407766  1
  Zr  Zr38  1  0.50503773  0.90176053  0.29960653  1
  Zr  Zr39  1  0.70637312  0.50179242  0.10011929  1
  Zr  Zr40  1  0.49387024  0.90816928  0.49778558  1
  Zr  Zr41  1  0.49582709  0.50502921  0.10887533  1
  Zr  Zr42  1  0.09426211  0.30284560  0.70031015  1
  Zr  Zr43  1  0.90177367  0.50068403  0.09854012  1
  Zr  Zr44  1  0.10826636  0.70053291  0.09610938  1
  Zr  Zr45  1  0.29601746  0.10668713  0.30536726  1
  Zr  Zr46  1  0.70061776  0.90920397  0.09873066  1
  Zr  Zr47  1  0.10135106  0.09759836  0.49753309  1
  Zr  Zr48  1  0.50081875  0.09814341  0.50025463  1
  Zr  Zr49  1  0.29747955  0.70460007  0.70264216  1
  Sc  Sc50  1  0.10536401  0.50407594  0.90254358  1
  Sc  Sc51  1  0.89418072  0.69171721  0.10719790  1
  Sc  Sc52  1  0.09261432  0.29822036  0.49568733  1
  Sc  Sc53  1  0.09686654  0.09588690  0.09893882  1
  Sc  Sc54  1  0.30725210  0.29054580  0.48870227  1
  Sc  Sc55  1  0.28666424  0.29762526  0.90726022  1
  Sc  Sc56  1  0.89982059  0.91171802  0.89468399  1
  Sc  Sc57  1  0.29461144  0.70533668  0.50384404  1
  Sc  Sc58  1  0.70869675  0.69848791  0.49673088  1
  Sc  Sc59  1  0.09361322  0.09531168  0.70086173  1
  Sc  Sc60  1  0.71193025  0.49561384  0.90142240  1
  Sc  Sc61  1  0.30012380  0.69452351  0.90484213  1
  Sc  Sc62  1  0.29143837  0.89675816  0.09460373  1
  Sc  Sc63  1  0.68580487  0.50242367  0.30898021  1
  Sc  Sc64  1  0.71436158  0.29435288  0.89871818  1
  Sc  Sc65  1  0.89865728  0.49753734  0.89985639  1
  Sc  Sc66  1  0.10311815  0.68853228  0.30093754  1
  Sc  Sc67  1  0.69744310  0.28673763  0.49774689  1
  Sc  Sc68  1  0.10221128  0.09848358  0.29636498  1
  Sc  Sc69  1  0.89685552  0.90504512  0.30087774  1
  Sc  Sc70  1  0.10766484  0.69680649  0.89454586  1
  Sc  Sc71  1  0.69013071  0.71051770  0.89167692  1
  Sc  Sc72  1  0.49571867  0.70603807  0.90558799  1
  Sc  Sc73  1  0.69791833  0.90216145  0.90029634  1
  Sc  Sc74  1  0.90354787  0.29922697  0.71062919  1
  Sc  Sc75  1  0.89873409  0.10947634  0.90122527  1
  Sc  Sc76  1  0.50894397  0.70735202  0.49096147  1
  Sc  Sc77  1  0.69845049  0.70540604  0.30537467  1
  Sc  Sc78  1  0.50458901  0.69796288  0.71176923  1
  Sc  Sc79  1  0.90080536  0.51460270  0.50263159  1
  Sc  Sc80  1  0.29182991  0.90097364  0.69229436  1
  Sc  Sc81  1  0.30605497  0.49826808  0.70967688  1
  Sc  Sc82  1  0.90819407  0.69063002  0.89827265  1
  Sc  Sc83  1  0.09466423  0.49799784  0.70684492  1
  Sc  Sc84  1  0.09436493  0.50739217  0.48760141  1
  Sc  Sc85  1  0.50512134  0.09946525  0.30519951  1
  Sc  Sc86  1  0.29727295  0.90519357  0.29013164  1
  Sc  Sc87  1  0.50318865  0.29829231  0.10624806  1
  Sc  Sc88  1  0.50448904  0.90482652  0.90452922  1
  Sc  Sc89  1  0.89893048  0.09586309  0.70053493  1
  Sc  Sc90  1  0.10889884  0.29353420  0.10161484  1
  Sc  Sc91  1  0.89781904  0.90566917  0.49226124  1
  Sc  Sc92  1  0.50629641  0.90562409  0.69355668  1
  Sc  Sc93  1  0.29272056  0.10070387  0.08840277  1
  Sc  Sc94  1  0.90482425  0.28993264  0.10285373  1
  Sc  Sc95  1  0.70821533  0.50679392  0.70656925  1
  Sc  Sc96  1  0.70653273  0.09796470  0.49988776  1
  Sc  Sc97  1  0.89760064  0.09504469  0.09664183  1
  Sc  Sc98  1  0.10455409  0.09990892  0.89923695  1
  Sc  Sc99  1  0.70143737  0.28811854  0.10447528  1
  Nb  Nb100  1  0.30129256  0.49883947  0.49923809  1
  Nb  Nb101  1  0.29592344  0.29381664  0.29521986  1
  Nb  Nb102  1  0.70390744  0.29507347  0.30134348  1
  Nb  Nb103  1  0.09704939  0.89567423  0.29418902  1
  Nb  Nb104  1  0.70088724  0.30152112  0.70306475  1
  Nb  Nb105  1  0.49723899  0.10574566  0.89954890  1
  Nb  Nb106  1  0.29927876  0.49456930  0.10093048  1
  Nb  Nb107  1  0.90298191  0.30113219  0.90204567  1
  Nb  Nb108  1  0.10002029  0.49532640  0.10886092  1
  Nb  Nb109  1  0.69782386  0.49880753  0.50052589  1
  Nb  Nb110  1  0.90442145  0.89735802  0.69712662  1
  Nb  Nb111  1  0.09332028  0.89636516  0.70846839  1
  Nb  Nb112  1  0.90234481  0.70551449  0.50108150  1
  Nb  Nb113  1  0.29904784  0.70056517  0.30073229  1
  Nb  Nb114  1  0.31747289  0.69967206  0.10699494  1
  Nb  Nb115  1  0.10431570  0.49773676  0.29296495  1
  Nb  Nb116  1  0.10151242  0.89622051  0.89782035  1
  Nb  Nb117  1  0.70114735  0.09697440  0.10155444  1
  Nb  Nb118  1  0.30025982  0.89820843  0.49711821  1
  Nb  Nb119  1  0.49459608  0.70139436  0.09686663  1
  Nb  Nb120  1  0.29997895  0.29741469  0.09932493  1
  Nb  Nb121  1  0.50174969  0.29650074  0.90698067  1
  Nb  Nb122  1  0.90001698  0.89871348  0.09844468  1
  Nb  Nb123  1  0.09664941  0.89933812  0.09739134  1
  Nb  Nb124  1  0.29315118  0.50529090  0.29970431  1
  Nb  Nb125  1  0.39695259  0.80708196  0.79906543  1
  Nb  Nb126  1  0.40219762  0.00665052  0.19462260  1
  Nb  Nb127  1  0.00060838  0.80513894  0.00324019  1
  Nb  Nb128  1  0.20272814  0.40128816  0.59109411  1
  Nb  Nb129  1  0.39969964  0.39825303  0.00544289  1
  Nb  Nb130  1  0.79569160  0.39986783  0.59700597  1
  Nb  Nb131  1  0.79825218  0.39861062  0.40139544  1
  Nb  Nb132  1  0.00419503  0.40074725  0.00493153  1
  Nb  Nb133  1  0.20077335  0.80305950  0.39657424  1
  Nb  Nb134  1  0.20179470  0.40406003  0.39294113  1
  Nb  Nb135  1  0.39118585  0.80132489  0.39656377  1
  Nb  Nb136  1  0.00315425  0.80449385  0.19452645  1
  Nb  Nb137  1  0.80779425  0.80406380  0.00248040  1
  Nb  Nb138  1  -0.00418929  0.80257886  0.60224381  1
  Nb  Nb139  1  0.60046982  0.39460699  0.80316364  1
  Nb  Nb140  1  0.20325487  0.59333322  0.59772992  1
  Nb  Nb141  1  0.79896484  0.39676922  0.20941732  1
  Nb  Nb142  1  0.59934393  0.59252784  0.59745680  1
  Nb  Nb143  1  0.60672141  0.39906476  0.60497457  1
  Nb  Nb144  1  0.59697458  0.59873030  0.00468856  1
  Nb  Nb145  1  0.20122910  0.20099725  0.59997557  1
  Nb  Nb146  1  0.39527974  0.19950525  0.19947737  1
  Nb  Nb147  1  0.39155928  0.60304748  0.39843691  1
  Nb  Nb148  1  0.40188832  0.59822522  0.59342274  1
  Nb  Nb149  1  0.59597944  0.40284435  -0.00320221  1
  Pd  Pd150  1  0.79359373  0.59366428  0.21561501  1
  Pd  Pd151  1  0.80451586  0.20348744  0.60793038  1
  Pd  Pd152  1  0.79510496  0.60814821  0.80780711  1
  Pd  Pd153  1  0.80408960  0.38777572  0.01134180  1
  Pd  Pd154  1  -0.00376073  -0.00192390  0.20224799  1
  Pd  Pd155  1  0.19966345  0.40267193  0.79377885  1
  Pd  Pd156  1  0.00143737  0.19574777  0.60616863  1
  Pd  Pd157  1  0.59261014  0.79235373  0.60212019  1
  Pd  Pd158  1  0.39984567  0.38778026  0.81452786  1
  Pd  Pd159  1  0.19796130  0.79587480  0.20331112  1
  Pd  Pd160  1  0.60540473  0.59361806  0.80324410  1
  Pd  Pd161  1  -0.00189012  0.40741329  0.59195634  1
  Pd  Pd162  1  0.00530708  0.19272305  0.39368519  1
  Pd  Pd163  1  0.79739910  -0.00255675  0.60168889  1
  Pd  Pd164  1  0.60876532  0.00432816  0.40048060  1
  Pd  Pd165  1  0.40354146  -0.00619351  0.00543882  1
  Pd  Pd166  1  -0.00814257  0.79751963  0.80463496  1
  Pd  Pd167  1  0.79020394  0.61502993  -0.00975526  1
  Pd  Pd168  1  0.00453083  0.20284724  0.00172630  1
  Pd  Pd169  1  0.20366399  0.39747491  0.20049417  1
  Pd  Pd170  1  0.39221340  0.18838325  0.59887064  1
  Pd  Pd171  1  0.00590019  0.59844615  0.00052717  1
  Pd  Pd172  1  0.79441217  0.80977649  0.40497488  1
  Pd  Pd173  1  0.20529027  0.59846261  0.00905500  1
  Pd  Pd174  1  0.39201076  0.80797510  -0.00898852  1
  Pd  Pd175  1  0.19760038  -0.00921206  0.39263873  1
  Pd  Pd176  1  0.80330846  0.59409570  0.39551910  1
  Pd  Pd177  1  0.39224401  0.20879487  0.81214740  1
  Pd  Pd178  1  0.40789220  0.79359915  0.60031560  1
  Pd  Pd179  1  0.20392851  0.00481945  0.19361341  1
  Pd  Pd180  1  0.00235256  -0.00230178  -0.00764285  1
  Pd  Pd181  1  0.80072293  0.00454991  0.80065858  1
  Pd  Pd182  1  -0.00056023  0.40349284  0.40360926  1
  Pd  Pd183  1  0.20740868  0.60361365  0.19057202  1
  Pd  Pd184  1  0.20153753  0.79959004  -0.00682216  1
  Pd  Pd185  1  0.18779725  0.79775260  0.59462543  1
  Pd  Pd186  1  0.00209769  0.61036307  0.20085650  1
  Pd  Pd187  1  0.61035769  0.39631307  0.19392916  1
  Pd  Pd188  1  0.60535846  0.60493063  0.19852750  1
  Pd  Pd189  1  0.19675710  0.00416987  0.60688637  1
  Pd  Pd190  1  0.60082639  0.19820795  0.59945613  1
  Pd  Pd191  1  0.59915900  -0.00256430  0.80358168  1
  Pd  Pd192  1  0.38925610  0.40054761  0.39057888  1
  Pd  Pd193  1  0.00788960  0.60274586  0.60657669  1
  Pd  Pd194  1  0.60824056  0.20676895  -0.00306737  1
  Pd  Pd195  1  0.00013008  0.00630871  0.80495716  1
  Pd  Pd196  1  0.39454139  0.39312208  0.20126406  1
  Pd  Pd197  1  0.19600195  0.20084069  0.79421553  1
  Pd  Pd198  1  0.81020038  0.79901318  0.81201564  1
  Pd  Pd199  1  0.39726234  0.00320503  0.60742737  1
  Rh  Rh200  1  0.40767044  0.19854727  0.39099421  1
  Rh  Rh201  1  0.80763058  0.80302811  0.19625343  1
  Rh  Rh202  1  0.80298905  0.19866202  0.19519769  1
  Rh  Rh203  1  0.59514270  0.19616135  0.20209792  1
  Rh  Rh204  1  -0.00121551  0.19728256  0.80092388  1
  Rh  Rh205  1  0.19148176  0.20981279  0.40647003  1
  Rh  Rh206  1  0.80086130  -0.00089740  -0.00086197  1
  Rh  Rh207  1  0.20404990  0.59967227  0.40498169  1
  Rh  Rh208  1  0.19576290  0.19690458  -0.00036879  1
  Rh  Rh209  1  0.80344716  0.00253125  0.19719556  1
  Rh  Rh210  1  0.60280229  0.79797470  0.20117146  1
  Rh  Rh211  1  0.00175125  0.19095900  0.19703365  1
  Rh  Rh212  1  0.60483290  0.01000471  0.60396149  1
  Rh  Rh213  1  0.19786946  0.40319263  0.00889542  1
  Rh  Rh214  1  0.60660537  0.79434567  0.00007006  1
  Rh  Rh215  1  0.80144591  0.19839361  0.00369187  1
  Rh  Rh216  1  0.39608481  -0.00756788  0.38975549  1
  Rh  Rh217  1  0.59213964  0.60712978  0.40245900  1
  Rh  Rh218  1  0.59874095  0.00259348  -0.00032775  1
  Rh  Rh219  1  0.58933470  0.80950016  0.79788337  1
  Rh  Rh220  1  0.40104139  0.59505212  0.00736524  1
  Rh  Rh221  1  0.79273912  -0.00156237  0.39947791  1
  Rh  Rh222  1  0.80154980  0.39540632  0.79374718  1
  Rh  Rh223  1  0.00288810  0.00098472  0.39153207  1
  Rh  Rh224  1  0.18892926  -0.00160331  0.79656872  1
  Rh  Rh225  1  -0.00232200  -0.00729854  0.60309024  1
  Rh  Rh226  1  0.39513207  0.81070090  0.20183331  1
  Rh  Rh227  1  0.00206760  0.59631333  0.80071618  1
  Rh  Rh228  1  0.59826658  0.80183813  0.39491847  1
  Rh  Rh229  1  0.20458600  0.19290251  0.19372782  1
  Rh  Rh230  1  0.00549457  0.80482381  0.39697995  1
  Rh  Rh231  1  0.40868740  -0.00667222  0.79822367  1
  Rh  Rh232  1  0.39688182  0.20737941  0.00124550  1
  Rh  Rh233  1  0.20386529  0.59551413  0.79315045  1
  Rh  Rh234  1  -0.00256644  0.39541537  0.18973592  1
  Rh  Rh235  1  0.60003361  0.19695399  0.40210356  1
  Rh  Rh236  1  0.59272332  0.00792587  0.19313749  1
  Rh  Rh237  1  0.79317510  0.59689122  0.59704427  1
  Rh  Rh238  1  0.80854338  0.80819935  0.59152809  1
  Rh  Rh239  1  -0.00572073  0.59989855  0.39078337  1
  Rh  Rh240  1  0.39428882  0.61345600  0.79596438  1
  Rh  Rh241  1  0.80048365  0.19853052  0.40059962  1
  Rh  Rh242  1  0.80414450  0.19978407  0.80047382  1
  Rh  Rh243  1  0.39222223  0.59645383  0.20416198  1
  Rh  Rh244  1  -0.00198789  0.40439594  0.81363969  1
  Rh  Rh245  1  0.60520744  0.20500987  0.81168658  1
  Rh  Rh246  1  0.19072088  -0.00110236  -0.00346340  1
  Rh  Rh247  1  0.39926476  0.40186328  0.59625328  1
  Rh  Rh248  1  0.20700517  0.80295514  0.80470476  1
  Rh  Rh249  1  0.61086078  0.38720488  0.40691284  1
