# generated using pymatgen
data_ZrScNbPdRh
_symmetry_space_group_name_H-M   'P 1'
_cell_length_a   16.56271194
_cell_length_b   16.56104772
_cell_length_c   16.55956419
_cell_angle_alpha   89.95055515
_cell_angle_beta   90.04140865
_cell_angle_gamma   90.04297833
_symmetry_Int_Tables_number   1
_chemical_formula_structural   ZrScNbPdRh
_chemical_formula_sum   'Zr50 Sc50 Nb50 Pd50 Rh50'
_cell_volume   4542.21579151
_cell_formula_units_Z   50
loop_
 _symmetry_equiv_pos_site_id
 _symmetry_equiv_pos_as_xyz
  1  'x, y, z'
loop_
 _atom_site_type_symbol
 _atom_site_label
 _atom_site_symmetry_multiplicity
 _atom_site_fract_x
 _atom_site_fract_y
 _atom_site_fract_z
 _atom_site_occupancy
  Zr  Zr0  1  0.30814136  0.09811423  0.30749611  1
  Zr  Zr1  1  0.09272622  0.90861832  0.09767138  1
  Zr  Zr2  1  0.09977049  0.89712518  0.30366058  1
  Zr  Zr3  1  0.69301126  0.90514140  0.70268880  1
  Zr  Zr4  1  0.29806818  0.50134027  0.50485484  1
  Zr  Zr5  1  0.30051430  0.70264303  0.29896576  1
  Zr  Zr6  1  0.50244274  0.90443711  0.30518637  1
  Zr  Zr7  1  0.90266021  0.29587826  0.49878597  1
  Zr  Zr8  1  0.90590859  0.09501175  0.10259789  1
  Zr  Zr9  1  0.50495697  0.09907504  0.09352610  1
  Zr  Zr10  1  0.30282159  0.70048502  0.70344997  1
  Zr  Zr11  1  0.90319900  0.70561274  0.49498600  1
  Zr  Zr12  1  0.69284718  0.50490747  0.49234774  1
  Zr  Zr13  1  0.89404030  0.89428598  0.70524474  1
  Zr  Zr14  1  0.10435536  0.09654146  0.90819239  1
  Zr  Zr15  1  0.90180603  0.09352571  0.49746273  1
  Zr  Zr16  1  0.90192979  0.69729839  0.10909975  1
  Zr  Zr17  1  0.08490202  0.09754097  0.29778813  1
  Zr  Zr18  1  0.69090039  0.29753288  0.50154090  1
  Zr  Zr19  1  0.50701082  0.49718504  0.51359384  1
  Zr  Zr20  1  0.89366280  0.69624871  0.69755859  1
  Zr  Zr21  1  0.70080610  0.50314718  0.69396163  1
  Zr  Zr22  1  0.09292464  0.70831740  0.70795758  1
  Zr  Zr23  1  0.30004924  0.10758882  0.09548692  1
  Zr  Zr24  1  0.50035964  0.89646780  0.70430191  1
  Zr  Zr25  1  0.88634701  0.09659082  0.90525033  1
  Zr  Zr26  1  0.30227611  0.29591244  0.90620282  1
  Zr  Zr27  1  0.29624387  0.89721768  0.30026338  1
  Zr  Zr28  1  0.69951282  0.10040716  0.50457785  1
  Zr  Zr29  1  0.30834901  0.50658338  0.70104979  1
  Zr  Zr30  1  0.10099604  0.90879265  0.69426753  1
  Zr  Zr31  1  0.90682756  0.69819566  0.88717761  1
  Zr  Zr32  1  0.10067455  0.29969569  0.69689009  1
  Zr  Zr33  1  0.50127880  0.90359741  0.89769057  1
  Zr  Zr34  1  0.28852980  0.10033806  0.68547541  1
  Zr  Zr35  1  0.48847203  0.30170059  0.89719025  1
  Zr  Zr36  1  0.30211100  0.49687231  0.29043423  1
  Zr  Zr37  1  0.51220502  0.70571914  0.90388248  1
  Zr  Zr38  1  0.70239046  0.49827756  0.28950765  1
  Zr  Zr39  1  0.50155903  0.89578240  0.09415608  1
  Zr  Zr40  1  0.30425402  0.29154803  0.50918336  1
  Zr  Zr41  1  0.70310372  0.50154604  0.09833216  1
  Zr  Zr42  1  0.09534214  0.31716843  0.50070765  1
  Zr  Zr43  1  0.09849317  0.29787784  0.30291404  1
  Zr  Zr44  1  0.90879063  0.49599210  0.49655767  1
  Zr  Zr45  1  0.70491940  0.10300923  0.09172566  1
  Zr  Zr46  1  0.30456243  0.49254153  0.90067442  1
  Zr  Zr47  1  0.49915501  0.30377894  0.69387647  1
  Zr  Zr48  1  0.89947590  0.30000494  0.69585980  1
  Zr  Zr49  1  0.30185973  0.69572532  0.10610160  1
  Sc  Sc50  1  0.50526958  0.48995954  0.10138397  1
  Sc  Sc51  1  0.69903741  0.30617961  0.10020640  1
  Sc  Sc52  1  0.68601156  0.70709123  0.10089027  1
  Sc  Sc53  1  0.10588652  0.50235432  0.49790644  1
  Sc  Sc54  1  0.50097563  0.50157064  0.90328819  1
  Sc  Sc55  1  0.09607883  0.50807300  0.89858588  1
  Sc  Sc56  1  0.70327071  0.70463398  0.50515530  1
  Sc  Sc57  1  0.50399988  0.29608733  0.29447147  1
  Sc  Sc58  1  0.89148300  0.30368951  0.89165290  1
  Sc  Sc59  1  0.90239995  0.50759525  0.09903831  1
  Sc  Sc60  1  0.69648443  0.09898773  0.31148798  1
  Sc  Sc61  1  0.89218367  0.90850978  0.10657959  1
  Sc  Sc62  1  0.89834782  0.89614183  0.49574994  1
  Sc  Sc63  1  0.30732608  0.29943068  0.29703006  1
  Sc  Sc64  1  0.31007475  0.30522496  0.10701365  1
  Sc  Sc65  1  0.51203025  0.49921867  0.29942974  1
  Sc  Sc66  1  0.50586465  0.70145801  0.28991464  1
  Sc  Sc67  1  0.69784765  0.70209334  0.29388031  1
  Sc  Sc68  1  0.50031027  0.10848319  0.30276643  1
  Sc  Sc69  1  0.70078196  0.50016639  0.89781656  1
  Sc  Sc70  1  0.09854641  0.69899946  0.89772169  1
  Sc  Sc71  1  0.69639676  0.09850561  0.89858211  1
  Sc  Sc72  1  0.49961629  0.29737956  0.10129792  1
  Sc  Sc73  1  0.29896020  0.91378514  0.49179039  1
  Sc  Sc74  1  0.29576503  0.30355729  0.70814868  1
  Sc  Sc75  1  0.29216864  0.70343919  0.89836076  1
  Sc  Sc76  1  0.29556861  0.89122813  0.09827376  1
  Sc  Sc77  1  0.29388860  0.69130163  0.50217111  1
  Sc  Sc78  1  0.09940881  0.09436999  0.10033386  1
  Sc  Sc79  1  0.30376963  0.90128501  0.70828584  1
  Sc  Sc80  1  0.90388195  0.50679266  0.28671335  1
  Sc  Sc81  1  0.69442062  0.90755999  0.10412640  1
  Sc  Sc82  1  0.51497579  0.69251899  0.50017144  1
  Sc  Sc83  1  0.09625706  0.69666343  0.09623781  1
  Sc  Sc84  1  0.89132579  0.29529673  0.09489778  1
  Sc  Sc85  1  0.89932020  0.50285317  0.88891624  1
  Sc  Sc86  1  0.09348920  0.70407968  0.30594813  1
  Sc  Sc87  1  0.69951779  0.70039731  0.70306635  1
  Sc  Sc88  1  0.50285740  0.09280434  0.70533851  1
  Sc  Sc89  1  0.70352865  0.29136808  0.69941116  1
  Sc  Sc90  1  0.09930545  0.50961824  0.10621699  1
  Sc  Sc91  1  0.69955893  0.90151867  0.30521927  1
  Sc  Sc92  1  0.49165460  0.10179897  0.49768038  1
  Sc  Sc93  1  0.10446938  0.49147480  0.69961754  1
  Sc  Sc94  1  0.10722885  0.89812095  0.89713438  1
  Sc  Sc95  1  0.30481326  0.10148296  0.89988676  1
  Sc  Sc96  1  0.70736761  0.29780665  0.89846602  1
  Sc  Sc97  1  0.11244769  0.30120942  0.89096715  1
  Sc  Sc98  1  0.69875303  0.10314332  0.70632994  1
  Sc  Sc99  1  0.10469563  0.49483899  0.30323159  1
  Nb  Nb100  1  0.70590206  0.29968848  0.30115983  1
  Nb  Nb101  1  0.90076752  0.09659349  0.30507122  1
  Nb  Nb102  1  0.10235820  0.29483769  0.10077077  1
  Nb  Nb103  1  0.29945910  0.49852983  0.10449001  1
  Nb  Nb104  1  0.49944184  0.70359673  0.09208734  1
  Nb  Nb105  1  0.69775285  0.70082736  0.90527809  1
  Nb  Nb106  1  0.49982615  0.30212573  0.49825214  1
  Nb  Nb107  1  0.49981844  0.10105730  0.90649451  1
  Nb  Nb108  1  0.89797725  0.90308162  0.30492757  1
  Nb  Nb109  1  0.49486864  0.69426533  0.70323031  1
  Nb  Nb110  1  0.70210379  0.90105371  0.89553484  1
  Nb  Nb111  1  0.89635948  0.50030325  0.70011871  1
  Nb  Nb112  1  0.90980928  0.28691842  0.30432006  1
  Nb  Nb113  1  0.09796179  0.70733438  0.49928246  1
  Nb  Nb114  1  0.89590867  0.70489772  0.29925687  1
  Nb  Nb115  1  0.69417222  0.90396836  0.50669874  1
  Nb  Nb116  1  0.50537892  0.89692040  0.50487366  1
  Nb  Nb117  1  0.29797724  0.10222855  0.49567396  1
  Nb  Nb118  1  0.09949858  0.89337498  0.49782927  1
  Nb  Nb119  1  0.89446121  0.90374374  0.89952696  1
  Nb  Nb120  1  0.50028640  0.50608612  0.70125583  1
  Nb  Nb121  1  0.09163100  0.09400863  0.69690345  1
  Nb  Nb122  1  0.10179149  0.07634822  0.51603634  1
  Nb  Nb123  1  0.30360304  0.89322694  0.89338140  1
  Nb  Nb124  1  0.89915540  0.09964005  0.69462780  1
  Nb  Nb125  1  0.20052730  0.80226678  0.59551032  1
  Nb  Nb126  1  0.00177475  0.20414479  -0.00597590  1
  Nb  Nb127  1  0.40124435  -0.00058525  0.19751404  1
  Nb  Nb128  1  0.80538124  0.19793947  0.21095329  1
  Nb  Nb129  1  0.80102807  0.40119720  0.59284607  1
  Nb  Nb130  1  0.19823739  0.40241026  0.00826974  1
  Nb  Nb131  1  0.19659859  0.19885522  0.20554733  1
  Nb  Nb132  1  0.80314766  0.59973903  0.39393847  1
  Nb  Nb133  1  0.79767056  -0.00123214  0.60033508  1
  Nb  Nb134  1  0.40352915  0.59734596  0.39941259  1
  Nb  Nb135  1  0.19741191  0.19183143  0.40688928  1
  Nb  Nb136  1  -0.01149864  0.80479052  -0.00331426  1
  Nb  Nb137  1  0.59576637  0.40098230  0.79316976  1
  Nb  Nb138  1  0.40409340  0.79728516  0.40769985  1
  Nb  Nb139  1  0.80047801  0.80064109  -0.00519661  1
  Nb  Nb140  1  0.40627380  0.40205078  0.40643616  1
  Nb  Nb141  1  0.40057320  0.60280584  0.00936791  1
  Nb  Nb142  1  -0.00031566  0.60328863  0.60055395  1
  Nb  Nb143  1  -0.00021780  0.19069328  0.79798745  1
  Nb  Nb144  1  0.40173636  0.79886666  0.59386703  1
  Nb  Nb145  1  0.00636692  0.39428587  0.00316470  1
  Nb  Nb146  1  0.80284172  0.39751603  0.39457336  1
  Nb  Nb147  1  0.00090373  0.38837152  0.19493909  1
  Nb  Nb148  1  -0.00522424  0.00480056  0.79967327  1
  Nb  Nb149  1  0.79748072  0.61267385  -0.00283542  1
  Pd  Pd150  1  0.41306471  0.59364437  0.19954901  1
  Pd  Pd151  1  0.19682208  0.59629108  0.79884209  1
  Pd  Pd152  1  0.59641623  0.60002443  0.19147665  1
  Pd  Pd153  1  0.00698965  0.19788077  0.59607810  1
  Pd  Pd154  1  0.00034962  0.80123987  0.60044070  1
  Pd  Pd155  1  0.18654768  0.20146329  0.59170073  1
  Pd  Pd156  1  0.60095898  0.20984478  -0.00693346  1
  Pd  Pd157  1  0.59666728  0.79320376  0.60783138  1
  Pd  Pd158  1  0.01360747  0.18984788  0.41781819  1
  Pd  Pd159  1  0.79757090  0.20090657  0.39988062  1
  Pd  Pd160  1  -0.00081237  0.59897014  0.39749248  1
  Pd  Pd161  1  0.60413903  0.59635205  0.79948239  1
  Pd  Pd162  1  0.20606453  0.00714511  0.20008262  1
  Pd  Pd163  1  0.20110631  0.00409139  0.80245753  1
  Pd  Pd164  1  0.21441323  0.39154407  0.40129718  1
  Pd  Pd165  1  0.79403508  0.00884044  0.21027725  1
  Pd  Pd166  1  0.59410322  0.00611185  0.40695316  1
  Pd  Pd167  1  0.59077392  0.19137411  0.60120643  1
  Pd  Pd168  1  0.19137594  0.00478710  0.39693484  1
  Pd  Pd169  1  0.60084414  0.39495133  -0.01051344  1
  Pd  Pd170  1  0.81009932  0.41178119  -0.00340698  1
  Pd  Pd171  1  0.60072250  0.79466505  0.39780890  1
  Pd  Pd172  1  0.20581035  0.59399846  -0.00139066  1
  Pd  Pd173  1  0.79095718  0.79498780  0.80308514  1
  Pd  Pd174  1  0.61177080  0.19898559  0.20097106  1
  Pd  Pd175  1  0.59889661  0.39478270  0.39203815  1
  Pd  Pd176  1  0.40618852  0.19332917  0.60703994  1
  Pd  Pd177  1  0.39982575  -0.00525482  0.59716482  1
  Pd  Pd178  1  0.81270497  0.38994411  0.20440470  1
  Pd  Pd179  1  0.79342745  0.80253379  0.19474867  1
  Pd  Pd180  1  0.19107100  0.60569649  0.20814308  1
  Pd  Pd181  1  0.00025800  0.80506984  0.19600415  1
  Pd  Pd182  1  0.40661985  0.80647727  0.20517935  1
  Pd  Pd183  1  0.79214353  0.79913862  0.40045313  1
  Pd  Pd184  1  0.19696472  0.19078420  0.79709535  1
  Pd  Pd185  1  0.39547908  0.40038851  0.60193638  1
  Pd  Pd186  1  0.18663941  0.60648570  0.60717081  1
  Pd  Pd187  1  0.80514200  0.59517107  0.58865758  1
  Pd  Pd188  1  0.00170141  0.39618362  0.80579422  1
  Pd  Pd189  1  0.19188387  0.79883626  0.00183801  1
  Pd  Pd190  1  0.39817448  0.19145632  0.79090427  1
  Pd  Pd191  1  0.40304216  0.60616763  0.81695174  1
  Pd  Pd192  1  0.39472342  0.79454684  -0.00785813  1
  Pd  Pd193  1  0.59705917  0.00578004  0.20317545  1
  Pd  Pd194  1  0.18778074  0.79503314  0.19407280  1
  Pd  Pd195  1  0.59581856  0.20567790  0.80675596  1
  Pd  Pd196  1  0.39707845  0.00793273  0.80084103  1
  Pd  Pd197  1  0.39235422  -0.00405611  0.00324286  1
  Pd  Pd198  1  0.21223604  -0.00834922  -0.00368411  1
  Pd  Pd199  1  0.20246915  0.60268516  0.39415207  1
  Rh  Rh200  1  -0.00387585  0.80580999  0.39455447  1
  Rh  Rh201  1  0.59964451  0.60734004  0.60916746  1
  Rh  Rh202  1  0.79806053  -0.00692440  0.40496242  1
  Rh  Rh203  1  -0.00407811  0.41013332  0.60701035  1
  Rh  Rh204  1  -0.00926683  0.60280002  -0.00282560  1
  Rh  Rh205  1  0.20027589  0.20811599  0.00838269  1
  Rh  Rh206  1  0.20658506  0.40144092  0.60381459  1
  Rh  Rh207  1  0.79005461  0.40197535  0.78779185  1
  Rh  Rh208  1  0.40505072  0.20127018  0.00293447  1
  Rh  Rh209  1  -0.00362149  0.20145829  0.18897834  1
  Rh  Rh210  1  0.00350327  0.81448453  0.80903554  1
  Rh  Rh211  1  0.39712061  0.19127929  0.19770600  1
  Rh  Rh212  1  0.60165735  0.39250712  0.19949842  1
  Rh  Rh213  1  0.60345794  -0.00154329  -0.00734118  1
  Rh  Rh214  1  0.20388073  0.40542291  0.80507575  1
  Rh  Rh215  1  0.59588751  0.20324915  0.40138208  1
  Rh  Rh216  1  0.59972252  0.59513234  0.00508066  1
  Rh  Rh217  1  0.00135368  -0.00738730  0.40182550  1
  Rh  Rh218  1  0.59760536  0.00291392  0.80779270  1
  Rh  Rh219  1  -0.01330454  -0.01249081  0.60188637  1
  Rh  Rh220  1  0.79410189  0.60071837  0.80587772  1
  Rh  Rh221  1  0.80453116  0.19514015  0.79826136  1
  Rh  Rh222  1  -0.00610027  -0.00931607  0.20728808  1
  Rh  Rh223  1  0.19348521  0.39357135  0.19322564  1
  Rh  Rh224  1  -0.00863270  0.40760963  0.38319567  1
  Rh  Rh225  1  0.60616729  0.60622079  0.39417178  1
  Rh  Rh226  1  0.60098459  0.79832327  0.79763531  1
  Rh  Rh227  1  0.39883122  0.21093741  0.40165747  1
  Rh  Rh228  1  0.80104977  0.19717154  0.59819953  1
  Rh  Rh229  1  0.40903811  0.60868450  0.59201178  1
  Rh  Rh230  1  0.00446982  0.59081002  0.78625669  1
  Rh  Rh231  1  0.79050167  -0.00868781  0.00167398  1
  Rh  Rh232  1  0.39603689  0.40614397  0.00929562  1
  Rh  Rh233  1  0.79437418  0.60977864  0.19718963  1
  Rh  Rh234  1  0.40519582  0.40305511  0.79293715  1
  Rh  Rh235  1  0.20720114  0.79629294  0.40880951  1
  Rh  Rh236  1  0.40694855  -0.00531552  0.39900737  1
  Rh  Rh237  1  -0.00247946  -0.00216327  -0.00895499  1
  Rh  Rh238  1  0.80116859  0.20066692  0.00389149  1
  Rh  Rh239  1  0.20029991  0.80405469  0.79444132  1
  Rh  Rh240  1  0.20963481  -0.01148455  0.59897226  1
  Rh  Rh241  1  0.40904455  0.40330617  0.20644050  1
  Rh  Rh242  1  0.59700603  0.80583968  0.19883280  1
  Rh  Rh243  1  0.80040934  0.00565027  0.79195864  1
  Rh  Rh244  1  0.00662923  0.60026340  0.20835740  1
  Rh  Rh245  1  0.60718436  0.39647538  0.60909889  1
  Rh  Rh246  1  0.79307285  0.81004623  0.59900961  1
  Rh  Rh247  1  0.60952838  0.81142976  -0.00098201  1
  Rh  Rh248  1  0.60144873  0.00525698  0.59922363  1
  Rh  Rh249  1  0.40382801  0.79444433  0.80110369  1
