# generated using pymatgen
data_ZrScNbPdRh
_symmetry_space_group_name_H-M   'P 1'
_cell_length_a   16.56723072
_cell_length_b   16.56774960
_cell_length_c   16.57220443
_cell_angle_alpha   90.01586537
_cell_angle_beta   90.02187512
_cell_angle_gamma   90.01332278
_symmetry_Int_Tables_number   1
_chemical_formula_structural   ZrScNbPdRh
_chemical_formula_sum   'Zr50 Sc50 Nb50 Pd50 Rh50'
_cell_volume   4548.76671680
_cell_formula_units_Z   50
loop_
 _symmetry_equiv_pos_site_id
 _symmetry_equiv_pos_as_xyz
  1  'x, y, z'
loop_
 _atom_site_type_symbol
 _atom_site_label
 _atom_site_symmetry_multiplicity
 _atom_site_fract_x
 _atom_site_fract_y
 _atom_site_fract_z
 _atom_site_occupancy
  Zr  Zr0  1  0.50080874  0.29946576  0.90452482  1
  Zr  Zr1  1  0.50065951  0.50624004  0.69795197  1
  Zr  Zr2  1  0.90518403  0.49765394  0.49615522  1
  Zr  Zr3  1  0.29591332  0.49104461  0.68720782  1
  Zr  Zr4  1  0.89367697  0.90331824  0.89505001  1
  Zr  Zr5  1  0.09986902  0.49909411  0.69645436  1
  Zr  Zr6  1  0.29333509  0.70213481  0.90187530  1
  Zr  Zr7  1  0.70570697  0.89983551  0.70749146  1
  Zr  Zr8  1  0.89679702  0.10797583  0.70177907  1
  Zr  Zr9  1  0.90214268  0.70342309  0.29399307  1
  Zr  Zr10  1  0.29401001  0.69580039  0.29833849  1
  Zr  Zr11  1  0.69047158  0.69661255  0.50017788  1
  Zr  Zr12  1  0.69442338  0.50327876  0.30101000  1
  Zr  Zr13  1  0.10215230  0.10101726  0.49260432  1
  Zr  Zr14  1  0.69546798  0.08851108  0.90661117  1
  Zr  Zr15  1  0.90964520  0.69959647  0.89974015  1
  Zr  Zr16  1  0.09873081  0.29850346  0.49645409  1
  Zr  Zr17  1  0.90066344  0.09973929  0.29486475  1
  Zr  Zr18  1  0.49141134  0.49703123  0.30294400  1
  Zr  Zr19  1  0.29787168  0.90231923  0.11176879  1
  Zr  Zr20  1  0.50755177  0.10134864  0.52165791  1
  Zr  Zr21  1  0.30301771  0.10250358  0.29471516  1
  Zr  Zr22  1  0.29943454  0.89682849  0.29510431  1
  Zr  Zr23  1  0.89095785  0.70330698  0.48604927  1
  Zr  Zr24  1  0.49597508  0.09688849  0.89453212  1
  Zr  Zr25  1  0.09738089  0.29973673  0.30587011  1
  Zr  Zr26  1  0.29479395  0.30613650  0.90318425  1
  Zr  Zr27  1  0.11116289  0.49899013  0.30012438  1
  Zr  Zr28  1  0.90432671  0.29816617  0.50408038  1
  Zr  Zr29  1  0.09695453  0.70046101  0.09583261  1
  Zr  Zr30  1  0.49652638  0.50632269  0.89542080  1
  Zr  Zr31  1  0.69986792  0.69545492  0.69809477  1
  Zr  Zr32  1  0.50136496  0.09958511  0.29328379  1
  Zr  Zr33  1  0.29828389  0.30459623  0.70004566  1
  Zr  Zr34  1  0.09520537  0.69597025  0.70620430  1
  Zr  Zr35  1  0.69558225  0.28932402  0.09205649  1
  Zr  Zr36  1  0.09824514  0.89716348  0.29696827  1
  Zr  Zr37  1  0.90620050  0.10342206  0.10613063  1
  Zr  Zr38  1  0.89942984  0.89157595  0.30400477  1
  Zr  Zr39  1  0.89703054  0.10078919  0.50761815  1
  Zr  Zr40  1  0.10216415  0.70038785  0.89969291  1
  Zr  Zr41  1  0.09195411  0.50309414  0.89783870  1
  Zr  Zr42  1  0.70618046  0.69886384  0.10219858  1
  Zr  Zr43  1  0.29442683  0.90226153  0.50080418  1
  Zr  Zr44  1  0.89596585  0.49851380  0.29363450  1
  Zr  Zr45  1  0.50063578  0.10911648  0.10356776  1
  Zr  Zr46  1  0.09758255  0.89626808  0.89969057  1
  Zr  Zr47  1  0.10358320  0.49443590  0.49997907  1
  Zr  Zr48  1  0.29904853  0.09708975  0.50656384  1
  Zr  Zr49  1  0.50302067  0.69856572  0.70006794  1
  Sc  Sc50  1  0.49135168  0.70390227  0.09877567  1
  Sc  Sc51  1  0.90293957  0.89734528  0.11159089  1
  Sc  Sc52  1  0.71903365  0.50378030  0.10095245  1
  Sc  Sc53  1  0.10140732  0.68526272  0.48656481  1
  Sc  Sc54  1  0.70353763  0.89284827  0.50870767  1
  Sc  Sc55  1  0.09436428  0.30636741  0.90331889  1
  Sc  Sc56  1  0.50505012  0.90396383  0.90360900  1
  Sc  Sc57  1  0.69698256  0.90487921  0.09668988  1
  Sc  Sc58  1  0.49795021  0.90940223  0.70621952  1
  Sc  Sc59  1  0.70900874  0.30010386  0.89822527  1
  Sc  Sc60  1  0.49314263  0.29685225  0.68515543  1
  Sc  Sc61  1  0.28323513  0.10532399  0.10366939  1
  Sc  Sc62  1  0.09394612  0.10139631  0.70856501  1
  Sc  Sc63  1  0.49372313  0.89814806  0.10307240  1
  Sc  Sc64  1  0.90495739  0.30016847  0.29981402  1
  Sc  Sc65  1  0.70113833  0.09703284  0.68583999  1
  Sc  Sc66  1  0.69986589  0.49938140  0.49814272  1
  Sc  Sc67  1  0.10200865  0.89821974  0.70779527  1
  Sc  Sc68  1  0.71128159  0.29987071  0.69752758  1
  Sc  Sc69  1  0.49519655  0.30322552  0.29760763  1
  Sc  Sc70  1  0.69585036  0.09615888  0.11056030  1
  Sc  Sc71  1  0.29721856  0.49858931  0.90071753  1
  Sc  Sc72  1  0.49585228  0.89944908  0.29107629  1
  Sc  Sc73  1  0.90594048  0.30440927  0.10229779  1
  Sc  Sc74  1  0.50469881  0.68839209  0.30308729  1
  Sc  Sc75  1  0.29838260  0.70110499  0.10371119  1
  Sc  Sc76  1  0.90292150  0.30306374  0.89031567  1
  Sc  Sc77  1  0.90641276  0.49672702  0.69803487  1
  Sc  Sc78  1  0.70140220  0.30581016  0.30068332  1
  Sc  Sc79  1  0.70812922  0.69019797  0.89632300  1
  Sc  Sc80  1  0.30224155  0.90160551  0.70001278  1
  Sc  Sc81  1  0.09672927  0.31006072  0.70445777  1
  Sc  Sc82  1  0.69545751  0.30665397  0.50551384  1
  Sc  Sc83  1  0.50360961  0.49346338  0.48974604  1
  Sc  Sc84  1  0.49006190  0.69906940  0.90133927  1
  Sc  Sc85  1  0.31638286  0.09458098  0.70550997  1
  Sc  Sc86  1  0.30035589  0.30703433  0.29345351  1
  Sc  Sc87  1  0.89733254  0.69916460  0.70301716  1
  Sc  Sc88  1  0.29361085  0.90082636  0.89277720  1
  Sc  Sc89  1  0.10266180  0.30024396  0.09721203  1
  Sc  Sc90  1  0.09729129  0.50150877  0.10107057  1
  Sc  Sc91  1  0.90258279  0.69472862  0.10393594  1
  Sc  Sc92  1  0.09934390  0.10521907  0.29405272  1
  Sc  Sc93  1  0.29854081  0.70505485  0.70386328  1
  Sc  Sc94  1  0.69862932  0.50819231  0.69810156  1
  Sc  Sc95  1  0.48421467  0.50731072  0.10593301  1
  Sc  Sc96  1  0.89535777  0.49800569  0.90542851  1
  Sc  Sc97  1  0.70805647  0.69810506  0.30768174  1
  Sc  Sc98  1  0.50293070  0.89447799  0.51174544  1
  Sc  Sc99  1  0.89602694  0.89848962  0.70401595  1
  Nb  Nb100  1  0.70151341  0.09609889  0.50169457  1
  Nb  Nb101  1  0.90394172  0.50394326  0.09839415  1
  Nb  Nb102  1  0.50073267  0.29808997  0.09815428  1
  Nb  Nb103  1  0.30404917  0.30549916  0.09822792  1
  Nb  Nb104  1  0.30124756  0.69932636  0.49556747  1
  Nb  Nb105  1  0.10353687  0.10456961  0.90664324  1
  Nb  Nb106  1  0.31278550  0.30553695  0.51214622  1
  Nb  Nb107  1  0.10046282  0.69442053  0.28805732  1
  Nb  Nb108  1  0.29641597  0.49166782  0.11906824  1
  Nb  Nb109  1  0.49757653  0.69737385  0.49953211  1
  Nb  Nb110  1  0.69674290  0.49818523  0.90237510  1
  Nb  Nb111  1  0.09782479  0.09950541  0.09478723  1
  Nb  Nb112  1  0.90605463  0.89966473  0.49458934  1
  Nb  Nb113  1  0.10004034  0.90467627  0.49815086  1
  Nb  Nb114  1  0.69869701  0.89908930  0.29669310  1
  Nb  Nb115  1  0.70017455  0.89749569  0.90122513  1
  Nb  Nb116  1  0.69875287  0.09320794  0.30262474  1
  Nb  Nb117  1  0.50685971  0.09926810  0.70502279  1
  Nb  Nb118  1  0.90761118  0.10286419  0.89952350  1
  Nb  Nb119  1  0.30105834  0.50253924  0.48947342  1
  Nb  Nb120  1  0.30533158  0.49943887  0.29592604  1
  Nb  Nb121  1  0.90492537  0.29490713  0.70028598  1
  Nb  Nb122  1  0.29673285  0.10457470  0.90332086  1
  Nb  Nb123  1  0.10127538  0.90775731  0.10316631  1
  Nb  Nb124  1  0.49929101  0.29768006  0.49689968  1
  Nb  Nb125  1  0.59728297  0.40228888  0.18872584  1
  Nb  Nb126  1  0.39430786  0.20224671  0.00313952  1
  Nb  Nb127  1  0.59979355  0.40666493  0.00182125  1
  Nb  Nb128  1  0.60082303  0.19386862  0.40441364  1
  Nb  Nb129  1  0.60036312  0.39910628  0.80338645  1
  Nb  Nb130  1  0.19238907  0.79903612  0.59111122  1
  Nb  Nb131  1  0.60270160  0.00134817  0.40092137  1
  Nb  Nb132  1  0.79581837  -0.00131657  0.40015426  1
  Nb  Nb133  1  0.79256883  0.19140210  0.40222691  1
  Nb  Nb134  1  0.80667891  0.19007227  -0.00280251  1
  Nb  Nb135  1  0.60243838  0.59310575  0.00027093  1
  Nb  Nb136  1  0.60514811  0.79778013  0.20173124  1
  Nb  Nb137  1  0.60666534  0.79905391  0.80555556  1
  Nb  Nb138  1  0.39838097  0.79776453  0.40440528  1
  Nb  Nb139  1  0.20422033  0.20235113  0.60571649  1
  Nb  Nb140  1  0.79917902  0.80273959  -0.00423502  1
  Nb  Nb141  1  0.00491003  0.80379027  0.58898441  1
  Nb  Nb142  1  0.39097701  0.00967973  0.00103047  1
  Nb  Nb143  1  0.00088552  -0.00614330  0.59507908  1
  Nb  Nb144  1  0.40471990  0.19833823  0.40915323  1
  Nb  Nb145  1  0.59864935  0.19947322  0.79584832  1
  Nb  Nb146  1  0.40516914  0.00125279  0.40423134  1
  Nb  Nb147  1  0.00421511  0.00582222  -0.00120346  1
  Nb  Nb148  1  0.20185394  0.19922474  0.80522602  1
  Nb  Nb149  1  0.39690257  0.60264162  0.58851520  1
  Pd  Pd150  1  0.80626140  0.59677562  0.59560581  1
  Pd  Pd151  1  0.19452194  0.40827488  0.00396753  1
  Pd  Pd152  1  0.60363195  0.20989737  0.21213951  1
  Pd  Pd153  1  0.19994177  -0.00475595  0.00003918  1
  Pd  Pd154  1  0.59874251  0.59920126  0.19107154  1
  Pd  Pd155  1  0.60619727  0.78893578  -0.00046038  1
  Pd  Pd156  1  0.01211487  0.19779717  0.60593056  1
  Pd  Pd157  1  0.19145380  0.00270438  0.61367329  1
  Pd  Pd158  1  0.79818986  0.40751246  0.79149763  1
  Pd  Pd159  1  0.80679967  0.59188637  0.80013991  1
  Pd  Pd160  1  0.79997679  0.39216904  0.40269726  1
  Pd  Pd161  1  -0.00401976  0.20381742  -0.00183899  1
  Pd  Pd162  1  0.40561143  0.39801285  0.79588529  1
  Pd  Pd163  1  0.59833088  0.40027321  0.60721630  1
  Pd  Pd164  1  0.40255635  0.40319827  0.00576953  1
  Pd  Pd165  1  0.01285858  0.79284830  0.40061213  1
  Pd  Pd166  1  0.40771831  0.80690634  0.80577801  1
  Pd  Pd167  1  0.38724280  0.59925628  0.79119235  1
  Pd  Pd168  1  0.21596800  0.21018505  0.40781885  1
  Pd  Pd169  1  0.80066628  -0.00660819  0.20140886  1
  Pd  Pd170  1  0.59258190  0.80636163  0.39250660  1
  Pd  Pd171  1  0.39201562  0.79670483  0.59860479  1
  Pd  Pd172  1  0.80388758  0.40386342  0.60355167  1
  Pd  Pd173  1  0.21071177  0.39331680  0.40218269  1
  Pd  Pd174  1  0.58912865  -0.00062483  0.01010398  1
  Pd  Pd175  1  -0.00403283  0.00686571  0.39785248  1
  Pd  Pd176  1  0.20431783  0.80670087  0.00610152  1
  Pd  Pd177  1  0.00584242  0.40237472  0.19899709  1
  Pd  Pd178  1  -0.00159538  0.59484821  0.39021897  1
  Pd  Pd179  1  0.20514512  0.60787188  0.59855035  1
  Pd  Pd180  1  0.19669284  0.79560629  0.40080753  1
  Pd  Pd181  1  0.80237933  0.39218846  0.00367911  1
  Pd  Pd182  1  0.39163724  0.59749242  0.00540624  1
  Pd  Pd183  1  0.00003332  0.00084480  0.80003044  1
  Pd  Pd184  1  0.59898348  0.80354110  0.61166053  1
  Pd  Pd185  1  0.39998044  0.20596951  0.80218064  1
  Pd  Pd186  1  0.20370761  0.00169828  0.38819957  1
  Pd  Pd187  1  0.79744865  0.20573022  0.20098263  1
  Pd  Pd188  1  -0.00785727  0.80939234  0.00660579  1
  Pd  Pd189  1  0.20556650  0.59401055  0.79746536  1
  Pd  Pd190  1  0.81024230  -0.00062768  0.00836313  1
  Pd  Pd191  1  0.20549807  0.59139832  0.00861229  1
  Pd  Pd192  1  0.79631970  0.01124743  0.79749490  1
  Pd  Pd193  1  -0.00639401  0.60957530  0.59571572  1
  Pd  Pd194  1  0.79601369  0.39388703  0.19413730  1
  Pd  Pd195  1  0.80835103  0.79893982  0.59938295  1
  Pd  Pd196  1  0.79130758  0.19137467  0.80574366  1
  Pd  Pd197  1  0.39138060  0.81276265  -0.00457017  1
  Pd  Pd198  1  0.19635930  0.20810983  0.19742189  1
  Pd  Pd199  1  0.20256701  0.00859516  0.79672317  1
  Rh  Rh200  1  0.39523768  0.19406196  0.60133878  1
  Rh  Rh201  1  0.20340909  0.59661361  0.39407294  1
  Rh  Rh202  1  0.39515717  0.39248058  0.40167419  1
  Rh  Rh203  1  0.40658457  0.39526187  0.19658470  1
  Rh  Rh204  1  0.19508897  0.39453274  0.19942694  1
  Rh  Rh205  1  0.79251428  0.80277018  0.19412846  1
  Rh  Rh206  1  0.39271311  0.20603275  0.19488002  1
  Rh  Rh207  1  0.40888817  0.41422262  0.59235797  1
  Rh  Rh208  1  0.19687343  0.39283417  0.59010155  1
  Rh  Rh209  1  0.79960643  0.59535731  0.39887970  1
  Rh  Rh210  1  0.60688457  0.20728026  0.60451117  1
  Rh  Rh211  1  0.80966535  -0.01045787  0.59643781  1
  Rh  Rh212  1  0.39352779  0.60463110  0.20221795  1
  Rh  Rh213  1  -0.01058577  0.19538718  0.39619940  1
  Rh  Rh214  1  0.00668717  0.79838906  0.19704385  1
  Rh  Rh215  1  -0.00489413  0.40444401  0.00156910  1
  Rh  Rh216  1  -0.00141672  0.80111975  0.79215632  1
  Rh  Rh217  1  0.40571105  -0.00291520  0.60041490  1
  Rh  Rh218  1  -0.00466957  0.40244028  0.79887633  1
  Rh  Rh219  1  -0.00070071  0.40456255  0.39595420  1
  Rh  Rh220  1  0.00844795  0.20457732  0.80169983  1
  Rh  Rh221  1  0.00130260  0.59459820  0.20103622  1
  Rh  Rh222  1  -0.00494547  0.59474686  0.80074199  1
  Rh  Rh223  1  0.79648657  0.20909628  0.59313583  1
  Rh  Rh224  1  0.60059780  0.60341160  0.80929109  1
  Rh  Rh225  1  0.80641683  0.60130380  0.20458149  1
  Rh  Rh226  1  0.80267357  0.60535052  -0.00067944  1
  Rh  Rh227  1  -0.00027221  0.39712992  0.60132821  1
  Rh  Rh228  1  0.60041334  0.59641695  0.40287287  1
  Rh  Rh229  1  0.60291300  -0.00954907  0.60336172  1
  Rh  Rh230  1  0.39747324  -0.00467032  0.80891602  1
  Rh  Rh231  1  0.00799163  0.20499346  0.20033377  1
  Rh  Rh232  1  0.19428983  0.40016004  0.80525050  1
  Rh  Rh233  1  0.60739225  -0.00017660  0.79461261  1
  Rh  Rh234  1  0.59917055  0.39405812  0.38903569  1
  Rh  Rh235  1  0.41001432  0.78708505  0.21298395  1
  Rh  Rh236  1  0.39675202  0.00918739  0.19329507  1
  Rh  Rh237  1  0.19776119  0.79795422  0.79338226  1
  Rh  Rh238  1  0.59194598  0.59393693  0.58964464  1
  Rh  Rh239  1  0.39682515  0.60373493  0.40034958  1
  Rh  Rh240  1  0.79559651  0.79375629  0.80761916  1
  Rh  Rh241  1  0.00595959  0.00044314  0.19748278  1
  Rh  Rh242  1  0.79103608  0.80679552  0.40227040  1
  Rh  Rh243  1  0.19074944  0.79717336  0.19401983  1
  Rh  Rh244  1  0.19219658  0.00439100  0.20435408  1
  Rh  Rh245  1  0.59734774  -0.01077477  0.19925492  1
  Rh  Rh246  1  0.19963938  0.60004273  0.19514969  1
  Rh  Rh247  1  0.60333830  0.20107685  -0.01140399  1
  Rh  Rh248  1  0.20234348  0.20649686  -0.00264386  1
  Rh  Rh249  1  -0.00294499  0.59598782  0.00055121  1
