# generated using pymatgen
data_ZrScNbPdRh
_symmetry_space_group_name_H-M   'P 1'
_cell_length_a   16.55840277
_cell_length_b   16.55922265
_cell_length_c   16.55715286
_cell_angle_alpha   90.00218806
_cell_angle_beta   90.04184933
_cell_angle_gamma   89.99909132
_symmetry_Int_Tables_number   1
_chemical_formula_structural   ZrScNbPdRh
_chemical_formula_sum   'Zr50 Sc50 Nb50 Pd50 Rh50'
_cell_volume   4539.87536511
_cell_formula_units_Z   50
loop_
 _symmetry_equiv_pos_site_id
 _symmetry_equiv_pos_as_xyz
  1  'x, y, z'
loop_
 _atom_site_type_symbol
 _atom_site_label
 _atom_site_symmetry_multiplicity
 _atom_site_fract_x
 _atom_site_fract_y
 _atom_site_fract_z
 _atom_site_occupancy
  Zr  Zr0  1  0.90159736  0.50247868  0.09889496  1
  Zr  Zr1  1  0.70040482  0.09216215  0.70144929  1
  Zr  Zr2  1  0.10937864  0.09564228  0.69703760  1
  Zr  Zr3  1  0.29198316  0.69782527  0.90943165  1
  Zr  Zr4  1  0.89994727  0.69884148  0.89608059  1
  Zr  Zr5  1  0.49583846  0.30400987  0.69124563  1
  Zr  Zr6  1  0.30027133  0.10079228  0.69925728  1
  Zr  Zr7  1  0.68059113  0.29448425  0.10114998  1
  Zr  Zr8  1  0.89576757  0.09732904  0.70711365  1
  Zr  Zr9  1  0.29099525  0.89725037  0.10167805  1
  Zr  Zr10  1  0.70625034  0.50609960  0.50409794  1
  Zr  Zr11  1  0.50439660  0.51383822  0.70734536  1
  Zr  Zr12  1  0.90803007  0.08897533  0.10398969  1
  Zr  Zr13  1  0.49612535  0.69610224  0.89405303  1
  Zr  Zr14  1  0.29501971  0.90567373  0.29337856  1
  Zr  Zr15  1  0.89687860  0.30217283  0.89735934  1
  Zr  Zr16  1  0.70129643  0.50421741  0.69366913  1
  Zr  Zr17  1  0.90710014  0.10138813  0.49047779  1
  Zr  Zr18  1  0.10957460  0.89643488  0.69440976  1
  Zr  Zr19  1  0.69451001  0.69774903  0.48689143  1
  Zr  Zr20  1  0.28477654  0.49396599  0.69580232  1
  Zr  Zr21  1  0.70337427  0.09587620  0.29595495  1
  Zr  Zr22  1  0.30248343  0.50777568  0.49744170  1
  Zr  Zr23  1  0.89851370  0.50013708  0.50323631  1
  Zr  Zr24  1  0.51283862  0.31290339  0.91196639  1
  Zr  Zr25  1  0.49697066  0.89810307  0.89519312  1
  Zr  Zr26  1  0.69282768  0.70427015  0.69635552  1
  Zr  Zr27  1  0.50788511  0.89325654  0.69627272  1
  Zr  Zr28  1  0.70311466  0.10635446  0.89647442  1
  Zr  Zr29  1  0.10116079  0.50475688  0.88818035  1
  Zr  Zr30  1  0.49471125  0.30248963  0.49196048  1
  Zr  Zr31  1  0.09345528  0.70007461  0.89582407  1
  Zr  Zr32  1  0.90258327  0.89075776  0.89973674  1
  Zr  Zr33  1  0.49900752  0.50319101  0.49962964  1
  Zr  Zr34  1  0.09112666  0.49383586  0.10871087  1
  Zr  Zr35  1  0.09950116  0.70939092  0.49980518  1
  Zr  Zr36  1  0.10072115  0.09561659  0.50033907  1
  Zr  Zr37  1  0.69929190  0.30117981  0.90255188  1
  Zr  Zr38  1  0.29708652  0.70199926  0.30624440  1
  Zr  Zr39  1  0.68950107  0.49475536  0.89254061  1
  Zr  Zr40  1  0.10001986  0.29840973  0.90008002  1
  Zr  Zr41  1  0.90848728  0.49636135  0.69051943  1
  Zr  Zr42  1  0.09525651  0.90371438  0.10670969  1
  Zr  Zr43  1  0.49125516  0.10240701  0.49998253  1
  Zr  Zr44  1  0.10175212  0.89038373  0.90040810  1
  Zr  Zr45  1  0.90990690  0.50408905  0.29430358  1
  Zr  Zr46  1  0.09461831  0.50334755  0.50576922  1
  Zr  Zr47  1  0.70747170  0.30252015  0.71145488  1
  Zr  Zr48  1  0.49820690  0.29830032  0.29104511  1
  Zr  Zr49  1  0.29957346  0.89933228  0.89799405  1
  Sc  Sc50  1  0.10973234  0.70129513  0.09697479  1
  Sc  Sc51  1  0.90064010  0.30769280  0.50105864  1
  Sc  Sc52  1  0.70814321  0.89389212  0.30416803  1
  Sc  Sc53  1  0.70996251  0.70312856  0.09681951  1
  Sc  Sc54  1  0.09835635  0.89430897  0.29957010  1
  Sc  Sc55  1  0.70519024  0.89409461  0.90271315  1
  Sc  Sc56  1  0.30411419  0.88890469  0.49419206  1
  Sc  Sc57  1  0.89226036  0.68890303  0.09322862  1
  Sc  Sc58  1  0.68957564  0.29812978  0.30195694  1
  Sc  Sc59  1  0.30311407  0.29648037  0.30184583  1
  Sc  Sc60  1  0.70192783  0.50779879  0.30849714  1
  Sc  Sc61  1  0.90727862  0.89373310  0.49878081  1
  Sc  Sc62  1  0.70255676  0.89529418  0.50736231  1
  Sc  Sc63  1  0.89879309  0.09205300  0.90790258  1
  Sc  Sc64  1  0.29831938  0.10008113  0.89644359  1
  Sc  Sc65  1  0.30017868  0.30054659  0.10947141  1
  Sc  Sc66  1  0.70285467  0.70586211  0.89869840  1
  Sc  Sc67  1  0.28937036  0.29682297  0.90060885  1
  Sc  Sc68  1  0.90600867  0.70348679  0.69695290  1
  Sc  Sc69  1  0.70563887  0.09953468  0.49846330  1
  Sc  Sc70  1  0.29750448  0.10760766  0.50206700  1
  Sc  Sc71  1  0.89398494  0.89497604  0.69745740  1
  Sc  Sc72  1  0.50276420  0.90540630  0.08705197  1
  Sc  Sc73  1  0.30002117  0.09933364  0.11099823  1
  Sc  Sc74  1  0.49004883  0.90574470  0.30822033  1
  Sc  Sc75  1  0.91181871  0.30968952  0.09470693  1
  Sc  Sc76  1  0.49446100  0.48472014  0.09575598  1
  Sc  Sc77  1  0.70980945  0.50882005  0.09879609  1
  Sc  Sc78  1  0.70222504  0.30773765  0.49848692  1
  Sc  Sc79  1  0.49760435  0.89036886  0.50012787  1
  Sc  Sc80  1  0.90443075  0.50294664  0.90873755  1
  Sc  Sc81  1  0.30449977  0.30138651  0.50831966  1
  Sc  Sc82  1  0.50299135  0.09153035  0.70726959  1
  Sc  Sc83  1  0.89563335  0.90241794  0.09170652  1
  Sc  Sc84  1  0.51257464  0.10033353  0.10442373  1
  Sc  Sc85  1  0.50171024  0.09320402  0.89973728  1
  Sc  Sc86  1  0.29961306  0.50755261  0.30279663  1
  Sc  Sc87  1  0.10150556  0.29610549  0.49808431  1
  Sc  Sc88  1  0.89972805  0.90166982  0.30868138  1
  Sc  Sc89  1  0.10037796  0.29693987  0.29483759  1
  Sc  Sc90  1  0.09782767  0.69841357  0.70162838  1
  Sc  Sc91  1  0.10062236  0.69332804  0.30385411  1
  Sc  Sc92  1  0.10156036  0.29509929  0.10048870  1
  Sc  Sc93  1  0.30456131  0.09968259  0.30167783  1
  Sc  Sc94  1  0.90352688  0.70071405  0.50041252  1
  Sc  Sc95  1  0.90682927  0.29519328  0.30802661  1
  Sc  Sc96  1  0.49818863  0.49313818  0.30641576  1
  Sc  Sc97  1  0.29939912  0.69964830  0.68583385  1
  Sc  Sc98  1  0.29844360  0.50575076  0.09887469  1
  Sc  Sc99  1  0.49281120  0.10398475  0.30030825  1
  Nb  Nb100  1  0.70053133  0.70033122  0.29627677  1
  Nb  Nb101  1  0.89125509  0.70606370  0.29505793  1
  Nb  Nb102  1  0.90542951  0.10119446  0.30259256  1
  Nb  Nb103  1  0.90591494  0.30033484  0.70140803  1
  Nb  Nb104  1  0.09461471  0.09396396  0.10107052  1
  Nb  Nb105  1  0.69734479  0.89348289  0.69812298  1
  Nb  Nb106  1  0.50525369  0.70246471  0.30482761  1
  Nb  Nb107  1  0.10037570  0.10425668  0.90372887  1
  Nb  Nb108  1  0.30370049  0.70399234  0.10432479  1
  Nb  Nb109  1  0.30168453  0.90237763  0.70239076  1
  Nb  Nb110  1  0.49553019  0.50235352  0.89824237  1
  Nb  Nb111  1  0.29821174  0.30052721  0.70341938  1
  Nb  Nb112  1  0.30867743  0.69493898  0.49439052  1
  Nb  Nb113  1  0.09732924  0.90399555  0.49830195  1
  Nb  Nb114  1  0.69931162  0.90886098  0.10246563  1
  Nb  Nb115  1  0.30270856  0.50152742  0.89907855  1
  Nb  Nb116  1  0.10348098  0.31478122  0.70621851  1
  Nb  Nb117  1  0.10201552  0.49907032  0.30384038  1
  Nb  Nb118  1  0.49856113  0.70517611  0.69662060  1
  Nb  Nb119  1  0.70436675  0.09427126  0.10066394  1
  Nb  Nb120  1  0.48406600  0.70110844  0.49958161  1
  Nb  Nb121  1  0.50079297  0.70300184  0.09729253  1
  Nb  Nb122  1  0.08535694  0.09625379  0.29618678  1
  Nb  Nb123  1  0.09642576  0.49260265  0.69943955  1
  Nb  Nb124  1  0.49901570  0.29563887  0.10248925  1
  Nb  Nb125  1  0.79720552  0.19715093  0.01183001  1
  Nb  Nb126  1  0.79958821  0.59928580  0.79375947  1
  Nb  Nb127  1  0.80233261  0.19873601  0.19645206  1
  Nb  Nb128  1  0.80151808  0.39460254  0.20149372  1
  Nb  Nb129  1  0.19894677  0.40568959  -0.00381433  1
  Nb  Nb130  1  0.39816422  0.79719030  0.79426272  1
  Nb  Nb131  1  0.19359712  0.00152369  0.40000861  1
  Nb  Nb132  1  0.39708497  0.40331545  0.80463162  1
  Nb  Nb133  1  0.39648901  -0.00596138  0.60460994  1
  Nb  Nb134  1  0.59891100  0.79832790  0.19970658  1
  Nb  Nb135  1  0.59212493  0.60043940  0.00052871  1
  Nb  Nb136  1  0.00730731  0.00098329  0.80172954  1
  Nb  Nb137  1  -0.00145979  0.20232943  0.61010895  1
  Nb  Nb138  1  0.40633651  0.20494609  0.00108717  1
  Nb  Nb139  1  0.40550311  0.79508422  0.19737932  1
  Nb  Nb140  1  0.00520438  0.19810354  0.79740691  1
  Nb  Nb141  1  0.60485094  0.19970656  0.60212811  1
  Nb  Nb142  1  0.19729839  0.40631730  0.39965489  1
  Nb  Nb143  1  0.59488683  0.60880431  0.19834629  1
  Nb  Nb144  1  0.80382727  0.20147843  0.60632819  1
  Nb  Nb145  1  0.59975540  0.00168546  0.40157359  1
  Nb  Nb146  1  0.19199900  0.00556795  0.00360472  1
  Nb  Nb147  1  -0.00778081  0.79424473  0.20186359  1
  Nb  Nb148  1  0.40069526  0.21087385  0.80267143  1
  Nb  Nb149  1  0.40800141  0.61031300  0.19809605  1
  Pd  Pd150  1  0.60189172  0.19337366  0.40485439  1
  Pd  Pd151  1  0.80015944  0.79232719  0.59473326  1
  Pd  Pd152  1  0.19897147  0.19903683  0.39287244  1
  Pd  Pd153  1  0.60961490  -0.01072337  0.80663180  1
  Pd  Pd154  1  0.40448305  0.59732329  0.00798225  1
  Pd  Pd155  1  0.81052644  0.60300912  0.39740772  1
  Pd  Pd156  1  0.19803324  0.80521001  0.39906660  1
  Pd  Pd157  1  0.59360691  0.60911943  0.59110823  1
  Pd  Pd158  1  0.00286698  0.61192947  0.19567512  1
  Pd  Pd159  1  0.40940033  -0.00500408  0.19063161  1
  Pd  Pd160  1  0.59995653  0.80865077  0.39718086  1
  Pd  Pd161  1  0.60694560  0.00170164  -0.00753057  1
  Pd  Pd162  1  0.79254238  0.39451043  0.00979775  1
  Pd  Pd163  1  0.58948104  0.20457401  0.79619440  1
  Pd  Pd164  1  0.80777355  -0.00272837  0.20454885  1
  Pd  Pd165  1  0.20356610  0.60700234  0.79315476  1
  Pd  Pd166  1  0.19755999  0.19279420  0.20474426  1
  Pd  Pd167  1  0.20348944  0.60048580  0.19975306  1
  Pd  Pd168  1  0.79733941  -0.00583926  0.40653519  1
  Pd  Pd169  1  0.19662025  0.00039937  0.80920332  1
  Pd  Pd170  1  0.39266941  0.40756558  0.20370506  1
  Pd  Pd171  1  0.19355559  0.60503200  0.59688036  1
  Pd  Pd172  1  0.79883955  0.20643515  0.39909205  1
  Pd  Pd173  1  0.39092922  0.01175277  0.00585037  1
  Pd  Pd174  1  0.59430055  0.00303233  0.59070171  1
  Pd  Pd175  1  0.80554580  0.00104443  0.59303153  1
  Pd  Pd176  1  0.59474271  -0.00969075  0.21057382  1
  Pd  Pd177  1  0.60339685  0.40485539  0.40064128  1
  Pd  Pd178  1  -0.00538207  0.20452167  0.19658415  1
  Pd  Pd179  1  0.19317749  0.59256268  0.00492446  1
  Pd  Pd180  1  0.20550852  0.80040470  0.59441716  1
  Pd  Pd181  1  0.60458332  0.39627578  0.60001794  1
  Pd  Pd182  1  0.60728657  0.79701514  0.00354679  1
  Pd  Pd183  1  -0.00800944  0.19825613  -0.00191980  1
  Pd  Pd184  1  0.60828787  0.41639109  0.19785295  1
  Pd  Pd185  1  0.38622321  0.60292437  0.79115535  1
  Pd  Pd186  1  0.00700522  0.39621409  0.39910253  1
  Pd  Pd187  1  0.80157940  0.80624259  0.19352213  1
  Pd  Pd188  1  -0.00343625  0.79133038  0.01326413  1
  Pd  Pd189  1  0.20379896  0.40290865  0.20365789  1
  Pd  Pd190  1  0.80097111  -0.01213885  0.80498632  1
  Pd  Pd191  1  -0.00727621  -0.00158636  0.60644131  1
  Pd  Pd192  1  0.80051953  0.39848234  0.39005233  1
  Pd  Pd193  1  0.19391034  0.21082080  0.60540007  1
  Pd  Pd194  1  0.80997197  0.41345689  0.79851062  1
  Pd  Pd195  1  0.38745950  0.39213144  -0.00338519  1
  Pd  Pd196  1  0.20855744  0.19767500  0.01035772  1
  Pd  Pd197  1  -0.00382706  0.60633986  0.40009454  1
  Pd  Pd198  1  0.39852335  0.41130862  0.60525944  1
  Pd  Pd199  1  0.39804303  0.80108070  -0.00093824  1
  Rh  Rh200  1  0.79807067  0.79500970  0.79202436  1
  Rh  Rh201  1  0.60611633  0.41386112  0.01084006  1
  Rh  Rh202  1  0.59982232  0.79332400  0.58940707  1
  Rh  Rh203  1  0.38955974  0.39781031  0.39850025  1
  Rh  Rh204  1  -0.00339558  0.39434076  0.20685333  1
  Rh  Rh205  1  0.79858227  0.39299900  0.60226677  1
  Rh  Rh206  1  0.79501132  0.59318883  0.20803051  1
  Rh  Rh207  1  0.19568606  0.79232934  0.20395451  1
  Rh  Rh208  1  0.39779954  0.80274420  0.60486811  1
  Rh  Rh209  1  0.79403923  0.00120526  -0.00295791  1
  Rh  Rh210  1  0.40742200  0.19018720  0.61205039  1
  Rh  Rh211  1  0.19884232  0.80367282  0.00300639  1
  Rh  Rh212  1  0.00467985  0.80406917  0.60054172  1
  Rh  Rh213  1  0.80419804  0.60757097  0.60371736  1
  Rh  Rh214  1  -0.00467552  0.40078218  0.80564355  1
  Rh  Rh215  1  -0.00754834  0.59541428  0.79350282  1
  Rh  Rh216  1  0.00786531  0.60185269  0.00246684  1
  Rh  Rh217  1  0.80209791  0.79555417  0.40449426  1
  Rh  Rh218  1  0.00810169  -0.00339432  -0.01029796  1
  Rh  Rh219  1  0.00429761  0.20260391  0.40575288  1
  Rh  Rh220  1  0.60711244  0.60919958  0.80662323  1
  Rh  Rh221  1  0.80855059  0.20024053  0.80451870  1
  Rh  Rh222  1  0.78932807  0.59712919  -0.01763492  1
  Rh  Rh223  1  0.19180815  0.00946259  0.20539055  1
  Rh  Rh224  1  0.39664252  0.20482575  0.39754112  1
  Rh  Rh225  1  0.19938406  0.20141199  0.79354989  1
  Rh  Rh226  1  0.00494951  -0.00508176  0.39583681  1
  Rh  Rh227  1  0.59001863  0.39897136  0.79136234  1
  Rh  Rh228  1  -0.00153127  0.79625677  0.39237885  1
  Rh  Rh229  1  0.39745566  0.79884935  0.39125354  1
  Rh  Rh230  1  0.60129701  0.19154220  0.20540181  1
  Rh  Rh231  1  0.79903294  0.80376637  0.00526296  1
  Rh  Rh232  1  0.59271103  0.59937678  0.39890369  1
  Rh  Rh233  1  0.40746940  0.60066724  0.39140662  1
  Rh  Rh234  1  0.19581834  0.39606860  0.59084600  1
  Rh  Rh235  1  -0.00581813  -0.01158151  0.20837690  1
  Rh  Rh236  1  0.00768942  0.39157276  0.59524788  1
  Rh  Rh237  1  0.59836622  0.18972712  -0.00160146  1
  Rh  Rh238  1  0.59690449  0.79968055  0.80225408  1
  Rh  Rh239  1  0.00458447  0.60524580  0.60113537  1
  Rh  Rh240  1  0.20581635  0.40192196  0.80757835  1
  Rh  Rh241  1  0.39495813  0.00267985  0.41187406  1
  Rh  Rh242  1  0.40100884  0.59684275  0.60393605  1
  Rh  Rh243  1  0.40306219  0.19862344  0.19417565  1
  Rh  Rh244  1  0.19404226  0.59676313  0.40754816  1
  Rh  Rh245  1  0.01331883  0.40525655  -0.00680997  1
  Rh  Rh246  1  0.00132575  0.80833878  0.79020335  1
  Rh  Rh247  1  0.39952740  -0.00285202  0.79437566  1
  Rh  Rh248  1  0.20935028  0.79017688  0.79636523  1
  Rh  Rh249  1  0.21408686  -0.01182465  0.58363725  1
