# generated using pymatgen
data_ZrScNbPdRh
_symmetry_space_group_name_H-M   'P 1'
_cell_length_a   16.56442582
_cell_length_b   16.56224862
_cell_length_c   16.56370431
_cell_angle_alpha   90.01440682
_cell_angle_beta   89.95059794
_cell_angle_gamma   89.98086639
_symmetry_Int_Tables_number   1
_chemical_formula_structural   ZrScNbPdRh
_chemical_formula_sum   'Zr50 Sc50 Nb50 Pd50 Rh50'
_cell_volume   4544.15310691
_cell_formula_units_Z   50
loop_
 _symmetry_equiv_pos_site_id
 _symmetry_equiv_pos_as_xyz
  1  'x, y, z'
loop_
 _atom_site_type_symbol
 _atom_site_label
 _atom_site_symmetry_multiplicity
 _atom_site_fract_x
 _atom_site_fract_y
 _atom_site_fract_z
 _atom_site_occupancy
  Zr  Zr0  1  0.30728353  0.09778335  0.89369225  1
  Zr  Zr1  1  0.69595980  0.30084693  0.49174590  1
  Zr  Zr2  1  0.70095246  0.09480487  0.89937308  1
  Zr  Zr3  1  0.09668808  0.09644264  0.50126272  1
  Zr  Zr4  1  0.29424905  0.30214749  0.50901999  1
  Zr  Zr5  1  0.30155602  0.09450764  0.49977816  1
  Zr  Zr6  1  0.50064697  0.49966838  0.30710011  1
  Zr  Zr7  1  0.70160294  0.50269974  0.70858665  1
  Zr  Zr8  1  0.30129479  0.29898853  0.89977938  1
  Zr  Zr9  1  0.70458679  0.30461778  0.09265817  1
  Zr  Zr10  1  0.49866774  0.90337592  0.50187649  1
  Zr  Zr11  1  0.10229428  0.70824379  0.29893265  1
  Zr  Zr12  1  0.70279475  0.70105337  0.90333360  1
  Zr  Zr13  1  0.10043162  0.49733129  0.09756514  1
  Zr  Zr14  1  0.29785998  0.30133193  0.10159630  1
  Zr  Zr15  1  0.89878463  0.50141494  0.10293014  1
  Zr  Zr16  1  0.49336956  0.09939764  0.70464600  1
  Zr  Zr17  1  0.49442415  0.69571506  0.90174986  1
  Zr  Zr18  1  0.70371967  0.69823170  0.69507014  1
  Zr  Zr19  1  0.69088940  0.49716699  0.90706326  1
  Zr  Zr20  1  0.70391627  0.50206102  0.29759371  1
  Zr  Zr21  1  0.09407627  0.50057896  0.30215389  1
  Zr  Zr22  1  0.10092432  0.30080026  0.69370157  1
  Zr  Zr23  1  0.09824008  0.10408176  0.69751383  1
  Zr  Zr24  1  0.69969178  0.10017261  0.71071686  1
  Zr  Zr25  1  0.49158737  0.29588157  0.10383902  1
  Zr  Zr26  1  0.50051104  0.69976196  0.70607613  1
  Zr  Zr27  1  0.49073607  0.30201418  0.69892453  1
  Zr  Zr28  1  0.10126086  0.69591278  0.90064717  1
  Zr  Zr29  1  0.30026844  0.70610721  0.10373276  1
  Zr  Zr30  1  0.90071969  0.09887591  0.69980993  1
  Zr  Zr31  1  0.29930278  0.50654193  0.90561033  1
  Zr  Zr32  1  0.89921765  0.69478753  0.10328083  1
  Zr  Zr33  1  0.50042785  0.09262019  0.49932072  1
  Zr  Zr34  1  0.08672405  0.30047224  0.30057124  1
  Zr  Zr35  1  0.70048129  0.50760515  0.49664695  1
  Zr  Zr36  1  0.10232805  0.90820593  0.10458901  1
  Zr  Zr37  1  0.09281331  0.50067893  0.69832218  1
  Zr  Zr38  1  0.70418749  0.50459068  0.09951749  1
  Zr  Zr39  1  0.10687471  0.90193497  0.90353014  1
  Zr  Zr40  1  0.49854475  0.49704304  0.49732793  1
  Zr  Zr41  1  0.29323028  0.49670865  0.10277332  1
  Zr  Zr42  1  0.30175862  0.70145496  0.70503598  1
  Zr  Zr43  1  0.89989599  0.10474417  0.29386291  1
  Zr  Zr44  1  0.30281657  0.70400843  0.90173287  1
  Zr  Zr45  1  0.69606886  0.90602568  0.89771312  1
  Zr  Zr46  1  0.90325777  0.50113354  0.89897883  1
  Zr  Zr47  1  0.09519209  0.09827331  0.90670269  1
  Zr  Zr48  1  0.70586927  0.29973929  0.89989117  1
  Zr  Zr49  1  0.09339908  0.50150634  0.90262710  1
  Sc  Sc50  1  0.69402068  0.69639701  0.09968515  1
  Sc  Sc51  1  0.89893337  0.50283569  0.70186814  1
  Sc  Sc52  1  0.29494330  0.29197083  0.69903601  1
  Sc  Sc53  1  0.50620245  0.50304758  0.08656890  1
  Sc  Sc54  1  0.30585225  0.89521066  0.70535770  1
  Sc  Sc55  1  0.89189839  0.70189049  0.49929966  1
  Sc  Sc56  1  0.89040656  0.90322472  0.90131255  1
  Sc  Sc57  1  0.90215990  0.50554846  0.49281988  1
  Sc  Sc58  1  0.30216018  0.89677130  0.90171279  1
  Sc  Sc59  1  0.49575334  0.30093885  0.30194527  1
  Sc  Sc60  1  0.29404678  0.49083989  0.68858908  1
  Sc  Sc61  1  0.50033222  0.29996148  0.90433332  1
  Sc  Sc62  1  0.90216561  0.29863907  0.90221175  1
  Sc  Sc63  1  0.30125917  0.30790144  0.29159678  1
  Sc  Sc64  1  0.69476965  0.09233572  0.48996635  1
  Sc  Sc65  1  0.50318655  0.89419310  0.29436049  1
  Sc  Sc66  1  0.49589101  0.30602955  0.49434812  1
  Sc  Sc67  1  0.29917647  0.49592349  0.49654341  1
  Sc  Sc68  1  0.90077118  0.10304488  0.90205217  1
  Sc  Sc69  1  0.89819982  0.90054571  0.49951025  1
  Sc  Sc70  1  0.11371322  0.89532111  0.70149245  1
  Sc  Sc71  1  0.10252492  0.50028509  0.50282669  1
  Sc  Sc72  1  0.50578883  0.70540176  0.29779263  1
  Sc  Sc73  1  0.49720638  0.09637242  0.29632080  1
  Sc  Sc74  1  0.70564771  0.29985829  0.71410461  1
  Sc  Sc75  1  0.49777438  0.89945381  0.69681623  1
  Sc  Sc76  1  0.09184559  0.30346612  0.89430050  1
  Sc  Sc77  1  0.70731625  0.29677017  0.30458760  1
  Sc  Sc78  1  0.90523130  0.30225141  0.70958459  1
  Sc  Sc79  1  0.90325031  0.10150743  0.09609545  1
  Sc  Sc80  1  0.10157667  0.69600935  0.10719838  1
  Sc  Sc81  1  0.69870314  0.89748489  0.08436683  1
  Sc  Sc82  1  0.89907377  0.69058392  0.89850649  1
  Sc  Sc83  1  0.90304491  0.09212303  0.50111771  1
  Sc  Sc84  1  0.89292108  0.69307855  0.69922362  1
  Sc  Sc85  1  0.70212995  0.89797849  0.49331516  1
  Sc  Sc86  1  0.30626112  0.09595841  0.10461230  1
  Sc  Sc87  1  0.29348342  0.69055888  0.50407844  1
  Sc  Sc88  1  0.69468736  0.70064503  0.30041017  1
  Sc  Sc89  1  0.90820117  0.69713551  0.30029855  1
  Sc  Sc90  1  0.30807334  0.89924285  0.10063831  1
  Sc  Sc91  1  0.89952449  0.90817955  0.09721137  1
  Sc  Sc92  1  0.48963563  0.09160434  0.09766151  1
  Sc  Sc93  1  0.29697671  0.50065338  0.30529218  1
  Sc  Sc94  1  0.30072300  0.09002890  0.29364826  1
  Sc  Sc95  1  0.90111516  0.90041897  0.30555481  1
  Sc  Sc96  1  0.70633989  0.90274814  0.69877908  1
  Sc  Sc97  1  0.70588441  0.09630312  0.30429586  1
  Sc  Sc98  1  0.29747454  0.90283556  0.28999028  1
  Sc  Sc99  1  0.89501195  0.90249430  0.69124449  1
  Nb  Nb100  1  0.30104541  0.90364608  0.49729576  1
  Nb  Nb101  1  0.10371180  0.09197375  0.29585569  1
  Nb  Nb102  1  0.50030204  0.50723224  0.89024989  1
  Nb  Nb103  1  0.49900496  0.71297002  0.10298229  1
  Nb  Nb104  1  0.50284802  0.50446881  0.70670163  1
  Nb  Nb105  1  0.09645960  0.29697626  0.10062870  1
  Nb  Nb106  1  0.91092344  0.29633871  0.10699986  1
  Nb  Nb107  1  0.50361290  0.70261427  0.50461973  1
  Nb  Nb108  1  0.70129854  0.09987497  0.09993027  1
  Nb  Nb109  1  0.50558453  0.09070634  0.89898048  1
  Nb  Nb110  1  0.29869675  0.10329194  0.69659338  1
  Nb  Nb111  1  0.89891836  0.50118311  0.29680828  1
  Nb  Nb112  1  0.90109502  0.30015065  0.49038461  1
  Nb  Nb113  1  0.50271284  0.89346006  0.09741912  1
  Nb  Nb114  1  0.69754954  0.70200089  0.50783297  1
  Nb  Nb115  1  0.10567597  0.69736890  0.69660729  1
  Nb  Nb116  1  0.10330105  0.70263286  0.50804350  1
  Nb  Nb117  1  0.50610847  0.90431031  0.90951554  1
  Nb  Nb118  1  0.09325070  0.10288115  0.10153928  1
  Nb  Nb119  1  0.90242201  0.30591601  0.30404825  1
  Nb  Nb120  1  0.30102433  0.70598785  0.29951529  1
  Nb  Nb121  1  0.10196623  0.90235879  0.49836316  1
  Nb  Nb122  1  0.10525257  0.90610774  0.30365778  1
  Nb  Nb123  1  0.09377392  0.29722549  0.49675388  1
  Nb  Nb124  1  0.70031493  0.89964856  0.29606530  1
  Nb  Nb125  1  0.60026122  0.80111798  0.80414219  1
  Nb  Nb126  1  0.60588346  -0.00108418  0.19292977  1
  Nb  Nb127  1  0.79665944  0.80279722  0.20077469  1
  Nb  Nb128  1  0.00372454  -0.00614948  0.79838926  1
  Nb  Nb129  1  0.18949929  0.19722512  0.19925331  1
  Nb  Nb130  1  0.60435886  0.40001431  0.60476147  1
  Nb  Nb131  1  0.79761178  0.39468143  0.59522256  1
  Nb  Nb132  1  0.60382994  0.19726374  0.19319031  1
  Nb  Nb133  1  0.00302619  0.79974204  0.79753843  1
  Nb  Nb134  1  0.79655118  0.20594990  0.59593588  1
  Nb  Nb135  1  0.19482547  0.19864214  0.00694436  1
  Nb  Nb136  1  0.60300592  0.39672437  0.19759734  1
  Nb  Nb137  1  0.00870041  0.79717761  0.60100339  1
  Nb  Nb138  1  0.19605519  0.19729499  0.39544710  1
  Nb  Nb139  1  0.60325051  0.20346259  0.60171188  1
  Nb  Nb140  1  0.19817821  0.59991910  0.79718036  1
  Nb  Nb141  1  0.40849489  0.59971045  0.60117659  1
  Nb  Nb142  1  0.00240415  0.80070068  -0.00297751  1
  Nb  Nb143  1  0.20557587  -0.00002218  0.59751060  1
  Nb  Nb144  1  0.40111628  0.40743184  0.80164093  1
  Nb  Nb145  1  0.39982465  0.60694387  0.20019266  1
  Nb  Nb146  1  0.38990483  0.19769758  0.40111162  1
  Nb  Nb147  1  0.60086917  0.19219115  0.00270289  1
  Nb  Nb148  1  0.20017344  0.80513179  0.40332830  1
  Nb  Nb149  1  0.39376906  0.79780107  0.40504300  1
  Pd  Pd150  1  -0.00863977  0.39797938  0.59332558  1
  Pd  Pd151  1  0.81191643  0.40051153  -0.00107451  1
  Pd  Pd152  1  0.19748676  0.39312403  0.39858816  1
  Pd  Pd153  1  -0.00427405  -0.00338708  0.20430503  1
  Pd  Pd154  1  0.60002863  0.60758293  0.40101360  1
  Pd  Pd155  1  0.59205511  0.20344921  0.80435208  1
  Pd  Pd156  1  0.19501358  0.60587464  0.39981902  1
  Pd  Pd157  1  0.20405745  0.40476562  0.80000696  1
  Pd  Pd158  1  0.79782557  0.79566306  0.39415296  1
  Pd  Pd159  1  0.79906292  0.39247033  0.20256318  1
  Pd  Pd160  1  0.79111292  0.00759039  0.59300208  1
  Pd  Pd161  1  0.40589591  0.19829175  0.59192106  1
  Pd  Pd162  1  0.40092754  0.19281364  -0.00379881  1
  Pd  Pd163  1  0.58895615  0.19682715  0.39460892  1
  Pd  Pd164  1  -0.00580588  0.80821287  0.19431176  1
  Pd  Pd165  1  0.19531350  0.79909524  0.00910286  1
  Pd  Pd166  1  0.59606716  0.80259715  0.40277149  1
  Pd  Pd167  1  0.20961752  0.00787723  0.00710321  1
  Pd  Pd168  1  0.80413519  0.40577566  0.40148441  1
  Pd  Pd169  1  0.20434973  0.80628797  0.59558239  1
  Pd  Pd170  1  0.60685271  0.00349581  0.60459248  1
  Pd  Pd171  1  0.40285733  -0.00547980  0.38818991  1
  Pd  Pd172  1  0.59394783  0.39351248  0.79961805  1
  Pd  Pd173  1  0.20459088  0.59855485  0.20594321  1
  Pd  Pd174  1  -0.00745838  0.60715593  0.59611257  1
  Pd  Pd175  1  0.40197695  -0.00673496  0.79973661  1
  Pd  Pd176  1  0.80336718  0.80196908  0.79556017  1
  Pd  Pd177  1  0.80270540  0.19677223  0.00204424  1
  Pd  Pd178  1  0.19263434  0.39148192  -0.00410760  1
  Pd  Pd179  1  0.39474695  0.79384738  0.59260983  1
  Pd  Pd180  1  -0.00039493  0.19097659  0.39778855  1
  Pd  Pd181  1  0.79577187  -0.00693221  0.19583470  1
  Pd  Pd182  1  0.40043747  0.61042767  0.40095010  1
  Pd  Pd183  1  -0.01060812  0.20760258  0.59796395  1
  Pd  Pd184  1  0.19585505  0.19886866  0.80820248  1
  Pd  Pd185  1  0.80572417  0.19163888  0.40599529  1
  Pd  Pd186  1  0.00517539  0.60459895  0.40501869  1
  Pd  Pd187  1  0.59016528  0.59521944  0.19704889  1
  Pd  Pd188  1  0.80019540  0.20552277  0.19922574  1
  Pd  Pd189  1  0.00485427  0.79916760  0.40854256  1
  Pd  Pd190  1  0.40562315  0.40605430  -0.00563224  1
  Pd  Pd191  1  -0.00434647  0.00070222  0.39543989  1
  Pd  Pd192  1  0.60577724  0.80740405  0.60597620  1
  Pd  Pd193  1  0.40848893  0.41504991  0.19864088  1
  Pd  Pd194  1  -0.00069005  0.40472719  0.19835607  1
  Pd  Pd195  1  0.40111336  0.60281845  0.01224836  1
  Pd  Pd196  1  0.79899203  0.61070720  0.39455341  1
  Pd  Pd197  1  0.59670066  0.59474153  0.59966550  1
  Pd  Pd198  1  0.80919222  0.79794114  0.00625138  1
  Pd  Pd199  1  0.20007868  0.00413272  0.79258648  1
  Rh  Rh200  1  0.19881742  -0.00131154  0.40297894  1
  Rh  Rh201  1  0.61174344  0.80866045  0.19191794  1
  Rh  Rh202  1  0.59609884  0.60665150  -0.00006496  1
  Rh  Rh203  1  0.80213082  0.61099723  0.20841677  1
  Rh  Rh204  1  0.01325497  -0.01593579  0.61095613  1
  Rh  Rh205  1  0.40421688  0.80474829  -0.00232145  1
  Rh  Rh206  1  0.40162920  0.79807756  0.20674559  1
  Rh  Rh207  1  -0.00404127  -0.00742701  -0.00800317  1
  Rh  Rh208  1  -0.00133999  0.40169401  0.79910843  1
  Rh  Rh209  1  0.39881669  -0.00594191  -0.00301705  1
  Rh  Rh210  1  0.40181152  0.20280017  0.80424358  1
  Rh  Rh211  1  -0.00394592  0.40667140  0.40382581  1
  Rh  Rh212  1  0.59351189  -0.01076665  0.79417421  1
  Rh  Rh213  1  0.00158550  0.20694131  0.00039488  1
  Rh  Rh214  1  0.19977815  0.60350920  -0.00129749  1
  Rh  Rh215  1  0.00547263  0.60690833  0.79305454  1
  Rh  Rh216  1  0.60845733  0.60990394  0.80514273  1
  Rh  Rh217  1  0.00073962  0.19400564  0.80110849  1
  Rh  Rh218  1  0.41117201  -0.01039775  0.19808000  1
  Rh  Rh219  1  -0.00358119  0.39590492  0.00459172  1
  Rh  Rh220  1  0.80051283  0.59370195  0.59598360  1
  Rh  Rh221  1  0.80812971  0.19862237  0.79744617  1
  Rh  Rh222  1  0.39196009  -0.00065322  0.60963225  1
  Rh  Rh223  1  0.41310030  0.81064574  0.81050316  1
  Rh  Rh224  1  0.19633211  0.19497730  0.59192181  1
  Rh  Rh225  1  0.59434382  0.39293057  0.00271556  1
  Rh  Rh226  1  0.80146600  0.00618630  0.00058532  1
  Rh  Rh227  1  0.19825737  0.79151569  0.80249805  1
  Rh  Rh228  1  0.20042640  0.00387255  0.19243042  1
  Rh  Rh229  1  0.18971100  0.39763178  0.59475505  1
  Rh  Rh230  1  0.80285642  -0.00055182  0.39826552  1
  Rh  Rh231  1  0.59539129  0.79359702  -0.00610913  1
  Rh  Rh232  1  0.79616533  0.59475734  0.80732073  1
  Rh  Rh233  1  0.80379022  0.79985855  0.59615579  1
  Rh  Rh234  1  0.38953009  0.39112882  0.40057635  1
  Rh  Rh235  1  0.59711228  0.00727116  0.00837198  1
  Rh  Rh236  1  0.80981441  0.00238391  0.80151973  1
  Rh  Rh237  1  0.59820715  -0.00687272  0.38821205  1
  Rh  Rh238  1  0.39703489  0.19649221  0.21071653  1
  Rh  Rh239  1  0.38552599  0.58767919  0.78865264  1
  Rh  Rh240  1  0.79873795  0.59782212  -0.00253956  1
  Rh  Rh241  1  0.20629068  0.59583762  0.60466746  1
  Rh  Rh242  1  0.19750874  0.80751978  0.20327965  1
  Rh  Rh243  1  0.80696495  0.40413530  0.80101506  1
  Rh  Rh244  1  -0.00090466  0.19729571  0.20330813  1
  Rh  Rh245  1  0.00087439  0.60528747  0.00895916  1
  Rh  Rh246  1  0.19044619  0.39668332  0.20584672  1
  Rh  Rh247  1  0.00178670  0.59456571  0.20206705  1
  Rh  Rh248  1  0.40911960  0.41086521  0.60654925  1
  Rh  Rh249  1  0.60369379  0.40198568  0.39242953  1
