# generated using pymatgen
data_ZrScNbPdRh
_symmetry_space_group_name_H-M   'P 1'
_cell_length_a   16.56328392
_cell_length_b   16.56458729
_cell_length_c   16.56772554
_cell_angle_alpha   90.01525194
_cell_angle_beta   89.98429501
_cell_angle_gamma   90.02542177
_symmetry_Int_Tables_number   1
_chemical_formula_structural   ZrScNbPdRh
_chemical_formula_sum   'Zr50 Sc50 Nb50 Pd50 Rh50'
_cell_volume   4545.58604384
_cell_formula_units_Z   50
loop_
 _symmetry_equiv_pos_site_id
 _symmetry_equiv_pos_as_xyz
  1  'x, y, z'
loop_
 _atom_site_type_symbol
 _atom_site_label
 _atom_site_symmetry_multiplicity
 _atom_site_fract_x
 _atom_site_fract_y
 _atom_site_fract_z
 _atom_site_occupancy
  Zr  Zr0  1  0.29418425  0.90345222  0.08986535  1
  Zr  Zr1  1  0.09579411  0.90814496  0.29579775  1
  Zr  Zr2  1  0.50133044  0.89440467  0.09696494  1
  Zr  Zr3  1  0.89875525  0.10900108  0.69516175  1
  Zr  Zr4  1  0.10576132  0.89720745  0.70217998  1
  Zr  Zr5  1  0.11076655  0.90100863  0.89894925  1
  Zr  Zr6  1  0.89621472  0.70456527  0.09094626  1
  Zr  Zr7  1  0.89850902  0.69495195  0.69384068  1
  Zr  Zr8  1  0.69710809  0.90197417  0.50843114  1
  Zr  Zr9  1  0.50477556  0.89727337  0.49194385  1
  Zr  Zr10  1  0.69529710  0.49496360  0.89597846  1
  Zr  Zr11  1  0.30743922  0.10296788  0.70994064  1
  Zr  Zr12  1  0.10242162  0.70365752  0.09811071  1
  Zr  Zr13  1  0.50380095  0.49969271  0.49781298  1
  Zr  Zr14  1  0.30208794  0.30336229  0.08804880  1
  Zr  Zr15  1  0.48972325  0.49944490  0.30279171  1
  Zr  Zr16  1  0.89348142  0.89127877  0.90577954  1
  Zr  Zr17  1  0.89669913  0.29967644  0.89121692  1
  Zr  Zr18  1  0.69381746  0.50425394  0.50092265  1
  Zr  Zr19  1  0.50480119  0.29946615  0.49962712  1
  Zr  Zr20  1  0.09744669  0.69375651  0.29128857  1
  Zr  Zr21  1  0.09085772  0.30705749  0.30368059  1
  Zr  Zr22  1  0.89965899  0.09968651  0.30431809  1
  Zr  Zr23  1  0.30527451  0.10431912  0.50026749  1
  Zr  Zr24  1  0.10353748  0.70141763  0.51305512  1
  Zr  Zr25  1  0.49702534  0.49808052  0.09671547  1
  Zr  Zr26  1  0.69048732  0.49956845  0.09965923  1
  Zr  Zr27  1  0.51275208  0.90267941  0.71099106  1
  Zr  Zr28  1  0.89437690  0.90341119  0.10287189  1
  Zr  Zr29  1  0.50794641  0.50124576  0.70262726  1
  Zr  Zr30  1  0.90671577  0.49500339  0.29999454  1
  Zr  Zr31  1  0.10125057  0.10176547  0.30267027  1
  Zr  Zr32  1  0.31291159  0.90975473  0.89867724  1
  Zr  Zr33  1  0.30763557  0.50778516  0.50549401  1
  Zr  Zr34  1  0.10139823  0.89834541  0.09434018  1
  Zr  Zr35  1  0.68937515  0.89561073  0.30312767  1
  Zr  Zr36  1  0.90096278  0.11004487  0.89782085  1
  Zr  Zr37  1  0.10358279  0.69907747  0.70535040  1
  Zr  Zr38  1  0.30763132  0.69039207  0.69591230  1
  Zr  Zr39  1  0.29882400  0.10272198  0.90359034  1
  Zr  Zr40  1  0.69683824  0.89801301  0.09072273  1
  Zr  Zr41  1  0.89182432  0.49782458  0.89227894  1
  Zr  Zr42  1  0.09539907  0.49686233  0.50852981  1
  Zr  Zr43  1  0.09644203  0.70596045  0.90183869  1
  Zr  Zr44  1  0.30102100  0.29600125  0.70255286  1
  Zr  Zr45  1  0.69258461  0.70329358  0.10099783  1
  Zr  Zr46  1  0.50077161  0.50334617  0.90130653  1
  Zr  Zr47  1  0.70307039  0.70426228  0.89431415  1
  Zr  Zr48  1  0.49800749  0.10087203  0.30218791  1
  Zr  Zr49  1  0.90215002  0.69166525  0.89526618  1
  Sc  Sc50  1  0.09626641  0.50574083  0.89366561  1
  Sc  Sc51  1  0.49812397  0.30318320  0.10033744  1
  Sc  Sc52  1  0.30952676  0.49756063  0.10501239  1
  Sc  Sc53  1  0.69231324  0.50317141  0.30142292  1
  Sc  Sc54  1  0.30111832  0.10381855  0.30141476  1
  Sc  Sc55  1  0.69097227  0.10188888  0.90789097  1
  Sc  Sc56  1  0.09809399  0.30718627  0.08936298  1
  Sc  Sc57  1  0.69458713  0.30113167  0.70156016  1
  Sc  Sc58  1  0.50107609  0.69416301  0.50357153  1
  Sc  Sc59  1  0.89901043  0.50104102  0.09210720  1
  Sc  Sc60  1  0.31151798  0.70198400  0.50324197  1
  Sc  Sc61  1  0.09777045  0.09275070  0.09930766  1
  Sc  Sc62  1  0.49926608  0.69383574  0.09488634  1
  Sc  Sc63  1  0.90523272  0.90168416  0.69730541  1
  Sc  Sc64  1  0.09635961  0.09965545  0.70698856  1
  Sc  Sc65  1  0.10961046  0.50332929  0.69653900  1
  Sc  Sc66  1  0.09580406  0.49695466  0.10011966  1
  Sc  Sc67  1  0.09948126  0.10167230  0.89501530  1
  Sc  Sc68  1  0.31074862  0.30648809  0.29955195  1
  Sc  Sc69  1  0.49759654  0.70167483  0.30709445  1
  Sc  Sc70  1  0.49783869  0.10755472  0.09917975  1
  Sc  Sc71  1  0.10258475  0.10713348  0.49910632  1
  Sc  Sc72  1  0.70243221  0.09585946  0.31190943  1
  Sc  Sc73  1  0.89478498  0.09956398  0.09570618  1
  Sc  Sc74  1  0.09525034  0.29986685  0.90181111  1
  Sc  Sc75  1  0.90272625  0.29629983  0.07865264  1
  Sc  Sc76  1  0.09948201  0.29785327  0.49893839  1
  Sc  Sc77  1  0.91277674  0.29106631  0.50132631  1
  Sc  Sc78  1  0.30272821  0.29633785  0.49858607  1
  Sc  Sc79  1  0.30610192  0.89116794  0.70584639  1
  Sc  Sc80  1  0.30450537  0.50029473  0.90233212  1
  Sc  Sc81  1  0.69456861  0.49807511  0.70264993  1
  Sc  Sc82  1  0.30471718  0.88984579  0.50286759  1
  Sc  Sc83  1  0.68710023  0.29508465  0.09229325  1
  Sc  Sc84  1  0.90058876  0.89654390  0.51433956  1
  Sc  Sc85  1  0.69055041  0.29727317  0.31065557  1
  Sc  Sc86  1  0.69718976  0.10149701  0.09722188  1
  Sc  Sc87  1  0.69901736  0.10767487  0.68636909  1
  Sc  Sc88  1  0.69448018  0.69429043  0.29759236  1
  Sc  Sc89  1  0.50810606  0.29766729  0.90429746  1
  Sc  Sc90  1  0.09817706  0.30151567  0.69156335  1
  Sc  Sc91  1  0.29836275  0.90639821  0.30030800  1
  Sc  Sc92  1  0.89036115  0.90444396  0.29755175  1
  Sc  Sc93  1  0.10149801  0.89761939  0.50931896  1
  Sc  Sc94  1  0.50142832  0.69486566  0.90143031  1
  Sc  Sc95  1  0.31068966  0.70106862  0.89726619  1
  Sc  Sc96  1  0.89356632  0.69138489  0.29186125  1
  Sc  Sc97  1  0.70092871  0.29953588  0.89902141  1
  Sc  Sc98  1  0.49821760  0.30240535  0.30424647  1
  Sc  Sc99  1  0.09344557  0.49774348  0.28908873  1
  Nb  Nb100  1  0.29928612  0.30270827  0.90099351  1
  Nb  Nb101  1  0.90431595  0.49603311  0.69450291  1
  Nb  Nb102  1  0.30519693  0.50408759  0.30354345  1
  Nb  Nb103  1  0.69357482  0.70987282  0.69601046  1
  Nb  Nb104  1  0.89964694  0.50361796  0.50552296  1
  Nb  Nb105  1  0.70080197  0.89082461  0.70762019  1
  Nb  Nb106  1  0.70238400  0.10391554  0.50024810  1
  Nb  Nb107  1  0.49701098  0.11326494  0.69446947  1
  Nb  Nb108  1  0.30533185  0.49512700  0.70258777  1
  Nb  Nb109  1  0.49829282  0.08640740  0.89136947  1
  Nb  Nb110  1  0.89549304  0.29790184  0.69734388  1
  Nb  Nb111  1  0.89731639  0.69508109  0.50364177  1
  Nb  Nb112  1  0.50695110  0.69383501  0.70620743  1
  Nb  Nb113  1  0.29752583  0.10614266  0.09919140  1
  Nb  Nb114  1  0.70775253  0.69799764  0.50697124  1
  Nb  Nb115  1  0.90312322  0.30035857  0.30467011  1
  Nb  Nb116  1  0.69964376  0.30567816  0.50234686  1
  Nb  Nb117  1  0.68900964  0.90220900  0.89366472  1
  Nb  Nb118  1  0.49764433  0.89707716  0.30056689  1
  Nb  Nb119  1  0.89263686  0.09845548  0.50346471  1
  Nb  Nb120  1  0.50754264  0.09755530  0.50648106  1
  Nb  Nb121  1  0.29804956  0.70095054  0.10357991  1
  Nb  Nb122  1  0.29929402  0.69529884  0.29486364  1
  Nb  Nb123  1  0.50046883  0.29633652  0.69864964  1
  Nb  Nb124  1  0.51244762  0.90903120  0.90297500  1
  Nb  Nb125  1  0.21086125  0.00234807  0.60529106  1
  Nb  Nb126  1  0.79175217  -0.00410148  0.79936067  1
  Nb  Nb127  1  -0.00239807  -0.00516680  -0.00428650  1
  Nb  Nb128  1  -0.00315929  0.79675353  0.39866051  1
  Nb  Nb129  1  0.40452016  0.39785553  0.60856655  1
  Nb  Nb130  1  -0.00421012  -0.00147701  0.40561548  1
  Nb  Nb131  1  -0.00804924  0.40065684  0.79105378  1
  Nb  Nb132  1  -0.00100642  0.60336169  0.40915267  1
  Nb  Nb133  1  0.80532284  0.39965583  0.40380199  1
  Nb  Nb134  1  0.40008467  0.39405346  0.79728888  1
  Nb  Nb135  1  0.80027807  0.38981875  0.20418969  1
  Nb  Nb136  1  0.59449609  -0.00578299  0.20337214  1
  Nb  Nb137  1  0.80493026  0.39964298  0.59513005  1
  Nb  Nb138  1  0.20383484  0.60672822  0.00504067  1
  Nb  Nb139  1  0.20381579  0.41174274  0.39713465  1
  Nb  Nb140  1  0.19811498  0.20519343  0.19550704  1
  Nb  Nb141  1  0.19597095  0.79185784  0.39455477  1
  Nb  Nb142  1  0.40765463  0.00370177  0.60140435  1
  Nb  Nb143  1  0.19903808  0.59954260  0.39671992  1
  Nb  Nb144  1  0.40769677  -0.00021087  0.40615813  1
  Nb  Nb145  1  0.80128956  0.79215108  0.40938297  1
  Nb  Nb146  1  0.80466210  0.20969815  0.20525200  1
  Nb  Nb147  1  -0.00154881  0.80207892  0.20000547  1
  Nb  Nb148  1  0.39390675  0.79869773  0.19909634  1
  Nb  Nb149  1  -0.00183027  0.20297578  0.20162377  1
  Pd  Pd150  1  0.19179758  0.19734435  0.00409952  1
  Pd  Pd151  1  0.40184228  0.79625196  0.00193667  1
  Pd  Pd152  1  0.60924502  0.01684284  0.78868324  1
  Pd  Pd153  1  -0.01225808  0.39046178  0.18397810  1
  Pd  Pd154  1  -0.00544110  0.80195894  0.79553844  1
  Pd  Pd155  1  0.79893898  0.79823725  0.20800842  1
  Pd  Pd156  1  0.20433332  0.21517163  0.38967522  1
  Pd  Pd157  1  0.20139866  0.80679539  0.20578434  1
  Pd  Pd158  1  0.41232467  0.79913007  0.80221107  1
  Pd  Pd159  1  0.79089640  0.59276832  0.61047707  1
  Pd  Pd160  1  0.20560044  0.39674304  0.20379271  1
  Pd  Pd161  1  0.40081430  -0.00320289  0.20102790  1
  Pd  Pd162  1  0.80272626  0.59755667  0.39686884  1
  Pd  Pd163  1  0.19713309  0.39786460  0.80503841  1
  Pd  Pd164  1  0.79978451  0.58936738  0.19569487  1
  Pd  Pd165  1  0.00479522  0.59516968  0.00142576  1
  Pd  Pd166  1  0.01025283  0.00848804  0.59522276  1
  Pd  Pd167  1  0.20668415  0.00886057  0.19683675  1
  Pd  Pd168  1  0.78739796  0.19308441  0.79945476  1
  Pd  Pd169  1  0.40564211  0.00902861  0.00647802  1
  Pd  Pd170  1  -0.01121706  -0.00304458  0.80624152  1
  Pd  Pd171  1  0.60072079  0.00148460  0.60734418  1
  Pd  Pd172  1  0.79129793  0.59927334  0.00086292  1
  Pd  Pd173  1  0.79232739  0.39595199  0.00694981  1
  Pd  Pd174  1  0.79263500  0.59821757  0.78892903  1
  Pd  Pd175  1  0.59267728  0.79522925  0.59797431  1
  Pd  Pd176  1  0.60824065  0.78724030  0.40504482  1
  Pd  Pd177  1  0.60191514  0.39560949  0.20690743  1
  Pd  Pd178  1  0.58741096  0.60305661  0.20384529  1
  Pd  Pd179  1  0.60776330  0.19342979  0.20477443  1
  Pd  Pd180  1  0.20910928  0.39794711  0.59221171  1
  Pd  Pd181  1  0.19769463  0.41355108  -0.00644427  1
  Pd  Pd182  1  0.19734942  0.19365212  0.60606089  1
  Pd  Pd183  1  0.78674095  0.00885115  0.19969786  1
  Pd  Pd184  1  0.20212775  -0.01000852  0.41392079  1
  Pd  Pd185  1  0.80096328  0.20809764  0.40407267  1
  Pd  Pd186  1  0.20772815  0.59995152  0.80906831  1
  Pd  Pd187  1  0.79481721  -0.00339132  0.60946237  1
  Pd  Pd188  1  0.59871328  0.19556790  0.40448137  1
  Pd  Pd189  1  0.21163292  0.79627904  0.80415755  1
  Pd  Pd190  1  0.60240814  0.19575674  0.80145171  1
  Pd  Pd191  1  0.20276376  0.58681929  0.19498962  1
  Pd  Pd192  1  0.40655977  0.20661993  0.81456829  1
  Pd  Pd193  1  0.39333899  0.20600610  0.19832798  1
  Pd  Pd194  1  0.19195347  0.20635646  0.79991586  1
  Pd  Pd195  1  0.40749919  0.19820850  -0.00734757  1
  Pd  Pd196  1  0.79997251  0.00469789  -0.01025133  1
  Pd  Pd197  1  0.80425302  -0.01168880  0.41016375  1
  Pd  Pd198  1  0.80726263  0.80150981  0.79492290  1
  Pd  Pd199  1  0.41345103  0.80496862  0.60927318  1
  Rh  Rh200  1  0.20634584  0.00036662  0.79480971  1
  Rh  Rh201  1  0.59907108  0.60372930  0.40241749  1
  Rh  Rh202  1  0.60286366  0.60684912  0.60280964  1
  Rh  Rh203  1  -0.00508628  0.39409576  0.60329049  1
  Rh  Rh204  1  0.40393233  0.60626227  0.19986660  1
  Rh  Rh205  1  0.40637366  -0.00048114  0.79297477  1
  Rh  Rh206  1  0.80210020  0.39930989  0.78739712  1
  Rh  Rh207  1  0.39206350  0.60060137  0.00457329  1
  Rh  Rh208  1  -0.00133133  0.40837583  -0.01625574  1
  Rh  Rh209  1  0.79921109  0.80120972  0.60121931  1
  Rh  Rh210  1  0.78983080  0.79811028  -0.00323171  1
  Rh  Rh211  1  0.59340890  0.00498966  0.00924079  1
  Rh  Rh212  1  0.59941510  0.79547247  -0.00852989  1
  Rh  Rh213  1  0.21319600  0.79344096  -0.01091427  1
  Rh  Rh214  1  0.00465286  0.18662671  0.00481151  1
  Rh  Rh215  1  0.40250809  0.39829505  0.19897800  1
  Rh  Rh216  1  0.41022544  0.59470478  0.60748990  1
  Rh  Rh217  1  0.20658975  0.60145845  0.60021839  1
  Rh  Rh218  1  0.38776200  0.80309982  0.38786225  1
  Rh  Rh219  1  0.79683000  0.20909442  0.58981982  1
  Rh  Rh220  1  0.00446619  0.60299251  0.60389104  1
  Rh  Rh221  1  -0.00759440  0.00165939  0.19740504  1
  Rh  Rh222  1  0.39712699  0.60706390  0.39824647  1
  Rh  Rh223  1  0.60497841  0.20600259  0.59497447  1
  Rh  Rh224  1  -0.00028155  0.59294499  0.79130846  1
  Rh  Rh225  1  0.00139110  0.40889868  0.40955952  1
  Rh  Rh226  1  0.39557815  0.39994348  0.41115695  1
  Rh  Rh227  1  0.59318784  0.79257422  0.80699227  1
  Rh  Rh228  1  0.60267097  0.40505549  0.39554728  1
  Rh  Rh229  1  0.59156378  0.19471066  -0.00441840  1
  Rh  Rh230  1  0.59632753  0.00529562  0.39645264  1
  Rh  Rh231  1  0.40640342  0.19515052  0.40261452  1
  Rh  Rh232  1  -0.00204082  0.18761203  0.40141940  1
  Rh  Rh233  1  0.40393155  0.20316096  0.59320544  1
  Rh  Rh234  1  0.19543721  0.00917874  -0.00478344  1
  Rh  Rh235  1  0.40064572  0.59276680  0.79714756  1
  Rh  Rh236  1  0.20514836  0.80357570  0.60004931  1
  Rh  Rh237  1  0.60544692  0.60110274  -0.00386320  1
  Rh  Rh238  1  0.00356637  0.21245103  0.79373985  1
  Rh  Rh239  1  0.59310160  0.39527282  0.80221844  1
  Rh  Rh240  1  0.79252250  0.20276011  0.00485646  1
  Rh  Rh241  1  0.59948337  0.40110758  -0.00194524  1
  Rh  Rh242  1  -0.00166150  0.79342701  0.60410428  1
  Rh  Rh243  1  -0.00914812  0.60562128  0.19128855  1
  Rh  Rh244  1  0.40197819  0.39839229  -0.00908816  1
  Rh  Rh245  1  0.00162725  0.19539015  0.60005556  1
  Rh  Rh246  1  0.59046864  0.80023860  0.20029328  1
  Rh  Rh247  1  0.60657343  0.60562620  0.80067758  1
  Rh  Rh248  1  0.60019170  0.39439729  0.60281167  1
  Rh  Rh249  1  -0.00305249  0.80692890  0.00436825  1
