# generated using pymatgen
data_ZrScNbPdRh
_symmetry_space_group_name_H-M   'P 1'
_cell_length_a   16.55517596
_cell_length_b   16.56131331
_cell_length_c   16.55183391
_cell_angle_alpha   89.99338897
_cell_angle_beta   89.99102528
_cell_angle_gamma   90.03586758
_symmetry_Int_Tables_number   1
_chemical_formula_structural   ZrScNbPdRh
_chemical_formula_sum   'Zr50 Sc50 Nb50 Pd50 Rh50'
_cell_volume   4538.10563429
_cell_formula_units_Z   50
loop_
 _symmetry_equiv_pos_site_id
 _symmetry_equiv_pos_as_xyz
  1  'x, y, z'
loop_
 _atom_site_type_symbol
 _atom_site_label
 _atom_site_symmetry_multiplicity
 _atom_site_fract_x
 _atom_site_fract_y
 _atom_site_fract_z
 _atom_site_occupancy
  Zr  Zr0  1  0.49610340  0.89757481  0.50283336  1
  Zr  Zr1  1  0.08791425  0.50121385  0.10197943  1
  Zr  Zr2  1  0.89499568  0.10895881  0.09776038  1
  Zr  Zr3  1  0.90501765  0.50096904  0.29085493  1
  Zr  Zr4  1  0.70428002  0.50145242  0.30308096  1
  Zr  Zr5  1  0.29048342  0.90570543  0.30576553  1
  Zr  Zr6  1  0.10550369  0.29443951  0.69909009  1
  Zr  Zr7  1  0.09701552  0.30072188  0.30184736  1
  Zr  Zr8  1  0.90067228  0.10467920  0.50470002  1
  Zr  Zr9  1  0.30282279  0.29884615  0.51039514  1
  Zr  Zr10  1  0.89903421  0.70203328  0.50486876  1
  Zr  Zr11  1  0.69684915  0.29897418  0.30592115  1
  Zr  Zr12  1  0.50753395  0.09419222  0.70262964  1
  Zr  Zr13  1  0.29114093  0.90044852  0.90086078  1
  Zr  Zr14  1  0.90057094  0.28506862  0.90244496  1
  Zr  Zr15  1  0.28840810  0.90893082  0.09857845  1
  Zr  Zr16  1  0.49670357  0.10067546  0.09578978  1
  Zr  Zr17  1  0.70084704  0.10549517  0.29022340  1
  Zr  Zr18  1  0.89953093  0.89639906  0.50225979  1
  Zr  Zr19  1  0.49729362  0.69833380  0.70043851  1
  Zr  Zr20  1  0.09918225  0.90099791  0.71033690  1
  Zr  Zr21  1  0.50161149  0.89884835  0.69899043  1
  Zr  Zr22  1  0.70323829  0.49931149  0.09865060  1
  Zr  Zr23  1  0.30247258  0.70486206  0.90029354  1
  Zr  Zr24  1  0.69404284  0.69881293  0.08884539  1
  Zr  Zr25  1  0.09946358  0.50060462  0.90047166  1
  Zr  Zr26  1  0.50007664  0.90172940  0.30295380  1
  Zr  Zr27  1  0.70660161  0.29105079  0.10173868  1
  Zr  Zr28  1  0.29658956  0.49570490  0.30191470  1
  Zr  Zr29  1  0.49336325  0.70264555  0.29713573  1
  Zr  Zr30  1  0.29870024  0.29395702  0.09173862  1
  Zr  Zr31  1  0.70281701  0.90362493  0.09301613  1
  Zr  Zr32  1  0.09555297  0.70892577  0.89766541  1
  Zr  Zr33  1  0.50133699  0.30501468  0.30956226  1
  Zr  Zr34  1  0.69920266  0.89740209  0.50081008  1
  Zr  Zr35  1  0.29499939  0.50068374  0.49924588  1
  Zr  Zr36  1  0.90242578  0.70139948  0.30537401  1
  Zr  Zr37  1  0.30154156  0.29814862  0.28936641  1
  Zr  Zr38  1  0.10436825  0.89753657  0.48750278  1
  Zr  Zr39  1  0.70470669  0.70485971  0.89579200  1
  Zr  Zr40  1  0.09861863  0.09703834  0.69903109  1
  Zr  Zr41  1  0.31243871  0.69697059  0.69707467  1
  Zr  Zr42  1  0.49891660  0.70353413  0.50214873  1
  Zr  Zr43  1  0.10429314  0.70984955  0.30221062  1
  Zr  Zr44  1  0.11050383  0.30314070  0.90026372  1
  Zr  Zr45  1  0.09767931  0.29390988  0.09911467  1
  Zr  Zr46  1  0.89770236  0.09447577  0.90160410  1
  Zr  Zr47  1  0.70302181  0.50207186  0.50147751  1
  Zr  Zr48  1  0.69923581  0.29933784  0.50252916  1
  Zr  Zr49  1  0.89538272  0.10450119  0.70380587  1
  Sc  Sc50  1  0.69949378  0.90420918  0.29500117  1
  Sc  Sc51  1  0.29877806  0.30109072  0.70498199  1
  Sc  Sc52  1  0.49667506  0.90975458  0.09886233  1
  Sc  Sc53  1  0.10550223  0.10829896  0.29990307  1
  Sc  Sc54  1  0.49833079  0.09799763  0.28710867  1
  Sc  Sc55  1  0.89658974  0.70490704  0.70441831  1
  Sc  Sc56  1  0.29806259  0.48247716  0.89853691  1
  Sc  Sc57  1  0.70231944  0.29776609  0.69859626  1
  Sc  Sc58  1  0.70139256  0.69782914  0.30936044  1
  Sc  Sc59  1  0.30287259  0.10025374  0.70067530  1
  Sc  Sc60  1  0.30429321  0.48834757  0.10449188  1
  Sc  Sc61  1  0.09794922  0.09609510  0.89483544  1
  Sc  Sc62  1  0.30962456  0.49467279  0.70029561  1
  Sc  Sc63  1  0.70080669  0.11073312  0.50815054  1
  Sc  Sc64  1  0.89325024  0.51617145  0.69819375  1
  Sc  Sc65  1  0.49370018  0.29570591  0.08776284  1
  Sc  Sc66  1  0.10655872  0.10005242  0.10056214  1
  Sc  Sc67  1  0.29976392  0.09676912  0.49875846  1
  Sc  Sc68  1  0.49535512  0.29614957  0.70572747  1
  Sc  Sc69  1  0.08537736  0.70453788  0.70183356  1
  Sc  Sc70  1  0.69161694  0.29811635  0.89832809  1
  Sc  Sc71  1  0.30038787  0.70485028  0.49711294  1
  Sc  Sc72  1  0.70125703  0.90074726  0.70468799  1
  Sc  Sc73  1  0.90759888  0.29143230  0.29832680  1
  Sc  Sc74  1  0.70195435  0.10445616  0.89693149  1
  Sc  Sc75  1  0.89545131  0.50456340  0.50482467  1
  Sc  Sc76  1  0.10249999  0.70937398  0.10328018  1
  Sc  Sc77  1  0.50304714  0.10449688  0.89980191  1
  Sc  Sc78  1  0.49081292  0.49490850  0.29936043  1
  Sc  Sc79  1  0.09847144  0.50070900  0.70170904  1
  Sc  Sc80  1  0.50311038  0.48804489  0.89694624  1
  Sc  Sc81  1  0.49248700  0.70265317  0.09826121  1
  Sc  Sc82  1  0.49489746  0.49751502  0.49519139  1
  Sc  Sc83  1  0.49987789  0.09862296  0.51257648  1
  Sc  Sc84  1  0.31099099  0.90119621  0.70950785  1
  Sc  Sc85  1  0.09812742  0.29850154  0.49548990  1
  Sc  Sc86  1  0.89636746  0.90653042  0.69694352  1
  Sc  Sc87  1  0.09603240  0.70527291  0.49898363  1
  Sc  Sc88  1  0.50637588  0.69852619  0.89787321  1
  Sc  Sc89  1  0.69923537  0.69655983  0.49775197  1
  Sc  Sc90  1  0.91088524  0.68942504  0.10828123  1
  Sc  Sc91  1  0.70128800  0.69880190  0.70701497  1
  Sc  Sc92  1  0.10297914  0.10651416  0.49773461  1
  Sc  Sc93  1  0.69045999  0.50066116  0.89849840  1
  Sc  Sc94  1  0.69451293  0.09906047  0.09754666  1
  Sc  Sc95  1  0.70495302  0.89319810  0.90270349  1
  Sc  Sc96  1  0.30340875  0.70973446  0.10528473  1
  Sc  Sc97  1  0.70010508  0.50150447  0.70037449  1
  Sc  Sc98  1  0.30452471  0.29861276  0.89990073  1
  Sc  Sc99  1  0.30251981  0.10052426  0.10483248  1
  Nb  Nb100  1  0.89775998  0.30375743  0.69663526  1
  Nb  Nb101  1  0.10187037  0.49871035  0.49201492  1
  Nb  Nb102  1  0.50491302  0.30038032  0.49744321  1
  Nb  Nb103  1  0.29636656  0.09313547  0.90364642  1
  Nb  Nb104  1  0.89941502  0.49657820  0.09731676  1
  Nb  Nb105  1  0.50123614  0.49989108  0.69970995  1
  Nb  Nb106  1  0.29821436  0.69653962  0.29484850  1
  Nb  Nb107  1  0.89877246  0.90667793  0.09504954  1
  Nb  Nb108  1  0.89634553  0.30391730  0.50305436  1
  Nb  Nb109  1  0.29965792  0.90577759  0.50183696  1
  Nb  Nb110  1  0.90066311  0.90053862  0.29896834  1
  Nb  Nb111  1  0.70340787  0.10087832  0.69855829  1
  Nb  Nb112  1  0.09882911  0.90081419  0.29619203  1
  Nb  Nb113  1  0.49767046  0.30066652  0.89963283  1
  Nb  Nb114  1  0.49772972  0.89893903  0.89144542  1
  Nb  Nb115  1  0.90353187  0.29859124  0.09725485  1
  Nb  Nb116  1  0.10288259  0.49735851  0.30979969  1
  Nb  Nb117  1  0.10043481  0.89881573  0.91310603  1
  Nb  Nb118  1  0.90324875  0.09655241  0.29873546  1
  Nb  Nb119  1  0.50263259  0.50555123  0.09500958  1
  Nb  Nb120  1  0.30248712  0.10061022  0.29764489  1
  Nb  Nb121  1  0.89969891  0.89739212  0.91405599  1
  Nb  Nb122  1  0.90548699  0.50279118  0.89856911  1
  Nb  Nb123  1  0.10003562  0.90126159  0.10081290  1
  Nb  Nb124  1  0.89846664  0.69413007  0.89002174  1
  Nb  Nb125  1  0.59536285  0.39872371  0.59880039  1
  Nb  Nb126  1  0.80995366  0.59398776  -0.00486541  1
  Nb  Nb127  1  0.20064791  -0.00808883  0.59995218  1
  Nb  Nb128  1  0.59567860  0.59861064  0.19757894  1
  Nb  Nb129  1  0.80303553  0.80469512  0.19458568  1
  Nb  Nb130  1  0.00580267  0.59506925  0.39824976  1
  Nb  Nb131  1  0.60036894  0.40359227  0.19508443  1
  Nb  Nb132  1  -0.00506174  0.39866389  0.60118165  1
  Nb  Nb133  1  -0.00337942  -0.00141294  0.39111497  1
  Nb  Nb134  1  0.80812217  0.40003821  0.80546863  1
  Nb  Nb135  1  0.60375955  0.79699763  0.19776917  1
  Nb  Nb136  1  0.39160969  0.60283440  0.39385807  1
  Nb  Nb137  1  0.19996725  0.59741557  0.20330973  1
  Nb  Nb138  1  0.80965530  0.40156338  -0.00125849  1
  Nb  Nb139  1  0.60495535  0.00167504  0.40147228  1
  Nb  Nb140  1  0.80249305  0.00378619  0.39746215  1
  Nb  Nb141  1  0.19918806  0.60411611  0.60192700  1
  Nb  Nb142  1  -0.00238493  -0.00550442  0.20009785  1
  Nb  Nb143  1  -0.00767446  0.39699577  0.79666683  1
  Nb  Nb144  1  0.20421543  0.60023651  0.00163486  1
  Nb  Nb145  1  0.20282994  0.80411501  0.60224365  1
  Nb  Nb146  1  0.80449312  0.39717635  0.40126539  1
  Nb  Nb147  1  0.40206993  0.20207953  0.40051210  1
  Nb  Nb148  1  0.20258488  0.60295136  0.80067324  1
  Nb  Nb149  1  0.39745062  0.59393747  0.00100080  1
  Pd  Pd150  1  0.20248127  0.79403453  0.79111921  1
  Pd  Pd151  1  0.60488205  0.39253428  0.00481265  1
  Pd  Pd152  1  0.58634412  0.59526094  0.39336254  1
  Pd  Pd153  1  0.00278785  0.20232374  0.79968932  1
  Pd  Pd154  1  0.58946672  0.20993771  0.19399094  1
  Pd  Pd155  1  0.79444059  0.80597493  0.39393094  1
  Pd  Pd156  1  0.00847935  -0.00408902  0.59184004  1
  Pd  Pd157  1  0.40820884  0.40008388  0.60251995  1
  Pd  Pd158  1  0.19157839  0.40661566  0.60416040  1
  Pd  Pd159  1  0.60788135  -0.00398397  0.80744086  1
  Pd  Pd160  1  0.20777823  0.19279218  0.80192266  1
  Pd  Pd161  1  -0.00695850  0.79339358  0.00357471  1
  Pd  Pd162  1  0.00699897  0.59398130  0.59488959  1
  Pd  Pd163  1  0.58713471  0.80718925  0.00049976  1
  Pd  Pd164  1  0.00585393  0.00650228  0.00650142  1
  Pd  Pd165  1  0.79361124  0.61081119  0.19449368  1
  Pd  Pd166  1  0.60849622  0.00111744  0.59727744  1
  Pd  Pd167  1  0.79358216  0.79645473  0.60797245  1
  Pd  Pd168  1  0.58966769  0.18435673  0.40254701  1
  Pd  Pd169  1  0.80165135  0.38999359  0.20185702  1
  Pd  Pd170  1  -0.00603200  -0.00830673  0.80761656  1
  Pd  Pd171  1  0.00071249  0.20673341  0.59828715  1
  Pd  Pd172  1  0.59883123  0.59514874  0.60087065  1
  Pd  Pd173  1  0.60244932  0.20386240  0.79614204  1
  Pd  Pd174  1  0.20493453  0.38564477  0.40265723  1
  Pd  Pd175  1  0.80232715  -0.00125611  0.19929595  1
  Pd  Pd176  1  0.19177036  0.40246981  0.19367768  1
  Pd  Pd177  1  0.39171348  0.79759716  0.39830443  1
  Pd  Pd178  1  0.21026484  0.20368117  0.40024819  1
  Pd  Pd179  1  0.40021824  0.00571668  0.80551513  1
  Pd  Pd180  1  -0.00249709  0.39258224  -0.00690409  1
  Pd  Pd181  1  0.00205387  0.60890135  -0.00218012  1
  Pd  Pd182  1  0.20071065  0.19136168  -0.00421474  1
  Pd  Pd183  1  0.60719826  0.79415577  0.60618359  1
  Pd  Pd184  1  0.39677593  0.58836941  0.81310719  1
  Pd  Pd185  1  0.80714236  0.19999459  0.39751207  1
  Pd  Pd186  1  0.39657199  0.19470263  0.80484636  1
  Pd  Pd187  1  0.41062752  0.39310545  0.19051569  1
  Pd  Pd188  1  0.40864134  0.01194417  0.40175621  1
  Pd  Pd189  1  0.60191044  0.00039385  -0.01023809  1
  Pd  Pd190  1  0.39834337  0.81381930  0.19908973  1
  Pd  Pd191  1  0.40014282  0.00050342  -0.00645522  1
  Pd  Pd192  1  0.81499262  0.78598580  0.00644215  1
  Pd  Pd193  1  -0.00568756  0.80639760  0.19493464  1
  Pd  Pd194  1  0.79716167  -0.00581776  0.80545495  1
  Pd  Pd195  1  -0.01197277  0.81200074  0.80379032  1
  Pd  Pd196  1  0.59952056  0.59836266  0.80070574  1
  Pd  Pd197  1  0.40459190  0.80116986  -0.00347400  1
  Pd  Pd198  1  0.40290036  0.19778728  0.60051972  1
  Pd  Pd199  1  0.00063780  0.39507756  0.20108765  1
  Rh  Rh200  1  0.00379732  0.80707694  0.60131768  1
  Rh  Rh201  1  -0.00259641  0.80022031  0.40116122  1
  Rh  Rh202  1  0.79463452  0.00663898  -0.00419827  1
  Rh  Rh203  1  0.59739915  0.80311597  0.79876632  1
  Rh  Rh204  1  0.60497757  0.80711711  0.39397699  1
  Rh  Rh205  1  0.00694782  0.19442608  -0.00075360  1
  Rh  Rh206  1  0.39631730  0.59608466  0.19826671  1
  Rh  Rh207  1  0.19782661  0.60898863  0.40152066  1
  Rh  Rh208  1  0.79452473  0.20089121  -0.00209883  1
  Rh  Rh209  1  0.01420103  0.59978951  0.21087294  1
  Rh  Rh210  1  0.19478576  0.00427776  -0.00255803  1
  Rh  Rh211  1  0.80600967  0.20274546  0.20285823  1
  Rh  Rh212  1  0.79454039  0.61004245  0.60258689  1
  Rh  Rh213  1  0.59684691  0.20647314  0.60924305  1
  Rh  Rh214  1  0.20178521  0.18907245  0.60328560  1
  Rh  Rh215  1  -0.00236829  0.19627082  0.40215308  1
  Rh  Rh216  1  0.00150983  0.19388851  0.19646550  1
  Rh  Rh217  1  0.19777108  0.79806983  0.00463172  1
  Rh  Rh218  1  0.81221211  0.59533945  0.40316930  1
  Rh  Rh219  1  0.20768802  0.79866199  0.40164444  1
  Rh  Rh220  1  0.20020207  0.00040273  0.79962838  1
  Rh  Rh221  1  0.39265934  -0.00170608  0.19981298  1
  Rh  Rh222  1  0.79570631  0.20389320  0.79603091  1
  Rh  Rh223  1  0.79473534  0.00531267  0.59754171  1
  Rh  Rh224  1  0.60040128  0.39697114  0.78884861  1
  Rh  Rh225  1  0.40302576  0.20189848  0.20237717  1
  Rh  Rh226  1  0.20392675  0.80189570  0.19902141  1
  Rh  Rh227  1  0.80051019  0.19970373  0.60667160  1
  Rh  Rh228  1  0.40649070  0.80041527  0.80497875  1
  Rh  Rh229  1  0.39010325  0.39584812  0.40641569  1
  Rh  Rh230  1  0.59918411  -0.00743666  0.20118801  1
  Rh  Rh231  1  0.39298042  -0.00159959  0.60317372  1
  Rh  Rh232  1  -0.00962996  0.40662767  0.40889101  1
  Rh  Rh233  1  0.40596999  0.39617888  0.80031761  1
  Rh  Rh234  1  0.79808119  0.40225699  0.60191490  1
  Rh  Rh235  1  0.79543854  0.59367000  0.80696800  1
  Rh  Rh236  1  0.59753055  0.20064123  -0.00164793  1
  Rh  Rh237  1  0.39813957  0.59561682  0.58803476  1
  Rh  Rh238  1  0.80758070  0.80827632  0.80213039  1
  Rh  Rh239  1  0.39593413  0.19313675  -0.00946353  1
  Rh  Rh240  1  0.60863858  0.40740105  0.40280057  1
  Rh  Rh241  1  0.39477370  0.80655556  0.59911174  1
  Rh  Rh242  1  0.40255280  0.40238131  -0.00262369  1
  Rh  Rh243  1  0.59435423  0.60118898  -0.00215404  1
  Rh  Rh244  1  0.19406098  0.00416221  0.20530625  1
  Rh  Rh245  1  0.20052685  0.19846792  0.19959352  1
  Rh  Rh246  1  0.00587777  0.59606071  0.79812280  1
  Rh  Rh247  1  0.19448102  0.40471795  0.79210723  1
  Rh  Rh248  1  0.19821679  0.40422356  0.00905927  1
  Rh  Rh249  1  0.19417250  0.00676519  0.39977992  1
