# generated using pymatgen
data_ZrScNbPdRh
_symmetry_space_group_name_H-M   'P 1'
_cell_length_a   16.55839330
_cell_length_b   16.55484395
_cell_length_c   16.55579836
_cell_angle_alpha   89.98521729
_cell_angle_beta   89.99991594
_cell_angle_gamma   89.99493181
_symmetry_Int_Tables_number   1
_chemical_formula_structural   ZrScNbPdRh
_chemical_formula_sum   'Zr50 Sc50 Nb50 Pd50 Rh50'
_cell_volume   4538.30205318
_cell_formula_units_Z   50
loop_
 _symmetry_equiv_pos_site_id
 _symmetry_equiv_pos_as_xyz
  1  'x, y, z'
loop_
 _atom_site_type_symbol
 _atom_site_label
 _atom_site_symmetry_multiplicity
 _atom_site_fract_x
 _atom_site_fract_y
 _atom_site_fract_z
 _atom_site_occupancy
  Zr  Zr0  1  0.90067129  0.50758510  0.10691099  1
  Zr  Zr1  1  0.09580368  0.89918745  0.50358134  1
  Zr  Zr2  1  0.69760536  0.30483195  0.29240664  1
  Zr  Zr3  1  0.50298956  0.69782959  0.50417537  1
  Zr  Zr4  1  0.69250028  0.50754734  0.90221796  1
  Zr  Zr5  1  0.30467542  0.29751505  0.29979428  1
  Zr  Zr6  1  0.09893445  0.29349938  0.69093788  1
  Zr  Zr7  1  0.90967330  0.70727928  0.09975018  1
  Zr  Zr8  1  0.89896598  0.28957961  0.70035713  1
  Zr  Zr9  1  0.89289016  0.90498664  0.30082966  1
  Zr  Zr10  1  0.09661936  0.90213193  0.30598549  1
  Zr  Zr11  1  0.50022056  0.29871124  0.69295439  1
  Zr  Zr12  1  0.30105119  0.90105586  0.90138162  1
  Zr  Zr13  1  0.50202976  0.30902771  0.30095275  1
  Zr  Zr14  1  0.69639360  0.09422070  0.69879952  1
  Zr  Zr15  1  0.30338086  0.09499080  0.89997928  1
  Zr  Zr16  1  0.69965254  0.69714766  0.50757777  1
  Zr  Zr17  1  0.49783091  0.69148199  0.30962702  1
  Zr  Zr18  1  0.09727086  0.89567213  0.09766875  1
  Zr  Zr19  1  0.50374895  0.09178637  0.89612428  1
  Zr  Zr20  1  0.29801511  0.69385851  0.69596904  1
  Zr  Zr21  1  0.90401781  0.09450957  0.89186542  1
  Zr  Zr22  1  0.89956909  0.50224537  0.31251795  1
  Zr  Zr23  1  0.50731542  0.89986794  0.70384722  1
  Zr  Zr24  1  0.09903645  0.89797061  0.69141565  1
  Zr  Zr25  1  0.29582434  0.89664446  0.09395663  1
  Zr  Zr26  1  0.09697111  0.30377511  0.30601148  1
  Zr  Zr27  1  0.70348675  0.50125960  0.30060548  1
  Zr  Zr28  1  0.29852636  0.09386049  0.30242233  1
  Zr  Zr29  1  0.49546953  0.11092810  0.30295348  1
  Zr  Zr30  1  0.89631639  0.28917292  0.89715512  1
  Zr  Zr31  1  0.50118641  0.10315885  0.70496607  1
  Zr  Zr32  1  0.69883111  0.49962248  0.10698246  1
  Zr  Zr33  1  0.09932940  0.49201104  0.49552257  1
  Zr  Zr34  1  0.50623802  0.69746001  0.88421264  1
  Zr  Zr35  1  0.50461705  0.10534417  0.09270865  1
  Zr  Zr36  1  0.29863329  0.69454177  0.10228429  1
  Zr  Zr37  1  0.50167409  0.88829773  0.30457315  1
  Zr  Zr38  1  0.89689739  0.70573155  0.90219941  1
  Zr  Zr39  1  0.69885559  0.30977813  0.50110671  1
  Zr  Zr40  1  0.70421107  0.69962095  0.09822575  1
  Zr  Zr41  1  0.49272598  0.49360590  0.10431512  1
  Zr  Zr42  1  0.89570373  0.30523498  0.50287332  1
  Zr  Zr43  1  0.90002079  0.10471702  0.29202245  1
  Zr  Zr44  1  0.10007190  0.69025783  0.11041902  1
  Zr  Zr45  1  0.69796381  0.89865838  0.89241738  1
  Zr  Zr46  1  0.89523759  0.90575530  0.70124759  1
  Zr  Zr47  1  0.30169009  0.89800428  0.49826880  1
  Zr  Zr48  1  0.69811708  0.70155825  0.89704840  1
  Zr  Zr49  1  0.09747957  0.29776247  0.09460826  1
  Sc  Sc50  1  0.70517116  0.10079990  0.50230760  1
  Sc  Sc51  1  0.28979207  0.30823950  0.50300514  1
  Sc  Sc52  1  0.30899298  0.49748646  0.90430728  1
  Sc  Sc53  1  0.09393072  0.29989343  0.91054627  1
  Sc  Sc54  1  0.50342360  0.10975544  0.50005858  1
  Sc  Sc55  1  0.69124794  0.70360671  0.69704293  1
  Sc  Sc56  1  0.70043963  0.09982155  0.09393939  1
  Sc  Sc57  1  0.29930590  0.10010623  0.49246744  1
  Sc  Sc58  1  0.69409846  0.70481925  0.29844626  1
  Sc  Sc59  1  0.30144397  0.50160395  0.09747944  1
  Sc  Sc60  1  0.89962309  0.89719124  0.09484355  1
  Sc  Sc61  1  0.89547019  0.09740889  0.50441394  1
  Sc  Sc62  1  0.69749046  0.10589852  0.90068116  1
  Sc  Sc63  1  0.30205464  0.09921166  0.70389788  1
  Sc  Sc64  1  0.90740823  0.50641574  0.90382964  1
  Sc  Sc65  1  0.09969684  0.49784257  0.91109668  1
  Sc  Sc66  1  0.90112179  0.28585750  0.10115685  1
  Sc  Sc67  1  0.89293210  0.70604974  0.69905246  1
  Sc  Sc68  1  0.89238323  0.10061269  0.09674714  1
  Sc  Sc69  1  0.30360743  0.30340861  0.69258304  1
  Sc  Sc70  1  0.70016640  0.29324384  0.69732652  1
  Sc  Sc71  1  0.10452427  0.09613919  0.30562698  1
  Sc  Sc72  1  0.71423338  0.10103074  0.29765860  1
  Sc  Sc73  1  0.89188788  0.29919692  0.29793866  1
  Sc  Sc74  1  0.90894617  0.70621077  0.30078365  1
  Sc  Sc75  1  0.29896794  0.09767553  0.09396955  1
  Sc  Sc76  1  0.50585529  0.49953018  0.49566538  1
  Sc  Sc77  1  0.50643372  0.89880481  0.09052486  1
  Sc  Sc78  1  0.29762045  0.49942709  0.69466427  1
  Sc  Sc79  1  0.30678422  0.68896746  0.30178558  1
  Sc  Sc80  1  0.70058008  0.89876299  0.10229063  1
  Sc  Sc81  1  0.09926358  0.91118707  0.90536075  1
  Sc  Sc82  1  0.89752404  0.89845621  0.49871988  1
  Sc  Sc83  1  0.49751211  0.50500524  0.70092801  1
  Sc  Sc84  1  0.08848453  0.09591463  0.70121247  1
  Sc  Sc85  1  0.50675655  0.70260419  0.10476801  1
  Sc  Sc86  1  0.89171512  0.50296969  0.69065354  1
  Sc  Sc87  1  0.89939803  0.10218131  0.69956725  1
  Sc  Sc88  1  0.31131561  0.30476987  0.09407790  1
  Sc  Sc89  1  0.49471565  0.28921457  0.90092911  1
  Sc  Sc90  1  0.30001645  0.30410657  0.90733459  1
  Sc  Sc91  1  0.09634046  0.50860453  0.30051830  1
  Sc  Sc92  1  0.89416208  0.70065497  0.49496698  1
  Sc  Sc93  1  0.09977807  0.09821227  0.50822006  1
  Sc  Sc94  1  0.49817913  0.88644123  0.50097564  1
  Sc  Sc95  1  0.31185161  0.70094034  0.50738263  1
  Sc  Sc96  1  0.30480120  0.69992640  0.90274138  1
  Sc  Sc97  1  0.31425183  0.50242740  0.29499003  1
  Sc  Sc98  1  0.29901938  0.90039036  0.70096098  1
  Sc  Sc99  1  0.09335900  0.68723753  0.90378253  1
  Nb  Nb100  1  0.50394611  0.49654126  0.89864822  1
  Nb  Nb101  1  0.09404350  0.10373911  0.09935761  1
  Nb  Nb102  1  0.69973623  0.90587823  0.29974047  1
  Nb  Nb103  1  0.10151939  0.49719140  0.10429527  1
  Nb  Nb104  1  0.09682243  0.30192463  0.50006306  1
  Nb  Nb105  1  0.10160349  0.10275453  0.90564942  1
  Nb  Nb106  1  0.10154172  0.70269849  0.30331430  1
  Nb  Nb107  1  0.70622957  0.90292702  0.50088470  1
  Nb  Nb108  1  0.70286060  0.89808196  0.69026964  1
  Nb  Nb109  1  0.49956713  0.70385025  0.69191016  1
  Nb  Nb110  1  0.29892080  0.90332017  0.30281210  1
  Nb  Nb111  1  0.50463903  0.30245147  0.49801857  1
  Nb  Nb112  1  0.69381621  0.29767682  0.09350019  1
  Nb  Nb113  1  0.29255157  0.50378449  0.50170384  1
  Nb  Nb114  1  0.10476649  0.70547205  0.50668693  1
  Nb  Nb115  1  0.10360328  0.69703243  0.69811826  1
  Nb  Nb116  1  0.10042440  0.50547755  0.70152612  1
  Nb  Nb117  1  0.70073599  0.50254453  0.69691113  1
  Nb  Nb118  1  0.49968992  0.50043261  0.29840556  1
  Nb  Nb119  1  0.90341637  0.89567631  0.89257499  1
  Nb  Nb120  1  0.89399173  0.50208293  0.50065870  1
  Nb  Nb121  1  0.71995892  0.50438820  0.51119034  1
  Nb  Nb122  1  0.69972639  0.30190973  0.89929604  1
  Nb  Nb123  1  0.50678791  0.29784031  0.10246575  1
  Nb  Nb124  1  0.50034415  0.90052411  0.89470239  1
  Nb  Nb125  1  0.59607682  -0.00095893  0.20845299  1
  Nb  Nb126  1  0.79423460  0.39694872  -0.00142396  1
  Nb  Nb127  1  0.00262293  0.40142449  0.19856821  1
  Nb  Nb128  1  0.19879820  0.60463464  0.40692465  1
  Nb  Nb129  1  0.19705297  0.20257206  0.19695712  1
  Nb  Nb130  1  0.60159910  0.40143283  0.80335426  1
  Nb  Nb131  1  0.20198593  0.79974970  0.20934127  1
  Nb  Nb132  1  0.40318059  -0.00569163  0.20261067  1
  Nb  Nb133  1  0.00097083  0.40449589  0.59936167  1
  Nb  Nb134  1  0.19108830  0.79470606  0.79786327  1
  Nb  Nb135  1  0.19539439  0.20189526  0.80434257  1
  Nb  Nb136  1  0.00565251  0.59986842  0.59758906  1
  Nb  Nb137  1  0.00028886  0.20487284  0.40451909  1
  Nb  Nb138  1  0.59919779  0.39620091  -0.00137532  1
  Nb  Nb139  1  0.79297069  0.59778897  0.79915960  1
  Nb  Nb140  1  0.00000228  0.40185690  0.79210006  1
  Nb  Nb141  1  0.00217454  0.00284320  0.19740378  1
  Nb  Nb142  1  0.00451858  0.80137378  0.79891550  1
  Nb  Nb143  1  0.19124676  0.39777372  0.79728762  1
  Nb  Nb144  1  0.20010695  0.79558826  0.39848726  1
  Nb  Nb145  1  0.60494490  -0.00347277  0.39619073  1
  Nb  Nb146  1  0.39430506  0.80508604  0.20257362  1
  Nb  Nb147  1  0.79675528  0.40384543  0.80314880  1
  Nb  Nb148  1  0.19581814  0.39831275  0.19724452  1
  Nb  Nb149  1  0.40618179  0.00067039  0.60145141  1
  Pd  Pd150  1  0.39715008  0.59609020  0.79785511  1
  Pd  Pd151  1  0.41281295  -0.00078099  0.40550392  1
  Pd  Pd152  1  0.20403176  0.19277688  0.60454335  1
  Pd  Pd153  1  0.00408343  0.60976091  0.40939929  1
  Pd  Pd154  1  0.60746510  0.19115496  0.20325805  1
  Pd  Pd155  1  -0.01303327  0.40019306  0.00421311  1
  Pd  Pd156  1  0.79422696  0.00297874  0.80067412  1
  Pd  Pd157  1  0.39719447  0.21194113  0.41186720  1
  Pd  Pd158  1  0.60810081  0.41083102  0.40292225  1
  Pd  Pd159  1  0.59631994  0.60007503  0.20061413  1
  Pd  Pd160  1  0.61049361  0.19598777  0.39895501  1
  Pd  Pd161  1  0.40984495  0.79311759  0.00144781  1
  Pd  Pd162  1  0.39665578  0.40303733  0.40776709  1
  Pd  Pd163  1  0.39263233  0.19511005  0.19122696  1
  Pd  Pd164  1  0.61039493  0.80208161  0.40743257  1
  Pd  Pd165  1  0.39400582  0.19661433  0.59192251  1
  Pd  Pd166  1  0.80889309  0.39236003  0.19079945  1
  Pd  Pd167  1  0.39005879  0.20691234  0.80042361  1
  Pd  Pd168  1  -0.01129273  0.60084612  0.78975782  1
  Pd  Pd169  1  0.19054352  0.79149728  -0.00701941  1
  Pd  Pd170  1  0.59873463  0.40696005  0.60543707  1
  Pd  Pd171  1  0.19359243  0.00080253  0.80008316  1
  Pd  Pd172  1  0.20229260  0.59509746  -0.00455018  1
  Pd  Pd173  1  0.80244258  0.20341851  0.40337384  1
  Pd  Pd174  1  0.20819811  0.00675274  0.59961622  1
  Pd  Pd175  1  0.40466886  0.59100554  0.59650403  1
  Pd  Pd176  1  0.80059706  0.79993938  0.20177652  1
  Pd  Pd177  1  0.79775348  -0.00429550  -0.00407025  1
  Pd  Pd178  1  0.79727337  0.80748667  -0.00037409  1
  Pd  Pd179  1  0.79504967  0.79630542  0.39790406  1
  Pd  Pd180  1  0.60459899  0.20075880  0.59598055  1
  Pd  Pd181  1  0.59890042  0.80054922  -0.00385963  1
  Pd  Pd182  1  0.20959909  0.41179858  0.38734104  1
  Pd  Pd183  1  0.20583565  0.19944224  0.00035951  1
  Pd  Pd184  1  0.60921789  0.59183961  0.40598667  1
  Pd  Pd185  1  0.19414275  0.19888949  0.40038542  1
  Pd  Pd186  1  -0.00589118  0.01037473  0.40009057  1
  Pd  Pd187  1  0.40940084  0.60538551  -0.00027626  1
  Pd  Pd188  1  0.80665696  0.61392528  0.21067254  1
  Pd  Pd189  1  -0.00997763  0.79373440  0.60087781  1
  Pd  Pd190  1  0.80403663  0.59724361  -0.00247376  1
  Pd  Pd191  1  0.40302344  0.40571841  0.59002947  1
  Pd  Pd192  1  0.40520784  -0.00163753  0.00445448  1
  Pd  Pd193  1  0.19808732  0.00133172  0.19120591  1
  Pd  Pd194  1  0.39883495  0.39675015  0.80085137  1
  Pd  Pd195  1  -0.00524675  0.00333920  0.00422432  1
  Pd  Pd196  1  0.20555934  0.59617058  0.80984312  1
  Pd  Pd197  1  0.59332998  -0.00393698  0.58637268  1
  Pd  Pd198  1  0.58975685  0.59741915  0.00735657  1
  Pd  Pd199  1  0.39211654  0.80065247  0.79519012  1
  Rh  Rh200  1  0.79065807  0.20310018  0.19195540  1
  Rh  Rh201  1  0.79921582  0.79764330  0.79628582  1
  Rh  Rh202  1  0.59820594  0.59514386  0.60141051  1
  Rh  Rh203  1  0.39081201  0.79164287  0.39403687  1
  Rh  Rh204  1  -0.00164432  0.59619062  0.20448008  1
  Rh  Rh205  1  0.19372624  0.40347559  0.60750819  1
  Rh  Rh206  1  -0.00816127  0.18952513  -0.00482373  1
  Rh  Rh207  1  0.60310040  -0.00403386  -0.00099501  1
  Rh  Rh208  1  0.39838464  0.39584869  0.20046526  1
  Rh  Rh209  1  0.80208809  -0.00130311  0.19364580  1
  Rh  Rh210  1  0.00293466  0.79870194  0.40475479  1
  Rh  Rh211  1  0.40242212  -0.00694993  0.79390934  1
  Rh  Rh212  1  0.40738276  0.60583611  0.19547997  1
  Rh  Rh213  1  0.41013896  0.39704181  -0.00180124  1
  Rh  Rh214  1  0.79872744  0.20076485  -0.00209856  1
  Rh  Rh215  1  0.79749548  0.00052822  0.40369804  1
  Rh  Rh216  1  0.60597604  -0.00225972  0.80064676  1
  Rh  Rh217  1  0.60229788  0.80211211  0.79449081  1
  Rh  Rh218  1  0.79451711  0.40138036  0.39947582  1
  Rh  Rh219  1  0.60335422  0.80405082  0.59801045  1
  Rh  Rh220  1  0.19708431  -0.00647781  0.41227263  1
  Rh  Rh221  1  0.00030398  0.60063733  0.00807192  1
  Rh  Rh222  1  0.00383166  0.80959779  0.20500734  1
  Rh  Rh223  1  0.19571540  0.59871707  0.59234629  1
  Rh  Rh224  1  0.40293734  0.19770906  0.00012509  1
  Rh  Rh225  1  0.19769607  0.00480086  0.00261261  1
  Rh  Rh226  1  0.20915533  0.79768639  0.60129357  1
  Rh  Rh227  1  0.00397616  -0.00521698  0.79906106  1
  Rh  Rh228  1  0.01074301  0.20156193  0.80764730  1
  Rh  Rh229  1  0.59829784  0.20275371  -0.00696028  1
  Rh  Rh230  1  0.20506599  0.40568181  0.00113732  1
  Rh  Rh231  1  0.00924709  0.19749574  0.21038309  1
  Rh  Rh232  1  -0.00372933  0.20125815  0.58861097  1
  Rh  Rh233  1  0.00546415  0.79916764  -0.01128100  1
  Rh  Rh234  1  0.59617396  0.40172504  0.19728932  1
  Rh  Rh235  1  0.20094960  0.59644654  0.20982447  1
  Rh  Rh236  1  0.60023922  0.20516605  0.79948563  1
  Rh  Rh237  1  0.80192617  -0.00025740  0.60074403  1
  Rh  Rh238  1  0.79529392  0.19793291  0.60011183  1
  Rh  Rh239  1  0.79856572  0.80148157  0.59840632  1
  Rh  Rh240  1  -0.01138751  0.39336731  0.39962811  1
  Rh  Rh241  1  0.60006248  0.59796995  0.78742591  1
  Rh  Rh242  1  0.79575547  0.60603557  0.39627059  1
  Rh  Rh243  1  0.80346765  0.39461207  0.60897417  1
  Rh  Rh244  1  -0.00823649  0.00029292  0.60059688  1
  Rh  Rh245  1  0.80549969  0.60981401  0.60594345  1
  Rh  Rh246  1  0.59855128  0.80430135  0.19828605  1
  Rh  Rh247  1  0.79138574  0.19579228  0.79794716  1
  Rh  Rh248  1  0.39605083  0.59143270  0.40920664  1
  Rh  Rh249  1  0.40047479  0.80670419  0.61040564  1
