# generated using pymatgen
data_ZrScNbPdRh
_symmetry_space_group_name_H-M   'P 1'
_cell_length_a   16.55378711
_cell_length_b   16.56261036
_cell_length_c   16.55738246
_cell_angle_alpha   90.01788769
_cell_angle_beta   89.99495388
_cell_angle_gamma   89.99899810
_symmetry_Int_Tables_number   1
_chemical_formula_structural   ZrScNbPdRh
_chemical_formula_sum   'Zr50 Sc50 Nb50 Pd50 Rh50'
_cell_volume   4539.60231052
_cell_formula_units_Z   50
loop_
 _symmetry_equiv_pos_site_id
 _symmetry_equiv_pos_as_xyz
  1  'x, y, z'
loop_
 _atom_site_type_symbol
 _atom_site_label
 _atom_site_symmetry_multiplicity
 _atom_site_fract_x
 _atom_site_fract_y
 _atom_site_fract_z
 _atom_site_occupancy
  Zr  Zr0  1  0.89769677  0.90808678  0.10081639  1
  Zr  Zr1  1  0.50726170  0.09964634  0.10045567  1
  Zr  Zr2  1  0.69775216  0.50104280  0.70506616  1
  Zr  Zr3  1  0.09940366  0.49938696  0.50141342  1
  Zr  Zr4  1  0.31242320  0.29685341  0.50090231  1
  Zr  Zr5  1  0.28929889  0.08927060  0.69650251  1
  Zr  Zr6  1  0.90052830  0.49797653  0.49501374  1
  Zr  Zr7  1  0.89835029  0.69552397  0.29230329  1
  Zr  Zr8  1  0.70558083  0.89902117  0.90049344  1
  Zr  Zr9  1  0.70232803  0.29783148  0.09835874  1
  Zr  Zr10  1  0.50224134  0.10878201  0.49895662  1
  Zr  Zr11  1  0.30251565  0.89845026  0.88644524  1
  Zr  Zr12  1  0.10188105  0.68736586  0.90177456  1
  Zr  Zr13  1  0.30070757  0.71884998  0.70014803  1
  Zr  Zr14  1  0.30068223  0.69583681  0.30302444  1
  Zr  Zr15  1  0.90020770  0.49710355  0.29957582  1
  Zr  Zr16  1  0.49317466  0.30060738  0.68967699  1
  Zr  Zr17  1  0.69574834  0.29289691  0.49023138  1
  Zr  Zr18  1  0.90034885  0.09353460  0.29518213  1
  Zr  Zr19  1  0.09911737  0.50454392  0.30657370  1
  Zr  Zr20  1  0.29595776  0.69787208  0.09668087  1
  Zr  Zr21  1  0.49756767  0.10365871  0.90545067  1
  Zr  Zr22  1  0.30350814  0.50397563  0.10641835  1
  Zr  Zr23  1  0.28704872  0.30629858  0.10666480  1
  Zr  Zr24  1  0.10549238  0.10294525  0.29976413  1
  Zr  Zr25  1  0.89583561  0.69871654  0.90275088  1
  Zr  Zr26  1  0.29775848  0.10325599  0.49185802  1
  Zr  Zr27  1  0.48768928  0.90058056  0.70037185  1
  Zr  Zr28  1  0.29842385  0.70051017  0.49711983  1
  Zr  Zr29  1  0.89814892  0.30106686  0.89933632  1
  Zr  Zr30  1  0.10325223  0.48804675  0.09570294  1
  Zr  Zr31  1  0.09493502  0.49936085  0.90179165  1
  Zr  Zr32  1  0.69680527  0.10418086  0.10058609  1
  Zr  Zr33  1  0.29289358  0.89869868  0.51672844  1
  Zr  Zr34  1  0.69786890  0.09337184  0.50445407  1
  Zr  Zr35  1  0.10042032  0.70003887  0.70580566  1
  Zr  Zr36  1  0.50258103  0.70238854  0.29581381  1
  Zr  Zr37  1  0.10092148  0.89803856  0.10065700  1
  Zr  Zr38  1  0.70133473  0.69958245  0.29317182  1
  Zr  Zr39  1  0.89631983  0.09856032  0.09870524  1
  Zr  Zr40  1  0.29531417  0.50854660  0.90226949  1
  Zr  Zr41  1  0.29645719  0.69724064  0.89196769  1
  Zr  Zr42  1  0.89802804  0.29817562  0.49742575  1
  Zr  Zr43  1  0.89794414  0.70460351  0.50885380  1
  Zr  Zr44  1  0.09336863  0.90603070  0.89728043  1
  Zr  Zr45  1  0.11003792  0.90227347  0.69762898  1
  Zr  Zr46  1  0.71105804  0.70310499  0.89795543  1
  Zr  Zr47  1  0.50827193  0.89810385  0.10240725  1
  Zr  Zr48  1  0.09971527  0.10573891  0.10305281  1
  Zr  Zr49  1  0.49405862  0.50372341  0.88896902  1
  Sc  Sc50  1  0.30392471  0.10117903  0.89481106  1
  Sc  Sc51  1  0.50571822  0.70079033  0.49300196  1
  Sc  Sc52  1  0.30474774  0.11512582  0.08647643  1
  Sc  Sc53  1  0.69423076  0.09361867  0.30569723  1
  Sc  Sc54  1  0.70134248  0.10291855  0.90731734  1
  Sc  Sc55  1  0.50099456  0.91280484  0.90227745  1
  Sc  Sc56  1  0.30157873  0.49176839  0.30183956  1
  Sc  Sc57  1  0.69900930  0.90369087  0.09715316  1
  Sc  Sc58  1  0.70028345  0.49965431  0.30536145  1
  Sc  Sc59  1  0.70244701  0.29824701  0.90445179  1
  Sc  Sc60  1  0.49567597  0.29843166  0.89783038  1
  Sc  Sc61  1  0.50124859  0.70039778  0.69391576  1
  Sc  Sc62  1  0.31110329  0.48818527  0.69889414  1
  Sc  Sc63  1  0.30010568  0.28869643  0.91134099  1
  Sc  Sc64  1  0.69536964  0.09683860  0.69129676  1
  Sc  Sc65  1  0.51136590  0.29670363  0.10890453  1
  Sc  Sc66  1  0.50001620  0.09558235  0.69225463  1
  Sc  Sc67  1  0.89891883  0.89351354  0.68727168  1
  Sc  Sc68  1  0.90483086  0.50374754  0.89872454  1
  Sc  Sc69  1  0.89318918  0.69856397  0.70489317  1
  Sc  Sc70  1  0.70845424  0.30454895  0.70551173  1
  Sc  Sc71  1  0.09796605  0.09682478  0.50687941  1
  Sc  Sc72  1  0.09760283  0.28645643  0.70042718  1
  Sc  Sc73  1  0.51090681  0.30469431  0.30688361  1
  Sc  Sc74  1  0.10598735  0.30111355  0.28431080  1
  Sc  Sc75  1  0.10776252  0.29552630  0.50882103  1
  Sc  Sc76  1  0.09723850  0.90424846  0.29407086  1
  Sc  Sc77  1  0.29731987  0.29180537  0.69218258  1
  Sc  Sc78  1  0.30734011  0.90704808  0.30699494  1
  Sc  Sc79  1  0.70145521  0.90398350  0.68895292  1
  Sc  Sc80  1  0.90238759  0.08812944  0.50075011  1
  Sc  Sc81  1  0.10218330  0.30453881  0.90738404  1
  Sc  Sc82  1  0.09219597  0.50367169  0.71119200  1
  Sc  Sc83  1  0.50955036  0.50365609  0.49087625  1
  Sc  Sc84  1  0.70695267  0.50156509  0.10749432  1
  Sc  Sc85  1  0.69926495  0.90182646  0.29808730  1
  Sc  Sc86  1  0.50142415  0.50106427  0.69903038  1
  Sc  Sc87  1  0.49551992  0.69875477  0.89176916  1
  Sc  Sc88  1  0.70826038  0.90082981  0.50000845  1
  Sc  Sc89  1  0.89194987  0.90604260  0.29986843  1
  Sc  Sc90  1  0.89767480  0.90489023  0.90430069  1
  Sc  Sc91  1  0.29603335  0.48840970  0.49342988  1
  Sc  Sc92  1  0.09349997  0.69242714  0.50466262  1
  Sc  Sc93  1  0.50234546  0.50321273  0.29428716  1
  Sc  Sc94  1  0.90392789  0.09808470  0.89938261  1
  Sc  Sc95  1  0.50058626  0.90226980  0.29649744  1
  Sc  Sc96  1  0.69428102  0.69904154  0.49770020  1
  Sc  Sc97  1  0.90348131  0.50012438  0.09788194  1
  Sc  Sc98  1  0.30024653  0.89450625  0.09953955  1
  Sc  Sc99  1  0.70379387  0.70106118  0.69851903  1
  Nb  Nb100  1  0.49115309  0.09548594  0.29733791  1
  Nb  Nb101  1  0.50411894  0.29790679  0.50604826  1
  Nb  Nb102  1  0.90150116  0.29966282  0.70376573  1
  Nb  Nb103  1  0.30485248  0.10367099  0.30579111  1
  Nb  Nb104  1  0.69027437  0.50626045  0.89930645  1
  Nb  Nb105  1  0.09103888  0.89417315  0.50199411  1
  Nb  Nb106  1  0.50196450  0.69944969  0.10478629  1
  Nb  Nb107  1  0.09307790  0.09756466  0.70838317  1
  Nb  Nb108  1  0.29819030  0.89791661  0.69962946  1
  Nb  Nb109  1  0.69677942  0.50122680  0.50272397  1
  Nb  Nb110  1  0.09877442  0.70342585  0.29777469  1
  Nb  Nb111  1  0.90972394  0.10956699  0.70055300  1
  Nb  Nb112  1  0.70324663  0.29675217  0.29624760  1
  Nb  Nb113  1  0.90291071  0.89563477  0.50073943  1
  Nb  Nb114  1  0.89719378  0.29963861  0.30271353  1
  Nb  Nb115  1  0.90090192  0.30340058  0.10004976  1
  Nb  Nb116  1  0.10270325  0.29848643  0.09513878  1
  Nb  Nb117  1  0.70135745  0.70483542  0.09619576  1
  Nb  Nb118  1  0.09782818  0.70420951  0.10691103  1
  Nb  Nb119  1  0.49731530  0.50723458  0.09952380  1
  Nb  Nb120  1  0.50024447  0.89755650  0.50570683  1
  Nb  Nb121  1  0.89767838  0.69715666  0.09854081  1
  Nb  Nb122  1  0.30414200  0.29286728  0.30251688  1
  Nb  Nb123  1  0.89586009  0.48816610  0.70388687  1
  Nb  Nb124  1  0.09469712  0.09258320  0.89694163  1
  Nb  Nb125  1  -0.00078191  0.80132547  0.39978040  1
  Nb  Nb126  1  0.40532149  0.40656832  0.00660163  1
  Nb  Nb127  1  0.80078393  0.20661427  0.20535862  1
  Nb  Nb128  1  0.80527311  0.00479564  0.79140248  1
  Nb  Nb129  1  0.19726167  0.00196226  -0.00150306  1
  Nb  Nb130  1  -0.00831247  0.39657886  0.60654605  1
  Nb  Nb131  1  0.20766647  0.00945412  0.19737598  1
  Nb  Nb132  1  0.39990744  0.19860847  0.20976855  1
  Nb  Nb133  1  0.20033248  0.39860864  0.80346313  1
  Nb  Nb134  1  0.60445183  0.39808305  0.59449842  1
  Nb  Nb135  1  0.00097926  0.20395899  0.00591919  1
  Nb  Nb136  1  0.59750349  0.19898195  0.79629193  1
  Nb  Nb137  1  0.40388592  0.79532254  0.00074931  1
  Nb  Nb138  1  0.59980313  0.60357046  0.00358971  1
  Nb  Nb139  1  0.59607615  0.41316944  -0.00136100  1
  Nb  Nb140  1  -0.00098929  0.80034136  0.80544457  1
  Nb  Nb141  1  -0.00256962  0.20141524  0.39397621  1
  Nb  Nb142  1  0.60273058  0.80663016  0.80039739  1
  Nb  Nb143  1  -0.00079181  0.79249369  0.00424663  1
  Nb  Nb144  1  0.19323341  0.60508882  0.20266712  1
  Nb  Nb145  1  0.39469074  0.60172008  0.59339835  1
  Nb  Nb146  1  0.20615494  0.59773526  0.60269851  1
  Nb  Nb147  1  0.80830827  0.20035947  0.60416618  1
  Nb  Nb148  1  0.19043838  0.80017161  0.40164394  1
  Nb  Nb149  1  0.79903362  0.58663099  0.60002496  1
  Pd  Pd150  1  0.79729906  0.80434886  0.19446352  1
  Pd  Pd151  1  0.00026678  -0.00160984  0.60695975  1
  Pd  Pd152  1  0.79176542  0.18973550  0.79447006  1
  Pd  Pd153  1  0.79695575  0.60239463  0.40547689  1
  Pd  Pd154  1  -0.00712854  0.20668691  0.20041682  1
  Pd  Pd155  1  0.59901258  0.38860798  0.79987838  1
  Pd  Pd156  1  0.79240460  0.40132061  0.39828480  1
  Pd  Pd157  1  0.39204168  -0.00737360  0.00493470  1
  Pd  Pd158  1  0.40502226  -0.00632932  0.41141023  1
  Pd  Pd159  1  0.60231397  0.80725999  0.39765231  1
  Pd  Pd160  1  0.79686258  0.40593149  0.81350767  1
  Pd  Pd161  1  0.01162124  0.38653541  0.40408192  1
  Pd  Pd162  1  0.00219463  -0.00136306  0.39731330  1
  Pd  Pd163  1  0.38729997  0.38822929  0.81019429  1
  Pd  Pd164  1  0.79739909  0.39628475  0.59590135  1
  Pd  Pd165  1  0.18836140  0.40569437  0.61514244  1
  Pd  Pd166  1  -0.00345792  0.60982008  0.39946715  1
  Pd  Pd167  1  0.39702651  0.80789389  0.40499843  1
  Pd  Pd168  1  0.60245392  0.40637672  0.19694608  1
  Pd  Pd169  1  -0.00620187  0.59221839  0.61106868  1
  Pd  Pd170  1  0.20830348  0.80524900  0.21189665  1
  Pd  Pd171  1  0.59585044  0.19485389  0.39111332  1
  Pd  Pd172  1  0.60606336  0.59791216  0.19654614  1
  Pd  Pd173  1  0.40247423  0.59234763  0.40152927  1
  Pd  Pd174  1  0.19672661  0.20277204  0.80513630  1
  Pd  Pd175  1  0.39247882  0.00757209  0.18883680  1
  Pd  Pd176  1  0.80508878  0.18733746  0.40037127  1
  Pd  Pd177  1  -0.01036880  0.80591420  0.20198705  1
  Pd  Pd178  1  0.40693077  0.39055740  0.19910896  1
  Pd  Pd179  1  0.00461075  0.59350332  0.19377160  1
  Pd  Pd180  1  0.40311944  0.19448273  0.78870589  1
  Pd  Pd181  1  0.80356716  0.80119701  0.39947364  1
  Pd  Pd182  1  0.79562102  0.40837767  -0.00495817  1
  Pd  Pd183  1  0.60836483  0.00260343  0.79903404  1
  Pd  Pd184  1  0.80103348  0.39879244  0.20165841  1
  Pd  Pd185  1  0.60142849  0.61378004  0.80004369  1
  Pd  Pd186  1  0.19221822  0.20706802  0.40169610  1
  Pd  Pd187  1  0.79483968  0.59245015  0.00263394  1
  Pd  Pd188  1  0.40669892  0.60560786  -0.00164228  1
  Pd  Pd189  1  0.00581927  0.20567289  0.81266973  1
  Pd  Pd190  1  0.00094842  0.39892812  0.20013069  1
  Pd  Pd191  1  0.40047615  0.00561269  0.59351867  1
  Pd  Pd192  1  0.59284250  0.79286331  -0.00891125  1
  Pd  Pd193  1  0.19606795  0.38719373  0.39614444  1
  Pd  Pd194  1  0.19921551  0.80390504  -0.00912209  1
  Pd  Pd195  1  0.41027785  0.39856971  0.40087014  1
  Pd  Pd196  1  0.39738797  0.79995331  0.19676013  1
  Pd  Pd197  1  0.19569981  -0.00813243  0.39914329  1
  Pd  Pd198  1  0.59361686  -0.00732058  0.40336605  1
  Pd  Pd199  1  0.60136171  0.80264354  0.60395336  1
  Rh  Rh200  1  0.61263656  0.21293245  0.61116250  1
  Rh  Rh201  1  0.39796545  0.00608123  0.79512446  1
  Rh  Rh202  1  0.18889137  0.79171924  0.59262267  1
  Rh  Rh203  1  0.60594807  0.80150570  0.20133352  1
  Rh  Rh204  1  0.20998044  0.40304633  -0.00700699  1
  Rh  Rh205  1  0.41497996  0.41233833  0.58570980  1
  Rh  Rh206  1  0.20113697  0.00316692  0.80532274  1
  Rh  Rh207  1  0.39410020  0.60776864  0.78129745  1
  Rh  Rh208  1  0.80263677  0.59202599  0.79555516  1
  Rh  Rh209  1  0.79677597  0.00344306  -0.00705461  1
  Rh  Rh210  1  0.80058036  0.59968599  0.19660805  1
  Rh  Rh211  1  0.19992893  0.40771568  0.20784439  1
  Rh  Rh212  1  0.59459737  0.20945088  -0.01109869  1
  Rh  Rh213  1  0.60153017  0.19279151  0.21145842  1
  Rh  Rh214  1  0.80821518  0.80282736  0.01121343  1
  Rh  Rh215  1  0.60005744  0.59231438  0.60079322  1
  Rh  Rh216  1  0.60451386  0.00247707  0.00009501  1
  Rh  Rh217  1  0.59315667  -0.00683677  0.59324179  1
  Rh  Rh218  1  0.80958296  0.00816149  0.60380766  1
  Rh  Rh219  1  0.19013971  0.59914996  0.01396729  1
  Rh  Rh220  1  0.00366903  0.60460085  0.00976012  1
  Rh  Rh221  1  0.39319938  0.19017848  0.59986311  1
  Rh  Rh222  1  0.21309953  0.19376104  0.20234793  1
  Rh  Rh223  1  0.41100266  0.80260631  0.80616516  1
  Rh  Rh224  1  0.60104733  -0.00010600  0.20157886  1
  Rh  Rh225  1  0.00548149  0.00428993  0.00784542  1
  Rh  Rh226  1  0.60366911  0.60337724  0.39150924  1
  Rh  Rh227  1  -0.00593425  0.39361754  0.00022660  1
  Rh  Rh228  1  0.21190459  0.58761972  0.78469368  1
  Rh  Rh229  1  0.80969436  0.20136276  0.00610536  1
  Rh  Rh230  1  0.18930580  0.80332898  0.80731727  1
  Rh  Rh231  1  0.00349896  0.79768198  0.60447411  1
  Rh  Rh232  1  0.19634713  0.60497222  0.40013071  1
  Rh  Rh233  1  0.00810324  0.39288063  0.79697430  1
  Rh  Rh234  1  0.41061529  0.20669182  0.39534484  1
  Rh  Rh235  1  0.79987530  0.81536443  0.79339022  1
  Rh  Rh236  1  0.79968156  -0.00243699  0.40361033  1
  Rh  Rh237  1  0.39511241  0.60347536  0.20614744  1
  Rh  Rh238  1  -0.01276531  0.60556458  0.79774149  1
  Rh  Rh239  1  0.41050165  0.21698919  0.01636576  1
  Rh  Rh240  1  0.18660593  0.18960696  -0.01031593  1
  Rh  Rh241  1  0.78879905  0.00855779  0.20082226  1
  Rh  Rh242  1  0.79320165  0.79183628  0.59607392  1
  Rh  Rh243  1  0.20035199  0.18887190  0.60011073  1
  Rh  Rh244  1  0.19215044  0.00391383  0.59661017  1
  Rh  Rh245  1  -0.00480428  0.20439924  0.59177418  1
  Rh  Rh246  1  0.40898047  0.79358314  0.59249314  1
  Rh  Rh247  1  -0.01002915  -0.00810526  0.78743218  1
  Rh  Rh248  1  0.00606703  -0.00255478  0.19871294  1
  Rh  Rh249  1  0.60405668  0.40023662  0.40234226  1
