# generated using pymatgen
data_ZrScNbPdRh
_symmetry_space_group_name_H-M   'P 1'
_cell_length_a   16.55742787
_cell_length_b   16.55826291
_cell_length_c   16.55882738
_cell_angle_alpha   89.96464717
_cell_angle_beta   89.97037598
_cell_angle_gamma   89.99135247
_symmetry_Int_Tables_number   1
_chemical_formula_structural   ZrScNbPdRh
_chemical_formula_sum   'Zr50 Sc50 Nb50 Pd50 Rh50'
_cell_volume   4539.80374565
_cell_formula_units_Z   50
loop_
 _symmetry_equiv_pos_site_id
 _symmetry_equiv_pos_as_xyz
  1  'x, y, z'
loop_
 _atom_site_type_symbol
 _atom_site_label
 _atom_site_symmetry_multiplicity
 _atom_site_fract_x
 _atom_site_fract_y
 _atom_site_fract_z
 _atom_site_occupancy
  Zr  Zr0  1  0.90110671  0.09871575  0.89482858  1
  Zr  Zr1  1  0.29368474  0.49786862  0.29666549  1
  Zr  Zr2  1  0.09403053  0.89696740  0.49859965  1
  Zr  Zr3  1  0.29747011  0.49929088  0.70834834  1
  Zr  Zr4  1  0.11166105  0.09882331  0.09376737  1
  Zr  Zr5  1  0.50246158  0.70149515  0.10340615  1
  Zr  Zr6  1  0.50249711  0.50072718  0.10316196  1
  Zr  Zr7  1  0.70372347  0.88863655  0.10211363  1
  Zr  Zr8  1  0.70716763  0.89580872  0.68986746  1
  Zr  Zr9  1  0.30391985  0.90258689  0.50077850  1
  Zr  Zr10  1  0.29767459  0.69976434  0.49692210  1
  Zr  Zr11  1  0.70783980  0.30708161  0.68484409  1
  Zr  Zr12  1  0.09668500  0.69932120  0.70762315  1
  Zr  Zr13  1  0.90369270  0.89716919  0.69799590  1
  Zr  Zr14  1  0.29795879  0.10001539  0.10590799  1
  Zr  Zr15  1  0.69953533  0.31081486  0.90068559  1
  Zr  Zr16  1  0.49825314  0.09809232  0.70600427  1
  Zr  Zr17  1  0.49688272  0.30392646  0.69668931  1
  Zr  Zr18  1  0.30047965  0.70001808  0.29935004  1
  Zr  Zr19  1  0.69874888  0.69818012  0.30140114  1
  Zr  Zr20  1  0.70272612  0.30273166  0.29266601  1
  Zr  Zr21  1  0.50026736  0.30340105  0.90013775  1
  Zr  Zr22  1  0.50169998  0.50416486  0.69213709  1
  Zr  Zr23  1  0.90039210  0.50020405  0.89946330  1
  Zr  Zr24  1  0.29958993  0.29873509  0.29811594  1
  Zr  Zr25  1  0.10087038  0.10246140  0.70019332  1
  Zr  Zr26  1  0.90744332  0.30400909  0.89748950  1
  Zr  Zr27  1  0.50472508  0.09731422  0.90101724  1
  Zr  Zr28  1  0.10470308  0.49972382  0.90362912  1
  Zr  Zr29  1  0.70268473  0.70378023  0.50029082  1
  Zr  Zr30  1  0.70738717  0.69138944  0.90754556  1
  Zr  Zr31  1  0.89981168  0.89857180  0.09514191  1
  Zr  Zr32  1  0.50150553  0.50452388  0.89943184  1
  Zr  Zr33  1  0.29716389  0.50226635  0.49596592  1
  Zr  Zr34  1  0.49711408  0.09111095  0.49475331  1
  Zr  Zr35  1  0.09326269  0.10093148  0.30860040  1
  Zr  Zr36  1  0.70654348  0.09762347  0.50541963  1
  Zr  Zr37  1  0.89832617  0.49824789  0.69156328  1
  Zr  Zr38  1  0.69736495  0.09957009  0.10104088  1
  Zr  Zr39  1  0.70153942  0.09935060  0.70396355  1
  Zr  Zr40  1  0.10100770  0.30214773  0.49913043  1
  Zr  Zr41  1  0.49584420  0.89750209  0.29889390  1
  Zr  Zr42  1  0.88648031  0.70515312  0.09667819  1
  Zr  Zr43  1  0.30657916  0.69805049  0.09776462  1
  Zr  Zr44  1  0.90202234  0.89379602  0.90324018  1
  Zr  Zr45  1  0.31163895  0.89351456  0.70322676  1
  Zr  Zr46  1  0.09925973  0.49099885  0.49718547  1
  Zr  Zr47  1  0.89624723  0.09705760  0.69541415  1
  Zr  Zr48  1  0.08444827  0.49727965  0.29792524  1
  Zr  Zr49  1  0.29707227  0.69190393  0.90017050  1
  Sc  Sc50  1  0.69718208  0.91103868  0.90917544  1
  Sc  Sc51  1  0.10101229  0.90130807  0.70556671  1
  Sc  Sc52  1  0.10603407  0.30266472  0.70276378  1
  Sc  Sc53  1  0.90038294  0.89117115  0.30689270  1
  Sc  Sc54  1  0.30143204  0.89515453  0.90170248  1
  Sc  Sc55  1  0.10511903  0.49755893  0.10183369  1
  Sc  Sc56  1  0.69247265  0.89069909  0.30392238  1
  Sc  Sc57  1  0.10435134  0.69285028  0.09653922  1
  Sc  Sc58  1  0.49543263  0.90220222  0.89868836  1
  Sc  Sc59  1  0.90333868  0.10610784  0.09874241  1
  Sc  Sc60  1  0.90627223  0.30642931  0.70002168  1
  Sc  Sc61  1  0.90560032  0.69624969  0.69674874  1
  Sc  Sc62  1  0.50279440  0.69427917  0.29487053  1
  Sc  Sc63  1  0.69905877  0.89032496  0.49465481  1
  Sc  Sc64  1  0.29373041  0.09882468  0.69092129  1
  Sc  Sc65  1  0.30026955  0.90435664  0.09672413  1
  Sc  Sc66  1  0.50196859  0.50409035  0.30452754  1
  Sc  Sc67  1  0.70150283  0.50202222  0.09855436  1
  Sc  Sc68  1  0.49142596  0.70046096  0.70026109  1
  Sc  Sc69  1  0.09940789  0.89693047  0.31042002  1
  Sc  Sc70  1  0.49494466  0.09728839  0.10217034  1
  Sc  Sc71  1  0.09797247  0.69559367  0.30554534  1
  Sc  Sc72  1  0.49890560  0.08706918  0.29672569  1
  Sc  Sc73  1  0.09783695  0.69631128  0.49795217  1
  Sc  Sc74  1  0.49425224  0.69984533  0.90331320  1
  Sc  Sc75  1  0.29629942  0.30438954  0.51277928  1
  Sc  Sc76  1  0.50303771  0.89407489  0.49778217  1
  Sc  Sc77  1  0.89926064  0.89319447  0.50323530  1
  Sc  Sc78  1  0.10199224  0.10334752  0.89841962  1
  Sc  Sc79  1  0.69888698  0.30941464  0.10725384  1
  Sc  Sc80  1  0.49898355  0.89421838  0.09794095  1
  Sc  Sc81  1  0.09573992  0.30587068  0.30095817  1
  Sc  Sc82  1  0.49870352  0.69483671  0.49581696  1
  Sc  Sc83  1  0.10023015  0.30058813  0.89945535  1
  Sc  Sc84  1  0.09572729  0.50188453  0.69992550  1
  Sc  Sc85  1  0.89852664  0.30362691  0.10541607  1
  Sc  Sc86  1  0.89737370  0.68609558  0.29860794  1
  Sc  Sc87  1  0.90447376  0.30166840  0.29218831  1
  Sc  Sc88  1  0.50017957  0.31339228  0.29129603  1
  Sc  Sc89  1  0.90938871  0.09719641  0.49592000  1
  Sc  Sc90  1  0.29738910  0.29260737  0.10156635  1
  Sc  Sc91  1  0.69035412  0.09952294  0.29462534  1
  Sc  Sc92  1  0.49801259  0.31599782  0.50223334  1
  Sc  Sc93  1  0.89860623  0.69757234  0.50082797  1
  Sc  Sc94  1  0.70508924  0.50448496  0.90188252  1
  Sc  Sc95  1  0.90461615  0.11065830  0.29851475  1
  Sc  Sc96  1  0.10345937  0.89728038  0.90366965  1
  Sc  Sc97  1  0.69152147  0.50363550  0.50693738  1
  Sc  Sc98  1  0.30299528  0.69749425  0.70585258  1
  Sc  Sc99  1  0.89831254  0.30423093  0.50977817  1
  Nb  Nb100  1  0.70008471  0.50070072  0.29920750  1
  Nb  Nb101  1  0.29977999  0.10122700  0.49900773  1
  Nb  Nb102  1  0.29844346  0.30557998  0.89817601  1
  Nb  Nb103  1  0.90388041  0.70019025  0.90016314  1
  Nb  Nb104  1  0.89907372  0.49703874  0.29833095  1
  Nb  Nb105  1  0.29455132  0.50462584  0.08827807  1
  Nb  Nb106  1  0.09190360  0.69594946  0.89450093  1
  Nb  Nb107  1  0.69977954  0.50786192  0.69848706  1
  Nb  Nb108  1  0.49717845  0.50567274  0.49597039  1
  Nb  Nb109  1  0.90468668  0.49802608  0.49551271  1
  Nb  Nb110  1  0.50326022  0.30708676  0.09546845  1
  Nb  Nb111  1  0.10157107  0.29911942  0.09490670  1
  Nb  Nb112  1  0.70077155  0.29931964  0.49790353  1
  Nb  Nb113  1  0.10168100  0.90104971  0.10174873  1
  Nb  Nb114  1  0.29910396  0.10716367  0.91421387  1
  Nb  Nb115  1  0.29872176  0.49812664  0.90801943  1
  Nb  Nb116  1  0.69933372  0.70449499  0.10389022  1
  Nb  Nb117  1  0.70476499  0.69702929  0.69836969  1
  Nb  Nb118  1  0.29978689  0.90137313  0.29882756  1
  Nb  Nb119  1  0.90862040  0.50558149  0.11302854  1
  Nb  Nb120  1  0.10511247  0.10209935  0.50026952  1
  Nb  Nb121  1  0.69593780  0.10584925  0.90146908  1
  Nb  Nb122  1  0.30034506  0.29883452  0.70509874  1
  Nb  Nb123  1  0.30309181  0.09637011  0.30034920  1
  Nb  Nb124  1  0.49987820  0.89615479  0.70393097  1
  Nb  Nb125  1  0.60140381  0.20393538  0.00079043  1
  Nb  Nb126  1  0.00429146  0.80144914  0.19437449  1
  Nb  Nb127  1  0.59790671  0.20440062  0.40386644  1
  Nb  Nb128  1  0.79468463  0.20434718  0.40063277  1
  Nb  Nb129  1  0.00135542  -0.00674889  0.19765053  1
  Nb  Nb130  1  0.20658179  0.19469442  0.40219866  1
  Nb  Nb131  1  0.20169595  0.79965518  0.60001297  1
  Nb  Nb132  1  0.39838019  0.19789274  0.40033182  1
  Nb  Nb133  1  0.39457149  0.40194262  -0.00009317  1
  Nb  Nb134  1  0.59850852  -0.00029381  0.60506245  1
  Nb  Nb135  1  0.79731088  0.20128230  0.80344348  1
  Nb  Nb136  1  0.60385170  0.40742123  0.79034870  1
  Nb  Nb137  1  0.39039231  0.20393814  0.80383498  1
  Nb  Nb138  1  0.60806040  0.79695206  0.79525368  1
  Nb  Nb139  1  -0.00577654  0.60221238  -0.00186350  1
  Nb  Nb140  1  0.79764013  0.79528521  0.80158637  1
  Nb  Nb141  1  0.80516923  -0.00320449  0.20336735  1
  Nb  Nb142  1  0.79835757  0.40302485  0.39824038  1
  Nb  Nb143  1  0.79386608  0.20198834  -0.00595426  1
  Nb  Nb144  1  0.19716253  0.80385775  0.20049097  1
  Nb  Nb145  1  0.59898364  0.19881790  0.59531452  1
  Nb  Nb146  1  0.00718663  0.19708738  0.60009657  1
  Nb  Nb147  1  0.20532362  0.00619190  0.40240056  1
  Nb  Nb148  1  0.39524264  0.80021171  0.39476308  1
  Nb  Nb149  1  0.80013312  0.00388277  0.39408553  1
  Pd  Pd150  1  0.59859556  0.79893537  -0.00979438  1
  Pd  Pd151  1  0.00146412  0.59950981  0.59374612  1
  Pd  Pd152  1  0.80606909  0.40167308  0.01069929  1
  Pd  Pd153  1  0.60533983  -0.01238610  0.79642074  1
  Pd  Pd154  1  0.39925386  0.59181115  0.20234333  1
  Pd  Pd155  1  0.40403853  0.20686357  -0.00009876  1
  Pd  Pd156  1  0.19874681  0.79617711  0.00355811  1
  Pd  Pd157  1  0.80064321  0.00760657  0.00514371  1
  Pd  Pd158  1  0.59001945  0.20361120  0.19944411  1
  Pd  Pd159  1  0.19537572  0.60434675  0.20183705  1
  Pd  Pd160  1  0.60243689  -0.01108991  0.19447958  1
  Pd  Pd161  1  0.79382827  0.59806547  0.19668197  1
  Pd  Pd162  1  0.40427313  0.40267782  0.80322918  1
  Pd  Pd163  1  0.59772128  0.60971531  0.59768891  1
  Pd  Pd164  1  0.41024361  0.19908920  0.20633623  1
  Pd  Pd165  1  0.19343071  -0.00600825  0.20904393  1
  Pd  Pd166  1  0.39597813  0.59953033  0.59857666  1
  Pd  Pd167  1  0.40009393  -0.00285143  0.00296148  1
  Pd  Pd168  1  0.00857055  0.19758079  0.19196841  1
  Pd  Pd169  1  0.20094322  0.79893854  0.79696351  1
  Pd  Pd170  1  0.19112833  0.20210583  0.20801413  1
  Pd  Pd171  1  0.40706509  -0.00372732  0.60304849  1
  Pd  Pd172  1  0.79636206  -0.00346821  0.80499972  1
  Pd  Pd173  1  0.79687394  0.40098641  0.79474792  1
  Pd  Pd174  1  0.20589824  0.19692070  0.80445288  1
  Pd  Pd175  1  0.00973286  0.79213424  0.00421925  1
  Pd  Pd176  1  0.20796506  0.00296612  0.80691281  1
  Pd  Pd177  1  0.19749884  0.39763456  0.19439469  1
  Pd  Pd178  1  0.60146806  0.60199625  0.00535696  1
  Pd  Pd179  1  0.00550259  -0.00323751  0.80416370  1
  Pd  Pd180  1  0.60428911  0.40159025  0.40046207  1
  Pd  Pd181  1  0.19256194  0.59423615  0.39551211  1
  Pd  Pd182  1  0.19697528  0.60467568  0.60396363  1
  Pd  Pd183  1  0.39298215  0.40790746  0.59868240  1
  Pd  Pd184  1  0.59792145  0.60445789  0.79801612  1
  Pd  Pd185  1  0.38766548  0.00984889  0.80587072  1
  Pd  Pd186  1  0.19441842  0.40261953  0.79977552  1
  Pd  Pd187  1  0.40314292  0.20049216  0.59852996  1
  Pd  Pd188  1  -0.00783882  0.78830573  0.39509153  1
  Pd  Pd189  1  0.00041385  0.40677536  0.00878104  1
  Pd  Pd190  1  0.80830810  0.60424974  0.79499002  1
  Pd  Pd191  1  0.79720045  0.59209736  0.40729559  1
  Pd  Pd192  1  -0.00193593  0.20135657  0.00174291  1
  Pd  Pd193  1  0.19711256  -0.00863345  0.59827913  1
  Pd  Pd194  1  0.60246902  0.21239164  0.79671330  1
  Pd  Pd195  1  0.00209334  0.00229152  0.59725951  1
  Pd  Pd196  1  0.00620765  0.00368067  0.00078311  1
  Pd  Pd197  1  0.59180488  0.79763917  0.60441884  1
  Pd  Pd198  1  0.39357918  0.40630942  0.19015033  1
  Pd  Pd199  1  0.39518001  0.39748984  0.40138277  1
  Rh  Rh200  1  0.59530967  0.40228437  -0.00383110  1
  Rh  Rh201  1  0.80114790  0.59790034  0.59614695  1
  Rh  Rh202  1  0.20303899  -0.00190273  -0.00579141  1
  Rh  Rh203  1  -0.00621062  0.19947754  0.79002788  1
  Rh  Rh204  1  0.79187524  0.80088512  -0.01066230  1
  Rh  Rh205  1  -0.00215698  -0.00228931  0.39731816  1
  Rh  Rh206  1  0.19825253  0.20736447  -0.00353672  1
  Rh  Rh207  1  0.20516383  0.39420667  0.39825308  1
  Rh  Rh208  1  0.80372760  0.80137502  0.21024055  1
  Rh  Rh209  1  0.60141751  0.40872724  0.20065908  1
  Rh  Rh210  1  0.20181068  0.40424506  0.60814429  1
  Rh  Rh211  1  0.00549685  0.40427955  0.79774040  1
  Rh  Rh212  1  -0.00334039  0.20977592  0.41186254  1
  Rh  Rh213  1  -0.00276874  0.59335622  0.80437959  1
  Rh  Rh214  1  0.39258826  0.80433592  0.20247682  1
  Rh  Rh215  1  0.00098938  0.60918429  0.19353350  1
  Rh  Rh216  1  0.20726249  0.80849760  0.40103914  1
  Rh  Rh217  1  0.39500445  -0.00423455  0.39565050  1
  Rh  Rh218  1  0.60144488  0.59928382  0.40259619  1
  Rh  Rh219  1  0.00313201  0.39593459  0.19360864  1
  Rh  Rh220  1  -0.01289421  0.39585575  0.39866647  1
  Rh  Rh221  1  0.40846632  0.79676993  0.80583943  1
  Rh  Rh222  1  0.79890455  0.19204971  0.19823817  1
  Rh  Rh223  1  0.59979903  0.79712095  0.20158066  1
  Rh  Rh224  1  0.19987054  0.59563689  0.80396506  1
  Rh  Rh225  1  -0.00124842  0.59702754  0.40268349  1
  Rh  Rh226  1  0.40144757  0.60186518  0.39573504  1
  Rh  Rh227  1  0.80825230  0.79268569  0.60356991  1
  Rh  Rh228  1  0.39726997  0.79869474  0.59359291  1
  Rh  Rh229  1  0.40199567  0.59541785  0.00101247  1
  Rh  Rh230  1  0.79904011  0.41354831  0.58937506  1
  Rh  Rh231  1  0.59406734  0.00514345  0.00547250  1
  Rh  Rh232  1  0.58908671  0.79131092  0.39602324  1
  Rh  Rh233  1  0.00510471  0.39590239  0.60161715  1
  Rh  Rh234  1  0.39788545  0.59811325  0.80282561  1
  Rh  Rh235  1  0.80154547  0.41017874  0.20273679  1
  Rh  Rh236  1  0.79945712  -0.01018436  0.58649827  1
  Rh  Rh237  1  0.80759919  0.59329907  0.00727440  1
  Rh  Rh238  1  0.59958458  0.40244073  0.59992877  1
  Rh  Rh239  1  0.80202847  0.80009761  0.39764578  1
  Rh  Rh240  1  0.80836865  0.20093036  0.60118330  1
  Rh  Rh241  1  0.61110779  0.00351181  0.40798212  1
  Rh  Rh242  1  0.39890189  0.79866777  0.00017168  1
  Rh  Rh243  1  0.00854571  0.79510303  0.60263395  1
  Rh  Rh244  1  -0.00515911  0.80346829  0.79998387  1
  Rh  Rh245  1  0.19226321  0.60573586  -0.00568421  1
  Rh  Rh246  1  0.39866810  -0.00371624  0.19405804  1
  Rh  Rh247  1  0.19660300  0.20528890  0.59719490  1
  Rh  Rh248  1  0.20513764  0.39120437  0.00532804  1
  Rh  Rh249  1  0.60732123  0.59857067  0.19912839  1
