# generated using pymatgen
data_ZrScNbPdRh
_symmetry_space_group_name_H-M   'P 1'
_cell_length_a   16.56304892
_cell_length_b   16.56167195
_cell_length_c   16.56182426
_cell_angle_alpha   90.02649421
_cell_angle_beta   90.04751924
_cell_angle_gamma   90.00888396
_symmetry_Int_Tables_number   1
_chemical_formula_structural   ZrScNbPdRh
_chemical_formula_sum   'Zr50 Sc50 Nb50 Pd50 Rh50'
_cell_volume   4543.10143420
_cell_formula_units_Z   50
loop_
 _symmetry_equiv_pos_site_id
 _symmetry_equiv_pos_as_xyz
  1  'x, y, z'
loop_
 _atom_site_type_symbol
 _atom_site_label
 _atom_site_symmetry_multiplicity
 _atom_site_fract_x
 _atom_site_fract_y
 _atom_site_fract_z
 _atom_site_occupancy
  Zr  Zr0  1  0.89413110  0.10556323  0.50010610  1
  Zr  Zr1  1  0.70783661  0.49653081  0.90044323  1
  Zr  Zr2  1  0.30443699  0.90434259  0.09986707  1
  Zr  Zr3  1  0.29428174  0.09867212  0.50036096  1
  Zr  Zr4  1  0.51151269  0.50140960  0.90954078  1
  Zr  Zr5  1  0.69233104  0.49052954  0.09387987  1
  Zr  Zr6  1  0.10301444  0.50347949  0.50320955  1
  Zr  Zr7  1  0.89151684  0.89191645  0.49068524  1
  Zr  Zr8  1  0.29552937  0.09623492  0.29337256  1
  Zr  Zr9  1  0.09678386  0.29923404  0.89980104  1
  Zr  Zr10  1  0.09157782  0.29646004  0.29470785  1
  Zr  Zr11  1  0.30869688  0.29897077  0.89871863  1
  Zr  Zr12  1  0.90098800  0.90135943  0.70659173  1
  Zr  Zr13  1  0.09415612  0.69420697  0.09205430  1
  Zr  Zr14  1  0.48400865  0.90043824  0.70224847  1
  Zr  Zr15  1  0.29785158  0.10023406  0.10622988  1
  Zr  Zr16  1  0.69182742  0.89760069  0.10145942  1
  Zr  Zr17  1  0.10271045  0.69255996  0.89570402  1
  Zr  Zr18  1  0.28931403  0.89857166  0.29369574  1
  Zr  Zr19  1  0.70086293  0.10491850  0.70006357  1
  Zr  Zr20  1  0.09607319  0.90455419  0.29968102  1
  Zr  Zr21  1  0.49735581  0.09917638  0.29550877  1
  Zr  Zr22  1  0.69757058  0.89103545  0.90395578  1
  Zr  Zr23  1  0.49398794  0.09142980  0.09505489  1
  Zr  Zr24  1  0.90703061  0.89241096  0.10526325  1
  Zr  Zr25  1  0.50038126  0.70163984  0.90095125  1
  Zr  Zr26  1  0.50393698  0.69977974  0.50241006  1
  Zr  Zr27  1  0.70099352  0.10114511  0.09888435  1
  Zr  Zr28  1  0.49417755  0.30457745  0.70486453  1
  Zr  Zr29  1  0.50048924  0.09807645  0.50301179  1
  Zr  Zr30  1  0.09939958  0.49591689  0.89968642  1
  Zr  Zr31  1  0.10133375  0.09810839  0.69994329  1
  Zr  Zr32  1  0.71237455  0.89516272  0.30488243  1
  Zr  Zr33  1  0.30032904  0.69467576  0.90523959  1
  Zr  Zr34  1  0.70145526  0.30594818  0.30688554  1
  Zr  Zr35  1  0.70576754  0.89746921  0.70401841  1
  Zr  Zr36  1  0.69719020  0.69845368  0.89933061  1
  Zr  Zr37  1  0.70436141  0.90237143  0.49809033  1
  Zr  Zr38  1  0.50111283  0.90667178  0.90898582  1
  Zr  Zr39  1  0.30798619  0.50085797  0.69290825  1
  Zr  Zr40  1  0.29934096  0.50292664  0.49255115  1
  Zr  Zr41  1  0.69996533  0.10653737  0.89827088  1
  Zr  Zr42  1  0.50188644  0.31294068  0.09970844  1
  Zr  Zr43  1  0.09545296  0.29724187  0.50103788  1
  Zr  Zr44  1  0.10186217  0.30168435  0.09952339  1
  Zr  Zr45  1  0.49146020  0.50033402  0.29995149  1
  Zr  Zr46  1  0.90320224  0.70076907  0.90605012  1
  Zr  Zr47  1  0.30028333  0.70120435  0.10050470  1
  Zr  Zr48  1  0.30304554  0.70074626  0.70768555  1
  Zr  Zr49  1  0.49386987  0.68934263  0.29625254  1
  Sc  Sc50  1  0.49983478  0.69512981  0.09981892  1
  Sc  Sc51  1  0.10347389  0.10342197  0.29099782  1
  Sc  Sc52  1  0.09651730  0.90206039  0.10120878  1
  Sc  Sc53  1  0.69735604  0.10274613  0.50335689  1
  Sc  Sc54  1  0.50159382  0.50382552  0.10587281  1
  Sc  Sc55  1  0.10750637  0.10366369  0.49777044  1
  Sc  Sc56  1  0.89770321  0.70766846  0.28948261  1
  Sc  Sc57  1  0.09916958  0.49650204  0.09921856  1
  Sc  Sc58  1  0.70970392  0.30834303  0.90214724  1
  Sc  Sc59  1  0.70077537  0.50049006  0.70242585  1
  Sc  Sc60  1  0.50704592  0.89626805  0.29212902  1
  Sc  Sc61  1  0.30217569  0.30244760  0.09835836  1
  Sc  Sc62  1  0.30204287  0.49648776  0.09504252  1
  Sc  Sc63  1  0.50121573  0.89829513  0.50858586  1
  Sc  Sc64  1  0.90207519  0.29897393  0.69648987  1
  Sc  Sc65  1  0.09591352  0.29153989  0.70152715  1
  Sc  Sc66  1  0.90671763  0.29835876  0.09160088  1
  Sc  Sc67  1  0.29882201  0.30392977  0.49666185  1
  Sc  Sc68  1  0.30027848  0.50437390  0.90474697  1
  Sc  Sc69  1  0.69738452  0.30126261  0.70265238  1
  Sc  Sc70  1  0.10688226  0.89910482  0.49524216  1
  Sc  Sc71  1  0.10442831  0.69521095  0.49854782  1
  Sc  Sc72  1  0.50047723  0.69844743  0.69923056  1
  Sc  Sc73  1  0.90088866  0.30894082  0.89654253  1
  Sc  Sc74  1  0.90968874  0.09930259  0.90308849  1
  Sc  Sc75  1  0.69983766  0.69988110  0.10393996  1
  Sc  Sc76  1  0.49890106  0.10868943  0.69802209  1
  Sc  Sc77  1  0.50432871  0.30624537  0.50495982  1
  Sc  Sc78  1  0.49723662  0.49910122  0.50206676  1
  Sc  Sc79  1  0.31390269  0.10633900  0.89999827  1
  Sc  Sc80  1  0.89593214  0.69183162  0.69964713  1
  Sc  Sc81  1  0.69144886  0.50086322  0.29892862  1
  Sc  Sc82  1  0.69487512  0.70257331  0.29879802  1
  Sc  Sc83  1  0.29617532  0.30711429  0.29427678  1
  Sc  Sc84  1  0.08590962  0.89336999  0.89730616  1
  Sc  Sc85  1  0.09692088  0.49571632  0.29094194  1
  Sc  Sc86  1  0.49652247  0.31024938  0.30041918  1
  Sc  Sc87  1  0.50708131  0.49445326  0.69170064  1
  Sc  Sc88  1  0.69043619  0.50009933  0.50259842  1
  Sc  Sc89  1  0.70117494  0.70693165  0.50680572  1
  Sc  Sc90  1  0.31006929  0.89245588  0.89901137  1
  Sc  Sc91  1  0.10390250  0.70841493  0.30815280  1
  Sc  Sc92  1  0.89825743  0.89570223  0.89896104  1
  Sc  Sc93  1  0.30085767  0.10301185  0.69037345  1
  Sc  Sc94  1  0.89502321  0.10040759  0.70360137  1
  Sc  Sc95  1  0.69615634  0.09358903  0.31093293  1
  Sc  Sc96  1  0.09132925  0.50853179  0.70221681  1
  Sc  Sc97  1  0.90139489  0.50024072  0.70347147  1
  Sc  Sc98  1  0.91292304  0.10860975  0.29864168  1
  Sc  Sc99  1  0.29860094  0.90659486  0.50926103  1
  Nb  Nb100  1  0.29331936  0.69008173  0.49637211  1
  Nb  Nb101  1  0.89818070  0.49520934  0.89695167  1
  Nb  Nb102  1  0.30104184  0.69513670  0.30379085  1
  Nb  Nb103  1  0.89750942  0.30337180  0.30366190  1
  Nb  Nb104  1  0.30445583  0.50958615  0.30560983  1
  Nb  Nb105  1  0.10278603  0.70199394  0.70195042  1
  Nb  Nb106  1  0.69935715  0.69940770  0.70395626  1
  Nb  Nb107  1  0.70290644  0.30225349  0.10012357  1
  Nb  Nb108  1  0.71118634  0.30178884  0.49701040  1
  Nb  Nb109  1  0.90134058  0.90072525  0.30201467  1
  Nb  Nb110  1  0.90020494  0.50081729  0.29680015  1
  Nb  Nb111  1  0.90594952  0.09564648  0.09929272  1
  Nb  Nb112  1  0.90042021  0.50032529  0.50020068  1
  Nb  Nb113  1  0.89475548  0.29988064  0.49156599  1
  Nb  Nb114  1  0.08618168  0.10073209  0.09213849  1
  Nb  Nb115  1  0.29577885  0.90261631  0.70097444  1
  Nb  Nb116  1  0.09945393  0.89781971  0.70164535  1
  Nb  Nb117  1  0.90100613  0.69068025  0.10241379  1
  Nb  Nb118  1  0.30147886  0.30504558  0.70006823  1
  Nb  Nb119  1  0.10024978  0.09754506  0.89863107  1
  Nb  Nb120  1  0.49719254  0.28644789  0.89912830  1
  Nb  Nb121  1  0.90343697  0.50899184  0.11498844  1
  Nb  Nb122  1  0.90191292  0.69718309  0.49589925  1
  Nb  Nb123  1  0.50172102  0.90684334  0.09457528  1
  Nb  Nb124  1  0.50207628  0.10649507  0.89981815  1
  Nb  Nb125  1  0.00396773  0.79912009  0.60070770  1
  Nb  Nb126  1  0.59811607  0.00229476  0.80217601  1
  Nb  Nb127  1  -0.00224548  -0.00214887  0.40264978  1
  Nb  Nb128  1  0.39343211  0.79690893  0.39955249  1
  Nb  Nb129  1  0.79990452  0.20239146  0.19844328  1
  Nb  Nb130  1  0.80460838  0.39801887  0.20086293  1
  Nb  Nb131  1  0.19906747  0.79658988  0.60910157  1
  Nb  Nb132  1  0.80747442  0.59687102  0.40155205  1
  Nb  Nb133  1  0.19965660  0.40113271  0.60613909  1
  Nb  Nb134  1  0.39947863  0.19453954  0.39824609  1
  Nb  Nb135  1  0.59798496  0.20380214  0.00202362  1
  Nb  Nb136  1  -0.01103046  0.40206852  0.40129108  1
  Nb  Nb137  1  0.20612978  0.60322538  0.20461096  1
  Nb  Nb138  1  -0.00799033  0.59636753  0.39820401  1
  Nb  Nb139  1  0.19954934  -0.00227354  0.80212898  1
  Nb  Nb140  1  0.19579704  0.00575795  -0.00735039  1
  Nb  Nb141  1  0.19442418  0.19360776  -0.00190238  1
  Nb  Nb142  1  0.80358729  0.39793301  0.58792349  1
  Nb  Nb143  1  0.60448618  0.20479971  0.19567849  1
  Nb  Nb144  1  0.80794499  0.59524545  0.00560049  1
  Nb  Nb145  1  0.80216938  -0.00133567  0.00725723  1
  Nb  Nb146  1  0.39718741  -0.00211853  0.39670821  1
  Nb  Nb147  1  0.80765679  0.00261509  0.19839713  1
  Nb  Nb148  1  -0.00041689  -0.00775957  0.59630270  1
  Nb  Nb149  1  0.20387809  0.39766619  0.79415798  1
  Pd  Pd150  1  -0.00400456  0.58771856  -0.00453533  1
  Pd  Pd151  1  0.20184378  0.58950889  0.79585638  1
  Pd  Pd152  1  0.60368122  0.20920905  0.59905039  1
  Pd  Pd153  1  0.60698250  0.00323125  0.20432218  1
  Pd  Pd154  1  0.60165522  0.80291855  0.60937714  1
  Pd  Pd155  1  0.59210144  -0.00979568  0.40234544  1
  Pd  Pd156  1  0.39703518  0.20792874  0.59261472  1
  Pd  Pd157  1  0.40638357  0.21025278  0.20153573  1
  Pd  Pd158  1  0.40598168  0.79798341  0.00493542  1
  Pd  Pd159  1  0.20910399  0.80351347  0.41057956  1
  Pd  Pd160  1  0.20820357  0.19719818  0.80228980  1
  Pd  Pd161  1  0.80655634  0.20791109  0.80180183  1
  Pd  Pd162  1  0.39907148  0.00859089  0.79963668  1
  Pd  Pd163  1  0.59728239  0.59722486  0.79382926  1
  Pd  Pd164  1  0.59358575  0.80225405  0.40016620  1
  Pd  Pd165  1  0.40343491  0.60219064  0.59673579  1
  Pd  Pd166  1  0.60579508  0.60217086  0.40228684  1
  Pd  Pd167  1  0.20258683  0.80675609  0.80500867  1
  Pd  Pd168  1  0.59499016  0.40246288  0.40441676  1
  Pd  Pd169  1  0.59226716  0.20696166  0.39724495  1
  Pd  Pd170  1  0.00645762  0.79286225  0.20146275  1
  Pd  Pd171  1  -0.00601258  0.79013269  0.79465079  1
  Pd  Pd172  1  -0.00103983  0.39836809  0.59928237  1
  Pd  Pd173  1  0.40482625  0.80226579  0.20285633  1
  Pd  Pd174  1  0.78844730  0.59589037  0.20272394  1
  Pd  Pd175  1  0.38827414  0.79409774  0.59285354  1
  Pd  Pd176  1  0.40399050  0.40458383  -0.00376287  1
  Pd  Pd177  1  0.59202047  0.80648058  0.79374629  1
  Pd  Pd178  1  -0.00344410  0.19137885  0.59837580  1
  Pd  Pd179  1  0.80627691  0.79563454  0.60579518  1
  Pd  Pd180  1  0.60028814  -0.00331302  0.61039280  1
  Pd  Pd181  1  0.41017369  0.59165019  0.80188736  1
  Pd  Pd182  1  0.79268393  0.59399565  0.59513048  1
  Pd  Pd183  1  0.60053059  0.39554611  0.80498328  1
  Pd  Pd184  1  0.20657010  0.40981906  0.20014757  1
  Pd  Pd185  1  0.59419183  0.79435098  0.19585065  1
  Pd  Pd186  1  0.80430930  0.00176762  0.59951359  1
  Pd  Pd187  1  0.19284700  0.79276909  0.19440334  1
  Pd  Pd188  1  0.79653141  0.00013963  0.81281429  1
  Pd  Pd189  1  0.20506397  0.20508290  0.39367636  1
  Pd  Pd190  1  0.80391265  0.19800426  0.00027711  1
  Pd  Pd191  1  -0.00784553  0.19854581  0.80050673  1
  Pd  Pd192  1  0.80358482  0.60108910  0.80626967  1
  Pd  Pd193  1  0.40095527  0.41007721  0.80711807  1
  Pd  Pd194  1  0.19363022  0.80932997  -0.00471476  1
  Pd  Pd195  1  0.00058836  0.60803473  0.59814794  1
  Pd  Pd196  1  0.79841022  0.19110376  0.39144430  1
  Pd  Pd197  1  -0.00580053  0.40664530  0.00502301  1
  Pd  Pd198  1  0.80226144  0.79616678  0.00923893  1
  Pd  Pd199  1  0.19112624  0.40160471  0.39936698  1
  Rh  Rh200  1  -0.00541087  0.20489604  0.19449932  1
  Rh  Rh201  1  0.80112427  0.80365221  0.19708235  1
  Rh  Rh202  1  0.60864203  0.60456500  0.00341304  1
  Rh  Rh203  1  0.80258481  0.79113422  0.79686718  1
  Rh  Rh204  1  0.39160642  0.00205106  -0.00448722  1
  Rh  Rh205  1  0.59675832  0.38850468  -0.01124812  1
  Rh  Rh206  1  0.19327599  0.19894795  0.18989985  1
  Rh  Rh207  1  0.40191817  0.79747249  0.80329644  1
  Rh  Rh208  1  0.80070734  0.41112657  0.39968666  1
  Rh  Rh209  1  0.40276499  0.59902918  0.00152719  1
  Rh  Rh210  1  0.60453115  0.60375009  0.60451305  1
  Rh  Rh211  1  0.61060471  0.39586016  0.59919566  1
  Rh  Rh212  1  0.60028662  0.20110173  0.80449479  1
  Rh  Rh213  1  0.40530500  0.60628572  0.40927161  1
  Rh  Rh214  1  0.20210362  0.21250435  0.60174133  1
  Rh  Rh215  1  0.20323227  0.39095331  -0.00982701  1
  Rh  Rh216  1  0.80440594  0.39867187  0.78506951  1
  Rh  Rh217  1  0.79684572  0.20837514  0.60197730  1
  Rh  Rh218  1  0.39960599  0.00260246  0.59627678  1
  Rh  Rh219  1  0.00326387  0.19935644  0.40214816  1
  Rh  Rh220  1  0.39817622  0.19624894  0.78890200  1
  Rh  Rh221  1  0.60486634  0.39859605  0.20579170  1
  Rh  Rh222  1  0.00501482  0.40081610  0.79654568  1
  Rh  Rh223  1  0.60658233  0.00701265  -0.00951323  1
  Rh  Rh224  1  0.39406813  0.39791827  0.59365848  1
  Rh  Rh225  1  0.39378965  0.40584568  0.20206683  1
  Rh  Rh226  1  0.40204578  0.20034283  0.01012856  1
  Rh  Rh227  1  0.79890035  0.78463327  0.39425344  1
  Rh  Rh228  1  -0.00116284  0.00299134  0.20824690  1
  Rh  Rh229  1  -0.00282100  -0.00717294  -0.00567026  1
  Rh  Rh230  1  0.00119500  0.20305041  -0.00506193  1
  Rh  Rh231  1  0.40274940  -0.01235348  0.20628782  1
  Rh  Rh232  1  0.39837604  0.39501627  0.39987639  1
  Rh  Rh233  1  0.18678445  0.00446606  0.18657755  1
  Rh  Rh234  1  0.18774912  0.59315958  0.38806223  1
  Rh  Rh235  1  0.59353369  0.79338331  0.00727550  1
  Rh  Rh236  1  0.20250096  0.60120241  0.60877447  1
  Rh  Rh237  1  0.20071898  0.59613313  0.00958367  1
  Rh  Rh238  1  0.19201987  -0.00693961  0.60864987  1
  Rh  Rh239  1  -0.00732677  0.39280536  0.20013553  1
  Rh  Rh240  1  -0.00293252  0.79904842  0.40464000  1
  Rh  Rh241  1  0.60102007  0.59786194  0.19921280  1
  Rh  Rh242  1  0.00005219  0.79829986  0.00273789  1
  Rh  Rh243  1  0.19800412  0.00032576  0.39714572  1
  Rh  Rh244  1  0.81383060  0.41148853  0.01208436  1
  Rh  Rh245  1  0.01316156  0.60932075  0.21045409  1
  Rh  Rh246  1  0.00396959  0.00250316  0.79529138  1
  Rh  Rh247  1  0.39085926  0.59552108  0.19313341  1
  Rh  Rh248  1  0.81016455  0.00886720  0.39118753  1
  Rh  Rh249  1  -0.00302857  0.60229357  0.80352666  1
