# generated using pymatgen
data_ZrScNbPdRh
_symmetry_space_group_name_H-M   'P 1'
_cell_length_a   16.56646462
_cell_length_b   16.55966627
_cell_length_c   16.55848631
_cell_angle_alpha   89.97541183
_cell_angle_beta   89.99333468
_cell_angle_gamma   89.99493827
_symmetry_Int_Tables_number   1
_chemical_formula_structural   ZrScNbPdRh
_chemical_formula_sum   'Zr50 Sc50 Nb50 Pd50 Rh50'
_cell_volume   4542.57395104
_cell_formula_units_Z   50
loop_
 _symmetry_equiv_pos_site_id
 _symmetry_equiv_pos_as_xyz
  1  'x, y, z'
loop_
 _atom_site_type_symbol
 _atom_site_label
 _atom_site_symmetry_multiplicity
 _atom_site_fract_x
 _atom_site_fract_y
 _atom_site_fract_z
 _atom_site_occupancy
  Zr  Zr0  1  0.89730135  0.09963169  0.49677611  1
  Zr  Zr1  1  0.30218501  0.29903957  0.69719397  1
  Zr  Zr2  1  0.30992179  0.10458939  0.70322544  1
  Zr  Zr3  1  0.91039688  0.11454256  0.89585798  1
  Zr  Zr4  1  0.90222298  0.89592497  0.89609979  1
  Zr  Zr5  1  0.10518104  0.69651970  0.10643411  1
  Zr  Zr6  1  0.90201857  0.90096036  0.10427761  1
  Zr  Zr7  1  0.49560922  0.30551721  0.50822068  1
  Zr  Zr8  1  0.10357435  0.29334136  0.10375447  1
  Zr  Zr9  1  0.90159319  0.30324563  0.70638777  1
  Zr  Zr10  1  0.49716496  0.09625114  0.29883988  1
  Zr  Zr11  1  0.50024974  0.31464664  0.30351216  1
  Zr  Zr12  1  0.09113086  0.49698373  0.70028870  1
  Zr  Zr13  1  0.89891064  0.70015518  0.50898949  1
  Zr  Zr14  1  0.88984132  0.70166005  0.09773923  1
  Zr  Zr15  1  0.29135838  0.89932016  0.49968191  1
  Zr  Zr16  1  0.29636944  0.10455477  0.90387795  1
  Zr  Zr17  1  0.49740255  0.70036877  0.29835727  1
  Zr  Zr18  1  0.70423390  0.30585457  0.89459708  1
  Zr  Zr19  1  0.09705474  0.50753435  0.89249469  1
  Zr  Zr20  1  0.90215525  0.29195249  0.30118827  1
  Zr  Zr21  1  0.49959831  0.49642900  0.30028041  1
  Zr  Zr22  1  0.49916578  0.69731396  0.90038120  1
  Zr  Zr23  1  0.30790445  0.69556002  0.90014885  1
  Zr  Zr24  1  0.91553086  0.10034600  0.10588296  1
  Zr  Zr25  1  0.50083594  0.89413600  0.10003527  1
  Zr  Zr26  1  0.09794077  0.49153002  0.09935924  1
  Zr  Zr27  1  0.90073156  0.50441424  0.10014408  1
  Zr  Zr28  1  0.50350181  0.50236629  0.89842379  1
  Zr  Zr29  1  0.50228613  0.10131200  0.50780653  1
  Zr  Zr30  1  0.70231592  0.69133684  0.90308143  1
  Zr  Zr31  1  0.49680906  0.89966716  0.90225097  1
  Zr  Zr32  1  0.90306564  0.90309858  0.49969496  1
  Zr  Zr33  1  0.90375377  0.89606436  0.69413116  1
  Zr  Zr34  1  0.09706499  0.90607418  0.50133269  1
  Zr  Zr35  1  0.30269690  0.90077196  0.30211122  1
  Zr  Zr36  1  0.50057797  0.89350998  0.29699359  1
  Zr  Zr37  1  0.30043322  0.49711998  0.09631857  1
  Zr  Zr38  1  0.70673071  0.89027374  0.09907027  1
  Zr  Zr39  1  0.70124559  0.10583549  0.89774438  1
  Zr  Zr40  1  0.70458292  0.69381042  0.69896980  1
  Zr  Zr41  1  0.49447362  0.90297081  0.70662787  1
  Zr  Zr42  1  0.89665204  0.49753151  0.31149505  1
  Zr  Zr43  1  0.70689038  0.10331441  0.50415754  1
  Zr  Zr44  1  0.90249552  0.90830912  0.30271625  1
  Zr  Zr45  1  0.29612009  0.90306377  0.10732346  1
  Zr  Zr46  1  0.50634841  0.49128371  0.10382793  1
  Zr  Zr47  1  0.29719261  0.09248435  0.29703233  1
  Zr  Zr48  1  0.30600780  0.50042014  0.89507942  1
  Zr  Zr49  1  0.69521479  0.49924822  0.30461175  1
  Sc  Sc50  1  0.70510282  0.89122394  0.29983422  1
  Sc  Sc51  1  0.09385924  0.68843728  0.69834723  1
  Sc  Sc52  1  0.69766738  0.89836929  0.90138134  1
  Sc  Sc53  1  0.30098049  0.50096615  0.70359587  1
  Sc  Sc54  1  0.71780036  0.10563016  0.30153579  1
  Sc  Sc55  1  0.89815481  0.50064282  0.89632747  1
  Sc  Sc56  1  0.89327318  0.70187841  0.30915575  1
  Sc  Sc57  1  0.29146290  0.10221573  0.50202409  1
  Sc  Sc58  1  0.29889473  0.29869915  0.50182582  1
  Sc  Sc59  1  0.10025574  0.90743196  0.30596114  1
  Sc  Sc60  1  0.10030403  0.91147238  0.89289276  1
  Sc  Sc61  1  0.69604966  0.49798947  0.89839027  1
  Sc  Sc62  1  0.09629948  0.89979943  0.69620943  1
  Sc  Sc63  1  0.90496742  0.10211089  0.30208529  1
  Sc  Sc64  1  0.69771135  0.10377270  0.68930730  1
  Sc  Sc65  1  0.89993416  0.50190430  0.50308441  1
  Sc  Sc66  1  0.08575400  0.30317108  0.89671957  1
  Sc  Sc67  1  0.09719378  0.30240560  0.30459662  1
  Sc  Sc68  1  0.50786682  0.89025705  0.49541067  1
  Sc  Sc69  1  0.89483160  0.30203731  0.49922785  1
  Sc  Sc70  1  0.70878055  0.49693964  0.50200733  1
  Sc  Sc71  1  0.70462104  0.89736810  0.50118335  1
  Sc  Sc72  1  0.70299949  0.89921261  0.69411040  1
  Sc  Sc73  1  0.70151568  0.49923727  0.70425004  1
  Sc  Sc74  1  0.30943947  0.89788233  0.89279047  1
  Sc  Sc75  1  0.89850155  0.69469503  0.89452096  1
  Sc  Sc76  1  0.48377439  0.49605075  0.50200031  1
  Sc  Sc77  1  0.69933911  0.30708099  0.09026668  1
  Sc  Sc78  1  0.50114166  0.70065749  0.10044913  1
  Sc  Sc79  1  0.70492640  0.10408737  0.09586714  1
  Sc  Sc80  1  0.09993543  0.09513167  0.69957888  1
  Sc  Sc81  1  0.30123833  0.49968273  0.30541178  1
  Sc  Sc82  1  0.69778423  0.50839672  0.09447511  1
  Sc  Sc83  1  0.70148090  0.30382673  0.50431321  1
  Sc  Sc84  1  0.90791134  0.29954477  0.09575285  1
  Sc  Sc85  1  0.29170377  0.30109798  0.29857904  1
  Sc  Sc86  1  0.50236765  0.10463223  0.89127542  1
  Sc  Sc87  1  0.69992304  0.30711729  0.69560354  1
  Sc  Sc88  1  0.30808524  0.30319484  0.89777033  1
  Sc  Sc89  1  0.49847422  0.49387711  0.70102762  1
  Sc  Sc90  1  0.69707045  0.70262800  0.50402936  1
  Sc  Sc91  1  0.09631576  0.10664238  0.29976769  1
  Sc  Sc92  1  0.29318396  0.29977914  0.09263552  1
  Sc  Sc93  1  0.50229636  0.68525732  0.69456203  1
  Sc  Sc94  1  0.70191579  0.30886234  0.30684679  1
  Sc  Sc95  1  0.50407445  0.10275505  0.08898222  1
  Sc  Sc96  1  0.29389966  0.89940561  0.70336160  1
  Sc  Sc97  1  0.89771981  0.50342686  0.69806955  1
  Sc  Sc98  1  0.69935664  0.70128068  0.29800836  1
  Sc  Sc99  1  0.50439371  0.10744600  0.70121739  1
  Nb  Nb100  1  0.11037750  0.09952303  0.08944021  1
  Nb  Nb101  1  0.49199166  0.29904221  0.70130263  1
  Nb  Nb102  1  0.50698969  0.30479221  0.89556770  1
  Nb  Nb103  1  0.50247807  0.30144711  0.10417727  1
  Nb  Nb104  1  0.10737275  0.68412969  0.49811819  1
  Nb  Nb105  1  0.29058470  0.50416079  0.50543168  1
  Nb  Nb106  1  0.10197213  0.50496125  0.49721314  1
  Nb  Nb107  1  0.10358600  0.29263098  0.50503623  1
  Nb  Nb108  1  0.29560222  0.68667292  0.50584587  1
  Nb  Nb109  1  0.89552804  0.69871962  0.70005019  1
  Nb  Nb110  1  0.09605508  0.50514158  0.31041305  1
  Nb  Nb111  1  0.28988792  0.10725658  0.09721386  1
  Nb  Nb112  1  0.09768810  0.30127940  0.69906428  1
  Nb  Nb113  1  0.29473789  0.69972229  0.29422804  1
  Nb  Nb114  1  0.89667299  0.29844326  0.89398693  1
  Nb  Nb115  1  0.49588164  0.69622505  0.49918233  1
  Nb  Nb116  1  0.09612881  0.90222489  0.09879492  1
  Nb  Nb117  1  0.10464251  0.69412416  0.30256902  1
  Nb  Nb118  1  0.89764490  0.10104578  0.69280144  1
  Nb  Nb119  1  0.09813647  0.10484240  0.50103958  1
  Nb  Nb120  1  0.29455264  0.69323078  0.69593410  1
  Nb  Nb121  1  0.29721154  0.70337636  0.10493438  1
  Nb  Nb122  1  0.70561856  0.70250237  0.09754632  1
  Nb  Nb123  1  0.10234841  0.10838564  0.90444942  1
  Nb  Nb124  1  0.10302307  0.69707585  0.90142287  1
  Nb  Nb125  1  0.00504778  0.79605926  0.20105822  1
  Nb  Nb126  1  0.60387403  0.00500690  0.39518826  1
  Nb  Nb127  1  0.20256619  0.60290885  0.00036502  1
  Nb  Nb128  1  0.59723955  0.79443776  0.79918592  1
  Nb  Nb129  1  0.59179444  0.60093661  0.40406786  1
  Nb  Nb130  1  0.00352408  0.60008520  0.20920405  1
  Nb  Nb131  1  0.00260569  0.20059748  0.60065956  1
  Nb  Nb132  1  0.19817977  0.79767183  -0.00033929  1
  Nb  Nb133  1  0.39021105  0.78735841  0.40427336  1
  Nb  Nb134  1  0.40124883  0.20075779  0.19662430  1
  Nb  Nb135  1  0.20011827  0.78555949  0.40304575  1
  Nb  Nb136  1  0.19083549  0.40105025  0.59667196  1
  Nb  Nb137  1  0.80430323  0.40428411  0.20034353  1
  Nb  Nb138  1  0.19366926  0.20155183  0.80069477  1
  Nb  Nb139  1  0.59605499  0.19865425  0.39884757  1
  Nb  Nb140  1  0.40387066  0.19975661  0.39475412  1
  Nb  Nb141  1  0.59579487  0.20309663  0.20378000  1
  Nb  Nb142  1  0.80840317  0.00376038  -0.00655842  1
  Nb  Nb143  1  0.00873253  0.79947073  0.00239034  1
  Nb  Nb144  1  0.60319489  0.00308316  0.20223201  1
  Nb  Nb145  1  0.39397935  0.00459141  0.00215836  1
  Nb  Nb146  1  0.19865291  0.78797353  0.80312290  1
  Nb  Nb147  1  0.80600122  0.00631271  0.79949866  1
  Nb  Nb148  1  0.40074502  -0.00774433  0.59978910  1
  Nb  Nb149  1  0.39341072  0.79318849  0.59510431  1
  Pd  Pd150  1  0.80695966  0.19874745  0.00555634  1
  Pd  Pd151  1  -0.00452548  0.40306916  0.20692876  1
  Pd  Pd152  1  0.40474330  0.20094749  0.00021241  1
  Pd  Pd153  1  0.59951768  0.40569261  0.60067711  1
  Pd  Pd154  1  0.00083824  0.39370941  0.40888766  1
  Pd  Pd155  1  0.60262747  0.79352097  -0.00435476  1
  Pd  Pd156  1  0.19966794  0.40062858  0.40660371  1
  Pd  Pd157  1  0.20407767  0.00512823  0.60556715  1
  Pd  Pd158  1  -0.00682104  0.60538563  0.40224016  1
  Pd  Pd159  1  0.80459957  0.40570440  0.00155002  1
  Pd  Pd160  1  0.19873763  0.39356056  0.79796584  1
  Pd  Pd161  1  0.39673143  0.59920181  0.39961392  1
  Pd  Pd162  1  0.60982138  -0.00453675  0.79635288  1
  Pd  Pd163  1  -0.00257075  0.00722618  0.79589843  1
  Pd  Pd164  1  0.80208950  0.59645328  0.20591974  1
  Pd  Pd165  1  0.60418565  0.00088843  0.00392936  1
  Pd  Pd166  1  0.00203060  0.60521163  0.00406577  1
  Pd  Pd167  1  0.40615417  -0.00320797  0.41267130  1
  Pd  Pd168  1  0.40615263  0.00923365  0.18536747  1
  Pd  Pd169  1  0.19875864  0.40366633  0.20656570  1
  Pd  Pd170  1  0.00911531  0.79407432  0.39768874  1
  Pd  Pd171  1  0.79387936  0.21281662  0.19292725  1
  Pd  Pd172  1  0.00896063  0.79276170  0.80185685  1
  Pd  Pd173  1  0.19894406  0.58558449  0.19996025  1
  Pd  Pd174  1  -0.00022656  0.39598626  0.59186674  1
  Pd  Pd175  1  0.79753465  0.79907297  0.40442680  1
  Pd  Pd176  1  0.59324062  0.79894443  0.60811094  1
  Pd  Pd177  1  0.20421595  0.19678529  0.39538716  1
  Pd  Pd178  1  0.00933570  0.79025096  0.59840463  1
  Pd  Pd179  1  0.79134382  0.80374794  0.80011002  1
  Pd  Pd180  1  0.39913883  0.59982408  0.19447082  1
  Pd  Pd181  1  0.19569056  0.79304397  0.60325125  1
  Pd  Pd182  1  0.20549994  -0.01019159  -0.00675180  1
  Pd  Pd183  1  0.59657134  -0.00816367  0.59516303  1
  Pd  Pd184  1  0.19542923  0.40057003  -0.01296744  1
  Pd  Pd185  1  -0.00510070  0.39829891  -0.00695102  1
  Pd  Pd186  1  0.40782336  0.39479716  -0.00131617  1
  Pd  Pd187  1  0.60055448  0.58788122  0.59107942  1
  Pd  Pd188  1  0.60448548  0.20778357  0.79046909  1
  Pd  Pd189  1  0.40006550  0.78630844  0.78516713  1
  Pd  Pd190  1  0.20083635  0.00268194  0.79813952  1
  Pd  Pd191  1  0.79515604  0.00301665  0.19487189  1
  Pd  Pd192  1  0.19300610  0.80771329  0.20601807  1
  Pd  Pd193  1  -0.00079706  -0.00159442  -0.00467920  1
  Pd  Pd194  1  0.18884640  0.00484657  0.20193769  1
  Pd  Pd195  1  0.59852706  0.20723595  0.00014156  1
  Pd  Pd196  1  0.40103678  0.59974824  0.01109880  1
  Pd  Pd197  1  0.38767571  0.39282515  0.19713954  1
  Pd  Pd198  1  0.79325438  0.19786875  0.78843871  1
  Pd  Pd199  1  0.60258676  0.60551542  0.20172005  1
  Rh  Rh200  1  0.80137689  0.59577671  0.79876194  1
  Rh  Rh201  1  0.59737137  0.39944064  -0.00325641  1
  Rh  Rh202  1  0.60639183  0.80015509  0.19630064  1
  Rh  Rh203  1  -0.00121265  0.00783945  0.59802567  1
  Rh  Rh204  1  0.39688329  0.59834919  0.60446980  1
  Rh  Rh205  1  0.79641472  -0.00337490  0.39989002  1
  Rh  Rh206  1  0.80198512  0.80057365  0.59987553  1
  Rh  Rh207  1  0.00022061  0.20224918  0.40884995  1
  Rh  Rh208  1  0.00830442  0.00056661  0.20199441  1
  Rh  Rh209  1  0.38708763  0.40413156  0.60200923  1
  Rh  Rh210  1  -0.00343173  0.60094617  0.59882411  1
  Rh  Rh211  1  0.39045612  0.80817916  0.01189060  1
  Rh  Rh212  1  0.00379407  0.20570344  0.00292456  1
  Rh  Rh213  1  0.78848260  0.60454391  0.40721527  1
  Rh  Rh214  1  -0.00799741  0.60399079  0.79617766  1
  Rh  Rh215  1  0.79541253  0.20536911  0.40407991  1
  Rh  Rh216  1  0.00745667  0.19660911  0.78986814  1
  Rh  Rh217  1  0.00241414  0.00819799  0.40157825  1
  Rh  Rh218  1  0.39718201  0.79419595  0.20150587  1
  Rh  Rh219  1  0.59676409  0.79486436  0.39857012  1
  Rh  Rh220  1  0.19455038  0.21257746  -0.01094094  1
  Rh  Rh221  1  0.19165863  0.00391988  0.40204168  1
  Rh  Rh222  1  0.80385525  -0.00410696  0.60417964  1
  Rh  Rh223  1  0.59701360  0.39714155  0.79544235  1
  Rh  Rh224  1  0.39967399  0.20486080  0.80552109  1
  Rh  Rh225  1  0.80104904  0.59952205  0.60091475  1
  Rh  Rh226  1  0.80373007  0.40200878  0.60407726  1
  Rh  Rh227  1  0.80580847  0.80225631  -0.00794307  1
  Rh  Rh228  1  0.19443277  0.58853472  0.60889878  1
  Rh  Rh229  1  0.38776126  0.39623769  0.40613685  1
  Rh  Rh230  1  0.79769627  0.59494595  -0.00492365  1
  Rh  Rh231  1  -0.00709925  0.40338690  0.80337513  1
  Rh  Rh232  1  0.80230249  0.40210550  0.80115105  1
  Rh  Rh233  1  0.20621506  0.59830639  0.39383839  1
  Rh  Rh234  1  0.40170635  0.00844405  0.80186315  1
  Rh  Rh235  1  0.80719738  0.79756425  0.20638105  1
  Rh  Rh236  1  0.19382895  0.20293220  0.60993046  1
  Rh  Rh237  1  0.59922707  0.21179496  0.59857178  1
  Rh  Rh238  1  0.80209278  0.39723491  0.39901282  1
  Rh  Rh239  1  0.60096836  0.60077256  0.80024937  1
  Rh  Rh240  1  0.39995645  0.19439826  0.59399870  1
  Rh  Rh241  1  0.80731648  0.20682521  0.60199576  1
  Rh  Rh242  1  0.59843146  0.40624069  0.41288006  1
  Rh  Rh243  1  0.00933664  0.19729291  0.19761922  1
  Rh  Rh244  1  0.20312771  0.60225280  0.80099049  1
  Rh  Rh245  1  0.40318282  0.59847093  0.79267069  1
  Rh  Rh246  1  0.40648066  0.39902709  0.79948047  1
  Rh  Rh247  1  0.20130113  0.19806385  0.20208773  1
  Rh  Rh248  1  0.61513278  0.39561204  0.19349244  1
  Rh  Rh249  1  0.59895366  0.60163508  0.00467156  1
