# generated using pymatgen
data_ZrScNbPdRh
_symmetry_space_group_name_H-M   'P 1'
_cell_length_a   16.55420159
_cell_length_b   16.56299988
_cell_length_c   16.55949619
_cell_angle_alpha   89.95029180
_cell_angle_beta   90.00460962
_cell_angle_gamma   90.00261915
_symmetry_Int_Tables_number   1
_chemical_formula_structural   ZrScNbPdRh
_chemical_formula_sum   'Zr50 Sc50 Nb50 Pd50 Rh50'
_cell_volume   4540.40081081
_cell_formula_units_Z   50
loop_
 _symmetry_equiv_pos_site_id
 _symmetry_equiv_pos_as_xyz
  1  'x, y, z'
loop_
 _atom_site_type_symbol
 _atom_site_label
 _atom_site_symmetry_multiplicity
 _atom_site_fract_x
 _atom_site_fract_y
 _atom_site_fract_z
 _atom_site_occupancy
  Zr  Zr0  1  0.90356337  0.28773336  0.29563718  1
  Zr  Zr1  1  0.70116196  0.90871133  0.10075500  1
  Zr  Zr2  1  0.90372448  0.69943292  0.10415518  1
  Zr  Zr3  1  0.10168101  0.50110150  0.30320053  1
  Zr  Zr4  1  0.70006102  0.90231888  0.29926582  1
  Zr  Zr5  1  0.89393904  0.89807199  0.69506318  1
  Zr  Zr6  1  0.49353365  0.69708316  0.10250606  1
  Zr  Zr7  1  0.50745552  0.49901501  0.10544360  1
  Zr  Zr8  1  0.29712202  0.70301798  0.69540461  1
  Zr  Zr9  1  0.70518587  0.09857646  0.28761238  1
  Zr  Zr10  1  0.10798679  0.48521623  0.90613321  1
  Zr  Zr11  1  0.90382231  0.89574916  0.09555260  1
  Zr  Zr12  1  0.10269510  0.70064038  0.10343219  1
  Zr  Zr13  1  0.10530115  0.70290423  0.90111701  1
  Zr  Zr14  1  0.69903228  0.09598095  0.89517688  1
  Zr  Zr15  1  0.31002495  0.70283488  0.29921274  1
  Zr  Zr16  1  0.51267313  0.11278109  0.30465397  1
  Zr  Zr17  1  0.10700429  0.90170044  0.49514349  1
  Zr  Zr18  1  0.90520022  0.90384419  0.29358425  1
  Zr  Zr19  1  0.50337438  0.30597396  0.11030760  1
  Zr  Zr20  1  0.89464956  0.90162911  0.50262250  1
  Zr  Zr21  1  0.89464829  0.69603463  0.90412792  1
  Zr  Zr22  1  0.90174381  0.29846042  0.09076934  1
  Zr  Zr23  1  0.10661685  0.89458851  0.70221987  1
  Zr  Zr24  1  0.70645196  0.30845389  0.09811764  1
  Zr  Zr25  1  0.69301044  0.69494919  0.69678980  1
  Zr  Zr26  1  0.09896190  0.30092592  0.31147362  1
  Zr  Zr27  1  0.89410669  0.70298919  0.50965490  1
  Zr  Zr28  1  0.09372763  0.89662243  0.10236663  1
  Zr  Zr29  1  0.49794823  0.70189158  0.70104647  1
  Zr  Zr30  1  0.50951358  0.30205427  0.89033942  1
  Zr  Zr31  1  0.70352702  0.48915227  0.69368749  1
  Zr  Zr32  1  0.29994030  0.69782776  0.10733148  1
  Zr  Zr33  1  0.89918492  0.10568262  0.89414958  1
  Zr  Zr34  1  0.89885150  0.90397884  0.90080718  1
  Zr  Zr35  1  0.89190414  0.29296127  0.69967047  1
  Zr  Zr36  1  0.50519147  0.30114830  0.69049081  1
  Zr  Zr37  1  0.48991420  0.90912504  0.50145516  1
  Zr  Zr38  1  0.30352395  0.50250230  0.50053927  1
  Zr  Zr39  1  0.69270185  0.10424676  0.49395056  1
  Zr  Zr40  1  0.50084014  0.69927460  0.50667133  1
  Zr  Zr41  1  0.89295577  0.49883055  0.69791523  1
  Zr  Zr42  1  0.89546679  0.49825747  0.89437290  1
  Zr  Zr43  1  0.10393275  0.50177232  0.10211288  1
  Zr  Zr44  1  0.10353205  0.29428316  0.70266240  1
  Zr  Zr45  1  0.08997398  0.10398000  0.69702707  1
  Zr  Zr46  1  0.51100665  0.70540207  0.90306127  1
  Zr  Zr47  1  0.50297242  0.09810273  0.89482505  1
  Zr  Zr48  1  0.90397102  0.68752269  0.69961366  1
  Zr  Zr49  1  0.29857270  0.10629638  0.11023333  1
  Sc  Sc50  1  0.89237058  0.09646440  0.70235006  1
  Sc  Sc51  1  0.69948993  0.49559237  0.89917047  1
  Sc  Sc52  1  0.09667500  0.90289743  0.90072179  1
  Sc  Sc53  1  0.70318740  0.69928174  0.30433440  1
  Sc  Sc54  1  0.08968916  0.10146563  0.89128301  1
  Sc  Sc55  1  0.30432404  0.30303389  0.70218704  1
  Sc  Sc56  1  0.49739566  0.89764483  0.70132720  1
  Sc  Sc57  1  0.70118162  0.49550180  0.29653229  1
  Sc  Sc58  1  0.30128230  0.90404971  0.68982252  1
  Sc  Sc59  1  0.49841073  0.48951448  0.69746396  1
  Sc  Sc60  1  0.50493853  0.89686606  0.89666716  1
  Sc  Sc61  1  0.30389833  0.30033425  0.11281656  1
  Sc  Sc62  1  0.28889305  0.31037668  0.89156664  1
  Sc  Sc63  1  0.90546191  0.50497992  0.30264195  1
  Sc  Sc64  1  0.69303072  0.90096568  0.90123056  1
  Sc  Sc65  1  0.70117690  0.68914933  0.09469631  1
  Sc  Sc66  1  0.09494622  0.10515056  0.29586860  1
  Sc  Sc67  1  0.30462463  0.50568968  0.30729531  1
  Sc  Sc68  1  0.10352112  0.69347907  0.50683945  1
  Sc  Sc69  1  0.50018033  0.49731282  0.29782214  1
  Sc  Sc70  1  0.50076754  0.89335110  0.09723889  1
  Sc  Sc71  1  0.30755376  0.49170145  0.69775661  1
  Sc  Sc72  1  0.10345935  0.90759737  0.30138498  1
  Sc  Sc73  1  0.30378205  0.50131813  0.10197134  1
  Sc  Sc74  1  0.90113476  0.10597900  0.50400433  1
  Sc  Sc75  1  0.50575546  0.49879910  0.90103489  1
  Sc  Sc76  1  0.29619023  0.90076565  0.88902746  1
  Sc  Sc77  1  0.70066904  0.30123844  0.30293603  1
  Sc  Sc78  1  0.10503690  0.10320517  0.49802123  1
  Sc  Sc79  1  0.89913428  0.10542618  0.10326860  1
  Sc  Sc80  1  0.10000527  0.68927369  0.29621606  1
  Sc  Sc81  1  0.70127515  0.90984026  0.70066884  1
  Sc  Sc82  1  0.09558374  0.30281850  0.08892658  1
  Sc  Sc83  1  0.09676951  0.49952332  0.48861961  1
  Sc  Sc84  1  0.49878784  0.48939833  0.50450309  1
  Sc  Sc85  1  0.69606862  0.30732866  0.50187312  1
  Sc  Sc86  1  0.09456867  0.29243573  0.49561331  1
  Sc  Sc87  1  0.29805716  0.89034671  0.11533622  1
  Sc  Sc88  1  0.49568581  0.89322307  0.30729017  1
  Sc  Sc89  1  0.89721626  0.29883119  0.49184489  1
  Sc  Sc90  1  0.88778859  0.50098924  0.10188735  1
  Sc  Sc91  1  0.70225910  0.10367532  0.70167126  1
  Sc  Sc92  1  0.30117648  0.69474975  0.49650454  1
  Sc  Sc93  1  0.49658908  0.10904480  0.70112641  1
  Sc  Sc94  1  0.09435555  0.50765202  0.69622703  1
  Sc  Sc95  1  0.29793437  0.10096809  0.69440459  1
  Sc  Sc96  1  0.30350890  0.09892519  0.88989923  1
  Sc  Sc97  1  0.30408999  0.70467213  0.90920050  1
  Sc  Sc98  1  0.30085782  0.49256238  0.89915973  1
  Sc  Sc99  1  0.70229892  0.89235670  0.50177486  1
  Nb  Nb100  1  0.89625749  0.49865359  0.50788921  1
  Nb  Nb101  1  0.10414052  0.10387385  0.09743212  1
  Nb  Nb102  1  0.70598242  0.29873443  0.89832784  1
  Nb  Nb103  1  0.49995424  0.10432945  0.10302536  1
  Nb  Nb104  1  0.89804830  0.10214103  0.29743641  1
  Nb  Nb105  1  0.30167615  0.30149780  0.49172609  1
  Nb  Nb106  1  0.69048224  0.09956486  0.10216723  1
  Nb  Nb107  1  0.69655686  0.30124582  0.70603861  1
  Nb  Nb108  1  0.90005678  0.69873133  0.29669060  1
  Nb  Nb109  1  0.49745019  0.30800464  0.30577884  1
  Nb  Nb110  1  0.30252558  0.90604039  0.31299166  1
  Nb  Nb111  1  0.69759493  0.69580070  0.50228197  1
  Nb  Nb112  1  0.50023168  0.69524079  0.30136791  1
  Nb  Nb113  1  0.69605210  0.49214709  0.10406292  1
  Nb  Nb114  1  0.30044286  0.30345595  0.30513220  1
  Nb  Nb115  1  0.09359830  0.30170433  0.90209586  1
  Nb  Nb116  1  0.29757778  0.91649361  0.48426989  1
  Nb  Nb117  1  0.50133527  0.29135091  0.49379255  1
  Nb  Nb118  1  0.10169431  0.70054262  0.70030551  1
  Nb  Nb119  1  0.29548910  0.10056171  0.30007398  1
  Nb  Nb120  1  0.50199064  0.11228561  0.50446253  1
  Nb  Nb121  1  0.69623388  0.70140136  0.89317336  1
  Nb  Nb122  1  0.90179452  0.29995362  0.90442773  1
  Nb  Nb123  1  0.70417122  0.49822612  0.49919412  1
  Nb  Nb124  1  0.31052104  0.08872258  0.49794205  1
  Nb  Nb125  1  0.60460861  0.59930483  0.40705608  1
  Nb  Nb126  1  0.20244427  0.00740459  0.00640048  1
  Nb  Nb127  1  0.00339993  0.39918650  0.20043459  1
  Nb  Nb128  1  0.79836350  0.60011999  0.40916008  1
  Nb  Nb129  1  0.20412230  0.60323690  0.79705139  1
  Nb  Nb130  1  -0.00316098  0.79402493  0.79653825  1
  Nb  Nb131  1  0.00195954  0.59823224  -0.00024471  1
  Nb  Nb132  1  0.79920261  0.79946632  0.19974235  1
  Nb  Nb133  1  0.39575416  0.00735877  0.00890186  1
  Nb  Nb134  1  -0.00166190  0.39353600  0.79973119  1
  Nb  Nb135  1  0.20139431  0.19770145  -0.00208752  1
  Nb  Nb136  1  0.59350922  0.00865986  0.59392501  1
  Nb  Nb137  1  0.19687680  0.39601660  0.59287627  1
  Nb  Nb138  1  -0.00342338  0.79773837  0.39945216  1
  Nb  Nb139  1  0.40664060  0.39135713  0.00276353  1
  Nb  Nb140  1  0.60187625  0.79443936  0.20202902  1
  Nb  Nb141  1  0.80270950  0.00409780  0.39375133  1
  Nb  Nb142  1  0.40001971  0.00604242  0.20533626  1
  Nb  Nb143  1  0.19810229  0.39790677  0.20921183  1
  Nb  Nb144  1  0.60028017  0.19820461  0.00394345  1
  Nb  Nb145  1  0.00208847  -0.00431796  0.60079981  1
  Nb  Nb146  1  0.40275640  0.20138314  -0.00021348  1
  Nb  Nb147  1  0.39979739  0.60438722  0.79943049  1
  Nb  Nb148  1  -0.00255111  0.39786560  0.60121772  1
  Nb  Nb149  1  0.79996121  0.79325554  0.80113546  1
  Pd  Pd150  1  0.59078577  0.00151250  0.00109430  1
  Pd  Pd151  1  0.21107096  0.20472423  0.59138469  1
  Pd  Pd152  1  0.58441619  -0.00965914  0.20194468  1
  Pd  Pd153  1  0.20047938  0.19538168  0.80634429  1
  Pd  Pd154  1  0.79504228  0.59296868  -0.00176175  1
  Pd  Pd155  1  0.00033301  0.00861974  0.19429737  1
  Pd  Pd156  1  0.00390350  0.00960464  0.00154479  1
  Pd  Pd157  1  0.80509611  0.79860311  0.39395688  1
  Pd  Pd158  1  0.19655251  0.00661827  0.80212971  1
  Pd  Pd159  1  0.79560685  0.19649621  0.39985737  1
  Pd  Pd160  1  0.60188305  0.81255915  0.60313765  1
  Pd  Pd161  1  0.39578701  0.20741284  0.80287209  1
  Pd  Pd162  1  0.79312207  0.20213307  0.59613792  1
  Pd  Pd163  1  0.39684092  0.79730114  0.80383983  1
  Pd  Pd164  1  0.60689984  0.60360492  0.20878517  1
  Pd  Pd165  1  0.40081575  0.58982189  -0.00667310  1
  Pd  Pd166  1  0.20178178  -0.00352214  0.20162196  1
  Pd  Pd167  1  0.79143084  0.19235170  0.00244469  1
  Pd  Pd168  1  0.20920237  0.80378303  0.58864870  1
  Pd  Pd169  1  0.20531915  0.81306383  -0.00003337  1
  Pd  Pd170  1  0.39377477  0.19568874  0.39525569  1
  Pd  Pd171  1  0.01188687  0.59522849  0.80931222  1
  Pd  Pd172  1  0.00632730  0.80241171  0.59814183  1
  Pd  Pd173  1  0.41118795  0.01453992  0.38986164  1
  Pd  Pd174  1  0.38891863  0.80540885  0.58919841  1
  Pd  Pd175  1  0.19605819  0.80132336  0.21495157  1
  Pd  Pd176  1  0.40408428  0.40418761  0.40129629  1
  Pd  Pd177  1  0.60737920  0.21185137  0.19989110  1
  Pd  Pd178  1  0.40453440  0.20064690  0.20978376  1
  Pd  Pd179  1  0.59687810  0.79430407  0.39837971  1
  Pd  Pd180  1  0.40222240  -0.00391420  0.79685092  1
  Pd  Pd181  1  0.60149187  -0.00295264  0.40445967  1
  Pd  Pd182  1  0.39184928  0.20380034  0.59830487  1
  Pd  Pd183  1  0.20054967  0.58989574  0.60287626  1
  Pd  Pd184  1  0.80215678  0.00922210  0.00305448  1
  Pd  Pd185  1  0.39964354  0.79589944  0.40826665  1
  Pd  Pd186  1  0.80969385  0.39985145  0.20788363  1
  Pd  Pd187  1  0.20607944  0.19293129  0.40371657  1
  Pd  Pd188  1  0.60479729  0.59639517  0.00005054  1
  Pd  Pd189  1  0.59603022  0.58909652  0.79640220  1
  Pd  Pd190  1  0.18905995  0.21302842  0.19811771  1
  Pd  Pd191  1  0.19299263  0.79066589  0.39634885  1
  Pd  Pd192  1  0.59416844  0.58755405  0.59786738  1
  Pd  Pd193  1  0.20288365  0.59845897  -0.00594139  1
  Pd  Pd194  1  -0.00389433  0.00322765  0.40646209  1
  Pd  Pd195  1  0.80628973  0.40578604  0.39413195  1
  Pd  Pd196  1  0.78879383  0.79909782  0.00020513  1
  Pd  Pd197  1  0.19574625  0.00438558  0.59956159  1
  Pd  Pd198  1  0.39473561  0.81296592  -0.00137915  1
  Pd  Pd199  1  -0.00803900  0.60790624  0.40894544  1
  Rh  Rh200  1  0.79678602  0.20285896  0.80261971  1
  Rh  Rh201  1  0.59684902  0.40245921  0.40014735  1
  Rh  Rh202  1  0.00180828  0.79735651  0.21120996  1
  Rh  Rh203  1  -0.00676924  0.20806425  0.80049009  1
  Rh  Rh204  1  0.60417219  0.79595662  0.00871149  1
  Rh  Rh205  1  0.80274426  0.39055526  0.59669110  1
  Rh  Rh206  1  0.40020076  0.59589137  0.20279625  1
  Rh  Rh207  1  0.40674854  0.80447434  0.20626566  1
  Rh  Rh208  1  0.40516830  0.00617819  0.60334006  1
  Rh  Rh209  1  -0.00466521  0.59162303  0.19082424  1
  Rh  Rh210  1  -0.00257407  0.19166956  0.40082465  1
  Rh  Rh211  1  0.00418566  0.20476184  0.19474715  1
  Rh  Rh212  1  0.79694137  0.20140993  0.19319414  1
  Rh  Rh213  1  0.39480441  0.38802504  0.59140552  1
  Rh  Rh214  1  0.20378465  0.60395722  0.39841087  1
  Rh  Rh215  1  0.40733307  0.40501132  0.80804226  1
  Rh  Rh216  1  0.18881669  0.40936649  0.78338202  1
  Rh  Rh217  1  -0.01205509  0.40858241  -0.00060429  1
  Rh  Rh218  1  0.60720453  0.19980340  0.79990322  1
  Rh  Rh219  1  0.60398342  0.20065298  0.60252846  1
  Rh  Rh220  1  0.00601480  0.19341431  -0.00219024  1
  Rh  Rh221  1  0.21071402  0.59431385  0.20548386  1
  Rh  Rh222  1  0.79637058  0.60318167  0.20782763  1
  Rh  Rh223  1  0.60085217  0.39426860  -0.00229127  1
  Rh  Rh224  1  0.39244207  0.40471013  0.20282793  1
  Rh  Rh225  1  0.40507023  0.59848872  0.60724524  1
  Rh  Rh226  1  -0.00485786  0.19876029  0.59932704  1
  Rh  Rh227  1  0.19658853  0.01233411  0.39378028  1
  Rh  Rh228  1  0.78527962  0.60297133  0.79773189  1
  Rh  Rh229  1  0.60044059  0.39524745  0.59455434  1
  Rh  Rh230  1  -0.00243284  -0.01148703  0.78868378  1
  Rh  Rh231  1  0.79771254  0.40500889  -0.00335090  1
  Rh  Rh232  1  0.80763677  -0.00045014  0.19628801  1
  Rh  Rh233  1  0.41299502  0.59889462  0.40365260  1
  Rh  Rh234  1  0.21552284  0.38725382  0.01414450  1
  Rh  Rh235  1  0.78961843  0.79302713  0.61257259  1
  Rh  Rh236  1  0.79849422  -0.00640355  0.80548960  1
  Rh  Rh237  1  0.60933602  0.80565072  0.79535419  1
  Rh  Rh238  1  0.80253377  0.39085265  0.80339013  1
  Rh  Rh239  1  0.60403069  0.21202723  0.39694612  1
  Rh  Rh240  1  0.19796738  0.79477611  0.79993759  1
  Rh  Rh241  1  0.00350700  0.59273816  0.59352095  1
  Rh  Rh242  1  0.20544003  0.40140711  0.40243163  1
  Rh  Rh243  1  0.59535233  0.00058178  0.78711026  1
  Rh  Rh244  1  0.79369860  0.60083344  0.59737586  1
  Rh  Rh245  1  0.79313587  0.00993114  0.58595599  1
  Rh  Rh246  1  0.60527919  0.40195421  0.79809450  1
  Rh  Rh247  1  0.00276851  0.79138955  -0.00823318  1
  Rh  Rh248  1  0.60280883  0.39795302  0.21028674  1
  Rh  Rh249  1  -0.00828937  0.39874618  0.40136958  1
