# generated using pymatgen
data_ZrScNbPdRh
_symmetry_space_group_name_H-M   'P 1'
_cell_length_a   16.56395271
_cell_length_b   16.55807135
_cell_length_c   16.56345288
_cell_angle_alpha   90.00445741
_cell_angle_beta   90.00744229
_cell_angle_gamma   89.98440399
_symmetry_Int_Tables_number   1
_chemical_formula_structural   ZrScNbPdRh
_chemical_formula_sum   'Zr50 Sc50 Nb50 Pd50 Rh50'
_cell_volume   4542.81014662
_cell_formula_units_Z   50
loop_
 _symmetry_equiv_pos_site_id
 _symmetry_equiv_pos_as_xyz
  1  'x, y, z'
loop_
 _atom_site_type_symbol
 _atom_site_label
 _atom_site_symmetry_multiplicity
 _atom_site_fract_x
 _atom_site_fract_y
 _atom_site_fract_z
 _atom_site_occupancy
  Zr  Zr0  1  0.89896147  0.49982858  0.11504890  1
  Zr  Zr1  1  0.29998731  0.10105965  0.49831185  1
  Zr  Zr2  1  0.30004862  0.29759959  0.30573050  1
  Zr  Zr3  1  0.10209409  0.89962679  0.09937288  1
  Zr  Zr4  1  0.50779396  0.49903166  0.68676629  1
  Zr  Zr5  1  0.89828238  0.90388965  0.10568304  1
  Zr  Zr6  1  0.70152475  0.29916223  0.49832717  1
  Zr  Zr7  1  0.07976005  0.10739267  0.90038538  1
  Zr  Zr8  1  0.30174117  0.70265368  0.69795984  1
  Zr  Zr9  1  0.50349302  0.89903557  0.09956409  1
  Zr  Zr10  1  0.09658827  0.49848989  0.28474991  1
  Zr  Zr11  1  0.10420678  0.70131668  0.68847381  1
  Zr  Zr12  1  0.30511417  0.90292580  0.90501532  1
  Zr  Zr13  1  0.49201477  0.30027115  0.71005040  1
  Zr  Zr14  1  0.50445255  0.90649829  0.70413650  1
  Zr  Zr15  1  0.29837897  0.89664217  0.09159075  1
  Zr  Zr16  1  0.69610567  0.69549879  0.49737237  1
  Zr  Zr17  1  0.09315217  0.90152228  0.50817720  1
  Zr  Zr18  1  0.30025921  0.90331020  0.71435450  1
  Zr  Zr19  1  0.50249472  0.50549081  0.10316208  1
  Zr  Zr20  1  0.30423908  0.30210681  0.88779769  1
  Zr  Zr21  1  0.69700203  0.89817865  0.30359682  1
  Zr  Zr22  1  0.90051420  0.09587795  0.50099343  1
  Zr  Zr23  1  0.29879786  0.10470607  0.30478209  1
  Zr  Zr24  1  0.50164824  0.90393792  0.89918279  1
  Zr  Zr25  1  0.30548515  0.11056190  0.69601584  1
  Zr  Zr26  1  0.11045047  0.30166687  0.69934332  1
  Zr  Zr27  1  0.70222488  0.29426431  0.10226394  1
  Zr  Zr28  1  0.29159227  0.29705989  0.10476187  1
  Zr  Zr29  1  0.68852678  0.29742996  0.29795706  1
  Zr  Zr30  1  0.70464871  0.09624939  0.49843849  1
  Zr  Zr31  1  0.10480175  0.29651634  0.29714388  1
  Zr  Zr32  1  0.89967929  0.90298137  0.29977119  1
  Zr  Zr33  1  0.49920502  0.08407016  0.50615736  1
  Zr  Zr34  1  0.91304833  0.48926396  0.50765156  1
  Zr  Zr35  1  0.90151751  0.30096326  0.29153635  1
  Zr  Zr36  1  0.50322059  0.69962358  0.69829224  1
  Zr  Zr37  1  0.89126961  0.69756332  0.10223362  1
  Zr  Zr38  1  0.88960559  0.09604357  0.70507623  1
  Zr  Zr39  1  0.49944389  0.69241794  0.09123342  1
  Zr  Zr40  1  0.09398379  0.29958478  0.10642484  1
  Zr  Zr41  1  0.30431809  0.50494839  0.10252766  1
  Zr  Zr42  1  0.09754228  0.29807211  0.89948431  1
  Zr  Zr43  1  0.49992319  0.89624880  0.31248250  1
  Zr  Zr44  1  0.51390962  0.30248066  0.10209288  1
  Zr  Zr45  1  0.10562987  0.69968534  0.10176017  1
  Zr  Zr46  1  0.30931340  0.69787304  0.30285474  1
  Zr  Zr47  1  0.50328777  0.09666172  0.70561896  1
  Zr  Zr48  1  0.09264256  0.50492279  0.68494555  1
  Zr  Zr49  1  0.09600512  0.10543783  0.50277704  1
  Sc  Sc50  1  0.69445962  0.89904483  0.09934077  1
  Sc  Sc51  1  0.89453781  0.89856765  0.70010693  1
  Sc  Sc52  1  0.30552738  0.48862177  0.69169727  1
  Sc  Sc53  1  0.70507823  0.89993377  0.49585549  1
  Sc  Sc54  1  0.50500864  0.69994247  0.30329579  1
  Sc  Sc55  1  0.09980926  0.09661954  0.69548829  1
  Sc  Sc56  1  0.29978225  0.69000634  0.50168876  1
  Sc  Sc57  1  0.31253402  0.90093242  0.49284511  1
  Sc  Sc58  1  0.30325051  0.50467976  0.30052922  1
  Sc  Sc59  1  0.89873184  0.10781475  0.10219389  1
  Sc  Sc60  1  0.89126430  0.29845700  0.10018474  1
  Sc  Sc61  1  0.89487298  0.28808041  0.90070517  1
  Sc  Sc62  1  0.49906522  0.68958063  0.49882890  1
  Sc  Sc63  1  0.29063603  0.09691927  0.09579873  1
  Sc  Sc64  1  0.50933712  0.09880276  0.30765917  1
  Sc  Sc65  1  0.90402211  0.70478592  0.70762940  1
  Sc  Sc66  1  0.09286572  0.70634592  0.89075009  1
  Sc  Sc67  1  0.70276190  0.70351438  0.90755613  1
  Sc  Sc68  1  0.89696531  0.90453304  0.50341085  1
  Sc  Sc69  1  0.49519199  0.50012036  0.49705067  1
  Sc  Sc70  1  0.30940054  0.49595195  0.90054083  1
  Sc  Sc71  1  0.09554243  0.10395929  0.29610613  1
  Sc  Sc72  1  0.09557776  0.10236785  0.09923015  1
  Sc  Sc73  1  0.70454273  0.09763537  0.29999012  1
  Sc  Sc74  1  0.68454901  0.49808143  0.50315412  1
  Sc  Sc75  1  0.90633060  0.29277258  0.49956851  1
  Sc  Sc76  1  0.50312097  0.49975461  0.30584189  1
  Sc  Sc77  1  0.89030295  0.70589052  0.89839613  1
  Sc  Sc78  1  0.30642963  0.89687535  0.30001610  1
  Sc  Sc79  1  0.09443706  0.90230650  0.28827096  1
  Sc  Sc80  1  0.88600347  0.30336781  0.69452014  1
  Sc  Sc81  1  0.69782188  0.49847079  0.09763149  1
  Sc  Sc82  1  0.69406451  0.69713736  0.09748847  1
  Sc  Sc83  1  0.29797296  0.09630871  0.89645282  1
  Sc  Sc84  1  0.88707925  0.50464789  0.89268929  1
  Sc  Sc85  1  0.88381503  0.70280107  0.49728197  1
  Sc  Sc86  1  0.10440660  0.69355936  0.28941224  1
  Sc  Sc87  1  0.50423070  0.30956563  0.48789631  1
  Sc  Sc88  1  0.70078427  0.51216355  0.30270140  1
  Sc  Sc89  1  0.70375642  0.70739823  0.70395293  1
  Sc  Sc90  1  0.10156228  0.90306930  0.89879715  1
  Sc  Sc91  1  0.30663466  0.71347502  0.90530996  1
  Sc  Sc92  1  0.30677669  0.70320575  0.10063405  1
  Sc  Sc93  1  0.30192663  0.29679075  0.50061882  1
  Sc  Sc94  1  0.69609478  0.10416276  0.89221992  1
  Sc  Sc95  1  0.09567466  0.89525301  0.69983150  1
  Sc  Sc96  1  0.52160124  0.09691688  0.09104395  1
  Sc  Sc97  1  0.09754243  0.50126333  0.89016116  1
  Sc  Sc98  1  0.49984124  0.49315112  0.91153855  1
  Sc  Sc99  1  0.90006190  0.89943007  0.89303907  1
  Nb  Nb100  1  0.70629527  0.09677401  0.10056294  1
  Nb  Nb101  1  0.69667876  0.09554447  0.69591861  1
  Nb  Nb102  1  0.89757085  0.09490174  0.29514368  1
  Nb  Nb103  1  0.30472217  0.29632187  0.70476798  1
  Nb  Nb104  1  0.89682888  0.50790259  0.30315393  1
  Nb  Nb105  1  0.89742644  0.49786541  0.70108701  1
  Nb  Nb106  1  0.10296603  0.50428955  0.50050298  1
  Nb  Nb107  1  0.89090941  0.68798180  0.30380797  1
  Nb  Nb108  1  0.69854874  0.49595519  0.88944131  1
  Nb  Nb109  1  0.09431195  0.30944923  0.49819564  1
  Nb  Nb110  1  0.69926035  0.91187870  0.70635862  1
  Nb  Nb111  1  0.50072020  0.30171155  0.29596853  1
  Nb  Nb112  1  0.70600619  0.89870209  0.89889569  1
  Nb  Nb113  1  0.69124550  0.30977376  0.70226819  1
  Nb  Nb114  1  0.71260211  0.70046572  0.31508608  1
  Nb  Nb115  1  0.10386534  0.69597962  0.50067798  1
  Nb  Nb116  1  0.10138076  0.50102417  0.09925301  1
  Nb  Nb117  1  0.70314868  0.48623419  0.70740854  1
  Nb  Nb118  1  0.89588763  0.09780050  0.90026706  1
  Nb  Nb119  1  0.69236197  0.31608698  0.88912092  1
  Nb  Nb120  1  0.50050973  0.29584387  0.90149645  1
  Nb  Nb121  1  0.50259128  0.89592646  0.50055591  1
  Nb  Nb122  1  0.50159747  0.69514658  0.89719031  1
  Nb  Nb123  1  0.30020301  0.50074736  0.49505248  1
  Nb  Nb124  1  0.50163147  0.10157163  0.89911826  1
  Nb  Nb125  1  0.19622941  0.59773051  -0.00559759  1
  Nb  Nb126  1  0.00157656  0.60106552  0.40229865  1
  Nb  Nb127  1  0.40768179  0.80333810  0.60289204  1
  Nb  Nb128  1  0.20617051  0.60111197  0.79776151  1
  Nb  Nb129  1  0.19561483  -0.00332462  0.40266757  1
  Nb  Nb130  1  0.80362533  0.40208546  0.39742162  1
  Nb  Nb131  1  0.79836082  0.00463286  -0.00422135  1
  Nb  Nb132  1  0.00093466  0.59793496  0.00247762  1
  Nb  Nb133  1  -0.00296236  0.79717841  0.00585148  1
  Nb  Nb134  1  0.00026450  0.40658711  -0.00148781  1
  Nb  Nb135  1  0.40509310  0.39211244  0.20198572  1
  Nb  Nb136  1  0.40470964  0.60136467  0.79904513  1
  Nb  Nb137  1  0.59861172  0.80724763  0.60040805  1
  Nb  Nb138  1  0.79681573  0.79462914  0.20885696  1
  Nb  Nb139  1  0.60344019  0.19950589  0.60628332  1
  Nb  Nb140  1  0.79925619  0.58817317  0.60913171  1
  Nb  Nb141  1  0.19162972  0.79950310  0.40342153  1
  Nb  Nb142  1  0.60124162  0.59530275  0.80214948  1
  Nb  Nb143  1  0.40870101  0.19746852  0.19483838  1
  Nb  Nb144  1  0.19389174  0.40424613  0.00091686  1
  Nb  Nb145  1  0.00348871  0.78969771  0.39943938  1
  Nb  Nb146  1  0.40802289  0.20200821  -0.00117925  1
  Nb  Nb147  1  0.40445979  0.00421860  0.19766146  1
  Nb  Nb148  1  0.19367346  0.40607525  0.40592367  1
  Nb  Nb149  1  -0.00397535  0.40020875  0.79725364  1
  Pd  Pd150  1  0.60591951  0.40272978  0.00018680  1
  Pd  Pd151  1  0.40214837  0.39237212  0.59299403  1
  Pd  Pd152  1  0.19499640  0.59940270  0.39410708  1
  Pd  Pd153  1  0.40408674  0.01220471  0.00787875  1
  Pd  Pd154  1  0.80667166  0.20396578  0.39311396  1
  Pd  Pd155  1  0.79586901  0.40305503  0.59032109  1
  Pd  Pd156  1  0.41353923  0.20849087  0.59107917  1
  Pd  Pd157  1  0.78997218  0.20481994  0.79879729  1
  Pd  Pd158  1  0.19867153  0.40931190  0.79987302  1
  Pd  Pd159  1  0.79271279  0.20036633  0.60509327  1
  Pd  Pd160  1  -0.00821899  -0.00340654  0.00177231  1
  Pd  Pd161  1  -0.00157801  -0.00453868  0.79432231  1
  Pd  Pd162  1  -0.00858258  0.78965179  0.20368998  1
  Pd  Pd163  1  -0.00699813  0.20793522  0.78682113  1
  Pd  Pd164  1  0.20719942  0.80120337  0.20804296  1
  Pd  Pd165  1  0.60619549  0.78929960  0.20594720  1
  Pd  Pd166  1  0.20732970  -0.00727618  0.59662912  1
  Pd  Pd167  1  0.19815480  0.79652224  0.80595244  1
  Pd  Pd168  1  -0.00260259  0.19771998  0.39468986  1
  Pd  Pd169  1  0.60615201  0.79825565  0.80107921  1
  Pd  Pd170  1  0.39279689  -0.00711174  0.60546024  1
  Pd  Pd171  1  0.59769185  0.00239517  0.20494041  1
  Pd  Pd172  1  0.19078240  0.00655191  -0.00853885  1
  Pd  Pd173  1  -0.01416006  0.61376639  0.59296857  1
  Pd  Pd174  1  0.20263566  0.20234285  -0.00558475  1
  Pd  Pd175  1  0.00484783  -0.00465299  0.39707683  1
  Pd  Pd176  1  0.60468176  0.60646518  0.20749853  1
  Pd  Pd177  1  0.60559940  0.20264684  0.79586995  1
  Pd  Pd178  1  0.00027693  0.59888965  0.80301405  1
  Pd  Pd179  1  0.19952909  0.20662341  0.59465809  1
  Pd  Pd180  1  0.41255850  0.19787259  0.40108969  1
  Pd  Pd181  1  -0.01105555  0.79403095  0.59287795  1
  Pd  Pd182  1  0.40464890  0.80333301  0.19692140  1
  Pd  Pd183  1  0.79084291  0.19628281  -0.00669849  1
  Pd  Pd184  1  0.20482611  0.39862835  0.59301331  1
  Pd  Pd185  1  0.78910744  0.40361509  0.20983388  1
  Pd  Pd186  1  0.79896541  0.59165868  0.00173323  1
  Pd  Pd187  1  0.59494591  0.19481471  0.40859268  1
  Pd  Pd188  1  0.19252239  0.00779469  0.80184758  1
  Pd  Pd189  1  0.59830949  0.80007279  -0.00407849  1
  Pd  Pd190  1  0.21341801  0.80931342  0.59063760  1
  Pd  Pd191  1  0.79210439  0.60547341  0.79475847  1
  Pd  Pd192  1  0.79315811  0.80105859  0.60413822  1
  Pd  Pd193  1  0.80476109  0.40265090  -0.00567166  1
  Pd  Pd194  1  0.20591946  0.00168186  0.20692571  1
  Pd  Pd195  1  0.60808755  0.20207914  -0.00644460  1
  Pd  Pd196  1  -0.00299330  0.20294490  0.60971186  1
  Pd  Pd197  1  0.39494003  0.38976762  0.00830287  1
  Pd  Pd198  1  0.19772847  0.19013516  0.80153057  1
  Pd  Pd199  1  0.00162123  0.40488287  0.39067490  1
  Rh  Rh200  1  -0.00123561  0.80458814  0.80356673  1
  Rh  Rh201  1  0.00093828  0.38807922  0.61180634  1
  Rh  Rh202  1  0.21076527  0.40634503  0.20296003  1
  Rh  Rh203  1  0.20868684  0.59252648  0.60508499  1
  Rh  Rh204  1  0.79649485  0.00037691  0.80557345  1
  Rh  Rh205  1  0.39642917  0.00194499  0.39134388  1
  Rh  Rh206  1  -0.00497508  0.19823365  0.19988367  1
  Rh  Rh207  1  0.60051063  0.40862772  0.20443253  1
  Rh  Rh208  1  0.79844686  -0.00310375  0.60132666  1
  Rh  Rh209  1  0.39111026  0.40332842  0.39375550  1
  Rh  Rh210  1  0.79694497  0.19573689  0.20492578  1
  Rh  Rh211  1  0.61186208  -0.00147917  -0.00925195  1
  Rh  Rh212  1  0.39692993  0.78960642  0.41127463  1
  Rh  Rh213  1  0.39996936  0.00757867  0.80221913  1
  Rh  Rh214  1  0.39253862  0.60612534  -0.00924899  1
  Rh  Rh215  1  0.60490606  0.00058968  0.80929020  1
  Rh  Rh216  1  0.41105493  0.80009559  -0.00062797  1
  Rh  Rh217  1  0.39296047  0.60039026  0.60180015  1
  Rh  Rh218  1  0.79660620  -0.00289457  0.19532832  1
  Rh  Rh219  1  0.40393592  0.59740601  0.40016739  1
  Rh  Rh220  1  0.80867701  0.80915596  0.39637686  1
  Rh  Rh221  1  0.60465839  -0.00236843  0.40418036  1
  Rh  Rh222  1  0.61005157  -0.00349410  0.59478831  1
  Rh  Rh223  1  0.18934480  0.79581937  -0.00500957  1
  Rh  Rh224  1  0.40696070  0.59632124  0.20461922  1
  Rh  Rh225  1  0.40531844  0.40851540  0.79804146  1
  Rh  Rh226  1  0.60655126  0.59444359  -0.01077428  1
  Rh  Rh227  1  -0.00305951  0.60475196  0.20042201  1
  Rh  Rh228  1  0.59807126  0.79601904  0.40802650  1
  Rh  Rh229  1  0.40475128  0.79887426  0.79876327  1
  Rh  Rh230  1  0.60155894  0.19091238  0.20118734  1
  Rh  Rh231  1  0.61656523  0.60689505  0.61280073  1
  Rh  Rh232  1  0.80323759  0.00022119  0.39775903  1
  Rh  Rh233  1  0.59491050  0.38934955  0.59792897  1
  Rh  Rh234  1  0.18769001  0.20275613  0.40938418  1
  Rh  Rh235  1  -0.00813635  0.00369162  0.60894230  1
  Rh  Rh236  1  0.40064172  0.19263406  0.80872265  1
  Rh  Rh237  1  0.80463411  0.81327222  0.00722453  1
  Rh  Rh238  1  0.78823677  0.60495661  0.19639035  1
  Rh  Rh239  1  -0.00476798  0.39747099  0.19704422  1
  Rh  Rh240  1  0.20949135  0.60291021  0.19344198  1
  Rh  Rh241  1  0.80636964  0.58290535  0.41986626  1
  Rh  Rh242  1  0.58574538  0.40723702  0.80326756  1
  Rh  Rh243  1  -0.00044942  0.00988786  0.19720794  1
  Rh  Rh244  1  0.79793857  0.80384790  0.79896085  1
  Rh  Rh245  1  -0.00717532  0.20566861  0.00524858  1
  Rh  Rh246  1  0.80939311  0.39043577  0.80650770  1
  Rh  Rh247  1  0.20230319  0.18982785  0.19896372  1
  Rh  Rh248  1  0.59756834  0.60087643  0.39783222  1
  Rh  Rh249  1  0.60795757  0.40434616  0.39294154  1
