# generated using pymatgen
data_ZrScNbPdRh
_symmetry_space_group_name_H-M   'P 1'
_cell_length_a   16.55797580
_cell_length_b   16.55632743
_cell_length_c   16.55967723
_cell_angle_alpha   89.95546262
_cell_angle_beta   90.00870139
_cell_angle_gamma   89.99260053
_symmetry_Int_Tables_number   1
_chemical_formula_structural   ZrScNbPdRh
_chemical_formula_sum   'Zr50 Sc50 Nb50 Pd50 Rh50'
_cell_volume   4539.65634814
_cell_formula_units_Z   50
loop_
 _symmetry_equiv_pos_site_id
 _symmetry_equiv_pos_as_xyz
  1  'x, y, z'
loop_
 _atom_site_type_symbol
 _atom_site_label
 _atom_site_symmetry_multiplicity
 _atom_site_fract_x
 _atom_site_fract_y
 _atom_site_fract_z
 _atom_site_occupancy
  Zr  Zr0  1  0.71058627  0.10825149  0.50877370  1
  Zr  Zr1  1  0.89541391  0.89823057  0.70835288  1
  Zr  Zr2  1  0.69573751  0.69723043  0.10535729  1
  Zr  Zr3  1  0.90156323  0.29360017  0.69247947  1
  Zr  Zr4  1  0.49984745  0.89877723  0.49760887  1
  Zr  Zr5  1  0.70692420  0.49820158  0.30774396  1
  Zr  Zr6  1  0.29676089  0.30362069  0.29548837  1
  Zr  Zr7  1  0.29943738  0.70700996  0.90546091  1
  Zr  Zr8  1  0.49701571  0.90129325  0.10465851  1
  Zr  Zr9  1  0.49205825  0.10748370  0.49149061  1
  Zr  Zr10  1  0.90628068  0.89771315  0.49870760  1
  Zr  Zr11  1  0.29413011  0.30108207  0.09812387  1
  Zr  Zr12  1  0.69514501  0.30378130  0.90419762  1
  Zr  Zr13  1  0.69142110  0.89315077  0.70943715  1
  Zr  Zr14  1  0.90327390  0.49595966  0.10008351  1
  Zr  Zr15  1  0.91020599  0.89948560  0.29995287  1
  Zr  Zr16  1  0.09672397  0.71200343  0.09865244  1
  Zr  Zr17  1  0.30741574  0.70354145  0.09660746  1
  Zr  Zr18  1  0.90742987  0.69928739  0.49967986  1
  Zr  Zr19  1  0.49697424  0.09648213  0.10156311  1
  Zr  Zr20  1  0.29821522  0.71384089  0.69323606  1
  Zr  Zr21  1  0.50781526  0.30037843  0.88884315  1
  Zr  Zr22  1  0.50187170  0.70267561  0.10111214  1
  Zr  Zr23  1  0.49790900  0.89530920  0.69813346  1
  Zr  Zr24  1  0.69926735  0.68639425  0.49704835  1
  Zr  Zr25  1  0.29629490  0.10421949  0.69564591  1
  Zr  Zr26  1  0.49837595  0.49718242  0.89904709  1
  Zr  Zr27  1  0.90111829  0.69259073  0.29826942  1
  Zr  Zr28  1  0.10003090  0.49826966  0.30130690  1
  Zr  Zr29  1  0.90786271  0.10542426  0.30600084  1
  Zr  Zr30  1  0.69931767  0.69813658  0.30022361  1
  Zr  Zr31  1  0.09747497  0.29307796  0.90669487  1
  Zr  Zr32  1  0.90352357  0.08693233  0.90045967  1
  Zr  Zr33  1  0.10410474  0.29770957  0.09845604  1
  Zr  Zr34  1  0.29637558  0.49763404  0.10680810  1
  Zr  Zr35  1  0.11519591  0.70130144  0.49746687  1
  Zr  Zr36  1  0.09615597  0.90153973  0.70510706  1
  Zr  Zr37  1  0.50404566  0.70982213  0.70221776  1
  Zr  Zr38  1  0.90401324  0.49524469  0.29705798  1
  Zr  Zr39  1  0.50100006  0.09368466  0.29641697  1
  Zr  Zr40  1  0.51180199  0.69562823  0.29777086  1
  Zr  Zr41  1  0.29299645  0.87699034  0.50678593  1
  Zr  Zr42  1  0.09960628  0.30249374  0.69762259  1
  Zr  Zr43  1  0.50691698  0.29296460  0.30998662  1
  Zr  Zr44  1  0.51077835  0.89856703  0.30566735  1
  Zr  Zr45  1  0.50487884  0.48944890  0.50146255  1
  Zr  Zr46  1  0.31081874  0.28719242  0.51092434  1
  Zr  Zr47  1  0.08022971  0.90461411  0.90439817  1
  Zr  Zr48  1  0.29811575  0.49472790  0.70704680  1
  Zr  Zr49  1  0.10221197  0.49943122  0.49443597  1
  Sc  Sc50  1  0.30564047  0.09127040  0.90073258  1
  Sc  Sc51  1  0.29911878  0.89622402  0.10223817  1
  Sc  Sc52  1  0.89800014  0.28720770  0.49401526  1
  Sc  Sc53  1  0.70528366  0.29591038  0.30052809  1
  Sc  Sc54  1  0.89536344  0.50205936  0.70301762  1
  Sc  Sc55  1  0.09256116  0.88880774  0.49267579  1
  Sc  Sc56  1  0.09578844  0.69975488  0.29748518  1
  Sc  Sc57  1  0.70002683  0.50609390  0.69805704  1
  Sc  Sc58  1  0.70498425  0.50070982  0.09468565  1
  Sc  Sc59  1  0.30405175  0.69428493  0.30897625  1
  Sc  Sc60  1  0.50159928  0.29715862  0.08843053  1
  Sc  Sc61  1  0.30479407  0.90081937  0.29578884  1
  Sc  Sc62  1  0.89466028  0.50518119  0.90085601  1
  Sc  Sc63  1  0.08827660  0.10290463  0.71141952  1
  Sc  Sc64  1  0.10501235  0.89344481  0.29966412  1
  Sc  Sc65  1  0.70693730  0.70159843  0.89509055  1
  Sc  Sc66  1  0.48929036  0.31569456  0.69230029  1
  Sc  Sc67  1  0.50125790  0.51315620  0.10013481  1
  Sc  Sc68  1  0.90183246  0.49455972  0.48516170  1
  Sc  Sc69  1  0.68979255  0.89883973  0.50801593  1
  Sc  Sc70  1  0.10131923  0.51524429  0.88718501  1
  Sc  Sc71  1  0.49381709  0.49805259  0.30215973  1
  Sc  Sc72  1  0.49462984  0.70604161  0.90765077  1
  Sc  Sc73  1  0.90257021  0.69770857  0.10028169  1
  Sc  Sc74  1  0.50299500  0.10133334  0.70351908  1
  Sc  Sc75  1  0.29796624  0.49884900  0.30231805  1
  Sc  Sc76  1  0.90328903  0.89971093  0.08935635  1
  Sc  Sc77  1  0.69068835  0.30108642  0.71108844  1
  Sc  Sc78  1  0.89487436  0.69991982  0.70399876  1
  Sc  Sc79  1  0.70357425  0.70187447  0.69619853  1
  Sc  Sc80  1  0.09697867  0.69277549  0.71427619  1
  Sc  Sc81  1  0.50139426  0.69970992  0.49145373  1
  Sc  Sc82  1  0.89363106  0.09846519  0.10190610  1
  Sc  Sc83  1  0.70359555  0.49648260  0.89684661  1
  Sc  Sc84  1  0.50520958  0.10179779  0.90581852  1
  Sc  Sc85  1  0.29791315  0.09732086  0.29872001  1
  Sc  Sc86  1  0.69758949  0.10607639  0.29256066  1
  Sc  Sc87  1  0.71431583  0.90499633  0.10203895  1
  Sc  Sc88  1  0.69576666  0.10059151  0.10325213  1
  Sc  Sc89  1  0.69862385  0.09221595  0.70101720  1
  Sc  Sc90  1  0.09523190  0.10793047  0.48698052  1
  Sc  Sc91  1  0.30269510  0.31368369  0.90651175  1
  Sc  Sc92  1  0.49661485  0.90185250  0.89507398  1
  Sc  Sc93  1  0.09826136  0.30199524  0.49324261  1
  Sc  Sc94  1  0.90588822  0.70123115  0.89638231  1
  Sc  Sc95  1  0.29821742  0.50317953  0.90331649  1
  Sc  Sc96  1  0.09971390  0.29617167  0.30129981  1
  Sc  Sc97  1  0.10801704  0.10622544  0.29705622  1
  Sc  Sc98  1  0.90065828  0.30599167  0.10223420  1
  Sc  Sc99  1  0.89996453  0.30934995  0.90754950  1
  Nb  Nb100  1  0.71149011  0.90650117  0.89860504  1
  Nb  Nb101  1  0.09724767  0.09891522  0.90508954  1
  Nb  Nb102  1  0.29606243  0.89940875  0.89749314  1
  Nb  Nb103  1  0.89653083  0.30103576  0.29428378  1
  Nb  Nb104  1  0.09889831  0.49821822  0.69854056  1
  Nb  Nb105  1  0.10025012  0.50597560  0.10716637  1
  Nb  Nb106  1  0.89073381  0.10340109  0.68880070  1
  Nb  Nb107  1  0.29985858  0.90363112  0.70334955  1
  Nb  Nb108  1  0.29632628  0.09754747  0.50282669  1
  Nb  Nb109  1  0.69156129  0.30639049  0.49310125  1
  Nb  Nb110  1  0.30083150  0.69145896  0.50053182  1
  Nb  Nb111  1  0.70192485  0.10189557  0.89668173  1
  Nb  Nb112  1  0.70683150  0.89914949  0.30704754  1
  Nb  Nb113  1  0.70359470  0.29830269  0.10599466  1
  Nb  Nb114  1  0.10117682  0.90109597  0.10121127  1
  Nb  Nb115  1  0.10862669  0.10035392  0.09832478  1
  Nb  Nb116  1  0.70215116  0.49220251  0.49536948  1
  Nb  Nb117  1  0.89925499  0.09640078  0.50168241  1
  Nb  Nb118  1  0.10153190  0.70593095  0.90231840  1
  Nb  Nb119  1  0.49373696  0.50359979  0.69981624  1
  Nb  Nb120  1  0.88988608  0.90077507  0.89934561  1
  Nb  Nb121  1  0.29522894  0.09720232  0.10796603  1
  Nb  Nb122  1  0.29817906  0.51086348  0.49861919  1
  Nb  Nb123  1  0.29937038  0.29906166  0.70017195  1
  Nb  Nb124  1  0.50483576  0.29872647  0.49867569  1
  Nb  Nb125  1  0.00314853  0.40063048  0.79583154  1
  Nb  Nb126  1  0.19831425  0.80865572  0.80672277  1
  Nb  Nb127  1  0.20264401  0.20137796  0.80467619  1
  Nb  Nb128  1  0.80230030  -0.00198238  0.40167355  1
  Nb  Nb129  1  0.19530851  -0.00096486  0.59737675  1
  Nb  Nb130  1  0.80067474  0.19521913  0.80428874  1
  Nb  Nb131  1  -0.00374319  0.00472246  0.59795448  1
  Nb  Nb132  1  0.79920871  0.80238819  0.39945868  1
  Nb  Nb133  1  0.59660321  0.20878284  0.59364562  1
  Nb  Nb134  1  0.40047651  0.60369864  0.79408302  1
  Nb  Nb135  1  0.39032727  -0.00265378  0.59732676  1
  Nb  Nb136  1  0.60746593  0.80674600  0.00008665  1
  Nb  Nb137  1  0.79362863  0.20013931  -0.00500069  1
  Nb  Nb138  1  0.01019870  0.00083196  0.19470550  1
  Nb  Nb139  1  0.79274651  0.39609280  0.59161236  1
  Nb  Nb140  1  0.39807975  0.19818473  0.19499992  1
  Nb  Nb141  1  0.19472087  0.60732868  0.00581917  1
  Nb  Nb142  1  0.39733207  0.59962431  0.59951944  1
  Nb  Nb143  1  0.20425493  0.40236302  0.60062774  1
  Nb  Nb144  1  0.39403102  0.20629823  0.79738595  1
  Nb  Nb145  1  0.00625453  0.59422654  0.59996899  1
  Nb  Nb146  1  0.20366176  -0.00275515  0.40960760  1
  Nb  Nb147  1  0.19400322  -0.00094712  0.00148530  1
  Nb  Nb148  1  0.59079256  0.60122445  0.79815816  1
  Nb  Nb149  1  0.60429224  0.39610623  0.19877599  1
  Pd  Pd150  1  0.40409443  0.00624132  0.79566882  1
  Pd  Pd151  1  0.60077193  0.40567452  0.00842288  1
  Pd  Pd152  1  0.39341478  0.39935329  0.40622033  1
  Pd  Pd153  1  0.39072285  0.19881128  0.38964391  1
  Pd  Pd154  1  0.41296728  0.39124499  0.19414953  1
  Pd  Pd155  1  0.80118675  -0.01328747  0.59861421  1
  Pd  Pd156  1  0.79698388  0.19751557  0.39591779  1
  Pd  Pd157  1  0.80660006  0.80084822  0.20278721  1
  Pd  Pd158  1  0.38883275  -0.00799412  0.40528702  1
  Pd  Pd159  1  0.79960450  0.79328217  -0.00120451  1
  Pd  Pd160  1  0.19898227  0.59689043  0.60790023  1
  Pd  Pd161  1  0.19501951  0.00346577  0.80439144  1
  Pd  Pd162  1  0.79977474  0.59398611  0.19576002  1
  Pd  Pd163  1  0.21199386  0.19036698  -0.00895879  1
  Pd  Pd164  1  0.80067551  0.60402281  -0.00168027  1
  Pd  Pd165  1  0.00593060  0.59907981  -0.00112945  1
  Pd  Pd166  1  0.19365285  0.39322727  0.80349255  1
  Pd  Pd167  1  0.81144688  0.58849888  0.59202735  1
  Pd  Pd168  1  0.39167841  -0.00548496  0.00322004  1
  Pd  Pd169  1  0.01008456  0.41467516  -0.00927496  1
  Pd  Pd170  1  0.20967661  0.39357027  0.40976880  1
  Pd  Pd171  1  0.00671498  0.39404381  0.20165522  1
  Pd  Pd172  1  0.40507605  0.40641391  0.00719197  1
  Pd  Pd173  1  0.59345589  0.60167773  0.60232562  1
  Pd  Pd174  1  0.40080589  0.79602442  0.39522513  1
  Pd  Pd175  1  -0.01150335  0.19483599  0.00782545  1
  Pd  Pd176  1  -0.00682048  0.40659943  0.59886367  1
  Pd  Pd177  1  0.80638296  0.39328458  0.79266169  1
  Pd  Pd178  1  0.59601856  0.00021430  0.80604320  1
  Pd  Pd179  1  0.00761254  0.19342771  0.59316810  1
  Pd  Pd180  1  0.60869133  0.81107181  0.19405385  1
  Pd  Pd181  1  0.40079834  0.79628121  0.20983589  1
  Pd  Pd182  1  0.60598681  0.39785964  0.60839432  1
  Pd  Pd183  1  0.60506745  0.19746671  0.00387161  1
  Pd  Pd184  1  0.61319512  0.00917376  0.40476281  1
  Pd  Pd185  1  0.39274804  0.19794700  -0.00400364  1
  Pd  Pd186  1  0.58963384  0.01082064  0.59613674  1
  Pd  Pd187  1  0.39934395  0.60083054  0.20515380  1
  Pd  Pd188  1  0.20565636  0.79646655  0.20617347  1
  Pd  Pd189  1  0.18687511  0.19763597  0.60150251  1
  Pd  Pd190  1  0.60843598  -0.00695031  0.19963974  1
  Pd  Pd191  1  -0.00713302  0.20342409  0.80601331  1
  Pd  Pd192  1  -0.00028917  0.19623258  0.19310550  1
  Pd  Pd193  1  0.80832983  0.00281748  0.20793779  1
  Pd  Pd194  1  0.60432701  0.60793899  -0.01101056  1
  Pd  Pd195  1  0.18780277  0.41604003  -0.00386056  1
  Pd  Pd196  1  0.00596272  0.79108457  0.61016563  1
  Pd  Pd197  1  0.20040699  0.60849920  0.20036658  1
  Pd  Pd198  1  0.60779768  -0.00698931  -0.00237510  1
  Pd  Pd199  1  0.79430296  0.80265807  0.59457955  1
  Rh  Rh200  1  0.59747219  0.41405472  0.79373970  1
  Rh  Rh201  1  0.80699118  0.38885360  0.40205020  1
  Rh  Rh202  1  0.40054512  0.39915110  0.80470165  1
  Rh  Rh203  1  0.40847912  0.79800924  0.59435791  1
  Rh  Rh204  1  -0.00749064  0.80041772  -0.00146399  1
  Rh  Rh205  1  0.79237287  0.60147909  0.79981056  1
  Rh  Rh206  1  0.79740275  0.39465026  0.00425256  1
  Rh  Rh207  1  0.60466934  0.58489501  0.20676083  1
  Rh  Rh208  1  0.20534110  0.20266650  0.20113081  1
  Rh  Rh209  1  0.40987478  0.81163081  -0.00088410  1
  Rh  Rh210  1  0.20571892  0.19750011  0.39854743  1
  Rh  Rh211  1  -0.00111357  0.79896366  0.80434793  1
  Rh  Rh212  1  0.39019799  0.59630536  -0.00154149  1
  Rh  Rh213  1  0.18714493  0.80399118  0.61241468  1
  Rh  Rh214  1  0.60823354  0.19216724  0.40481248  1
  Rh  Rh215  1  0.80148449  0.00517089  0.79525365  1
  Rh  Rh216  1  0.39798830  0.00328940  0.20016857  1
  Rh  Rh217  1  0.00683941  0.60377392  0.40551910  1
  Rh  Rh218  1  -0.00828005  0.59433977  0.79468094  1
  Rh  Rh219  1  0.59628723  0.58987716  0.39856113  1
  Rh  Rh220  1  0.20562088  0.79957719  0.39080290  1
  Rh  Rh221  1  -0.00152522  0.20550036  0.39711915  1
  Rh  Rh222  1  -0.01182808  0.00348116  0.79142619  1
  Rh  Rh223  1  0.00616226  0.00554811  0.39637370  1
  Rh  Rh224  1  0.58924018  0.20756139  0.19441474  1
  Rh  Rh225  1  0.60030276  0.79091001  0.59235775  1
  Rh  Rh226  1  0.19461400  0.80729083  -0.00572041  1
  Rh  Rh227  1  0.60531251  0.79684168  0.81289484  1
  Rh  Rh228  1  0.59976999  0.40295964  0.38915984  1
  Rh  Rh229  1  0.40558140  0.59638075  0.40562181  1
  Rh  Rh230  1  0.78394838  0.21388154  0.61060649  1
  Rh  Rh231  1  0.80597159  0.20227526  0.19366229  1
  Rh  Rh232  1  0.60911737  0.79783800  0.40373056  1
  Rh  Rh233  1  0.39218040  0.79951250  0.80468420  1
  Rh  Rh234  1  0.80492463  0.60278432  0.40265502  1
  Rh  Rh235  1  0.79937816  0.79816556  0.80219046  1
  Rh  Rh236  1  0.41223062  0.19354128  0.60894595  1
  Rh  Rh237  1  0.19106232  0.39845448  0.20048828  1
  Rh  Rh238  1  0.20987838  0.61392482  0.80556806  1
  Rh  Rh239  1  0.19594074  -0.00330612  0.20231783  1
  Rh  Rh240  1  0.00086042  0.59950250  0.19718368  1
  Rh  Rh241  1  0.00334631  0.00607167  0.01165606  1
  Rh  Rh242  1  -0.00577740  0.38999163  0.39231494  1
  Rh  Rh243  1  0.79400203  0.00782330  -0.00043476  1
  Rh  Rh244  1  0.38936671  0.40884969  0.59070088  1
  Rh  Rh245  1  0.79500319  0.40074299  0.19922477  1
  Rh  Rh246  1  0.59694063  0.19769637  0.79308031  1
  Rh  Rh247  1  0.19793278  0.60171251  0.39009282  1
  Rh  Rh248  1  -0.00194227  0.79011922  0.39304643  1
  Rh  Rh249  1  -0.00334465  0.80582104  0.19574221  1
