# generated using pymatgen
data_ZrScNbPdRh
_symmetry_space_group_name_H-M   'P 1'
_cell_length_a   16.56109893
_cell_length_b   16.56137899
_cell_length_c   16.56092794
_cell_angle_alpha   90.00029380
_cell_angle_beta   89.98949656
_cell_angle_gamma   89.99879141
_symmetry_Int_Tables_number   1
_chemical_formula_structural   ZrScNbPdRh
_chemical_formula_sum   'Zr50 Sc50 Nb50 Pd50 Rh50'
_cell_volume   4542.24240268
_cell_formula_units_Z   50
loop_
 _symmetry_equiv_pos_site_id
 _symmetry_equiv_pos_as_xyz
  1  'x, y, z'
loop_
 _atom_site_type_symbol
 _atom_site_label
 _atom_site_symmetry_multiplicity
 _atom_site_fract_x
 _atom_site_fract_y
 _atom_site_fract_z
 _atom_site_occupancy
  Zr  Zr0  1  0.09511377  0.70249675  0.08940074  1
  Zr  Zr1  1  0.10136083  0.29644409  0.49997402  1
  Zr  Zr2  1  0.89434535  0.69635108  0.49880063  1
  Zr  Zr3  1  0.69609667  0.69537669  0.49176884  1
  Zr  Zr4  1  0.10806631  0.50356493  0.89128281  1
  Zr  Zr5  1  0.10705365  0.10534337  0.50346545  1
  Zr  Zr6  1  0.49915532  0.10452183  0.49817541  1
  Zr  Zr7  1  0.89366285  0.29866312  0.50096235  1
  Zr  Zr8  1  0.29659019  0.29835000  0.90531245  1
  Zr  Zr9  1  0.89826961  0.89886743  0.49639871  1
  Zr  Zr10  1  0.30435872  0.90062862  0.70372154  1
  Zr  Zr11  1  0.89604050  0.30576952  0.90137537  1
  Zr  Zr12  1  0.10368228  0.49547804  0.09969292  1
  Zr  Zr13  1  0.49449004  0.30336951  0.29899449  1
  Zr  Zr14  1  0.49615625  0.10184690  0.29210235  1
  Zr  Zr15  1  0.49753131  0.89989178  0.49727250  1
  Zr  Zr16  1  0.88864622  0.69778492  0.30353794  1
  Zr  Zr17  1  0.71146570  0.09888137  0.70847457  1
  Zr  Zr18  1  0.10715106  0.90170137  0.90895340  1
  Zr  Zr19  1  0.90462814  0.09882821  0.29364174  1
  Zr  Zr20  1  0.51051803  0.50792527  0.49656781  1
  Zr  Zr21  1  0.89603082  0.10506991  0.89305893  1
  Zr  Zr22  1  0.89673146  0.10182997  0.49380135  1
  Zr  Zr23  1  0.28792619  0.89587228  0.29901780  1
  Zr  Zr24  1  0.50550316  0.29994766  0.70159890  1
  Zr  Zr25  1  0.09368064  0.69923968  0.90224880  1
  Zr  Zr26  1  0.28857481  0.51029440  0.70484065  1
  Zr  Zr27  1  0.68508070  0.10077101  0.10044040  1
  Zr  Zr28  1  0.10089333  0.89831081  0.10156705  1
  Zr  Zr29  1  0.70555978  0.49729384  0.28474672  1
  Zr  Zr30  1  0.29281358  0.10385060  0.29992997  1
  Zr  Zr31  1  0.49966057  0.08886449  0.10015902  1
  Zr  Zr32  1  0.70171601  0.49944575  0.69936105  1
  Zr  Zr33  1  0.50578082  0.28874366  0.50263205  1
  Zr  Zr34  1  0.49868527  0.89920786  0.70446614  1
  Zr  Zr35  1  0.50177695  0.28638803  0.09855514  1
  Zr  Zr36  1  0.68897850  0.50968901  0.09487921  1
  Zr  Zr37  1  0.49626991  0.89217976  0.29802623  1
  Zr  Zr38  1  0.49663815  0.70183692  0.49167896  1
  Zr  Zr39  1  0.89507993  0.90845482  0.30141865  1
  Zr  Zr40  1  0.50503513  0.50179942  0.90500151  1
  Zr  Zr41  1  0.11017180  0.69008449  0.70247074  1
  Zr  Zr42  1  0.70571272  0.90452521  0.49507650  1
  Zr  Zr43  1  0.89406114  0.69995360  0.70806122  1
  Zr  Zr44  1  0.30263226  0.49484014  0.29025980  1
  Zr  Zr45  1  0.10572930  0.30268192  0.90248257  1
  Zr  Zr46  1  0.69976268  0.70488282  0.70480139  1
  Zr  Zr47  1  0.88997296  0.49738769  0.09656389  1
  Zr  Zr48  1  0.89352941  0.29245395  0.70044345  1
  Zr  Zr49  1  0.29994001  0.29787131  0.29594429  1
  Sc  Sc50  1  0.70883993  0.70492437  0.90342902  1
  Sc  Sc51  1  0.30326489  0.31563181  0.69925759  1
  Sc  Sc52  1  0.91169730  0.30281010  0.10058060  1
  Sc  Sc53  1  0.30037599  0.09456022  0.90481715  1
  Sc  Sc54  1  0.30496633  0.28934831  0.49996643  1
  Sc  Sc55  1  0.70517061  0.49425226  0.90667891  1
  Sc  Sc56  1  0.69757700  0.31713670  0.10678577  1
  Sc  Sc57  1  0.49667762  0.69298439  0.09743439  1
  Sc  Sc58  1  0.29700829  0.08946885  0.70128204  1
  Sc  Sc59  1  0.29459721  0.29911096  0.10512507  1
  Sc  Sc60  1  0.11371941  0.69489743  0.30692357  1
  Sc  Sc61  1  0.30913112  0.50084806  0.50568162  1
  Sc  Sc62  1  0.49921951  0.70539771  0.90294204  1
  Sc  Sc63  1  0.30079667  0.89626799  0.50613266  1
  Sc  Sc64  1  0.49796043  0.10068890  0.69374915  1
  Sc  Sc65  1  0.48757403  0.49862269  0.70028329  1
  Sc  Sc66  1  0.10491714  0.28783860  0.69541570  1
  Sc  Sc67  1  0.30637899  0.70422612  0.10204871  1
  Sc  Sc68  1  0.10715113  0.10249003  0.89882171  1
  Sc  Sc69  1  0.89841987  0.50106640  0.48908280  1
  Sc  Sc70  1  0.69164192  0.10050166  0.89972799  1
  Sc  Sc71  1  0.69881211  0.89400693  0.30032229  1
  Sc  Sc72  1  0.10089787  0.29168130  0.29228635  1
  Sc  Sc73  1  0.90056076  0.30505648  0.30519583  1
  Sc  Sc74  1  0.50325676  0.10392914  0.91852992  1
  Sc  Sc75  1  0.70701043  0.50709593  0.50314027  1
  Sc  Sc76  1  0.89835995  0.50604482  0.90520491  1
  Sc  Sc77  1  0.30620897  0.70108690  0.30205606  1
  Sc  Sc78  1  0.90018943  0.90377200  0.10503333  1
  Sc  Sc79  1  0.10282729  0.50000717  0.29789200  1
  Sc  Sc80  1  0.69421104  0.90366773  0.88706928  1
  Sc  Sc81  1  0.88008880  0.90168850  0.70040771  1
  Sc  Sc82  1  0.49728378  0.50135188  0.29753925  1
  Sc  Sc83  1  0.69465345  0.30165485  0.88905133  1
  Sc  Sc84  1  0.11372729  0.90001681  0.49574810  1
  Sc  Sc85  1  0.50068545  0.70179143  0.30560371  1
  Sc  Sc86  1  0.89466800  0.89648192  0.90396424  1
  Sc  Sc87  1  0.30205461  0.89571822  0.09537653  1
  Sc  Sc88  1  0.10038287  0.09525382  0.30105451  1
  Sc  Sc89  1  0.08735517  0.10094317  0.10423145  1
  Sc  Sc90  1  0.10371144  0.29888548  0.09950244  1
  Sc  Sc91  1  0.49507641  0.90171521  0.89966580  1
  Sc  Sc92  1  0.10086571  0.50278716  0.49215031  1
  Sc  Sc93  1  0.30013154  0.49067773  0.89274637  1
  Sc  Sc94  1  0.30802848  0.10168526  0.10173332  1
  Sc  Sc95  1  0.88732361  0.49974339  0.69929932  1
  Sc  Sc96  1  0.49298542  0.70338044  0.70623301  1
  Sc  Sc97  1  0.30769949  0.70656870  0.90496242  1
  Sc  Sc98  1  0.69793423  0.90441642  0.11204357  1
  Sc  Sc99  1  0.69984975  0.09287172  0.30302761  1
  Nb  Nb100  1  0.49490703  0.30089464  0.89908601  1
  Nb  Nb101  1  0.28814298  0.70738761  0.50481875  1
  Nb  Nb102  1  0.09980322  0.70424204  0.50356701  1
  Nb  Nb103  1  0.09590684  0.89706084  0.29729619  1
  Nb  Nb104  1  0.10254046  0.90068609  0.70210563  1
  Nb  Nb105  1  0.90534407  0.70290379  0.91163001  1
  Nb  Nb106  1  0.29955179  0.90105208  0.90038763  1
  Nb  Nb107  1  0.69641690  0.69783451  0.29782749  1
  Nb  Nb108  1  0.70285331  0.29099231  0.49811331  1
  Nb  Nb109  1  0.09902640  0.49767209  0.70111029  1
  Nb  Nb110  1  0.09567008  0.09494708  0.69966918  1
  Nb  Nb111  1  0.90893947  0.10075611  0.70158871  1
  Nb  Nb112  1  0.29706308  0.70319674  0.69767069  1
  Nb  Nb113  1  0.90069757  0.70150777  0.08534932  1
  Nb  Nb114  1  0.90152583  0.50362904  0.29478443  1
  Nb  Nb115  1  0.70512424  0.30375892  0.30213673  1
  Nb  Nb116  1  0.30126764  0.09436270  0.49423012  1
  Nb  Nb117  1  0.69325472  0.90025426  0.70075708  1
  Nb  Nb118  1  0.50116595  0.90083670  0.09912181  1
  Nb  Nb119  1  0.70033486  0.70175452  0.10012565  1
  Nb  Nb120  1  0.30311816  0.49792449  0.10208320  1
  Nb  Nb121  1  0.89288223  0.10004218  0.10198832  1
  Nb  Nb122  1  0.69438713  0.10701856  0.49779653  1
  Nb  Nb123  1  0.70418462  0.30344720  0.69352984  1
  Nb  Nb124  1  0.49944605  0.49445825  0.09842699  1
  Nb  Nb125  1  0.00246820  0.60009305  0.60165760  1
  Nb  Nb126  1  -0.00153205  0.79392346  0.20628814  1
  Nb  Nb127  1  0.00242579  0.40082833  0.79258063  1
  Nb  Nb128  1  0.00297368  0.80396462  0.79705321  1
  Nb  Nb129  1  0.79714379  0.19917360  0.00737534  1
  Nb  Nb130  1  0.60176241  0.80215180  0.00716347  1
  Nb  Nb131  1  0.60825076  -0.00017400  0.59916597  1
  Nb  Nb132  1  0.00362082  0.79895468  0.39945580  1
  Nb  Nb133  1  0.39449760  0.00100931  0.39804817  1
  Nb  Nb134  1  0.60124874  0.59937733  0.80326398  1
  Nb  Nb135  1  0.60221460  0.80553965  0.60034855  1
  Nb  Nb136  1  0.40399293  0.40041956  0.00437658  1
  Nb  Nb137  1  0.00451450  0.79994559  0.60209089  1
  Nb  Nb138  1  0.20125207  0.80257094  0.79950703  1
  Nb  Nb139  1  0.00074700  -0.00143963  0.60557424  1
  Nb  Nb140  1  0.40248865  0.20489895  0.80533260  1
  Nb  Nb141  1  -0.00675324  0.60442856  0.19754001  1
  Nb  Nb142  1  0.20571986  0.39634158  0.39760614  1
  Nb  Nb143  1  0.79631534  0.00855318  0.00377684  1
  Nb  Nb144  1  0.79895943  0.20137930  0.19780504  1
  Nb  Nb145  1  0.60792978  0.39434786  0.40180253  1
  Nb  Nb146  1  0.60737396  0.39226614  0.59513292  1
  Nb  Nb147  1  0.00021855  0.40290524  0.60350345  1
  Nb  Nb148  1  0.20441561  0.59620224  0.00196867  1
  Nb  Nb149  1  0.00181717  -0.00252526  0.79424957  1
  Pd  Pd150  1  0.19711314  0.59330880  0.58938578  1
  Pd  Pd151  1  0.21120360  0.19877706  0.79238163  1
  Pd  Pd152  1  0.39927273  0.60940106  0.59973652  1
  Pd  Pd153  1  0.80297139  0.60676894  0.19042031  1
  Pd  Pd154  1  0.19689803  0.00518616  0.19249214  1
  Pd  Pd155  1  -0.00878539  0.59652068  0.79593552  1
  Pd  Pd156  1  0.00094252  0.20239246  0.39569546  1
  Pd  Pd157  1  0.38892002  0.19575887  0.61231168  1
  Pd  Pd158  1  0.59374271  0.79284143  0.19432855  1
  Pd  Pd159  1  0.40392517  0.79460005  0.59846922  1
  Pd  Pd160  1  0.19531949  0.40455360  0.59246662  1
  Pd  Pd161  1  0.00348958  0.40577149  -0.00858788  1
  Pd  Pd162  1  0.59452869  0.60469520  0.61200568  1
  Pd  Pd163  1  0.39266424  -0.00920081  0.20289611  1
  Pd  Pd164  1  0.60323791  0.20269112  0.38738312  1
  Pd  Pd165  1  0.59121883  0.60476502  0.20159464  1
  Pd  Pd166  1  0.20419585  0.00683902  0.01088969  1
  Pd  Pd167  1  0.19754892  0.60660337  0.19190965  1
  Pd  Pd168  1  0.79869642  0.19127503  0.60024186  1
  Pd  Pd169  1  0.01041636  -0.00432701  0.40844349  1
  Pd  Pd170  1  0.79509824  0.40665900  0.40093809  1
  Pd  Pd171  1  0.00669923  0.20320091  0.80411232  1
  Pd  Pd172  1  0.80503878  0.79775866  0.19671053  1
  Pd  Pd173  1  0.59000237  0.00961532  0.79702526  1
  Pd  Pd174  1  -0.00246801  0.19806063  -0.00074116  1
  Pd  Pd175  1  0.40607086  0.60322286  0.20111088  1
  Pd  Pd176  1  0.59857639  0.40798455  0.79399788  1
  Pd  Pd177  1  0.60801589  0.20582636  0.20744648  1
  Pd  Pd178  1  0.59460043  0.19356797  0.79876909  1
  Pd  Pd179  1  0.00207640  0.60580635  0.39643550  1
  Pd  Pd180  1  0.79971407  0.00779979  0.59875693  1
  Pd  Pd181  1  0.78984030  0.81374771  0.00320592  1
  Pd  Pd182  1  0.19954426  0.19068574  0.00929587  1
  Pd  Pd183  1  0.59795393  0.39251322  -0.00148246  1
  Pd  Pd184  1  0.79574386  0.59887616  0.81239901  1
  Pd  Pd185  1  0.19914096  -0.00238925  0.59895712  1
  Pd  Pd186  1  0.39184073  0.60190174  0.40095719  1
  Pd  Pd187  1  0.40019870  0.60391187  0.80575249  1
  Pd  Pd188  1  0.19604394  0.79112797  0.19749337  1
  Pd  Pd189  1  0.39282738  0.59233586  -0.00323386  1
  Pd  Pd190  1  0.00118540  0.40466556  0.20328233  1
  Pd  Pd191  1  0.79511146  0.79629425  0.59815867  1
  Pd  Pd192  1  0.21165253  0.59248555  0.40461752  1
  Pd  Pd193  1  0.40716627  0.01235838  0.80959478  1
  Pd  Pd194  1  0.00776442  0.39784028  0.40070982  1
  Pd  Pd195  1  0.21228875  0.19626653  0.60711818  1
  Pd  Pd196  1  -0.00847906  0.00193147  -0.00595933  1
  Pd  Pd197  1  0.40235401  0.39842363  0.40964183  1
  Pd  Pd198  1  0.40920092  0.39855446  0.59213370  1
  Pd  Pd199  1  0.59412578  -0.00104543  0.39815687  1
  Rh  Rh200  1  0.20075291  0.20526226  0.39984367  1
  Rh  Rh201  1  0.79559475  0.20422638  0.80487869  1
  Rh  Rh202  1  0.80503011  0.80229542  0.80699472  1
  Rh  Rh203  1  0.60657376  0.79898847  0.40187680  1
  Rh  Rh204  1  -0.00555871  0.20103115  0.20028054  1
  Rh  Rh205  1  0.21385144  0.61254226  0.81269224  1
  Rh  Rh206  1  0.61285221  0.19563821  0.61038315  1
  Rh  Rh207  1  0.19953665  0.80250318  0.60835498  1
  Rh  Rh208  1  0.39989944  0.39562870  0.80713235  1
  Rh  Rh209  1  0.81197916  0.39125399  0.19872962  1
  Rh  Rh210  1  0.59860361  0.79205949  0.80314786  1
  Rh  Rh211  1  0.19581808  -0.00476708  0.80414641  1
  Rh  Rh212  1  0.39236052  0.80083443  0.80280547  1
  Rh  Rh213  1  0.00484141  0.58880781  0.00609917  1
  Rh  Rh214  1  0.40272622  0.79961248  0.19866027  1
  Rh  Rh215  1  0.00261799  -0.00622214  0.19790625  1
  Rh  Rh216  1  0.60628550  0.61311488  -0.00650468  1
  Rh  Rh217  1  0.59139706  0.40116989  0.20677836  1
  Rh  Rh218  1  0.79705448  0.79946148  0.39565261  1
  Rh  Rh219  1  0.79583499  0.60310827  0.00103370  1
  Rh  Rh220  1  0.79352282  0.00770523  0.19815027  1
  Rh  Rh221  1  0.60803294  0.58892089  0.38541600  1
  Rh  Rh222  1  0.80602351  0.60217475  0.59866421  1
  Rh  Rh223  1  0.79859323  0.19490568  0.38991047  1
  Rh  Rh224  1  0.80519279  0.39935356  0.80131273  1
  Rh  Rh225  1  0.19205828  0.39058072  0.79205452  1
  Rh  Rh226  1  0.40429885  0.00416538  0.58998472  1
  Rh  Rh227  1  -0.00225448  0.19886553  0.59608350  1
  Rh  Rh228  1  0.39841905  -0.00540798  -0.00032852  1
  Rh  Rh229  1  0.39618186  0.20470147  -0.00243109  1
  Rh  Rh230  1  0.79167206  0.59290828  0.39263984  1
  Rh  Rh231  1  0.20700731  0.79345421  -0.00462660  1
  Rh  Rh232  1  0.20955359  0.40651504  0.00476557  1
  Rh  Rh233  1  0.39745157  0.20081318  0.19694946  1
  Rh  Rh234  1  0.38772713  0.80420816  0.40044605  1
  Rh  Rh235  1  0.39640063  0.19225060  0.39628151  1
  Rh  Rh236  1  -0.00585146  0.81288397  0.00207183  1
  Rh  Rh237  1  0.80556104  -0.00176196  0.80708611  1
  Rh  Rh238  1  0.79716726  0.00649559  0.39770482  1
  Rh  Rh239  1  0.80001970  0.40016432  0.59303891  1
  Rh  Rh240  1  0.40526727  0.39578754  0.18896999  1
  Rh  Rh241  1  0.60514762  -0.01464118  0.00013933  1
  Rh  Rh242  1  0.79632119  0.39281242  0.00190750  1
  Rh  Rh243  1  0.61017432  0.21160138  -0.00310839  1
  Rh  Rh244  1  0.59728049  -0.00613713  0.20852318  1
  Rh  Rh245  1  0.19819118  0.39701643  0.20541906  1
  Rh  Rh246  1  0.40833219  0.80785547  0.00286973  1
  Rh  Rh247  1  0.19582065  0.19291650  0.19514439  1
  Rh  Rh248  1  0.20342493  -0.00241530  0.39932825  1
  Rh  Rh249  1  0.19890466  0.79888163  0.40046581  1
