# generated using pymatgen
data_ZrScNbPdRh
_symmetry_space_group_name_H-M   'P 1'
_cell_length_a   16.55996938
_cell_length_b   16.55917090
_cell_length_c   16.55705942
_cell_angle_alpha   90.00963471
_cell_angle_beta   89.98843725
_cell_angle_gamma   90.00338729
_symmetry_Int_Tables_number   1
_chemical_formula_structural   ZrScNbPdRh
_chemical_formula_sum   'Zr50 Sc50 Nb50 Pd50 Rh50'
_cell_volume   4540.26612202
_cell_formula_units_Z   50
loop_
 _symmetry_equiv_pos_site_id
 _symmetry_equiv_pos_as_xyz
  1  'x, y, z'
loop_
 _atom_site_type_symbol
 _atom_site_label
 _atom_site_symmetry_multiplicity
 _atom_site_fract_x
 _atom_site_fract_y
 _atom_site_fract_z
 _atom_site_occupancy
  Zr  Zr0  1  0.69754344  0.08886678  0.30038718  1
  Zr  Zr1  1  0.69856597  0.49376022  0.50091409  1
  Zr  Zr2  1  0.69463888  0.89537938  0.70188204  1
  Zr  Zr3  1  0.89049820  0.30084120  0.50555245  1
  Zr  Zr4  1  0.09960897  0.29762989  0.49773072  1
  Zr  Zr5  1  0.29968251  0.69933800  0.70885826  1
  Zr  Zr6  1  0.89957700  0.10441413  0.69486979  1
  Zr  Zr7  1  0.69967243  0.10254876  0.10598556  1
  Zr  Zr8  1  0.68870337  0.29783355  0.30400320  1
  Zr  Zr9  1  0.90748998  0.69774176  0.89688823  1
  Zr  Zr10  1  0.30258590  0.49773749  0.70042803  1
  Zr  Zr11  1  0.90744272  0.89133688  0.69878142  1
  Zr  Zr12  1  0.10331801  0.69512856  0.50128191  1
  Zr  Zr13  1  0.48741049  0.29442706  0.49088576  1
  Zr  Zr14  1  0.89249928  0.90097089  0.30656498  1
  Zr  Zr15  1  0.49271942  0.30431561  0.70454194  1
  Zr  Zr16  1  0.90005859  0.29735798  0.30709082  1
  Zr  Zr17  1  0.90815606  0.69814065  0.49908022  1
  Zr  Zr18  1  0.30043327  0.89686753  0.48718266  1
  Zr  Zr19  1  0.10693886  0.90721909  0.30368378  1
  Zr  Zr20  1  0.29676442  0.29492060  0.09681502  1
  Zr  Zr21  1  0.69727103  0.31598427  0.90127260  1
  Zr  Zr22  1  0.10243566  0.89706128  0.70193526  1
  Zr  Zr23  1  0.90391441  0.49199921  0.50297461  1
  Zr  Zr24  1  0.90285036  0.69583777  0.30088820  1
  Zr  Zr25  1  0.29976935  0.51118055  0.90129255  1
  Zr  Zr26  1  0.30294188  0.11673294  0.49546450  1
  Zr  Zr27  1  0.11378794  0.69707228  0.89836916  1
  Zr  Zr28  1  0.30933471  0.10287798  0.09644186  1
  Zr  Zr29  1  0.50104130  0.90270298  0.89893153  1
  Zr  Zr30  1  0.31079081  0.10508418  0.90627621  1
  Zr  Zr31  1  0.69436645  0.69888417  0.29672084  1
  Zr  Zr32  1  0.69986429  0.30294850  0.09895295  1
  Zr  Zr33  1  0.90665521  0.29115334  0.09720307  1
  Zr  Zr34  1  0.49815908  0.90138361  0.29577451  1
  Zr  Zr35  1  0.69452561  0.49990537  0.08661463  1
  Zr  Zr36  1  0.30370362  0.30341437  0.69544535  1
  Zr  Zr37  1  0.69603369  0.70360577  0.69887339  1
  Zr  Zr38  1  0.29425260  0.30756084  0.50082562  1
  Zr  Zr39  1  0.10706997  0.50075520  0.28249812  1
  Zr  Zr40  1  0.70224090  0.90559835  0.10397145  1
  Zr  Zr41  1  0.70852325  0.30049291  0.70200681  1
  Zr  Zr42  1  0.09290334  0.09400258  0.69307954  1
  Zr  Zr43  1  0.89355878  0.09355415  0.09954460  1
  Zr  Zr44  1  0.90382180  0.10122661  0.90559962  1
  Zr  Zr45  1  0.30598408  0.29601038  0.89224632  1
  Zr  Zr46  1  0.09680074  0.90184568  0.50172281  1
  Zr  Zr47  1  0.29928166  0.50554621  0.49973987  1
  Zr  Zr48  1  0.29841300  0.50124241  0.11336743  1
  Zr  Zr49  1  0.89471447  0.30112679  0.89626928  1
  Sc  Sc50  1  0.49663145  0.29953651  0.11244422  1
  Sc  Sc51  1  0.30271665  0.90428584  0.29849822  1
  Sc  Sc52  1  0.10252685  0.10037954  0.89388519  1
  Sc  Sc53  1  0.67845588  0.49815959  0.30444254  1
  Sc  Sc54  1  0.90549424  0.69299043  0.09582886  1
  Sc  Sc55  1  0.50809838  0.89914063  0.70251991  1
  Sc  Sc56  1  0.50326973  0.09538092  0.49509659  1
  Sc  Sc57  1  0.10155568  0.69222609  0.09471633  1
  Sc  Sc58  1  0.30413828  0.49887491  0.29980745  1
  Sc  Sc59  1  0.29639072  0.09764063  0.29542865  1
  Sc  Sc60  1  0.70131948  0.10239707  0.89621373  1
  Sc  Sc61  1  0.68746262  0.69963371  0.50687500  1
  Sc  Sc62  1  0.10605321  0.11639211  0.10126986  1
  Sc  Sc63  1  0.69485979  0.50439370  0.71057569  1
  Sc  Sc64  1  0.09700012  0.68904101  0.29899357  1
  Sc  Sc65  1  0.10469829  0.89473245  0.89812392  1
  Sc  Sc66  1  0.68219107  0.70033140  0.09626702  1
  Sc  Sc67  1  0.90910782  0.90443969  0.90950501  1
  Sc  Sc68  1  0.09361661  0.50294877  0.69741845  1
  Sc  Sc69  1  0.90288679  0.89480037  0.49817038  1
  Sc  Sc70  1  0.50861297  0.09084616  0.70889085  1
  Sc  Sc71  1  0.69677654  0.09903695  0.69910546  1
  Sc  Sc72  1  0.09674721  0.30094956  0.69325927  1
  Sc  Sc73  1  0.30907091  0.90653465  0.10602147  1
  Sc  Sc74  1  0.30589080  0.30256516  0.30743703  1
  Sc  Sc75  1  0.89506555  0.50152868  0.89474061  1
  Sc  Sc76  1  0.89782946  0.30589299  0.69704247  1
  Sc  Sc77  1  0.08949176  0.29302161  0.90617854  1
  Sc  Sc78  1  0.90157165  0.10257229  0.49879182  1
  Sc  Sc79  1  0.91365317  0.50116019  0.30166221  1
  Sc  Sc80  1  0.69689549  0.69423901  0.90125229  1
  Sc  Sc81  1  0.50091572  0.50824140  0.49362327  1
  Sc  Sc82  1  0.10497142  0.89696995  0.08838985  1
  Sc  Sc83  1  0.30158632  0.88977636  0.89158363  1
  Sc  Sc84  1  0.09205487  0.69793617  0.70622105  1
  Sc  Sc85  1  0.30441768  0.69307424  0.30296328  1
  Sc  Sc86  1  0.50026223  0.30317349  0.89413927  1
  Sc  Sc87  1  0.09923539  0.29468086  0.29491277  1
  Sc  Sc88  1  0.69692575  0.90359826  0.49522193  1
  Sc  Sc89  1  0.90323323  0.70023732  0.70288389  1
  Sc  Sc90  1  0.50292577  0.50222429  0.70422520  1
  Sc  Sc91  1  0.49951060  0.50494810  0.10575676  1
  Sc  Sc92  1  0.09565145  0.10443445  0.49563751  1
  Sc  Sc93  1  0.50321984  0.90394048  0.49726246  1
  Sc  Sc94  1  0.49870114  0.89395430  0.10140827  1
  Sc  Sc95  1  0.69837080  0.09436314  0.49826019  1
  Sc  Sc96  1  0.29737358  0.10913800  0.71120620  1
  Sc  Sc97  1  0.91028040  0.49993476  0.09801735  1
  Sc  Sc98  1  0.89616079  0.10425779  0.30242418  1
  Sc  Sc99  1  0.10203299  0.49754494  0.50297083  1
  Nb  Nb100  1  0.49278915  0.50066580  0.30024636  1
  Nb  Nb101  1  0.89984799  0.50153036  0.69616938  1
  Nb  Nb102  1  0.49498288  0.10012384  0.09503825  1
  Nb  Nb103  1  0.69833325  0.89688992  0.90266085  1
  Nb  Nb104  1  0.49850272  0.09884353  0.90718836  1
  Nb  Nb105  1  0.49812754  0.69854845  0.49868833  1
  Nb  Nb106  1  0.30150650  0.70098675  0.09300289  1
  Nb  Nb107  1  0.10146838  0.30596622  0.09902741  1
  Nb  Nb108  1  0.89882946  0.90319410  0.10171828  1
  Nb  Nb109  1  0.49500163  0.70393803  0.91832014  1
  Nb  Nb110  1  0.10396408  0.48889286  0.10203411  1
  Nb  Nb111  1  0.49996532  0.30795031  0.30311124  1
  Nb  Nb112  1  0.50481428  0.68788977  0.29499812  1
  Nb  Nb113  1  0.50892952  0.70013019  0.68695563  1
  Nb  Nb114  1  0.70047112  0.30396459  0.50330579  1
  Nb  Nb115  1  0.10357696  0.50045170  0.89724721  1
  Nb  Nb116  1  0.09393538  0.10280783  0.29798370  1
  Nb  Nb117  1  0.49646691  0.70310296  0.10532211  1
  Nb  Nb118  1  0.30140751  0.69962830  0.90335137  1
  Nb  Nb119  1  0.30482062  0.69811085  0.50308200  1
  Nb  Nb120  1  0.30138323  0.89622666  0.69656821  1
  Nb  Nb121  1  0.69820564  0.89723664  0.30019011  1
  Nb  Nb122  1  0.50540107  0.10961027  0.29217683  1
  Nb  Nb123  1  0.68820815  0.49758222  0.90256620  1
  Nb  Nb124  1  0.50882644  0.49742015  0.90196106  1
  Nb  Nb125  1  0.39916571  0.79740765  0.59729735  1
  Nb  Nb126  1  0.19779999  0.40235271  0.80661980  1
  Nb  Nb127  1  0.59382197  0.79605826  0.39219623  1
  Nb  Nb128  1  0.38978808  -0.00563061  0.60168156  1
  Nb  Nb129  1  0.20867156  0.79967966  0.59781526  1
  Nb  Nb130  1  0.39600106  0.40439696  -0.00089951  1
  Nb  Nb131  1  0.19780951  0.40081787  -0.00100107  1
  Nb  Nb132  1  0.80032571  0.80302895  0.00513588  1
  Nb  Nb133  1  0.59756477  0.00447972  0.00014274  1
  Nb  Nb134  1  0.79498146  0.59596588  0.20224841  1
  Nb  Nb135  1  0.59941381  0.39194757  0.59780940  1
  Nb  Nb136  1  0.80178544  0.79767156  0.19747822  1
  Nb  Nb137  1  -0.00037602  0.80725000  0.19850457  1
  Nb  Nb138  1  0.79833960  0.40396600  0.20091172  1
  Nb  Nb139  1  0.19959702  0.79674433  0.19697458  1
  Nb  Nb140  1  0.20865919  -0.00308528  0.59909399  1
  Nb  Nb141  1  0.00158586  -0.00167968  0.19970497  1
  Nb  Nb142  1  0.59508881  0.19671423  0.00245337  1
  Nb  Nb143  1  0.80096271  0.59748336  0.59892838  1
  Nb  Nb144  1  0.21015137  0.00561168  -0.00251108  1
  Nb  Nb145  1  0.60098359  0.20884833  0.59777977  1
  Nb  Nb146  1  0.79772217  0.59834934  0.40114736  1
  Nb  Nb147  1  0.80155354  -0.00664715  0.79891284  1
  Nb  Nb148  1  0.80258532  -0.00561851  0.60747860  1
  Nb  Nb149  1  0.40856460  0.61062408  0.80991501  1
  Pd  Pd150  1  0.80091863  0.19528095  0.80240360  1
  Pd  Pd151  1  0.40529691  0.59440488  0.00440579  1
  Pd  Pd152  1  0.40491065  0.60112025  0.60638743  1
  Pd  Pd153  1  0.39432964  0.80830975  0.00301312  1
  Pd  Pd154  1  0.19657171  0.59370562  0.00892918  1
  Pd  Pd155  1  0.41213320  0.18442624  0.60972370  1
  Pd  Pd156  1  0.18997146  0.20928749  0.79814977  1
  Pd  Pd157  1  0.19645344  0.60393595  0.60837798  1
  Pd  Pd158  1  0.59926478  0.40518343  0.19548894  1
  Pd  Pd159  1  0.40334121  0.00950276  0.39758684  1
  Pd  Pd160  1  0.00712175  0.59267082  -0.00390121  1
  Pd  Pd161  1  0.40971506  0.40862523  0.59074647  1
  Pd  Pd162  1  0.59123008  0.61065323  0.80724267  1
  Pd  Pd163  1  0.59240186  0.78918229  0.80903063  1
  Pd  Pd164  1  0.19728038  0.78955091  0.39372876  1
  Pd  Pd165  1  0.00311606  0.40217201  0.79810121  1
  Pd  Pd166  1  0.00088303  0.40422478  -0.00632658  1
  Pd  Pd167  1  0.41291534  0.79324018  0.79375191  1
  Pd  Pd168  1  0.59167394  -0.00082686  0.19371056  1
  Pd  Pd169  1  0.19629072  0.40251776  0.39254727  1
  Pd  Pd170  1  0.20107361  0.59661391  0.39559195  1
  Pd  Pd171  1  0.59754121  0.20210381  0.80195057  1
  Pd  Pd172  1  0.20679894  -0.00053279  0.80257655  1
  Pd  Pd173  1  0.79631214  0.40876955  0.38570888  1
  Pd  Pd174  1  0.79126305  0.20112564  -0.00574742  1
  Pd  Pd175  1  0.01182937  0.40080514  0.39663972  1
  Pd  Pd176  1  -0.00169559  0.79727782  0.00285440  1
  Pd  Pd177  1  0.39646704  0.00111982  0.79468969  1
  Pd  Pd178  1  0.01052329  0.79845133  0.39225857  1
  Pd  Pd179  1  0.20111179  0.01253523  0.40642745  1
  Pd  Pd180  1  0.40794886  0.79231589  0.39702513  1
  Pd  Pd181  1  -0.00516665  -0.00289014  0.80202470  1
  Pd  Pd182  1  0.80445389  0.80364099  0.81282985  1
  Pd  Pd183  1  0.81015696  0.40612447  0.00488437  1
  Pd  Pd184  1  -0.00657344  0.39323664  0.20158281  1
  Pd  Pd185  1  0.60163397  0.19756063  0.40556481  1
  Pd  Pd186  1  0.01695221  0.00891610  0.00812656  1
  Pd  Pd187  1  0.19353843  -0.00323515  0.18863365  1
  Pd  Pd188  1  0.79209800  0.19511001  0.40372864  1
  Pd  Pd189  1  0.78816684  0.79165292  0.40374309  1
  Pd  Pd190  1  0.19678057  0.19506612  0.60360277  1
  Pd  Pd191  1  0.00054551  0.20347523  0.79489814  1
  Pd  Pd192  1  -0.00632928  0.00597816  0.39659884  1
  Pd  Pd193  1  0.20374436  0.20450644  0.20649112  1
  Pd  Pd194  1  0.79664875  0.60603365  0.00353584  1
  Pd  Pd195  1  0.80018741  0.59824525  0.79584240  1
  Pd  Pd196  1  0.39261635  0.79178895  0.20431335  1
  Pd  Pd197  1  0.39785602  0.20175075  0.20681517  1
  Pd  Pd198  1  0.79825971  0.79854722  0.59172365  1
  Pd  Pd199  1  0.79846408  0.20636912  0.20674861  1
  Rh  Rh200  1  0.40809370  0.00799024  0.20446033  1
  Rh  Rh201  1  0.60886032  -0.00078554  0.81099822  1
  Rh  Rh202  1  0.60436261  0.59098248  0.59833566  1
  Rh  Rh203  1  0.40009646  0.60520675  0.19901539  1
  Rh  Rh204  1  0.00151640  0.39654026  0.60064915  1
  Rh  Rh205  1  0.79200600  0.18870161  0.59448336  1
  Rh  Rh206  1  0.79153068  0.41113906  0.61195849  1
  Rh  Rh207  1  0.59892560  0.80118653  0.20464029  1
  Rh  Rh208  1  0.00000477  0.20301859  0.40054412  1
  Rh  Rh209  1  0.20209336  0.59562689  0.79442777  1
  Rh  Rh210  1  0.20233995  0.61028001  0.19521622  1
  Rh  Rh211  1  0.19730685  0.40193063  0.60781994  1
  Rh  Rh212  1  0.80570922  -0.00296377  0.20920999  1
  Rh  Rh213  1  0.58770224  0.39683600  0.40763746  1
  Rh  Rh214  1  0.59157645  0.80689666  0.58976545  1
  Rh  Rh215  1  0.40256584  0.19487362  0.38731620  1
  Rh  Rh216  1  0.40035452  0.40874020  0.40231573  1
  Rh  Rh217  1  0.59154304  0.60228459  0.00066364  1
  Rh  Rh218  1  0.00975440  0.79541445  0.59882024  1
  Rh  Rh219  1  0.79163343  -0.00609955  -0.01128500  1
  Rh  Rh220  1  0.39554290  0.41506530  0.81045775  1
  Rh  Rh221  1  0.21206513  0.80763791  0.00685642  1
  Rh  Rh222  1  0.20587231  0.38967821  0.20020854  1
  Rh  Rh223  1  0.58492558  0.39153027  0.00423473  1
  Rh  Rh224  1  0.00192831  0.19504253  0.00270211  1
  Rh  Rh225  1  0.00238780  0.59033250  0.40646834  1
  Rh  Rh226  1  0.00066781  0.59573470  0.80362374  1
  Rh  Rh227  1  0.40044151  0.60006533  0.39670179  1
  Rh  Rh228  1  0.80089637  0.00001019  0.40822181  1
  Rh  Rh229  1  0.39996583  -0.00935418  -0.00256573  1
  Rh  Rh230  1  0.00020259  0.60267524  0.19176958  1
  Rh  Rh231  1  -0.00292953  -0.00202232  0.59576734  1
  Rh  Rh232  1  0.79914173  0.40957807  0.79956088  1
  Rh  Rh233  1  0.59832424  0.60545658  0.40295818  1
  Rh  Rh234  1  0.19783357  0.79679115  0.79599945  1
  Rh  Rh235  1  -0.00191472  0.19486345  0.19848024  1
  Rh  Rh236  1  0.60112254  0.39934395  0.79267478  1
  Rh  Rh237  1  0.59754931  0.20112001  0.19739392  1
  Rh  Rh238  1  0.00376931  0.79822693  0.80841946  1
  Rh  Rh239  1  0.41042209  0.19156721  0.79594931  1
  Rh  Rh240  1  0.19684108  0.19889743  0.39237853  1
  Rh  Rh241  1  -0.00389788  0.20665162  0.59471900  1
  Rh  Rh242  1  -0.00610009  0.60001496  0.60077853  1
  Rh  Rh243  1  0.41278669  0.21494553  -0.00156097  1
  Rh  Rh244  1  0.19655248  0.20065402  -0.00555412  1
  Rh  Rh245  1  0.60221746  0.80590332  0.00023988  1
  Rh  Rh246  1  0.60262339  0.00386599  0.59945763  1
  Rh  Rh247  1  0.59903842  0.59408605  0.19482620  1
  Rh  Rh248  1  0.39978351  0.39859995  0.20075017  1
  Rh  Rh249  1  0.59539777  -0.00488891  0.39231440  1
