# generated using pymatgen
data_ZrScNbPdRh
_symmetry_space_group_name_H-M   'P 1'
_cell_length_a   16.55427106
_cell_length_b   16.55500108
_cell_length_c   16.55543306
_cell_angle_alpha   90.00261622
_cell_angle_beta   90.01416535
_cell_angle_gamma   90.00737874
_symmetry_Int_Tables_number   1
_chemical_formula_structural   ZrScNbPdRh
_chemical_formula_sum   'Zr50 Sc50 Nb50 Pd50 Rh50'
_cell_volume   4537.11517194
_cell_formula_units_Z   50
loop_
 _symmetry_equiv_pos_site_id
 _symmetry_equiv_pos_as_xyz
  1  'x, y, z'
loop_
 _atom_site_type_symbol
 _atom_site_label
 _atom_site_symmetry_multiplicity
 _atom_site_fract_x
 _atom_site_fract_y
 _atom_site_fract_z
 _atom_site_occupancy
  Zr  Zr0  1  0.29241966  0.50381092  0.10157473  1
  Zr  Zr1  1  0.90378423  0.89687449  0.90489830  1
  Zr  Zr2  1  0.30592754  0.09671433  0.70055863  1
  Zr  Zr3  1  0.70350325  0.49328206  0.30609084  1
  Zr  Zr4  1  0.70359342  0.70157276  0.09327983  1
  Zr  Zr5  1  0.71079948  0.70630137  0.70142336  1
  Zr  Zr6  1  0.30623224  0.49434873  0.29860086  1
  Zr  Zr7  1  0.49216377  0.29844686  0.29367586  1
  Zr  Zr8  1  0.29823793  0.09664703  0.09753836  1
  Zr  Zr9  1  0.11159657  0.49831589  0.90094336  1
  Zr  Zr10  1  0.90266142  0.29667209  0.31206171  1
  Zr  Zr11  1  0.89804536  0.70266119  0.90232252  1
  Zr  Zr12  1  0.90178477  0.11487593  0.69858632  1
  Zr  Zr13  1  0.49476731  0.49831176  0.10232258  1
  Zr  Zr14  1  0.90186398  0.49585726  0.89975362  1
  Zr  Zr15  1  0.70161439  0.29573140  0.29817668  1
  Zr  Zr16  1  0.29991745  0.30315303  0.49214192  1
  Zr  Zr17  1  0.49639283  0.70370230  0.50910702  1
  Zr  Zr18  1  0.09682034  0.70217399  0.49870443  1
  Zr  Zr19  1  0.29943678  0.90473991  0.50143080  1
  Zr  Zr20  1  0.30368718  0.50099303  0.70893739  1
  Zr  Zr21  1  0.90057833  0.49777887  0.69052590  1
  Zr  Zr22  1  0.10087253  0.09326836  0.69802893  1
  Zr  Zr23  1  0.90399428  0.70073661  0.50743001  1
  Zr  Zr24  1  0.29989416  0.69522608  0.10456958  1
  Zr  Zr25  1  0.08452247  0.29920129  0.69748175  1
  Zr  Zr26  1  0.69947098  0.49783493  0.70206493  1
  Zr  Zr27  1  0.29890386  0.89875209  0.89698895  1
  Zr  Zr28  1  0.09999259  0.29520726  0.48360063  1
  Zr  Zr29  1  0.49420580  0.69651880  0.70960333  1
  Zr  Zr30  1  0.50698618  0.50139444  0.89346945  1
  Zr  Zr31  1  0.08501567  0.69668710  0.30615948  1
  Zr  Zr32  1  0.89402115  0.89309504  0.29545181  1
  Zr  Zr33  1  0.30609105  0.09832642  0.50562258  1
  Zr  Zr34  1  0.10584233  0.68913485  0.11094013  1
  Zr  Zr35  1  0.30801572  0.29833693  0.69973346  1
  Zr  Zr36  1  0.89981582  0.69640924  0.70353124  1
  Zr  Zr37  1  0.50324492  0.30542873  0.70292403  1
  Zr  Zr38  1  0.30117114  0.69407344  0.89229821  1
  Zr  Zr39  1  0.30157140  0.90886643  0.29528678  1
  Zr  Zr40  1  0.89610498  0.29831606  0.08174425  1
  Zr  Zr41  1  0.50461888  0.08764315  0.30004830  1
  Zr  Zr42  1  0.70191555  0.29469129  0.70233220  1
  Zr  Zr43  1  0.69370103  0.90727716  0.29458089  1
  Zr  Zr44  1  0.10239144  0.28999619  0.09653690  1
  Zr  Zr45  1  0.69799827  0.10327075  0.30082267  1
  Zr  Zr46  1  0.89973625  0.09905983  0.50327649  1
  Zr  Zr47  1  0.29604717  0.90537576  0.70555376  1
  Zr  Zr48  1  0.09553726  0.30263770  0.89703043  1
  Zr  Zr49  1  0.50896703  0.90239268  0.70893164  1
  Sc  Sc50  1  0.69978366  0.50032675  0.90480146  1
  Sc  Sc51  1  0.70336880  0.90588377  0.51134804  1
  Sc  Sc52  1  0.29829668  0.69833602  0.50839129  1
  Sc  Sc53  1  0.69764514  0.71594567  0.29364651  1
  Sc  Sc54  1  0.70056022  0.29044448  0.08824128  1
  Sc  Sc55  1  0.70513559  0.49392544  0.50361217  1
  Sc  Sc56  1  0.50581115  0.90752920  0.49854899  1
  Sc  Sc57  1  0.30013995  0.09969584  0.90266462  1
  Sc  Sc58  1  0.89461868  0.49812105  0.09137303  1
  Sc  Sc59  1  0.70436827  0.89956640  0.09640858  1
  Sc  Sc60  1  0.70645890  0.30428883  0.49007827  1
  Sc  Sc61  1  0.50924290  0.69124321  0.10468533  1
  Sc  Sc62  1  0.08790355  0.90263219  0.50046618  1
  Sc  Sc63  1  0.50844130  0.91013904  0.09754931  1
  Sc  Sc64  1  0.29887349  0.50269439  0.50111176  1
  Sc  Sc65  1  0.09570619  0.90028608  0.89268703  1
  Sc  Sc66  1  0.09676131  0.90714688  0.09926618  1
  Sc  Sc67  1  0.30877686  0.70014119  0.69958711  1
  Sc  Sc68  1  0.90020109  0.10147725  0.90114519  1
  Sc  Sc69  1  0.09983376  0.10010199  0.09812676  1
  Sc  Sc70  1  0.09410890  0.70116828  0.89395577  1
  Sc  Sc71  1  0.08672972  0.69872888  0.69858840  1
  Sc  Sc72  1  0.49709906  0.50010789  0.29286752  1
  Sc  Sc73  1  0.89823632  0.90162147  0.09838839  1
  Sc  Sc74  1  0.89353448  0.09584306  0.29851197  1
  Sc  Sc75  1  0.09509817  0.89271543  0.30203152  1
  Sc  Sc76  1  0.70394118  0.71073465  0.50680434  1
  Sc  Sc77  1  0.09684086  0.50455201  0.50069891  1
  Sc  Sc78  1  0.09348631  0.49963465  0.70627042  1
  Sc  Sc79  1  0.49566892  0.30501900  0.50213517  1
  Sc  Sc80  1  0.30510816  0.09787213  0.29313563  1
  Sc  Sc81  1  0.51132919  0.29457980  0.89817081  1
  Sc  Sc82  1  0.89998822  0.09289203  0.09760569  1
  Sc  Sc83  1  0.49510860  0.10608992  0.09921875  1
  Sc  Sc84  1  0.90387414  0.89340385  0.69673789  1
  Sc  Sc85  1  0.69691595  0.50473009  0.09077716  1
  Sc  Sc86  1  0.70207316  0.09799568  0.69699413  1
  Sc  Sc87  1  0.09849235  0.09655263  0.90017451  1
  Sc  Sc88  1  0.89765453  0.90205103  0.49901092  1
  Sc  Sc89  1  0.29605896  0.29691079  0.30192961  1
  Sc  Sc90  1  0.70083834  0.70074615  0.90589425  1
  Sc  Sc91  1  0.50497392  0.09759072  0.89365331  1
  Sc  Sc92  1  0.50933356  0.89989983  0.90122343  1
  Sc  Sc93  1  0.49580966  0.49561408  0.49995801  1
  Sc  Sc94  1  0.69756087  0.10658799  0.89810121  1
  Sc  Sc95  1  0.09200645  0.11847585  0.30398575  1
  Sc  Sc96  1  0.28382907  0.70166611  0.29639609  1
  Sc  Sc97  1  0.90682553  0.50118373  0.30715288  1
  Sc  Sc98  1  0.09945666  0.50350036  0.30704983  1
  Sc  Sc99  1  0.69604890  0.89646385  0.90278953  1
  Nb  Nb100  1  0.49578702  0.70172434  0.90347873  1
  Nb  Nb101  1  0.89848334  0.69979107  0.29762785  1
  Nb  Nb102  1  0.30060715  0.90135436  0.09979293  1
  Nb  Nb103  1  0.10221436  0.10104463  0.50072949  1
  Nb  Nb104  1  0.50300421  0.09724873  0.49797049  1
  Nb  Nb105  1  0.50584567  0.50074108  0.69989248  1
  Nb  Nb106  1  0.29100887  0.30515730  0.89786722  1
  Nb  Nb107  1  0.90172569  0.30057682  0.70092878  1
  Nb  Nb108  1  0.49117616  0.30198930  0.09928634  1
  Nb  Nb109  1  0.90421963  0.30798509  0.51452652  1
  Nb  Nb110  1  0.49947711  0.90136315  0.29963241  1
  Nb  Nb111  1  0.89995462  0.69954745  0.10249833  1
  Nb  Nb112  1  0.10224404  0.49852854  0.10011466  1
  Nb  Nb113  1  0.10526691  0.90137156  0.70123009  1
  Nb  Nb114  1  0.50304279  0.70544588  0.30154676  1
  Nb  Nb115  1  0.30561848  0.29064761  0.09762963  1
  Nb  Nb116  1  0.70506008  0.09748441  0.10746301  1
  Nb  Nb117  1  0.70643411  0.29616361  0.89639198  1
  Nb  Nb118  1  0.49912684  0.10872018  0.69675162  1
  Nb  Nb119  1  0.89524276  0.29636476  0.89279567  1
  Nb  Nb120  1  0.09896341  0.30412902  0.29830912  1
  Nb  Nb121  1  0.69524901  0.09758486  0.49892460  1
  Nb  Nb122  1  0.70634325  0.90138469  0.70596593  1
  Nb  Nb123  1  0.29619595  0.49592301  0.90110763  1
  Nb  Nb124  1  0.89291281  0.49850860  0.50415731  1
  Nb  Nb125  1  0.39719268  0.59615776  -0.00601826  1
  Nb  Nb126  1  0.59824627  0.59933161  0.60316017  1
  Nb  Nb127  1  0.40267236  0.80178524  0.39254060  1
  Nb  Nb128  1  0.19603890  0.00568286  0.40290461  1
  Nb  Nb129  1  0.20058264  0.20433893  0.79459305  1
  Nb  Nb130  1  0.00184530  0.39522616  0.19663452  1
  Nb  Nb131  1  0.80161560  0.39855890  0.19867540  1
  Nb  Nb132  1  0.40596310  0.19197582  0.40216169  1
  Nb  Nb133  1  0.19373602  0.39456123  0.19751161  1
  Nb  Nb134  1  0.39817867  0.79685129  0.00471858  1
  Nb  Nb135  1  0.59684356  0.19478445  0.59417547  1
  Nb  Nb136  1  0.19902298  0.20124847  0.59958930  1
  Nb  Nb137  1  0.59973652  0.60669273  0.40306652  1
  Nb  Nb138  1  0.80339896  0.39231256  0.79898903  1
  Nb  Nb139  1  0.60324758  0.39393108  0.19471594  1
  Nb  Nb140  1  0.40307236  0.80450328  0.20086277  1
  Nb  Nb141  1  0.19785988  0.39337133  0.60274037  1
  Nb  Nb142  1  0.40532413  0.61112604  0.39505915  1
  Nb  Nb143  1  0.19521267  0.80637928  0.60485900  1
  Nb  Nb144  1  0.80326691  0.60141741  0.20390147  1
  Nb  Nb145  1  0.79945443  0.60563022  0.39856467  1
  Nb  Nb146  1  0.00372967  0.59880338  0.00448383  1
  Nb  Nb147  1  0.20554931  0.79901085  0.00235484  1
  Nb  Nb148  1  0.39336917  0.39808965  -0.00319667  1
  Nb  Nb149  1  0.79999973  -0.00251522  0.79665711  1
  Pd  Pd150  1  0.59904842  0.19503045  0.00369187  1
  Pd  Pd151  1  0.79861183  0.59223958  0.80505180  1
  Pd  Pd152  1  0.00030050  0.80393248  0.19313407  1
  Pd  Pd153  1  0.20276567  0.80667714  0.40736022  1
  Pd  Pd154  1  0.00217356  0.00261154  0.20682340  1
  Pd  Pd155  1  -0.00001720  0.19207639  -0.00494027  1
  Pd  Pd156  1  0.19473677  0.60607665  0.79086642  1
  Pd  Pd157  1  0.40502937  -0.00444386  -0.00212046  1
  Pd  Pd158  1  0.79236943  0.20336991  0.59124094  1
  Pd  Pd159  1  0.79448519  -0.00177002  0.40012562  1
  Pd  Pd160  1  0.18585569  0.00691651  0.21028928  1
  Pd  Pd161  1  -0.00974660  -0.00020874  0.79579263  1
  Pd  Pd162  1  0.39472692  0.40788757  0.60019674  1
  Pd  Pd163  1  0.19504037  0.79127239  0.79604938  1
  Pd  Pd164  1  0.59263837  0.20478130  0.40605365  1
  Pd  Pd165  1  0.19763024  0.80739952  0.19588085  1
  Pd  Pd166  1  0.40610848  -0.00157573  0.80604171  1
  Pd  Pd167  1  0.39861772  0.20283360  0.81041703  1
  Pd  Pd168  1  0.01096235  0.79316590  0.00962965  1
  Pd  Pd169  1  0.61097634  0.59310423  0.20853166  1
  Pd  Pd170  1  -0.00095347  0.40492694  0.40287572  1
  Pd  Pd171  1  0.80925820  0.20369069  0.19454277  1
  Pd  Pd172  1  0.60797151  0.60860477  0.79963083  1
  Pd  Pd173  1  0.60648754  0.01033922  0.00222794  1
  Pd  Pd174  1  0.80490081  0.19806586  0.40966299  1
  Pd  Pd175  1  -0.01041356  0.20375577  0.19663919  1
  Pd  Pd176  1  0.59821890  0.39387710  0.00258145  1
  Pd  Pd177  1  0.58910658  0.40418449  0.39469499  1
  Pd  Pd178  1  0.19438073  -0.00594448  -0.00596873  1
  Pd  Pd179  1  0.60434391  0.39660583  0.59516373  1
  Pd  Pd180  1  -0.00873668  0.58748320  0.19461760  1
  Pd  Pd181  1  0.60003220  0.80425409  0.40655123  1
  Pd  Pd182  1  0.20421704  0.19952485  0.20256290  1
  Pd  Pd183  1  0.40501642  0.39915539  0.80844535  1
  Pd  Pd184  1  0.79476593  0.00227397  -0.00885159  1
  Pd  Pd185  1  0.19543662  0.60033695  0.60861447  1
  Pd  Pd186  1  0.40135277  0.20399551  -0.00996472  1
  Pd  Pd187  1  0.20715772  0.59833044  0.40003930  1
  Pd  Pd188  1  0.59650487  0.20220728  0.19046060  1
  Pd  Pd189  1  0.59565397  0.80579353  0.18921109  1
  Pd  Pd190  1  0.60089633  0.79905745  0.60735276  1
  Pd  Pd191  1  0.60026341  0.00477930  0.60682507  1
  Pd  Pd192  1  0.00412678  0.00366090  0.39170756  1
  Pd  Pd193  1  0.00331097  0.40354225  0.00165170  1
  Pd  Pd194  1  -0.00507683  -0.00230165  0.60399225  1
  Pd  Pd195  1  0.39638228  0.81002525  0.60158564  1
  Pd  Pd196  1  0.79929222  0.79967861  0.40300074  1
  Pd  Pd197  1  0.41156137  -0.00715026  0.60489445  1
  Pd  Pd198  1  0.20339537  0.39151496  0.00942412  1
  Pd  Pd199  1  0.60436603  0.79312173  0.80509653  1
  Rh  Rh200  1  0.60794545  -0.00526050  0.40231612  1
  Rh  Rh201  1  0.39945893  0.61332447  0.20620832  1
  Rh  Rh202  1  0.80199016  0.80902608  0.80610836  1
  Rh  Rh203  1  0.19591581  0.60991633  -0.00816142  1
  Rh  Rh204  1  0.60995083  0.39673815  0.80512570  1
  Rh  Rh205  1  0.79892727  0.18990603  -0.00209604  1
  Rh  Rh206  1  0.80805251  0.60404831  0.00369805  1
  Rh  Rh207  1  0.79203589  0.39658267  -0.00597640  1
  Rh  Rh208  1  -0.00163532  0.80277133  0.79581597  1
  Rh  Rh209  1  0.40178775  0.39987722  0.39807916  1
  Rh  Rh210  1  0.80554419  0.80587427  0.60208812  1
  Rh  Rh211  1  0.79707416  0.39243272  0.60626425  1
  Rh  Rh212  1  0.00452384  0.80381636  0.60145855  1
  Rh  Rh213  1  -0.01059954  0.60015835  0.40881731  1
  Rh  Rh214  1  0.00012458  0.59481003  0.59784351  1
  Rh  Rh215  1  0.60129990  0.19695874  0.79185308  1
  Rh  Rh216  1  0.80451521  0.00119794  0.60824720  1
  Rh  Rh217  1  0.19799893  0.39317180  0.78886458  1
  Rh  Rh218  1  -0.00687209  0.40378220  0.80151983  1
  Rh  Rh219  1  0.00431551  0.19698176  0.80604543  1
  Rh  Rh220  1  0.60777440  0.00591937  0.79520386  1
  Rh  Rh221  1  0.79999661  0.19665706  0.80162631  1
  Rh  Rh222  1  0.81149691  0.40314680  0.39856736  1
  Rh  Rh223  1  0.40598962  -0.00177743  0.18975468  1
  Rh  Rh224  1  0.59311302  0.79562674  0.00240134  1
  Rh  Rh225  1  0.20154110  0.19918017  -0.00936766  1
  Rh  Rh226  1  0.79773229  -0.00046607  0.19994818  1
  Rh  Rh227  1  -0.00954884  0.80124862  0.40104140  1
  Rh  Rh228  1  0.59194402  0.60336128  -0.00535596  1
  Rh  Rh229  1  0.39617568  0.00052917  0.40079443  1
  Rh  Rh230  1  0.00689863  0.40445783  0.59332503  1
  Rh  Rh231  1  0.40762011  0.59179476  0.59804620  1
  Rh  Rh232  1  -0.01026472  0.19630992  0.40689635  1
  Rh  Rh233  1  0.19970074  0.40815205  0.39796255  1
  Rh  Rh234  1  0.39307671  0.39244609  0.19235041  1
  Rh  Rh235  1  0.40491215  0.80943520  0.80511645  1
  Rh  Rh236  1  0.00092636  0.00019201  0.00071958  1
  Rh  Rh237  1  0.40659101  0.20053812  0.59161180  1
  Rh  Rh238  1  0.79249536  0.60186337  0.59106839  1
  Rh  Rh239  1  0.19620904  0.58838650  0.21505119  1
  Rh  Rh240  1  0.00431966  0.20047979  0.59064154  1
  Rh  Rh241  1  0.19306822  -0.00209120  0.59180489  1
  Rh  Rh242  1  0.40151633  0.59168893  0.80503354  1
  Rh  Rh243  1  0.80091144  0.79763849  0.19465962  1
  Rh  Rh244  1  0.21046478  0.18930932  0.40210170  1
  Rh  Rh245  1  -0.00183588  0.59467837  0.80830921  1
  Rh  Rh246  1  0.60273457  0.00348518  0.19342273  1
  Rh  Rh247  1  0.39885466  0.19459481  0.20427778  1
  Rh  Rh248  1  0.19959389  0.00911045  0.80545452  1
  Rh  Rh249  1  0.80130533  0.80220651  0.00105573  1
