# generated using pymatgen
data_ZrScNbPdRh
_symmetry_space_group_name_H-M   'P 1'
_cell_length_a   16.55550029
_cell_length_b   16.55564935
_cell_length_c   16.55496843
_cell_angle_alpha   90.04122836
_cell_angle_beta   90.00881520
_cell_angle_gamma   89.98118156
_symmetry_Int_Tables_number   1
_chemical_formula_structural   ZrScNbPdRh
_chemical_formula_sum   'Zr50 Sc50 Nb50 Pd50 Rh50'
_cell_volume   4537.50111318
_cell_formula_units_Z   50
loop_
 _symmetry_equiv_pos_site_id
 _symmetry_equiv_pos_as_xyz
  1  'x, y, z'
loop_
 _atom_site_type_symbol
 _atom_site_label
 _atom_site_symmetry_multiplicity
 _atom_site_fract_x
 _atom_site_fract_y
 _atom_site_fract_z
 _atom_site_occupancy
  Zr  Zr0  1  0.30232564  0.30351604  0.30364263  1
  Zr  Zr1  1  0.30458734  0.29739394  0.10704141  1
  Zr  Zr2  1  0.50185739  0.10229747  0.69918390  1
  Zr  Zr3  1  0.90757414  0.90106546  0.89649016  1
  Zr  Zr4  1  0.69325487  0.90455883  0.09184230  1
  Zr  Zr5  1  0.10232512  0.50923868  0.10197048  1
  Zr  Zr6  1  0.69890659  0.29382418  0.29945608  1
  Zr  Zr7  1  0.49550497  0.69417691  0.29810130  1
  Zr  Zr8  1  0.09649153  0.70223123  0.50303147  1
  Zr  Zr9  1  0.30395215  0.70088247  0.70321072  1
  Zr  Zr10  1  0.50008265  0.11015056  0.89823610  1
  Zr  Zr11  1  0.49189188  0.29748069  0.70524267  1
  Zr  Zr12  1  0.70378646  0.10421926  0.29835129  1
  Zr  Zr13  1  0.30619829  0.50830817  0.29752500  1
  Zr  Zr14  1  0.89087885  0.50349655  0.50052193  1
  Zr  Zr15  1  0.89848923  0.30173768  0.29803055  1
  Zr  Zr16  1  0.90025534  0.89745142  0.69723083  1
  Zr  Zr17  1  0.70847284  0.09833765  0.09993371  1
  Zr  Zr18  1  0.29583605  0.90396365  0.90170471  1
  Zr  Zr19  1  0.49901263  0.89601448  0.91523182  1
  Zr  Zr20  1  0.29839921  0.68827565  0.09819335  1
  Zr  Zr21  1  0.50016991  0.89264395  0.30723168  1
  Zr  Zr22  1  0.70229007  0.69485727  0.89952106  1
  Zr  Zr23  1  0.89656532  0.30338959  0.90268025  1
  Zr  Zr24  1  0.11102483  0.89726708  0.30461273  1
  Zr  Zr25  1  0.89586770  0.91063239  0.10147843  1
  Zr  Zr26  1  0.49674868  0.29794275  0.09922797  1
  Zr  Zr27  1  0.30972177  0.89186025  0.09406926  1
  Zr  Zr28  1  0.49297305  0.49563402  0.09733260  1
  Zr  Zr29  1  0.10840143  0.49713235  0.70147609  1
  Zr  Zr30  1  0.30761613  0.29487378  0.89713707  1
  Zr  Zr31  1  0.30275812  0.89908393  0.69687231  1
  Zr  Zr32  1  0.10614492  0.09225732  0.89474475  1
  Zr  Zr33  1  0.89071502  0.50222968  0.89436843  1
  Zr  Zr34  1  0.30492215  0.89983434  0.50120794  1
  Zr  Zr35  1  0.70034216  0.89859489  0.69455969  1
  Zr  Zr36  1  0.09874084  0.69236709  0.69468480  1
  Zr  Zr37  1  0.90125302  0.10380264  0.29544019  1
  Zr  Zr38  1  0.90382215  0.10826444  0.10614937  1
  Zr  Zr39  1  0.69376134  0.10268849  0.69758809  1
  Zr  Zr40  1  0.89585946  0.29895160  0.70371858  1
  Zr  Zr41  1  0.09359583  0.90528496  0.70526600  1
  Zr  Zr42  1  0.49894337  0.89643897  0.69358332  1
  Zr  Zr43  1  0.29968183  0.70504878  0.29734143  1
  Zr  Zr44  1  0.29346225  0.30963920  0.69641387  1
  Zr  Zr45  1  0.49904687  0.49153739  0.70132577  1
  Zr  Zr46  1  0.49318948  0.70883757  0.08856503  1
  Zr  Zr47  1  0.29452104  0.09305989  0.50320447  1
  Zr  Zr48  1  0.90361717  0.29779085  0.49387666  1
  Zr  Zr49  1  0.90757535  0.49981568  0.30498423  1
  Sc  Sc50  1  0.30254896  0.89499701  0.31178343  1
  Sc  Sc51  1  0.31009447  0.10298484  0.09810030  1
  Sc  Sc52  1  0.71242293  0.29407132  0.50470631  1
  Sc  Sc53  1  0.09942060  0.50505547  0.89270899  1
  Sc  Sc54  1  0.49377470  0.49211635  0.89843680  1
  Sc  Sc55  1  0.49805824  0.50045214  0.49939655  1
  Sc  Sc56  1  0.09845150  0.29293570  0.10935590  1
  Sc  Sc57  1  0.30029179  0.10368171  0.69773155  1
  Sc  Sc58  1  0.70074254  0.49692824  0.69142763  1
  Sc  Sc59  1  0.70419628  0.69512925  0.50494701  1
  Sc  Sc60  1  0.49381520  0.09910492  0.50439647  1
  Sc  Sc61  1  0.89466700  0.68972926  0.30818317  1
  Sc  Sc62  1  0.10989060  0.30216997  0.49576596  1
  Sc  Sc63  1  0.30111214  0.49026071  0.50085294  1
  Sc  Sc64  1  0.10091371  0.70398460  0.90314689  1
  Sc  Sc65  1  0.70035283  0.69163952  0.08789090  1
  Sc  Sc66  1  0.89987183  0.09107382  0.69505617  1
  Sc  Sc67  1  0.09695560  0.29615166  0.88656570  1
  Sc  Sc68  1  0.69769693  0.30637939  0.09937322  1
  Sc  Sc69  1  0.50562531  0.10322801  0.09997011  1
  Sc  Sc70  1  0.51381298  0.69707027  0.49697847  1
  Sc  Sc71  1  0.10702661  0.89305824  0.09212117  1
  Sc  Sc72  1  0.70177664  0.10101872  0.50174460  1
  Sc  Sc73  1  0.30139759  0.29871083  0.50038897  1
  Sc  Sc74  1  0.90091629  0.10607484  0.90953438  1
  Sc  Sc75  1  0.89308149  0.89817528  0.50669047  1
  Sc  Sc76  1  0.09971060  0.50399035  0.50220884  1
  Sc  Sc77  1  0.10527903  0.89935323  0.89615551  1
  Sc  Sc78  1  0.09848569  0.29587563  0.30384471  1
  Sc  Sc79  1  0.89400913  0.10237788  0.50087534  1
  Sc  Sc80  1  0.89959156  0.69661619  0.88976454  1
  Sc  Sc81  1  0.89063830  0.90564030  0.30181710  1
  Sc  Sc82  1  0.89543800  0.70044065  0.50332643  1
  Sc  Sc83  1  0.88901635  0.50293942  0.11163932  1
  Sc  Sc84  1  0.89450227  0.69699277  0.69529099  1
  Sc  Sc85  1  0.68982183  0.30170281  0.69754139  1
  Sc  Sc86  1  0.49798281  0.50200630  0.30587702  1
  Sc  Sc87  1  0.11158832  0.90405433  0.50547344  1
  Sc  Sc88  1  0.49980250  0.29582379  0.29561681  1
  Sc  Sc89  1  0.10752882  0.69962644  0.10061541  1
  Sc  Sc90  1  0.69675543  0.70077030  0.31527931  1
  Sc  Sc91  1  0.69819117  0.88759155  0.50026612  1
  Sc  Sc92  1  0.69831002  0.90212215  0.30919566  1
  Sc  Sc93  1  0.51101000  0.10341219  0.30199453  1
  Sc  Sc94  1  0.48876646  0.30308475  0.50325807  1
  Sc  Sc95  1  0.71044393  0.50119902  0.29539792  1
  Sc  Sc96  1  0.50194056  0.30018836  0.89505317  1
  Sc  Sc97  1  0.30502237  0.69610406  0.89591825  1
  Sc  Sc98  1  0.10378699  0.09524723  0.69973148  1
  Sc  Sc99  1  0.30213201  0.10743215  0.30003917  1
  Nb  Nb100  1  0.69256809  0.50577792  0.09158443  1
  Nb  Nb101  1  0.69784837  0.49910267  0.90739782  1
  Nb  Nb102  1  0.09799927  0.51254058  0.29853369  1
  Nb  Nb103  1  0.49660056  0.69843312  0.70897953  1
  Nb  Nb104  1  0.90437157  0.29983364  0.09820136  1
  Nb  Nb105  1  0.90585504  0.50089099  0.70179740  1
  Nb  Nb106  1  0.09982680  0.10050457  0.29572943  1
  Nb  Nb107  1  0.29795134  0.50303737  0.70638895  1
  Nb  Nb108  1  0.69147116  0.70302225  0.69793414  1
  Nb  Nb109  1  0.09940802  0.69923772  0.30083111  1
  Nb  Nb110  1  0.69808190  0.09956770  0.89966020  1
  Nb  Nb111  1  0.29016337  0.69830574  0.50823512  1
  Nb  Nb112  1  0.69965541  0.90303641  0.90171156  1
  Nb  Nb113  1  0.50002765  0.70174815  0.88892405  1
  Nb  Nb114  1  0.89767872  0.70528629  0.09575675  1
  Nb  Nb115  1  0.29560715  0.49567459  0.90098163  1
  Nb  Nb116  1  0.30395635  0.09638980  0.90147780  1
  Nb  Nb117  1  0.09770328  0.30175607  0.69639544  1
  Nb  Nb118  1  0.49856843  0.89877060  0.50072588  1
  Nb  Nb119  1  0.10030029  0.10099924  0.49112639  1
  Nb  Nb120  1  0.70095335  0.30525962  0.89640095  1
  Nb  Nb121  1  0.10141601  0.10299679  0.11019978  1
  Nb  Nb122  1  0.49827515  0.89801502  0.10222716  1
  Nb  Nb123  1  0.29718846  0.49903338  0.09211084  1
  Nb  Nb124  1  0.69507322  0.50197769  0.49781748  1
  Nb  Nb125  1  0.00258184  0.80334583  0.39578034  1
  Nb  Nb126  1  0.60081242  0.79656763  0.19490989  1
  Nb  Nb127  1  0.20075050  0.40870982  0.19877234  1
  Nb  Nb128  1  0.60633043  0.40007416  0.40255056  1
  Nb  Nb129  1  0.40299783  -0.00734651  0.19987674  1
  Nb  Nb130  1  0.20423949  0.00231652  0.19907395  1
  Nb  Nb131  1  0.79242074  0.19727178  0.80409537  1
  Nb  Nb132  1  0.79705630  0.79734139  0.19403478  1
  Nb  Nb133  1  0.00564068  0.20466452  0.59930705  1
  Nb  Nb134  1  0.59930870  0.60115599  0.19274750  1
  Nb  Nb135  1  0.19850569  0.60541051  0.39742985  1
  Nb  Nb136  1  0.80062537  0.80419058  -0.00250996  1
  Nb  Nb137  1  -0.00434392  0.79743852  0.20427313  1
  Nb  Nb138  1  -0.00155669  0.39751290  0.60528317  1
  Nb  Nb139  1  0.19842248  0.39715459  0.00181901  1
  Nb  Nb140  1  -0.00054151  0.40257364  0.00412007  1
  Nb  Nb141  1  -0.00632354  0.59737976  0.00281504  1
  Nb  Nb142  1  0.79286607  0.00225497  0.80579565  1
  Nb  Nb143  1  0.20037813  0.19820883  -0.00031929  1
  Nb  Nb144  1  0.59966678  0.60108953  0.79974461  1
  Nb  Nb145  1  0.60095931  0.79763267  0.80111303  1
  Nb  Nb146  1  0.40183800  0.00088175  0.80483253  1
  Nb  Nb147  1  0.39738108  0.60198727  0.60893144  1
  Nb  Nb148  1  0.00631679  0.00640856  0.00692499  1
  Nb  Nb149  1  0.00599054  0.00144069  0.39704635  1
  Pd  Pd150  1  0.40279329  0.78820434  0.41169638  1
  Pd  Pd151  1  0.00246540  0.79011948  0.79397337  1
  Pd  Pd152  1  0.60716609  0.20505982  0.00091481  1
  Pd  Pd153  1  0.79553668  0.39778754  0.19422404  1
  Pd  Pd154  1  0.39848002  0.40423240  0.20431894  1
  Pd  Pd155  1  0.80284023  0.40443833  0.00870376  1
  Pd  Pd156  1  0.19538976  0.41167622  0.39248311  1
  Pd  Pd157  1  0.79118044  0.59492940  0.78813197  1
  Pd  Pd158  1  0.59367854  0.59979636  0.60582322  1
  Pd  Pd159  1  0.00296649  0.00571622  0.58760319  1
  Pd  Pd160  1  0.79561868  0.80482920  0.80186459  1
  Pd  Pd161  1  -0.00551394  0.61114470  0.19478311  1
  Pd  Pd162  1  0.79091227  0.60933662  0.20005308  1
  Pd  Pd163  1  0.59375304  0.00843038  0.00002778  1
  Pd  Pd164  1  0.19458127  0.80510998  0.60709829  1
  Pd  Pd165  1  0.39138539  0.60543209  0.41701480  1
  Pd  Pd166  1  0.59554607  -0.00799547  0.80376714  1
  Pd  Pd167  1  0.80357323  0.40094582  0.60190479  1
  Pd  Pd168  1  0.40830115  0.78756891  0.59016858  1
  Pd  Pd169  1  0.59531049  0.20811236  0.59163892  1
  Pd  Pd170  1  0.40249092  0.19636663  0.40190809  1
  Pd  Pd171  1  0.79293645  0.40089967  0.39981074  1
  Pd  Pd172  1  0.80340055  0.00206683  0.40577879  1
  Pd  Pd173  1  0.79033796  0.39943819  0.79274266  1
  Pd  Pd174  1  0.01262920  0.20218332  -0.00075054  1
  Pd  Pd175  1  0.40368191  0.59947450  -0.01028370  1
  Pd  Pd176  1  0.00663476  0.39827226  0.19731937  1
  Pd  Pd177  1  -0.00729185  0.18994642  0.79184361  1
  Pd  Pd178  1  0.59617075  0.39540068  -0.00525702  1
  Pd  Pd179  1  0.59813152  0.39334824  0.58892235  1
  Pd  Pd180  1  0.20295550  0.19886983  0.39677081  1
  Pd  Pd181  1  0.59764133  0.20876463  0.41171102  1
  Pd  Pd182  1  0.19805825  0.79647729  0.79837034  1
  Pd  Pd183  1  0.40298491  0.00655644  0.39270384  1
  Pd  Pd184  1  0.79292774  0.20591842  -0.00059519  1
  Pd  Pd185  1  0.58683752  0.59840775  -0.00545354  1
  Pd  Pd186  1  0.59782029  -0.00498326  0.20395164  1
  Pd  Pd187  1  0.00164077  0.40475695  0.80191806  1
  Pd  Pd188  1  0.19448756  0.19846504  0.59821232  1
  Pd  Pd189  1  0.01195052  -0.01137634  0.20076143  1
  Pd  Pd190  1  0.60125846  0.40920045  0.20730119  1
  Pd  Pd191  1  0.19780180  0.00789642  0.01156576  1
  Pd  Pd192  1  -0.00250755  0.79967356  0.00411446  1
  Pd  Pd193  1  0.20035035  0.80346153  0.19515911  1
  Pd  Pd194  1  0.00880576  0.40381402  0.40658542  1
  Pd  Pd195  1  -0.00470147  0.59342141  0.59851328  1
  Pd  Pd196  1  0.60135878  -0.00205811  0.58845988  1
  Pd  Pd197  1  0.59939437  0.00029146  0.40854691  1
  Pd  Pd198  1  0.20396114  0.19904505  0.79992184  1
  Pd  Pd199  1  0.19812398  0.60706687  0.80533243  1
  Rh  Rh200  1  0.19806112  0.79105350  0.40767922  1
  Rh  Rh201  1  0.40084611  0.00204141  0.60463541  1
  Rh  Rh202  1  0.39553904  0.19431805  0.79404014  1
  Rh  Rh203  1  0.40580949  0.59864634  0.19156946  1
  Rh  Rh204  1  0.39150390  0.79182310  -0.00946813  1
  Rh  Rh205  1  0.80264689  0.19647052  0.39731112  1
  Rh  Rh206  1  0.21112767  -0.00057616  0.79185575  1
  Rh  Rh207  1  0.19830810  0.00117557  0.60334993  1
  Rh  Rh208  1  0.80853664  0.60005791  0.00067159  1
  Rh  Rh209  1  0.80596501  0.19587099  0.60989711  1
  Rh  Rh210  1  0.40454404  0.81354462  0.80625772  1
  Rh  Rh211  1  0.40854733  0.00815923  0.00177254  1
  Rh  Rh212  1  0.80005692  0.20948824  0.19376907  1
  Rh  Rh213  1  0.19468327  0.59607006  -0.00908761  1
  Rh  Rh214  1  -0.00889971  0.00874040  0.80915827  1
  Rh  Rh215  1  0.39511586  0.39576430  -0.00350083  1
  Rh  Rh216  1  0.20151701  0.39675978  0.80568283  1
  Rh  Rh217  1  0.60689479  0.58778494  0.39131002  1
  Rh  Rh218  1  0.00369844  0.60530046  0.40524159  1
  Rh  Rh219  1  0.20716387  0.79203750  -0.00433182  1
  Rh  Rh220  1  0.40776425  0.19002224  0.20498509  1
  Rh  Rh221  1  0.39892972  0.20112027  0.00034188  1
  Rh  Rh222  1  0.79667280  0.59720499  0.40400074  1
  Rh  Rh223  1  0.39436157  0.40612361  0.60381618  1
  Rh  Rh224  1  0.40827247  0.39568384  0.39552949  1
  Rh  Rh225  1  0.60643178  0.40817808  0.80535015  1
  Rh  Rh226  1  0.20419840  0.19972998  0.19953351  1
  Rh  Rh227  1  0.59883742  0.79967736  0.40047473  1
  Rh  Rh228  1  0.79351481  -0.00101346  0.60278144  1
  Rh  Rh229  1  0.40267496  0.58754542  0.79921180  1
  Rh  Rh230  1  0.79956526  0.79457143  0.60039886  1
  Rh  Rh231  1  0.00006293  0.80437500  0.59686807  1
  Rh  Rh232  1  0.60706765  0.79515939  -0.00211786  1
  Rh  Rh233  1  0.80931302  -0.00233195  -0.01001266  1
  Rh  Rh234  1  0.20441722  0.59833312  0.20655063  1
  Rh  Rh235  1  0.39313298  0.40135708  0.80110602  1
  Rh  Rh236  1  0.80806329  0.79813836  0.39707993  1
  Rh  Rh237  1  0.60626332  0.20849469  0.80331898  1
  Rh  Rh238  1  0.60410418  0.19926771  0.19228482  1
  Rh  Rh239  1  0.19736302  0.40342494  0.59807521  1
  Rh  Rh240  1  0.78799968  -0.00543669  0.20626066  1
  Rh  Rh241  1  0.39514910  0.20078084  0.60129985  1
  Rh  Rh242  1  0.79620454  0.59784802  0.60460337  1
  Rh  Rh243  1  -0.00047459  0.19344281  0.40211909  1
  Rh  Rh244  1  0.19922792  0.00843510  0.39336308  1
  Rh  Rh245  1  0.40402133  0.80364128  0.20238986  1
  Rh  Rh246  1  -0.00130925  0.20872256  0.20680643  1
  Rh  Rh247  1  0.21022131  0.59045674  0.59510105  1
  Rh  Rh248  1  0.59552396  0.79632994  0.60079286  1
  Rh  Rh249  1  0.00156660  0.60222587  0.80194805  1
