# generated using pymatgen
data_ZrScNbPdRh
_symmetry_space_group_name_H-M   'P 1'
_cell_length_a   16.55984172
_cell_length_b   16.56636197
_cell_length_c   16.56086745
_cell_angle_alpha   89.99267993
_cell_angle_beta   89.98818082
_cell_angle_gamma   89.99106866
_symmetry_Int_Tables_number   1
_chemical_formula_structural   ZrScNbPdRh
_chemical_formula_sum   'Zr50 Sc50 Nb50 Pd50 Rh50'
_cell_volume   4543.24744325
_cell_formula_units_Z   50
loop_
 _symmetry_equiv_pos_site_id
 _symmetry_equiv_pos_as_xyz
  1  'x, y, z'
loop_
 _atom_site_type_symbol
 _atom_site_label
 _atom_site_symmetry_multiplicity
 _atom_site_fract_x
 _atom_site_fract_y
 _atom_site_fract_z
 _atom_site_occupancy
  Zr  Zr0  1  0.49435512  0.89761429  0.69752273  1
  Zr  Zr1  1  0.29636178  0.31215476  0.29624555  1
  Zr  Zr2  1  0.90270290  0.30583951  0.50507283  1
  Zr  Zr3  1  0.49474181  0.10201320  0.09423249  1
  Zr  Zr4  1  0.29478943  0.50369702  0.49736431  1
  Zr  Zr5  1  0.10057391  0.90465736  0.08827247  1
  Zr  Zr6  1  0.70226029  0.89909283  0.10305058  1
  Zr  Zr7  1  0.49871067  0.50021860  0.89855884  1
  Zr  Zr8  1  0.49770427  0.30010483  0.69797257  1
  Zr  Zr9  1  0.68777716  0.49856351  0.30161726  1
  Zr  Zr10  1  0.89654452  0.50144895  0.10005419  1
  Zr  Zr11  1  0.50347455  0.30134824  0.50301215  1
  Zr  Zr12  1  0.89074968  0.10580586  0.89764130  1
  Zr  Zr13  1  0.10389809  0.29138067  0.29987476  1
  Zr  Zr14  1  0.30128973  0.70362805  0.49843741  1
  Zr  Zr15  1  0.10034249  0.10234065  0.69295590  1
  Zr  Zr16  1  0.89726701  0.90291770  0.10461094  1
  Zr  Zr17  1  0.89882535  0.69534694  0.70460258  1
  Zr  Zr18  1  0.10205298  0.70964145  0.89592457  1
  Zr  Zr19  1  0.50509575  0.10135319  0.69994053  1
  Zr  Zr20  1  0.11888024  0.49918939  0.30184981  1
  Zr  Zr21  1  0.70657814  0.30414091  0.29418160  1
  Zr  Zr22  1  0.70197945  0.69285533  0.69946027  1
  Zr  Zr23  1  0.89990114  0.29899014  0.30397297  1
  Zr  Zr24  1  0.90035016  0.10841337  0.28609367  1
  Zr  Zr25  1  0.50283296  0.50726530  0.10308872  1
  Zr  Zr26  1  0.89885016  0.69450098  0.49126556  1
  Zr  Zr27  1  0.49455241  0.89454199  0.09967701  1
  Zr  Zr28  1  0.90336176  0.29324289  0.69981994  1
  Zr  Zr29  1  0.29550530  0.29700590  0.70635914  1
  Zr  Zr30  1  0.29885567  0.09581269  0.10165140  1
  Zr  Zr31  1  0.30031994  0.69171827  0.30597385  1
  Zr  Zr32  1  0.10422462  0.29462659  0.50097698  1
  Zr  Zr33  1  0.10424056  0.29889188  0.70129095  1
  Zr  Zr34  1  0.30301792  0.49995249  0.69891466  1
  Zr  Zr35  1  0.88793286  0.29842383  0.11048275  1
  Zr  Zr36  1  0.69565872  0.89774482  0.70454543  1
  Zr  Zr37  1  0.69708900  0.69104349  0.49725350  1
  Zr  Zr38  1  0.70371106  0.30908936  0.49412730  1
  Zr  Zr39  1  0.49861223  0.69887681  0.90477984  1
  Zr  Zr40  1  0.69479256  0.30623239  0.10387790  1
  Zr  Zr41  1  0.50416809  0.69995727  0.09695489  1
  Zr  Zr42  1  0.90149764  0.89694216  0.69537138  1
  Zr  Zr43  1  0.69505397  0.09667997  0.89638731  1
  Zr  Zr44  1  0.30772396  0.29479716  0.50095794  1
  Zr  Zr45  1  0.70060867  0.90303994  0.29643281  1
  Zr  Zr46  1  0.29979963  0.10277663  0.90010809  1
  Zr  Zr47  1  0.49961337  0.68794032  0.30047702  1
  Zr  Zr48  1  0.11162866  0.29876186  0.10418219  1
  Zr  Zr49  1  0.30247113  0.90315077  0.30114925  1
  Sc  Sc50  1  0.29440317  0.69460420  0.69585870  1
  Sc  Sc51  1  0.49031385  0.09892107  0.49885497  1
  Sc  Sc52  1  0.48498774  0.70014822  0.69740067  1
  Sc  Sc53  1  0.30190586  0.70153822  0.88634899  1
  Sc  Sc54  1  0.09780042  0.69680540  0.30092373  1
  Sc  Sc55  1  0.30430324  0.11059776  0.69518124  1
  Sc  Sc56  1  0.90802343  0.90103502  0.90412384  1
  Sc  Sc57  1  0.29678418  0.50429331  0.90109166  1
  Sc  Sc58  1  0.70735040  0.69508585  0.90618988  1
  Sc  Sc59  1  0.09167865  0.70360835  0.09464095  1
  Sc  Sc60  1  0.10715596  0.50535132  0.90260673  1
  Sc  Sc61  1  0.89335974  0.50788013  0.90221677  1
  Sc  Sc62  1  0.29942445  0.49747549  0.10392123  1
  Sc  Sc63  1  0.90866242  0.51559330  0.30909364  1
  Sc  Sc64  1  0.09204977  0.89075419  0.69737577  1
  Sc  Sc65  1  0.70046903  0.49864974  0.69856514  1
  Sc  Sc66  1  0.09656247  0.09572434  0.90077190  1
  Sc  Sc67  1  0.31175674  0.70140373  0.10079378  1
  Sc  Sc68  1  0.10915727  0.49412467  0.69800657  1
  Sc  Sc69  1  0.49688959  0.31698785  0.30223889  1
  Sc  Sc70  1  0.10442966  0.50851815  0.10069865  1
  Sc  Sc71  1  0.50499566  0.10237469  0.90310649  1
  Sc  Sc72  1  0.90590072  0.89089264  0.49526957  1
  Sc  Sc73  1  0.90407981  0.10387241  0.69826851  1
  Sc  Sc74  1  0.89595168  0.50113078  0.50417485  1
  Sc  Sc75  1  0.70080361  0.49986133  0.90063556  1
  Sc  Sc76  1  0.30572858  0.88469241  0.69817516  1
  Sc  Sc77  1  0.10345199  0.70178833  0.49550990  1
  Sc  Sc78  1  0.49882379  0.90330935  0.90371473  1
  Sc  Sc79  1  0.09675367  0.89895224  0.29448102  1
  Sc  Sc80  1  0.90589079  0.71178888  0.30549063  1
  Sc  Sc81  1  0.90147237  0.49834565  0.69877586  1
  Sc  Sc82  1  0.30130602  0.10117207  0.29494503  1
  Sc  Sc83  1  0.90472270  0.11122892  0.50313761  1
  Sc  Sc84  1  0.49939467  0.49256265  0.69768954  1
  Sc  Sc85  1  0.70123976  0.50037100  0.10285777  1
  Sc  Sc86  1  0.70485910  0.09449612  0.09464629  1
  Sc  Sc87  1  0.69834002  0.29054220  0.90053919  1
  Sc  Sc88  1  0.09573186  0.89178826  0.50281816  1
  Sc  Sc89  1  0.69989284  0.90079166  0.90817529  1
  Sc  Sc90  1  0.48963946  0.29906931  0.09929657  1
  Sc  Sc91  1  0.69442784  0.10689155  0.50099598  1
  Sc  Sc92  1  0.29427963  0.89485382  0.90685143  1
  Sc  Sc93  1  0.50798090  0.89948611  0.30798879  1
  Sc  Sc94  1  0.68559415  0.88867955  0.48603199  1
  Sc  Sc95  1  0.69737127  0.70662540  0.09458547  1
  Sc  Sc96  1  0.69148103  0.29309491  0.69505662  1
  Sc  Sc97  1  0.50037311  0.49829224  0.49624657  1
  Sc  Sc98  1  0.90097274  0.69591827  0.90222531  1
  Sc  Sc99  1  0.49913565  0.08933585  0.30508401  1
  Nb  Nb100  1  0.09853987  0.49705813  0.50201003  1
  Nb  Nb101  1  0.90078457  0.29564660  0.90102873  1
  Nb  Nb102  1  0.70351905  0.70331329  0.31083353  1
  Nb  Nb103  1  0.89833760  0.69932978  0.10038550  1
  Nb  Nb104  1  0.69616604  0.09305780  0.70021587  1
  Nb  Nb105  1  0.69641286  0.09712021  0.30062506  1
  Nb  Nb106  1  0.50400886  0.70715532  0.49743553  1
  Nb  Nb107  1  0.09761138  0.10050638  0.11541456  1
  Nb  Nb108  1  0.30205566  0.09514627  0.49923867  1
  Nb  Nb109  1  0.50305329  0.30397756  0.89931614  1
  Nb  Nb110  1  0.30808649  0.50329958  0.30543747  1
  Nb  Nb111  1  0.29704036  0.90639375  0.10574147  1
  Nb  Nb112  1  0.28981662  0.29940735  0.90350877  1
  Nb  Nb113  1  0.70254603  0.50607470  0.49778903  1
  Nb  Nb114  1  0.49314328  0.50168164  0.30008189  1
  Nb  Nb115  1  0.10487591  0.30064590  0.90195603  1
  Nb  Nb116  1  0.09698917  0.69940150  0.69576870  1
  Nb  Nb117  1  0.89606738  0.90477988  0.30365468  1
  Nb  Nb118  1  0.29755319  0.29267891  0.09711020  1
  Nb  Nb119  1  0.30847169  0.90569615  0.50019673  1
  Nb  Nb120  1  0.90452536  0.09943895  0.09751690  1
  Nb  Nb121  1  0.49228488  0.90265540  0.50151479  1
  Nb  Nb122  1  0.09813163  0.10387459  0.30000450  1
  Nb  Nb123  1  0.10553296  0.10162895  0.49462983  1
  Nb  Nb124  1  0.10491664  0.89731491  0.89779254  1
  Nb  Nb125  1  0.19688625  0.00309524  0.40384796  1
  Nb  Nb126  1  -0.00092214  0.20258505  0.00674192  1
  Nb  Nb127  1  0.39614028  0.39120572  0.80782536  1
  Nb  Nb128  1  0.80634485  0.38904740  0.80183610  1
  Nb  Nb129  1  0.79345385  -0.00593905  0.59643465  1
  Nb  Nb130  1  0.20555626  0.80590512  0.19467295  1
  Nb  Nb131  1  0.59397457  0.39825211  -0.00183180  1
  Nb  Nb132  1  0.59643023  0.60439254  0.79975517  1
  Nb  Nb133  1  0.00098859  0.00766800  0.39487237  1
  Nb  Nb134  1  0.60222691  0.20458369  0.39213125  1
  Nb  Nb135  1  0.39447344  0.00111147  0.79947549  1
  Nb  Nb136  1  0.20562378  -0.00126393  0.59520799  1
  Nb  Nb137  1  0.00844810  0.40001957  0.39987601  1
  Nb  Nb138  1  0.59865336  -0.00397226  0.59834332  1
  Nb  Nb139  1  0.00670032  0.60064220  0.60119568  1
  Nb  Nb140  1  0.80335426  0.00190595  0.39842409  1
  Nb  Nb141  1  0.80017854  0.61052535  0.20402820  1
  Nb  Nb142  1  0.20073130  -0.00453562  0.79361249  1
  Nb  Nb143  1  0.79819843  0.00155407  0.79373626  1
  Nb  Nb144  1  0.00330928  0.40106771  0.20250154  1
  Nb  Nb145  1  0.79652551  0.79863357  0.59786891  1
  Nb  Nb146  1  -0.00094437  0.39188485  0.00051542  1
  Nb  Nb147  1  0.59785518  0.79300365  0.80188864  1
  Nb  Nb148  1  -0.00001432  0.39354124  0.81058088  1
  Nb  Nb149  1  0.59991581  0.19850680  0.20569369  1
  Pd  Pd150  1  0.80713990  0.80128084  -0.00284899  1
  Pd  Pd151  1  0.39177668  0.59993426  -0.00100001  1
  Pd  Pd152  1  0.79756431  0.19886192  0.00660970  1
  Pd  Pd153  1  0.19566462  0.80777722  0.39314250  1
  Pd  Pd154  1  0.00052821  -0.00098634  0.79976811  1
  Pd  Pd155  1  0.19890636  0.40553616  0.00373553  1
  Pd  Pd156  1  0.39957741  0.20467867  -0.00719416  1
  Pd  Pd157  1  0.39413713  0.80299537  -0.00266871  1
  Pd  Pd158  1  0.79591533  0.40060048  0.60901763  1
  Pd  Pd159  1  0.20589149  0.39664097  0.59620536  1
  Pd  Pd160  1  0.79610584  0.39762586  -0.00882129  1
  Pd  Pd161  1  0.19545975  0.60192489  0.79605897  1
  Pd  Pd162  1  0.40581222  0.20185861  0.39031600  1
  Pd  Pd163  1  0.80889042  0.41282736  0.39524116  1
  Pd  Pd164  1  0.79637122  0.19287204  0.40138587  1
  Pd  Pd165  1  0.59776771  -0.00425679  0.00570656  1
  Pd  Pd166  1  0.80090251  0.79378726  0.20469493  1
  Pd  Pd167  1  0.59392388  0.00476260  0.19218246  1
  Pd  Pd168  1  0.20406547  0.61240448  0.19292304  1
  Pd  Pd169  1  0.39755613  0.39800101  -0.00289358  1
  Pd  Pd170  1  0.00809179  0.20095805  0.80665113  1
  Pd  Pd171  1  0.20187905  0.80397159  0.60050997  1
  Pd  Pd172  1  0.21119699  0.19562496  0.39555887  1
  Pd  Pd173  1  0.19131575  0.18802974  0.00221866  1
  Pd  Pd174  1  0.79634459  0.80548792  0.80480747  1
  Pd  Pd175  1  0.19876919  0.00590749  -0.00428699  1
  Pd  Pd176  1  0.60010801  0.79429887  0.20544109  1
  Pd  Pd177  1  0.39875323  0.79919515  0.20789465  1
  Pd  Pd178  1  0.20603829  0.61225400  0.00291900  1
  Pd  Pd179  1  0.60095862  0.20283889  0.79983150  1
  Pd  Pd180  1  0.00123803  -0.00528267  0.20294451  1
  Pd  Pd181  1  0.40539110  0.20256454  0.20887078  1
  Pd  Pd182  1  0.79437657  0.19447556  0.60288463  1
  Pd  Pd183  1  0.00025825  0.00190172  0.58836103  1
  Pd  Pd184  1  0.58994417  0.59574535  0.60379197  1
  Pd  Pd185  1  0.00444631  0.80334681  0.19695658  1
  Pd  Pd186  1  -0.00288268  0.59947302  0.19989439  1
  Pd  Pd187  1  -0.00166255  0.00626630  -0.00244774  1
  Pd  Pd188  1  0.00799535  0.58818539  0.79619316  1
  Pd  Pd189  1  0.40478858  0.59993808  0.59339475  1
  Pd  Pd190  1  0.60562794  0.40718684  0.59648360  1
  Pd  Pd191  1  0.61141651  0.60918318  0.20021041  1
  Pd  Pd192  1  0.59926521  0.80013202  0.60398941  1
  Pd  Pd193  1  -0.00214895  0.80063599  0.80417234  1
  Pd  Pd194  1  0.00130474  0.59739189  -0.00463855  1
  Pd  Pd195  1  0.40633221  0.79930378  0.39722493  1
  Pd  Pd196  1  0.40343920  0.20091415  0.80916138  1
  Pd  Pd197  1  0.40808002  -0.00317120  0.20271819  1
  Pd  Pd198  1  0.39790664  0.40378666  0.19446711  1
  Pd  Pd199  1  0.20666426  0.79237799  0.00691139  1
  Rh  Rh200  1  -0.00253661  0.20166622  0.40427629  1
  Rh  Rh201  1  0.20294019  0.40313066  0.19507127  1
  Rh  Rh202  1  0.59505081  -0.00853985  0.79722538  1
  Rh  Rh203  1  0.40332682  0.58848763  0.79557679  1
  Rh  Rh204  1  0.00585338  0.20062125  0.59605298  1
  Rh  Rh205  1  0.80522444  -0.00163370  -0.00591503  1
  Rh  Rh206  1  0.01158922  0.59407061  0.40973139  1
  Rh  Rh207  1  0.59282960  0.79338081  0.39426347  1
  Rh  Rh208  1  0.59740050  0.20749380  0.01076815  1
  Rh  Rh209  1  0.19400873  0.19165282  0.80335391  1
  Rh  Rh210  1  0.40632547  0.59896903  0.40849736  1
  Rh  Rh211  1  0.19237312  0.60321554  0.59699281  1
  Rh  Rh212  1  0.39868698  0.79352745  0.59165298  1
  Rh  Rh213  1  -0.00885629  0.78345946  0.59741308  1
  Rh  Rh214  1  0.60227999  0.40403005  0.80780927  1
  Rh  Rh215  1  0.00220738  0.40637112  0.60053724  1
  Rh  Rh216  1  0.39443546  0.39831560  0.60346364  1
  Rh  Rh217  1  0.20220827  0.40142045  0.80564849  1
  Rh  Rh218  1  0.59565606  0.19387724  0.59123665  1
  Rh  Rh219  1  0.59585950  0.59681272  0.40181547  1
  Rh  Rh220  1  0.78733459  0.18943735  0.19316829  1
  Rh  Rh221  1  0.79427667  0.59616185  0.39218115  1
  Rh  Rh222  1  0.39479597  -0.00041783  0.39739652  1
  Rh  Rh223  1  0.79756797  0.60466386  0.01187750  1
  Rh  Rh224  1  0.59864979  0.40115780  0.40288915  1
  Rh  Rh225  1  0.19370301  -0.00270559  0.20562214  1
  Rh  Rh226  1  0.39629925  0.40513097  0.40501110  1
  Rh  Rh227  1  0.80117459  0.00469279  0.20169380  1
  Rh  Rh228  1  0.80802124  0.60248415  0.59919957  1
  Rh  Rh229  1  0.60377005  0.00833444  0.41167794  1
  Rh  Rh230  1  0.20167762  0.39831492  0.40585016  1
  Rh  Rh231  1  0.40511852  0.80770112  0.80814499  1
  Rh  Rh232  1  0.00577692  0.80723113  0.39579899  1
  Rh  Rh233  1  0.39962161  0.00259002  0.60848354  1
  Rh  Rh234  1  0.58647873  0.39688262  0.19136239  1
  Rh  Rh235  1  0.60530664  0.59262608  -0.00418895  1
  Rh  Rh236  1  0.39764735  -0.00315144  -0.00469652  1
  Rh  Rh237  1  0.19499903  0.80421689  0.79256726  1
  Rh  Rh238  1  0.81315383  0.42175674  0.21484767  1
  Rh  Rh239  1  0.20379176  0.19521964  0.59674930  1
  Rh  Rh240  1  0.59972815  0.80330957  -0.00473606  1
  Rh  Rh241  1  0.00180404  0.20842470  0.19177186  1
  Rh  Rh242  1  0.19822708  0.60158241  0.40364684  1
  Rh  Rh243  1  0.79318824  0.58798064  0.79880811  1
  Rh  Rh244  1  0.79252603  0.19806144  0.79220947  1
  Rh  Rh245  1  -0.00370385  0.79931729  -0.00137675  1
  Rh  Rh246  1  0.40207115  0.19969028  0.59808802  1
  Rh  Rh247  1  0.39647593  0.59579924  0.19929322  1
  Rh  Rh248  1  0.20959893  0.19601328  0.20153520  1
  Rh  Rh249  1  0.79891121  0.80733052  0.40425444  1
