# generated using pymatgen
data_ZrScNbPdRh
_symmetry_space_group_name_H-M   'P 1'
_cell_length_a   16.56514381
_cell_length_b   16.56839353
_cell_length_c   16.56375250
_cell_angle_alpha   90.01875846
_cell_angle_beta   89.98183383
_cell_angle_gamma   89.99339399
_symmetry_Int_Tables_number   1
_chemical_formula_structural   ZrScNbPdRh
_chemical_formula_sum   'Zr50 Sc50 Nb50 Pd50 Rh50'
_cell_volume   4546.05092468
_cell_formula_units_Z   50
loop_
 _symmetry_equiv_pos_site_id
 _symmetry_equiv_pos_as_xyz
  1  'x, y, z'
loop_
 _atom_site_type_symbol
 _atom_site_label
 _atom_site_symmetry_multiplicity
 _atom_site_fract_x
 _atom_site_fract_y
 _atom_site_fract_z
 _atom_site_occupancy
  Zr  Zr0  1  0.70097626  0.89163586  0.29746021  1
  Zr  Zr1  1  0.90934732  0.69435972  0.10125301  1
  Zr  Zr2  1  0.30232090  0.49053915  0.90219540  1
  Zr  Zr3  1  0.09610955  0.09943267  0.90401072  1
  Zr  Zr4  1  0.69939655  0.90846631  0.50628268  1
  Zr  Zr5  1  0.29944133  0.68899234  0.10661200  1
  Zr  Zr6  1  0.10469888  0.10102370  0.50584289  1
  Zr  Zr7  1  0.69166223  0.09164885  0.69185938  1
  Zr  Zr8  1  0.50450343  0.69505060  0.09123447  1
  Zr  Zr9  1  0.09429133  0.49710391  0.69068822  1
  Zr  Zr10  1  0.69609671  0.30062611  0.10533387  1
  Zr  Zr11  1  0.88647221  0.09603310  0.48849715  1
  Zr  Zr12  1  0.47812400  0.10135980  0.29198519  1
  Zr  Zr13  1  0.11068705  0.48354964  0.29676398  1
  Zr  Zr14  1  0.69687637  0.50079581  0.90225379  1
  Zr  Zr15  1  0.28642234  0.69351775  0.49484189  1
  Zr  Zr16  1  0.90942904  0.49637140  0.90030188  1
  Zr  Zr17  1  0.90180498  0.09250194  0.70257512  1
  Zr  Zr18  1  0.69979987  0.09120104  0.90261692  1
  Zr  Zr19  1  0.29155821  0.90910075  0.10429667  1
  Zr  Zr20  1  0.49688615  0.10277822  0.70131574  1
  Zr  Zr21  1  0.69318152  0.28488636  0.49171631  1
  Zr  Zr22  1  0.09637782  0.90215431  0.69965594  1
  Zr  Zr23  1  0.69761387  0.30752801  0.29517195  1
  Zr  Zr24  1  0.90434018  0.30841486  0.09494949  1
  Zr  Zr25  1  0.49830701  0.11031273  0.50476709  1
  Zr  Zr26  1  0.28801882  0.49731297  0.09764933  1
  Zr  Zr27  1  0.09172867  0.10816322  0.30263444  1
  Zr  Zr28  1  0.50040200  0.49961475  0.30732244  1
  Zr  Zr29  1  0.91035483  0.49574432  0.50927861  1
  Zr  Zr30  1  0.49502109  0.89361365  0.49803834  1
  Zr  Zr31  1  0.89609429  0.69957035  0.29738893  1
  Zr  Zr32  1  0.29976769  0.89585987  0.89705516  1
  Zr  Zr33  1  0.09581159  0.30978647  0.10527771  1
  Zr  Zr34  1  0.69170910  0.89845883  0.70140854  1
  Zr  Zr35  1  0.89588223  0.50542418  0.28925323  1
  Zr  Zr36  1  0.50866681  0.70437163  0.30428271  1
  Zr  Zr37  1  0.30918440  0.90981270  0.29806330  1
  Zr  Zr38  1  0.10411757  0.90594917  0.29641027  1
  Zr  Zr39  1  0.91789966  0.29427197  0.29725219  1
  Zr  Zr40  1  0.09737122  0.90227506  0.09954573  1
  Zr  Zr41  1  0.09425168  0.69490679  0.89791508  1
  Zr  Zr42  1  0.70006856  0.50293642  0.29916320  1
  Zr  Zr43  1  0.29504883  0.50239618  0.49198819  1
  Zr  Zr44  1  0.69507417  0.49473679  0.70357586  1
  Zr  Zr45  1  0.69464770  0.70406157  0.90665318  1
  Zr  Zr46  1  0.49693700  0.89710578  0.69784011  1
  Zr  Zr47  1  0.69507088  0.30281161  0.69785467  1
  Zr  Zr48  1  0.09879559  0.10077698  0.70451839  1
  Zr  Zr49  1  0.89738886  0.70053298  0.50354975  1
  Sc  Sc50  1  0.90047583  0.89852575  0.49992985  1
  Sc  Sc51  1  0.48827620  0.30102665  0.90085233  1
  Sc  Sc52  1  0.91181918  0.29898784  0.89779049  1
  Sc  Sc53  1  0.29685589  0.11172795  0.91231260  1
  Sc  Sc54  1  0.49990788  0.70918990  0.69156770  1
  Sc  Sc55  1  0.30457050  0.29979145  0.90184305  1
  Sc  Sc56  1  0.90049837  0.90305636  0.29918381  1
  Sc  Sc57  1  0.50755466  0.88951087  0.89585302  1
  Sc  Sc58  1  0.29486357  0.69902958  0.88852828  1
  Sc  Sc59  1  0.69319135  0.09492060  0.09586302  1
  Sc  Sc60  1  0.09836820  0.30842839  0.48980860  1
  Sc  Sc61  1  0.29874907  0.50627924  0.68831609  1
  Sc  Sc62  1  0.30126769  0.30019970  0.09073825  1
  Sc  Sc63  1  0.90018733  0.70434654  0.89291310  1
  Sc  Sc64  1  0.49888628  0.10912169  0.10090789  1
  Sc  Sc65  1  0.71442210  0.10536048  0.31599790  1
  Sc  Sc66  1  0.90011367  0.89902923  0.90539504  1
  Sc  Sc67  1  0.30152364  0.70064265  0.69477400  1
  Sc  Sc68  1  0.70643172  0.69894567  0.30686764  1
  Sc  Sc69  1  0.69865503  0.89856816  0.90712147  1
  Sc  Sc70  1  0.70463995  0.70688889  0.09981087  1
  Sc  Sc71  1  0.10507847  0.70660426  0.29561996  1
  Sc  Sc72  1  0.70659035  0.89982150  0.09429508  1
  Sc  Sc73  1  0.30275978  0.89061887  0.69335796  1
  Sc  Sc74  1  0.69789706  0.50518929  0.50635815  1
  Sc  Sc75  1  0.29933546  0.29577414  0.49584894  1
  Sc  Sc76  1  0.90510203  0.31064656  0.70156467  1
  Sc  Sc77  1  0.90630132  0.09530897  0.29949111  1
  Sc  Sc78  1  0.50138808  0.30028356  0.71023332  1
  Sc  Sc79  1  0.89594119  0.49924673  0.70211036  1
  Sc  Sc80  1  0.10239949  0.09440429  0.09747991  1
  Sc  Sc81  1  0.89590718  0.89896808  0.10118865  1
  Sc  Sc82  1  0.71105003  0.49156807  0.11027899  1
  Sc  Sc83  1  0.29758651  0.11256540  0.69039092  1
  Sc  Sc84  1  0.90259298  0.30051898  0.49865778  1
  Sc  Sc85  1  0.09928643  0.29681655  0.70296660  1
  Sc  Sc86  1  0.90814114  0.09268394  0.09803468  1
  Sc  Sc87  1  0.09734880  0.70036507  0.70011098  1
  Sc  Sc88  1  0.90633017  0.09624973  0.90312800  1
  Sc  Sc89  1  0.50941138  0.90053961  0.09856403  1
  Sc  Sc90  1  0.50118274  0.30074196  0.30413284  1
  Sc  Sc91  1  0.89952843  0.89493222  0.70111456  1
  Sc  Sc92  1  0.49997150  0.10701846  0.90443567  1
  Sc  Sc93  1  0.69072996  0.30397442  0.89450586  1
  Sc  Sc94  1  0.50520496  0.69950172  0.49802606  1
  Sc  Sc95  1  0.49743485  0.49737417  0.90591147  1
  Sc  Sc96  1  0.48701867  0.50729265  0.09671146  1
  Sc  Sc97  1  0.50031796  0.50752038  0.50062577  1
  Sc  Sc98  1  0.09848656  0.29514631  0.90192532  1
  Sc  Sc99  1  0.10154724  0.88876874  0.50145193  1
  Nb  Nb100  1  0.90377160  0.50024504  0.09790445  1
  Nb  Nb101  1  0.69672864  0.09804189  0.50363007  1
  Nb  Nb102  1  0.89046632  0.70315973  0.70319496  1
  Nb  Nb103  1  0.30425376  0.69029866  0.29685690  1
  Nb  Nb104  1  0.30225510  0.10215190  0.49521421  1
  Nb  Nb105  1  0.50400349  0.69646069  0.89972752  1
  Nb  Nb106  1  0.09932029  0.69024744  0.49380875  1
  Nb  Nb107  1  0.10570464  0.50217693  0.89984511  1
  Nb  Nb108  1  0.10491987  0.50965771  0.49923139  1
  Nb  Nb109  1  0.50252852  0.89757039  0.30355892  1
  Nb  Nb110  1  0.29642617  0.30737701  0.30253887  1
  Nb  Nb111  1  0.29767650  0.90292799  0.49706197  1
  Nb  Nb112  1  0.30382790  0.30856289  0.70658076  1
  Nb  Nb113  1  0.49851437  0.50024278  0.69913729  1
  Nb  Nb114  1  0.30506891  0.09815389  0.11324911  1
  Nb  Nb115  1  0.30425460  0.50020038  0.29795065  1
  Nb  Nb116  1  0.70677374  0.69960411  0.70126916  1
  Nb  Nb117  1  0.10276407  0.69569979  0.09331489  1
  Nb  Nb118  1  0.09581815  0.50710366  0.08666586  1
  Nb  Nb119  1  0.29899828  0.10564065  0.29754344  1
  Nb  Nb120  1  0.69871381  0.70336989  0.50481623  1
  Nb  Nb121  1  0.50094374  0.29974141  0.11002118  1
  Nb  Nb122  1  0.49566187  0.30296800  0.49613357  1
  Nb  Nb123  1  0.10469638  0.89931226  0.90213109  1
  Nb  Nb124  1  0.10341821  0.29778979  0.29546863  1
  Nb  Nb125  1  0.20930947  0.00551097  0.40368162  1
  Nb  Nb126  1  0.39481413  0.79925306  0.00364739  1
  Nb  Nb127  1  0.79864984  0.20179093  -0.00138213  1
  Nb  Nb128  1  0.80150806  0.40027946  0.39686776  1
  Nb  Nb129  1  0.80362743  0.20280463  0.19424847  1
  Nb  Nb130  1  0.00637812  0.59830763  0.40142248  1
  Nb  Nb131  1  0.79822002  0.19645367  0.79796835  1
  Nb  Nb132  1  0.39682879  -0.00321964  -0.00024737  1
  Nb  Nb133  1  0.39326779  0.00220848  0.80346910  1
  Nb  Nb134  1  0.40894486  0.59911922  0.79648296  1
  Nb  Nb135  1  0.20134118  0.40304395  0.79883425  1
  Nb  Nb136  1  0.20329043  0.00077068  0.80148741  1
  Nb  Nb137  1  0.40228740  0.39920596  0.59901964  1
  Nb  Nb138  1  0.59855086  -0.00147502  0.21388626  1
  Nb  Nb139  1  0.20254269  0.20363156  0.20511788  1
  Nb  Nb140  1  0.60036912  0.59924894  0.19996575  1
  Nb  Nb141  1  0.19771822  0.79568773  0.00352595  1
  Nb  Nb142  1  0.39420648  0.40247564  0.20480072  1
  Nb  Nb143  1  0.59615176  0.39895456  0.00972285  1
  Nb  Nb144  1  0.40130262  0.79777257  0.20123282  1
  Nb  Nb145  1  -0.00457783  0.19435553  0.59903663  1
  Nb  Nb146  1  0.79857063  0.19592700  0.60333902  1
  Nb  Nb147  1  0.80710156  0.59472545  0.00143621  1
  Nb  Nb148  1  0.59725815  0.60260333  0.79662381  1
  Nb  Nb149  1  0.59402329  0.00101524  0.39792905  1
  Pd  Pd150  1  0.60892285  0.18572002  0.21130463  1
  Pd  Pd151  1  0.79518828  0.39080257  0.58914631  1
  Pd  Pd152  1  0.79988585  0.80436346  0.40439770  1
  Pd  Pd153  1  0.20538525  0.59213030  0.79324407  1
  Pd  Pd154  1  0.79554508  0.80787449  0.80599910  1
  Pd  Pd155  1  -0.00198092  0.40792806  0.39692450  1
  Pd  Pd156  1  0.39273351  0.78954420  0.58580697  1
  Pd  Pd157  1  0.40160430  0.00432964  0.40733552  1
  Pd  Pd158  1  -0.00538801  0.00102580  0.59079813  1
  Pd  Pd159  1  0.80534272  0.59217339  0.41145423  1
  Pd  Pd160  1  0.19381146  0.80291555  0.79863341  1
  Pd  Pd161  1  0.39529871  0.00179049  0.60490564  1
  Pd  Pd162  1  0.20385361  0.39348933  0.60014676  1
  Pd  Pd163  1  0.00308448  -0.00825689  0.80834070  1
  Pd  Pd164  1  0.40254051  0.60628190  0.40419669  1
  Pd  Pd165  1  0.20661045  0.20295652  0.80240902  1
  Pd  Pd166  1  0.80286988  0.39163098  0.80741939  1
  Pd  Pd167  1  -0.00436495  0.59961220  0.79173819  1
  Pd  Pd168  1  0.60036022  0.60769152  0.60689654  1
  Pd  Pd169  1  -0.00305447  0.60871835  0.60402134  1
  Pd  Pd170  1  0.19536440  0.21293744  0.59811608  1
  Pd  Pd171  1  0.79729173  0.80530336  0.60100709  1
  Pd  Pd172  1  0.20640016  0.80514355  0.39393324  1
  Pd  Pd173  1  0.00915270  -0.00438663  0.40755486  1
  Pd  Pd174  1  0.40068512  0.21326772  0.60322839  1
  Pd  Pd175  1  0.79556748  0.39646355  -0.00816844  1
  Pd  Pd176  1  -0.00158145  0.80251573  0.20035569  1
  Pd  Pd177  1  0.20035264  0.19989494  0.39768258  1
  Pd  Pd178  1  0.79276116  0.00848595  0.19984643  1
  Pd  Pd179  1  0.79623022  0.59932203  0.80636677  1
  Pd  Pd180  1  0.60035769  0.20825960  -0.00416913  1
  Pd  Pd181  1  0.59194745  0.39498676  0.59274046  1
  Pd  Pd182  1  0.59039802  0.18961960  0.38857170  1
  Pd  Pd183  1  0.60588253  0.40582133  0.41065088  1
  Pd  Pd184  1  0.01426618  0.59505017  0.20657158  1
  Pd  Pd185  1  0.39026486  0.79072405  0.39796488  1
  Pd  Pd186  1  0.80019497  0.59669719  0.60172445  1
  Pd  Pd187  1  0.38846614  0.60718734  -0.01256102  1
  Pd  Pd188  1  0.20869943  -0.00288750  0.60240971  1
  Pd  Pd189  1  0.79977764  -0.00237225  0.80255973  1
  Pd  Pd190  1  0.00241374  0.80149890  -0.00180308  1
  Pd  Pd191  1  -0.00102074  0.79435784  0.39574163  1
  Pd  Pd192  1  0.60207796  0.19820829  0.80431926  1
  Pd  Pd193  1  0.58875763  0.00017349  0.80663513  1
  Pd  Pd194  1  0.20669220  0.79694645  0.19851671  1
  Pd  Pd195  1  0.59940167  0.79822620  0.19379302  1
  Pd  Pd196  1  0.19638801  0.79515051  0.59923919  1
  Pd  Pd197  1  0.19566538  0.20115894  0.01201843  1
  Pd  Pd198  1  -0.00017824  0.79280936  0.60332872  1
  Pd  Pd199  1  0.18982771  0.59706977  0.20390735  1
  Rh  Rh200  1  0.60407004  0.79111920  0.79467032  1
  Rh  Rh201  1  -0.00069303  0.80190226  0.79737656  1
  Rh  Rh202  1  0.41094173  0.60018926  0.21042160  1
  Rh  Rh203  1  0.40118931  0.59846843  0.59940933  1
  Rh  Rh204  1  0.38907306  0.21657016  0.19956164  1
  Rh  Rh205  1  0.81488612  0.38928571  0.20819360  1
  Rh  Rh206  1  0.39879060  0.20639800  0.39856009  1
  Rh  Rh207  1  0.20722708  0.39434984  0.19438748  1
  Rh  Rh208  1  0.39530351  0.41027129  0.79123704  1
  Rh  Rh209  1  0.39432006  0.19238535  0.79980529  1
  Rh  Rh210  1  0.59051125  0.40765159  0.80977844  1
  Rh  Rh211  1  0.20527117  -0.00112423  -0.00831212  1
  Rh  Rh212  1  0.19348610  0.59874917  0.38550252  1
  Rh  Rh213  1  0.79322091  0.60797268  0.18716133  1
  Rh  Rh214  1  0.40761374  0.79443086  0.80462167  1
  Rh  Rh215  1  0.41264415  -0.01067144  0.18750259  1
  Rh  Rh216  1  -0.00009403  0.19802030  0.41156698  1
  Rh  Rh217  1  0.00859354  0.39049953  0.59891851  1
  Rh  Rh218  1  0.59806715  0.20637268  0.60267910  1
  Rh  Rh219  1  -0.00458549  0.59978543  -0.00536761  1
  Rh  Rh220  1  0.61423381  0.58929116  0.00789541  1
  Rh  Rh221  1  0.00158068  -0.00265946  0.19901628  1
  Rh  Rh222  1  0.60674541  0.60376055  0.39814361  1
  Rh  Rh223  1  0.61015525  0.80490257  0.41056458  1
  Rh  Rh224  1  -0.00926454  0.20130747  0.79217661  1
  Rh  Rh225  1  0.58202122  0.41497579  0.19189625  1
  Rh  Rh226  1  0.39654605  0.39763625  0.40275630  1
  Rh  Rh227  1  0.00885976  0.40337601  -0.00402879  1
  Rh  Rh228  1  0.59647761  0.80358863  0.00302865  1
  Rh  Rh229  1  0.59194023  -0.00079794  0.00443893  1
  Rh  Rh230  1  0.80794782  0.79079670  0.00051964  1
  Rh  Rh231  1  0.20360746  0.60573108  -0.00580626  1
  Rh  Rh232  1  0.20254933  0.40068346  0.40381421  1
  Rh  Rh233  1  0.80229983  0.00614635  0.00101370  1
  Rh  Rh234  1  -0.00063960  -0.00640196  0.00008154  1
  Rh  Rh235  1  0.81019175  0.21180692  0.39520459  1
  Rh  Rh236  1  0.00367844  0.19567447  0.18975258  1
  Rh  Rh237  1  0.19198828  0.39663876  -0.00869727  1
  Rh  Rh238  1  0.01304337  0.40483254  0.80236890  1
  Rh  Rh239  1  -0.00291285  0.19885305  0.00470211  1
  Rh  Rh240  1  0.80421150  -0.00000900  0.60268917  1
  Rh  Rh241  1  0.40852568  0.39295469  0.01369044  1
  Rh  Rh242  1  0.19138182  0.01547984  0.21157202  1
  Rh  Rh243  1  0.58443394  -0.00247239  0.59138432  1
  Rh  Rh244  1  0.19636798  0.60596814  0.60462923  1
  Rh  Rh245  1  0.80543420  0.79814349  0.19825716  1
  Rh  Rh246  1  0.60534038  0.79706679  0.59987480  1
  Rh  Rh247  1  0.40213132  0.19665681  0.00737356  1
  Rh  Rh248  1  -0.00002797  0.40998461  0.19756229  1
  Rh  Rh249  1  0.79220052  -0.00995482  0.39698081  1
