# generated using pymatgen
data_ZrScNbPdRh
_symmetry_space_group_name_H-M   'P 1'
_cell_length_a   16.55448754
_cell_length_b   16.55561521
_cell_length_c   16.55273158
_cell_angle_alpha   89.99262190
_cell_angle_beta   90.01319379
_cell_angle_gamma   90.01161308
_symmetry_Int_Tables_number   1
_chemical_formula_structural   ZrScNbPdRh
_chemical_formula_sum   'Zr50 Sc50 Nb50 Pd50 Rh50'
_cell_volume   4536.60235029
_cell_formula_units_Z   50
loop_
 _symmetry_equiv_pos_site_id
 _symmetry_equiv_pos_as_xyz
  1  'x, y, z'
loop_
 _atom_site_type_symbol
 _atom_site_label
 _atom_site_symmetry_multiplicity
 _atom_site_fract_x
 _atom_site_fract_y
 _atom_site_fract_z
 _atom_site_occupancy
  Zr  Zr0  1  0.10614027  0.70868248  0.70243405  1
  Zr  Zr1  1  0.70086490  0.49776990  0.51170522  1
  Zr  Zr2  1  0.90689451  0.29778322  0.10138783  1
  Zr  Zr3  1  0.10012865  0.70135568  0.30808744  1
  Zr  Zr4  1  0.49923756  0.10266315  0.90270068  1
  Zr  Zr5  1  0.29671075  0.89973138  0.29430454  1
  Zr  Zr6  1  0.69662708  0.10266244  0.49936894  1
  Zr  Zr7  1  0.49938679  0.89734908  0.70796510  1
  Zr  Zr8  1  0.69640257  0.70754213  0.09766428  1
  Zr  Zr9  1  0.89721757  0.89596033  0.69587357  1
  Zr  Zr10  1  0.69452508  0.88772276  0.90313167  1
  Zr  Zr11  1  0.70021175  0.49638653  0.29680269  1
  Zr  Zr12  1  0.49575866  0.49200697  0.89967796  1
  Zr  Zr13  1  0.09631023  0.30026869  0.29033436  1
  Zr  Zr14  1  0.29824164  0.70239950  0.30400878  1
  Zr  Zr15  1  0.89915071  0.50424258  0.90494133  1
  Zr  Zr16  1  0.09515453  0.29578407  0.70846453  1
  Zr  Zr17  1  0.30144709  0.70515065  0.10239090  1
  Zr  Zr18  1  0.30643671  0.09866020  0.50658453  1
  Zr  Zr19  1  0.90539678  0.29844055  0.89762996  1
  Zr  Zr20  1  0.29285530  0.29853327  0.09973803  1
  Zr  Zr21  1  0.69938641  0.89144103  0.70188486  1
  Zr  Zr22  1  0.69566035  0.29763616  0.90333416  1
  Zr  Zr23  1  0.30170146  0.49739565  0.89329850  1
  Zr  Zr24  1  0.69908546  0.70355291  0.29798915  1
  Zr  Zr25  1  0.30337009  0.10079988  0.89702022  1
  Zr  Zr26  1  0.49158798  0.29071152  0.48921188  1
  Zr  Zr27  1  0.50113534  0.29727951  0.30072248  1
  Zr  Zr28  1  0.09465132  0.29522840  0.49614220  1
  Zr  Zr29  1  0.29182644  0.90505248  0.69820755  1
  Zr  Zr30  1  0.30936362  0.49304835  0.09504776  1
  Zr  Zr31  1  0.09778409  0.70051117  0.89968799  1
  Zr  Zr32  1  0.30047518  0.69881065  0.49754682  1
  Zr  Zr33  1  0.70158551  0.90249800  0.29241915  1
  Zr  Zr34  1  0.50451675  0.90526162  0.10411867  1
  Zr  Zr35  1  0.30018140  0.09467474  0.70438723  1
  Zr  Zr36  1  0.09660392  0.50905256  0.29933393  1
  Zr  Zr37  1  0.90373513  0.29546874  0.50404814  1
  Zr  Zr38  1  0.69515936  0.69745783  0.71125331  1
  Zr  Zr39  1  0.30767121  0.30108353  0.29869924  1
  Zr  Zr40  1  0.88836101  0.49705356  0.70079547  1
  Zr  Zr41  1  0.09165384  0.90386655  0.10014118  1
  Zr  Zr42  1  0.29581239  0.50088116  0.30605097  1
  Zr  Zr43  1  0.69149646  0.50489429  0.70315560  1
  Zr  Zr44  1  0.10588914  0.90765511  0.50175756  1
  Zr  Zr45  1  0.50451976  0.10020226  0.09963146  1
  Zr  Zr46  1  0.69571541  0.49719950  0.10292987  1
  Zr  Zr47  1  0.69949293  0.90231222  0.10130150  1
  Zr  Zr48  1  0.69731587  0.09322562  0.69716361  1
  Zr  Zr49  1  0.89895309  0.50277977  0.09699215  1
  Sc  Sc50  1  0.90970616  0.09845743  0.09972355  1
  Sc  Sc51  1  0.11790620  0.49823969  0.70093352  1
  Sc  Sc52  1  0.30497303  0.10186635  0.10252462  1
  Sc  Sc53  1  0.70465996  0.49944775  0.90186403  1
  Sc  Sc54  1  0.30238040  0.30336839  0.70439896  1
  Sc  Sc55  1  0.49637486  0.09920557  0.70205917  1
  Sc  Sc56  1  0.11001869  0.50294204  0.49386302  1
  Sc  Sc57  1  0.49854273  0.50066843  0.70534242  1
  Sc  Sc58  1  0.89593283  0.69954438  0.90965457  1
  Sc  Sc59  1  0.49532523  0.69884101  0.88856268  1
  Sc  Sc60  1  0.90576530  0.30038673  0.29624853  1
  Sc  Sc61  1  0.49980064  0.69580926  0.69731790  1
  Sc  Sc62  1  0.09672678  0.89378671  0.89596480  1
  Sc  Sc63  1  0.91045226  0.70772973  0.30122563  1
  Sc  Sc64  1  0.29792186  0.70149644  0.70247399  1
  Sc  Sc65  1  0.70489017  0.30227859  0.29575262  1
  Sc  Sc66  1  0.09725790  0.50365139  0.10487718  1
  Sc  Sc67  1  0.48899837  0.69983750  0.50387066  1
  Sc  Sc68  1  0.69945614  0.09731481  0.09786834  1
  Sc  Sc69  1  0.70343059  0.70480668  0.51329336  1
  Sc  Sc70  1  0.89815146  0.49700466  0.49719605  1
  Sc  Sc71  1  0.89850573  0.29583756  0.70634851  1
  Sc  Sc72  1  0.10169441  0.09308079  0.69658207  1
  Sc  Sc73  1  0.70056889  0.30656492  0.70148038  1
  Sc  Sc74  1  0.08633173  0.09780711  0.50008847  1
  Sc  Sc75  1  0.70271898  0.09621867  0.29460727  1
  Sc  Sc76  1  0.09938555  0.10337855  0.09904534  1
  Sc  Sc77  1  0.90350873  0.49089309  0.29688923  1
  Sc  Sc78  1  0.70679286  0.30369466  0.09666812  1
  Sc  Sc79  1  0.88876607  0.69981654  0.70157316  1
  Sc  Sc80  1  0.90766857  0.10701741  0.90287467  1
  Sc  Sc81  1  0.10347420  0.10370123  0.89879277  1
  Sc  Sc82  1  0.90511414  0.10670582  0.69371679  1
  Sc  Sc83  1  0.50444237  0.49776004  0.28728659  1
  Sc  Sc84  1  0.49036446  0.89174441  0.51236524  1
  Sc  Sc85  1  0.30053007  0.09621206  0.28990299  1
  Sc  Sc86  1  0.49668261  0.10565036  0.30241453  1
  Sc  Sc87  1  0.49329435  0.70115593  0.30188884  1
  Sc  Sc88  1  0.69137423  0.10499084  0.90594399  1
  Sc  Sc89  1  0.49405398  0.31100085  0.09907296  1
  Sc  Sc90  1  0.90417799  0.09721090  0.29317329  1
  Sc  Sc91  1  0.89833404  0.90390939  0.29005676  1
  Sc  Sc92  1  0.89889762  0.90552735  0.49588787  1
  Sc  Sc93  1  0.50107737  0.30412301  0.71086329  1
  Sc  Sc94  1  0.49246939  0.50569183  0.51474326  1
  Sc  Sc95  1  0.70740922  0.90109180  0.50990137  1
  Sc  Sc96  1  0.50075957  0.10651083  0.50460729  1
  Sc  Sc97  1  0.69530594  0.29766174  0.50445881  1
  Sc  Sc98  1  0.09195943  0.69813769  0.10827280  1
  Sc  Sc99  1  0.90547965  0.70275194  0.09709470  1
  Nb  Nb100  1  0.49858685  0.69623548  0.09944659  1
  Nb  Nb101  1  0.10078307  0.50035016  0.89811481  1
  Nb  Nb102  1  0.09747726  0.90213502  0.69785761  1
  Nb  Nb103  1  0.10167168  0.29754605  0.09202927  1
  Nb  Nb104  1  0.29908261  0.30084917  0.49287223  1
  Nb  Nb105  1  0.90209658  0.10602504  0.49897306  1
  Nb  Nb106  1  0.29940944  0.29643089  0.90386666  1
  Nb  Nb107  1  0.90944720  0.70020351  0.49461009  1
  Nb  Nb108  1  0.49592736  0.29723282  0.89746852  1
  Nb  Nb109  1  0.30375520  0.90048321  0.50151093  1
  Nb  Nb110  1  0.90484386  0.89848904  0.90645910  1
  Nb  Nb111  1  0.30047593  0.49353158  0.50808851  1
  Nb  Nb112  1  0.09240560  0.69789871  0.49503389  1
  Nb  Nb113  1  0.49825136  0.90338230  0.30384516  1
  Nb  Nb114  1  0.29502562  0.70505869  0.90136121  1
  Nb  Nb115  1  0.10268413  0.91066726  0.29621576  1
  Nb  Nb116  1  0.30225443  0.90343627  0.89629875  1
  Nb  Nb117  1  0.29935518  0.90290636  0.10241005  1
  Nb  Nb118  1  0.50083675  0.50317280  0.09832209  1
  Nb  Nb119  1  0.30554272  0.49628106  0.68738739  1
  Nb  Nb120  1  0.90462168  0.90128900  0.09135418  1
  Nb  Nb121  1  0.69875858  0.69423783  0.90286596  1
  Nb  Nb122  1  0.49551943  0.90570624  0.90093246  1
  Nb  Nb123  1  0.10053536  0.09502189  0.30038571  1
  Nb  Nb124  1  0.10617249  0.29932115  0.90381085  1
  Nb  Nb125  1  0.59878745  0.40536579  0.40350586  1
  Nb  Nb126  1  0.80574583  -0.00687980  -0.00552186  1
  Nb  Nb127  1  0.00899150  0.39727893  -0.00560104  1
  Nb  Nb128  1  0.79846327  0.60321924  0.39734126  1
  Nb  Nb129  1  0.60498984  0.60026307  0.40269447  1
  Nb  Nb130  1  0.20649461  -0.00763762  -0.00087951  1
  Nb  Nb131  1  0.20045696  0.19910150  0.39987422  1
  Nb  Nb132  1  0.79748393  0.60221802  0.20301167  1
  Nb  Nb133  1  0.59425586  0.60137109  0.00228093  1
  Nb  Nb134  1  0.40069946  0.59958277  0.19345734  1
  Nb  Nb135  1  0.59894171  0.20246330  0.19699771  1
  Nb  Nb136  1  -0.00614519  -0.00721430  0.79848830  1
  Nb  Nb137  1  0.00229679  0.40491393  0.60461845  1
  Nb  Nb138  1  0.00335430  0.60167158  0.60165473  1
  Nb  Nb139  1  0.20273844  0.20322723  0.59312944  1
  Nb  Nb140  1  0.20363438  0.60305830  -0.00425173  1
  Nb  Nb141  1  0.80331668  -0.00354242  0.80610635  1
  Nb  Nb142  1  0.80623132  0.19546748  0.40364531  1
  Nb  Nb143  1  0.39998384  -0.00618915  0.40190890  1
  Nb  Nb144  1  0.00194730  0.59651238  0.79530801  1
  Nb  Nb145  1  0.00427526  0.79546476  0.59518235  1
  Nb  Nb146  1  0.59864415  0.80334987  0.40045126  1
  Nb  Nb147  1  0.20662883  0.80264162  0.00033824  1
  Nb  Nb148  1  0.39785900  0.80696884  -0.00234420  1
  Nb  Nb149  1  0.59520569  -0.00811144  0.40073386  1
  Pd  Pd150  1  0.58450309  0.79341568  -0.00820899  1
  Pd  Pd151  1  0.00223514  0.40785878  0.79902270  1
  Pd  Pd152  1  0.39658313  0.20850010  0.60914870  1
  Pd  Pd153  1  0.79576560  0.20270204  0.60020189  1
  Pd  Pd154  1  0.59605396  0.20703710  0.61013100  1
  Pd  Pd155  1  0.40055353  0.20486683  0.00497533  1
  Pd  Pd156  1  0.59857902  0.40086774  -0.00214304  1
  Pd  Pd157  1  0.80675346  0.60551164  0.59334695  1
  Pd  Pd158  1  0.79526343  0.39384034  0.40447011  1
  Pd  Pd159  1  0.00358951  0.81679204  0.39869915  1
  Pd  Pd160  1  0.60434857  0.00013180  0.80598347  1
  Pd  Pd161  1  0.79744338  0.19693139  0.20287308  1
  Pd  Pd162  1  0.40934763  0.41332898  0.40113407  1
  Pd  Pd163  1  0.20720882  0.39695320  0.79940448  1
  Pd  Pd164  1  0.19902343  0.79879597  0.59271413  1
  Pd  Pd165  1  0.58736597  0.39360977  0.59575493  1
  Pd  Pd166  1  0.40589183  0.39030836  0.60121161  1
  Pd  Pd167  1  0.79348287  0.39933575  0.80466835  1
  Pd  Pd168  1  0.79625187  0.79770954  0.40494470  1
  Pd  Pd169  1  0.60123813  0.19935322  0.79446930  1
  Pd  Pd170  1  0.19977526  0.60295310  0.59498674  1
  Pd  Pd171  1  0.20648214  0.59763729  0.19316395  1
  Pd  Pd172  1  0.19614006  0.40793165  0.00025682  1
  Pd  Pd173  1  0.19775876  0.80424206  0.40326220  1
  Pd  Pd174  1  0.00307396  0.40549305  0.40588976  1
  Pd  Pd175  1  0.59152955  -0.00393973  0.59341132  1
  Pd  Pd176  1  0.20085465  0.19807127  0.79493421  1
  Pd  Pd177  1  0.80577140  0.00488498  0.60332764  1
  Pd  Pd178  1  0.39623332  0.80044729  0.79879976  1
  Pd  Pd179  1  0.39684001  -0.00129177  0.00338215  1
  Pd  Pd180  1  0.80399174  0.79700387  0.81006147  1
  Pd  Pd181  1  0.19663163  0.19386291  0.20268800  1
  Pd  Pd182  1  0.40659494  0.79995950  0.19827374  1
  Pd  Pd183  1  0.39486714  0.59950445  0.79336709  1
  Pd  Pd184  1  0.59502020  0.79476607  0.59744906  1
  Pd  Pd185  1  0.80311186  0.19176978  0.00211162  1
  Pd  Pd186  1  -0.00892485  0.79568354  0.79498642  1
  Pd  Pd187  1  0.20256588  0.59921561  0.80108232  1
  Pd  Pd188  1  0.81065132  0.79757779  0.19301491  1
  Pd  Pd189  1  0.18907229  0.80237592  0.19715969  1
  Pd  Pd190  1  0.40803234  0.59092671  0.39582317  1
  Pd  Pd191  1  0.19551021  0.39086918  0.59826425  1
  Pd  Pd192  1  0.40057421  0.60790944  -0.00210508  1
  Pd  Pd193  1  0.19620125  0.40353451  0.19854535  1
  Pd  Pd194  1  0.19568069  0.39572387  0.39682151  1
  Pd  Pd195  1  -0.00545060  -0.00246449  0.39578854  1
  Pd  Pd196  1  0.79663510  0.00609396  0.39888454  1
  Pd  Pd197  1  0.58999286  0.79849025  0.20712669  1
  Pd  Pd198  1  0.79532810  0.18959860  0.80012541  1
  Pd  Pd199  1  0.20761262  0.00919216  0.40273548  1
  Rh  Rh200  1  0.20364415  0.19162504  -0.00137951  1
  Rh  Rh201  1  0.00436013  0.18926324  0.79975280  1
  Rh  Rh202  1  0.59753004  0.60351488  0.59926708  1
  Rh  Rh203  1  0.39410628  0.39757961  0.80049702  1
  Rh  Rh204  1  0.81009940  0.39307151  -0.00272249  1
  Rh  Rh205  1  0.00686756  0.79605846  0.00302673  1
  Rh  Rh206  1  -0.01042173  0.60105980  0.20706874  1
  Rh  Rh207  1  0.39198716  0.79927180  0.60972260  1
  Rh  Rh208  1  0.19904591  0.00687904  0.59677203  1
  Rh  Rh209  1  0.59722470  0.60684596  0.19714026  1
  Rh  Rh210  1  0.59458497  0.01109615  0.20890174  1
  Rh  Rh211  1  0.00630376  0.20476681  -0.00244439  1
  Rh  Rh212  1  -0.00528371  -0.00622359  0.60393661  1
  Rh  Rh213  1  0.59910369  0.59731435  0.81006676  1
  Rh  Rh214  1  0.39899956  0.40474176  0.20189872  1
  Rh  Rh215  1  0.40601347  0.20273024  0.19577284  1
  Rh  Rh216  1  0.00644692  0.20436890  0.60586303  1
  Rh  Rh217  1  0.60620961  -0.00290453  -0.00621248  1
  Rh  Rh218  1  0.18751371  -0.00575281  0.80724410  1
  Rh  Rh219  1  0.80280451  0.80194495  0.00222890  1
  Rh  Rh220  1  0.00628112  0.19632843  0.19982724  1
  Rh  Rh221  1  0.00188635  0.00080131  0.20160907  1
  Rh  Rh222  1  0.00250245  0.80651354  0.20319241  1
  Rh  Rh223  1  0.00419121  0.00211617  -0.00915200  1
  Rh  Rh224  1  0.59874897  0.38825582  0.20170762  1
  Rh  Rh225  1  0.00527648  0.39986667  0.18881524  1
  Rh  Rh226  1  0.80250927  0.60325307  0.80622958  1
  Rh  Rh227  1  0.20494994  0.60013994  0.40648403  1
  Rh  Rh228  1  0.59417811  0.79602112  0.80453036  1
  Rh  Rh229  1  0.60251066  0.40094379  0.80690659  1
  Rh  Rh230  1  0.19596306  0.00409353  0.18934326  1
  Rh  Rh231  1  0.59463844  0.21023018  0.00879537  1
  Rh  Rh232  1  0.39978274  0.20255598  0.80161523  1
  Rh  Rh233  1  0.38687637  0.18768186  0.39475269  1
  Rh  Rh234  1  0.80683785  0.00108892  0.18410496  1
  Rh  Rh235  1  0.40354216  -0.00040806  0.20431872  1
  Rh  Rh236  1  0.80728245  0.39123684  0.60240623  1
  Rh  Rh237  1  0.39864474  0.39050913  -0.00632957  1
  Rh  Rh238  1  0.78740124  0.60379479  0.00992434  1
  Rh  Rh239  1  -0.00763701  0.59169666  0.40114074  1
  Rh  Rh240  1  0.40455692  0.00111579  0.79765427  1
  Rh  Rh241  1  0.39169995  0.60315982  0.60531251  1
  Rh  Rh242  1  0.40393644  -0.00332320  0.60101534  1
  Rh  Rh243  1  0.61496327  0.20020824  0.38801373  1
  Rh  Rh244  1  0.80680812  0.40353240  0.19353677  1
  Rh  Rh245  1  0.39944789  0.80738598  0.40065433  1
  Rh  Rh246  1  -0.00053428  0.19326580  0.38688268  1
  Rh  Rh247  1  0.01093358  0.59586253  -0.00636775  1
  Rh  Rh248  1  0.81108535  0.79637696  0.59235048  1
  Rh  Rh249  1  0.20355024  0.80945364  0.80316673  1
