# generated using pymatgen
data_ZrScNbPdRh
_symmetry_space_group_name_H-M   'P 1'
_cell_length_a   16.55706334
_cell_length_b   16.56138505
_cell_length_c   16.55889075
_cell_angle_alpha   89.98317932
_cell_angle_beta   90.00728077
_cell_angle_gamma   89.97641866
_symmetry_Int_Tables_number   1
_chemical_formula_structural   ZrScNbPdRh
_chemical_formula_sum   'Zr50 Sc50 Nb50 Pd50 Rh50'
_cell_volume   4540.57806189
_cell_formula_units_Z   50
loop_
 _symmetry_equiv_pos_site_id
 _symmetry_equiv_pos_as_xyz
  1  'x, y, z'
loop_
 _atom_site_type_symbol
 _atom_site_label
 _atom_site_symmetry_multiplicity
 _atom_site_fract_x
 _atom_site_fract_y
 _atom_site_fract_z
 _atom_site_occupancy
  Zr  Zr0  1  0.69310334  0.30459563  0.50521548  1
  Zr  Zr1  1  0.50149784  0.29951180  0.70183528  1
  Zr  Zr2  1  0.90718723  0.90425089  0.09145272  1
  Zr  Zr3  1  0.69936115  0.89483623  0.09221876  1
  Zr  Zr4  1  0.49838766  0.70100464  0.50477140  1
  Zr  Zr5  1  0.29796995  0.89948243  0.09199855  1
  Zr  Zr6  1  0.30818204  0.69888289  0.90114378  1
  Zr  Zr7  1  0.10703523  0.90128518  0.69647051  1
  Zr  Zr8  1  0.90227889  0.09818757  0.90362012  1
  Zr  Zr9  1  0.10016170  0.50013874  0.89360833  1
  Zr  Zr10  1  0.50494743  0.49589470  0.29234118  1
  Zr  Zr11  1  0.90072353  0.50100978  0.51008988  1
  Zr  Zr12  1  0.70583296  0.90646141  0.49552747  1
  Zr  Zr13  1  0.89668052  0.50034132  0.69780647  1
  Zr  Zr14  1  0.70062142  0.49728266  0.10447505  1
  Zr  Zr15  1  0.91017276  0.89866735  0.70269675  1
  Zr  Zr16  1  0.09463812  0.29149909  0.30680407  1
  Zr  Zr17  1  0.49948733  0.10012367  0.89462207  1
  Zr  Zr18  1  0.70067859  0.10782138  0.90126219  1
  Zr  Zr19  1  0.29099921  0.29733918  0.69523371  1
  Zr  Zr20  1  0.09973453  0.30109832  0.89296300  1
  Zr  Zr21  1  0.50542419  0.49149960  0.49886171  1
  Zr  Zr22  1  0.70284231  0.70050860  0.50545614  1
  Zr  Zr23  1  0.29867189  0.09670234  0.89966427  1
  Zr  Zr24  1  0.70123584  0.30426363  0.70974094  1
  Zr  Zr25  1  0.30358695  0.69840353  0.29770425  1
  Zr  Zr26  1  0.49856487  0.89741657  0.09348900  1
  Zr  Zr27  1  0.30136590  0.50602170  0.89436161  1
  Zr  Zr28  1  0.50370812  0.89994618  0.70982388  1
  Zr  Zr29  1  0.09276280  0.69712496  0.89877680  1
  Zr  Zr30  1  0.70259948  0.30772878  0.28930982  1
  Zr  Zr31  1  0.50205392  0.10413125  0.49746974  1
  Zr  Zr32  1  0.29604800  0.10249987  0.10112540  1
  Zr  Zr33  1  0.10673215  0.09560888  0.69361902  1
  Zr  Zr34  1  0.30659192  0.49426320  0.29970569  1
  Zr  Zr35  1  0.10250875  0.49659072  0.69800026  1
  Zr  Zr36  1  0.29693213  0.89250388  0.30541320  1
  Zr  Zr37  1  0.70346514  0.10553357  0.49982475  1
  Zr  Zr38  1  0.29408492  0.49750185  0.50355502  1
  Zr  Zr39  1  0.90047837  0.69706038  0.70628529  1
  Zr  Zr40  1  0.09625423  0.09024648  0.10796035  1
  Zr  Zr41  1  0.70503640  0.89447063  0.29725607  1
  Zr  Zr42  1  0.70734857  0.10701286  0.30163561  1
  Zr  Zr43  1  0.69511644  0.90107584  0.89820140  1
  Zr  Zr44  1  0.90443051  0.69643666  0.51106551  1
  Zr  Zr45  1  0.90293243  0.90481013  0.49971054  1
  Zr  Zr46  1  0.90767496  0.10420974  0.29641422  1
  Zr  Zr47  1  0.90021875  0.51286290  0.90289314  1
  Zr  Zr48  1  0.29729706  0.29896157  0.89752085  1
  Zr  Zr49  1  0.90176010  0.30551817  0.50880131  1
  Sc  Sc50  1  0.49602735  0.89502889  0.90096216  1
  Sc  Sc51  1  0.89971664  0.90704805  0.30303450  1
  Sc  Sc52  1  0.49928746  0.90150608  0.30736469  1
  Sc  Sc53  1  0.90557149  0.49239505  0.29390318  1
  Sc  Sc54  1  0.30134184  0.69718908  0.70987147  1
  Sc  Sc55  1  0.09491197  0.29899532  0.69755668  1
  Sc  Sc56  1  0.69362897  0.70570072  0.70407847  1
  Sc  Sc57  1  0.09820478  0.89827216  0.90181515  1
  Sc  Sc58  1  0.89592646  0.09743086  0.49749448  1
  Sc  Sc59  1  0.89471677  0.70252059  0.29291304  1
  Sc  Sc60  1  0.29080923  0.50675822  0.70210510  1
  Sc  Sc61  1  0.70889893  0.69961123  0.90843686  1
  Sc  Sc62  1  0.90299712  0.29952801  0.29346660  1
  Sc  Sc63  1  0.49760776  0.70444711  0.70517212  1
  Sc  Sc64  1  0.69833033  0.89967891  0.71010854  1
  Sc  Sc65  1  0.29538384  0.70606296  0.49644588  1
  Sc  Sc66  1  0.89983879  0.50211621  0.10094145  1
  Sc  Sc67  1  0.10182616  0.29488851  0.10939076  1
  Sc  Sc68  1  0.09416945  0.70336983  0.69874233  1
  Sc  Sc69  1  0.10389577  0.71363594  0.28686463  1
  Sc  Sc70  1  0.50038071  0.50662979  0.69674834  1
  Sc  Sc71  1  0.70158189  0.69804837  0.10353957  1
  Sc  Sc72  1  0.50466368  0.49761845  0.10148255  1
  Sc  Sc73  1  0.29384669  0.29574938  0.49154405  1
  Sc  Sc74  1  0.30094954  0.89475427  0.89884031  1
  Sc  Sc75  1  0.30327134  0.29366811  0.29730934  1
  Sc  Sc76  1  0.09333593  0.48270949  0.29486270  1
  Sc  Sc77  1  0.49965316  0.50185616  0.91171383  1
  Sc  Sc78  1  0.10025565  0.10096310  0.90065517  1
  Sc  Sc79  1  0.49611168  0.90602310  0.49509394  1
  Sc  Sc80  1  0.30049364  0.10199918  0.50388213  1
  Sc  Sc81  1  0.89446459  0.29361991  0.89802474  1
  Sc  Sc82  1  0.70318298  0.49196764  0.91017397  1
  Sc  Sc83  1  0.49650056  0.09864336  0.09140393  1
  Sc  Sc84  1  0.90199090  0.10828540  0.09521636  1
  Sc  Sc85  1  0.10216500  0.30162684  0.50228732  1
  Sc  Sc86  1  0.50515450  0.68953645  0.09789367  1
  Sc  Sc87  1  0.49296218  0.30510037  0.30212408  1
  Sc  Sc88  1  0.49303838  0.10497224  0.70518991  1
  Sc  Sc89  1  0.51035226  0.29889248  0.89758766  1
  Sc  Sc90  1  0.90079955  0.10168458  0.69770818  1
  Sc  Sc91  1  0.89859839  0.89783984  0.90011314  1
  Sc  Sc92  1  0.29934470  0.09802148  0.70038004  1
  Sc  Sc93  1  0.08950729  0.70628305  0.09750788  1
  Sc  Sc94  1  0.30536920  0.70068107  0.09809122  1
  Sc  Sc95  1  0.49258303  0.10779745  0.30563151  1
  Sc  Sc96  1  0.31665160  0.49623121  0.10120691  1
  Sc  Sc97  1  0.89914841  0.69871180  0.09102719  1
  Sc  Sc98  1  0.70959012  0.30299835  0.09212329  1
  Sc  Sc99  1  0.49928987  0.29832427  0.49508908  1
  Nb  Nb100  1  0.89803919  0.30237800  0.09966484  1
  Nb  Nb101  1  0.09544057  0.70028414  0.49967991  1
  Nb  Nb102  1  0.09878911  0.89688244  0.10979893  1
  Nb  Nb103  1  0.09826822  0.49767810  0.09862182  1
  Nb  Nb104  1  0.69468642  0.09927134  0.70242050  1
  Nb  Nb105  1  0.70030007  0.50000809  0.50345803  1
  Nb  Nb106  1  0.29606857  0.90403383  0.69422517  1
  Nb  Nb107  1  0.09627750  0.09489246  0.30443830  1
  Nb  Nb108  1  0.70004846  0.49780492  0.69480150  1
  Nb  Nb109  1  0.10493076  0.89789865  0.50217784  1
  Nb  Nb110  1  0.09661642  0.90590810  0.29550678  1
  Nb  Nb111  1  0.90027057  0.30737905  0.69452972  1
  Nb  Nb112  1  0.50049158  0.69643739  0.29990564  1
  Nb  Nb113  1  0.09783248  0.50182480  0.49863787  1
  Nb  Nb114  1  0.10251416  0.09858795  0.49142711  1
  Nb  Nb115  1  0.69630775  0.69622526  0.29850944  1
  Nb  Nb116  1  0.90575797  0.69953388  0.90259655  1
  Nb  Nb117  1  0.70356640  0.29846260  0.89909112  1
  Nb  Nb118  1  0.30529324  0.29762132  0.10111427  1
  Nb  Nb119  1  0.69874651  0.10126722  0.09924126  1
  Nb  Nb120  1  0.29505777  0.10137233  0.30056685  1
  Nb  Nb121  1  0.69821979  0.49880431  0.29916240  1
  Nb  Nb122  1  0.29613258  0.89996110  0.50206059  1
  Nb  Nb123  1  0.49108921  0.29733385  0.10612936  1
  Nb  Nb124  1  0.49621003  0.69479689  0.89620191  1
  Nb  Nb125  1  0.59965272  0.19836995  0.19309806  1
  Nb  Nb126  1  0.00667710  0.80102340  0.40345864  1
  Nb  Nb127  1  0.19802314  0.59337878  0.19600974  1
  Nb  Nb128  1  0.40389961  0.80282398  0.20226036  1
  Nb  Nb129  1  0.19273963  0.59882108  0.39485730  1
  Nb  Nb130  1  0.00399013  0.60367455  0.40039844  1
  Nb  Nb131  1  0.19519344  -0.00338965  0.39862330  1
  Nb  Nb132  1  0.39877644  0.39985774  0.79553273  1
  Nb  Nb133  1  0.80430800  0.80382979  0.60236579  1
  Nb  Nb134  1  0.79702128  0.59498767  0.39844212  1
  Nb  Nb135  1  0.39611010  0.39886793  0.60289794  1
  Nb  Nb136  1  0.00409467  0.39949396  0.00113219  1
  Nb  Nb137  1  0.79453469  0.00452359  0.19335301  1
  Nb  Nb138  1  0.39256109  0.81065726  0.60133417  1
  Nb  Nb139  1  0.60198737  0.00637308  0.60253266  1
  Nb  Nb140  1  0.39656886  0.20404945  0.00036238  1
  Nb  Nb141  1  0.39806230  -0.00170668  0.20141257  1
  Nb  Nb142  1  0.79601412  0.40736216  0.40369405  1
  Nb  Nb143  1  0.19708101  0.59333964  0.00536693  1
  Nb  Nb144  1  0.60097666  0.00453569  0.19849149  1
  Nb  Nb145  1  0.60316379  0.79161419  0.39693996  1
  Nb  Nb146  1  0.40333034  0.59827632  0.40046242  1
  Nb  Nb147  1  0.60226752  0.59797635  0.80600272  1
  Nb  Nb148  1  0.19977110  0.40188544  0.00459216  1
  Nb  Nb149  1  0.60382564  0.59889514  0.39717179  1
  Pd  Pd150  1  0.59568826  0.20803007  0.00543778  1
  Pd  Pd151  1  0.00297774  0.19400272  0.59525533  1
  Pd  Pd152  1  0.80213185  0.79847768  0.80051237  1
  Pd  Pd153  1  0.80447904  0.19738961  0.79386626  1
  Pd  Pd154  1  0.59699191  0.78828108  -0.00543701  1
  Pd  Pd155  1  0.20594092  -0.00400090  0.20596598  1
  Pd  Pd156  1  0.80785978  0.21376915  0.40083700  1
  Pd  Pd157  1  0.19822212  0.20530458  0.00328934  1
  Pd  Pd158  1  -0.01218168  0.39890937  0.80428194  1
  Pd  Pd159  1  0.59686178  0.00116153  -0.00210710  1
  Pd  Pd160  1  0.80767093  0.80548410  0.19157464  1
  Pd  Pd161  1  0.20647447  0.40037915  0.19581018  1
  Pd  Pd162  1  0.59885362  0.20973429  0.38873608  1
  Pd  Pd163  1  -0.00263942  0.19748280  0.79302437  1
  Pd  Pd164  1  0.78794411  0.59827076  0.79988763  1
  Pd  Pd165  1  0.39956135  0.39374911  -0.00628833  1
  Pd  Pd166  1  0.00377298  0.20738037  0.00419955  1
  Pd  Pd167  1  0.79975976  0.00272615  0.00195631  1
  Pd  Pd168  1  0.79464209  -0.00422220  0.61100368  1
  Pd  Pd169  1  0.80509335  0.40379818  0.80656943  1
  Pd  Pd170  1  0.79867479  0.20431188  0.60773389  1
  Pd  Pd171  1  0.00320918  0.00523881  0.59525833  1
  Pd  Pd172  1  0.59899059  0.81515616  0.59430804  1
  Pd  Pd173  1  0.80262909  0.59690992  0.20129028  1
  Pd  Pd174  1  0.38948418  0.00601544  0.39725936  1
  Pd  Pd175  1  0.59215387  0.80341897  0.20376887  1
  Pd  Pd176  1  -0.01063908  0.80461218  0.20452622  1
  Pd  Pd177  1  0.80544508  0.79035987  0.40473333  1
  Pd  Pd178  1  0.59932692  0.19756104  0.60669373  1
  Pd  Pd179  1  -0.00664461  0.20264334  0.40937481  1
  Pd  Pd180  1  0.19635993  0.20033894  0.20554031  1
  Pd  Pd181  1  0.59975895  0.39193989  0.00581288  1
  Pd  Pd182  1  0.19701198  0.19519090  0.79537924  1
  Pd  Pd183  1  0.80126781  0.00278445  0.79852322  1
  Pd  Pd184  1  0.60306339  0.60023035  0.60600269  1
  Pd  Pd185  1  0.20467600  0.79092465  0.60489240  1
  Pd  Pd186  1  0.19308455  -0.00395503  -0.00393791  1
  Pd  Pd187  1  0.60293241  -0.00164493  0.39699588  1
  Pd  Pd188  1  0.00524340  0.00136989  0.80411169  1
  Pd  Pd189  1  0.39315027  0.60241425  0.59779622  1
  Pd  Pd190  1  0.19143054  0.79807346  0.39864392  1
  Pd  Pd191  1  0.39726211  0.20665178  0.59564195  1
  Pd  Pd192  1  0.00687011  0.60173629  0.20605786  1
  Pd  Pd193  1  0.19834195  0.60948844  0.59688527  1
  Pd  Pd194  1  0.19767835  0.40031841  0.39657250  1
  Pd  Pd195  1  0.19458463  0.79183245  0.00270613  1
  Pd  Pd196  1  0.39375330  -0.00645996  0.80098744  1
  Pd  Pd197  1  0.59426631  0.41235850  0.80282780  1
  Pd  Pd198  1  0.20005262  0.79868928  0.80036283  1
  Pd  Pd199  1  0.40636604  -0.00184764  0.60271174  1
  Rh  Rh200  1  0.00146158  0.59940945  0.79271759  1
  Rh  Rh201  1  0.20097799  0.00422264  0.59034531  1
  Rh  Rh202  1  0.00913534  0.59515064  0.60435892  1
  Rh  Rh203  1  0.79929849  0.59978308  0.00579198  1
  Rh  Rh204  1  0.39846247  0.60119831  0.00469218  1
  Rh  Rh205  1  0.39744361  0.00659512  -0.00082224  1
  Rh  Rh206  1  0.00081841  0.80148304  0.80450000  1
  Rh  Rh207  1  0.80340686  0.00715805  0.38998665  1
  Rh  Rh208  1  0.19585838  0.19629506  0.59598386  1
  Rh  Rh209  1  0.60023175  0.00644141  0.79902466  1
  Rh  Rh210  1  0.19391762  0.60923677  0.80440270  1
  Rh  Rh211  1  0.40062388  0.39608373  0.20114740  1
  Rh  Rh212  1  -0.00320442  0.39119661  0.18967572  1
  Rh  Rh213  1  0.60370037  0.60076886  -0.00506211  1
  Rh  Rh214  1  0.39955237  0.60381979  0.20077815  1
  Rh  Rh215  1  0.59597772  0.39852666  0.60598267  1
  Rh  Rh216  1  0.81122383  0.39767036  -0.00354643  1
  Rh  Rh217  1  0.19991768  0.39717148  0.59817705  1
  Rh  Rh218  1  0.60045242  0.78859689  0.81304927  1
  Rh  Rh219  1  -0.00810000  0.40362165  0.40704113  1
  Rh  Rh220  1  0.79106299  0.60631846  0.60882806  1
  Rh  Rh221  1  -0.00933600  -0.00043392  0.19742429  1
  Rh  Rh222  1  0.00729872  -0.00535161  0.40396402  1
  Rh  Rh223  1  0.00306648  0.59549192  0.00295503  1
  Rh  Rh224  1  0.20079603  -0.00307166  0.80201313  1
  Rh  Rh225  1  0.39862154  0.20670804  0.80763353  1
  Rh  Rh226  1  0.40928654  0.79486291  0.40504155  1
  Rh  Rh227  1  0.60485955  0.19892379  0.79935000  1
  Rh  Rh228  1  0.60674308  0.39992855  0.39661659  1
  Rh  Rh229  1  0.39570469  0.40205198  0.40845956  1
  Rh  Rh230  1  0.40679236  0.79157675  0.00372410  1
  Rh  Rh231  1  0.80463213  0.79797432  -0.00210559  1
  Rh  Rh232  1  0.20692660  0.39907091  0.79934594  1
  Rh  Rh233  1  -0.00182592  0.80550520  0.59687239  1
  Rh  Rh234  1  0.40394151  0.19092908  0.19620800  1
  Rh  Rh235  1  0.20643894  0.79707859  0.18896917  1
  Rh  Rh236  1  0.39501491  0.19937839  0.40182370  1
  Rh  Rh237  1  0.19984039  0.19265396  0.39708521  1
  Rh  Rh238  1  0.39754170  0.80366090  0.79419780  1
  Rh  Rh239  1  0.79343556  0.39655774  0.60103817  1
  Rh  Rh240  1  0.59739178  0.39027704  0.19136411  1
  Rh  Rh241  1  0.80592859  0.40384949  0.20160544  1
  Rh  Rh242  1  0.79861547  0.19824724  0.18983258  1
  Rh  Rh243  1  0.41125434  0.59178200  0.79885144  1
  Rh  Rh244  1  0.00038907  0.80483776  -0.00251462  1
  Rh  Rh245  1  0.79980173  0.20190338  -0.00128713  1
  Rh  Rh246  1  0.60348206  0.59746034  0.19936809  1
  Rh  Rh247  1  0.00672600  -0.00026594  -0.00052409  1
  Rh  Rh248  1  0.00818905  0.40079504  0.60125523  1
  Rh  Rh249  1  0.00301111  0.19988107  0.19686017  1
