# generated using pymatgen
data_ZrScNbPdRh
_symmetry_space_group_name_H-M   'P 1'
_cell_length_a   16.56042624
_cell_length_b   16.55742652
_cell_length_c   16.55649443
_cell_angle_alpha   90.01440482
_cell_angle_beta   89.98619645
_cell_angle_gamma   89.98888545
_symmetry_Int_Tables_number   1
_chemical_formula_structural   ZrScNbPdRh
_chemical_formula_sum   'Zr50 Sc50 Nb50 Pd50 Rh50'
_cell_volume   4539.75797060
_cell_formula_units_Z   50
loop_
 _symmetry_equiv_pos_site_id
 _symmetry_equiv_pos_as_xyz
  1  'x, y, z'
loop_
 _atom_site_type_symbol
 _atom_site_label
 _atom_site_symmetry_multiplicity
 _atom_site_fract_x
 _atom_site_fract_y
 _atom_site_fract_z
 _atom_site_occupancy
  Zr  Zr0  1  0.90489453  0.49928591  0.69647303  1
  Zr  Zr1  1  0.70620596  0.50174034  0.69862770  1
  Zr  Zr2  1  0.28019802  0.10334120  0.10167618  1
  Zr  Zr3  1  0.50993923  0.50490663  0.29650080  1
  Zr  Zr4  1  0.50085395  0.70284930  0.09010447  1
  Zr  Zr5  1  0.69982620  0.28405559  0.49814185  1
  Zr  Zr6  1  0.70563112  0.90094550  0.70523764  1
  Zr  Zr7  1  0.29285395  0.90348959  0.50191563  1
  Zr  Zr8  1  0.10122562  0.70124369  0.70163789  1
  Zr  Zr9  1  0.50224077  0.09685357  0.10688249  1
  Zr  Zr10  1  0.89799856  0.90083691  0.09483138  1
  Zr  Zr11  1  0.90443618  0.09849350  0.09681899  1
  Zr  Zr12  1  0.09548280  0.49900513  0.89897530  1
  Zr  Zr13  1  0.89829572  0.49597439  0.09909908  1
  Zr  Zr14  1  0.49734971  0.51292942  0.90368701  1
  Zr  Zr15  1  0.70200272  0.50046143  0.29402356  1
  Zr  Zr16  1  0.49740367  0.89919941  0.10469490  1
  Zr  Zr17  1  0.70718146  0.29718284  0.69777666  1
  Zr  Zr18  1  0.69857921  0.69695831  0.90697787  1
  Zr  Zr19  1  0.49925489  0.89611390  0.90763788  1
  Zr  Zr20  1  0.30857065  0.10297887  0.70153173  1
  Zr  Zr21  1  0.90158744  0.70313504  0.90217221  1
  Zr  Zr22  1  0.10428076  0.10115813  0.28361403  1
  Zr  Zr23  1  0.89538814  0.31175998  0.29880313  1
  Zr  Zr24  1  0.89609617  0.29959758  0.49933454  1
  Zr  Zr25  1  0.70102651  0.09818435  0.50102326  1
  Zr  Zr26  1  0.70472333  0.30116174  0.10486410  1
  Zr  Zr27  1  0.49590580  0.28637452  0.69434720  1
  Zr  Zr28  1  0.31066705  0.29976185  0.50699788  1
  Zr  Zr29  1  0.10149828  0.09289971  0.50516581  1
  Zr  Zr30  1  0.90784650  0.50165457  0.49968104  1
  Zr  Zr31  1  0.50167443  0.10852808  0.49589972  1
  Zr  Zr32  1  0.09777021  0.09156443  0.89687102  1
  Zr  Zr33  1  0.70002526  0.89558836  0.29952394  1
  Zr  Zr34  1  0.10251760  0.28033457  0.10716395  1
  Zr  Zr35  1  0.89828540  0.29732165  0.10117687  1
  Zr  Zr36  1  0.69655501  0.08911039  0.89551132  1
  Zr  Zr37  1  0.09669198  0.50757465  0.50298153  1
  Zr  Zr38  1  0.09649520  0.10844495  0.71057120  1
  Zr  Zr39  1  0.28786077  0.50315922  0.30144039  1
  Zr  Zr40  1  0.89611193  0.70172207  0.09890450  1
  Zr  Zr41  1  0.29300694  0.49755346  0.49908167  1
  Zr  Zr42  1  0.09460408  0.50080067  0.30764174  1
  Zr  Zr43  1  0.29407046  0.70533495  0.29222283  1
  Zr  Zr44  1  0.09783062  0.90126893  0.29660802  1
  Zr  Zr45  1  0.70184181  0.69657260  0.29466913  1
  Zr  Zr46  1  0.10413587  0.70352743  0.90461093  1
  Zr  Zr47  1  0.90781278  0.09661623  0.70056583  1
  Zr  Zr48  1  0.70221240  0.90201308  0.89897433  1
  Zr  Zr49  1  0.70122950  0.09548659  0.09668223  1
  Sc  Sc50  1  0.09776263  0.89974626  0.69800269  1
  Sc  Sc51  1  0.09237417  0.70476062  0.50555883  1
  Sc  Sc52  1  0.90530641  0.09346740  0.90138308  1
  Sc  Sc53  1  0.69569983  0.50775691  0.10630805  1
  Sc  Sc54  1  0.90415828  0.09670868  0.29181619  1
  Sc  Sc55  1  0.89447060  0.09778666  0.50768795  1
  Sc  Sc56  1  0.30106750  0.09447312  0.49894053  1
  Sc  Sc57  1  0.29504175  0.71042939  0.50352051  1
  Sc  Sc58  1  0.28979767  0.09652914  0.89325309  1
  Sc  Sc59  1  0.09162188  0.09025082  0.09480069  1
  Sc  Sc60  1  0.69145308  0.09958087  0.30324330  1
  Sc  Sc61  1  0.69962876  0.51214215  0.50439759  1
  Sc  Sc62  1  0.90431165  0.30262523  0.69578705  1
  Sc  Sc63  1  0.71277861  0.89909540  0.50197275  1
  Sc  Sc64  1  0.71092803  0.30242921  0.90046887  1
  Sc  Sc65  1  0.29399067  0.70368129  0.09822128  1
  Sc  Sc66  1  0.09621397  0.31543850  0.49702180  1
  Sc  Sc67  1  0.49935331  0.29099640  0.29273702  1
  Sc  Sc68  1  0.70577790  0.70030574  0.69359901  1
  Sc  Sc69  1  0.29739673  0.70955846  0.69968622  1
  Sc  Sc70  1  0.69785829  0.69897032  0.50439370  1
  Sc  Sc71  1  0.70437766  0.49846681  0.90397818  1
  Sc  Sc72  1  0.49291283  0.29438554  0.89157946  1
  Sc  Sc73  1  0.49166494  0.30611192  0.10689243  1
  Sc  Sc74  1  0.69218190  0.89792965  0.08921841  1
  Sc  Sc75  1  0.30343801  0.29922959  0.30033869  1
  Sc  Sc76  1  0.50753323  0.50846968  0.50332451  1
  Sc  Sc77  1  0.89810641  0.89341709  0.30288671  1
  Sc  Sc78  1  0.29650430  0.89173831  0.10217360  1
  Sc  Sc79  1  0.50630145  0.70465590  0.50115588  1
  Sc  Sc80  1  0.69960218  0.09578658  0.70020222  1
  Sc  Sc81  1  0.49047691  0.89660035  0.69968783  1
  Sc  Sc82  1  0.50603617  0.71289483  0.30321464  1
  Sc  Sc83  1  0.10210082  0.90288924  0.09719587  1
  Sc  Sc84  1  0.49588485  0.50181404  0.70209050  1
  Sc  Sc85  1  0.30229587  0.09368494  0.30275342  1
  Sc  Sc86  1  0.90483721  0.70813515  0.29358632  1
  Sc  Sc87  1  0.89558712  0.89547375  0.89653742  1
  Sc  Sc88  1  0.49957897  0.09609585  0.88732603  1
  Sc  Sc89  1  0.29970646  0.89612507  0.69741358  1
  Sc  Sc90  1  0.30587397  0.90118876  0.29714411  1
  Sc  Sc91  1  0.30337997  0.49034674  0.08751618  1
  Sc  Sc92  1  0.50212503  0.50022407  0.10169726  1
  Sc  Sc93  1  0.50064596  0.69845848  0.69650397  1
  Sc  Sc94  1  0.90212862  0.70925765  0.69951829  1
  Sc  Sc95  1  0.89947486  0.31188859  0.90561902  1
  Sc  Sc96  1  0.31138625  0.30321816  0.71149269  1
  Sc  Sc97  1  0.09988474  0.29779007  0.89404785  1
  Sc  Sc98  1  0.90342810  0.70579019  0.50650660  1
  Sc  Sc99  1  0.09902789  0.50904759  0.10145613  1
  Nb  Nb100  1  0.49961277  0.70074397  0.90144459  1
  Nb  Nb101  1  0.70240435  0.69979656  0.10298825  1
  Nb  Nb102  1  0.30221469  0.31238774  0.91377228  1
  Nb  Nb103  1  0.50032366  0.30132893  0.50264686  1
  Nb  Nb104  1  0.70219255  0.30633782  0.30096847  1
  Nb  Nb105  1  0.11179669  0.89889415  0.90115614  1
  Nb  Nb106  1  0.90914031  0.89964790  0.50419420  1
  Nb  Nb107  1  0.89199417  0.90024521  0.69135326  1
  Nb  Nb108  1  0.09779959  0.90105483  0.49804498  1
  Nb  Nb109  1  0.10216025  0.49954174  0.70053525  1
  Nb  Nb110  1  0.10512705  0.69877627  0.28968003  1
  Nb  Nb111  1  0.09971887  0.30181983  0.30262129  1
  Nb  Nb112  1  0.30040286  0.49691859  0.89581326  1
  Nb  Nb113  1  0.50255444  0.09856621  0.70173101  1
  Nb  Nb114  1  0.30113861  0.49969801  0.70180812  1
  Nb  Nb115  1  0.89781265  0.50088397  0.30036428  1
  Nb  Nb116  1  0.29907765  0.30051465  0.09458821  1
  Nb  Nb117  1  0.30341927  0.70226565  0.90194057  1
  Nb  Nb118  1  0.10462187  0.70009492  0.11035075  1
  Nb  Nb119  1  0.09983301  0.30130451  0.69973983  1
  Nb  Nb120  1  0.89971822  0.50011079  0.89995722  1
  Nb  Nb121  1  0.50148267  0.08299523  0.29659330  1
  Nb  Nb122  1  0.29392527  0.88895432  0.90393514  1
  Nb  Nb123  1  0.49449954  0.89719521  0.49943887  1
  Nb  Nb124  1  0.50041646  0.90856312  0.29850581  1
  Nb  Nb125  1  0.19749139  0.39431457  0.19893824  1
  Nb  Nb126  1  0.00271783  0.00014404  0.40341984  1
  Nb  Nb127  1  0.00481924  0.19896791  0.39708328  1
  Nb  Nb128  1  0.60096624  0.39330857  0.40248773  1
  Nb  Nb129  1  0.79621365  -0.00359964  0.19613393  1
  Nb  Nb130  1  0.19081318  0.80404050  0.39577917  1
  Nb  Nb131  1  0.59196553  -0.00083936  0.59839350  1
  Nb  Nb132  1  0.20637909  0.59377839  0.80340995  1
  Nb  Nb133  1  0.20013140  0.40138240  0.61092917  1
  Nb  Nb134  1  0.80855712  0.59739174  0.80335690  1
  Nb  Nb135  1  0.40926171  0.40494088  0.40235024  1
  Nb  Nb136  1  0.19382250  0.20128818  0.40337318  1
  Nb  Nb137  1  0.80674837  0.59912819  0.39410578  1
  Nb  Nb138  1  0.60116198  0.39915398  0.79819358  1
  Nb  Nb139  1  0.19792024  0.20755470  0.60273035  1
  Nb  Nb140  1  0.39793928  0.60047265  0.39882538  1
  Nb  Nb141  1  0.59760277  0.39489954  -0.00439475  1
  Nb  Nb142  1  0.59845767  0.79581751  0.80628257  1
  Nb  Nb143  1  0.39286507  0.00145322  -0.00033675  1
  Nb  Nb144  1  0.59812300  0.39290071  0.59899195  1
  Nb  Nb145  1  0.39800153  0.60313558  0.20414305  1
  Nb  Nb146  1  0.59637559  0.20236431  0.00066504  1
  Nb  Nb147  1  0.39227658  0.59776619  0.59671149  1
  Nb  Nb148  1  0.80549800  0.19736687  0.79915636  1
  Nb  Nb149  1  0.39480529  0.19809227  0.00170945  1
  Pd  Pd150  1  0.79071962  0.40950229  0.40955102  1
  Pd  Pd151  1  0.20597400  0.60023909  -0.00194565  1
  Pd  Pd152  1  0.00065953  0.80812815  0.79855129  1
  Pd  Pd153  1  0.38886310  0.00184851  0.19126474  1
  Pd  Pd154  1  0.18608705  0.39824343  0.00816133  1
  Pd  Pd155  1  0.20352363  -0.00867630  0.79250931  1
  Pd  Pd156  1  0.59431612  0.20224036  0.38889081  1
  Pd  Pd157  1  0.39225327  0.61020134  0.79307081  1
  Pd  Pd158  1  0.20302684  0.60095003  0.60677580  1
  Pd  Pd159  1  0.00104708  0.60182851  0.79728307  1
  Pd  Pd160  1  0.39284279  0.19150894  0.19798964  1
  Pd  Pd161  1  0.79958973  0.19184406  0.20802564  1
  Pd  Pd162  1  0.00900723  0.39510904  0.00719951  1
  Pd  Pd163  1  0.79770512  0.19384417  -0.01014858  1
  Pd  Pd164  1  -0.00266600  -0.01565717  0.80242946  1
  Pd  Pd165  1  -0.00309605  0.39609959  0.79846549  1
  Pd  Pd166  1  0.40368684  0.79539702  0.79999861  1
  Pd  Pd167  1  -0.00553199  0.61447084  0.39564388  1
  Pd  Pd168  1  0.40898100  0.40242319  0.80389817  1
  Pd  Pd169  1  0.00552202  0.20578255  0.59208844  1
  Pd  Pd170  1  0.00042015  0.20189668  -0.00946260  1
  Pd  Pd171  1  0.00846558  0.39967671  0.19549510  1
  Pd  Pd172  1  0.60015724  -0.00989056  0.40958873  1
  Pd  Pd173  1  0.20155846  0.39973480  0.79841710  1
  Pd  Pd174  1  0.39134645  0.40854822  0.20737630  1
  Pd  Pd175  1  0.60913748  0.60110968  0.79564355  1
  Pd  Pd176  1  0.39559756  -0.00632140  0.80634655  1
  Pd  Pd177  1  0.80972460  0.00269980  0.39353381  1
  Pd  Pd178  1  0.19780385  0.00461404  0.61331623  1
  Pd  Pd179  1  0.60014203  0.80925768  0.60698705  1
  Pd  Pd180  1  0.60474907  0.80688556  0.40635933  1
  Pd  Pd181  1  0.19822633  0.61624272  0.40591875  1
  Pd  Pd182  1  0.40566017  0.00272056  0.59720644  1
  Pd  Pd183  1  0.20771477  0.21062247  0.80161074  1
  Pd  Pd184  1  0.39182196  0.60191647  0.00699603  1
  Pd  Pd185  1  0.19939978  0.19895505  -0.01311614  1
  Pd  Pd186  1  0.60007380  0.80058181  0.19697995  1
  Pd  Pd187  1  0.39921230  0.20058389  0.39345785  1
  Pd  Pd188  1  -0.00520413  0.59985106  0.20203889  1
  Pd  Pd189  1  0.40166871  -0.00304932  0.40346286  1
  Pd  Pd190  1  0.60965770  0.20619032  0.80533006  1
  Pd  Pd191  1  0.00181995  0.80408587  0.19203239  1
  Pd  Pd192  1  0.80962277  0.19146119  0.38911373  1
  Pd  Pd193  1  0.00709867  0.80273838  0.00355108  1
  Pd  Pd194  1  0.79364094  0.40093265  0.58948552  1
  Pd  Pd195  1  0.79930303  0.59600763  -0.00031532  1
  Pd  Pd196  1  0.00008328  0.60331604  0.00423928  1
  Pd  Pd197  1  0.60177572  0.20155810  0.19928874  1
  Pd  Pd198  1  0.39418636  0.79914228  0.40023616  1
  Pd  Pd199  1  0.80233535  0.79011636  0.40666406  1
  Rh  Rh200  1  -0.01097479  -0.00954767  0.20331409  1
  Rh  Rh201  1  0.38986861  0.19829959  0.81246826  1
  Rh  Rh202  1  -0.00509458  0.39757691  0.39951161  1
  Rh  Rh203  1  0.59887784  0.19320249  0.60336625  1
  Rh  Rh204  1  0.40698978  0.79527822  0.20067689  1
  Rh  Rh205  1  0.19659845  0.79745230  0.00373581  1
  Rh  Rh206  1  0.80175385  0.40250586  0.80034195  1
  Rh  Rh207  1  -0.00991728  0.20852042  0.80452566  1
  Rh  Rh208  1  0.39440126  0.80283578  0.00033942  1
  Rh  Rh209  1  0.79355996  0.40746985  0.00709606  1
  Rh  Rh210  1  0.20995303  0.20762044  0.21225440  1
  Rh  Rh211  1  0.40229921  0.41222838  0.59530076  1
  Rh  Rh212  1  0.79348355  0.79011762  0.80086294  1
  Rh  Rh213  1  -0.00012652  -0.00496978  0.60016358  1
  Rh  Rh214  1  0.80406631  -0.00088772  0.00130219  1
  Rh  Rh215  1  0.41251936  0.39643378  -0.00580799  1
  Rh  Rh216  1  -0.00100516  0.60371366  0.60738611  1
  Rh  Rh217  1  0.00114450  0.80609075  0.60635548  1
  Rh  Rh218  1  0.39696233  0.19067158  0.59788905  1
  Rh  Rh219  1  0.60831614  -0.00617232  0.20311613  1
  Rh  Rh220  1  0.00336169  -0.00957383  -0.00952438  1
  Rh  Rh221  1  0.00726559  0.40056763  0.60165620  1
  Rh  Rh222  1  0.59273247  0.59647679  0.60784135  1
  Rh  Rh223  1  0.20388262  -0.00636161  -0.00190323  1
  Rh  Rh224  1  0.80492111  0.19212011  0.61055347  1
  Rh  Rh225  1  0.00577588  0.80290881  0.40008664  1
  Rh  Rh226  1  0.60436223  0.39237103  0.19958932  1
  Rh  Rh227  1  0.58976086  0.61391575  0.19564901  1
  Rh  Rh228  1  0.20659090  0.58985164  0.18838392  1
  Rh  Rh229  1  0.79857395  0.40525258  0.19449320  1
  Rh  Rh230  1  0.19422851  0.80531830  0.59460491  1
  Rh  Rh231  1  0.60359613  0.79631947  -0.00350217  1
  Rh  Rh232  1  0.19336762  -0.00057916  0.39294737  1
  Rh  Rh233  1  0.79500723  0.80680373  0.19155685  1
  Rh  Rh234  1  0.80899160  0.00636315  0.79866668  1
  Rh  Rh235  1  0.60723222  0.60051320  0.39698643  1
  Rh  Rh236  1  0.79534250  0.79942377  0.00182291  1
  Rh  Rh237  1  0.59162073  -0.01404667  0.78822625  1
  Rh  Rh238  1  0.58614749  0.00792155  -0.00217442  1
  Rh  Rh239  1  0.19499241  0.80640145  0.20160668  1
  Rh  Rh240  1  0.80893369  0.60171783  0.20297398  1
  Rh  Rh241  1  0.79672904  0.00001309  0.60131562  1
  Rh  Rh242  1  0.20325017  -0.00606844  0.19832797  1
  Rh  Rh243  1  0.20094777  0.79659888  0.80279696  1
  Rh  Rh244  1  0.20735045  0.38839179  0.39979890  1
  Rh  Rh245  1  0.81056812  0.60587948  0.59951570  1
  Rh  Rh246  1  0.40111445  0.79353618  0.59484410  1
  Rh  Rh247  1  0.60112998  0.59523163  0.00522694  1
  Rh  Rh248  1  -0.01093857  0.20715928  0.20725742  1
  Rh  Rh249  1  0.80182119  0.80085378  0.59586674  1
