# generated using pymatgen
data_ZrScNbPdRh
_symmetry_space_group_name_H-M   'P 1'
_cell_length_a   16.55325528
_cell_length_b   16.54922011
_cell_length_c   16.55288565
_cell_angle_alpha   90.03924573
_cell_angle_beta   89.98546147
_cell_angle_gamma   89.97883307
_symmetry_Int_Tables_number   1
_chemical_formula_structural   ZrScNbPdRh
_chemical_formula_sum   'Zr50 Sc50 Nb50 Pd50 Rh50'
_cell_volume   4534.55333273
_cell_formula_units_Z   50
loop_
 _symmetry_equiv_pos_site_id
 _symmetry_equiv_pos_as_xyz
  1  'x, y, z'
loop_
 _atom_site_type_symbol
 _atom_site_label
 _atom_site_symmetry_multiplicity
 _atom_site_fract_x
 _atom_site_fract_y
 _atom_site_fract_z
 _atom_site_occupancy
  Zr  Zr0  1  0.50195708  0.70489724  0.09415737  1
  Zr  Zr1  1  0.50227260  0.91838123  0.29447961  1
  Zr  Zr2  1  0.30919605  0.90901708  0.09137615  1
  Zr  Zr3  1  0.69101269  0.09552758  0.29872208  1
  Zr  Zr4  1  0.48863193  0.30678494  0.90307670  1
  Zr  Zr5  1  0.50500033  0.50148039  0.50467758  1
  Zr  Zr6  1  0.09753498  0.50103209  0.31290398  1
  Zr  Zr7  1  0.69020538  0.08848365  0.71286981  1
  Zr  Zr8  1  0.90012530  0.10173558  0.90008610  1
  Zr  Zr9  1  0.08707204  0.69763650  0.30019364  1
  Zr  Zr10  1  0.09792226  0.69527315  0.50201995  1
  Zr  Zr11  1  0.70092072  0.50186106  0.50018850  1
  Zr  Zr12  1  0.90802507  0.10091701  0.09148365  1
  Zr  Zr13  1  0.89820308  0.89101668  0.30482153  1
  Zr  Zr14  1  0.09954700  0.50772183  0.90209203  1
  Zr  Zr15  1  0.09920610  0.70905068  0.70518814  1
  Zr  Zr16  1  0.49533790  0.69984967  0.51191996  1
  Zr  Zr17  1  0.30742206  0.69923484  0.69492949  1
  Zr  Zr18  1  0.50104258  0.30163858  0.69603629  1
  Zr  Zr19  1  0.68875240  0.50207211  0.29892613  1
  Zr  Zr20  1  0.89522252  0.90122123  0.69339403  1
  Zr  Zr21  1  0.90317352  0.50152102  0.89211027  1
  Zr  Zr22  1  0.69575512  0.70935274  0.70223698  1
  Zr  Zr23  1  0.71259114  0.70790886  0.89588528  1
  Zr  Zr24  1  0.90080958  0.90088126  0.50078860  1
  Zr  Zr25  1  0.69620542  0.29430793  0.30756480  1
  Zr  Zr26  1  0.29547229  0.30888541  0.70884962  1
  Zr  Zr27  1  0.70524430  0.89890030  0.50620428  1
  Zr  Zr28  1  0.09919207  0.49976174  0.69173710  1
  Zr  Zr29  1  0.71003322  0.30024947  0.90115753  1
  Zr  Zr30  1  0.49155138  0.30560475  0.29893220  1
  Zr  Zr31  1  0.09094528  0.30179648  0.30079235  1
  Zr  Zr32  1  0.30075672  0.69694532  0.09595419  1
  Zr  Zr33  1  0.49964704  0.10986655  0.29945179  1
  Zr  Zr34  1  0.30013157  0.90010792  0.89823958  1
  Zr  Zr35  1  0.50620734  0.49244724  0.11093479  1
  Zr  Zr36  1  0.09352039  0.10012311  0.89677404  1
  Zr  Zr37  1  0.10759653  0.10898882  0.29552204  1
  Zr  Zr38  1  0.69524461  0.68781476  0.50177360  1
  Zr  Zr39  1  0.10249908  0.09904030  0.49807052  1
  Zr  Zr40  1  0.30076390  0.69413586  0.30577781  1
  Zr  Zr41  1  0.30752677  0.90137519  0.30772106  1
  Zr  Zr42  1  0.29253701  0.10043062  0.91220500  1
  Zr  Zr43  1  0.10606334  0.09469399  0.10228478  1
  Zr  Zr44  1  0.89297338  0.29863274  0.49345605  1
  Zr  Zr45  1  0.90844212  0.49996976  0.30546119  1
  Zr  Zr46  1  0.71441578  0.69983766  0.10501628  1
  Zr  Zr47  1  0.49793845  0.08871565  0.10765996  1
  Zr  Zr48  1  0.49777353  0.10073160  0.69972664  1
  Zr  Zr49  1  0.90212068  0.09693257  0.51093514  1
  Sc  Sc50  1  0.10228306  0.49860239  0.09156098  1
  Sc  Sc51  1  0.29698124  0.09517842  0.68842860  1
  Sc  Sc52  1  0.51386959  0.90489874  0.69271909  1
  Sc  Sc53  1  0.70385651  0.90361428  0.30530797  1
  Sc  Sc54  1  0.90060862  0.89496214  0.10007658  1
  Sc  Sc55  1  0.29882974  0.29843757  0.49430343  1
  Sc  Sc56  1  0.28934789  0.50565356  0.49398808  1
  Sc  Sc57  1  0.70408570  0.50488277  0.69279114  1
  Sc  Sc58  1  0.89553338  0.50563601  0.50332838  1
  Sc  Sc59  1  0.49166288  0.29710519  0.10910846  1
  Sc  Sc60  1  0.70708797  0.30220098  0.09933968  1
  Sc  Sc61  1  0.69948753  0.30094993  0.50531642  1
  Sc  Sc62  1  0.89719087  0.70385553  0.70286178  1
  Sc  Sc63  1  0.49603645  0.69041636  0.30523744  1
  Sc  Sc64  1  0.30739094  0.70695662  0.50185871  1
  Sc  Sc65  1  0.70519648  0.69627482  0.30276718  1
  Sc  Sc66  1  0.49697791  0.51274958  0.70426306  1
  Sc  Sc67  1  0.70415461  0.89521718  0.09162435  1
  Sc  Sc68  1  0.48757227  0.49590813  0.29909210  1
  Sc  Sc69  1  0.29921445  0.29651817  0.09020855  1
  Sc  Sc70  1  0.30185802  0.69904026  0.89952320  1
  Sc  Sc71  1  0.29687751  0.49283363  0.09040092  1
  Sc  Sc72  1  0.51117340  0.09341445  0.89992134  1
  Sc  Sc73  1  0.10120747  0.89374820  0.88369873  1
  Sc  Sc74  1  0.09935105  0.30204080  0.50100042  1
  Sc  Sc75  1  0.10534241  0.29965371  0.89268901  1
  Sc  Sc76  1  0.71749534  0.50202079  0.89700852  1
  Sc  Sc77  1  0.70333490  0.10353922  0.49269671  1
  Sc  Sc78  1  0.49380389  0.09754808  0.50347385  1
  Sc  Sc79  1  0.09870977  0.30182885  0.70002644  1
  Sc  Sc80  1  0.90218055  0.50322682  0.70201798  1
  Sc  Sc81  1  0.09206725  0.90694621  0.29811074  1
  Sc  Sc82  1  0.29749679  0.09735270  0.49675140  1
  Sc  Sc83  1  0.09510295  0.89706074  0.69440214  1
  Sc  Sc84  1  0.89440612  0.70385989  0.49725728  1
  Sc  Sc85  1  0.30765890  0.90384144  0.50198157  1
  Sc  Sc86  1  0.69598569  0.29782140  0.69432449  1
  Sc  Sc87  1  0.29328948  0.89797583  0.69683783  1
  Sc  Sc88  1  0.90608907  0.30057858  0.69968354  1
  Sc  Sc89  1  0.51254683  0.70145013  0.89249525  1
  Sc  Sc90  1  0.89514335  0.89823618  0.89811694  1
  Sc  Sc91  1  0.09443164  0.29631761  0.10851772  1
  Sc  Sc92  1  0.49898563  0.29651213  0.50116628  1
  Sc  Sc93  1  0.90985965  0.09948114  0.30999016  1
  Sc  Sc94  1  0.69770934  0.90526295  0.89628690  1
  Sc  Sc95  1  0.09227493  0.10124278  0.69748207  1
  Sc  Sc96  1  0.30397994  0.48274820  0.90003390  1
  Sc  Sc97  1  0.69932701  0.09740250  0.09440580  1
  Sc  Sc98  1  0.90261683  0.29740186  0.09642626  1
  Sc  Sc99  1  0.29849326  0.10569622  0.29903120  1
  Nb  Nb100  1  0.10331319  0.89368288  0.10126972  1
  Nb  Nb101  1  0.09178944  0.89300929  0.49862028  1
  Nb  Nb102  1  0.29623141  0.49526739  0.30081329  1
  Nb  Nb103  1  0.50065746  0.90007231  0.09508934  1
  Nb  Nb104  1  0.30048258  0.50162370  0.70088163  1
  Nb  Nb105  1  0.50402719  0.49950134  0.90187970  1
  Nb  Nb106  1  0.89932995  0.30256166  0.89868162  1
  Nb  Nb107  1  0.70392279  0.89704370  0.70634857  1
  Nb  Nb108  1  0.89854277  0.70051913  0.29243596  1
  Nb  Nb109  1  0.29995146  0.30606100  0.29864144  1
  Nb  Nb110  1  0.89496303  0.49705292  0.09972840  1
  Nb  Nb111  1  0.90160728  0.69945170  0.10770961  1
  Nb  Nb112  1  0.90431071  0.30396196  0.29357242  1
  Nb  Nb113  1  0.49125416  0.89666720  0.49346924  1
  Nb  Nb114  1  0.09195082  0.50527273  0.49604427  1
  Nb  Nb115  1  0.09927724  0.69536376  0.89980535  1
  Nb  Nb116  1  0.30242493  0.29826159  0.89956531  1
  Nb  Nb117  1  0.29676817  0.10170511  0.10269904  1
  Nb  Nb118  1  0.70139063  0.10159308  0.90025181  1
  Nb  Nb119  1  0.90908624  0.69667929  0.89705280  1
  Nb  Nb120  1  0.49631676  0.89766167  0.91382929  1
  Nb  Nb121  1  0.10401724  0.69492596  0.09731132  1
  Nb  Nb122  1  0.70358508  0.49747385  0.10128474  1
  Nb  Nb123  1  0.90035201  0.10039086  0.70502134  1
  Nb  Nb124  1  0.49803454  0.70352860  0.70195906  1
  Nb  Nb125  1  0.59501016  0.80426531  0.20261393  1
  Nb  Nb126  1  0.80591215  0.19822654  0.20370450  1
  Nb  Nb127  1  0.39446446  0.19745797  0.80473509  1
  Nb  Nb128  1  0.19307979  0.79637540  0.00234996  1
  Nb  Nb129  1  0.20144879  0.79785568  0.19849501  1
  Nb  Nb130  1  0.19940375  0.40256084  0.20731413  1
  Nb  Nb131  1  0.19394111  0.80089420  0.39770227  1
  Nb  Nb132  1  0.59269952  0.80259656  0.40148665  1
  Nb  Nb133  1  0.40266674  0.80463303  0.19733339  1
  Nb  Nb134  1  0.80427926  0.00518126  0.20192525  1
  Nb  Nb135  1  0.00530630  0.78817997  0.00219572  1
  Nb  Nb136  1  0.59739295  0.40066563  0.40066655  1
  Nb  Nb137  1  0.39405534  0.40623549  0.60367177  1
  Nb  Nb138  1  0.59926782  0.40385755  0.80584193  1
  Nb  Nb139  1  0.40901760  0.80580478  0.79938245  1
  Nb  Nb140  1  0.40188242  -0.00132796  0.80261274  1
  Nb  Nb141  1  0.20153422  0.59904090  0.79697856  1
  Nb  Nb142  1  0.41234488  0.59451845  -0.00333734  1
  Nb  Nb143  1  0.60718786  0.59355937  0.00142140  1
  Nb  Nb144  1  0.60118361  0.20485517  -0.00292902  1
  Nb  Nb145  1  0.19948444  0.59798878  0.20314995  1
  Nb  Nb146  1  0.80228569  0.19493586  0.80210295  1
  Nb  Nb147  1  0.60420979  0.40261613  -0.00107666  1
  Nb  Nb148  1  -0.00732176  0.40182017  -0.00628784  1
  Nb  Nb149  1  0.80452796  0.39952498  0.20475042  1
  Pd  Pd150  1  0.60550416  0.19146847  0.59422517  1
  Pd  Pd151  1  0.40838334  0.19037782  -0.00089509  1
  Pd  Pd152  1  0.79879821  -0.00122130  0.00289665  1
  Pd  Pd153  1  -0.00605107  0.39973546  0.59427139  1
  Pd  Pd154  1  0.79436105  0.19342178  0.61173047  1
  Pd  Pd155  1  -0.00978838  0.59882306  0.00839250  1
  Pd  Pd156  1  0.00802590  -0.01676878  -0.00553602  1
  Pd  Pd157  1  -0.00593928  0.00074858  0.20010395  1
  Pd  Pd158  1  0.18997471  0.20648444  0.00359537  1
  Pd  Pd159  1  0.38881902  0.20779756  0.60487780  1
  Pd  Pd160  1  0.80507961  0.39945863  0.60528260  1
  Pd  Pd161  1  0.39412698  0.59616426  0.19211251  1
  Pd  Pd162  1  0.00174574  0.00117185  0.40175629  1
  Pd  Pd163  1  0.00770451  0.21048535  -0.00509991  1
  Pd  Pd164  1  0.00089577  0.20177878  0.40538571  1
  Pd  Pd165  1  0.59778209  0.21018602  0.80742900  1
  Pd  Pd166  1  0.61050048  0.59505672  0.80220839  1
  Pd  Pd167  1  0.60610575  0.20478637  0.18876800  1
  Pd  Pd168  1  0.20339510  0.40078218  0.59082066  1
  Pd  Pd169  1  0.60077652  0.61149526  0.19662494  1
  Pd  Pd170  1  0.60968090  0.79473691  0.00021792  1
  Pd  Pd171  1  0.80376089  0.60320517  -0.00186807  1
  Pd  Pd172  1  0.19671592  0.39522754  0.40226862  1
  Pd  Pd173  1  0.20184475  0.80386130  0.59009281  1
  Pd  Pd174  1  0.00581254  0.59025875  0.19317315  1
  Pd  Pd175  1  0.39935095  0.59360540  0.40815419  1
  Pd  Pd176  1  0.19237527  -0.00612916  0.59587242  1
  Pd  Pd177  1  -0.00365615  -0.00697793  0.79632169  1
  Pd  Pd178  1  0.80347535  0.59041478  0.20796678  1
  Pd  Pd179  1  0.59937770  0.80206700  0.59509454  1
  Pd  Pd180  1  0.20163761  0.20409957  0.60072706  1
  Pd  Pd181  1  0.79633863  0.39402172  0.78653428  1
  Pd  Pd182  1  0.39564145  0.19870590  0.40045568  1
  Pd  Pd183  1  0.00295463  0.80111077  0.19458162  1
  Pd  Pd184  1  0.18739250  -0.00924315  -0.00469049  1
  Pd  Pd185  1  0.20605805  -0.00676538  0.20272734  1
  Pd  Pd186  1  -0.00785116  0.60768779  0.60277038  1
  Pd  Pd187  1  0.20285659  0.00707257  0.79331155  1
  Pd  Pd188  1  0.79527086  0.40417561  0.39530084  1
  Pd  Pd189  1  0.79245601  0.00788170  0.60474614  1
  Pd  Pd190  1  0.20431051  0.19064886  0.79329852  1
  Pd  Pd191  1  0.19739587  -0.00722295  0.40116985  1
  Pd  Pd192  1  0.59749186  -0.00283107  0.41183603  1
  Pd  Pd193  1  0.79173381  0.79334733  0.40158863  1
  Pd  Pd194  1  0.39611179  0.60356971  0.80883962  1
  Pd  Pd195  1  0.20293478  0.60187931  0.60096949  1
  Pd  Pd196  1  0.60216657  0.00226640  0.59146165  1
  Pd  Pd197  1  0.00115220  0.20427846  0.59982215  1
  Pd  Pd198  1  0.80430476  0.19365380  0.39398751  1
  Pd  Pd199  1  0.19312128  0.40808253  0.80347724  1
  Rh  Rh200  1  0.40344455  0.40368529  0.41044613  1
  Rh  Rh201  1  -0.00013409  0.40720491  0.18840145  1
  Rh  Rh202  1  -0.00493235  0.18988995  0.19989887  1
  Rh  Rh203  1  -0.00566816  0.79759453  0.59869424  1
  Rh  Rh204  1  0.38979332  0.19828537  0.19833666  1
  Rh  Rh205  1  0.19785384  0.60706790  0.39961317  1
  Rh  Rh206  1  0.21249478  0.60106637  -0.00724083  1
  Rh  Rh207  1  0.40148555  0.01190605  0.40059442  1
  Rh  Rh208  1  0.60201464  0.00356920  0.00102332  1
  Rh  Rh209  1  0.00054658  0.79580941  0.40183485  1
  Rh  Rh210  1  0.38378918  0.39833054  0.19370702  1
  Rh  Rh211  1  0.79796035  0.19617511  -0.00031361  1
  Rh  Rh212  1  0.59299199  0.59853484  0.39861785  1
  Rh  Rh213  1  0.19889877  0.20479788  0.39774769  1
  Rh  Rh214  1  0.40446027  0.79958961  0.39223714  1
  Rh  Rh215  1  0.61609550  -0.01063505  0.18815992  1
  Rh  Rh216  1  0.00721312  0.60011197  0.78885394  1
  Rh  Rh217  1  0.40700926  0.40516531  0.00880264  1
  Rh  Rh218  1  -0.00638457  0.80141005  0.80422543  1
  Rh  Rh219  1  0.40531185  0.81017431  0.61198168  1
  Rh  Rh220  1  0.40699378  0.39863556  0.79123429  1
  Rh  Rh221  1  0.18870911  0.38931163  0.00227640  1
  Rh  Rh222  1  0.20910588  0.78893857  0.80349790  1
  Rh  Rh223  1  0.39599008  0.79270407  -0.00406932  1
  Rh  Rh224  1  0.80541473  0.40081657  0.00775108  1
  Rh  Rh225  1  0.20678698  0.21093089  0.19916425  1
  Rh  Rh226  1  0.60083837  0.60270321  0.61270094  1
  Rh  Rh227  1  0.80248386  0.00318801  0.79961571  1
  Rh  Rh228  1  0.80571151  0.80403766  0.80043319  1
  Rh  Rh229  1  0.59234944  0.20612086  0.40643693  1
  Rh  Rh230  1  0.79491202  0.80881400  0.20275592  1
  Rh  Rh231  1  0.39068590  0.00306807  0.20158781  1
  Rh  Rh232  1  0.80501055  0.00385336  0.39680873  1
  Rh  Rh233  1  -0.00389276  0.39802631  0.41245323  1
  Rh  Rh234  1  0.40137026  -0.00436121  0.60427768  1
  Rh  Rh235  1  -0.01106081  0.60639464  0.40745398  1
  Rh  Rh236  1  0.80538782  0.60144849  0.39431211  1
  Rh  Rh237  1  0.80173665  0.60617520  0.79543414  1
  Rh  Rh238  1  0.00372715  -0.00045332  0.60109368  1
  Rh  Rh239  1  0.59368508  -0.01020521  0.80737046  1
  Rh  Rh240  1  0.59559913  0.80971969  0.80157217  1
  Rh  Rh241  1  0.81520195  0.79308491  -0.00168250  1
  Rh  Rh242  1  0.60978065  0.39014615  0.20265069  1
  Rh  Rh243  1  0.39614597  0.59239221  0.59659990  1
  Rh  Rh244  1  0.59253453  0.40509287  0.60307291  1
  Rh  Rh245  1  0.79706770  0.79653574  0.60072011  1
  Rh  Rh246  1  0.40446953  0.01122847  -0.00530794  1
  Rh  Rh247  1  0.80124069  0.60612266  0.60481456  1
  Rh  Rh248  1  -0.00618358  0.20363159  0.79974393  1
  Rh  Rh249  1  0.00477588  0.40069391  0.80296945  1
