# generated using pymatgen
data_ZrScNbPdRh
_symmetry_space_group_name_H-M   'P 1'
_cell_length_a   16.55574511
_cell_length_b   16.55579005
_cell_length_c   16.55751303
_cell_angle_alpha   89.98716151
_cell_angle_beta   89.99614383
_cell_angle_gamma   89.97308814
_symmetry_Int_Tables_number   1
_chemical_formula_structural   ZrScNbPdRh
_chemical_formula_sum   'Zr50 Sc50 Nb50 Pd50 Rh50'
_cell_volume   4538.30508278
_cell_formula_units_Z   50
loop_
 _symmetry_equiv_pos_site_id
 _symmetry_equiv_pos_as_xyz
  1  'x, y, z'
loop_
 _atom_site_type_symbol
 _atom_site_label
 _atom_site_symmetry_multiplicity
 _atom_site_fract_x
 _atom_site_fract_y
 _atom_site_fract_z
 _atom_site_occupancy
  Zr  Zr0  1  0.10024397  0.50394030  0.09392245  1
  Zr  Zr1  1  0.29951146  0.90278043  0.90039012  1
  Zr  Zr2  1  0.09133817  0.10257657  0.49982942  1
  Zr  Zr3  1  0.70166965  0.09914169  0.30251141  1
  Zr  Zr4  1  0.09788380  0.49880356  0.90105017  1
  Zr  Zr5  1  0.90154170  0.30074927  0.90522782  1
  Zr  Zr6  1  0.29988834  0.70526988  0.29900114  1
  Zr  Zr7  1  0.70383156  0.09390667  0.49898310  1
  Zr  Zr8  1  0.09535146  0.90866740  0.90531962  1
  Zr  Zr9  1  0.50678597  0.69304620  0.50519486  1
  Zr  Zr10  1  0.30090899  0.09992642  0.49590682  1
  Zr  Zr11  1  0.70150809  0.49779028  0.70883083  1
  Zr  Zr12  1  0.49128427  0.70054494  0.69884170  1
  Zr  Zr13  1  0.49793480  0.09341564  0.50126607  1
  Zr  Zr14  1  0.49566085  0.50250099  0.50385236  1
  Zr  Zr15  1  0.89975446  0.49844827  0.29676714  1
  Zr  Zr16  1  0.90877880  0.29839774  0.48720504  1
  Zr  Zr17  1  0.69916316  0.90513647  0.69206372  1
  Zr  Zr18  1  0.90125228  0.09979559  0.49753558  1
  Zr  Zr19  1  0.90393941  0.70030617  0.70611203  1
  Zr  Zr20  1  0.49886278  0.28716621  0.49483191  1
  Zr  Zr21  1  0.90240428  0.90097595  0.49411967  1
  Zr  Zr22  1  0.10414600  0.48395452  0.49982045  1
  Zr  Zr23  1  0.50301831  0.89673652  0.10274665  1
  Zr  Zr24  1  0.09195579  0.09767157  0.69383769  1
  Zr  Zr25  1  0.10174392  0.70097090  0.49860421  1
  Zr  Zr26  1  0.69649474  0.50308605  0.90772366  1
  Zr  Zr27  1  0.89749699  0.49078864  0.10166678  1
  Zr  Zr28  1  0.29975208  0.69826189  0.69922899  1
  Zr  Zr29  1  0.49938560  0.29071055  0.29104825  1
  Zr  Zr30  1  0.70690412  0.49642685  0.29296175  1
  Zr  Zr31  1  0.10456025  0.69753337  0.70267768  1
  Zr  Zr32  1  0.69871506  0.89839910  0.48765076  1
  Zr  Zr33  1  0.30000853  0.30165504  0.70061588  1
  Zr  Zr34  1  0.90418087  0.70398692  0.48941247  1
  Zr  Zr35  1  0.08961543  0.29985937  0.09723001  1
  Zr  Zr36  1  0.29896568  0.49977372  0.30196938  1
  Zr  Zr37  1  0.29841959  0.49998265  0.89569401  1
  Zr  Zr38  1  0.28885177  0.09728933  0.10159710  1
  Zr  Zr39  1  0.10185224  0.09232247  0.29798731  1
  Zr  Zr40  1  0.30492521  0.10353649  0.69860344  1
  Zr  Zr41  1  0.29837952  0.89007318  0.69347938  1
  Zr  Zr42  1  0.70547489  0.50381085  0.09840169  1
  Zr  Zr43  1  0.09656557  0.30307915  0.29912740  1
  Zr  Zr44  1  0.89116348  0.71203014  0.90116707  1
  Zr  Zr45  1  0.69954518  0.69956763  0.09333641  1
  Zr  Zr46  1  0.49948632  0.90231174  0.29669507  1
  Zr  Zr47  1  0.30633804  0.30135200  0.88911975  1
  Zr  Zr48  1  0.49892716  0.10363759  0.89065683  1
  Zr  Zr49  1  0.90305088  0.90370439  0.90307255  1
  Sc  Sc50  1  0.09819691  0.30333583  0.90131311  1
  Sc  Sc51  1  0.49494907  0.70137475  0.30511215  1
  Sc  Sc52  1  0.09903252  0.70150653  0.29910953  1
  Sc  Sc53  1  0.30770298  0.70203771  0.50190098  1
  Sc  Sc54  1  0.09619094  0.90497634  0.49260445  1
  Sc  Sc55  1  0.90781569  0.70112954  0.29637955  1
  Sc  Sc56  1  0.49942318  0.70534468  0.09086501  1
  Sc  Sc57  1  0.70921238  0.28320941  0.49714600  1
  Sc  Sc58  1  0.50095930  0.50968507  0.70303695  1
  Sc  Sc59  1  0.49153377  0.90485751  0.69239949  1
  Sc  Sc60  1  0.29065574  0.30313327  0.50396748  1
  Sc  Sc61  1  0.10203923  0.90052132  0.29825087  1
  Sc  Sc62  1  0.49990837  0.10323544  0.30792344  1
  Sc  Sc63  1  0.30395299  0.89847759  0.49585495  1
  Sc  Sc64  1  0.30058250  0.49604836  0.49746014  1
  Sc  Sc65  1  0.29476221  0.70166836  0.09586865  1
  Sc  Sc66  1  0.29419644  0.10375626  0.89776072  1
  Sc  Sc67  1  0.90584713  0.90475449  0.70511830  1
  Sc  Sc68  1  0.69524944  0.69641134  0.70349908  1
  Sc  Sc69  1  0.50202725  0.10115554  0.11650389  1
  Sc  Sc70  1  0.71536023  0.89866057  0.91164674  1
  Sc  Sc71  1  0.29960196  0.29228128  0.11024039  1
  Sc  Sc72  1  0.10260446  0.90153782  0.09961145  1
  Sc  Sc73  1  0.49330205  0.49638481  0.30638255  1
  Sc  Sc74  1  0.69623384  0.31445915  0.10615029  1
  Sc  Sc75  1  0.09896291  0.10169729  0.91101134  1
  Sc  Sc76  1  0.89324066  0.30426151  0.70930428  1
  Sc  Sc77  1  0.70849406  0.09117339  0.11159207  1
  Sc  Sc78  1  0.29717787  0.89629607  0.10456339  1
  Sc  Sc79  1  0.89988275  0.09199081  0.90334377  1
  Sc  Sc80  1  0.71223196  0.09966827  0.89780239  1
  Sc  Sc81  1  0.90004160  0.49522967  0.89230766  1
  Sc  Sc82  1  0.09451965  0.69542536  0.90121764  1
  Sc  Sc83  1  0.49997381  0.50441408  0.89723932  1
  Sc  Sc84  1  0.09604067  0.89294568  0.69276707  1
  Sc  Sc85  1  0.89675641  0.30120042  0.29385610  1
  Sc  Sc86  1  0.50863850  0.49339747  0.09452099  1
  Sc  Sc87  1  0.29862094  0.09755918  0.29521658  1
  Sc  Sc88  1  0.09859806  0.50702904  0.30551755  1
  Sc  Sc89  1  0.09952423  0.10444692  0.10431445  1
  Sc  Sc90  1  0.90833561  0.89589057  0.30135833  1
  Sc  Sc91  1  0.68875799  0.50692897  0.50400401  1
  Sc  Sc92  1  0.70288324  0.30849131  0.89323962  1
  Sc  Sc93  1  0.89736183  0.90218226  0.09675150  1
  Sc  Sc94  1  0.09481769  0.49435618  0.70955430  1
  Sc  Sc95  1  0.30474053  0.69836239  0.89620105  1
  Sc  Sc96  1  0.90005335  0.69548145  0.10333911  1
  Sc  Sc97  1  0.30391703  0.29788234  0.30101627  1
  Sc  Sc98  1  0.10392259  0.29937616  0.68836936  1
  Sc  Sc99  1  0.90685004  0.49436105  0.49175583  1
  Nb  Nb100  1  0.69561170  0.90224461  0.10629486  1
  Nb  Nb101  1  0.29985919  0.50066973  0.09642694  1
  Nb  Nb102  1  0.90221464  0.10721674  0.29119655  1
  Nb  Nb103  1  0.70905057  0.10837255  0.69856880  1
  Nb  Nb104  1  0.70047563  0.29752355  0.69966027  1
  Nb  Nb105  1  0.50167910  0.29955643  0.90049289  1
  Nb  Nb106  1  0.30537027  0.50190754  0.70566773  1
  Nb  Nb107  1  0.70040760  0.70149033  0.49763107  1
  Nb  Nb108  1  0.50244009  0.90357441  0.50241810  1
  Nb  Nb109  1  0.50195760  0.90370571  0.90303799  1
  Nb  Nb110  1  0.30031754  0.89691251  0.29732399  1
  Nb  Nb111  1  0.90287953  0.29713695  0.10100629  1
  Nb  Nb112  1  0.49972821  0.29734217  0.09597060  1
  Nb  Nb113  1  0.69351992  0.70299549  0.90634114  1
  Nb  Nb114  1  0.69912249  0.70351296  0.30624409  1
  Nb  Nb115  1  0.50247840  0.29165082  0.70993173  1
  Nb  Nb116  1  0.10024906  0.29738490  0.49639982  1
  Nb  Nb117  1  0.89938438  0.50131684  0.69921910  1
  Nb  Nb118  1  0.89815684  0.11399309  0.10915069  1
  Nb  Nb119  1  0.50770575  0.70873178  0.90454912  1
  Nb  Nb120  1  0.89650444  0.09957628  0.70448527  1
  Nb  Nb121  1  0.09418010  0.70000498  0.10243754  1
  Nb  Nb122  1  0.69965776  0.29820381  0.30502581  1
  Nb  Nb123  1  0.69569148  0.89840568  0.29569954  1
  Nb  Nb124  1  0.50460107  0.10358768  0.69996727  1
  Nb  Nb125  1  0.80549624  0.60066557  0.59651644  1
  Nb  Nb126  1  -0.00523368  0.19468065  0.79831400  1
  Nb  Nb127  1  0.00026650  0.59670245  0.60073042  1
  Nb  Nb128  1  0.19209535  0.19915346  0.40186438  1
  Nb  Nb129  1  0.59785708  0.80736996  0.80823002  1
  Nb  Nb130  1  0.40531452  0.00441549  0.00011769  1
  Nb  Nb131  1  0.40723386  0.39575930  0.60946900  1
  Nb  Nb132  1  0.60137624  0.00133262  0.79792339  1
  Nb  Nb133  1  0.60023896  0.38778076  0.60371543  1
  Nb  Nb134  1  0.78914401  0.80277160  0.20391936  1
  Nb  Nb135  1  0.19991585  0.40680355  0.19585123  1
  Nb  Nb136  1  0.79890395  0.79504425  0.59386958  1
  Nb  Nb137  1  0.79621968  0.60507587  0.40120295  1
  Nb  Nb138  1  0.79538777  0.40227468  0.60151212  1
  Nb  Nb139  1  0.59805227  0.00291080  -0.00207689  1
  Nb  Nb140  1  0.40047863  0.39318234  -0.00058290  1
  Nb  Nb141  1  0.60030052  0.60176276  0.20143107  1
  Nb  Nb142  1  0.60216849  0.39084592  0.40187933  1
  Nb  Nb143  1  0.60135106  0.19986949  0.00091382  1
  Nb  Nb144  1  0.20152799  0.00149789  0.60062960  1
  Nb  Nb145  1  0.39960369  0.59677595  0.19445248  1
  Nb  Nb146  1  0.80032864  0.20349114  0.00965118  1
  Nb  Nb147  1  0.19732129  0.59553395  0.60428189  1
  Nb  Nb148  1  0.40718884  0.20009696  0.00113614  1
  Nb  Nb149  1  0.19738707  -0.00131074  0.79347772  1
  Pd  Pd150  1  0.80885458  0.59977078  -0.00652098  1
  Pd  Pd151  1  0.39775820  -0.00430114  0.39504104  1
  Pd  Pd152  1  0.40652268  0.80114660  0.80398498  1
  Pd  Pd153  1  0.61350255  0.19516802  0.80590324  1
  Pd  Pd154  1  0.39938895  0.20466942  0.60076368  1
  Pd  Pd155  1  0.00727032  0.80204616  0.80409761  1
  Pd  Pd156  1  0.60286098  0.59142437  0.39056656  1
  Pd  Pd157  1  -0.00058579  0.79845067  0.00779650  1
  Pd  Pd158  1  0.40236664  0.39106172  0.40769968  1
  Pd  Pd159  1  0.18597891  0.19476485  0.79922811  1
  Pd  Pd160  1  0.58921267  0.80271904  0.40044558  1
  Pd  Pd161  1  0.39476022  0.80623093  0.00179010  1
  Pd  Pd162  1  0.19300264  0.39788402  0.79529152  1
  Pd  Pd163  1  0.20480666  0.60198202  0.40864544  1
  Pd  Pd164  1  -0.00808686  0.39683451  0.60516593  1
  Pd  Pd165  1  -0.00426256  0.79793836  0.59792015  1
  Pd  Pd166  1  0.79603557  -0.00429785  0.79886800  1
  Pd  Pd167  1  0.80926084  -0.00842179  0.20676635  1
  Pd  Pd168  1  0.80796105  -0.00602849  0.59959928  1
  Pd  Pd169  1  0.60048911  0.00680017  0.60394468  1
  Pd  Pd170  1  0.81081318  0.20661049  0.60184599  1
  Pd  Pd171  1  0.39764538  -0.00092114  0.79851198  1
  Pd  Pd172  1  0.80053943  0.60230119  0.80449294  1
  Pd  Pd173  1  0.39677909  0.00236950  0.19695938  1
  Pd  Pd174  1  -0.00177897  -0.00374834  0.19503268  1
  Pd  Pd175  1  0.60114288  0.79783853  0.60528981  1
  Pd  Pd176  1  0.59414492  0.40503771  0.20793809  1
  Pd  Pd177  1  0.19932217  0.80572190  0.40180282  1
  Pd  Pd178  1  0.59437595  0.40134598  0.79883426  1
  Pd  Pd179  1  0.78965180  0.80426279  0.79302451  1
  Pd  Pd180  1  0.19602256  0.79504687  -0.00377615  1
  Pd  Pd181  1  0.61027425  0.19837343  0.19398462  1
  Pd  Pd182  1  0.39793562  0.40463043  0.19159110  1
  Pd  Pd183  1  0.20940175  0.39047596  0.00602965  1
  Pd  Pd184  1  0.40577790  0.59458683  0.00192994  1
  Pd  Pd185  1  0.20036714  0.60860691  -0.00494538  1
  Pd  Pd186  1  0.80680179  -0.00041283  0.38812240  1
  Pd  Pd187  1  0.20548440  0.20918119  -0.00099755  1
  Pd  Pd188  1  -0.00452763  0.00963493  0.01393333  1
  Pd  Pd189  1  -0.01052081  0.59928183  -0.00525065  1
  Pd  Pd190  1  0.20400554  0.59902598  0.19725464  1
  Pd  Pd191  1  0.19307430  0.79989981  0.19748371  1
  Pd  Pd192  1  0.40744674  0.80141116  0.40570278  1
  Pd  Pd193  1  0.78919534  0.40700479  0.41161819  1
  Pd  Pd194  1  0.19306704  0.80539665  0.80912891  1
  Pd  Pd195  1  0.00221495  0.59848301  0.19946430  1
  Pd  Pd196  1  0.59901291  0.78932064  0.20161457  1
  Pd  Pd197  1  0.59581529  0.60841451  0.80366758  1
  Pd  Pd198  1  -0.01216189  0.21017720  0.60848991  1
  Pd  Pd199  1  0.60290885  0.19638069  0.59839353  1
  Rh  Rh200  1  0.00467586  0.20050566  0.20313488  1
  Rh  Rh201  1  0.20061431  0.59706106  0.79798899  1
  Rh  Rh202  1  0.39355632  0.60509691  0.39445530  1
  Rh  Rh203  1  0.80662259  0.19363113  0.39194015  1
  Rh  Rh204  1  0.00993144  0.80155936  0.39310899  1
  Rh  Rh205  1  0.20033564  0.19240633  0.59014790  1
  Rh  Rh206  1  0.59695902  -0.00036862  0.39633890  1
  Rh  Rh207  1  0.79287902  0.20960622  0.19911541  1
  Rh  Rh208  1  0.00207668  0.40065249  0.39258537  1
  Rh  Rh209  1  -0.00862223  0.19403648  -0.00524892  1
  Rh  Rh210  1  0.39969574  0.19899337  0.79927599  1
  Rh  Rh211  1  0.00562141  0.40443068  0.19911457  1
  Rh  Rh212  1  -0.00219752  0.79959669  0.19402981  1
  Rh  Rh213  1  0.79988022  0.80075711  0.01109877  1
  Rh  Rh214  1  0.20504126  0.00116565  0.40172396  1
  Rh  Rh215  1  0.60761978  0.81211716  -0.00433965  1
  Rh  Rh216  1  0.79893402  0.40197058  0.79927958  1
  Rh  Rh217  1  0.38910175  0.59136003  0.59870809  1
  Rh  Rh218  1  -0.00305332  0.59640779  0.40325040  1
  Rh  Rh219  1  -0.00287142  0.59957778  0.80069755  1
  Rh  Rh220  1  0.60549556  0.60076143  0.60669514  1
  Rh  Rh221  1  0.00176327  0.39020831  0.79864313  1
  Rh  Rh222  1  0.59817069  0.00306579  0.20328882  1
  Rh  Rh223  1  0.60516129  0.19765871  0.40184798  1
  Rh  Rh224  1  0.40393067  0.60616158  0.80740702  1
  Rh  Rh225  1  0.40658698  0.80133845  0.59042414  1
  Rh  Rh226  1  0.80060949  0.79836621  0.39489146  1
  Rh  Rh227  1  0.20193578  -0.00889663  0.20197827  1
  Rh  Rh228  1  0.80046700  0.39473214  0.00175213  1
  Rh  Rh229  1  0.59466280  0.59869554  0.00523024  1
  Rh  Rh230  1  0.80452565  0.20008529  0.80673078  1
  Rh  Rh231  1  0.00185148  0.19751260  0.38901336  1
  Rh  Rh232  1  0.59697714  0.39590172  -0.00609381  1
  Rh  Rh233  1  0.79361669  0.61421961  0.21000704  1
  Rh  Rh234  1  0.21045399  0.41074520  0.60809255  1
  Rh  Rh235  1  0.40935711  0.40378815  0.79853886  1
  Rh  Rh236  1  0.20003145  0.80085769  0.58932804  1
  Rh  Rh237  1  0.00648577  0.00526022  0.79977952  1
  Rh  Rh238  1  -0.00342879  0.40508931  -0.00056337  1
  Rh  Rh239  1  0.39809254  0.19432925  0.19773364  1
  Rh  Rh240  1  -0.00658767  0.00527681  0.39171185  1
  Rh  Rh241  1  -0.00205169  -0.00425906  0.59975667  1
  Rh  Rh242  1  0.39583956  -0.00017661  0.59952466  1
  Rh  Rh243  1  0.38858300  0.19964464  0.39771019  1
  Rh  Rh244  1  0.20067938  0.39142568  0.39011349  1
  Rh  Rh245  1  0.20631799  -0.00048169  -0.00402323  1
  Rh  Rh246  1  0.39736770  0.79260449  0.19770559  1
  Rh  Rh247  1  0.79896881  0.00772803  0.01001713  1
  Rh  Rh248  1  0.80285316  0.39120160  0.19799150  1
  Rh  Rh249  1  0.19487916  0.20771632  0.20944959  1
