# generated using pymatgen
data_ZrScNbPdRh
_symmetry_space_group_name_H-M   'P 1'
_cell_length_a   16.56032752
_cell_length_b   16.56366446
_cell_length_c   16.56151729
_cell_angle_alpha   89.97218949
_cell_angle_beta   89.95812545
_cell_angle_gamma   90.01223875
_symmetry_Int_Tables_number   1
_chemical_formula_structural   ZrScNbPdRh
_chemical_formula_sum   'Zr50 Sc50 Nb50 Pd50 Rh50'
_cell_volume   4542.81751023
_cell_formula_units_Z   50
loop_
 _symmetry_equiv_pos_site_id
 _symmetry_equiv_pos_as_xyz
  1  'x, y, z'
loop_
 _atom_site_type_symbol
 _atom_site_label
 _atom_site_symmetry_multiplicity
 _atom_site_fract_x
 _atom_site_fract_y
 _atom_site_fract_z
 _atom_site_occupancy
  Zr  Zr0  1  0.31493762  0.69651709  0.91280753  1
  Zr  Zr1  1  0.70993461  0.89570419  0.70766507  1
  Zr  Zr2  1  0.29451102  0.10558947  0.90758592  1
  Zr  Zr3  1  0.09817515  0.90316046  0.90439646  1
  Zr  Zr4  1  0.49565417  0.70669376  0.30109517  1
  Zr  Zr5  1  0.49552303  0.10414557  0.50720664  1
  Zr  Zr6  1  0.10002675  0.90609380  0.10389091  1
  Zr  Zr7  1  0.30151667  0.29951340  0.30275657  1
  Zr  Zr8  1  0.90211621  0.69515368  0.09997281  1
  Zr  Zr9  1  0.50694807  0.09929519  0.90703100  1
  Zr  Zr10  1  0.10477751  0.10282775  0.70080498  1
  Zr  Zr11  1  0.29497772  0.09776413  0.10420688  1
  Zr  Zr12  1  0.30123751  0.49958637  0.69986698  1
  Zr  Zr13  1  0.89080685  0.30212350  0.49464700  1
  Zr  Zr14  1  0.50255970  0.70023873  0.49988842  1
  Zr  Zr15  1  0.49059578  0.69984792  0.70552262  1
  Zr  Zr16  1  0.90351073  0.69946789  0.89425588  1
  Zr  Zr17  1  0.09993272  0.90111925  0.30620770  1
  Zr  Zr18  1  0.90027890  0.10132805  0.49272768  1
  Zr  Zr19  1  0.90037037  0.49776207  0.90938954  1
  Zr  Zr20  1  0.30210635  0.89461808  0.10285903  1
  Zr  Zr21  1  0.49819274  0.90359331  0.48457499  1
  Zr  Zr22  1  0.48703697  0.90272407  0.70576776  1
  Zr  Zr23  1  0.09583611  0.30363794  0.50022591  1
  Zr  Zr24  1  0.09194870  0.69510351  0.70336098  1
  Zr  Zr25  1  0.69994723  0.50210703  0.90402284  1
  Zr  Zr26  1  0.10679057  0.10042056  0.49567813  1
  Zr  Zr27  1  0.90300602  0.49947335  0.10456948  1
  Zr  Zr28  1  0.09799492  0.70000239  0.89929200  1
  Zr  Zr29  1  0.50194178  0.49743887  0.30017673  1
  Zr  Zr30  1  0.29301111  0.10761620  0.30164642  1
  Zr  Zr31  1  0.90403451  0.49105577  0.49940218  1
  Zr  Zr32  1  0.49400286  0.30383642  0.29695323  1
  Zr  Zr33  1  0.30393297  0.09019287  0.69533397  1
  Zr  Zr34  1  0.49890195  0.09176257  0.30424625  1
  Zr  Zr35  1  0.09613753  0.10446502  0.10205252  1
  Zr  Zr36  1  0.29340034  0.49521140  0.30241667  1
  Zr  Zr37  1  0.90440638  0.50729213  0.69654947  1
  Zr  Zr38  1  0.29392092  0.69773437  0.50339703  1
  Zr  Zr39  1  0.69889923  0.69846696  0.09041464  1
  Zr  Zr40  1  0.28939585  0.49691178  0.49802195  1
  Zr  Zr41  1  0.90157528  0.10603195  0.29469190  1
  Zr  Zr42  1  0.30279797  0.30115483  0.49424920  1
  Zr  Zr43  1  0.29008531  0.70413543  0.29381256  1
  Zr  Zr44  1  0.30638868  0.10520138  0.49608971  1
  Zr  Zr45  1  0.10086793  0.10018200  0.90882512  1
  Zr  Zr46  1  0.49220257  0.70263440  0.08559235  1
  Zr  Zr47  1  0.10562611  0.89952941  0.70104357  1
  Zr  Zr48  1  0.69710970  0.49828045  0.69528685  1
  Zr  Zr49  1  0.70850964  0.50495881  0.10211350  1
  Sc  Sc50  1  0.50012175  0.10393401  0.10168415  1
  Sc  Sc51  1  0.70858657  0.69972549  0.69114979  1
  Sc  Sc52  1  0.50336022  0.49672105  0.50246619  1
  Sc  Sc53  1  0.90141955  0.49602949  0.29763740  1
  Sc  Sc54  1  0.91389448  0.89654670  0.29894679  1
  Sc  Sc55  1  0.69577266  0.68392606  0.29483819  1
  Sc  Sc56  1  0.10103030  0.30023491  0.69568443  1
  Sc  Sc57  1  0.88858124  0.69142733  0.50763065  1
  Sc  Sc58  1  0.89973802  0.09317629  0.90297001  1
  Sc  Sc59  1  0.50096429  0.50541282  0.89690835  1
  Sc  Sc60  1  0.69889788  0.69068812  0.50217817  1
  Sc  Sc61  1  0.70392991  0.10532569  0.29713827  1
  Sc  Sc62  1  0.49895034  0.49537273  0.70122837  1
  Sc  Sc63  1  0.10997990  0.29960292  0.90993058  1
  Sc  Sc64  1  0.30097534  0.49264673  0.89938253  1
  Sc  Sc65  1  0.10124923  0.49333183  0.90917322  1
  Sc  Sc66  1  0.89866644  0.89785859  0.48936610  1
  Sc  Sc67  1  0.50038201  0.10462559  0.69929227  1
  Sc  Sc68  1  0.10287278  0.30438536  0.28832831  1
  Sc  Sc69  1  0.70529966  0.10178072  0.49694976  1
  Sc  Sc70  1  0.29683475  0.29098882  0.11034934  1
  Sc  Sc71  1  0.09854426  0.49545384  0.10283476  1
  Sc  Sc72  1  0.69618446  0.30363824  0.10323694  1
  Sc  Sc73  1  0.29247354  0.50667051  0.09389299  1
  Sc  Sc74  1  0.10561482  0.69634662  0.49622367  1
  Sc  Sc75  1  0.30623969  0.90255793  0.29662288  1
  Sc  Sc76  1  0.89471830  0.10435726  0.70236967  1
  Sc  Sc77  1  0.50492335  0.30042307  0.90118871  1
  Sc  Sc78  1  0.30393815  0.30891460  0.70221865  1
  Sc  Sc79  1  0.89018263  0.89554341  0.89580551  1
  Sc  Sc80  1  0.09948831  0.70172079  0.29694292  1
  Sc  Sc81  1  0.90875277  0.30227701  0.10974875  1
  Sc  Sc82  1  0.50051250  0.30142497  0.69469067  1
  Sc  Sc83  1  0.69266041  0.10109930  0.09638525  1
  Sc  Sc84  1  0.49792894  0.90317994  0.90963213  1
  Sc  Sc85  1  0.09788721  0.49909782  0.68980228  1
  Sc  Sc86  1  0.30526549  0.90837069  0.90589852  1
  Sc  Sc87  1  0.70100601  0.90478199  0.90150716  1
  Sc  Sc88  1  0.49426695  0.30003447  0.50532320  1
  Sc  Sc89  1  0.91056354  0.69104218  0.29104170  1
  Sc  Sc90  1  0.70475082  0.49861370  0.49606774  1
  Sc  Sc91  1  0.89106418  0.30301592  0.69042116  1
  Sc  Sc92  1  0.69841637  0.89745893  0.08452631  1
  Sc  Sc93  1  0.70350158  0.30539888  0.88965576  1
  Sc  Sc94  1  0.69555495  0.10490473  0.71046691  1
  Sc  Sc95  1  0.70412876  0.89388440  0.49534927  1
  Sc  Sc96  1  0.50678882  0.49700502  0.10001869  1
  Sc  Sc97  1  0.69180187  0.90785432  0.30174307  1
  Sc  Sc98  1  0.29736547  0.90277427  0.50753489  1
  Sc  Sc99  1  0.70843663  0.30541132  0.29999566  1
  Nb  Nb100  1  0.69320639  0.70152232  0.90527205  1
  Nb  Nb101  1  0.09960279  0.50602703  0.30485855  1
  Nb  Nb102  1  0.49820165  0.90322601  0.10492062  1
  Nb  Nb103  1  0.70247892  0.29764427  0.50223914  1
  Nb  Nb104  1  0.10096844  0.09975443  0.30096374  1
  Nb  Nb105  1  0.90136090  0.89683262  0.09664976  1
  Nb  Nb106  1  0.50603695  0.70004127  0.90210999  1
  Nb  Nb107  1  0.50033121  0.89861849  0.29466171  1
  Nb  Nb108  1  0.30083776  0.30291810  0.90248746  1
  Nb  Nb109  1  0.90425936  0.09808246  0.09826560  1
  Nb  Nb110  1  0.29892381  0.70414958  0.70157197  1
  Nb  Nb111  1  0.70215400  0.49719642  0.29290559  1
  Nb  Nb112  1  0.90054116  0.30210381  0.89743376  1
  Nb  Nb113  1  0.10121318  0.49815862  0.49269542  1
  Nb  Nb114  1  0.29649425  0.70054997  0.10362581  1
  Nb  Nb115  1  0.11015197  0.70317448  0.10630145  1
  Nb  Nb116  1  0.09834822  0.30244446  0.09706910  1
  Nb  Nb117  1  0.49476527  0.29930255  0.10302124  1
  Nb  Nb118  1  0.89917882  0.29841662  0.29951677  1
  Nb  Nb119  1  0.69826289  0.29919090  0.68791523  1
  Nb  Nb120  1  0.89915260  0.70511956  0.70473196  1
  Nb  Nb121  1  0.08921661  0.90117568  0.49977022  1
  Nb  Nb122  1  0.70110269  0.10104079  0.90160633  1
  Nb  Nb123  1  0.30297499  0.89305797  0.70498208  1
  Nb  Nb124  1  0.89714692  0.89102522  0.70359198  1
  Nb  Nb125  1  -0.00438582  0.80320897  0.60267561  1
  Nb  Nb126  1  0.60369758  -0.00683712  0.60156448  1
  Nb  Nb127  1  0.39533288  0.60467671  0.20039924  1
  Nb  Nb128  1  0.39403816  0.60236389  0.59818333  1
  Nb  Nb129  1  0.59635189  0.79550781  0.80232121  1
  Nb  Nb130  1  0.80136730  0.60224502  0.80210060  1
  Nb  Nb131  1  0.39516024  0.20122015  0.80721366  1
  Nb  Nb132  1  0.59577505  0.80642968  0.60565936  1
  Nb  Nb133  1  0.39550100  0.60043016  0.39841697  1
  Nb  Nb134  1  0.20274921  0.60505462  0.79929737  1
  Nb  Nb135  1  0.60058681  0.20574729  0.40235569  1
  Nb  Nb136  1  0.80357605  0.19924881  -0.00254062  1
  Nb  Nb137  1  0.79689034  0.80283817  0.19883591  1
  Nb  Nb138  1  0.80284663  -0.00573258  0.60468298  1
  Nb  Nb139  1  0.00186552  0.79895971  0.00494146  1
  Nb  Nb140  1  0.40075471  0.39147921  0.00423182  1
  Nb  Nb141  1  0.59623720  0.80401986  0.19666407  1
  Nb  Nb142  1  -0.00336609  -0.00485603  0.60156927  1
  Nb  Nb143  1  0.20972915  0.79691209  0.80025293  1
  Nb  Nb144  1  0.80705804  -0.00489337  0.19127629  1
  Nb  Nb145  1  -0.00062001  0.20303689  0.80440616  1
  Nb  Nb146  1  0.79912824  0.79286934  0.38655081  1
  Nb  Nb147  1  -0.00415457  0.39365702  0.80389923  1
  Nb  Nb148  1  -0.00001859  0.20204690  0.39245258  1
  Nb  Nb149  1  -0.00068538  0.00069769  0.79393040  1
  Pd  Pd150  1  0.39522410  0.59619578  0.80047912  1
  Pd  Pd151  1  0.59050267  0.60702468  0.19188497  1
  Pd  Pd152  1  0.80399631  0.40675134  0.79101111  1
  Pd  Pd153  1  0.20619636  -0.00623181  0.40057830  1
  Pd  Pd154  1  0.19223600  0.79919384  0.60216015  1
  Pd  Pd155  1  0.00997807  0.60287941  0.00765412  1
  Pd  Pd156  1  0.80355912  0.19878076  0.80529600  1
  Pd  Pd157  1  0.19000907  0.40511486  0.79968376  1
  Pd  Pd158  1  0.80495623  0.59826608  0.39167899  1
  Pd  Pd159  1  0.59799270  0.20324845  0.20882776  1
  Pd  Pd160  1  0.59735445  0.39569447  0.79754378  1
  Pd  Pd161  1  0.40348826  0.80119530  0.59312877  1
  Pd  Pd162  1  0.60537128  0.00976877  0.40705670  1
  Pd  Pd163  1  0.59777592  0.59347617  0.40004151  1
  Pd  Pd164  1  0.59999293  -0.00615794  0.79882020  1
  Pd  Pd165  1  0.39942331  0.00953961  0.80848253  1
  Pd  Pd166  1  0.59736184  0.39909461  0.00012600  1
  Pd  Pd167  1  0.19692876  0.59832440  -0.00486440  1
  Pd  Pd168  1  0.60449121  0.39823636  0.20006049  1
  Pd  Pd169  1  0.60562551  0.39372527  0.40337752  1
  Pd  Pd170  1  0.60011644  0.39855743  0.59423088  1
  Pd  Pd171  1  0.19886594  -0.00228566  0.59579851  1
  Pd  Pd172  1  0.39967506  0.20383681  -0.00067684  1
  Pd  Pd173  1  -0.00722812  0.20737743  -0.00288211  1
  Pd  Pd174  1  0.61128919  0.79492322  0.39493988  1
  Pd  Pd175  1  0.60831344  0.60667142  0.79272652  1
  Pd  Pd176  1  0.39808347  0.00540878  0.20006017  1
  Pd  Pd177  1  0.19972768  0.40225121  0.19498037  1
  Pd  Pd178  1  0.39150011  0.41015013  0.18855475  1
  Pd  Pd179  1  0.20947014  0.20629979  0.60155470  1
  Pd  Pd180  1  0.60888463  -0.00439728  0.19129325  1
  Pd  Pd181  1  0.20155981  -0.00493272  0.80463908  1
  Pd  Pd182  1  0.19871503  0.39678766  0.60075026  1
  Pd  Pd183  1  0.00330358  0.39387450  0.38988532  1
  Pd  Pd184  1  0.79420251  0.19033632  0.60255574  1
  Pd  Pd185  1  0.38918120  0.80015318  0.40168525  1
  Pd  Pd186  1  0.19939399  0.80216934  -0.00384446  1
  Pd  Pd187  1  0.59486035  0.20690855  0.79936979  1
  Pd  Pd188  1  -0.00885122  0.78374953  0.40968104  1
  Pd  Pd189  1  0.00211699  0.60672440  0.58938492  1
  Pd  Pd190  1  0.80070442  0.00631042  0.00322958  1
  Pd  Pd191  1  0.61025522  0.20938650  -0.00218083  1
  Pd  Pd192  1  0.79900685  0.19684972  0.18748508  1
  Pd  Pd193  1  -0.00470689  0.19686876  0.59953781  1
  Pd  Pd194  1  -0.00219669  0.00084890  0.20202598  1
  Pd  Pd195  1  0.80340748  0.38708975  0.00933226  1
  Pd  Pd196  1  0.80334924  -0.00786044  0.39007858  1
  Pd  Pd197  1  -0.00161625  0.60346707  0.40465432  1
  Pd  Pd198  1  0.20156455  0.20758290  0.79802800  1
  Pd  Pd199  1  0.20221429  0.80706094  0.40122032  1
  Rh  Rh200  1  0.80459290  0.00736200  0.79757127  1
  Rh  Rh201  1  0.80324766  0.40101170  0.20014347  1
  Rh  Rh202  1  0.40235600  0.40685292  0.40449218  1
  Rh  Rh203  1  0.39377412  -0.00004772  0.39718601  1
  Rh  Rh204  1  0.80180761  0.60084377  0.20312961  1
  Rh  Rh205  1  0.59750209  0.59234462  0.00196300  1
  Rh  Rh206  1  0.00476790  0.20216781  0.20327045  1
  Rh  Rh207  1  0.19100102  0.39380088  0.39726176  1
  Rh  Rh208  1  0.79552862  0.40368233  0.59941040  1
  Rh  Rh209  1  0.19867338  -0.00100327  0.20537869  1
  Rh  Rh210  1  0.39265456  0.20423875  0.61287532  1
  Rh  Rh211  1  0.00087833  0.58250188  0.80462312  1
  Rh  Rh212  1  0.19811096  0.59722194  0.20190775  1
  Rh  Rh213  1  0.60723536  0.19548786  0.59338971  1
  Rh  Rh214  1  0.20079515  0.59734949  0.60717344  1
  Rh  Rh215  1  0.79891735  0.60522614  -0.00875847  1
  Rh  Rh216  1  0.40460739  0.58640869  0.00636784  1
  Rh  Rh217  1  0.00802356  0.81023916  0.80165192  1
  Rh  Rh218  1  0.20922348  0.39283435  0.00961055  1
  Rh  Rh219  1  0.39916470  0.80097161  0.81449958  1
  Rh  Rh220  1  0.40441707  0.19380576  0.20475237  1
  Rh  Rh221  1  0.79645381  0.40386213  0.39497127  1
  Rh  Rh222  1  0.20069805  0.20535917  0.00990516  1
  Rh  Rh223  1  0.00008766  0.39328522  -0.00039008  1
  Rh  Rh224  1  0.19161696  0.19988628  0.19962871  1
  Rh  Rh225  1  0.80061550  0.59337232  0.60614056  1
  Rh  Rh226  1  0.80346034  0.80411063  0.58594288  1
  Rh  Rh227  1  0.39957237  0.40762020  0.59558549  1
  Rh  Rh228  1  0.80890513  0.79337714  0.00072227  1
  Rh  Rh229  1  0.59375259  0.80678083  -0.00238705  1
  Rh  Rh230  1  0.59827235  0.00065743  0.00253974  1
  Rh  Rh231  1  -0.00953859  -0.00980725  -0.00741196  1
  Rh  Rh232  1  0.40054684  0.80738729  0.00032648  1
  Rh  Rh233  1  0.20365482  -0.00006809  0.00676837  1
  Rh  Rh234  1  0.19858608  0.60118867  0.39357518  1
  Rh  Rh235  1  0.00259254  0.40266336  0.20393765  1
  Rh  Rh236  1  0.19477065  0.80823533  0.20295518  1
  Rh  Rh237  1  0.00151894  0.00996341  0.40140201  1
  Rh  Rh238  1  0.40694702  0.39193671  0.81079646  1
  Rh  Rh239  1  0.01121178  0.59446045  0.19807991  1
  Rh  Rh240  1  0.40566369  0.79561487  0.19430114  1
  Rh  Rh241  1  0.59033086  0.60666352  0.60591236  1
  Rh  Rh242  1  0.40938425  0.20040255  0.39541786  1
  Rh  Rh243  1  0.79791612  0.20594955  0.39614063  1
  Rh  Rh244  1  0.18963029  0.20834925  0.39620025  1
  Rh  Rh245  1  0.40150618  0.00359185  0.00869631  1
  Rh  Rh246  1  0.78774915  0.78737776  0.80965275  1
  Rh  Rh247  1  -0.00143078  0.39839147  0.60325645  1
  Rh  Rh248  1  0.40385283  -0.00529724  0.59740779  1
  Rh  Rh249  1  0.00157208  0.79728800  0.19142103  1
