# generated using pymatgen
data_ZrScNbPdRh
_symmetry_space_group_name_H-M   'P 1'
_cell_length_a   16.56088429
_cell_length_b   16.56089110
_cell_length_c   16.55380836
_cell_angle_alpha   90.00043357
_cell_angle_beta   89.97398942
_cell_angle_gamma   90.00703112
_symmetry_Int_Tables_number   1
_chemical_formula_structural   ZrScNbPdRh
_chemical_formula_sum   'Zr50 Sc50 Nb50 Pd50 Rh50'
_cell_volume   4540.09666033
_cell_formula_units_Z   50
loop_
 _symmetry_equiv_pos_site_id
 _symmetry_equiv_pos_as_xyz
  1  'x, y, z'
loop_
 _atom_site_type_symbol
 _atom_site_label
 _atom_site_symmetry_multiplicity
 _atom_site_fract_x
 _atom_site_fract_y
 _atom_site_fract_z
 _atom_site_occupancy
  Zr  Zr0  1  0.90732553  0.10239826  0.70572675  1
  Zr  Zr1  1  0.09715282  0.10349816  0.50574743  1
  Zr  Zr2  1  0.89472096  0.50082177  0.50101557  1
  Zr  Zr3  1  0.49869377  0.70105022  0.69344081  1
  Zr  Zr4  1  0.70078996  0.49221334  0.71118890  1
  Zr  Zr5  1  0.29444700  0.30748471  0.69164954  1
  Zr  Zr6  1  0.70470941  0.49536208  0.49996118  1
  Zr  Zr7  1  0.89716608  0.28914027  0.50395040  1
  Zr  Zr8  1  0.69834527  0.49963049  0.09622856  1
  Zr  Zr9  1  0.70256332  0.89456873  0.89803813  1
  Zr  Zr10  1  0.50045236  0.30146162  0.09814446  1
  Zr  Zr11  1  0.90221179  0.50186394  0.89430110  1
  Zr  Zr12  1  0.49231934  0.09565461  0.90267587  1
  Zr  Zr13  1  0.49895625  0.91223176  0.69672068  1
  Zr  Zr14  1  0.29631907  0.29705407  0.91162280  1
  Zr  Zr15  1  0.49756758  0.30446774  0.50003404  1
  Zr  Zr16  1  0.29505898  0.49974544  0.30368967  1
  Zr  Zr17  1  0.10277118  0.09622684  0.69879111  1
  Zr  Zr18  1  0.69668631  0.29631568  0.51007305  1
  Zr  Zr19  1  0.49613919  0.90826755  0.08998626  1
  Zr  Zr20  1  0.50257633  0.90651279  0.89630504  1
  Zr  Zr21  1  0.50559343  0.50253067  0.10007960  1
  Zr  Zr22  1  0.10231427  0.29537831  0.30122475  1
  Zr  Zr23  1  0.30220145  0.90170309  0.90187588  1
  Zr  Zr24  1  0.49283563  0.29767566  0.90071707  1
  Zr  Zr25  1  0.70122771  0.70596038  0.29030427  1
  Zr  Zr26  1  0.09783892  0.09407481  0.10554574  1
  Zr  Zr27  1  0.70491598  0.30075832  0.09515615  1
  Zr  Zr28  1  0.09641710  0.30523051  0.90015078  1
  Zr  Zr29  1  0.90831508  0.69612569  0.50126815  1
  Zr  Zr30  1  0.09112143  0.29717419  0.69539170  1
  Zr  Zr31  1  0.28918677  0.90375491  0.09581445  1
  Zr  Zr32  1  0.10024411  0.70564429  0.49995797  1
  Zr  Zr33  1  0.10223233  0.89634653  0.50996714  1
  Zr  Zr34  1  0.70698356  0.50560603  0.29658030  1
  Zr  Zr35  1  0.69844674  0.09027212  0.30041371  1
  Zr  Zr36  1  0.69992232  0.90934597  0.49528843  1
  Zr  Zr37  1  0.90618075  0.50156112  0.30627229  1
  Zr  Zr38  1  0.71846201  0.69785944  0.90245267  1
  Zr  Zr39  1  0.29447763  0.29261109  0.30606343  1
  Zr  Zr40  1  0.08633873  0.69656665  0.89782850  1
  Zr  Zr41  1  0.30321735  0.29892733  0.50141841  1
  Zr  Zr42  1  0.50482903  0.49543745  0.30377223  1
  Zr  Zr43  1  0.29539352  0.90644280  0.69377550  1
  Zr  Zr44  1  0.70660761  0.90109716  0.29797520  1
  Zr  Zr45  1  0.49844889  0.69828515  0.50205078  1
  Zr  Zr46  1  0.89888040  0.69477419  0.30332671  1
  Zr  Zr47  1  0.28228665  0.49385898  0.91134408  1
  Zr  Zr48  1  0.70346866  0.69827972  0.10166049  1
  Zr  Zr49  1  0.30794551  0.09978939  0.69542375  1
  Sc  Sc50  1  0.29930671  0.10681903  0.50339253  1
  Sc  Sc51  1  0.70136841  0.09885584  0.69651110  1
  Sc  Sc52  1  0.10528944  0.90158048  0.70141472  1
  Sc  Sc53  1  0.50091395  0.30562467  0.69303618  1
  Sc  Sc54  1  0.08899230  0.49216334  0.50493309  1
  Sc  Sc55  1  0.91077805  0.88583751  0.89986660  1
  Sc  Sc56  1  0.30468795  0.10403582  0.90089613  1
  Sc  Sc57  1  0.89444374  0.09701618  0.30206044  1
  Sc  Sc58  1  0.30529544  0.49030062  0.50366792  1
  Sc  Sc59  1  0.70108472  0.69642759  0.70594222  1
  Sc  Sc60  1  0.30300051  0.70835933  0.69920011  1
  Sc  Sc61  1  0.90484514  0.49350603  0.10034033  1
  Sc  Sc62  1  0.51337948  0.49838698  0.89939923  1
  Sc  Sc63  1  0.30129307  0.71073414  0.49877324  1
  Sc  Sc64  1  0.70192596  0.69665086  0.50511359  1
  Sc  Sc65  1  0.69108189  0.31163871  0.30014252  1
  Sc  Sc66  1  0.09730239  0.69061135  0.09650996  1
  Sc  Sc67  1  0.91720284  0.90086524  0.70417971  1
  Sc  Sc68  1  0.89944281  0.90363094  0.29010325  1
  Sc  Sc69  1  0.49695904  0.49672498  0.50338339  1
  Sc  Sc70  1  0.09449683  0.90080179  0.29158839  1
  Sc  Sc71  1  0.69251159  0.90513574  0.70377905  1
  Sc  Sc72  1  0.89908454  0.29737944  0.90229204  1
  Sc  Sc73  1  0.09161462  0.48640145  0.70166486  1
  Sc  Sc74  1  0.50968358  0.70282193  0.10229192  1
  Sc  Sc75  1  0.90453468  0.30392493  0.29927333  1
  Sc  Sc76  1  0.10205133  0.29615995  0.50348824  1
  Sc  Sc77  1  0.50060452  0.71121516  0.89910191  1
  Sc  Sc78  1  0.89824318  0.29980593  0.70667131  1
  Sc  Sc79  1  0.90452164  0.10255484  0.09842935  1
  Sc  Sc80  1  0.50366401  0.70427041  0.29924185  1
  Sc  Sc81  1  0.09252905  0.69447561  0.29858493  1
  Sc  Sc82  1  0.70935609  0.89100768  0.10394408  1
  Sc  Sc83  1  0.09584329  0.28656072  0.09893778  1
  Sc  Sc84  1  0.50708960  0.50077765  0.69948644  1
  Sc  Sc85  1  0.29526816  0.70473173  0.31130306  1
  Sc  Sc86  1  0.09520123  0.10588778  0.90401507  1
  Sc  Sc87  1  0.89930091  0.70942415  0.09103131  1
  Sc  Sc88  1  0.49275296  0.09767251  0.51275053  1
  Sc  Sc89  1  0.70909922  0.30564317  0.89770666  1
  Sc  Sc90  1  0.70713013  0.10342853  0.49931699  1
  Sc  Sc91  1  0.89889913  0.29692493  0.09200146  1
  Sc  Sc92  1  0.29321822  0.71096194  0.90348895  1
  Sc  Sc93  1  0.70633298  0.09681223  0.89319697  1
  Sc  Sc94  1  0.49918000  0.30457823  0.30205143  1
  Sc  Sc95  1  0.91059961  0.69615440  0.71016680  1
  Sc  Sc96  1  0.70106666  0.09572439  0.10075061  1
  Sc  Sc97  1  0.51037752  0.90187981  0.29513386  1
  Sc  Sc98  1  0.50122290  0.90029873  0.50371846  1
  Sc  Sc99  1  0.29133420  0.10032748  0.09916293  1
  Nb  Nb100  1  0.50076252  0.10141946  0.10145752  1
  Nb  Nb101  1  0.09607825  0.50309107  0.90873151  1
  Nb  Nb102  1  0.29299599  0.89893616  0.48764806  1
  Nb  Nb103  1  0.10403270  0.69931998  0.69784066  1
  Nb  Nb104  1  0.29492504  0.69461958  0.10546675  1
  Nb  Nb105  1  0.69328401  0.30016214  0.70046267  1
  Nb  Nb106  1  0.29596787  0.50065217  0.70346452  1
  Nb  Nb107  1  0.10521963  0.89509393  0.90718511  1
  Nb  Nb108  1  0.49834776  0.09474132  0.70575836  1
  Nb  Nb109  1  0.90760355  0.90703009  0.10006925  1
  Nb  Nb110  1  0.90517078  0.69789939  0.89809012  1
  Nb  Nb111  1  0.29521844  0.89989005  0.29781708  1
  Nb  Nb112  1  0.29969744  0.30299722  0.09853733  1
  Nb  Nb113  1  0.90790787  0.89916055  0.50235178  1
  Nb  Nb114  1  0.09752534  0.50027135  0.29274413  1
  Nb  Nb115  1  0.08963434  0.90393731  0.09580065  1
  Nb  Nb116  1  0.89955481  0.49601163  0.69950975  1
  Nb  Nb117  1  0.29103315  0.50492434  0.10047552  1
  Nb  Nb118  1  0.89542122  0.10482468  0.89997895  1
  Nb  Nb119  1  0.29459717  0.09822080  0.29558188  1
  Nb  Nb120  1  0.70681507  0.50163320  0.89600912  1
  Nb  Nb121  1  0.11131167  0.50734112  0.09550838  1
  Nb  Nb122  1  0.89751075  0.09670158  0.50089780  1
  Nb  Nb123  1  0.49950650  0.09960523  0.28931242  1
  Nb  Nb124  1  0.11043766  0.10370140  0.29850977  1
  Nb  Nb125  1  0.80772973  0.80621212  0.59769139  1
  Nb  Nb126  1  0.19884206  0.59833117  0.60347100  1
  Nb  Nb127  1  0.19681125  0.59713070  0.79696254  1
  Nb  Nb128  1  0.39371956  0.60058253  0.19719124  1
  Nb  Nb129  1  0.19785779  0.40324252  0.19501579  1
  Nb  Nb130  1  0.79423874  0.20102609  0.20126804  1
  Nb  Nb131  1  0.38978621  0.40145260  0.19510651  1
  Nb  Nb132  1  0.19393791  0.59587879  0.40661590  1
  Nb  Nb133  1  0.20022040  0.20369907  0.79641841  1
  Nb  Nb134  1  0.81042759  -0.00453309  -0.00393218  1
  Nb  Nb135  1  0.59782765  0.19633769  -0.00371725  1
  Nb  Nb136  1  0.39393172  0.60016242  0.00276423  1
  Nb  Nb137  1  0.20014365  0.80062176  0.19550369  1
  Nb  Nb138  1  0.59526554  0.20004778  0.79921671  1
  Nb  Nb139  1  0.39098660  0.80142856  0.19671384  1
  Nb  Nb140  1  0.81029126  -0.00410635  0.59781870  1
  Nb  Nb141  1  0.60334136  0.59914819  0.39995415  1
  Nb  Nb142  1  0.19938206  0.00069334  0.39562083  1
  Nb  Nb143  1  0.39235443  0.00145538  0.38913020  1
  Nb  Nb144  1  0.59496638  0.19424539  0.39693634  1
  Nb  Nb145  1  0.80540793  0.80263178  0.40620852  1
  Nb  Nb146  1  0.39845880  0.19795827  0.19991336  1
  Nb  Nb147  1  0.00377579  0.00338364  0.40412099  1
  Nb  Nb148  1  0.39179966  0.59448638  0.80624335  1
  Nb  Nb149  1  0.39237662  0.40764615  0.80241103  1
  Pd  Pd150  1  0.60709744  0.39396493  -0.00820104  1
  Pd  Pd151  1  0.39933669  0.60106990  0.39768373  1
  Pd  Pd152  1  0.40736345  0.19024372  0.39483437  1
  Pd  Pd153  1  0.00238983  0.79471796  0.19425414  1
  Pd  Pd154  1  0.39634042  0.80958421  0.59633599  1
  Pd  Pd155  1  -0.00959902  0.19505465  0.20576023  1
  Pd  Pd156  1  0.00168050  0.39597840  0.40494242  1
  Pd  Pd157  1  0.78881255  0.20706767  0.39004216  1
  Pd  Pd158  1  0.40170455  0.41261651  -0.00088840  1
  Pd  Pd159  1  0.00894390  0.39764737  0.19123495  1
  Pd  Pd160  1  0.00534475  0.59666803  0.60721525  1
  Pd  Pd161  1  0.59522198  0.60811803  0.80686339  1
  Pd  Pd162  1  0.19524898  0.79762839  0.79954722  1
  Pd  Pd163  1  0.59834768  0.60951186  -0.01072108  1
  Pd  Pd164  1  0.40107101  0.80197070  0.79626232  1
  Pd  Pd165  1  0.60476413  0.59384519  0.59662424  1
  Pd  Pd166  1  0.60933888  0.80231659  0.60230630  1
  Pd  Pd167  1  0.40961948  0.80960995  0.39202544  1
  Pd  Pd168  1  0.19635681  0.39792144  0.79897780  1
  Pd  Pd169  1  0.19122233  0.40457568  0.40239386  1
  Pd  Pd170  1  0.18921636  0.79314849  0.00700585  1
  Pd  Pd171  1  0.19974197  0.00922846  0.80935937  1
  Pd  Pd172  1  0.19751239  0.00798356  -0.00823728  1
  Pd  Pd173  1  0.59879830  0.79677642  0.79484358  1
  Pd  Pd174  1  0.80152775  0.60571238  0.61145682  1
  Pd  Pd175  1  0.00238808  0.40035643  0.00472508  1
  Pd  Pd176  1  0.58527397  0.01028275  0.40682701  1
  Pd  Pd177  1  0.00711398  -0.00301582  0.81239028  1
  Pd  Pd178  1  -0.00620488  0.60089369  0.19028861  1
  Pd  Pd179  1  0.59415013  0.19253257  0.60241021  1
  Pd  Pd180  1  0.80991574  0.59473114  0.00519332  1
  Pd  Pd181  1  0.39995414  0.79266167  0.00859745  1
  Pd  Pd182  1  -0.00066286  0.80905094  0.39252642  1
  Pd  Pd183  1  0.60524150  -0.00788225  0.19088028  1
  Pd  Pd184  1  0.39765490  0.21113999  0.78963749  1
  Pd  Pd185  1  0.60629328  0.79340374  0.40492526  1
  Pd  Pd186  1  0.81214732  0.59980718  0.19041904  1
  Pd  Pd187  1  0.60512993  0.79797691  0.00162945  1
  Pd  Pd188  1  0.39154367  0.59668022  0.60525168  1
  Pd  Pd189  1  -0.00446785  0.00248337  -0.01052891  1
  Pd  Pd190  1  0.80061224  0.38974228  0.39824354  1
  Pd  Pd191  1  0.61342671  0.00376956  -0.00258693  1
  Pd  Pd192  1  0.79241722  0.20417716  0.79503631  1
  Pd  Pd193  1  -0.00039560  0.19384722  0.39629263  1
  Pd  Pd194  1  0.80728151  -0.00955688  0.79808041  1
  Pd  Pd195  1  0.80208861  0.39386484  0.60723353  1
  Pd  Pd196  1  0.39626373  -0.00086165  0.19826744  1
  Pd  Pd197  1  0.60132316  0.20399533  0.20031340  1
  Pd  Pd198  1  0.80721915  0.80268905  0.78919215  1
  Pd  Pd199  1  0.80323819  0.39461518  0.20061136  1
  Rh  Rh200  1  0.01060955  0.80217650  0.79770724  1
  Rh  Rh201  1  0.40316612  0.40568377  0.60833416  1
  Rh  Rh202  1  0.80342654  0.19300749  0.61034556  1
  Rh  Rh203  1  0.20541708  0.00135385  0.59077349  1
  Rh  Rh204  1  0.80138449  0.40873789  -0.00535232  1
  Rh  Rh205  1  0.39966831  0.39753615  0.39638108  1
  Rh  Rh206  1  -0.00416218  0.19762764  -0.00371599  1
  Rh  Rh207  1  0.39423546  -0.00544122  0.80145581  1
  Rh  Rh208  1  0.80544581  0.00670343  0.18744697  1
  Rh  Rh209  1  0.81170527  0.79946197  0.20210599  1
  Rh  Rh210  1  0.60144232  0.40618424  0.59891389  1
  Rh  Rh211  1  0.20054124  0.19978710  0.60423982  1
  Rh  Rh212  1  0.00481939  0.20066734  0.80407488  1
  Rh  Rh213  1  0.60077912  0.00856627  0.80164029  1
  Rh  Rh214  1  0.80698095  0.80725915  -0.00094206  1
  Rh  Rh215  1  0.79102276  0.60988526  0.39891302  1
  Rh  Rh216  1  0.80614393  0.59792015  0.79638463  1
  Rh  Rh217  1  0.00599392  0.59056903  0.79538525  1
  Rh  Rh218  1  0.20469509  0.79597718  0.60334294  1
  Rh  Rh219  1  0.19977265  0.61168795  -0.01151262  1
  Rh  Rh220  1  0.19655375  0.40520420  0.59457848  1
  Rh  Rh221  1  0.00838138  0.59162770  0.40238776  1
  Rh  Rh222  1  0.19165169  -0.00676557  0.20178417  1
  Rh  Rh223  1  0.39149533  0.00550201  0.00415870  1
  Rh  Rh224  1  0.18595284  0.38996379  0.01232432  1
  Rh  Rh225  1  0.81280350  -0.00889637  0.40558410  1
  Rh  Rh226  1  0.00098288  0.00786251  0.20854605  1
  Rh  Rh227  1  0.39122119  -0.00623009  0.58768046  1
  Rh  Rh228  1  0.20005096  0.60270930  0.21422991  1
  Rh  Rh229  1  0.59529074  0.59863775  0.21003305  1
  Rh  Rh230  1  0.59683648  0.39082241  0.80376548  1
  Rh  Rh231  1  0.59909982  0.40347074  0.19688605  1
  Rh  Rh232  1  -0.00470341  0.40175495  0.80314039  1
  Rh  Rh233  1  0.00431291  0.79908348  0.00177463  1
  Rh  Rh234  1  0.79463457  0.18884651  0.00510440  1
  Rh  Rh235  1  0.19644858  0.19820986  -0.00198256  1
  Rh  Rh236  1  0.19855082  0.19402416  0.40790011  1
  Rh  Rh237  1  0.80346586  0.39757470  0.79931906  1
  Rh  Rh238  1  -0.00624330  0.19926662  0.60198331  1
  Rh  Rh239  1  -0.00580145  0.59656827  0.00403998  1
  Rh  Rh240  1  -0.01226419  0.39288148  0.59646982  1
  Rh  Rh241  1  0.60794695  0.00641899  0.59837216  1
  Rh  Rh242  1  0.20557065  0.20682608  0.19306967  1
  Rh  Rh243  1  0.59222657  0.80856780  0.19016364  1
  Rh  Rh244  1  -0.00081916  0.79542944  0.60998704  1
  Rh  Rh245  1  -0.00208377  0.00405570  0.59754623  1
  Rh  Rh246  1  0.40455815  0.20355199  0.60544353  1
  Rh  Rh247  1  0.60254397  0.40101407  0.40841807  1
  Rh  Rh248  1  0.18740640  0.80029198  0.38979512  1
  Rh  Rh249  1  0.40133987  0.19212577  0.01411201  1
