# generated using pymatgen
data_ZrScNbPdRh
_symmetry_space_group_name_H-M   'P 1'
_cell_length_a   16.56487205
_cell_length_b   16.56102857
_cell_length_c   16.55840384
_cell_angle_alpha   89.99064072
_cell_angle_beta   89.94859043
_cell_angle_gamma   90.00724684
_symmetry_Int_Tables_number   1
_chemical_formula_structural   ZrScNbPdRh
_chemical_formula_sum   'Zr50 Sc50 Nb50 Pd50 Rh50'
_cell_volume   4542.48684699
_cell_formula_units_Z   50
loop_
 _symmetry_equiv_pos_site_id
 _symmetry_equiv_pos_as_xyz
  1  'x, y, z'
loop_
 _atom_site_type_symbol
 _atom_site_label
 _atom_site_symmetry_multiplicity
 _atom_site_fract_x
 _atom_site_fract_y
 _atom_site_fract_z
 _atom_site_occupancy
  Zr  Zr0  1  0.89849221  0.10097206  0.29270264  1
  Zr  Zr1  1  0.10896701  0.90219688  0.30086806  1
  Zr  Zr2  1  0.09787559  0.69835098  0.49795940  1
  Zr  Zr3  1  0.29561262  0.29318595  0.89289999  1
  Zr  Zr4  1  0.88645941  0.90065852  0.30427794  1
  Zr  Zr5  1  0.69283058  0.30203128  0.09357697  1
  Zr  Zr6  1  0.89835130  0.10318996  0.49989768  1
  Zr  Zr7  1  0.89255723  0.29945698  0.90150752  1
  Zr  Zr8  1  0.90660046  0.30670092  0.11126545  1
  Zr  Zr9  1  0.70780191  0.50913294  0.29422205  1
  Zr  Zr10  1  0.29771112  0.10384325  0.50891805  1
  Zr  Zr11  1  0.30351006  0.09892409  0.90052137  1
  Zr  Zr12  1  0.70459604  0.09247792  0.29771737  1
  Zr  Zr13  1  0.30393366  0.50196223  0.90144561  1
  Zr  Zr14  1  0.89157413  0.50382331  0.11047781  1
  Zr  Zr15  1  0.09933367  0.30358206  0.70117098  1
  Zr  Zr16  1  0.08750134  0.90414019  0.69639068  1
  Zr  Zr17  1  0.30222042  0.89048426  0.29900066  1
  Zr  Zr18  1  0.70309800  0.29948275  0.51092127  1
  Zr  Zr19  1  0.10281466  0.90035967  0.50190218  1
  Zr  Zr20  1  0.10326383  0.89609225  0.90582657  1
  Zr  Zr21  1  0.10025610  0.09547223  0.10501291  1
  Zr  Zr22  1  0.10000926  0.29848637  0.49387467  1
  Zr  Zr23  1  0.50047291  0.30006294  0.69896502  1
  Zr  Zr24  1  0.10018578  0.49866078  0.30930292  1
  Zr  Zr25  1  0.30252169  0.70586840  0.89639875  1
  Zr  Zr26  1  0.50229126  0.31308440  0.10753048  1
  Zr  Zr27  1  0.50788192  0.90580727  0.68428449  1
  Zr  Zr28  1  0.71067968  0.09467005  0.09948534  1
  Zr  Zr29  1  0.69521053  0.49250523  0.69980383  1
  Zr  Zr30  1  0.10111888  0.89890868  0.10122822  1
  Zr  Zr31  1  0.09666762  0.10906441  0.30080685  1
  Zr  Zr32  1  0.70544853  0.10746190  0.89829695  1
  Zr  Zr33  1  0.69923240  0.29457772  0.70101883  1
  Zr  Zr34  1  0.70582854  0.89840547  0.70099390  1
  Zr  Zr35  1  0.69801677  0.71324876  0.10060562  1
  Zr  Zr36  1  0.50053079  0.49844149  0.50973143  1
  Zr  Zr37  1  0.89874676  0.50208835  0.70398960  1
  Zr  Zr38  1  0.11309619  0.10199174  0.90574208  1
  Zr  Zr39  1  0.90207242  0.49426754  0.30021548  1
  Zr  Zr40  1  0.49209853  0.08679598  0.50730606  1
  Zr  Zr41  1  0.90343489  0.70041118  0.89405900  1
  Zr  Zr42  1  0.10400977  0.10008684  0.50147744  1
  Zr  Zr43  1  0.70113112  0.29519546  0.89718879  1
  Zr  Zr44  1  0.10523642  0.30606827  0.90158941  1
  Zr  Zr45  1  0.89630991  0.09501137  0.90605912  1
  Zr  Zr46  1  0.31329784  0.50824189  0.68776293  1
  Zr  Zr47  1  0.29669491  0.09704555  0.09410873  1
  Zr  Zr48  1  0.89655656  0.07860596  0.70199266  1
  Zr  Zr49  1  0.69725392  0.89713825  0.28447989  1
  Sc  Sc50  1  0.69663761  0.50589690  0.50149874  1
  Sc  Sc51  1  0.10555047  0.71250396  0.69103317  1
  Sc  Sc52  1  0.49834144  0.10703830  0.69232041  1
  Sc  Sc53  1  0.49893432  0.09939212  0.29462514  1
  Sc  Sc54  1  0.89444723  0.70797011  0.09803483  1
  Sc  Sc55  1  0.49259041  0.69917753  0.09799433  1
  Sc  Sc56  1  0.29875115  0.69819763  0.10613318  1
  Sc  Sc57  1  0.48910517  0.09621332  0.09615426  1
  Sc  Sc58  1  0.49835125  0.10579912  0.89991138  1
  Sc  Sc59  1  0.29688081  0.08996068  0.29838757  1
  Sc  Sc60  1  0.10113892  0.49835245  0.49757588  1
  Sc  Sc61  1  0.11128935  0.09484194  0.69920416  1
  Sc  Sc62  1  0.50601367  0.29717442  0.90426610  1
  Sc  Sc63  1  0.68438468  0.50129135  0.89756011  1
  Sc  Sc64  1  0.30788309  0.91487251  0.48979832  1
  Sc  Sc65  1  0.68676503  0.28986323  0.28799659  1
  Sc  Sc66  1  0.90231849  0.30409409  0.50912268  1
  Sc  Sc67  1  0.09429136  0.50039131  0.09160649  1
  Sc  Sc68  1  0.90239118  0.49647305  0.49789709  1
  Sc  Sc69  1  0.50073823  0.69570161  0.89618852  1
  Sc  Sc70  1  0.30077070  0.30684042  0.30307846  1
  Sc  Sc71  1  0.10680254  0.70269994  0.09248045  1
  Sc  Sc72  1  0.30111675  0.29831094  0.09495559  1
  Sc  Sc73  1  0.29906583  0.49431835  0.49593675  1
  Sc  Sc74  1  0.12175604  0.69768301  0.30415676  1
  Sc  Sc75  1  0.29574028  0.30475357  0.50456456  1
  Sc  Sc76  1  0.09842223  0.50238762  0.89779728  1
  Sc  Sc77  1  0.29177561  0.68836420  0.50541222  1
  Sc  Sc78  1  0.09016797  0.49711066  0.70647674  1
  Sc  Sc79  1  0.29520448  0.89009782  0.70557589  1
  Sc  Sc80  1  0.89472085  0.90189895  0.51169052  1
  Sc  Sc81  1  0.69849251  0.70459064  0.30574659  1
  Sc  Sc82  1  0.69260129  0.88797696  0.50894829  1
  Sc  Sc83  1  0.50214427  0.29434725  0.50508355  1
  Sc  Sc84  1  0.50871035  0.90102203  0.10132637  1
  Sc  Sc85  1  0.29921180  0.29619739  0.69674151  1
  Sc  Sc86  1  0.90048462  0.90143034  0.08829830  1
  Sc  Sc87  1  0.29996008  0.50095238  0.29898269  1
  Sc  Sc88  1  0.69855663  0.89499440  0.90945918  1
  Sc  Sc89  1  0.69326765  0.70472295  0.89509900  1
  Sc  Sc90  1  0.49758482  0.29716030  0.29423739  1
  Sc  Sc91  1  0.29564823  0.90265418  0.10143365  1
  Sc  Sc92  1  0.87974798  0.69454227  0.30474195  1
  Sc  Sc93  1  0.49245586  0.49121464  0.28932953  1
  Sc  Sc94  1  0.89261398  0.31446617  0.69972192  1
  Sc  Sc95  1  0.90750060  0.50447822  0.89205952  1
  Sc  Sc96  1  0.50114648  0.69271478  0.70538198  1
  Sc  Sc97  1  0.50529353  0.90172097  0.90517740  1
  Sc  Sc98  1  0.69556718  0.10515158  0.50651247  1
  Sc  Sc99  1  0.31468060  0.50301935  0.10153304  1
  Nb  Nb100  1  0.90542605  0.90090625  0.88942412  1
  Nb  Nb101  1  0.49756049  0.89740370  0.49829262  1
  Nb  Nb102  1  0.30485109  0.69991508  0.70129418  1
  Nb  Nb103  1  0.09857065  0.29854026  0.10293822  1
  Nb  Nb104  1  0.10528893  0.69279489  0.90216741  1
  Nb  Nb105  1  0.51432161  0.70684494  0.49111474  1
  Nb  Nb106  1  0.89139995  0.70112118  0.49603359  1
  Nb  Nb107  1  0.69400286  0.50160166  0.10021352  1
  Nb  Nb108  1  0.91163199  0.29891767  0.30406509  1
  Nb  Nb109  1  0.90242518  0.89562590  0.71309636  1
  Nb  Nb110  1  0.31126257  0.69460077  0.29404060  1
  Nb  Nb111  1  0.70182393  0.69636701  0.49989882  1
  Nb  Nb112  1  0.69892849  0.89340429  0.09848942  1
  Nb  Nb113  1  0.90317183  0.10025940  0.09628857  1
  Nb  Nb114  1  0.30820321  0.10531572  0.70296525  1
  Nb  Nb115  1  0.89788194  0.70123812  0.70424417  1
  Nb  Nb116  1  0.49663055  0.70614908  0.29876137  1
  Nb  Nb117  1  0.70149284  0.70152261  0.69891891  1
  Nb  Nb118  1  0.50677790  0.50062669  0.09123345  1
  Nb  Nb119  1  0.30166793  0.90104507  0.90116136  1
  Nb  Nb120  1  0.49559233  0.50713314  0.90298191  1
  Nb  Nb121  1  0.69976876  0.09889178  0.70222055  1
  Nb  Nb122  1  0.50128657  0.49851232  0.70573036  1
  Nb  Nb123  1  0.08960509  0.30023202  0.29466314  1
  Nb  Nb124  1  0.49619576  0.89265341  0.30979059  1
  Nb  Nb125  1  0.40513445  0.40564305  0.80000339  1
  Nb  Nb126  1  0.39490289  0.80346524  -0.00508962  1
  Nb  Nb127  1  0.40883680  0.60823851  0.39663449  1
  Nb  Nb128  1  0.59373441  -0.00849116  0.40029492  1
  Nb  Nb129  1  0.79429397  0.59714857  0.00084917  1
  Nb  Nb130  1  0.60299814  0.00529692  0.79586126  1
  Nb  Nb131  1  -0.00006568  0.19768968  0.80136474  1
  Nb  Nb132  1  -0.01006483  0.60971124  0.60157192  1
  Nb  Nb133  1  0.79464827  0.40821457  0.00319414  1
  Nb  Nb134  1  0.20617699  0.60871612  0.79545867  1
  Nb  Nb135  1  -0.00039573  -0.00287562  0.39982463  1
  Nb  Nb136  1  -0.00067351  0.19726602  0.60901658  1
  Nb  Nb137  1  0.40566304  0.79547760  0.59371090  1
  Nb  Nb138  1  -0.00428473  0.80016530  0.39805707  1
  Nb  Nb139  1  0.19080292  0.39596697  0.19793994  1
  Nb  Nb140  1  0.00114199  0.20034917  0.00290269  1
  Nb  Nb141  1  0.80162166  0.20637740  0.39523523  1
  Nb  Nb142  1  0.40143031  -0.00048033  0.79777070  1
  Nb  Nb143  1  0.79560160  0.39049108  0.39419680  1
  Nb  Nb144  1  0.00044205  0.60769340  0.20512027  1
  Nb  Nb145  1  0.59595991  0.60080099  0.19673262  1
  Nb  Nb146  1  0.00085327  0.79586668  0.21086565  1
  Nb  Nb147  1  0.60443899  0.39872077  0.39838698  1
  Nb  Nb148  1  0.39924623  0.19505397  0.40368510  1
  Nb  Nb149  1  0.80005389  0.61003407  0.60434164  1
  Pd  Pd150  1  0.60175568  0.60599824  0.60576375  1
  Pd  Pd151  1  0.80182309  0.20666316  0.20051975  1
  Pd  Pd152  1  0.81167420  0.19753087  0.78715390  1
  Pd  Pd153  1  0.60937040  0.80588721  0.39595488  1
  Pd  Pd154  1  -0.00550380  0.60909449  0.39756577  1
  Pd  Pd155  1  0.80421606  0.79687216  0.60243200  1
  Pd  Pd156  1  0.21237811  0.41474187  0.79020061  1
  Pd  Pd157  1  0.59686475  0.19670082  0.40290482  1
  Pd  Pd158  1  0.20741484  -0.00208203  0.79587768  1
  Pd  Pd159  1  0.59448673  0.19167417  0.00889654  1
  Pd  Pd160  1  0.59397806  0.00095439  0.20127235  1
  Pd  Pd161  1  0.18699659  0.59204547  0.60783867  1
  Pd  Pd162  1  0.19428961  0.59031997  0.19559195  1
  Pd  Pd163  1  0.20918264  0.20382867  0.39415689  1
  Pd  Pd164  1  0.79150774  -0.00195892  0.59492845  1
  Pd  Pd165  1  0.01152731  0.79287145  0.80254768  1
  Pd  Pd166  1  -0.01134044  0.79691131  0.59539936  1
  Pd  Pd167  1  0.20404150  0.40531246  0.00901500  1
  Pd  Pd168  1  0.78959921  0.59622067  0.80394558  1
  Pd  Pd169  1  0.59320385  0.39715812  0.80706066  1
  Pd  Pd170  1  0.41025307  0.39648081  0.40423441  1
  Pd  Pd171  1  0.40406139  0.20711286  0.00102741  1
  Pd  Pd172  1  0.00942085  0.00695632  0.80975383  1
  Pd  Pd173  1  0.20897765  0.79580458  0.40668531  1
  Pd  Pd174  1  0.20700969  0.59702290  -0.00083692  1
  Pd  Pd175  1  0.79641363  0.80263947  0.80747767  1
  Pd  Pd176  1  0.41118033  0.61209129  0.58950802  1
  Pd  Pd177  1  0.20800207  0.20603104  0.20255839  1
  Pd  Pd178  1  -0.00755597  0.40001572  -0.00333325  1
  Pd  Pd179  1  0.60273899  0.61011397  0.00342792  1
  Pd  Pd180  1  0.40288027  0.80669565  0.18829438  1
  Pd  Pd181  1  0.21463736  0.80741490  0.59057498  1
  Pd  Pd182  1  -0.00640741  -0.00975584  0.20459467  1
  Pd  Pd183  1  0.79031464  0.38871780  0.20364480  1
  Pd  Pd184  1  0.38873088  0.78886690  0.41167158  1
  Pd  Pd185  1  -0.00991307  0.60395507  0.00783506  1
  Pd  Pd186  1  0.59182269  0.59110069  0.38834469  1
  Pd  Pd187  1  0.79052300  0.00118656  0.41207623  1
  Pd  Pd188  1  0.19191663  0.79773604  0.80080106  1
  Pd  Pd189  1  0.39203160  0.20151580  0.20542236  1
  Pd  Pd190  1  0.40213161  0.39420609  -0.00686693  1
  Pd  Pd191  1  -0.00096931  0.79610403  0.00191405  1
  Pd  Pd192  1  0.19628446  0.40687309  0.60355893  1
  Pd  Pd193  1  0.60296327  0.00713354  -0.00486146  1
  Pd  Pd194  1  0.79843430  -0.00951179  -0.00266703  1
  Pd  Pd195  1  0.41234550  0.80933283  0.79703380  1
  Pd  Pd196  1  0.20977215  -0.00692109  0.60714580  1
  Pd  Pd197  1  0.59468216  0.80702020  0.79698307  1
  Pd  Pd198  1  0.59467482  0.18524994  0.18912722  1
  Pd  Pd199  1  0.40114516  -0.00938664  0.20090444  1
  Rh  Rh200  1  0.79473418  0.40871617  0.81151201  1
  Rh  Rh201  1  0.40184280  0.20206879  0.80048147  1
  Rh  Rh202  1  0.59229969  0.79561399  0.19959686  1
  Rh  Rh203  1  0.19592559  0.39523589  0.39227121  1
  Rh  Rh204  1  0.40715453  0.00647765  0.38956102  1
  Rh  Rh205  1  0.40960054  0.59751457  0.20230360  1
  Rh  Rh206  1  0.59901677  0.19693878  0.60318866  1
  Rh  Rh207  1  0.80522163  0.79752142  -0.00979503  1
  Rh  Rh208  1  0.60282250  0.40969204  0.20663600  1
  Rh  Rh209  1  0.19558396  0.20196331  0.60761292  1
  Rh  Rh210  1  0.38780269  -0.01090563  0.61365920  1
  Rh  Rh211  1  0.58856159  0.79639744  0.00164031  1
  Rh  Rh212  1  0.59539792  0.78755033  0.60386255  1
  Rh  Rh213  1  0.21544344  0.59688311  0.39868517  1
  Rh  Rh214  1  0.00383017  0.40149295  0.59664739  1
  Rh  Rh215  1  0.19807816  0.79605651  0.19797991  1
  Rh  Rh216  1  0.39728269  0.59452381  0.80205346  1
  Rh  Rh217  1  0.60058788  0.40018069  -0.00665565  1
  Rh  Rh218  1  0.20173780  -0.00610518  0.00215883  1
  Rh  Rh219  1  0.79402385  0.61366462  0.18947436  1
  Rh  Rh220  1  -0.00317201  0.39080956  0.80775782  1
  Rh  Rh221  1  0.79688677  0.41428292  0.59355676  1
  Rh  Rh222  1  0.00006162  0.00416991  0.59415025  1
  Rh  Rh223  1  0.80873924  0.19561580  0.60472318  1
  Rh  Rh224  1  0.59927147  0.39856889  0.59729669  1
  Rh  Rh225  1  0.80693620  0.80385750  0.19591662  1
  Rh  Rh226  1  0.39997028  -0.00773199  -0.00664536  1
  Rh  Rh227  1  0.39006388  0.39747349  0.19468603  1
  Rh  Rh228  1  0.20697734  0.80077719  0.00032765  1
  Rh  Rh229  1  -0.00302574  0.39485896  0.40619330  1
  Rh  Rh230  1  0.60808876  0.00397970  0.59756717  1
  Rh  Rh231  1  0.60124011  0.59912585  0.79581870  1
  Rh  Rh232  1  0.80487124  -0.00874464  0.18425104  1
  Rh  Rh233  1  0.79983678  0.58876571  0.41226076  1
  Rh  Rh234  1  0.80926459  0.21118108  0.01592751  1
  Rh  Rh235  1  0.79432055  0.80590555  0.40608586  1
  Rh  Rh236  1  0.19554518  0.00570141  0.39724576  1
  Rh  Rh237  1  0.59738244  0.19277398  0.79533644  1
  Rh  Rh238  1  0.01681640  0.61375618  0.78977483  1
  Rh  Rh239  1  0.40246702  0.39534661  0.60422768  1
  Rh  Rh240  1  0.00295443  0.00399767  -0.00554155  1
  Rh  Rh241  1  0.39569837  0.20621995  0.59277292  1
  Rh  Rh242  1  0.01018464  0.41370383  0.20199360  1
  Rh  Rh243  1  0.39975335  0.60960073  0.00036061  1
  Rh  Rh244  1  0.19668337  0.19909538  0.79386105  1
  Rh  Rh245  1  -0.00206123  0.19597703  0.19162597  1
  Rh  Rh246  1  -0.00555409  0.19783424  0.40835192  1
  Rh  Rh247  1  0.79036668  -0.00964112  0.80952275  1
  Rh  Rh248  1  0.20321571  -0.00045927  0.20056538  1
  Rh  Rh249  1  0.19562110  0.20325532  0.00810516  1
