# generated using pymatgen
data_ZrScNbPdRh
_symmetry_space_group_name_H-M   'P 1'
_cell_length_a   16.56131649
_cell_length_b   16.55918010
_cell_length_c   16.56471294
_cell_angle_alpha   89.99215718
_cell_angle_beta   90.01904498
_cell_angle_gamma   90.01431909
_symmetry_Int_Tables_number   1
_chemical_formula_structural   ZrScNbPdRh
_chemical_formula_sum   'Zr50 Sc50 Nb50 Pd50 Rh50'
_cell_volume   4542.73662987
_cell_formula_units_Z   50
loop_
 _symmetry_equiv_pos_site_id
 _symmetry_equiv_pos_as_xyz
  1  'x, y, z'
loop_
 _atom_site_type_symbol
 _atom_site_label
 _atom_site_symmetry_multiplicity
 _atom_site_fract_x
 _atom_site_fract_y
 _atom_site_fract_z
 _atom_site_occupancy
  Zr  Zr0  1  0.09203539  0.50786317  0.50261455  1
  Zr  Zr1  1  0.49825378  0.68765547  0.29470914  1
  Zr  Zr2  1  0.90058082  0.70177047  0.89667581  1
  Zr  Zr3  1  0.89963876  0.30760334  0.10881421  1
  Zr  Zr4  1  0.70097805  0.49406771  0.09732591  1
  Zr  Zr5  1  0.29583571  0.49600922  0.10165415  1
  Zr  Zr6  1  0.09439537  0.49871312  0.10568497  1
  Zr  Zr7  1  0.90027059  0.49595241  0.29848621  1
  Zr  Zr8  1  0.50419932  0.89929077  0.69678360  1
  Zr  Zr9  1  0.70203789  0.10042084  0.90167509  1
  Zr  Zr10  1  0.89895241  0.10343292  0.50485351  1
  Zr  Zr11  1  0.70169181  0.50460361  0.90051224  1
  Zr  Zr12  1  0.49251914  0.10589574  0.50820971  1
  Zr  Zr13  1  0.70045729  0.29980953  0.30160777  1
  Zr  Zr14  1  0.08926808  0.10391361  0.89651624  1
  Zr  Zr15  1  0.49590284  0.49412242  0.89849598  1
  Zr  Zr16  1  0.89475750  0.09782078  0.70043677  1
  Zr  Zr17  1  0.49731320  0.29833523  0.30750714  1
  Zr  Zr18  1  0.30087582  0.09919203  0.10096623  1
  Zr  Zr19  1  0.49450741  0.09931622  0.70404930  1
  Zr  Zr20  1  0.30577614  0.30651014  0.49877841  1
  Zr  Zr21  1  0.09393059  0.09984721  0.10360052  1
  Zr  Zr22  1  0.29727671  0.90277494  0.49870451  1
  Zr  Zr23  1  0.89817362  0.09558445  0.29452792  1
  Zr  Zr24  1  0.30589460  0.89916273  0.70486823  1
  Zr  Zr25  1  0.30191630  0.89618591  0.89882923  1
  Zr  Zr26  1  0.09138560  0.89639360  0.69878405  1
  Zr  Zr27  1  0.70168681  0.90320785  0.30478822  1
  Zr  Zr28  1  0.89999292  0.50151542  0.09910960  1
  Zr  Zr29  1  0.31192042  0.30939096  0.89231973  1
  Zr  Zr30  1  0.29409769  0.30597082  0.30305878  1
  Zr  Zr31  1  0.50846456  0.10727237  0.89942362  1
  Zr  Zr32  1  0.49924369  0.90507884  0.89478428  1
  Zr  Zr33  1  0.89951843  0.70168358  0.30779052  1
  Zr  Zr34  1  0.51077318  0.69389394  0.69770630  1
  Zr  Zr35  1  0.89846771  0.90107866  0.30001280  1
  Zr  Zr36  1  0.91144682  0.49142593  0.70001509  1
  Zr  Zr37  1  0.30011857  0.89533438  0.30595972  1
  Zr  Zr38  1  0.49946388  0.30647355  0.09096408  1
  Zr  Zr39  1  0.89420958  0.09711940  0.88901630  1
  Zr  Zr40  1  0.69752895  0.09903699  0.09556108  1
  Zr  Zr41  1  0.09716775  0.89952577  0.30233380  1
  Zr  Zr42  1  0.29573260  0.70335644  0.89352801  1
  Zr  Zr43  1  0.70307425  0.09977462  0.29629978  1
  Zr  Zr44  1  0.89969818  0.89853184  0.51075814  1
  Zr  Zr45  1  0.70664585  0.70097481  0.89247145  1
  Zr  Zr46  1  0.69351005  0.69013732  0.30752645  1
  Zr  Zr47  1  0.69777120  0.89774174  0.50726041  1
  Zr  Zr48  1  0.70360829  0.69802638  0.70031127  1
  Zr  Zr49  1  0.89398438  0.29828296  0.69526113  1
  Sc  Sc50  1  0.29969689  0.68655370  0.30436709  1
  Sc  Sc51  1  0.70149022  0.30503580  0.50277485  1
  Sc  Sc52  1  0.89987103  0.90135007  0.10615065  1
  Sc  Sc53  1  0.50258680  0.50992024  0.09056872  1
  Sc  Sc54  1  0.69223710  0.69785486  0.08553905  1
  Sc  Sc55  1  0.29910472  0.69142171  0.70007040  1
  Sc  Sc56  1  0.09998783  0.69472467  0.31114455  1
  Sc  Sc57  1  0.70010736  0.29955884  0.69457024  1
  Sc  Sc58  1  0.70093842  0.90224315  0.90087045  1
  Sc  Sc59  1  0.31255344  0.09653697  0.89897882  1
  Sc  Sc60  1  0.10258951  0.89126553  0.89769180  1
  Sc  Sc61  1  0.70415490  0.50538107  0.70305324  1
  Sc  Sc62  1  0.49879980  0.11025760  0.09834446  1
  Sc  Sc63  1  0.89940686  0.30192687  0.30654833  1
  Sc  Sc64  1  0.09873198  0.70017229  0.69886130  1
  Sc  Sc65  1  0.10053469  0.30483681  0.48534692  1
  Sc  Sc66  1  0.70343463  0.29871830  0.09609071  1
  Sc  Sc67  1  0.30284290  0.29843588  0.10668086  1
  Sc  Sc68  1  0.49686576  0.29729015  0.69411416  1
  Sc  Sc69  1  0.10324405  0.89322897  0.50246989  1
  Sc  Sc70  1  0.90519921  0.70410425  0.08837149  1
  Sc  Sc71  1  0.30918461  0.70130882  0.09763228  1
  Sc  Sc72  1  0.70078982  0.09895696  0.50227254  1
  Sc  Sc73  1  0.09753528  0.29723611  0.11041001  1
  Sc  Sc74  1  0.09902191  0.11092433  0.29993215  1
  Sc  Sc75  1  0.89934793  0.29037571  0.89463745  1
  Sc  Sc76  1  0.70031618  0.50031637  0.30656117  1
  Sc  Sc77  1  0.09137217  0.50123070  0.88098879  1
  Sc  Sc78  1  0.30509954  0.10704479  0.30808005  1
  Sc  Sc79  1  0.10660725  0.50326648  0.29931741  1
  Sc  Sc80  1  0.70188165  0.89305641  0.69728385  1
  Sc  Sc81  1  0.90157456  0.69382806  0.50298736  1
  Sc  Sc82  1  0.30910918  0.50164396  0.88791458  1
  Sc  Sc83  1  0.69775377  0.89700263  0.08659048  1
  Sc  Sc84  1  0.08277858  0.09779683  0.70260967  1
  Sc  Sc85  1  0.50283332  0.10620432  0.30513621  1
  Sc  Sc86  1  0.50297951  0.67756186  0.50491234  1
  Sc  Sc87  1  0.49643681  0.88754874  0.08700220  1
  Sc  Sc88  1  0.09585875  0.89741792  0.09628758  1
  Sc  Sc89  1  0.50336467  0.69357795  0.90002929  1
  Sc  Sc90  1  0.10340442  0.69969734  0.50185173  1
  Sc  Sc91  1  0.09232992  0.69796487  0.09564347  1
  Sc  Sc92  1  0.89619521  0.10277785  0.10557471  1
  Sc  Sc93  1  0.30203766  0.89456229  0.08747194  1
  Sc  Sc94  1  0.69955055  0.29633337  0.90503366  1
  Sc  Sc95  1  0.89839319  0.90401041  0.70204106  1
  Sc  Sc96  1  0.08993490  0.31425036  0.70750541  1
  Sc  Sc97  1  0.09200409  0.70334439  0.89633453  1
  Sc  Sc98  1  0.50289234  0.91374746  0.50530980  1
  Sc  Sc99  1  0.70323666  0.69389983  0.50912077  1
  Nb  Nb100  1  0.50243942  0.48974776  0.50683590  1
  Nb  Nb101  1  0.30288951  0.50131197  0.30146191  1
  Nb  Nb102  1  0.89890218  0.48735200  0.49919220  1
  Nb  Nb103  1  0.29601422  0.29931160  0.70193174  1
  Nb  Nb104  1  0.50672753  0.31003803  0.50454102  1
  Nb  Nb105  1  0.30357953  0.69979606  0.49806677  1
  Nb  Nb106  1  0.29658635  0.09824498  0.50887290  1
  Nb  Nb107  1  0.10419426  0.49820853  0.69320784  1
  Nb  Nb108  1  0.50380219  0.50486725  0.30246581  1
  Nb  Nb109  1  0.09916998  0.10185820  0.50313812  1
  Nb  Nb110  1  0.30162768  0.10411026  0.69910619  1
  Nb  Nb111  1  0.50150139  0.30491791  0.89734516  1
  Nb  Nb112  1  0.89853068  0.89668300  0.90021887  1
  Nb  Nb113  1  0.70945043  0.10234036  0.70428190  1
  Nb  Nb114  1  0.49892157  0.50468875  0.69572831  1
  Nb  Nb115  1  0.10365589  0.30314410  0.29584281  1
  Nb  Nb116  1  0.49966213  0.89513102  0.30004992  1
  Nb  Nb117  1  0.30163425  0.49631663  0.70000848  1
  Nb  Nb118  1  0.30819039  0.51133816  0.50082689  1
  Nb  Nb119  1  0.09960795  0.29755238  0.90113179  1
  Nb  Nb120  1  0.89339969  0.70829341  0.70184656  1
  Nb  Nb121  1  0.90060886  0.30903620  0.50378138  1
  Nb  Nb122  1  0.50563826  0.70098942  0.09836969  1
  Nb  Nb123  1  0.90050208  0.50403750  0.89940353  1
  Nb  Nb124  1  0.69602030  0.49925193  0.50093577  1
  Nb  Nb125  1  0.59256066  0.79815896  0.40031008  1
  Nb  Nb126  1  0.20015204  0.80185529  0.20346005  1
  Nb  Nb127  1  0.19676419  0.59165702  -0.00473351  1
  Nb  Nb128  1  0.20122058  0.20045980  0.79717049  1
  Nb  Nb129  1  0.20539366  -0.00409771  0.20121486  1
  Nb  Nb130  1  0.00283959  0.39926128  -0.00542692  1
  Nb  Nb131  1  0.20477288  0.40448949  0.60318746  1
  Nb  Nb132  1  0.59332606  0.40373490  0.20414938  1
  Nb  Nb133  1  0.19724191  0.20251368  0.60421627  1
  Nb  Nb134  1  0.40649529  0.79445616  0.40564690  1
  Nb  Nb135  1  0.00052314  0.00327067  0.40434189  1
  Nb  Nb136  1  0.59438730  0.40117361  0.79979940  1
  Nb  Nb137  1  0.19380166  0.39865176  -0.00603951  1
  Nb  Nb138  1  0.19838119  0.20497077  -0.00811274  1
  Nb  Nb139  1  0.79884769  0.60519093  0.19893976  1
  Nb  Nb140  1  0.00060718  0.20633369  0.59357544  1
  Nb  Nb141  1  0.79136742  0.79269563  0.20208024  1
  Nb  Nb142  1  0.59288384  -0.00805979  0.19903887  1
  Nb  Nb143  1  0.59861738  0.79833858  0.20307492  1
  Nb  Nb144  1  -0.00429314  0.00115244  -0.00548155  1
  Nb  Nb145  1  0.20076877  0.00543289  0.79548461  1
  Nb  Nb146  1  0.40250866  -0.00557978  0.20200699  1
  Nb  Nb147  1  0.40126656  0.79489694  0.59311906  1
  Nb  Nb148  1  0.20034227  0.00914808  0.60447669  1
  Nb  Nb149  1  0.40488242  0.40784553  0.20864556  1
  Pd  Pd150  1  0.60937545  -0.00039083  0.79375040  1
  Pd  Pd151  1  0.60276415  0.19997350  0.41216489  1
  Pd  Pd152  1  0.60367769  0.20995846  0.79589339  1
  Pd  Pd153  1  0.60316326  0.40348267  0.39895098  1
  Pd  Pd154  1  0.19840147  0.41339730  0.40697248  1
  Pd  Pd155  1  0.39731009  0.40027291  0.60512673  1
  Pd  Pd156  1  0.19978068  0.61122205  0.19301862  1
  Pd  Pd157  1  0.20244351  0.19801360  0.40607973  1
  Pd  Pd158  1  0.79213605  0.40755255  0.60122434  1
  Pd  Pd159  1  0.19226928  0.00891011  0.39881451  1
  Pd  Pd160  1  0.79302698  0.79744101  0.40498055  1
  Pd  Pd161  1  0.60403599  0.19750039  0.60010752  1
  Pd  Pd162  1  -0.00699315  0.60477713  0.60539174  1
  Pd  Pd163  1  0.60285576  0.80142029  0.80412980  1
  Pd  Pd164  1  0.19847522  0.39996359  0.80068387  1
  Pd  Pd165  1  0.40514022  0.00029886  0.39723394  1
  Pd  Pd166  1  0.39894846  0.20264279  0.40732759  1
  Pd  Pd167  1  0.60699934  0.01097795  0.60931135  1
  Pd  Pd168  1  0.20686809  0.80189871  0.60551640  1
  Pd  Pd169  1  0.39827877  0.80049878  0.20349635  1
  Pd  Pd170  1  0.79481818  0.39687700  0.80389121  1
  Pd  Pd171  1  -0.00242957  0.60533438  0.78995822  1
  Pd  Pd172  1  0.80043540  0.20467065  0.19805488  1
  Pd  Pd173  1  0.20362034  0.59826473  0.59743694  1
  Pd  Pd174  1  0.59497584  0.00177282  0.39745958  1
  Pd  Pd175  1  0.00060206  0.80357280  0.40916135  1
  Pd  Pd176  1  0.39506522  0.20446963  -0.00490201  1
  Pd  Pd177  1  0.19677818  0.59926485  0.80179106  1
  Pd  Pd178  1  0.40290980  0.40936622  0.39850017  1
  Pd  Pd179  1  0.80170975  0.60498867  0.00436623  1
  Pd  Pd180  1  0.59714479  0.20320653  0.19531049  1
  Pd  Pd181  1  0.19067667  0.00704791  -0.00407227  1
  Pd  Pd182  1  0.80514087  0.00072262  0.40845027  1
  Pd  Pd183  1  -0.00476063  0.20207397  0.00668984  1
  Pd  Pd184  1  -0.00563890  0.60845305  0.20512080  1
  Pd  Pd185  1  0.79901795  0.20492074  0.40552173  1
  Pd  Pd186  1  0.20274919  0.19632275  0.19670370  1
  Pd  Pd187  1  0.80431694  0.59126499  0.40310720  1
  Pd  Pd188  1  0.40755542  0.78948842  0.79390087  1
  Pd  Pd189  1  0.40883099  0.00185705  0.00629602  1
  Pd  Pd190  1  0.39359826  0.60245734  -0.00388043  1
  Pd  Pd191  1  0.80880737  -0.00151134  0.00400560  1
  Pd  Pd192  1  0.19703338  0.78816771  0.00653093  1
  Pd  Pd193  1  0.39963432  0.59410241  0.19301751  1
  Pd  Pd194  1  0.80991383  0.39402114  -0.01034001  1
  Pd  Pd195  1  -0.00283126  0.19955790  0.39971493  1
  Pd  Pd196  1  0.00503439  0.40366787  0.39228473  1
  Pd  Pd197  1  0.39623918  0.20684309  0.59957740  1
  Pd  Pd198  1  0.00029369  0.79359333  0.19937498  1
  Pd  Pd199  1  0.80883491  0.59065191  0.60336173  1
  Rh  Rh200  1  0.00283936  -0.01416165  0.81064735  1
  Rh  Rh201  1  0.19723257  0.80358079  0.79354209  1
  Rh  Rh202  1  0.60133163  0.40020358  -0.00310732  1
  Rh  Rh203  1  0.40129884  0.20320918  0.20712506  1
  Rh  Rh204  1  0.79432275  -0.00682947  0.79719045  1
  Rh  Rh205  1  0.00006698  0.20904987  0.78637285  1
  Rh  Rh206  1  0.20403379  0.39813078  0.19972661  1
  Rh  Rh207  1  -0.00462314  0.79292893  0.60120165  1
  Rh  Rh208  1  0.20729521  0.78769214  0.39452251  1
  Rh  Rh209  1  0.39519404  -0.00585482  0.60315524  1
  Rh  Rh210  1  0.79803426  0.40035615  0.40306948  1
  Rh  Rh211  1  0.60073649  0.59965125  -0.00670146  1
  Rh  Rh212  1  0.00438950  0.39678335  0.20446432  1
  Rh  Rh213  1  0.01029572  0.39364140  0.59212727  1
  Rh  Rh214  1  0.60643926  0.59689411  0.19015622  1
  Rh  Rh215  1  -0.00298600  0.81067695  -0.00282861  1
  Rh  Rh216  1  0.79235499  0.20412089  0.80016230  1
  Rh  Rh217  1  0.40042848  0.20193715  0.80041880  1
  Rh  Rh218  1  0.39693954  0.59999189  0.60611765  1
  Rh  Rh219  1  0.39920056  0.00328316  0.79983729  1
  Rh  Rh220  1  0.20215895  0.59588860  0.40722781  1
  Rh  Rh221  1  0.59733888  0.59062263  0.80129463  1
  Rh  Rh222  1  0.80184337  0.20160212  0.59540924  1
  Rh  Rh223  1  -0.00429196  0.59508768  0.40251555  1
  Rh  Rh224  1  0.39215663  0.39969233  0.00870685  1
  Rh  Rh225  1  0.59707470  0.79710714  -0.00731117  1
  Rh  Rh226  1  0.80203987  0.79949678  0.00200653  1
  Rh  Rh227  1  0.59265760  0.00173067  0.00444226  1
  Rh  Rh228  1  0.59828159  0.59458783  0.41090577  1
  Rh  Rh229  1  0.00516096  0.00368845  0.59143043  1
  Rh  Rh230  1  -0.00534759  0.20618536  0.21005334  1
  Rh  Rh231  1  0.60872410  0.58969328  0.59993938  1
  Rh  Rh232  1  0.80267572  0.79735669  0.60123686  1
  Rh  Rh233  1  0.78472752  -0.00995890  0.18973901  1
  Rh  Rh234  1  0.00771748  0.58800881  -0.00775601  1
  Rh  Rh235  1  0.79372862  -0.00036065  0.60499255  1
  Rh  Rh236  1  0.41077195  0.39989492  0.78469925  1
  Rh  Rh237  1  -0.01025393  0.39614056  0.80899695  1
  Rh  Rh238  1  0.78883293  0.40539367  0.20767130  1
  Rh  Rh239  1  0.60147147  0.40502907  0.60823831  1
  Rh  Rh240  1  -0.00567160  0.79894732  0.79633730  1
  Rh  Rh241  1  0.40438052  0.59512053  0.40408050  1
  Rh  Rh242  1  0.81225637  0.59695278  0.79418577  1
  Rh  Rh243  1  0.80546884  0.19869683  0.00201813  1
  Rh  Rh244  1  0.40265260  0.60161017  0.79298768  1
  Rh  Rh245  1  0.60115662  0.20492303  -0.00069972  1
  Rh  Rh246  1  0.40459777  0.79148799  -0.01194122  1
  Rh  Rh247  1  0.00848565  0.00117563  0.20234932  1
  Rh  Rh248  1  0.59055081  0.79690675  0.58857612  1
  Rh  Rh249  1  0.80072594  0.80539812  0.80015021  1
