# generated using pymatgen
data_ZrScNbPdRh
_symmetry_space_group_name_H-M   'P 1'
_cell_length_a   16.55575907
_cell_length_b   16.55945734
_cell_length_c   16.56169063
_cell_angle_alpha   89.95768746
_cell_angle_beta   89.97257949
_cell_angle_gamma   90.04570333
_symmetry_Int_Tables_number   1
_chemical_formula_structural   ZrScNbPdRh
_chemical_formula_sum   'Zr50 Sc50 Nb50 Pd50 Rh50'
_cell_volume   4540.45692586
_cell_formula_units_Z   50
loop_
 _symmetry_equiv_pos_site_id
 _symmetry_equiv_pos_as_xyz
  1  'x, y, z'
loop_
 _atom_site_type_symbol
 _atom_site_label
 _atom_site_symmetry_multiplicity
 _atom_site_fract_x
 _atom_site_fract_y
 _atom_site_fract_z
 _atom_site_occupancy
  Zr  Zr0  1  0.69895502  0.49523074  0.49713427  1
  Zr  Zr1  1  0.70449094  0.10117460  0.30868417  1
  Zr  Zr2  1  0.09539712  0.89931802  0.09360426  1
  Zr  Zr3  1  0.88923301  0.10225566  0.50129525  1
  Zr  Zr4  1  0.29690817  0.90403476  0.49808568  1
  Zr  Zr5  1  0.90356056  0.70981752  0.30621623  1
  Zr  Zr6  1  0.10546062  0.70846545  0.89898048  1
  Zr  Zr7  1  0.69809276  0.49244106  0.10688822  1
  Zr  Zr8  1  0.70117723  0.49816372  0.70346750  1
  Zr  Zr9  1  0.90215942  0.10504047  0.90470975  1
  Zr  Zr10  1  0.29114629  0.09473083  0.29637857  1
  Zr  Zr11  1  0.91077136  0.29922478  0.50470669  1
  Zr  Zr12  1  0.50176181  0.89989048  0.10480660  1
  Zr  Zr13  1  0.09877013  0.90181363  0.50038982  1
  Zr  Zr14  1  0.70253425  0.89802640  0.10283288  1
  Zr  Zr15  1  0.69868011  0.89597525  0.69769274  1
  Zr  Zr16  1  0.09338251  0.70200216  0.29789977  1
  Zr  Zr17  1  0.50262033  0.51143145  0.89967645  1
  Zr  Zr18  1  0.09975389  0.70234544  0.70080015  1
  Zr  Zr19  1  0.11183829  0.90266832  0.90216406  1
  Zr  Zr20  1  0.29507888  0.09964123  0.70339070  1
  Zr  Zr21  1  0.69891575  0.49668139  0.29788535  1
  Zr  Zr22  1  0.90732606  0.68389519  0.90122669  1
  Zr  Zr23  1  0.49746738  0.09980184  0.29528218  1
  Zr  Zr24  1  0.10342227  0.90102619  0.70457878  1
  Zr  Zr25  1  0.50234836  0.29378291  0.70071108  1
  Zr  Zr26  1  0.30542412  0.69984864  0.29537540  1
  Zr  Zr27  1  0.49479836  0.50015135  0.70328371  1
  Zr  Zr28  1  0.09854386  0.30179222  0.09892470  1
  Zr  Zr29  1  0.49531526  0.10184572  0.09779357  1
  Zr  Zr30  1  0.08921135  0.30361544  0.30310993  1
  Zr  Zr31  1  0.89412951  0.90759998  0.70082870  1
  Zr  Zr32  1  0.29625087  0.30128949  0.49760441  1
  Zr  Zr33  1  0.90114141  0.90778602  0.29449949  1
  Zr  Zr34  1  0.49061652  0.88954563  0.50511129  1
  Zr  Zr35  1  0.10391288  0.30591612  0.50263986  1
  Zr  Zr36  1  0.09179957  0.29425293  0.69401548  1
  Zr  Zr37  1  0.30435802  0.30105571  0.30577688  1
  Zr  Zr38  1  0.49899560  0.49672432  0.49629419  1
  Zr  Zr39  1  0.50246090  0.49390224  0.29898030  1
  Zr  Zr40  1  0.89553698  0.50002898  0.70718993  1
  Zr  Zr41  1  0.89346548  0.29394847  0.09792483  1
  Zr  Zr42  1  0.70057391  0.90004852  0.30414278  1
  Zr  Zr43  1  0.90672183  0.70472486  0.09980676  1
  Zr  Zr44  1  0.50826011  0.89687084  0.89526450  1
  Zr  Zr45  1  0.09326566  0.69808249  0.50321621  1
  Zr  Zr46  1  0.49528739  0.29796928  0.49453142  1
  Zr  Zr47  1  0.71015643  0.30626985  0.28384811  1
  Zr  Zr48  1  0.49985736  0.10212604  0.89925990  1
  Zr  Zr49  1  0.09992022  0.10450951  0.09718506  1
  Sc  Sc50  1  0.08917623  0.90882263  0.30360961  1
  Sc  Sc51  1  0.89977717  0.47998099  0.30638029  1
  Sc  Sc52  1  0.10059199  0.09590930  0.90163734  1
  Sc  Sc53  1  0.50311051  0.89355058  0.29473186  1
  Sc  Sc54  1  0.29442934  0.10067524  0.49440061  1
  Sc  Sc55  1  0.49891666  0.70073581  0.69677464  1
  Sc  Sc56  1  0.70711713  0.29544141  0.90651033  1
  Sc  Sc57  1  0.29638255  0.10617198  0.89851025  1
  Sc  Sc58  1  0.29387643  0.50386829  0.50736004  1
  Sc  Sc59  1  0.10249584  0.09640390  0.48813563  1
  Sc  Sc60  1  0.29385850  0.29560528  0.70423906  1
  Sc  Sc61  1  0.10482223  0.50387339  0.68787690  1
  Sc  Sc62  1  0.70946845  0.50193251  0.90295222  1
  Sc  Sc63  1  0.49817362  0.09487681  0.70732691  1
  Sc  Sc64  1  0.29524972  0.68667692  0.69769202  1
  Sc  Sc65  1  0.69211848  0.70877368  0.30188675  1
  Sc  Sc66  1  0.51054777  0.10853835  0.48930910  1
  Sc  Sc67  1  0.68805063  0.28468140  0.50446675  1
  Sc  Sc68  1  0.90479754  0.49983106  0.50565623  1
  Sc  Sc69  1  0.69794433  0.70175660  0.09821619  1
  Sc  Sc70  1  0.90103223  0.70454706  0.50409822  1
  Sc  Sc71  1  0.50115966  0.50686174  0.10368461  1
  Sc  Sc72  1  0.70298405  0.90031062  0.90076117  1
  Sc  Sc73  1  0.50026202  0.28927828  0.10127370  1
  Sc  Sc74  1  0.90198847  0.49828975  0.08271233  1
  Sc  Sc75  1  0.49731418  0.29795738  0.30240565  1
  Sc  Sc76  1  0.89711082  0.90440725  0.10248009  1
  Sc  Sc77  1  0.70724234  0.70146404  0.69257224  1
  Sc  Sc78  1  0.30817168  0.70144085  0.50435860  1
  Sc  Sc79  1  0.10277886  0.29443057  0.91133081  1
  Sc  Sc80  1  0.09730078  0.49452822  0.49947549  1
  Sc  Sc81  1  0.30895854  0.50366789  0.29199700  1
  Sc  Sc82  1  0.49608489  0.70079007  0.49582139  1
  Sc  Sc83  1  0.70507895  0.09849834  0.69341869  1
  Sc  Sc84  1  0.29444505  0.09974211  0.10172749  1
  Sc  Sc85  1  0.31391210  0.69706967  0.10368800  1
  Sc  Sc86  1  0.68788630  0.70037463  0.90766658  1
  Sc  Sc87  1  0.49528016  0.28491355  0.89777862  1
  Sc  Sc88  1  0.30083155  0.90480599  0.10449969  1
  Sc  Sc89  1  0.30483586  0.90596849  0.69090346  1
  Sc  Sc90  1  0.90710800  0.69507022  0.69917518  1
  Sc  Sc91  1  0.50453050  0.70138010  0.09442266  1
  Sc  Sc92  1  0.90160842  0.90980028  0.90777138  1
  Sc  Sc93  1  0.89312614  0.89767600  0.49675168  1
  Sc  Sc94  1  0.30441375  0.50504766  0.10101457  1
  Sc  Sc95  1  0.29273938  0.29619727  0.09088933  1
  Sc  Sc96  1  0.09708299  0.49920606  0.91186740  1
  Sc  Sc97  1  0.70635545  0.11290035  0.10435071  1
  Sc  Sc98  1  0.30550651  0.50643814  0.89571533  1
  Sc  Sc99  1  0.49810652  0.70331668  0.30009445  1
  Nb  Nb100  1  0.69559775  0.09066625  0.50014462  1
  Nb  Nb101  1  0.70492382  0.70891957  0.49741330  1
  Nb  Nb102  1  0.30264870  0.70388959  0.90274156  1
  Nb  Nb103  1  0.90371562  0.09960194  0.10526374  1
  Nb  Nb104  1  0.29772128  0.89943136  0.90314023  1
  Nb  Nb105  1  0.10077457  0.50239328  0.29484798  1
  Nb  Nb106  1  0.30134487  0.49517579  0.70096013  1
  Nb  Nb107  1  0.70010657  0.30102249  0.70204868  1
  Nb  Nb108  1  0.09123812  0.10304153  0.70730936  1
  Nb  Nb109  1  0.69937390  0.10256200  0.90325239  1
  Nb  Nb110  1  0.30271114  0.89735497  0.29736554  1
  Nb  Nb111  1  0.70077029  0.89521903  0.50231480  1
  Nb  Nb112  1  0.49828408  0.89911046  0.69977484  1
  Nb  Nb113  1  0.90609798  0.10352316  0.29643442  1
  Nb  Nb114  1  0.90853756  0.10733458  0.70034185  1
  Nb  Nb115  1  0.90135051  0.29282981  0.29928549  1
  Nb  Nb116  1  0.49449201  0.70068664  0.90735811  1
  Nb  Nb117  1  0.08703377  0.09757014  0.29481658  1
  Nb  Nb118  1  0.09972974  0.69718346  0.10053644  1
  Nb  Nb119  1  0.30106737  0.30743618  0.90000050  1
  Nb  Nb120  1  0.89761675  0.30565274  0.89887560  1
  Nb  Nb121  1  0.70013212  0.30360338  0.09774857  1
  Nb  Nb122  1  0.90373293  0.29426944  0.70113012  1
  Nb  Nb123  1  0.89713379  0.49252163  0.89542643  1
  Nb  Nb124  1  0.10659852  0.50177095  0.10119066  1
  Nb  Nb125  1  0.80635419  0.20178522  0.79690277  1
  Nb  Nb126  1  0.80433903  0.79822723  0.80264518  1
  Nb  Nb127  1  0.39990347  0.79967549  0.80586363  1
  Nb  Nb128  1  0.40016750  0.20167661  0.59795827  1
  Nb  Nb129  1  0.40363340  -0.00165496  -0.00547571  1
  Nb  Nb130  1  0.80766897  0.59829134  0.20666880  1
  Nb  Nb131  1  -0.00000777  0.59452985  0.19805806  1
  Nb  Nb132  1  0.39705049  0.39565381  0.60415956  1
  Nb  Nb133  1  0.20056197  0.60845988  0.00233916  1
  Nb  Nb134  1  0.60067854  -0.00745240  0.59539249  1
  Nb  Nb135  1  0.79730026  0.60159315  0.39718316  1
  Nb  Nb136  1  0.59710862  0.39567670  -0.00260506  1
  Nb  Nb137  1  -0.00224435  0.00706242  0.60584949  1
  Nb  Nb138  1  0.19542752  0.40418727  0.19964606  1
  Nb  Nb139  1  0.19553020  0.60465671  0.39293329  1
  Nb  Nb140  1  -0.00190936  0.39683175  0.80232139  1
  Nb  Nb141  1  0.19766932  0.40103096  0.80168644  1
  Nb  Nb142  1  0.60041381  0.00708872  -0.00076849  1
  Nb  Nb143  1  0.19633517  0.79777115  0.20230979  1
  Nb  Nb144  1  0.20045612  0.79834282  0.39471965  1
  Nb  Nb145  1  0.39814178  -0.00354627  0.39413370  1
  Nb  Nb146  1  0.60094052  0.39650878  0.80495019  1
  Nb  Nb147  1  0.40468723  0.39915620  -0.00691825  1
  Nb  Nb148  1  0.60453145  0.59897433  0.59323685  1
  Nb  Nb149  1  0.79892036  0.39068031  0.60737562  1
  Pd  Pd150  1  0.00167741  0.19596165  0.40533845  1
  Pd  Pd151  1  0.79192340  0.61153989  0.80527259  1
  Pd  Pd152  1  0.39819177  0.61093031  0.79854187  1
  Pd  Pd153  1  0.79571449  0.20295546  0.60322448  1
  Pd  Pd154  1  0.20584630  0.41395270  0.39124552  1
  Pd  Pd155  1  0.60321965  0.60769912  0.20061226  1
  Pd  Pd156  1  0.60545776  0.60838788  0.40386410  1
  Pd  Pd157  1  -0.00350738  0.40480285  0.19256780  1
  Pd  Pd158  1  0.60585269  0.38643639  0.39356949  1
  Pd  Pd159  1  0.80425815  -0.00266911  0.39952753  1
  Pd  Pd160  1  0.21533098  0.80358460  0.79005374  1
  Pd  Pd161  1  0.79607449  0.20892867  0.40103635  1
  Pd  Pd162  1  0.19448936  0.59155127  0.80834265  1
  Pd  Pd163  1  0.39582158  0.39252725  0.18625745  1
  Pd  Pd164  1  0.19000994  -0.00836324  0.20079181  1
  Pd  Pd165  1  0.80438797  0.79525171  -0.00957360  1
  Pd  Pd166  1  0.18889681  0.01007903  0.60465251  1
  Pd  Pd167  1  0.39886590  0.80721634  0.00046674  1
  Pd  Pd168  1  0.80049999  0.39029683  0.41263635  1
  Pd  Pd169  1  -0.00524815  0.59029177  0.39572472  1
  Pd  Pd170  1  0.60912227  0.00336605  0.79643383  1
  Pd  Pd171  1  0.79846113  0.79414413  0.20266078  1
  Pd  Pd172  1  0.21058421  0.79476378  0.01492187  1
  Pd  Pd173  1  0.20630919  0.79482580  0.59795301  1
  Pd  Pd174  1  0.79388198  0.00770612  0.00807914  1
  Pd  Pd175  1  0.79570526  0.60130617  0.00658229  1
  Pd  Pd176  1  0.19568020  0.20870441  0.20607146  1
  Pd  Pd177  1  -0.00712430  0.80922113  0.60149108  1
  Pd  Pd178  1  0.60117423  0.79016587  0.79754587  1
  Pd  Pd179  1  0.39358715  0.59525758  0.40023201  1
  Pd  Pd180  1  0.19864526  0.19240859  0.59844892  1
  Pd  Pd181  1  0.60539771  0.60460689  0.79501059  1
  Pd  Pd182  1  0.79828804  0.59719863  0.59024740  1
  Pd  Pd183  1  0.58987546  -0.01193727  0.40609481  1
  Pd  Pd184  1  0.61112786  0.20011199  0.79906292  1
  Pd  Pd185  1  -0.00449121  0.80312080  -0.00706371  1
  Pd  Pd186  1  0.60951756  0.00601891  0.19434581  1
  Pd  Pd187  1  0.60241935  0.20186718  0.20411190  1
  Pd  Pd188  1  0.39260862  -0.00603399  0.80660016  1
  Pd  Pd189  1  -0.00865411  0.80660373  0.80787850  1
  Pd  Pd190  1  0.79653691  0.00535979  0.80078193  1
  Pd  Pd191  1  0.19235923  0.19944514  0.39054862  1
  Pd  Pd192  1  0.19455875  0.20602123  0.80666182  1
  Pd  Pd193  1  0.59746942  0.79530612  0.59744825  1
  Pd  Pd194  1  0.39068266  0.20338441  0.19735853  1
  Pd  Pd195  1  -0.00098225  0.39681621  -0.00242116  1
  Pd  Pd196  1  0.01249130  0.58784714  0.79962187  1
  Pd  Pd197  1  0.41069834  0.01462592  0.58779216  1
  Pd  Pd198  1  0.59835248  0.40291747  0.60619433  1
  Pd  Pd199  1  0.00145649  -0.00145549  0.80289591  1
  Rh  Rh200  1  0.59395361  0.18472092  0.60724294  1
  Rh  Rh201  1  0.20294821  -0.00029317  0.79920710  1
  Rh  Rh202  1  0.20555951  0.39821328  0.60969426  1
  Rh  Rh203  1  0.21474018  0.41384874  -0.00089257  1
  Rh  Rh204  1  0.39463785  0.79322555  0.61478800  1
  Rh  Rh205  1  0.00329705  0.80299892  0.19492800  1
  Rh  Rh206  1  0.00069099  0.81098520  0.40522513  1
  Rh  Rh207  1  0.80625375  0.80015800  0.60678919  1
  Rh  Rh208  1  0.79993816  0.80000205  0.39775282  1
  Rh  Rh209  1  0.60066212  0.79684419  0.19759750  1
  Rh  Rh210  1  0.00080583  0.00194897  0.19195379  1
  Rh  Rh211  1  0.00763691  0.59938701  0.00262471  1
  Rh  Rh212  1  -0.00269880  0.20074372  0.19725183  1
  Rh  Rh213  1  0.81292994  0.40449917  0.19075349  1
  Rh  Rh214  1  0.60726916  0.20474805  0.38775329  1
  Rh  Rh215  1  0.39189968  0.40877003  0.40665449  1
  Rh  Rh216  1  0.19692046  0.60262016  0.59076833  1
  Rh  Rh217  1  0.20150109  0.19532361  -0.00392105  1
  Rh  Rh218  1  0.80285678  0.19808056  -0.00289768  1
  Rh  Rh219  1  0.39219655  0.20087263  0.79354116  1
  Rh  Rh220  1  0.39051807  0.19911549  -0.00044583  1
  Rh  Rh221  1  0.39520383  0.80551816  0.39638443  1
  Rh  Rh222  1  0.39665716  0.18724339  0.40125126  1
  Rh  Rh223  1  0.80618186  0.19651440  0.20289057  1
  Rh  Rh224  1  0.00071808  0.40083045  0.40242969  1
  Rh  Rh225  1  -0.01011120  0.00563011  0.40870595  1
  Rh  Rh226  1  0.01020790  0.18790384  0.58846635  1
  Rh  Rh227  1  0.39887339  0.39367102  0.79990792  1
  Rh  Rh228  1  -0.00733286  0.40647966  0.60990419  1
  Rh  Rh229  1  0.59758605  0.80296966  0.40340728  1
  Rh  Rh230  1  0.20831222  0.00313499  -0.00131408  1
  Rh  Rh231  1  0.79850823  0.00042246  0.59871305  1
  Rh  Rh232  1  0.19437208  0.60079181  0.19832684  1
  Rh  Rh233  1  0.39947612  0.00047195  0.20020205  1
  Rh  Rh234  1  0.60786203  0.20138812  0.00249600  1
  Rh  Rh235  1  0.58903933  0.39155838  0.19233923  1
  Rh  Rh236  1  0.20240139  -0.00677190  0.38836642  1
  Rh  Rh237  1  0.79978148  0.39034891  0.79730888  1
  Rh  Rh238  1  0.60031928  0.80768757  0.00274972  1
  Rh  Rh239  1  0.60280065  0.59249297  0.00386422  1
  Rh  Rh240  1  0.41489474  0.60192572  0.20108554  1
  Rh  Rh241  1  -0.00236384  0.20004121  0.00074932  1
  Rh  Rh242  1  0.79373645  0.40032209  0.00276768  1
  Rh  Rh243  1  0.00076779  0.59814634  0.60244585  1
  Rh  Rh244  1  0.40654991  0.59219234  0.59937194  1
  Rh  Rh245  1  0.39575621  0.59615671  -0.00012651  1
  Rh  Rh246  1  0.00090822  0.00417642  0.00365764  1
  Rh  Rh247  1  0.39923425  0.79957948  0.19657487  1
  Rh  Rh248  1  -0.00231595  0.20626792  0.81316152  1
  Rh  Rh249  1  0.80016621  0.00978994  0.20103656  1
