# generated using pymatgen
data_ZrScNbPdRh
_symmetry_space_group_name_H-M   'P 1'
_cell_length_a   16.56236293
_cell_length_b   16.55637643
_cell_length_c   16.56022064
_cell_angle_alpha   90.00149009
_cell_angle_beta   89.97850809
_cell_angle_gamma   90.00598346
_symmetry_Int_Tables_number   1
_chemical_formula_structural   ZrScNbPdRh
_chemical_formula_sum   'Zr50 Sc50 Nb50 Pd50 Rh50'
_cell_volume   4541.02272260
_cell_formula_units_Z   50
loop_
 _symmetry_equiv_pos_site_id
 _symmetry_equiv_pos_as_xyz
  1  'x, y, z'
loop_
 _atom_site_type_symbol
 _atom_site_label
 _atom_site_symmetry_multiplicity
 _atom_site_fract_x
 _atom_site_fract_y
 _atom_site_fract_z
 _atom_site_occupancy
  Zr  Zr0  1  0.90470054  0.70782652  0.30489233  1
  Zr  Zr1  1  0.89113151  0.29651042  0.29739446  1
  Zr  Zr2  1  0.09600834  0.70320865  0.10732630  1
  Zr  Zr3  1  0.69966987  0.09497758  0.69432533  1
  Zr  Zr4  1  0.70549800  0.49213204  0.29967422  1
  Zr  Zr5  1  0.29246240  0.49813235  0.70079921  1
  Zr  Zr6  1  0.49453724  0.70049947  0.10146837  1
  Zr  Zr7  1  0.10012629  0.09603167  0.09131030  1
  Zr  Zr8  1  0.69477358  0.09442041  0.10533033  1
  Zr  Zr9  1  0.70917215  0.49966684  0.70194493  1
  Zr  Zr10  1  0.10053968  0.69221945  0.30160954  1
  Zr  Zr11  1  0.30316759  0.49695708  0.50355241  1
  Zr  Zr12  1  0.70217657  0.90183618  0.49878313  1
  Zr  Zr13  1  0.70613911  0.71870787  0.09479299  1
  Zr  Zr14  1  0.50720717  0.49846789  0.69686042  1
  Zr  Zr15  1  0.09477669  0.30155386  0.09855183  1
  Zr  Zr16  1  0.89920897  0.50161395  0.50903248  1
  Zr  Zr17  1  0.28725774  0.70561832  0.70186057  1
  Zr  Zr18  1  0.09608190  0.10543563  0.50514080  1
  Zr  Zr19  1  0.29680455  0.89843402  0.50360969  1
  Zr  Zr20  1  0.09068336  0.29772691  0.29956525  1
  Zr  Zr21  1  0.70141290  0.50277635  0.49398160  1
  Zr  Zr22  1  0.89217187  0.50429182  0.30306083  1
  Zr  Zr23  1  0.69924190  0.30019662  0.49245598  1
  Zr  Zr24  1  0.70327016  0.09711814  0.50040597  1
  Zr  Zr25  1  0.70735361  0.50740263  0.89367025  1
  Zr  Zr26  1  0.30163868  0.50297170  0.90314846  1
  Zr  Zr27  1  0.29955498  0.89901469  0.89533223  1
  Zr  Zr28  1  0.89447507  0.10597573  0.69238643  1
  Zr  Zr29  1  0.50069994  0.70280484  0.89805787  1
  Zr  Zr30  1  0.09827385  0.49475515  0.50411996  1
  Zr  Zr31  1  0.09394090  0.68920628  0.50925382  1
  Zr  Zr32  1  0.10067240  0.09245755  0.89659807  1
  Zr  Zr33  1  0.89558716  0.10181736  0.90155769  1
  Zr  Zr34  1  0.09493088  0.90467542  0.89883435  1
  Zr  Zr35  1  0.29982164  0.70751164  0.29313674  1
  Zr  Zr36  1  0.09983307  0.88835911  0.29588394  1
  Zr  Zr37  1  0.10087392  0.29761520  0.68614824  1
  Zr  Zr38  1  0.91061912  0.29720492  0.50249627  1
  Zr  Zr39  1  0.10769058  0.50355998  0.09770730  1
  Zr  Zr40  1  0.09333569  0.09221278  0.30790382  1
  Zr  Zr41  1  0.30753661  0.09525145  0.30234162  1
  Zr  Zr42  1  0.50177406  0.49643246  0.90306428  1
  Zr  Zr43  1  0.69123455  0.89208607  0.69198121  1
  Zr  Zr44  1  0.30260147  0.70340728  0.89922462  1
  Zr  Zr45  1  0.30637459  0.89939303  0.30707660  1
  Zr  Zr46  1  0.70300268  0.30100267  0.90454812  1
  Zr  Zr47  1  0.50831925  0.90497812  0.50086564  1
  Zr  Zr48  1  0.51311697  0.90513689  0.11542089  1
  Zr  Zr49  1  0.50130495  0.49687600  0.49948136  1
  Sc  Sc50  1  0.70088164  0.29418652  0.69251476  1
  Sc  Sc51  1  0.10670902  0.90764764  0.49567622  1
  Sc  Sc52  1  0.30170127  0.30113330  0.89152570  1
  Sc  Sc53  1  0.91011487  0.88919544  0.70279568  1
  Sc  Sc54  1  0.71516098  0.69600740  0.30048667  1
  Sc  Sc55  1  0.51608350  0.71344339  0.70905066  1
  Sc  Sc56  1  0.90058343  0.70100278  0.09878758  1
  Sc  Sc57  1  0.30094507  0.50672471  0.29567852  1
  Sc  Sc58  1  0.50437400  0.90249144  0.70809716  1
  Sc  Sc59  1  0.50541707  0.09889885  0.71115280  1
  Sc  Sc60  1  0.29331233  0.29667059  0.70283903  1
  Sc  Sc61  1  0.49866083  0.49438364  0.09429616  1
  Sc  Sc62  1  0.89671376  0.09668335  0.49464750  1
  Sc  Sc63  1  0.28933919  0.69946142  0.49916124  1
  Sc  Sc64  1  0.30650084  0.30491760  0.49970781  1
  Sc  Sc65  1  0.70092007  0.89668338  0.91777632  1
  Sc  Sc66  1  0.29077989  0.10368439  0.70668726  1
  Sc  Sc67  1  0.49601749  0.50434914  0.30573747  1
  Sc  Sc68  1  0.49780335  0.10681639  0.89982843  1
  Sc  Sc69  1  0.50753591  0.69829572  0.49177102  1
  Sc  Sc70  1  0.09935404  0.30279599  0.90270034  1
  Sc  Sc71  1  0.70046399  0.10359289  0.90511703  1
  Sc  Sc72  1  0.09558798  0.69777285  0.89553577  1
  Sc  Sc73  1  0.89420892  0.10589751  0.09712431  1
  Sc  Sc74  1  0.50235382  0.29673803  0.70121123  1
  Sc  Sc75  1  0.50716460  0.09675485  0.49004589  1
  Sc  Sc76  1  0.69686866  0.48714027  0.09884335  1
  Sc  Sc77  1  0.50185971  0.09016729  0.30158994  1
  Sc  Sc78  1  0.90834235  0.89771516  0.90227985  1
  Sc  Sc79  1  0.90500369  0.50895605  0.09182252  1
  Sc  Sc80  1  0.69436620  0.29576107  0.10861887  1
  Sc  Sc81  1  0.50007236  0.29783673  0.30773918  1
  Sc  Sc82  1  0.29583715  0.10471839  0.89721135  1
  Sc  Sc83  1  0.28861958  0.09274472  0.50105058  1
  Sc  Sc84  1  0.29093622  0.89875392  0.70448946  1
  Sc  Sc85  1  0.29077432  0.30482551  0.08688665  1
  Sc  Sc86  1  0.89677179  0.89251101  0.49355493  1
  Sc  Sc87  1  0.10758178  0.10241334  0.69948426  1
  Sc  Sc88  1  0.50221029  0.30706611  0.50158593  1
  Sc  Sc89  1  0.49604907  0.89897244  0.89721946  1
  Sc  Sc90  1  0.30567009  0.69342171  0.10159547  1
  Sc  Sc91  1  0.89693211  0.10351449  0.30306455  1
  Sc  Sc92  1  0.49183621  0.69873476  0.29811391  1
  Sc  Sc93  1  0.30519406  0.89331938  0.11191305  1
  Sc  Sc94  1  0.89206516  0.89245492  0.09657112  1
  Sc  Sc95  1  0.09687107  0.50589216  0.69799610  1
  Sc  Sc96  1  0.09531535  0.70142084  0.70258210  1
  Sc  Sc97  1  0.89531652  0.30789234  0.69846573  1
  Sc  Sc98  1  0.49589754  0.29849484  0.90622647  1
  Sc  Sc99  1  0.09286516  0.50756319  0.89451846  1
  Nb  Nb100  1  0.29877627  0.29857721  0.29841189  1
  Nb  Nb101  1  0.70021450  0.69763704  0.89305604  1
  Nb  Nb102  1  0.30692997  0.49927792  0.09541715  1
  Nb  Nb103  1  0.89743559  0.49884264  0.88863583  1
  Nb  Nb104  1  0.09661327  0.49720254  0.29761204  1
  Nb  Nb105  1  0.89161198  0.70366825  0.50385659  1
  Nb  Nb106  1  0.89969837  0.50136905  0.70971747  1
  Nb  Nb107  1  0.70049271  0.90215484  0.10975269  1
  Nb  Nb108  1  0.49523674  0.10343258  0.10302881  1
  Nb  Nb109  1  0.10061216  0.29950337  0.49871202  1
  Nb  Nb110  1  0.09552563  0.89919140  0.09693778  1
  Nb  Nb111  1  0.89958803  0.30004149  0.90195737  1
  Nb  Nb112  1  0.90259875  0.70155139  0.69421139  1
  Nb  Nb113  1  0.70973639  0.71071007  0.50467899  1
  Nb  Nb114  1  0.10100644  0.89771230  0.70463806  1
  Nb  Nb115  1  0.70018258  0.70218121  0.70390903  1
  Nb  Nb116  1  0.49854351  0.30060559  0.09937935  1
  Nb  Nb117  1  0.30016148  0.09639451  0.10497849  1
  Nb  Nb118  1  0.90361576  0.89991538  0.30062914  1
  Nb  Nb119  1  0.90205353  0.29904058  0.09350048  1
  Nb  Nb120  1  0.89561684  0.68867613  0.89981027  1
  Nb  Nb121  1  0.50449492  0.90258065  0.30728349  1
  Nb  Nb122  1  0.70696031  0.29726378  0.29904026  1
  Nb  Nb123  1  0.70185541  0.90483423  0.28596478  1
  Nb  Nb124  1  0.70579904  0.11006213  0.30064312  1
  Nb  Nb125  1  0.40155557  0.60115194  0.79385670  1
  Nb  Nb126  1  0.19768901  0.20665672  0.39644164  1
  Nb  Nb127  1  0.40567994  0.60823905  0.60699568  1
  Nb  Nb128  1  0.20238008  0.19610355  0.20168083  1
  Nb  Nb129  1  0.80939562  0.39743496  -0.00576935  1
  Nb  Nb130  1  0.19566558  0.80325878  0.00450931  1
  Nb  Nb131  1  0.60482279  0.60572760  0.00059183  1
  Nb  Nb132  1  0.60713487  0.60571418  0.60091276  1
  Nb  Nb133  1  0.39583126  0.39286981  0.19525651  1
  Nb  Nb134  1  0.19582343  -0.00070343  0.19889136  1
  Nb  Nb135  1  0.60894544  0.80660130  0.39329933  1
  Nb  Nb136  1  0.19496148  0.39768562  0.39444731  1
  Nb  Nb137  1  0.39980075  0.19076367  0.59963503  1
  Nb  Nb138  1  0.00354638  -0.00179539  0.60206755  1
  Nb  Nb139  1  0.40240027  0.80017029  0.60122476  1
  Nb  Nb140  1  0.79864857  0.79392717  0.80074797  1
  Nb  Nb141  1  0.39787317  0.20318217  0.19292984  1
  Nb  Nb142  1  0.39946096  -0.00004425  0.60272430  1
  Nb  Nb143  1  -0.00403062  0.20237750  0.80068325  1
  Nb  Nb144  1  0.60368326  0.60077746  0.19418734  1
  Nb  Nb145  1  0.00040023  -0.00697273  0.19771513  1
  Nb  Nb146  1  0.40038120  0.00566323  0.01057455  1
  Nb  Nb147  1  0.60596786  0.40191934  0.80176713  1
  Nb  Nb148  1  -0.00138141  0.40258204  0.19853682  1
  Nb  Nb149  1  0.79857448  -0.00702224  0.79729385  1
  Pd  Pd150  1  0.39660392  0.19757973  0.40623659  1
  Pd  Pd151  1  0.79388559  0.59610442  0.00762393  1
  Pd  Pd152  1  0.59070125  0.00212698  -0.00290690  1
  Pd  Pd153  1  0.81321523  -0.01472312  0.60600393  1
  Pd  Pd154  1  0.80019974  0.19910092  0.79779280  1
  Pd  Pd155  1  0.00705518  0.80759629  0.59154338  1
  Pd  Pd156  1  0.19751996  0.60953124  -0.00052381  1
  Pd  Pd157  1  0.18953376  0.40155190  0.80255173  1
  Pd  Pd158  1  0.60123877  0.19860271  0.00348480  1
  Pd  Pd159  1  0.80245413  -0.00444844  -0.00213965  1
  Pd  Pd160  1  -0.00849423  0.00834706  0.78890492  1
  Pd  Pd161  1  -0.00084708  0.19422141  0.19713506  1
  Pd  Pd162  1  0.79866697  -0.00207234  0.39129246  1
  Pd  Pd163  1  -0.00359875  0.40977615  -0.00001222  1
  Pd  Pd164  1  0.00755118  0.79971946  0.41044630  1
  Pd  Pd165  1  0.60110318  0.78881998  0.21160833  1
  Pd  Pd166  1  0.19162235  0.79443274  0.40556814  1
  Pd  Pd167  1  -0.00357727  0.59524525  0.20031401  1
  Pd  Pd168  1  0.81022658  0.00402040  0.20152054  1
  Pd  Pd169  1  0.58834123  0.40320319  0.20831338  1
  Pd  Pd170  1  0.20487858  0.59917773  0.19802792  1
  Pd  Pd171  1  0.21185030  -0.01049988  0.00621925  1
  Pd  Pd172  1  0.61036242  0.61021447  0.39522792  1
  Pd  Pd173  1  0.59128498  0.19512892  0.59652584  1
  Pd  Pd174  1  0.40649405  0.39977642  0.79491111  1
  Pd  Pd175  1  0.20261826  0.19963845  -0.00201121  1
  Pd  Pd176  1  0.39284922  0.60616405  0.40795304  1
  Pd  Pd177  1  0.00210339  0.19610411  -0.00828398  1
  Pd  Pd178  1  0.00069807  0.79242271  -0.00376422  1
  Pd  Pd179  1  -0.00370833  0.40304719  0.39523290  1
  Pd  Pd180  1  0.00450314  0.39323527  0.79419117  1
  Pd  Pd181  1  0.59256442  0.19770990  0.20853166  1
  Pd  Pd182  1  0.39871658  0.81152477  0.00708979  1
  Pd  Pd183  1  0.80949480  0.39912721  0.18704793  1
  Pd  Pd184  1  0.39521813  0.00624866  0.80054322  1
  Pd  Pd185  1  -0.00625554  0.59860069  0.40464048  1
  Pd  Pd186  1  0.59893075  0.39857003  0.39176691  1
  Pd  Pd187  1  0.60230719  0.20729949  0.80326646  1
  Pd  Pd188  1  0.40726063  0.79772617  0.40775845  1
  Pd  Pd189  1  0.20252471  0.59169570  0.39848802  1
  Pd  Pd190  1  0.39215978  0.19854122  0.00182979  1
  Pd  Pd191  1  0.20067436  0.39760214  0.20289027  1
  Pd  Pd192  1  0.60054527  0.19927230  0.39592588  1
  Pd  Pd193  1  0.39859475  0.39162303  0.60967316  1
  Pd  Pd194  1  0.79407245  0.59950897  0.18796776  1
  Pd  Pd195  1  0.79799206  0.39546813  0.59604319  1
  Pd  Pd196  1  0.19798621  0.40465098  -0.00996853  1
  Pd  Pd197  1  0.61090323  -0.00432493  0.81250555  1
  Pd  Pd198  1  0.79726979  0.60372352  0.60300089  1
  Pd  Pd199  1  0.59564531  0.80066784  -0.00176246  1
  Rh  Rh200  1  0.80629625  0.80321894  0.20427164  1
  Rh  Rh201  1  -0.00289753  0.19519168  0.60467424  1
  Rh  Rh202  1  0.61148037  0.81123593  0.81270522  1
  Rh  Rh203  1  -0.00684230  0.79010451  0.80472093  1
  Rh  Rh204  1  -0.00890690  0.80426385  0.19761360  1
  Rh  Rh205  1  0.80410197  0.60430879  0.40661184  1
  Rh  Rh206  1  0.39861001  -0.00162675  0.41141379  1
  Rh  Rh207  1  -0.00585818  -0.00491908  0.40225495  1
  Rh  Rh208  1  0.20126244  0.00245302  0.39179290  1
  Rh  Rh209  1  0.39278628  0.40324381  0.38953568  1
  Rh  Rh210  1  -0.00050929  0.60005196  -0.00584066  1
  Rh  Rh211  1  0.20140855  0.80053076  0.19426308  1
  Rh  Rh212  1  0.19370594  0.80142922  0.59975840  1
  Rh  Rh213  1  -0.00785903  0.59818509  0.60542933  1
  Rh  Rh214  1  0.19636302  -0.00506285  0.60993452  1
  Rh  Rh215  1  0.80120708  0.20246663  0.40471390  1
  Rh  Rh216  1  0.60217838  0.00984070  0.20765594  1
  Rh  Rh217  1  0.60865391  0.40215646  -0.00787075  1
  Rh  Rh218  1  0.80459870  0.80271551  0.60907037  1
  Rh  Rh219  1  0.81009609  0.61132054  0.78998290  1
  Rh  Rh220  1  0.40689414  0.59892972  -0.00484388  1
  Rh  Rh221  1  0.19995769  0.39819997  0.59381547  1
  Rh  Rh222  1  -0.00606475  0.60398303  0.79542148  1
  Rh  Rh223  1  0.59283896  0.59417750  0.80038138  1
  Rh  Rh224  1  0.40717880  0.58666345  0.19423499  1
  Rh  Rh225  1  0.79931580  0.20630159  0.59040609  1
  Rh  Rh226  1  0.21230814  0.20611967  0.58789786  1
  Rh  Rh227  1  0.79497922  0.80505013  0.39078857  1
  Rh  Rh228  1  0.39677623  0.39365658  0.00433020  1
  Rh  Rh229  1  0.80689118  0.79799159  -0.01152397  1
  Rh  Rh230  1  -0.01143868  0.00215122  0.00999126  1
  Rh  Rh231  1  0.20413971  0.59910169  0.80132480  1
  Rh  Rh232  1  0.20116171  0.59877225  0.60252449  1
  Rh  Rh233  1  0.60892846  0.40543353  0.60485176  1
  Rh  Rh234  1  0.59009275  0.00927620  0.60297466  1
  Rh  Rh235  1  0.79748471  0.39225814  0.80387174  1
  Rh  Rh236  1  0.79815494  0.19880242  0.19392762  1
  Rh  Rh237  1  0.61535787  -0.00167071  0.38951594  1
  Rh  Rh238  1  0.40142590  -0.00170286  0.19942743  1
  Rh  Rh239  1  0.39959776  0.79435664  0.78870666  1
  Rh  Rh240  1  0.20023100  -0.00159419  0.79791096  1
  Rh  Rh241  1  0.79289954  0.20774726  0.00876254  1
  Rh  Rh242  1  0.18941092  0.80231569  0.81024752  1
  Rh  Rh243  1  0.40756857  0.80609332  0.20380824  1
  Rh  Rh244  1  -0.00183502  0.19653441  0.40376763  1
  Rh  Rh245  1  0.39956994  0.20134686  0.79262627  1
  Rh  Rh246  1  -0.00064047  0.40456244  0.60722553  1
  Rh  Rh247  1  0.59424564  0.79132403  0.58786943  1
  Rh  Rh248  1  0.80547402  0.39383437  0.40572464  1
  Rh  Rh249  1  0.18797765  0.20481073  0.80680602  1
