# generated using pymatgen
data_ZrScNbPdRh
_symmetry_space_group_name_H-M   'P 1'
_cell_length_a   16.55619898
_cell_length_b   16.55861010
_cell_length_c   16.55658020
_cell_angle_alpha   90.02634337
_cell_angle_beta   90.00417707
_cell_angle_gamma   89.98429734
_symmetry_Int_Tables_number   1
_chemical_formula_structural   ZrScNbPdRh
_chemical_formula_sum   'Zr50 Sc50 Nb50 Pd50 Rh50'
_cell_volume   4538.94678838
_cell_formula_units_Z   50
loop_
 _symmetry_equiv_pos_site_id
 _symmetry_equiv_pos_as_xyz
  1  'x, y, z'
loop_
 _atom_site_type_symbol
 _atom_site_label
 _atom_site_symmetry_multiplicity
 _atom_site_fract_x
 _atom_site_fract_y
 _atom_site_fract_z
 _atom_site_occupancy
  Zr  Zr0  1  0.89477221  0.29355612  0.49967812  1
  Zr  Zr1  1  0.10123028  0.09711347  0.29548405  1
  Zr  Zr2  1  0.90882448  0.51147166  0.09940692  1
  Zr  Zr3  1  0.68869149  0.68829305  0.49914988  1
  Zr  Zr4  1  0.70129980  0.09948215  0.89702416  1
  Zr  Zr5  1  0.69380178  0.29984389  0.90776708  1
  Zr  Zr6  1  0.70643043  0.90419722  0.09595784  1
  Zr  Zr7  1  0.48941202  0.50294059  0.10343164  1
  Zr  Zr8  1  0.10890576  0.69092116  0.09450556  1
  Zr  Zr9  1  0.50123140  0.89709004  0.29785227  1
  Zr  Zr10  1  0.89660173  0.69237614  0.29349098  1
  Zr  Zr11  1  0.30765147  0.29559222  0.50211035  1
  Zr  Zr12  1  0.50165775  0.09714465  0.29098392  1
  Zr  Zr13  1  0.09831935  0.29487634  0.29579657  1
  Zr  Zr14  1  0.50790574  0.70121318  0.90793948  1
  Zr  Zr15  1  0.29478023  0.08640204  0.10006266  1
  Zr  Zr16  1  0.88915997  0.69799727  0.70773509  1
  Zr  Zr17  1  0.09781245  0.09060848  0.49492451  1
  Zr  Zr18  1  0.49841347  0.69435750  0.09934246  1
  Zr  Zr19  1  0.09889002  0.10345624  0.10192767  1
  Zr  Zr20  1  0.31010890  0.09854533  0.70158431  1
  Zr  Zr21  1  0.09173604  0.29534073  0.70823695  1
  Zr  Zr22  1  0.69657555  0.51076938  0.29983326  1
  Zr  Zr23  1  0.90397760  0.90671360  0.49150357  1
  Zr  Zr24  1  0.89500606  0.89619466  0.10986024  1
  Zr  Zr25  1  0.29603510  0.29036020  0.89939773  1
  Zr  Zr26  1  0.69935130  0.89617040  0.29055988  1
  Zr  Zr27  1  0.29732918  0.49781773  0.69633736  1
  Zr  Zr28  1  0.10211995  0.69476550  0.71009647  1
  Zr  Zr29  1  0.49219607  0.90846005  0.70510576  1
  Zr  Zr30  1  0.29727787  0.70753684  0.70400372  1
  Zr  Zr31  1  0.89985711  0.09403986  0.30346236  1
  Zr  Zr32  1  0.29793360  0.50425997  0.50397329  1
  Zr  Zr33  1  0.69695287  0.70526917  0.09764850  1
  Zr  Zr34  1  0.89942647  0.49694334  0.49691734  1
  Zr  Zr35  1  0.09652216  0.90035227  0.30780005  1
  Zr  Zr36  1  0.51285665  0.50610281  0.50374810  1
  Zr  Zr37  1  0.30361207  0.30424830  0.29898049  1
  Zr  Zr38  1  0.89640799  0.30070868  0.69721935  1
  Zr  Zr39  1  0.30204356  0.89574885  0.51708992  1
  Zr  Zr40  1  0.29230588  0.09639330  0.29909844  1
  Zr  Zr41  1  0.68930731  0.10756163  0.10443622  1
  Zr  Zr42  1  0.10212070  0.50160382  0.30256219  1
  Zr  Zr43  1  0.10092445  0.90106029  0.49956288  1
  Zr  Zr44  1  0.29701821  0.09929950  0.50047616  1
  Zr  Zr45  1  0.70401939  0.70072731  0.89958884  1
  Zr  Zr46  1  0.50504404  0.69975272  0.30614554  1
  Zr  Zr47  1  0.90489793  0.49847616  0.30258448  1
  Zr  Zr48  1  0.10122092  0.49983643  0.50000704  1
  Zr  Zr49  1  0.49497874  0.50550878  0.29412799  1
  Sc  Sc50  1  0.69371410  0.50516475  0.69462925  1
  Sc  Sc51  1  0.70005738  0.90913210  0.69761589  1
  Sc  Sc52  1  0.89769085  0.50781409  0.89956188  1
  Sc  Sc53  1  0.70052778  0.09889781  0.69116558  1
  Sc  Sc54  1  0.90116511  0.30247168  0.88572383  1
  Sc  Sc55  1  0.50764958  0.29953167  0.49906053  1
  Sc  Sc56  1  0.11294848  0.89940623  0.69863407  1
  Sc  Sc57  1  0.89983802  0.11229820  0.69895861  1
  Sc  Sc58  1  0.70532048  0.90729859  0.50457182  1
  Sc  Sc59  1  0.70779706  0.29846607  0.69423444  1
  Sc  Sc60  1  0.50047046  0.09444160  0.10175783  1
  Sc  Sc61  1  0.11279022  0.70120197  0.30087354  1
  Sc  Sc62  1  0.50630301  0.11180079  0.50543754  1
  Sc  Sc63  1  0.49266492  0.29720352  0.69658188  1
  Sc  Sc64  1  0.09489226  0.90551118  0.09377223  1
  Sc  Sc65  1  0.10689248  0.50608494  0.70148586  1
  Sc  Sc66  1  0.89883194  0.90250654  0.92444687  1
  Sc  Sc67  1  0.10315539  0.10097045  0.70198188  1
  Sc  Sc68  1  0.49616506  0.88762253  0.50037640  1
  Sc  Sc69  1  0.89260393  0.69840334  0.49882350  1
  Sc  Sc70  1  0.10091234  0.29973843  0.90383147  1
  Sc  Sc71  1  0.49727675  0.30326289  0.30589785  1
  Sc  Sc72  1  0.09418251  0.29359126  0.49655629  1
  Sc  Sc73  1  0.70773684  0.49736579  0.09367734  1
  Sc  Sc74  1  0.49001427  0.90111667  0.09929281  1
  Sc  Sc75  1  0.10615415  0.10543480  0.89858508  1
  Sc  Sc76  1  0.90272683  0.10395081  0.90282875  1
  Sc  Sc77  1  0.90060168  0.29364189  0.30588272  1
  Sc  Sc78  1  0.90015072  0.08330180  0.10259640  1
  Sc  Sc79  1  0.30878035  0.49808218  0.29023336  1
  Sc  Sc80  1  0.70006744  0.10698469  0.50022981  1
  Sc  Sc81  1  0.29268983  0.09652969  0.89532703  1
  Sc  Sc82  1  0.10163592  0.69903951  0.90074032  1
  Sc  Sc83  1  0.49762345  0.30223693  0.89732905  1
  Sc  Sc84  1  0.29507606  0.89907713  0.28600618  1
  Sc  Sc85  1  0.09430111  0.50478583  0.90481874  1
  Sc  Sc86  1  0.28873541  0.31594331  0.09704008  1
  Sc  Sc87  1  0.30860330  0.48812971  0.91348767  1
  Sc  Sc88  1  0.11764254  0.69979099  0.49459773  1
  Sc  Sc89  1  0.88910418  0.89924806  0.68762249  1
  Sc  Sc90  1  0.70301126  0.89715324  0.90571338  1
  Sc  Sc91  1  0.89023578  0.49985003  0.70757398  1
  Sc  Sc92  1  0.30403722  0.29316557  0.69684327  1
  Sc  Sc93  1  0.69596063  0.50076268  0.89728451  1
  Sc  Sc94  1  0.29662224  0.71212407  0.90459478  1
  Sc  Sc95  1  0.49941434  0.70239663  0.70393702  1
  Sc  Sc96  1  0.51234168  0.29133183  0.09606924  1
  Sc  Sc97  1  0.50592054  0.49863730  0.90319126  1
  Sc  Sc98  1  0.89145844  0.31301215  0.10542505  1
  Sc  Sc99  1  0.69903726  0.10631194  0.29718431  1
  Nb  Nb100  1  0.29697268  0.89297724  0.08961632  1
  Nb  Nb101  1  0.09836632  0.30570334  0.09804697  1
  Nb  Nb102  1  0.49990842  0.90368490  0.89451351  1
  Nb  Nb103  1  0.69665449  0.30061679  0.49627860  1
  Nb  Nb104  1  0.69966581  0.29727192  0.10424459  1
  Nb  Nb105  1  0.89656182  0.09842953  0.49789477  1
  Nb  Nb106  1  0.29429012  0.50371050  0.10553408  1
  Nb  Nb107  1  0.50543998  0.09980284  0.70851430  1
  Nb  Nb108  1  0.30700553  0.89679826  0.71418642  1
  Nb  Nb109  1  0.89718261  0.89555956  0.29718017  1
  Nb  Nb110  1  0.31468164  0.69978156  0.49960240  1
  Nb  Nb111  1  0.29610498  0.70455749  0.10505829  1
  Nb  Nb112  1  0.30670229  0.69692252  0.30166437  1
  Nb  Nb113  1  0.49520998  0.70151772  0.49878641  1
  Nb  Nb114  1  0.69828059  0.49264760  0.50139920  1
  Nb  Nb115  1  0.49533490  0.50306242  0.70348093  1
  Nb  Nb116  1  0.10024903  0.90199778  0.89584340  1
  Nb  Nb117  1  0.50062500  0.09862401  0.89501302  1
  Nb  Nb118  1  0.11306312  0.49363594  0.10018152  1
  Nb  Nb119  1  0.29904927  0.89944316  0.89182236  1
  Nb  Nb120  1  0.90431256  0.70200299  0.09380645  1
  Nb  Nb121  1  0.70080760  0.70824539  0.70164181  1
  Nb  Nb122  1  0.69200595  0.70546088  0.29874063  1
  Nb  Nb123  1  0.70186755  0.29672942  0.29672785  1
  Nb  Nb124  1  0.90354805  0.69856535  0.90104792  1
  Nb  Nb125  1  -0.00277354  0.40407426  0.60067567  1
  Nb  Nb126  1  0.40117692  -0.00054517  0.40035191  1
  Nb  Nb127  1  -0.00305182  -0.00866192  0.80213704  1
  Nb  Nb128  1  0.20246405  0.39796688  0.40097853  1
  Nb  Nb129  1  0.40110479  0.59824262  0.79912472  1
  Nb  Nb130  1  0.79912391  0.20436383  0.00432222  1
  Nb  Nb131  1  0.00140468  0.79427831  0.60258231  1
  Nb  Nb132  1  0.00700008  0.40368860  0.19719960  1
  Nb  Nb133  1  0.59826167  0.19593842  0.79792618  1
  Nb  Nb134  1  0.59440855  -0.00210577  0.39775334  1
  Nb  Nb135  1  0.59530792  0.00015041  -0.00658034  1
  Nb  Nb136  1  0.79427661  0.79739259  0.39124976  1
  Nb  Nb137  1  0.60711496  0.39718916  0.20047131  1
  Nb  Nb138  1  0.60023902  0.79486254  0.60523465  1
  Nb  Nb139  1  0.40231924  0.60377709  0.60233792  1
  Nb  Nb140  1  0.39489530  0.19987608  0.19365019  1
  Nb  Nb141  1  0.39681097  0.19411683  0.00237849  1
  Nb  Nb142  1  -0.00014703  0.60221619  0.60169663  1
  Nb  Nb143  1  -0.00564812  0.80617705  0.80148927  1
  Nb  Nb144  1  0.20201845  0.39756791  0.80032293  1
  Nb  Nb145  1  0.60109971  0.80491568  0.79891937  1
  Nb  Nb146  1  0.78867785  0.39890785  0.40144029  1
  Nb  Nb147  1  0.80687131  0.00083798  0.80244942  1
  Nb  Nb148  1  -0.00347168  0.20613049  0.00821582  1
  Nb  Nb149  1  -0.00330171  0.79522772  0.19900220  1
  Pd  Pd150  1  0.59837800  0.39390363  0.60994442  1
  Pd  Pd151  1  0.79279810  0.60421185  0.19234858  1
  Pd  Pd152  1  0.21559198  0.80585461  0.40068153  1
  Pd  Pd153  1  0.39105152  0.60519878  -0.00580807  1
  Pd  Pd154  1  0.19726677  0.20501616  0.40135349  1
  Pd  Pd155  1  -0.00645366  0.78912978  0.40008778  1
  Pd  Pd156  1  0.19051794  0.80431557  0.19314774  1
  Pd  Pd157  1  0.00564519  0.41233041  0.79476241  1
  Pd  Pd158  1  0.41018180  0.00698317  0.59278126  1
  Pd  Pd159  1  0.40595830  0.38786015  0.00777169  1
  Pd  Pd160  1  -0.00338944  -0.00357408  0.61043647  1
  Pd  Pd161  1  0.80330413  0.81226578  0.80875506  1
  Pd  Pd162  1  0.59588624  0.40598493  0.00914769  1
  Pd  Pd163  1  0.19683781  0.19993644  0.60240561  1
  Pd  Pd164  1  0.60254054  0.40033351  0.39074639  1
  Pd  Pd165  1  0.40810444  0.40343938  0.59492367  1
  Pd  Pd166  1  0.40586034  0.19167530  0.39459638  1
  Pd  Pd167  1  0.59246335  0.80374498  0.18709057  1
  Pd  Pd168  1  0.00636784  0.79650699  0.00034009  1
  Pd  Pd169  1  0.39076825  0.80906858  0.39261834  1
  Pd  Pd170  1  0.79616305  0.79852179  0.58792673  1
  Pd  Pd171  1  0.79995415  0.59497585  0.60250459  1
  Pd  Pd172  1  0.20837290  0.20512230  0.19107142  1
  Pd  Pd173  1  0.21341617  0.59437193  0.39229885  1
  Pd  Pd174  1  0.21004763  0.59611299  -0.00677519  1
  Pd  Pd175  1  0.60150456  0.39057111  0.79058454  1
  Pd  Pd176  1  0.59893114  0.60609874  0.79588500  1
  Pd  Pd177  1  0.40002383  0.80094774  -0.00328353  1
  Pd  Pd178  1  0.40136497  0.79588313  0.19906660  1
  Pd  Pd179  1  0.59112536  -0.00499185  0.59053139  1
  Pd  Pd180  1  0.39898690  0.40807801  0.40869019  1
  Pd  Pd181  1  0.00075886  0.19867251  0.59627933  1
  Pd  Pd182  1  0.78928835  -0.00252155  0.39366790  1
  Pd  Pd183  1  0.19685907  0.79460490  0.60158253  1
  Pd  Pd184  1  -0.00621915  0.39813074  0.00188041  1
  Pd  Pd185  1  0.20357306  0.00226379  0.60945819  1
  Pd  Pd186  1  0.19562587  -0.00476887  -0.00489108  1
  Pd  Pd187  1  0.21479041  0.58932607  0.81649435  1
  Pd  Pd188  1  0.79041837  0.40282249  0.80158773  1
  Pd  Pd189  1  0.19035064  0.38605844  0.60136972  1
  Pd  Pd190  1  -0.01258387  0.20638186  0.19180387  1
  Pd  Pd191  1  0.80623587  0.39683227  -0.00801260  1
  Pd  Pd192  1  0.40190862  0.00302618  -0.00841526  1
  Pd  Pd193  1  0.79890597  0.60263507  -0.00234157  1
  Pd  Pd194  1  0.00498658  0.61279918  0.40795157  1
  Pd  Pd195  1  0.39593088  0.40251925  0.80032747  1
  Pd  Pd196  1  0.79488043  0.60038846  0.40098539  1
  Pd  Pd197  1  0.01243116  0.60211976  0.19788793  1
  Pd  Pd198  1  0.80978737  0.19471676  0.19321400  1
  Pd  Pd199  1  0.80040565  0.40372650  0.20875629  1
  Rh  Rh200  1  0.80325809  0.79105214  0.00006683  1
  Rh  Rh201  1  0.60278729  0.19534997  0.39556059  1
  Rh  Rh202  1  0.79690558  0.19725639  0.59394794  1
  Rh  Rh203  1  0.19322008  0.80528954  0.80606563  1
  Rh  Rh204  1  0.61139282  0.80807891  0.41503869  1
  Rh  Rh205  1  0.40569043  0.79352235  0.60973896  1
  Rh  Rh206  1  0.00019201  0.39037604  0.39748397  1
  Rh  Rh207  1  0.80854496  0.01192412  0.60349320  1
  Rh  Rh208  1  0.39240149  0.00047113  0.20226484  1
  Rh  Rh209  1  0.59507963  0.81225290  -0.00175489  1
  Rh  Rh210  1  0.40855336  0.79449810  0.80816087  1
  Rh  Rh211  1  0.40517728  0.19711570  0.80617097  1
  Rh  Rh212  1  0.20038893  0.20505525  0.79273927  1
  Rh  Rh213  1  0.19882753  -0.00247793  0.79596468  1
  Rh  Rh214  1  0.19460515  0.40227680  0.20903147  1
  Rh  Rh215  1  0.59602424  0.59809358  0.39833842  1
  Rh  Rh216  1  0.19582029  0.40394705  -0.00962920  1
  Rh  Rh217  1  0.00773139  0.01412623  -0.00930646  1
  Rh  Rh218  1  0.40557274  0.19532161  0.60065585  1
  Rh  Rh219  1  0.60221586  0.20677169  0.60894937  1
  Rh  Rh220  1  0.00158337  0.19078144  0.80978386  1
  Rh  Rh221  1  -0.00638288  0.60422871  0.79803762  1
  Rh  Rh222  1  0.00434756  0.60185927  -0.00013728  1
  Rh  Rh223  1  0.60317728  -0.00719218  0.19507594  1
  Rh  Rh224  1  0.80393706  0.78895197  0.20094493  1
  Rh  Rh225  1  0.21174555  -0.01092820  0.40466851  1
  Rh  Rh226  1  0.79251713  0.59794550  0.80371247  1
  Rh  Rh227  1  0.00367535  -0.01020860  0.20673595  1
  Rh  Rh228  1  0.60416925  0.59481121  0.19139034  1
  Rh  Rh229  1  0.79498047  0.00747796  0.20519004  1
  Rh  Rh230  1  0.19908888  0.20161303  0.00771319  1
  Rh  Rh231  1  0.60356221  0.59281426  0.00602410  1
  Rh  Rh232  1  0.79108651  0.01153573  0.00057277  1
  Rh  Rh233  1  0.20739097  0.60069372  0.20347323  1
  Rh  Rh234  1  0.19315280  -0.01104268  0.19431283  1
  Rh  Rh235  1  0.61027327  -0.00116335  0.80510850  1
  Rh  Rh236  1  0.00048053  0.18941762  0.40218163  1
  Rh  Rh237  1  0.58992912  0.21173991  0.21058643  1
  Rh  Rh238  1  0.39336804  0.00516721  0.80745483  1
  Rh  Rh239  1  0.19707615  0.80553196  -0.00122384  1
  Rh  Rh240  1  0.59766314  0.19228485  -0.00980806  1
  Rh  Rh241  1  0.39245007  0.61102643  0.19720952  1
  Rh  Rh242  1  0.79305857  0.19696109  0.80324074  1
  Rh  Rh243  1  -0.00263415  0.00256704  0.39518493  1
  Rh  Rh244  1  0.79462497  0.20269774  0.40282303  1
  Rh  Rh245  1  0.41166920  0.38775623  0.18923695  1
  Rh  Rh246  1  0.40279456  0.59637134  0.40397949  1
  Rh  Rh247  1  0.80133557  0.40247168  0.59308011  1
  Rh  Rh248  1  0.20417050  0.61157671  0.59916096  1
  Rh  Rh249  1  0.59485408  0.60627768  0.60832069  1
