# generated using pymatgen
data_ZrScNbPdRh
_symmetry_space_group_name_H-M   'P 1'
_cell_length_a   16.55651750
_cell_length_b   16.55408471
_cell_length_c   16.55458644
_cell_angle_alpha   90.00590922
_cell_angle_beta   89.96944863
_cell_angle_gamma   90.06227822
_symmetry_Int_Tables_number   1
_chemical_formula_structural   ZrScNbPdRh
_chemical_formula_sum   'Zr50 Sc50 Nb50 Pd50 Rh50'
_cell_volume   4537.24448143
_cell_formula_units_Z   50
loop_
 _symmetry_equiv_pos_site_id
 _symmetry_equiv_pos_as_xyz
  1  'x, y, z'
loop_
 _atom_site_type_symbol
 _atom_site_label
 _atom_site_symmetry_multiplicity
 _atom_site_fract_x
 _atom_site_fract_y
 _atom_site_fract_z
 _atom_site_occupancy
  Zr  Zr0  1  0.68677934  0.29006432  0.29464546  1
  Zr  Zr1  1  0.29807659  0.10257096  0.70188977  1
  Zr  Zr2  1  0.69773356  0.90793610  0.49695636  1
  Zr  Zr3  1  0.50065143  0.69311937  0.89693936  1
  Zr  Zr4  1  0.68918179  0.68955441  0.50725664  1
  Zr  Zr5  1  0.29824010  0.10506590  0.49881335  1
  Zr  Zr6  1  0.10200455  0.70334636  0.50380815  1
  Zr  Zr7  1  0.49264088  0.09054280  0.09871636  1
  Zr  Zr8  1  0.10571040  0.10177836  0.49564626  1
  Zr  Zr9  1  0.90400088  0.70038125  0.29615273  1
  Zr  Zr10  1  0.10798508  0.29252150  0.49597779  1
  Zr  Zr11  1  0.50333470  0.10213748  0.89376583  1
  Zr  Zr12  1  0.10408895  0.70112708  0.90167294  1
  Zr  Zr13  1  0.70553604  0.50173470  0.10229672  1
  Zr  Zr14  1  0.70729849  0.70056783  0.10118643  1
  Zr  Zr15  1  0.30524557  0.90169514  0.70264175  1
  Zr  Zr16  1  0.70312850  0.09666463  0.30241848  1
  Zr  Zr17  1  0.10357654  0.50914351  0.70621845  1
  Zr  Zr18  1  0.89919988  0.10765010  0.69894263  1
  Zr  Zr19  1  0.10000107  0.29997449  0.70336527  1
  Zr  Zr20  1  0.30313657  0.30736776  0.30773840  1
  Zr  Zr21  1  0.90086287  0.89066958  0.09556686  1
  Zr  Zr22  1  0.49953912  0.69560691  0.30358890  1
  Zr  Zr23  1  0.50083015  0.29564278  0.89406083  1
  Zr  Zr24  1  0.11354546  0.50308839  0.90427034  1
  Zr  Zr25  1  0.89844506  0.49432892  0.70781737  1
  Zr  Zr26  1  0.90754935  0.69943150  0.50045325  1
  Zr  Zr27  1  0.89573909  0.50025878  0.49905797  1
  Zr  Zr28  1  0.89680815  0.09533815  0.29652654  1
  Zr  Zr29  1  0.09721693  0.30114645  0.90624751  1
  Zr  Zr30  1  0.29266789  0.49450204  0.10061878  1
  Zr  Zr31  1  0.70568464  0.90301695  0.89871647  1
  Zr  Zr32  1  0.89914574  0.90244084  0.70993404  1
  Zr  Zr33  1  0.89683014  0.30388555  0.89249145  1
  Zr  Zr34  1  0.49957634  0.30205792  0.29520466  1
  Zr  Zr35  1  0.89670784  0.50239191  0.90027388  1
  Zr  Zr36  1  0.10110016  0.10068848  0.69678515  1
  Zr  Zr37  1  0.29998013  0.90219484  0.48882757  1
  Zr  Zr38  1  0.49932961  0.90230072  0.49587488  1
  Zr  Zr39  1  0.69924938  0.90245134  0.29830324  1
  Zr  Zr40  1  0.48950916  0.30114541  0.49466101  1
  Zr  Zr41  1  0.70522292  0.90035928  0.70154039  1
  Zr  Zr42  1  0.89491520  0.50296813  0.29606253  1
  Zr  Zr43  1  0.89702472  0.90178664  0.29481454  1
  Zr  Zr44  1  0.10669905  0.10601186  0.10322119  1
  Zr  Zr45  1  0.09922701  0.09937799  0.30008976  1
  Zr  Zr46  1  0.30294206  0.70089403  0.49588600  1
  Zr  Zr47  1  0.10958906  0.29979165  0.29700138  1
  Zr  Zr48  1  0.90290382  0.09395708  0.10291720  1
  Zr  Zr49  1  0.30505902  0.91118965  0.09189418  1
  Sc  Sc50  1  0.30474779  0.30385923  0.69221783  1
  Sc  Sc51  1  0.69950638  0.09883618  0.49404950  1
  Sc  Sc52  1  0.10083292  0.89866983  0.09244940  1
  Sc  Sc53  1  0.89753350  0.10809386  0.49578128  1
  Sc  Sc54  1  0.29653017  0.09434360  0.89920515  1
  Sc  Sc55  1  0.50045313  0.69979499  0.10319085  1
  Sc  Sc56  1  0.89790106  0.10379702  0.91172017  1
  Sc  Sc57  1  0.50217978  0.89821592  0.30074597  1
  Sc  Sc58  1  0.08758036  0.90747094  0.70087907  1
  Sc  Sc59  1  0.10194111  0.50774988  0.30505110  1
  Sc  Sc60  1  0.70191725  0.09628388  0.70238395  1
  Sc  Sc61  1  0.29893167  0.69859340  0.90365087  1
  Sc  Sc62  1  0.70120888  0.29636859  0.48538294  1
  Sc  Sc63  1  0.10159989  0.90319119  0.49875645  1
  Sc  Sc64  1  0.10363622  0.51212270  0.50195033  1
  Sc  Sc65  1  0.70155999  0.29955324  0.90017601  1
  Sc  Sc66  1  0.10786828  0.30024640  0.10194495  1
  Sc  Sc67  1  0.30499480  0.49459373  0.50143652  1
  Sc  Sc68  1  0.08586685  0.89806171  0.89933381  1
  Sc  Sc69  1  0.10364881  0.90357831  0.30302892  1
  Sc  Sc70  1  0.89832104  0.28443062  0.09439671  1
  Sc  Sc71  1  0.50772430  0.48847670  0.10367238  1
  Sc  Sc72  1  0.29833940  0.08931574  0.29046291  1
  Sc  Sc73  1  0.48641058  0.50069090  0.69749505  1
  Sc  Sc74  1  0.90247709  0.70824315  0.90282419  1
  Sc  Sc75  1  0.49287290  0.49669298  0.30626436  1
  Sc  Sc76  1  0.29669169  0.49597218  0.70550336  1
  Sc  Sc77  1  0.90093425  0.89890942  0.51310588  1
  Sc  Sc78  1  0.70218409  0.50913238  0.70062636  1
  Sc  Sc79  1  0.50314555  0.10782808  0.29805728  1
  Sc  Sc80  1  0.30882560  0.69225373  0.70538861  1
  Sc  Sc81  1  0.70804011  0.29058412  0.70531096  1
  Sc  Sc82  1  0.70204059  0.09530990  0.90189715  1
  Sc  Sc83  1  0.30387789  0.50014533  0.30081980  1
  Sc  Sc84  1  0.70834815  0.09632625  0.09282663  1
  Sc  Sc85  1  0.29455431  0.30212149  0.11607708  1
  Sc  Sc86  1  0.88504051  0.29687213  0.30380125  1
  Sc  Sc87  1  0.70049293  0.69595745  0.89841296  1
  Sc  Sc88  1  0.49436752  0.90666088  0.89805121  1
  Sc  Sc89  1  0.69446619  0.71006768  0.29464211  1
  Sc  Sc90  1  0.29332264  0.30277531  0.89168226  1
  Sc  Sc91  1  0.09815155  0.10471366  0.89973156  1
  Sc  Sc92  1  0.69697480  0.50396899  0.90227607  1
  Sc  Sc93  1  0.70532901  0.89672678  0.10054893  1
  Sc  Sc94  1  0.70261330  0.48171607  0.30228461  1
  Sc  Sc95  1  0.90482310  0.70781782  0.69901579  1
  Sc  Sc96  1  0.69874916  0.70282812  0.70610455  1
  Sc  Sc97  1  0.30214348  0.69394356  0.30708205  1
  Sc  Sc98  1  0.49646700  0.69713138  0.69955120  1
  Sc  Sc99  1  0.10008341  0.70383576  0.31309566  1
  Nb  Nb100  1  0.90094458  0.90207805  0.89609016  1
  Nb  Nb101  1  0.50525495  0.29616367  0.10252472  1
  Nb  Nb102  1  0.29826001  0.29946418  0.49771320  1
  Nb  Nb103  1  0.50092553  0.29463241  0.70099674  1
  Nb  Nb104  1  0.49914201  0.49454187  0.90379941  1
  Nb  Nb105  1  0.30038278  0.09463704  0.09858439  1
  Nb  Nb106  1  0.30330104  0.49787264  0.90188308  1
  Nb  Nb107  1  0.49878161  0.10648616  0.70375271  1
  Nb  Nb108  1  0.89745911  0.30209109  0.69680164  1
  Nb  Nb109  1  0.29747000  0.89728482  0.29316322  1
  Nb  Nb110  1  0.10638479  0.70331956  0.70240637  1
  Nb  Nb111  1  0.68587075  0.30773430  0.09937267  1
  Nb  Nb112  1  0.50130116  0.90274561  0.69749617  1
  Nb  Nb113  1  0.29532880  0.89454285  0.90129444  1
  Nb  Nb114  1  0.09859577  0.50142865  0.09830429  1
  Nb  Nb115  1  0.29814461  0.70416223  0.09512520  1
  Nb  Nb116  1  0.50049042  0.69266539  0.49977860  1
  Nb  Nb117  1  0.50157724  0.09933018  0.50209361  1
  Nb  Nb118  1  0.51160069  0.50517857  0.50211653  1
  Nb  Nb119  1  0.10287390  0.69757715  0.09117403  1
  Nb  Nb120  1  0.89848043  0.51032871  0.10464525  1
  Nb  Nb121  1  0.90120037  0.69048850  0.10366272  1
  Nb  Nb122  1  0.69574189  0.49644416  0.50270844  1
  Nb  Nb123  1  0.89863629  0.30030466  0.50502983  1
  Nb  Nb124  1  0.50066643  0.90169216  0.09579780  1
  Nb  Nb125  1  0.79428728  0.60301271  0.40131645  1
  Nb  Nb126  1  0.59180750  0.80407023  0.59963376  1
  Nb  Nb127  1  0.20026248  0.80253608  0.79759061  1
  Nb  Nb128  1  0.39979747  0.20249412  0.00483010  1
  Nb  Nb129  1  0.59792207  0.80313797  -0.00113649  1
  Nb  Nb130  1  0.59458258  0.20109649  0.00417965  1
  Nb  Nb131  1  0.59536237  0.39838031  0.79313277  1
  Nb  Nb132  1  -0.00413679  0.40829049  0.00831942  1
  Nb  Nb133  1  0.79903608  0.79592959  0.40448763  1
  Nb  Nb134  1  0.59949852  -0.00293608  0.19462845  1
  Nb  Nb135  1  0.80351272  0.40340290  0.00603384  1
  Nb  Nb136  1  -0.00252693  0.39578830  0.59888059  1
  Nb  Nb137  1  0.60242606  0.59715326  0.20231971  1
  Nb  Nb138  1  0.59247448  0.20077332  0.60155160  1
  Nb  Nb139  1  0.40786990  0.00421210  0.60241515  1
  Nb  Nb140  1  0.39387371  0.80291576  0.19618879  1
  Nb  Nb141  1  0.40218144  0.39489116  -0.00006764  1
  Nb  Nb142  1  0.19788815  0.60806931  0.19074338  1
  Nb  Nb143  1  -0.00221205  0.39689609  0.40188672  1
  Nb  Nb144  1  -0.00315860  0.40503524  0.19681902  1
  Nb  Nb145  1  0.79885744  0.39607441  0.59891834  1
  Nb  Nb146  1  0.39950578  0.58997934  0.00148139  1
  Nb  Nb147  1  0.20590728  0.79620209  0.19405325  1
  Nb  Nb148  1  0.60105691  0.39642928  0.60129398  1
  Nb  Nb149  1  0.20261836  0.79957750  0.60671238  1
  Pd  Pd150  1  -0.00143195  0.59670148  0.60623898  1
  Pd  Pd151  1  0.40070050  0.79907840  0.39136442  1
  Pd  Pd152  1  0.39985409  0.19784938  0.60053065  1
  Pd  Pd153  1  0.79154848  0.20151819  0.19256117  1
  Pd  Pd154  1  0.19149987  -0.00884398  0.80664464  1
  Pd  Pd155  1  0.80487756  0.60953180  0.80153240  1
  Pd  Pd156  1  -0.00627670  0.20693039  0.39177025  1
  Pd  Pd157  1  0.60782870  0.59127152  0.38714424  1
  Pd  Pd158  1  0.59563190  0.80298820  0.80107338  1
  Pd  Pd159  1  0.39874561  0.79838265  0.80464523  1
  Pd  Pd160  1  0.20226453  0.20342406  0.79817560  1
  Pd  Pd161  1  0.39649832  0.19352195  0.39255102  1
  Pd  Pd162  1  0.19128524  -0.00173569  -0.00811320  1
  Pd  Pd163  1  0.39931978  0.60157944  0.19188146  1
  Pd  Pd164  1  0.59793333  0.00413231  0.60524032  1
  Pd  Pd165  1  0.40372466  0.00713266  0.39524858  1
  Pd  Pd166  1  -0.00481799  -0.00391869  0.40640776  1
  Pd  Pd167  1  0.79863959  0.19298194  0.80609936  1
  Pd  Pd168  1  0.80218761  0.59878408  0.60132100  1
  Pd  Pd169  1  -0.00042008  0.20956776  0.20410698  1
  Pd  Pd170  1  -0.00295891  0.19714630  0.80379119  1
  Pd  Pd171  1  0.39332957  0.19930769  0.19777951  1
  Pd  Pd172  1  0.20541219  -0.00714157  0.59901259  1
  Pd  Pd173  1  0.39914975  0.00319165  0.80073589  1
  Pd  Pd174  1  0.40142261  0.80305622  0.59957891  1
  Pd  Pd175  1  0.60316638  0.79792143  0.40798115  1
  Pd  Pd176  1  0.19545401  0.41026522  0.40389301  1
  Pd  Pd177  1  -0.00486884  0.81184705  0.40424472  1
  Pd  Pd178  1  0.59487963  0.60390228  0.00892230  1
  Pd  Pd179  1  0.00755330  0.40259049  0.80323260  1
  Pd  Pd180  1  -0.00470687  0.00657031  0.59513239  1
  Pd  Pd181  1  -0.00301437  0.60753199  0.80332829  1
  Pd  Pd182  1  0.21109478  0.60493181  0.60137144  1
  Pd  Pd183  1  0.78987632  0.79518925  0.59651225  1
  Pd  Pd184  1  0.01261086  0.79756930  0.19502747  1
  Pd  Pd185  1  0.00291426  0.20264277  0.59807928  1
  Pd  Pd186  1  0.40739615  0.79469275  -0.00079311  1
  Pd  Pd187  1  0.21116523  0.20492157  0.00280099  1
  Pd  Pd188  1  0.39591014  0.59443391  0.59668170  1
  Pd  Pd189  1  0.80346559  0.00936901  0.59708111  1
  Pd  Pd190  1  0.40142657  0.39805697  0.80093638  1
  Pd  Pd191  1  0.00228053  0.00428047  -0.00039958  1
  Pd  Pd192  1  0.60208135  -0.00112902  0.79748239  1
  Pd  Pd193  1  0.79769980  0.79691654  -0.00479429  1
  Pd  Pd194  1  0.59270580  0.58987785  0.79314465  1
  Pd  Pd195  1  0.00846229  -0.00718045  0.19556719  1
  Pd  Pd196  1  0.80606550  0.38722821  0.18995913  1
  Pd  Pd197  1  -0.00367984  0.60124558  -0.00457842  1
  Pd  Pd198  1  0.19429700  0.40032129  0.59893901  1
  Pd  Pd199  1  0.01212590  0.60187275  0.20367715  1
  Rh  Rh200  1  -0.00573949  0.59257634  0.39962072  1
  Rh  Rh201  1  0.00430299  0.20372553  0.00238089  1
  Rh  Rh202  1  0.20077143  0.80075408  0.39989749  1
  Rh  Rh203  1  0.19035127  0.41403337  0.20798953  1
  Rh  Rh204  1  0.20719002  0.19363742  0.20367462  1
  Rh  Rh205  1  0.80285054  0.40179502  0.40723579  1
  Rh  Rh206  1  0.00456097  0.79795692  0.79870589  1
  Rh  Rh207  1  0.40426243  0.39788124  0.19589350  1
  Rh  Rh208  1  0.80688086  0.79619668  0.20360451  1
  Rh  Rh209  1  0.60763074  0.20072056  0.79907972  1
  Rh  Rh210  1  0.80036009  0.19812196  0.39991186  1
  Rh  Rh211  1  0.78934792  0.20349026  0.59508364  1
  Rh  Rh212  1  0.58875295  0.80224817  0.18901172  1
  Rh  Rh213  1  0.60100856  0.39317098  -0.01154065  1
  Rh  Rh214  1  0.39758049  0.00552133  -0.01112809  1
  Rh  Rh215  1  0.40185553  0.59391837  0.41030653  1
  Rh  Rh216  1  0.78627445  0.40326046  0.79768169  1
  Rh  Rh217  1  0.39027361  0.19926965  0.80378637  1
  Rh  Rh218  1  0.40552138  0.40081395  0.59477684  1
  Rh  Rh219  1  0.20058561  0.00214502  0.39483635  1
  Rh  Rh220  1  0.20916306  0.59837039  0.00259486  1
  Rh  Rh221  1  0.59497026  0.40743369  0.20950399  1
  Rh  Rh222  1  0.19892991  0.40010158  0.79862494  1
  Rh  Rh223  1  0.20645956  0.59862646  0.39620105  1
  Rh  Rh224  1  0.80811264  0.00638050  0.80416828  1
  Rh  Rh225  1  0.60750099  0.18520958  0.18731825  1
  Rh  Rh226  1  0.78939769  0.60706572  0.21128079  1
  Rh  Rh227  1  0.19457809  -0.00591380  0.19546100  1
  Rh  Rh228  1  0.19680376  0.80670357  -0.00463765  1
  Rh  Rh229  1  -0.00362071  0.79417297  0.00341328  1
  Rh  Rh230  1  0.20110107  0.39371295  0.00035727  1
  Rh  Rh231  1  0.40824660  -0.00800594  0.20477024  1
  Rh  Rh232  1  -0.00662088  0.01061986  0.80378212  1
  Rh  Rh233  1  0.80328855  0.79972298  0.80325882  1
  Rh  Rh234  1  0.39897794  0.59511004  0.80854888  1
  Rh  Rh235  1  0.79488413  -0.00270325  0.19349879  1
  Rh  Rh236  1  0.80941780  -0.00809357  0.40543639  1
  Rh  Rh237  1  0.80842085  -0.00731127  -0.00040551  1
  Rh  Rh238  1  0.59324604  0.39787225  0.40365560  1
  Rh  Rh239  1  0.80381495  0.59950484  -0.00353388  1
  Rh  Rh240  1  0.20331845  0.20424599  0.60306015  1
  Rh  Rh241  1  0.59563648  0.19716261  0.40758594  1
  Rh  Rh242  1  0.59306302  0.00673694  0.38782172  1
  Rh  Rh243  1  0.20867703  0.60548471  0.80328188  1
  Rh  Rh244  1  0.40156313  0.40561268  0.40644158  1
  Rh  Rh245  1  0.60322937  -0.00294668  0.00477533  1
  Rh  Rh246  1  0.78709603  0.21108642  0.00167176  1
  Rh  Rh247  1  0.01110657  0.80110433  0.60421720  1
  Rh  Rh248  1  0.21054283  0.19416995  0.38953899  1
  Rh  Rh249  1  0.59455138  0.59987126  0.61011856  1
