# generated using pymatgen
data_ZrScNbPdRh
_symmetry_space_group_name_H-M   'P 1'
_cell_length_a   16.55409349
_cell_length_b   16.55536136
_cell_length_c   16.55996774
_cell_angle_alpha   89.95618109
_cell_angle_beta   90.01366670
_cell_angle_gamma   89.99607973
_symmetry_Int_Tables_number   1
_chemical_formula_structural   ZrScNbPdRh
_chemical_formula_sum   'Zr50 Sc50 Nb50 Pd50 Rh50'
_cell_volume   4538.40672549
_cell_formula_units_Z   50
loop_
 _symmetry_equiv_pos_site_id
 _symmetry_equiv_pos_as_xyz
  1  'x, y, z'
loop_
 _atom_site_type_symbol
 _atom_site_label
 _atom_site_symmetry_multiplicity
 _atom_site_fract_x
 _atom_site_fract_y
 _atom_site_fract_z
 _atom_site_occupancy
  Zr  Zr0  1  0.89410206  0.89609029  0.09907808  1
  Zr  Zr1  1  0.30325310  0.29960306  0.68794454  1
  Zr  Zr2  1  0.69544604  0.29912192  0.50159694  1
  Zr  Zr3  1  0.29222652  0.89373814  0.50044760  1
  Zr  Zr4  1  0.90722520  0.09934306  0.09006290  1
  Zr  Zr5  1  0.10311769  0.30158246  0.49645372  1
  Zr  Zr6  1  0.89533423  0.09928010  0.50199162  1
  Zr  Zr7  1  0.89376507  0.89385454  0.31155827  1
  Zr  Zr8  1  0.09293439  0.70091491  0.90050849  1
  Zr  Zr9  1  0.30343146  0.30800314  0.30073363  1
  Zr  Zr10  1  0.09640183  0.30345468  0.69593871  1
  Zr  Zr11  1  0.50394240  0.89011254  0.09355125  1
  Zr  Zr12  1  0.49978533  0.29811515  0.89513921  1
  Zr  Zr13  1  0.90086029  0.29930142  0.69536390  1
  Zr  Zr14  1  0.89510029  0.50391618  0.90436569  1
  Zr  Zr15  1  0.30776415  0.49548241  0.10101599  1
  Zr  Zr16  1  0.50331666  0.10673674  0.70258854  1
  Zr  Zr17  1  0.09947599  0.89671768  0.50232593  1
  Zr  Zr18  1  0.69351254  0.50511240  0.89347493  1
  Zr  Zr19  1  0.29668041  0.30141889  0.09945147  1
  Zr  Zr20  1  0.09699587  0.89803096  0.89483718  1
  Zr  Zr21  1  0.50029594  0.69535687  0.91198096  1
  Zr  Zr22  1  0.31919229  0.70098910  0.10042666  1
  Zr  Zr23  1  0.49645305  0.10182962  0.30041590  1
  Zr  Zr24  1  0.69978834  0.70155127  0.70519877  1
  Zr  Zr25  1  0.90845820  0.49631068  0.69170531  1
  Zr  Zr26  1  0.69948021  0.29511294  0.29460650  1
  Zr  Zr27  1  0.51162670  0.31124946  0.10286883  1
  Zr  Zr28  1  0.10885725  0.69960781  0.51124439  1
  Zr  Zr29  1  0.89332268  0.10442214  0.69881082  1
  Zr  Zr30  1  0.29428291  0.90103522  0.30739526  1
  Zr  Zr31  1  0.90404093  0.29424297  0.10601238  1
  Zr  Zr32  1  0.30440772  0.49807348  0.70509021  1
  Zr  Zr33  1  0.30317705  0.69894338  0.30952752  1
  Zr  Zr34  1  0.69651507  0.09990609  0.89179519  1
  Zr  Zr35  1  0.49316947  0.89468737  0.50360674  1
  Zr  Zr36  1  0.50164877  0.50536636  0.50837288  1
  Zr  Zr37  1  0.30817196  0.90841083  0.89879464  1
  Zr  Zr38  1  0.10189853  0.49362054  0.30667198  1
  Zr  Zr39  1  0.09800538  0.90231292  0.31238098  1
  Zr  Zr40  1  0.69560974  0.30432714  0.90614248  1
  Zr  Zr41  1  0.09514681  0.09532481  0.90233006  1
  Zr  Zr42  1  0.90108894  0.90043046  0.49898285  1
  Zr  Zr43  1  0.10757031  0.50420482  0.69877396  1
  Zr  Zr44  1  0.49909666  0.09414684  0.09854477  1
  Zr  Zr45  1  0.70694063  0.11120701  0.09488561  1
  Zr  Zr46  1  0.49753758  0.29873640  0.30479690  1
  Zr  Zr47  1  0.50874917  0.90656966  0.29832495  1
  Zr  Zr48  1  0.29833901  0.49959039  0.49158914  1
  Zr  Zr49  1  0.49947618  0.70560725  0.30071189  1
  Sc  Sc50  1  0.49910232  0.30310936  0.69637059  1
  Sc  Sc51  1  0.69651278  0.89541445  0.09827130  1
  Sc  Sc52  1  0.09765641  0.50450090  0.50093482  1
  Sc  Sc53  1  0.69520269  0.48764252  0.08986282  1
  Sc  Sc54  1  0.70242827  0.10005915  0.70015407  1
  Sc  Sc55  1  0.89531628  0.70171027  0.08723110  1
  Sc  Sc56  1  0.90653244  0.70624413  0.70312437  1
  Sc  Sc57  1  0.69448036  0.90061224  0.70561337  1
  Sc  Sc58  1  0.90321640  0.50190997  0.10246530  1
  Sc  Sc59  1  0.09965287  0.09622751  0.69431067  1
  Sc  Sc60  1  0.49328195  0.49184315  0.28895614  1
  Sc  Sc61  1  0.50143644  0.10902322  0.49768614  1
  Sc  Sc62  1  0.09189853  0.69578212  0.09863039  1
  Sc  Sc63  1  0.49627532  0.49968832  0.70497844  1
  Sc  Sc64  1  0.30487307  0.09619934  0.70119632  1
  Sc  Sc65  1  0.09602694  0.10875342  0.30288898  1
  Sc  Sc66  1  0.70381304  0.10066560  0.49928387  1
  Sc  Sc67  1  0.90105609  0.10974729  0.31081545  1
  Sc  Sc68  1  0.90326780  0.29319275  0.89199700  1
  Sc  Sc69  1  0.90289990  0.89399243  0.90153540  1
  Sc  Sc70  1  0.68804657  0.50271153  0.69775928  1
  Sc  Sc71  1  0.90091042  0.29851507  0.49901331  1
  Sc  Sc72  1  0.09216567  0.89819861  0.09065001  1
  Sc  Sc73  1  0.31009700  0.10502324  0.10323948  1
  Sc  Sc74  1  0.29801077  0.10127269  0.50789607  1
  Sc  Sc75  1  0.90188482  0.49372696  0.49800979  1
  Sc  Sc76  1  0.10032678  0.49419339  0.10650025  1
  Sc  Sc77  1  0.70467129  0.90781845  0.49065548  1
  Sc  Sc78  1  0.69251583  0.29408435  0.70391385  1
  Sc  Sc79  1  0.09347899  0.09872112  0.49902630  1
  Sc  Sc80  1  0.70192507  0.89718670  0.29974843  1
  Sc  Sc81  1  0.09765302  0.69405840  0.31012722  1
  Sc  Sc82  1  0.31127132  0.90260582  0.09875202  1
  Sc  Sc83  1  0.29931331  0.68246213  0.69945337  1
  Sc  Sc84  1  0.89998040  0.90257521  0.69684863  1
  Sc  Sc85  1  0.70001237  0.70752910  0.30652641  1
  Sc  Sc86  1  0.69698232  0.09725737  0.30833725  1
  Sc  Sc87  1  0.89595441  0.09507732  0.89649551  1
  Sc  Sc88  1  0.90818916  0.70239262  0.49411787  1
  Sc  Sc89  1  0.49898687  0.89991994  0.70592828  1
  Sc  Sc90  1  0.10409102  0.30590163  0.89714621  1
  Sc  Sc91  1  0.49437000  0.09757783  0.90086210  1
  Sc  Sc92  1  0.30628518  0.30897676  0.90477171  1
  Sc  Sc93  1  0.90600768  0.50033569  0.30506325  1
  Sc  Sc94  1  0.09670445  0.89387776  0.69518696  1
  Sc  Sc95  1  0.70075716  0.50219957  0.49981001  1
  Sc  Sc96  1  0.69998608  0.49955545  0.30685692  1
  Sc  Sc97  1  0.68173742  0.69423808  0.49715143  1
  Sc  Sc98  1  0.29992053  0.91054401  0.69669770  1
  Sc  Sc99  1  0.49740605  0.69518024  0.68747892  1
  Nb  Nb100  1  0.68312004  0.89698043  0.89152160  1
  Nb  Nb101  1  0.29794273  0.50061458  0.29791643  1
  Nb  Nb102  1  0.48834771  0.30082150  0.50031143  1
  Nb  Nb103  1  0.09487326  0.29947808  0.29217412  1
  Nb  Nb104  1  0.89477844  0.70451745  0.29621661  1
  Nb  Nb105  1  0.09954979  0.69401325  0.70100182  1
  Nb  Nb106  1  0.70192145  0.30299481  0.10207547  1
  Nb  Nb107  1  0.48575877  0.70056173  0.49881689  1
  Nb  Nb108  1  0.29704651  0.50294258  0.89474585  1
  Nb  Nb109  1  0.50331230  0.69736323  0.10463121  1
  Nb  Nb110  1  0.71312929  0.69856426  0.89676421  1
  Nb  Nb111  1  0.90988300  0.30357070  0.30305995  1
  Nb  Nb112  1  0.10924522  0.49690196  0.90041706  1
  Nb  Nb113  1  0.30012520  0.10644944  0.29728800  1
  Nb  Nb114  1  0.30788220  0.30099398  0.49568422  1
  Nb  Nb115  1  0.31125205  0.69945425  0.49667702  1
  Nb  Nb116  1  0.49835974  0.49593289  0.89745998  1
  Nb  Nb117  1  0.10017219  0.29304162  0.10762433  1
  Nb  Nb118  1  0.09983436  0.10317372  0.10354581  1
  Nb  Nb119  1  0.30045976  0.10388487  0.90421186  1
  Nb  Nb120  1  0.89704881  0.69685417  0.89688761  1
  Nb  Nb121  1  0.50326591  0.50827060  0.09942252  1
  Nb  Nb122  1  0.50498325  0.90038370  0.89994189  1
  Nb  Nb123  1  0.30037236  0.69657766  0.89918736  1
  Nb  Nb124  1  0.69990068  0.70497681  0.10601909  1
  Nb  Nb125  1  0.79916154  0.40305112  0.79855320  1
  Nb  Nb126  1  0.20781386  0.60213533  0.20027760  1
  Nb  Nb127  1  0.79598322  0.79573569  0.59712229  1
  Nb  Nb128  1  0.59286473  0.39459411  0.40378562  1
  Nb  Nb129  1  0.39623519  0.79534662  0.80675587  1
  Nb  Nb130  1  0.20394577  0.19674670  0.80500816  1
  Nb  Nb131  1  0.19474672  0.00182225  0.19659782  1
  Nb  Nb132  1  0.00241580  0.59832580  0.80431995  1
  Nb  Nb133  1  0.80078012  0.60682667  0.60095766  1
  Nb  Nb134  1  0.20121117  0.00450069  0.00287333  1
  Nb  Nb135  1  -0.00181342  -0.00128471  0.20128510  1
  Nb  Nb136  1  -0.00239514  0.80170405  0.20564276  1
  Nb  Nb137  1  0.60180228  0.60317607  0.19342976  1
  Nb  Nb138  1  0.19795156  0.19708559  0.00146790  1
  Nb  Nb139  1  0.20561489  0.20857596  0.39578919  1
  Nb  Nb140  1  0.20547081  0.59848352  -0.00071558  1
  Nb  Nb141  1  0.00480404  0.39724089  0.00142233  1
  Nb  Nb142  1  0.80664166  0.00299409  0.19840682  1
  Nb  Nb143  1  0.39656635  0.00211629  0.39800049  1
  Nb  Nb144  1  0.19662998  0.79997443  0.19691584  1
  Nb  Nb145  1  0.80067322  0.39640356  0.20033553  1
  Nb  Nb146  1  0.20723358  0.79752248  -0.00165409  1
  Nb  Nb147  1  0.79441295  0.60145661  0.19939009  1
  Nb  Nb148  1  0.59785253  0.00053148  0.59864063  1
  Nb  Nb149  1  0.20464198  0.79316457  0.80288412  1
  Pd  Pd150  1  0.40753841  0.40384005  -0.00072327  1
  Pd  Pd151  1  0.60928240  0.79111069  -0.00464525  1
  Pd  Pd152  1  0.80034564  -0.00929099  0.80134128  1
  Pd  Pd153  1  0.59449107  0.19891816  -0.00083940  1
  Pd  Pd154  1  0.60523562  0.80615555  0.59575727  1
  Pd  Pd155  1  0.79137316  0.80542832  -0.00941424  1
  Pd  Pd156  1  0.80682927  0.19714144  0.20647283  1
  Pd  Pd157  1  -0.00519304  0.00053363  0.79372704  1
  Pd  Pd158  1  0.79595367  0.39442547  0.39508381  1
  Pd  Pd159  1  0.59840280  0.19410905  0.19743048  1
  Pd  Pd160  1  -0.00191948  0.60102117  0.40267916  1
  Pd  Pd161  1  0.79230655  0.40706784  0.60604709  1
  Pd  Pd162  1  0.60057859  0.20283562  0.40303992  1
  Pd  Pd163  1  0.40676951  0.00655512  0.59407510  1
  Pd  Pd164  1  0.59950165  0.80509134  0.40611748  1
  Pd  Pd165  1  0.61035124  0.60281558  0.00436625  1
  Pd  Pd166  1  0.79035074  -0.00858904  -0.00361858  1
  Pd  Pd167  1  0.58869746  0.78892773  0.80140973  1
  Pd  Pd168  1  0.20765895  0.38879900  0.79745979  1
  Pd  Pd169  1  0.80814224  0.59310752  0.78777978  1
  Pd  Pd170  1  -0.00332028  0.60669448  0.20339326  1
  Pd  Pd171  1  0.39766076  0.58978955  -0.00606677  1
  Pd  Pd172  1  0.20290711  0.01638720  0.39994962  1
  Pd  Pd173  1  0.39871090  0.80803130  0.20743730  1
  Pd  Pd174  1  0.40577754  0.20860087  0.19366541  1
  Pd  Pd175  1  -0.00014579  0.00045761  0.60125198  1
  Pd  Pd176  1  0.58865444  0.59143515  0.38976017  1
  Pd  Pd177  1  0.59708610  0.39751287  0.59860656  1
  Pd  Pd178  1  0.39404862  -0.00442491  0.20446720  1
  Pd  Pd179  1  0.59016196  0.60767578  0.79775685  1
  Pd  Pd180  1  0.38921469  0.79734477  0.61428870  1
  Pd  Pd181  1  0.00687915  0.59089127  -0.00260766  1
  Pd  Pd182  1  0.80995282  0.39294079  0.00016008  1
  Pd  Pd183  1  0.19945473  0.40392395  0.20096613  1
  Pd  Pd184  1  0.39334036  0.20386138  0.79775474  1
  Pd  Pd185  1  0.21045477  0.79428797  0.61368777  1
  Pd  Pd186  1  0.00691547  0.20812823  -0.00666601  1
  Pd  Pd187  1  0.00803487  0.19516957  0.79616998  1
  Pd  Pd188  1  0.80358537  0.80797341  0.79727891  1
  Pd  Pd189  1  0.61399384  0.00453902  0.19415327  1
  Pd  Pd190  1  -0.00419526  0.40809934  0.80810445  1
  Pd  Pd191  1  0.60566090  0.00203753  0.00018577  1
  Pd  Pd192  1  0.40854657  0.58998146  0.39333348  1
  Pd  Pd193  1  0.19981800  0.00164280  0.79940718  1
  Pd  Pd194  1  0.79458856  0.20261284  0.59927979  1
  Pd  Pd195  1  0.19885603  0.19590897  0.59976031  1
  Pd  Pd196  1  0.20178354  0.40602796  0.59464137  1
  Pd  Pd197  1  0.78995557  0.59986711  0.00921158  1
  Pd  Pd198  1  0.80331423  0.20538856  -0.00931035  1
  Pd  Pd199  1  0.80345325  0.60553153  0.40280474  1
  Rh  Rh200  1  0.59340039  0.40266523  -0.00558481  1
  Rh  Rh201  1  0.78919172  -0.00924119  0.60346402  1
  Rh  Rh202  1  0.39893203  0.39950724  0.80032257  1
  Rh  Rh203  1  0.39458169  0.59485148  0.59690442  1
  Rh  Rh204  1  0.80292841  0.00641765  0.39270286  1
  Rh  Rh205  1  0.19521808  0.78958559  0.40124136  1
  Rh  Rh206  1  0.19755939  0.39450160  0.39842985  1
  Rh  Rh207  1  0.40184926  0.39744515  0.19512206  1
  Rh  Rh208  1  0.00646564  0.39818928  0.59080048  1
  Rh  Rh209  1  0.59926163  0.20008897  0.80254853  1
  Rh  Rh210  1  0.00602780  0.79298283  0.39949900  1
  Rh  Rh211  1  0.80117098  0.20630658  0.40129717  1
  Rh  Rh212  1  -0.00440144  0.79723412  0.60038104  1
  Rh  Rh213  1  0.40222966  0.80937725  0.39600641  1
  Rh  Rh214  1  0.60015674  0.79627454  0.20193772  1
  Rh  Rh215  1  0.00314527  0.39759796  0.40243853  1
  Rh  Rh216  1  0.40784516  -0.00186570  0.80268562  1
  Rh  Rh217  1  -0.00529778  0.40008809  0.19621223  1
  Rh  Rh218  1  0.40308911  0.80429438  -0.00772991  1
  Rh  Rh219  1  -0.00147881  0.19923440  0.59917790  1
  Rh  Rh220  1  0.40085397  0.20343257  0.00465501  1
  Rh  Rh221  1  0.59562391  0.00379854  0.79421583  1
  Rh  Rh222  1  -0.00567335  0.60419485  0.60427357  1
  Rh  Rh223  1  0.40810131  0.60153089  0.80582171  1
  Rh  Rh224  1  0.59759435  0.19554681  0.59818215  1
  Rh  Rh225  1  0.79375312  0.79117105  0.41157379  1
  Rh  Rh226  1  0.40309747  0.59928781  0.20573976  1
  Rh  Rh227  1  0.40196907  0.00081462  0.00015859  1
  Rh  Rh228  1  0.00609739  0.20622602  0.40253257  1
  Rh  Rh229  1  0.60118570  0.39906736  0.80099787  1
  Rh  Rh230  1  0.38988232  0.19230179  0.40485058  1
  Rh  Rh231  1  0.58912328  0.00005073  0.41051312  1
  Rh  Rh232  1  0.19497481  0.00027228  0.59818447  1
  Rh  Rh233  1  0.61006366  0.40940135  0.20581477  1
  Rh  Rh234  1  -0.00297398  0.79799658  0.00241422  1
  Rh  Rh235  1  0.00245677  -0.00270307  0.00094491  1
  Rh  Rh236  1  0.20081510  0.60206216  0.39960014  1
  Rh  Rh237  1  -0.00447440  0.19245027  0.20552689  1
  Rh  Rh238  1  -0.00471108  0.00467484  0.40057801  1
  Rh  Rh239  1  0.00250265  0.79489991  0.79657541  1
  Rh  Rh240  1  0.79638730  0.20695941  0.80147019  1
  Rh  Rh241  1  0.39991361  0.40519040  0.59803867  1
  Rh  Rh242  1  0.40624647  0.40775301  0.40317241  1
  Rh  Rh243  1  0.19232154  0.39945818  0.00515121  1
  Rh  Rh244  1  0.19250433  0.60425821  0.80694163  1
  Rh  Rh245  1  0.20858623  0.59767234  0.59307970  1
  Rh  Rh246  1  0.80340006  0.79949588  0.19979812  1
  Rh  Rh247  1  0.40160664  0.19896623  0.59977092  1
  Rh  Rh248  1  0.59991827  0.60273431  0.60134247  1
  Rh  Rh249  1  0.19973197  0.19648988  0.20200974  1
