# generated using pymatgen
data_ZrScNbPdRh
_symmetry_space_group_name_H-M   'P 1'
_cell_length_a   16.56331889
_cell_length_b   16.55966480
_cell_length_c   16.56272953
_cell_angle_alpha   90.01605080
_cell_angle_beta   89.98496160
_cell_angle_gamma   89.98088154
_symmetry_Int_Tables_number   1
_chemical_formula_structural   ZrScNbPdRh
_chemical_formula_sum   'Zr50 Sc50 Nb50 Pd50 Rh50'
_cell_volume   4542.87470245
_cell_formula_units_Z   50
loop_
 _symmetry_equiv_pos_site_id
 _symmetry_equiv_pos_as_xyz
  1  'x, y, z'
loop_
 _atom_site_type_symbol
 _atom_site_label
 _atom_site_symmetry_multiplicity
 _atom_site_fract_x
 _atom_site_fract_y
 _atom_site_fract_z
 _atom_site_occupancy
  Zr  Zr0  1  0.10340109  0.10027633  0.90426250  1
  Zr  Zr1  1  0.30495026  0.10486630  0.50024561  1
  Zr  Zr2  1  0.49630243  0.89901860  0.10152949  1
  Zr  Zr3  1  0.90354272  0.69030245  0.69414071  1
  Zr  Zr4  1  0.50533613  0.70367302  0.70434804  1
  Zr  Zr5  1  0.50034092  0.90260598  0.30098358  1
  Zr  Zr6  1  0.10217536  0.69939061  0.29842013  1
  Zr  Zr7  1  0.90931448  0.30397488  0.69989547  1
  Zr  Zr8  1  0.49788574  0.09883622  0.30825864  1
  Zr  Zr9  1  0.09427174  0.31002168  0.10555236  1
  Zr  Zr10  1  0.49701361  0.70121553  0.90210034  1
  Zr  Zr11  1  0.09365537  0.09964251  0.29792613  1
  Zr  Zr12  1  0.09833028  0.29726292  0.89210538  1
  Zr  Zr13  1  0.70752971  0.29851050  0.70275424  1
  Zr  Zr14  1  0.70326074  0.70330463  0.70211963  1
  Zr  Zr15  1  0.30733664  0.89658599  0.50501115  1
  Zr  Zr16  1  0.90314923  0.90346641  0.50514985  1
  Zr  Zr17  1  0.90319388  0.29850601  0.50038199  1
  Zr  Zr18  1  0.89780218  0.50113508  0.70373489  1
  Zr  Zr19  1  0.49742131  0.49355171  0.90209870  1
  Zr  Zr20  1  0.49487797  0.70063601  0.29802309  1
  Zr  Zr21  1  0.09951610  0.69384968  0.10114926  1
  Zr  Zr22  1  0.89808816  0.70154449  0.10937636  1
  Zr  Zr23  1  0.70342377  0.70871839  0.50497712  1
  Zr  Zr24  1  0.70042882  0.30543075  0.10229624  1
  Zr  Zr25  1  0.49923205  0.90515776  0.49310287  1
  Zr  Zr26  1  0.89438936  0.08867365  0.69191263  1
  Zr  Zr27  1  0.50385595  0.30075723  0.90611786  1
  Zr  Zr28  1  0.29092381  0.49827122  0.49418952  1
  Zr  Zr29  1  0.49214722  0.69240383  0.09547423  1
  Zr  Zr30  1  0.69346204  0.50088519  0.28993657  1
  Zr  Zr31  1  0.30110810  0.30259921  0.89832820  1
  Zr  Zr32  1  0.70898494  0.29360728  0.50324910  1
  Zr  Zr33  1  0.89641380  0.30479453  0.10069505  1
  Zr  Zr34  1  0.90561880  0.50372946  0.50329442  1
  Zr  Zr35  1  0.69705448  0.49414940  0.10040144  1
  Zr  Zr36  1  0.70072840  0.50424795  0.50047544  1
  Zr  Zr37  1  0.89969920  0.69969334  0.50005315  1
  Zr  Zr38  1  0.50061491  0.10210007  0.69669853  1
  Zr  Zr39  1  0.30149479  0.09883272  0.91129627  1
  Zr  Zr40  1  0.70940634  0.90165342  0.69954599  1
  Zr  Zr41  1  0.50272670  0.50141398  0.50433246  1
  Zr  Zr42  1  0.09528553  0.90302721  0.90822145  1
  Zr  Zr43  1  0.50179605  0.30757074  0.09693371  1
  Zr  Zr44  1  0.10140341  0.90400729  0.30788722  1
  Zr  Zr45  1  0.09517866  0.70193804  0.50471659  1
  Zr  Zr46  1  0.70653737  0.70317995  0.29276488  1
  Zr  Zr47  1  0.29827917  0.48877934  0.70128578  1
  Zr  Zr48  1  0.29112126  0.71033095  0.69577548  1
  Zr  Zr49  1  0.10188877  0.89026903  0.69064067  1
  Sc  Sc50  1  0.70210040  0.88891321  0.11303511  1
  Sc  Sc51  1  0.29083011  0.29959925  0.69386180  1
  Sc  Sc52  1  0.90019801  0.89920398  0.89930870  1
  Sc  Sc53  1  0.49173122  0.29582308  0.50513781  1
  Sc  Sc54  1  0.69501287  0.89803186  0.30439080  1
  Sc  Sc55  1  0.10148831  0.89782847  0.10961275  1
  Sc  Sc56  1  0.90447432  0.49633813  0.09539505  1
  Sc  Sc57  1  0.70009676  0.69482770  0.89403589  1
  Sc  Sc58  1  0.48744711  0.30658282  0.30005387  1
  Sc  Sc59  1  0.49948275  0.70817102  0.49922499  1
  Sc  Sc60  1  0.89374778  0.69538097  0.89964292  1
  Sc  Sc61  1  0.30055848  0.89945435  0.09932873  1
  Sc  Sc62  1  0.30461424  0.70409554  0.49224568  1
  Sc  Sc63  1  0.29859974  0.31048724  0.30226223  1
  Sc  Sc64  1  0.10519443  0.49774427  0.29750934  1
  Sc  Sc65  1  0.29184403  0.29851481  0.49842604  1
  Sc  Sc66  1  0.10007377  0.09130063  0.09847372  1
  Sc  Sc67  1  0.71081539  0.10255662  0.30799660  1
  Sc  Sc68  1  0.70367601  0.69143670  0.09941039  1
  Sc  Sc69  1  0.30909382  0.30395524  0.10324868  1
  Sc  Sc70  1  0.90756790  0.10739781  0.11074927  1
  Sc  Sc71  1  0.09778387  0.49725396  0.48952602  1
  Sc  Sc72  1  0.10282615  0.29967545  0.50034347  1
  Sc  Sc73  1  0.70277488  0.09782127  0.89018823  1
  Sc  Sc74  1  0.29788686  0.10747705  0.30922540  1
  Sc  Sc75  1  0.90609811  0.08888642  0.89383526  1
  Sc  Sc76  1  0.49760821  0.11135818  0.09457298  1
  Sc  Sc77  1  0.69466192  0.10925171  0.10499660  1
  Sc  Sc78  1  0.89419084  0.31336445  0.89298087  1
  Sc  Sc79  1  0.69408648  0.50151411  0.70096140  1
  Sc  Sc80  1  0.70308893  0.89304019  0.88939822  1
  Sc  Sc81  1  0.49145872  0.10076162  0.50012928  1
  Sc  Sc82  1  0.10299553  0.68534470  0.89677593  1
  Sc  Sc83  1  0.49759492  0.31388862  0.69934999  1
  Sc  Sc84  1  0.49740591  0.90453787  0.69819232  1
  Sc  Sc85  1  0.30213911  0.69923748  0.10385943  1
  Sc  Sc86  1  0.90301236  0.50009032  0.89660752  1
  Sc  Sc87  1  0.49543207  0.50414716  0.29752596  1
  Sc  Sc88  1  0.49232967  0.90612066  0.89910736  1
  Sc  Sc89  1  0.30554246  0.09977109  0.69305980  1
  Sc  Sc90  1  0.50060866  0.09897929  0.90591325  1
  Sc  Sc91  1  0.89901113  0.89237590  0.30535315  1
  Sc  Sc92  1  0.09158664  0.10492521  0.70225446  1
  Sc  Sc93  1  0.09438172  0.50058745  0.70766325  1
  Sc  Sc94  1  0.90243908  0.29180649  0.28952272  1
  Sc  Sc95  1  0.09235332  0.09949763  0.49025615  1
  Sc  Sc96  1  0.29747030  0.69103245  0.90883471  1
  Sc  Sc97  1  0.90800437  0.89239294  0.09295024  1
  Sc  Sc98  1  0.29427624  0.89246482  0.30234885  1
  Sc  Sc99  1  0.30324938  0.50151214  0.10313271  1
  Nb  Nb100  1  0.69754858  0.30052230  0.90219315  1
  Nb  Nb101  1  0.09745023  0.90237671  0.50170422  1
  Nb  Nb102  1  0.89199616  0.10248642  0.48919133  1
  Nb  Nb103  1  0.30084515  0.89912163  0.90185087  1
  Nb  Nb104  1  0.90570699  0.90048878  0.69881091  1
  Nb  Nb105  1  0.29449025  0.50241826  0.30502584  1
  Nb  Nb106  1  0.29701335  0.89867579  0.69924781  1
  Nb  Nb107  1  0.30240253  0.10317682  0.10143595  1
  Nb  Nb108  1  0.10737892  0.29881758  0.29463216  1
  Nb  Nb109  1  0.90156413  0.09871985  0.30276236  1
  Nb  Nb110  1  0.70425523  0.30472302  0.29512524  1
  Nb  Nb111  1  0.29642398  0.49874253  0.90126807  1
  Nb  Nb112  1  0.09911247  0.69905985  0.69756509  1
  Nb  Nb113  1  0.70304912  0.48837531  0.89852876  1
  Nb  Nb114  1  0.90068799  0.50339241  0.30819365  1
  Nb  Nb115  1  0.71644383  0.10475799  0.50671625  1
  Nb  Nb116  1  0.50234515  0.49736005  0.10015271  1
  Nb  Nb117  1  0.70365172  0.90051106  0.50023395  1
  Nb  Nb118  1  0.70290350  0.10157750  0.69447835  1
  Nb  Nb119  1  0.49510174  0.50110676  0.70246629  1
  Nb  Nb120  1  0.90037371  0.69448315  0.30261006  1
  Nb  Nb121  1  0.10003124  0.49837521  0.09063187  1
  Nb  Nb122  1  0.10126320  0.50096549  0.90833555  1
  Nb  Nb123  1  0.09861581  0.30052872  0.69921807  1
  Nb  Nb124  1  0.29475649  0.69017833  0.30078939  1
  Nb  Nb125  1  0.60587716  0.39422033  0.39952380  1
  Nb  Nb126  1  0.19870125  0.20166809  0.19903964  1
  Nb  Nb127  1  0.39846032  0.00563479  0.19986080  1
  Nb  Nb128  1  0.79585312  0.00295880  0.00797280  1
  Nb  Nb129  1  0.60089474  0.20250631  0.79646479  1
  Nb  Nb130  1  0.40393301  0.20275464  0.80158145  1
  Nb  Nb131  1  0.60777170  -0.00624451  0.00379569  1
  Nb  Nb132  1  0.80374271  0.00206965  0.19984030  1
  Nb  Nb133  1  0.80000835  0.40340728  0.39423757  1
  Nb  Nb134  1  0.61311676  0.00564414  0.59447943  1
  Nb  Nb135  1  0.38976071  0.80012694  0.80065829  1
  Nb  Nb136  1  0.60646615  0.20609290  0.40075367  1
  Nb  Nb137  1  0.20086008  0.60111363  0.60162857  1
  Nb  Nb138  1  0.00393851  0.79564293  0.79275517  1
  Nb  Nb139  1  0.60017680  0.20851309  0.21239456  1
  Nb  Nb140  1  -0.00313630  0.20499756  -0.00156656  1
  Nb  Nb141  1  0.20413403  -0.00685524  0.79771281  1
  Nb  Nb142  1  0.59612569  0.80196377  -0.00015408  1
  Nb  Nb143  1  0.19843673  0.79924595  -0.00105691  1
  Nb  Nb144  1  0.80239668  0.19969268  -0.00256335  1
  Nb  Nb145  1  0.80130994  0.59987582  0.39625217  1
  Nb  Nb146  1  0.19641890  0.40530922  -0.00199488  1
  Nb  Nb147  1  0.39722166  0.59786062  0.60645087  1
  Nb  Nb148  1  0.19749448  -0.00533468  0.59926633  1
  Nb  Nb149  1  0.39664383  0.59667404  0.79590225  1
  Pd  Pd150  1  0.39263140  0.00305653  0.79844547  1
  Pd  Pd151  1  0.60285674  0.00311185  0.79906051  1
  Pd  Pd152  1  0.00087048  0.80319296  0.20598679  1
  Pd  Pd153  1  0.80071704  0.40313236  0.60000352  1
  Pd  Pd154  1  0.20467695  0.00122989  0.40821108  1
  Pd  Pd155  1  0.39809174  0.19825863  0.20625226  1
  Pd  Pd156  1  0.00915953  -0.00811936  0.79398259  1
  Pd  Pd157  1  -0.00904523  0.60399601  -0.00238382  1
  Pd  Pd158  1  0.60430924  0.59942775  -0.00391837  1
  Pd  Pd159  1  0.20866426  0.18971488  0.79113147  1
  Pd  Pd160  1  0.39689756  0.59459827  0.20274053  1
  Pd  Pd161  1  0.00599716  0.78612645  -0.01023569  1
  Pd  Pd162  1  0.80635302  0.59105202  0.19988384  1
  Pd  Pd163  1  -0.00070212  0.19289101  0.59574019  1
  Pd  Pd164  1  0.59623293  0.60439394  0.60222353  1
  Pd  Pd165  1  0.20373361  0.59658635  0.79408310  1
  Pd  Pd166  1  0.19608084  0.80204404  0.81327388  1
  Pd  Pd167  1  0.20021221  0.59313217  0.19657622  1
  Pd  Pd168  1  0.19201279  0.40090457  0.80185415  1
  Pd  Pd169  1  0.60115611  0.79563888  0.39862270  1
  Pd  Pd170  1  0.59730751  0.78914098  0.19341155  1
  Pd  Pd171  1  0.21031337  0.00697512  0.20290309  1
  Pd  Pd172  1  0.59631740  0.19819955  0.59845204  1
  Pd  Pd173  1  -0.00999131  0.19973721  0.80476782  1
  Pd  Pd174  1  -0.00063625  0.39085544  0.39050833  1
  Pd  Pd175  1  0.61174238  0.01372915  0.41048824  1
  Pd  Pd176  1  -0.00890682  -0.00902714  0.20058200  1
  Pd  Pd177  1  -0.00344042  0.40881461  0.20846431  1
  Pd  Pd178  1  0.20279225  -0.00796255  0.00342115  1
  Pd  Pd179  1  0.00028328  0.79928220  0.39926789  1
  Pd  Pd180  1  0.00925256  0.40522837  0.60063341  1
  Pd  Pd181  1  0.81363358  0.79721288  0.79587646  1
  Pd  Pd182  1  0.59988424  0.01141818  0.19645489  1
  Pd  Pd183  1  0.00117878  0.20734749  0.39613518  1
  Pd  Pd184  1  0.59878144  0.59242681  0.80606576  1
  Pd  Pd185  1  0.19185095  0.19044894  0.59983733  1
  Pd  Pd186  1  0.80183602  0.59189092  -0.00274452  1
  Pd  Pd187  1  0.39160274  0.80398178  0.20405543  1
  Pd  Pd188  1  0.00159789  0.59014366  0.20209418  1
  Pd  Pd189  1  0.40282741  0.40191029  0.40483022  1
  Pd  Pd190  1  0.59683977  0.81284478  0.60084499  1
  Pd  Pd191  1  0.40143816  0.60008694  0.40643762  1
  Pd  Pd192  1  0.19515296  0.21177810  0.01327691  1
  Pd  Pd193  1  0.79123585  0.80376227  0.00054377  1
  Pd  Pd194  1  0.60254856  0.39592225  0.59745196  1
  Pd  Pd195  1  0.39430469  0.40042552  0.59257128  1
  Pd  Pd196  1  0.19971901  0.79669116  0.40414930  1
  Pd  Pd197  1  0.80115943  -0.00716814  0.39448038  1
  Pd  Pd198  1  0.60318679  0.60289914  0.39712187  1
  Pd  Pd199  1  0.80401153  0.19710319  0.80341727  1
  Rh  Rh200  1  0.20426420  0.59789122  0.00839310  1
  Rh  Rh201  1  0.19520909  0.60554110  0.40326870  1
  Rh  Rh202  1  0.58659992  0.39596292  0.20649917  1
  Rh  Rh203  1  0.00576438  0.39433974  -0.00925897  1
  Rh  Rh204  1  0.01039752  0.19927585  0.19588630  1
  Rh  Rh205  1  0.79929412  0.79631880  0.39928196  1
  Rh  Rh206  1  0.40357625  0.00185987  0.01078785  1
  Rh  Rh207  1  0.79465082  0.59460343  0.80050976  1
  Rh  Rh208  1  0.19593658  0.39630526  0.39613735  1
  Rh  Rh209  1  0.79463162  0.19255941  0.19853731  1
  Rh  Rh210  1  0.39792113  0.20761893  0.60845297  1
  Rh  Rh211  1  0.00064328  0.60371903  0.39582584  1
  Rh  Rh212  1  0.81496211  0.20282381  0.60779798  1
  Rh  Rh213  1  0.39605323  0.79989641  -0.00683998  1
  Rh  Rh214  1  0.01166569  0.59239691  0.59956845  1
  Rh  Rh215  1  0.79399662  0.60028937  0.59906905  1
  Rh  Rh216  1  0.39990970  0.39744157  0.80292856  1
  Rh  Rh217  1  0.40722977  0.79771900  0.60690965  1
  Rh  Rh218  1  0.19629909  0.20429437  0.39363471  1
  Rh  Rh219  1  0.40133719  0.20649322  0.40201708  1
  Rh  Rh220  1  0.80704665  0.80549267  0.20308223  1
  Rh  Rh221  1  0.60335194  0.40580786  -0.00158026  1
  Rh  Rh222  1  0.80686486  0.80405674  0.60364538  1
  Rh  Rh223  1  0.81107675  0.40877155  0.20424377  1
  Rh  Rh224  1  0.39814957  0.41073598  0.20074398  1
  Rh  Rh225  1  0.20464645  0.40049600  0.19515276  1
  Rh  Rh226  1  0.00493336  0.40416288  0.80219408  1
  Rh  Rh227  1  0.39802985  0.79788021  0.38986098  1
  Rh  Rh228  1  0.39005707  -0.00443335  0.39095201  1
  Rh  Rh229  1  0.80066730  -0.00177266  0.80275945  1
  Rh  Rh230  1  0.00341347  0.00682646  0.59243606  1
  Rh  Rh231  1  0.58838736  0.80594126  0.80806557  1
  Rh  Rh232  1  0.80300043  0.20796524  0.39276595  1
  Rh  Rh233  1  0.60378005  0.39652281  0.79949229  1
  Rh  Rh234  1  0.59309429  0.60324549  0.19375693  1
  Rh  Rh235  1  -0.00637605  -0.00080054  0.40006481  1
  Rh  Rh236  1  0.20138370  0.79385622  0.19603013  1
  Rh  Rh237  1  0.79617503  0.40439070  0.79671863  1
  Rh  Rh238  1  0.79978022  -0.00531113  0.59555715  1
  Rh  Rh239  1  -0.00772816  0.79872834  0.60257516  1
  Rh  Rh240  1  0.39671122  0.59014834  -0.00321206  1
  Rh  Rh241  1  0.39282887  0.40489989  0.00285197  1
  Rh  Rh242  1  0.61278847  0.19200140  -0.00845235  1
  Rh  Rh243  1  0.39769463  0.20434334  -0.00481527  1
  Rh  Rh244  1  0.19969384  0.79984061  0.58675144  1
  Rh  Rh245  1  0.18936963  0.40497605  0.59968986  1
  Rh  Rh246  1  -0.01120254  0.00893816  0.00833482  1
  Rh  Rh247  1  -0.00040351  0.60272156  0.80414894  1
  Rh  Rh248  1  0.40047589  -0.00247401  0.59947786  1
  Rh  Rh249  1  0.79837356  0.39858326  -0.00282247  1
