# generated using pymatgen
data_ZrScNbPdRh
_symmetry_space_group_name_H-M   'P 1'
_cell_length_a   16.56016418
_cell_length_b   16.55952062
_cell_length_c   16.56002558
_cell_angle_alpha   90.01232804
_cell_angle_beta   89.97469015
_cell_angle_gamma   90.01568850
_symmetry_Int_Tables_number   1
_chemical_formula_structural   ZrScNbPdRh
_chemical_formula_sum   'Zr50 Sc50 Nb50 Pd50 Rh50'
_cell_volume   4541.22827078
_cell_formula_units_Z   50
loop_
 _symmetry_equiv_pos_site_id
 _symmetry_equiv_pos_as_xyz
  1  'x, y, z'
loop_
 _atom_site_type_symbol
 _atom_site_label
 _atom_site_symmetry_multiplicity
 _atom_site_fract_x
 _atom_site_fract_y
 _atom_site_fract_z
 _atom_site_occupancy
  Zr  Zr0  1  0.10182131  0.30222461  0.10524485  1
  Zr  Zr1  1  0.10743129  0.89581698  0.90327455  1
  Zr  Zr2  1  0.49915650  0.30214533  0.09820505  1
  Zr  Zr3  1  0.69348407  0.90788023  0.69511905  1
  Zr  Zr4  1  0.90754213  0.69413856  0.29619196  1
  Zr  Zr5  1  0.30262895  0.69224703  0.30129251  1
  Zr  Zr6  1  0.50497626  0.69542220  0.10109622  1
  Zr  Zr7  1  0.48743906  0.48823677  0.49726817  1
  Zr  Zr8  1  0.50018981  0.29861936  0.49605243  1
  Zr  Zr9  1  0.30825288  0.49687231  0.10917995  1
  Zr  Zr10  1  0.69915700  0.09820980  0.69913968  1
  Zr  Zr11  1  0.89905009  0.48337260  0.89296963  1
  Zr  Zr12  1  0.09422846  0.50747823  0.89831807  1
  Zr  Zr13  1  0.49437474  0.90057852  0.90378982  1
  Zr  Zr14  1  0.69504810  0.49094638  0.10517773  1
  Zr  Zr15  1  0.09337662  0.30695921  0.90460527  1
  Zr  Zr16  1  0.10394010  0.49861628  0.49683463  1
  Zr  Zr17  1  0.90087624  0.30469425  0.70024503  1
  Zr  Zr18  1  0.29688729  0.09651685  0.89484324  1
  Zr  Zr19  1  0.09660639  0.10783255  0.50110928  1
  Zr  Zr20  1  0.70307288  0.30417452  0.29404242  1
  Zr  Zr21  1  0.70540428  0.09673062  0.51185934  1
  Zr  Zr22  1  0.70397008  0.31671139  0.90063602  1
  Zr  Zr23  1  0.70725619  0.49809055  0.48895995  1
  Zr  Zr24  1  0.30423814  0.30194129  0.09756783  1
  Zr  Zr25  1  0.10044108  0.90059957  0.29681505  1
  Zr  Zr26  1  0.69864714  0.10161340  0.29093163  1
  Zr  Zr27  1  0.49417380  0.10232266  0.89426489  1
  Zr  Zr28  1  0.08757346  0.69269664  0.09914822  1
  Zr  Zr29  1  0.10463223  0.10547373  0.29695679  1
  Zr  Zr30  1  0.29820457  0.10322439  0.09771260  1
  Zr  Zr31  1  0.30113625  0.51623726  0.69582668  1
  Zr  Zr32  1  0.09275640  0.49056809  0.30199706  1
  Zr  Zr33  1  0.30147203  0.30021219  0.70421269  1
  Zr  Zr34  1  0.29940499  0.69698419  0.50301521  1
  Zr  Zr35  1  0.49795680  0.69517244  0.29891427  1
  Zr  Zr36  1  0.49896543  0.69708563  0.90259344  1
  Zr  Zr37  1  0.30469370  0.10603448  0.71051482  1
  Zr  Zr38  1  0.09691028  0.29866839  0.29761234  1
  Zr  Zr39  1  0.90113624  0.89717307  0.09371753  1
  Zr  Zr40  1  0.90668155  0.70199934  0.69218146  1
  Zr  Zr41  1  0.48610192  0.10056803  0.49933184  1
  Zr  Zr42  1  0.10569879  0.89618286  0.49433070  1
  Zr  Zr43  1  0.50290608  0.29669139  0.30232554  1
  Zr  Zr44  1  0.50374780  0.70799155  0.49460236  1
  Zr  Zr45  1  0.90378243  0.09922324  0.69214330  1
  Zr  Zr46  1  0.10459223  0.89975270  0.09823088  1
  Zr  Zr47  1  0.90055040  0.10250296  0.28436237  1
  Zr  Zr48  1  0.69132061  0.89633169  0.50190171  1
  Zr  Zr49  1  0.69683627  0.89964802  0.09850313  1
  Sc  Sc50  1  0.10667680  0.69704369  0.70764997  1
  Sc  Sc51  1  0.50359689  0.30718702  0.69192530  1
  Sc  Sc52  1  0.69136717  0.49705600  0.70705534  1
  Sc  Sc53  1  0.09357368  0.09615106  0.10526046  1
  Sc  Sc54  1  0.30587471  0.89971628  0.49817106  1
  Sc  Sc55  1  0.70329154  0.10219043  0.10553953  1
  Sc  Sc56  1  0.69386326  0.70128709  0.09960931  1
  Sc  Sc57  1  0.49824770  0.68832420  0.69532539  1
  Sc  Sc58  1  0.90068132  0.29881110  0.49889054  1
  Sc  Sc59  1  0.90583775  0.90159192  0.90807808  1
  Sc  Sc60  1  0.50165720  0.09931818  0.29994824  1
  Sc  Sc61  1  0.89841214  0.09390223  0.09207811  1
  Sc  Sc62  1  0.50810563  0.50105241  0.90431691  1
  Sc  Sc63  1  0.10464825  0.08769469  0.89458137  1
  Sc  Sc64  1  0.29104773  0.69364393  0.09942058  1
  Sc  Sc65  1  0.50185990  0.90392343  0.30702663  1
  Sc  Sc66  1  0.49951485  0.90200249  0.49903179  1
  Sc  Sc67  1  0.90065993  0.10510531  0.51052717  1
  Sc  Sc68  1  0.90824139  0.70537950  0.91125357  1
  Sc  Sc69  1  0.69058205  0.69377215  0.69038665  1
  Sc  Sc70  1  0.09400314  0.70649454  0.49690260  1
  Sc  Sc71  1  0.29030255  0.69670433  0.90025313  1
  Sc  Sc72  1  0.91064445  0.50335976  0.69723474  1
  Sc  Sc73  1  0.29230005  0.90053311  0.30256828  1
  Sc  Sc74  1  0.09492297  0.30447713  0.48979189  1
  Sc  Sc75  1  0.69492502  0.30088408  0.49509126  1
  Sc  Sc76  1  0.29565391  0.29921883  0.29768304  1
  Sc  Sc77  1  0.69017841  0.90455355  0.29845346  1
  Sc  Sc78  1  0.91186739  0.89888596  0.50798867  1
  Sc  Sc79  1  0.50234046  0.91013193  0.69679349  1
  Sc  Sc80  1  0.10099036  0.49630205  0.10031872  1
  Sc  Sc81  1  0.70303610  0.90129675  0.90629854  1
  Sc  Sc82  1  0.90664576  0.50567873  0.11329999  1
  Sc  Sc83  1  0.69173632  0.69373334  0.49917334  1
  Sc  Sc84  1  0.30291378  0.50787766  0.90506400  1
  Sc  Sc85  1  0.09378790  0.89805248  0.70557758  1
  Sc  Sc86  1  0.90918901  0.89566179  0.29460813  1
  Sc  Sc87  1  0.31357227  0.30594858  0.49538089  1
  Sc  Sc88  1  0.29443331  0.89422528  0.69713401  1
  Sc  Sc89  1  0.69832793  0.30352912  0.69521000  1
  Sc  Sc90  1  0.90553173  0.50937603  0.49367629  1
  Sc  Sc91  1  0.69360887  0.29655851  0.09801977  1
  Sc  Sc92  1  0.90219693  0.30590015  0.29446499  1
  Sc  Sc93  1  0.50133317  0.30203452  0.90866151  1
  Sc  Sc94  1  0.69787417  0.09910034  0.90952152  1
  Sc  Sc95  1  0.69040354  0.68744128  0.30328940  1
  Sc  Sc96  1  0.69672001  0.70369123  0.90987704  1
  Sc  Sc97  1  0.30129988  0.10113919  0.30614764  1
  Sc  Sc98  1  0.10142196  0.70921954  0.29701079  1
  Sc  Sc99  1  0.30796212  0.29459343  0.89986384  1
  Nb  Nb100  1  0.29523302  0.90041782  0.91014305  1
  Nb  Nb101  1  0.50302872  0.09881844  0.70810134  1
  Nb  Nb102  1  0.10581812  0.10545724  0.70379957  1
  Nb  Nb103  1  0.49817468  0.49606211  0.10573563  1
  Nb  Nb104  1  0.90642449  0.28859250  0.09267858  1
  Nb  Nb105  1  0.30211466  0.90019443  0.08849931  1
  Nb  Nb106  1  0.89924323  0.29389522  0.90002544  1
  Nb  Nb107  1  0.10182783  0.30024772  0.70132447  1
  Nb  Nb108  1  0.89799854  0.10101847  0.89972388  1
  Nb  Nb109  1  0.70987037  0.49193467  0.29721524  1
  Nb  Nb110  1  0.49636756  0.50475095  0.28916112  1
  Nb  Nb111  1  0.89679892  0.89862286  0.70167573  1
  Nb  Nb112  1  0.49663558  0.49834464  0.70584710  1
  Nb  Nb113  1  0.30528829  0.69865807  0.70411351  1
  Nb  Nb114  1  0.70695495  0.49823405  0.90043043  1
  Nb  Nb115  1  0.10125850  0.49480384  0.70295312  1
  Nb  Nb116  1  0.29574268  0.49891584  0.49244387  1
  Nb  Nb117  1  0.89870301  0.69941840  0.10115159  1
  Nb  Nb118  1  0.49835776  0.89609639  0.09938995  1
  Nb  Nb119  1  0.50336147  0.10731944  0.09750724  1
  Nb  Nb120  1  0.88878337  0.49659376  0.30187154  1
  Nb  Nb121  1  0.89885616  0.70696080  0.49835344  1
  Nb  Nb122  1  0.10112903  0.69825043  0.90788480  1
  Nb  Nb123  1  0.29847192  0.10191648  0.50482891  1
  Nb  Nb124  1  0.30555016  0.50476797  0.31468623  1
  Nb  Nb125  1  -0.00299633  0.19952674  0.80192152  1
  Nb  Nb126  1  0.80609739  -0.00080245  0.40090988  1
  Nb  Nb127  1  0.80060427  0.79485874  0.20247689  1
  Nb  Nb128  1  0.60378071  0.19967849  0.80054730  1
  Nb  Nb129  1  0.39872092  0.80547656  0.19277003  1
  Nb  Nb130  1  0.80476214  0.00133447  0.79881265  1
  Nb  Nb131  1  0.59752326  0.80175355  0.79963158  1
  Nb  Nb132  1  0.79796153  0.80002548  0.79332956  1
  Nb  Nb133  1  0.80218042  0.80064547  0.40093911  1
  Nb  Nb134  1  0.80174180  0.59318467  -0.00172788  1
  Nb  Nb135  1  0.80124603  0.79823946  0.59868286  1
  Nb  Nb136  1  0.80003127  0.60353202  0.80575681  1
  Nb  Nb137  1  0.39849177  0.79633803  0.80108142  1
  Nb  Nb138  1  0.80153760  0.40649366  0.59713798  1
  Nb  Nb139  1  0.20094873  0.20317953  0.60161355  1
  Nb  Nb140  1  0.79811736  0.19314152  0.39465575  1
  Nb  Nb141  1  0.19961934  0.01158993  0.60158547  1
  Nb  Nb142  1  0.00003435  0.00548631  0.39728135  1
  Nb  Nb143  1  0.19764700  0.20052064  -0.00074668  1
  Nb  Nb144  1  0.80242999  0.19942552  0.80406679  1
  Nb  Nb145  1  0.40220492  -0.00544320  0.18930708  1
  Nb  Nb146  1  0.20128066  0.40210618  0.60251511  1
  Nb  Nb147  1  0.20054435  0.40513268  0.79618424  1
  Nb  Nb148  1  0.39988453  0.40841113  0.79566927  1
  Nb  Nb149  1  0.59049580  0.00070802  0.00742236  1
  Pd  Pd150  1  0.00454459  0.60112064  0.39589975  1
  Pd  Pd151  1  0.60737274  0.59153858  0.00333743  1
  Pd  Pd152  1  0.40709832  0.80054789  0.60906097  1
  Pd  Pd153  1  0.39013015  -0.01425840  0.79569970  1
  Pd  Pd154  1  -0.00427233  0.00243104  0.80258512  1
  Pd  Pd155  1  0.20840265  0.39899941  -0.00816215  1
  Pd  Pd156  1  0.39992613  0.59992023  0.00460154  1
  Pd  Pd157  1  0.81036789  0.40332413  0.01398240  1
  Pd  Pd158  1  0.19223080  0.60182336  0.59819586  1
  Pd  Pd159  1  0.19753429  0.59396782  0.00461566  1
  Pd  Pd160  1  0.80929128  0.38990456  0.18652990  1
  Pd  Pd161  1  0.79311597  0.20021387  0.00053452  1
  Pd  Pd162  1  0.20762750  0.20983425  0.40868592  1
  Pd  Pd163  1  0.59267020  0.58637666  0.59160070  1
  Pd  Pd164  1  0.39612462  0.80438572  0.39120096  1
  Pd  Pd165  1  -0.00597785  0.60738745  0.80465165  1
  Pd  Pd166  1  0.01100820  -0.00386677  0.59838677  1
  Pd  Pd167  1  0.59734304  0.40718723  0.39055136  1
  Pd  Pd168  1  0.79942709  0.59844955  0.60643417  1
  Pd  Pd169  1  0.18945266  0.60633111  0.39587364  1
  Pd  Pd170  1  0.00994323  0.18844709  -0.00547761  1
  Pd  Pd171  1  0.39917966  0.39622693  0.20999820  1
  Pd  Pd172  1  0.80156859  0.60915782  0.39758786  1
  Pd  Pd173  1  0.79253166  0.60551829  0.19477201  1
  Pd  Pd174  1  -0.00374412  0.79595809  0.80567122  1
  Pd  Pd175  1  0.39299294  0.78800112  -0.00015037  1
  Pd  Pd176  1  0.40315762  0.00889025  0.00343614  1
  Pd  Pd177  1  -0.00799416  0.40543785  0.01050171  1
  Pd  Pd178  1  0.60654066  0.60505218  0.80424051  1
  Pd  Pd179  1  -0.01235542  0.19645160  0.39539706  1
  Pd  Pd180  1  0.40077487  0.20226023  0.60559891  1
  Pd  Pd181  1  0.59431605  0.19627880  0.60350298  1
  Pd  Pd182  1  0.19416940  0.59174049  0.20568411  1
  Pd  Pd183  1  0.01124079  0.60450196  0.59732420  1
  Pd  Pd184  1  0.20691157  0.79888885  0.19430972  1
  Pd  Pd185  1  0.60665643  0.19167486  0.40174439  1
  Pd  Pd186  1  0.59872326  0.79982897  0.20853757  1
  Pd  Pd187  1  0.40087271  0.19335310  0.20525810  1
  Pd  Pd188  1  0.60575563  0.40749678  0.59737360  1
  Pd  Pd189  1  0.20503107  0.79870016  0.80236335  1
  Pd  Pd190  1  0.20823326  0.00058739  0.19805198  1
  Pd  Pd191  1  0.00038574  0.39879501  0.59279910  1
  Pd  Pd192  1  0.59226895  0.58639429  0.39932476  1
  Pd  Pd193  1  0.39368524  -0.00154653  0.60597917  1
  Pd  Pd194  1  0.60359431  0.00843071  0.40501727  1
  Pd  Pd195  1  0.19882970  0.00358492  0.40653709  1
  Pd  Pd196  1  0.19704075  0.80203228  0.60130026  1
  Pd  Pd197  1  0.20593883  0.40631964  0.20802969  1
  Pd  Pd198  1  0.40526191  0.59939113  0.59083195  1
  Pd  Pd199  1  0.80273025  -0.01296228  0.20334926  1
  Rh  Rh200  1  0.80549345  -0.01375822  0.59702105  1
  Rh  Rh201  1  0.00512755  0.39421347  0.79798528  1
  Rh  Rh202  1  0.39867850  0.60528978  0.19578594  1
  Rh  Rh203  1  -0.00951463  0.40286493  0.39845696  1
  Rh  Rh204  1  0.59755455  0.79939504  0.60672393  1
  Rh  Rh205  1  0.80419689  0.20750442  0.19582497  1
  Rh  Rh206  1  0.58500888  0.00949087  0.59169045  1
  Rh  Rh207  1  -0.00847875  0.59434828  -0.00235510  1
  Rh  Rh208  1  0.59116359  0.39363083  0.80391736  1
  Rh  Rh209  1  0.20424827  -0.01141100  0.79265744  1
  Rh  Rh210  1  -0.00118175  0.20160331  0.19406607  1
  Rh  Rh211  1  0.00763000  0.80072193  0.00263377  1
  Rh  Rh212  1  0.40026830  0.39822548  0.38904700  1
  Rh  Rh213  1  0.59791763  0.20321519  0.19721153  1
  Rh  Rh214  1  0.79481254  0.00181603  -0.00292129  1
  Rh  Rh215  1  0.39144450  0.40761438  0.60677615  1
  Rh  Rh216  1  0.19656655  0.00714303  0.00269741  1
  Rh  Rh217  1  -0.00588939  0.39826349  0.19820125  1
  Rh  Rh218  1  0.59980842  0.80835207  -0.00619404  1
  Rh  Rh219  1  0.60509750  0.79911683  0.39606794  1
  Rh  Rh220  1  0.39655619  0.00084443  0.39354387  1
  Rh  Rh221  1  0.60128360  0.19660088  -0.00340393  1
  Rh  Rh222  1  0.58852166  0.00354403  0.19122069  1
  Rh  Rh223  1  0.20033948  0.20039814  0.19300643  1
  Rh  Rh224  1  0.20753160  0.79362331  0.40232705  1
  Rh  Rh225  1  0.00405527  0.00100738  -0.00258785  1
  Rh  Rh226  1  0.79924573  0.79151572  0.00621365  1
  Rh  Rh227  1  0.80000823  0.40247317  0.78711060  1
  Rh  Rh228  1  0.00092626  -0.00310281  0.20075436  1
  Rh  Rh229  1  0.00471060  0.59443186  0.20871147  1
  Rh  Rh230  1  0.79668041  0.21621255  0.59556411  1
  Rh  Rh231  1  -0.00360351  0.80083406  0.19176244  1
  Rh  Rh232  1  0.80478535  0.39218817  0.40541859  1
  Rh  Rh233  1  0.40572921  0.60064466  0.40730664  1
  Rh  Rh234  1  0.41928134  0.21536658  0.79599756  1
  Rh  Rh235  1  0.40189364  0.60137595  0.80476098  1
  Rh  Rh236  1  0.59694511  0.40483941  0.00112108  1
  Rh  Rh237  1  0.18682189  0.21043304  0.80907037  1
  Rh  Rh238  1  0.39429778  0.19665197  -0.00190181  1
  Rh  Rh239  1  0.59477239  0.40121570  0.20464769  1
  Rh  Rh240  1  0.00361701  0.80011112  0.60366376  1
  Rh  Rh241  1  0.19732285  0.59943317  0.80256226  1
  Rh  Rh242  1  0.60382462  0.59023610  0.20086348  1
  Rh  Rh243  1  0.20426971  0.39620411  0.40237600  1
  Rh  Rh244  1  0.40214353  0.40864937  -0.00484396  1
  Rh  Rh245  1  0.39636101  0.19950096  0.39624470  1
  Rh  Rh246  1  0.60813608  0.00178868  0.81257935  1
  Rh  Rh247  1  0.00860276  0.20736586  0.60633560  1
  Rh  Rh248  1  0.19634933  0.79237672  0.00417651  1
  Rh  Rh249  1  -0.00449869  0.80707897  0.39897128  1
