# generated using pymatgen
data_ZrScNbPdRh
_symmetry_space_group_name_H-M   'P 1'
_cell_length_a   16.56058628
_cell_length_b   16.56306371
_cell_length_c   16.56111394
_cell_angle_alpha   89.99820677
_cell_angle_beta   90.02516123
_cell_angle_gamma   90.01948455
_symmetry_Int_Tables_number   1
_chemical_formula_structural   ZrScNbPdRh
_chemical_formula_sum   'Zr50 Sc50 Nb50 Pd50 Rh50'
_cell_volume   4542.61423922
_cell_formula_units_Z   50
loop_
 _symmetry_equiv_pos_site_id
 _symmetry_equiv_pos_as_xyz
  1  'x, y, z'
loop_
 _atom_site_type_symbol
 _atom_site_label
 _atom_site_symmetry_multiplicity
 _atom_site_fract_x
 _atom_site_fract_y
 _atom_site_fract_z
 _atom_site_occupancy
  Zr  Zr0  1  0.49939087  0.29111346  0.50118385  1
  Zr  Zr1  1  0.50199062  0.28637348  0.30107800  1
  Zr  Zr2  1  0.90232652  0.30649471  0.49944037  1
  Zr  Zr3  1  0.09845624  0.49936130  0.09916076  1
  Zr  Zr4  1  0.30205502  0.29582519  0.71188610  1
  Zr  Zr5  1  0.30094146  0.69440422  0.29739125  1
  Zr  Zr6  1  0.49463291  0.50471147  0.89592622  1
  Zr  Zr7  1  0.29906506  0.29865264  0.90169571  1
  Zr  Zr8  1  0.70214529  0.09696880  0.90033617  1
  Zr  Zr9  1  0.49972129  0.90505426  0.49746362  1
  Zr  Zr10  1  0.49431382  0.69965132  0.30540979  1
  Zr  Zr11  1  0.70071588  0.50311227  0.49675457  1
  Zr  Zr12  1  0.30498285  0.50198855  0.71371277  1
  Zr  Zr13  1  0.30052485  0.29752963  0.49865710  1
  Zr  Zr14  1  0.90015024  0.10446188  0.89247716  1
  Zr  Zr15  1  0.90401272  0.29076508  0.30081548  1
  Zr  Zr16  1  0.90386572  0.70439880  0.11253252  1
  Zr  Zr17  1  0.90078592  0.30022847  0.70849201  1
  Zr  Zr18  1  0.09042332  0.09922488  0.29838822  1
  Zr  Zr19  1  0.49714870  0.70907751  0.90265203  1
  Zr  Zr20  1  0.90454830  0.89455800  0.28978776  1
  Zr  Zr21  1  0.50274442  0.29266562  0.10282276  1
  Zr  Zr22  1  0.10486330  0.50035704  0.90842162  1
  Zr  Zr23  1  0.69084977  0.10775302  0.09209760  1
  Zr  Zr24  1  0.09760002  0.09726414  0.49639258  1
  Zr  Zr25  1  0.29854176  0.70953757  0.49450882  1
  Zr  Zr26  1  0.90514182  0.50505973  0.49776524  1
  Zr  Zr27  1  0.69451538  0.28934563  0.49459044  1
  Zr  Zr28  1  0.90317191  0.30240846  0.90213164  1
  Zr  Zr29  1  0.49899626  0.70102613  0.50752967  1
  Zr  Zr30  1  0.89814774  0.89905543  0.10244524  1
  Zr  Zr31  1  0.30246175  0.89371469  0.30901620  1
  Zr  Zr32  1  0.69877853  0.29829530  0.70148266  1
  Zr  Zr33  1  0.10341502  0.69283773  0.10008737  1
  Zr  Zr34  1  0.49328489  0.10505767  0.10356489  1
  Zr  Zr35  1  0.70105990  0.50424786  0.28971477  1
  Zr  Zr36  1  0.10223436  0.30185194  0.10314981  1
  Zr  Zr37  1  0.50226797  0.50783759  0.49553138  1
  Zr  Zr38  1  0.11029750  0.09906567  0.09877603  1
  Zr  Zr39  1  0.09950043  0.09257007  0.71075974  1
  Zr  Zr40  1  0.88867263  0.88696221  0.50477761  1
  Zr  Zr41  1  0.69736966  0.69353197  0.10071047  1
  Zr  Zr42  1  0.90093573  0.49681884  0.90037201  1
  Zr  Zr43  1  0.10110190  0.70883560  0.89541927  1
  Zr  Zr44  1  0.90453656  0.70508093  0.69561579  1
  Zr  Zr45  1  0.89917586  0.50153902  0.10947083  1
  Zr  Zr46  1  0.70196742  0.29499305  0.90087679  1
  Zr  Zr47  1  0.29666026  0.50845229  0.10687113  1
  Zr  Zr48  1  0.69979331  0.09767157  0.70094153  1
  Zr  Zr49  1  0.70861829  0.10011237  0.31032014  1
  Sc  Sc50  1  0.70474548  0.50371637  0.89434627  1
  Sc  Sc51  1  0.49767328  0.90259021  0.89666389  1
  Sc  Sc52  1  0.29422791  0.49842137  0.49421527  1
  Sc  Sc53  1  0.09945649  0.30372358  0.90574322  1
  Sc  Sc54  1  0.70142507  0.90911389  0.68500463  1
  Sc  Sc55  1  0.50398355  0.09632916  0.90136990  1
  Sc  Sc56  1  0.30153913  0.89518378  0.89662957  1
  Sc  Sc57  1  0.30051527  0.09511990  0.71375713  1
  Sc  Sc58  1  0.09413809  0.69829485  0.50583898  1
  Sc  Sc59  1  0.29431179  0.31029480  0.29426613  1
  Sc  Sc60  1  0.30277057  0.09598243  0.50674634  1
  Sc  Sc61  1  0.89545017  0.90270947  0.90133112  1
  Sc  Sc62  1  0.89696260  0.70043928  0.30462828  1
  Sc  Sc63  1  0.10970706  0.89701218  0.49540519  1
  Sc  Sc64  1  0.50019077  0.50729955  0.29459885  1
  Sc  Sc65  1  0.90386464  0.29705092  0.10571749  1
  Sc  Sc66  1  0.89215009  0.69744399  0.90340091  1
  Sc  Sc67  1  0.10618373  0.70134890  0.69778408  1
  Sc  Sc68  1  0.30316948  0.50149486  0.29497757  1
  Sc  Sc69  1  0.30303260  0.89902452  0.50317966  1
  Sc  Sc70  1  0.71410327  0.90119338  0.29940950  1
  Sc  Sc71  1  0.49980095  0.28987611  0.70602337  1
  Sc  Sc72  1  0.70086011  0.69228841  0.68822419  1
  Sc  Sc73  1  0.29941138  0.09209627  0.29021340  1
  Sc  Sc74  1  0.70662339  0.69897359  0.29909573  1
  Sc  Sc75  1  0.89528929  0.49804248  0.70088846  1
  Sc  Sc76  1  0.29748436  0.28993511  0.09677528  1
  Sc  Sc77  1  0.30301797  0.70340200  0.90311156  1
  Sc  Sc78  1  0.70754243  0.70384625  0.49860916  1
  Sc  Sc79  1  0.10331851  0.49095338  0.29673219  1
  Sc  Sc80  1  0.08890172  0.70609562  0.29563845  1
  Sc  Sc81  1  0.70550912  0.90531701  0.09298689  1
  Sc  Sc82  1  0.89809943  0.10426963  0.48150696  1
  Sc  Sc83  1  0.09970260  0.90506479  0.30034525  1
  Sc  Sc84  1  0.69969139  0.29827028  0.29054438  1
  Sc  Sc85  1  0.70511861  0.49705199  0.70330215  1
  Sc  Sc86  1  0.09937205  0.89513452  0.71217843  1
  Sc  Sc87  1  0.49512507  0.29472975  0.89647976  1
  Sc  Sc88  1  0.10331042  0.50922003  0.69832337  1
  Sc  Sc89  1  0.09449728  0.31284281  0.49089173  1
  Sc  Sc90  1  0.30444423  0.90380442  0.70123677  1
  Sc  Sc91  1  0.89758661  0.89826419  0.69806430  1
  Sc  Sc92  1  0.50673765  0.10375293  0.49545011  1
  Sc  Sc93  1  0.69387055  0.91076655  0.90221854  1
  Sc  Sc94  1  0.69931328  0.69305704  0.90521021  1
  Sc  Sc95  1  0.09533458  0.50028371  0.49902719  1
  Sc  Sc96  1  0.50070553  0.69365766  0.09007388  1
  Sc  Sc97  1  0.10360771  0.91272306  0.09603531  1
  Sc  Sc98  1  0.49341376  0.89995868  0.70001988  1
  Sc  Sc99  1  0.90504469  0.09927245  0.10122414  1
  Nb  Nb100  1  0.29658035  0.10258327  0.90868627  1
  Nb  Nb101  1  0.49752930  0.50394209  0.69571433  1
  Nb  Nb102  1  0.50556063  0.50322276  0.09693553  1
  Nb  Nb103  1  0.49951680  0.90420204  0.30130722  1
  Nb  Nb104  1  0.69742804  0.90835320  0.49620796  1
  Nb  Nb105  1  0.89306238  0.50024897  0.29955051  1
  Nb  Nb106  1  0.09673752  0.90027714  0.89771558  1
  Nb  Nb107  1  0.31083601  0.70421091  0.69395924  1
  Nb  Nb108  1  0.90502364  0.10013136  0.29634280  1
  Nb  Nb109  1  0.10207359  0.29896051  0.30135940  1
  Nb  Nb110  1  0.30032123  0.90258198  0.10269472  1
  Nb  Nb111  1  0.29401247  0.09362797  0.09147272  1
  Nb  Nb112  1  0.30012150  0.70640029  0.10376763  1
  Nb  Nb113  1  0.50013222  0.09628428  0.70893389  1
  Nb  Nb114  1  0.69577816  0.30368341  0.10057041  1
  Nb  Nb115  1  0.49712683  0.69633475  0.69419530  1
  Nb  Nb116  1  0.89951037  0.69830542  0.50073539  1
  Nb  Nb117  1  0.50017065  0.90110579  0.09756367  1
  Nb  Nb118  1  0.10620141  0.08212605  0.90444838  1
  Nb  Nb119  1  0.69352473  0.49815206  0.10490660  1
  Nb  Nb120  1  0.50415778  0.09499930  0.29875266  1
  Nb  Nb121  1  0.89925096  0.10138320  0.69663034  1
  Nb  Nb122  1  0.10162095  0.29614904  0.69829360  1
  Nb  Nb123  1  0.70216065  0.09264900  0.50371708  1
  Nb  Nb124  1  0.30138130  0.48905183  0.90199516  1
  Nb  Nb125  1  0.19272258  0.20302443  0.60137753  1
  Nb  Nb126  1  0.40267543  0.40569323  0.00381583  1
  Nb  Nb127  1  0.19570631  0.20165321  0.40006995  1
  Nb  Nb128  1  0.20638488  0.80194769  0.19569430  1
  Nb  Nb129  1  0.79237602  0.39953374  0.01057788  1
  Nb  Nb130  1  0.59953238  0.40255266  0.00424173  1
  Nb  Nb131  1  0.59558720  -0.00197899  0.20411239  1
  Nb  Nb132  1  0.78986567  0.79797061  0.79680099  1
  Nb  Nb133  1  0.60023033  0.80999795  0.39833182  1
  Nb  Nb134  1  0.80081832  0.40298226  0.39509518  1
  Nb  Nb135  1  -0.00016801  0.19784073  0.60299473  1
  Nb  Nb136  1  -0.00371940  0.00486722  0.59912282  1
  Nb  Nb137  1  0.40644415  0.39633357  0.40359386  1
  Nb  Nb138  1  0.59046488  0.60498839  0.79256378  1
  Nb  Nb139  1  0.40240581  0.80469690  0.19433787  1
  Nb  Nb140  1  0.59276347  0.40082564  0.59989753  1
  Nb  Nb141  1  0.00370570  0.80254393  -0.00103148  1
  Nb  Nb142  1  0.59400422  0.80759092  0.20184726  1
  Nb  Nb143  1  0.19800160  0.60493718  0.39681922  1
  Nb  Nb144  1  0.40189279  0.40035937  0.60187597  1
  Nb  Nb145  1  0.60192597  0.79468738  0.79256664  1
  Nb  Nb146  1  0.39473874  0.00059535  0.00673998  1
  Nb  Nb147  1  -0.00038761  0.60353419  0.80356606  1
  Nb  Nb148  1  0.20518618  0.39411993  0.60659563  1
  Nb  Nb149  1  0.80325053  0.19460764  0.59909412  1
  Pd  Pd150  1  0.00640487  0.59781574  0.39272095  1
  Pd  Pd151  1  0.39693491  0.00824667  0.40366123  1
  Pd  Pd152  1  0.20165298  0.60616140  0.80522463  1
  Pd  Pd153  1  0.81119334  -0.00652163  0.40013481  1
  Pd  Pd154  1  0.00123947  0.80155965  0.40596196  1
  Pd  Pd155  1  0.20024962  0.80562095  0.60567377  1
  Pd  Pd156  1  0.18998712  0.40154864  0.79731686  1
  Pd  Pd157  1  0.38730688  0.59470849  0.59252109  1
  Pd  Pd158  1  0.58954350  0.00602192  0.60281997  1
  Pd  Pd159  1  0.80570511  0.20321709  0.00683277  1
  Pd  Pd160  1  0.40568789  0.00650849  0.60173311  1
  Pd  Pd161  1  0.20709836  0.00624631  0.39802881  1
  Pd  Pd162  1  0.39497484  0.19441012  0.61017911  1
  Pd  Pd163  1  0.79929476  0.59227865  0.00866627  1
  Pd  Pd164  1  0.20954840  0.60224101  -0.00653701  1
  Pd  Pd165  1  0.38706896  0.19627081  0.38893706  1
  Pd  Pd166  1  -0.00393924  0.60805203  -0.00420240  1
  Pd  Pd167  1  0.59901342  0.19440151  0.80402880  1
  Pd  Pd168  1  -0.00965343  -0.01369578  0.40639556  1
  Pd  Pd169  1  -0.00908053  -0.00638411  0.79709667  1
  Pd  Pd170  1  0.79427899  0.00900825  0.19259050  1
  Pd  Pd171  1  0.38752429  0.19930143  0.20421827  1
  Pd  Pd172  1  0.60011033  0.39936732  0.39730249  1
  Pd  Pd173  1  0.00808513  0.40173115  0.60887394  1
  Pd  Pd174  1  -0.00585816  -0.00228824  -0.00078699  1
  Pd  Pd175  1  0.19468930  -0.00017222  0.60600042  1
  Pd  Pd176  1  0.00718529  0.19564754  -0.00109915  1
  Pd  Pd177  1  0.19595080  0.80711820  0.00420534  1
  Pd  Pd178  1  -0.00012222  0.39864583  0.20495227  1
  Pd  Pd179  1  0.40090873  -0.00342568  0.19694110  1
  Pd  Pd180  1  0.79859663  0.19578482  0.19463049  1
  Pd  Pd181  1  0.60430112  0.80331669  0.59795187  1
  Pd  Pd182  1  0.19226224  0.19544321  0.80832681  1
  Pd  Pd183  1  0.21095731  0.79933408  0.79300852  1
  Pd  Pd184  1  0.20600278  0.59521984  0.59368589  1
  Pd  Pd185  1  0.60474694  0.80537984  -0.00142917  1
  Pd  Pd186  1  0.60726623  0.61307889  0.39737675  1
  Pd  Pd187  1  0.20288102  0.19837986  0.20668495  1
  Pd  Pd188  1  0.79991108  -0.00887659  0.79751445  1
  Pd  Pd189  1  0.79941708  0.80153041  -0.00554032  1
  Pd  Pd190  1  0.00988801  0.19823184  0.80444170  1
  Pd  Pd191  1  0.59411476  0.40738849  0.79883361  1
  Pd  Pd192  1  0.39886182  0.61012132  0.80354406  1
  Pd  Pd193  1  0.79055990  0.39380205  0.59323892  1
  Pd  Pd194  1  0.80442093  0.59895514  0.60004324  1
  Pd  Pd195  1  0.00935092  0.80898397  0.59733539  1
  Pd  Pd196  1  0.39212525  0.59759460  0.00178153  1
  Pd  Pd197  1  0.00978131  0.41009349  0.79467095  1
  Pd  Pd198  1  0.40495878  0.40002853  0.19931210  1
  Pd  Pd199  1  0.59042756  0.39982196  0.20204856  1
  Rh  Rh200  1  0.59464833  0.60970414  0.20051881  1
  Rh  Rh201  1  0.40361460  0.79647795  0.79275702  1
  Rh  Rh202  1  -0.00424027  0.60007558  0.60753957  1
  Rh  Rh203  1  0.59772940  -0.00781246  0.79283148  1
  Rh  Rh204  1  0.60417762  -0.00066383  0.39448710  1
  Rh  Rh205  1  0.19183275  0.19994507  -0.00537714  1
  Rh  Rh206  1  0.80086206  0.60534349  0.19843181  1
  Rh  Rh207  1  0.01531095  0.81031850  0.18642996  1
  Rh  Rh208  1  0.79923462  0.20562257  0.40188042  1
  Rh  Rh209  1  0.19242490  0.60539532  0.20833115  1
  Rh  Rh210  1  -0.00863025  0.40555516  0.38881573  1
  Rh  Rh211  1  0.00695159  0.20465733  0.40151349  1
  Rh  Rh212  1  0.19870043  -0.00553456  0.20528937  1
  Rh  Rh213  1  0.39849524  0.80816810  0.00525934  1
  Rh  Rh214  1  0.79643517  0.79942207  0.40013095  1
  Rh  Rh215  1  0.80036909  0.39650652  0.81014334  1
  Rh  Rh216  1  0.20866282  -0.00995518  -0.00906754  1
  Rh  Rh217  1  -0.00849514  0.39909450  0.00733493  1
  Rh  Rh218  1  0.40836562  0.60621271  0.19103378  1
  Rh  Rh219  1  0.60834553  0.18867998  0.20772365  1
  Rh  Rh220  1  0.38962302  0.59215663  0.40466071  1
  Rh  Rh221  1  0.60561650  0.59049279  0.60452548  1
  Rh  Rh222  1  0.40813820  0.80208356  0.40243435  1
  Rh  Rh223  1  0.80520803  0.00867229  -0.00009571  1
  Rh  Rh224  1  0.80293828  0.60893340  0.79155462  1
  Rh  Rh225  1  0.79802662  0.20011889  0.79550371  1
  Rh  Rh226  1  0.40139643  0.18881462  0.80612715  1
  Rh  Rh227  1  0.20010835  0.40028958  0.19420994  1
  Rh  Rh228  1  0.80143706  0.39662600  0.20148378  1
  Rh  Rh229  1  0.60345650  0.59066736  -0.01029226  1
  Rh  Rh230  1  0.00038517  0.00121311  0.19736909  1
  Rh  Rh231  1  0.39954635  0.00352880  0.81098248  1
  Rh  Rh232  1  0.78920359  0.79561116  0.19702516  1
  Rh  Rh233  1  0.21089156  0.39889275  0.00759734  1
  Rh  Rh234  1  0.39935080  0.80428200  0.60004363  1
  Rh  Rh235  1  0.59497724  0.20584849  -0.00660926  1
  Rh  Rh236  1  0.60501830  0.19558572  0.60564080  1
  Rh  Rh237  1  0.00505951  0.19718154  0.19673610  1
  Rh  Rh238  1  -0.01456567  0.79547850  0.81123835  1
  Rh  Rh239  1  0.40677107  0.39604869  0.80150156  1
  Rh  Rh240  1  0.59030955  0.00307112  0.00644729  1
  Rh  Rh241  1  0.39937498  0.19698028  -0.00283492  1
  Rh  Rh242  1  0.79182981  0.79797551  0.60279184  1
  Rh  Rh243  1  0.20606383  -0.00717779  0.80702769  1
  Rh  Rh244  1  0.60443026  0.19098125  0.39496840  1
  Rh  Rh245  1  0.00030436  0.59376360  0.20899241  1
  Rh  Rh246  1  0.81045959  0.00828656  0.59018764  1
  Rh  Rh247  1  0.19122577  0.79074543  0.39135994  1
  Rh  Rh248  1  0.80270361  0.59689577  0.40055382  1
  Rh  Rh249  1  0.20463566  0.40197045  0.40100069  1
