# generated using pymatgen
data_ZrScNbPdRh
_symmetry_space_group_name_H-M   'P 1'
_cell_length_a   16.55530364
_cell_length_b   16.55685348
_cell_length_c   16.56477025
_cell_angle_alpha   89.99218783
_cell_angle_beta   90.00214344
_cell_angle_gamma   89.99673175
_symmetry_Int_Tables_number   1
_chemical_formula_structural   ZrScNbPdRh
_chemical_formula_sum   'Zr50 Sc50 Nb50 Pd50 Rh50'
_cell_volume   4540.46536935
_cell_formula_units_Z   50
loop_
 _symmetry_equiv_pos_site_id
 _symmetry_equiv_pos_as_xyz
  1  'x, y, z'
loop_
 _atom_site_type_symbol
 _atom_site_label
 _atom_site_symmetry_multiplicity
 _atom_site_fract_x
 _atom_site_fract_y
 _atom_site_fract_z
 _atom_site_occupancy
  Zr  Zr0  1  0.89733175  0.29913687  0.50169910  1
  Zr  Zr1  1  0.49543847  0.30536246  0.68988266  1
  Zr  Zr2  1  0.11180333  0.30287509  0.09760152  1
  Zr  Zr3  1  0.29718155  0.49057230  0.09989958  1
  Zr  Zr4  1  0.70314307  0.08280706  0.49850992  1
  Zr  Zr5  1  0.50404492  0.29966952  0.29980134  1
  Zr  Zr6  1  0.51505144  0.49360217  0.50894126  1
  Zr  Zr7  1  0.51126637  0.89865786  0.10211085  1
  Zr  Zr8  1  0.50112429  0.70288421  0.50212478  1
  Zr  Zr9  1  0.50810678  0.90087516  0.50445097  1
  Zr  Zr10  1  0.09422844  0.09774527  0.69716132  1
  Zr  Zr11  1  0.09328849  0.29918997  0.29886083  1
  Zr  Zr12  1  0.89977675  0.09681060  0.50604878  1
  Zr  Zr13  1  0.09119567  0.70145670  0.29998897  1
  Zr  Zr14  1  0.29093757  0.29607414  0.91324171  1
  Zr  Zr15  1  0.30219964  0.09796139  0.69696990  1
  Zr  Zr16  1  0.09967385  0.09476485  0.29914200  1
  Zr  Zr17  1  0.08879458  0.89255904  0.70353870  1
  Zr  Zr18  1  0.89169127  0.70330615  0.89232508  1
  Zr  Zr19  1  0.69872315  0.50071422  0.09900318  1
  Zr  Zr20  1  0.30347479  0.10121343  0.89859784  1
  Zr  Zr21  1  0.70195678  0.89387627  0.09779624  1
  Zr  Zr22  1  0.69747830  0.70625700  0.49997885  1
  Zr  Zr23  1  0.69703134  0.89871058  0.30055067  1
  Zr  Zr24  1  0.30319841  0.50754912  0.29996078  1
  Zr  Zr25  1  0.09520396  0.10091443  0.10809648  1
  Zr  Zr26  1  0.29770381  0.90036309  0.50409780  1
  Zr  Zr27  1  0.50471163  0.29338950  0.90486603  1
  Zr  Zr28  1  0.10036304  0.89450802  0.30418052  1
  Zr  Zr29  1  0.10145177  0.10883073  0.89680075  1
  Zr  Zr30  1  0.69494555  0.50978861  0.89910801  1
  Zr  Zr31  1  0.70820228  0.70654687  0.70218403  1
  Zr  Zr32  1  0.49899205  0.50866163  0.89832357  1
  Zr  Zr33  1  0.49869539  0.30068300  0.49887949  1
  Zr  Zr34  1  0.69819525  0.29046161  0.89517709  1
  Zr  Zr35  1  0.69974270  0.70288095  0.09201413  1
  Zr  Zr36  1  0.30470194  0.09206735  0.29085232  1
  Zr  Zr37  1  0.29819419  0.89611210  0.89892861  1
  Zr  Zr38  1  0.50151323  0.70187409  0.30528383  1
  Zr  Zr39  1  0.89892289  0.70836467  0.10149260  1
  Zr  Zr40  1  0.90084824  0.50347074  0.49921242  1
  Zr  Zr41  1  0.10217326  0.30894813  0.50056294  1
  Zr  Zr42  1  0.89851534  0.29695556  0.69830552  1
  Zr  Zr43  1  0.70761024  0.70179210  0.30876575  1
  Zr  Zr44  1  0.10137378  0.09426903  0.50957972  1
  Zr  Zr45  1  0.30764537  0.90290355  0.69719877  1
  Zr  Zr46  1  0.89898767  0.50692947  0.10240968  1
  Zr  Zr47  1  0.49095218  0.50189637  0.70348205  1
  Zr  Zr48  1  0.09714759  0.50539018  0.49763199  1
  Zr  Zr49  1  0.49564798  0.89767368  0.29313704  1
  Sc  Sc50  1  0.50551162  0.09612477  0.29938892  1
  Sc  Sc51  1  0.09806949  0.70396016  0.10003179  1
  Sc  Sc52  1  0.09187612  0.29442952  0.70919113  1
  Sc  Sc53  1  0.50505663  0.69410837  0.69398543  1
  Sc  Sc54  1  0.30941009  0.90038571  0.11255514  1
  Sc  Sc55  1  0.09101982  0.50185187  0.30878986  1
  Sc  Sc56  1  0.49996834  0.49579558  0.09905908  1
  Sc  Sc57  1  0.28440931  0.49943352  0.50355060  1
  Sc  Sc58  1  0.08908030  0.89609849  0.09847117  1
  Sc  Sc59  1  0.70370546  0.09784967  0.10874562  1
  Sc  Sc60  1  0.89587046  0.89259982  0.70226642  1
  Sc  Sc61  1  0.69339874  0.70326717  0.89920729  1
  Sc  Sc62  1  0.10225068  0.50234309  0.10252739  1
  Sc  Sc63  1  0.10934965  0.50512185  0.90817983  1
  Sc  Sc64  1  0.09667769  0.51224639  0.69513090  1
  Sc  Sc65  1  0.69160660  0.50799149  0.68875005  1
  Sc  Sc66  1  0.89538082  0.90358808  0.09342802  1
  Sc  Sc67  1  0.90179208  0.50814870  0.88929173  1
  Sc  Sc68  1  0.30784550  0.69634085  0.68893379  1
  Sc  Sc69  1  0.89850227  0.50246322  0.29900104  1
  Sc  Sc70  1  0.09431300  0.69269306  0.49716241  1
  Sc  Sc71  1  0.89415916  0.30222121  0.30214351  1
  Sc  Sc72  1  0.89159837  0.09170215  0.89157800  1
  Sc  Sc73  1  0.70029733  0.10364047  0.29915722  1
  Sc  Sc74  1  0.30872270  0.50713660  0.90939647  1
  Sc  Sc75  1  0.29920448  0.09154378  0.51212768  1
  Sc  Sc76  1  0.90515693  0.29706590  0.88584927  1
  Sc  Sc77  1  0.70197200  0.29401980  0.69537696  1
  Sc  Sc78  1  0.10660210  0.71633278  0.90522647  1
  Sc  Sc79  1  0.30732667  0.30856405  0.29210604  1
  Sc  Sc80  1  0.30463981  0.30380743  0.68968379  1
  Sc  Sc81  1  0.50753059  0.90313259  0.88799326  1
  Sc  Sc82  1  0.49824050  0.08432179  0.70268821  1
  Sc  Sc83  1  0.90082857  0.29775142  0.11315876  1
  Sc  Sc84  1  0.29741412  0.69347862  0.49583438  1
  Sc  Sc85  1  0.89141658  0.70135597  0.49691235  1
  Sc  Sc86  1  0.90270057  0.89913490  0.89969383  1
  Sc  Sc87  1  0.49917303  0.29754524  0.10536844  1
  Sc  Sc88  1  0.30661048  0.70517565  0.30197378  1
  Sc  Sc89  1  0.89730140  0.88645898  0.29779125  1
  Sc  Sc90  1  0.30046847  0.69760939  0.09834432  1
  Sc  Sc91  1  0.89756928  0.10749987  0.28706666  1
  Sc  Sc92  1  0.49540691  0.49220281  0.30238299  1
  Sc  Sc93  1  0.69905368  0.30473341  0.49339500  1
  Sc  Sc94  1  0.30131143  0.89827980  0.30281629  1
  Sc  Sc95  1  0.68950877  0.29908752  0.10366719  1
  Sc  Sc96  1  0.70409283  0.50467643  0.49462230  1
  Sc  Sc97  1  0.89803950  0.09855162  0.69730472  1
  Sc  Sc98  1  0.50809741  0.70726386  0.10185028  1
  Sc  Sc99  1  0.50322211  0.10651281  0.10832889  1
  Nb  Nb100  1  0.09873081  0.30092687  0.90068310  1
  Nb  Nb101  1  0.70651770  0.90025698  0.89452109  1
  Nb  Nb102  1  0.90293191  0.69762400  0.29675932  1
  Nb  Nb103  1  0.50582821  0.10034936  0.89910813  1
  Nb  Nb104  1  0.50236440  0.10232749  0.50017359  1
  Nb  Nb105  1  0.10246093  0.90231286  0.90114752  1
  Nb  Nb106  1  0.30129755  0.29213637  0.10116060  1
  Nb  Nb107  1  0.70603638  0.09759241  0.70788461  1
  Nb  Nb108  1  0.29992333  0.10424209  0.09787378  1
  Nb  Nb109  1  0.30298196  0.69927912  0.90246982  1
  Nb  Nb110  1  0.09674433  0.70150434  0.69791069  1
  Nb  Nb111  1  0.69617774  0.30530160  0.29527750  1
  Nb  Nb112  1  0.69703111  0.89870066  0.69577899  1
  Nb  Nb113  1  0.89082221  0.90449964  0.50421626  1
  Nb  Nb114  1  0.49896873  0.69651884  0.89914375  1
  Nb  Nb115  1  0.89999833  0.50793721  0.70163698  1
  Nb  Nb116  1  0.69806334  0.49630767  0.29606132  1
  Nb  Nb117  1  0.29730379  0.50287410  0.70884644  1
  Nb  Nb118  1  0.30026161  0.29188166  0.50016780  1
  Nb  Nb119  1  0.90000922  0.10569204  0.09531870  1
  Nb  Nb120  1  0.71207397  0.89481317  0.50484022  1
  Nb  Nb121  1  0.09487153  0.90162263  0.50392898  1
  Nb  Nb122  1  0.69473248  0.10270676  0.89192877  1
  Nb  Nb123  1  0.90920474  0.69403843  0.70498869  1
  Nb  Nb124  1  0.49650218  0.89129379  0.69613835  1
  Nb  Nb125  1  0.20435160  0.19954650  0.40166116  1
  Nb  Nb126  1  0.20054661  0.60066234  0.20376109  1
  Nb  Nb127  1  -0.00331944  0.20297673  0.00008397  1
  Nb  Nb128  1  0.40495828  0.80241016  -0.00826917  1
  Nb  Nb129  1  0.19569657  -0.00504865  0.80339437  1
  Nb  Nb130  1  0.60390604  0.00504108  -0.00869973  1
  Nb  Nb131  1  0.79536996  0.40568009  0.79798500  1
  Nb  Nb132  1  0.59996655  0.18839516  0.59663029  1
  Nb  Nb133  1  0.20733272  0.60629338  0.79940228  1
  Nb  Nb134  1  0.40286741  0.79410479  0.80096951  1
  Nb  Nb135  1  0.59902741  0.40053827  0.79896507  1
  Nb  Nb136  1  -0.00246922  -0.00309288  0.40498225  1
  Nb  Nb137  1  0.00505859  0.19385321  0.40358965  1
  Nb  Nb138  1  0.40367742  0.19892587  0.80230718  1
  Nb  Nb139  1  0.20281421  0.00211618  0.00062043  1
  Nb  Nb140  1  0.60565864  0.59865817  0.20565741  1
  Nb  Nb141  1  0.40498524  0.00114057  -0.00084711  1
  Nb  Nb142  1  0.80271192  0.19973203  -0.00034982  1
  Nb  Nb143  1  0.19138217  0.79954721  0.60024158  1
  Nb  Nb144  1  0.20333415  0.40587015  0.80135470  1
  Nb  Nb145  1  -0.00312668  0.39851569  -0.00332421  1
  Nb  Nb146  1  0.39642332  0.19807072  0.40598962  1
  Nb  Nb147  1  0.80455488  0.39578425  -0.00649124  1
  Nb  Nb148  1  -0.00302166  0.60203411  0.00038450  1
  Nb  Nb149  1  -0.00642266  0.40575583  0.60358719  1
  Pd  Pd150  1  0.19834164  0.79427771  0.40867009  1
  Pd  Pd151  1  0.81037403  -0.00113226  0.38670798  1
  Pd  Pd152  1  0.19533828  0.20535136  0.60342576  1
  Pd  Pd153  1  0.20726709  0.79628487  0.78830369  1
  Pd  Pd154  1  0.60523507  -0.00504234  0.79593708  1
  Pd  Pd155  1  0.59629224  0.79576136  0.79818130  1
  Pd  Pd156  1  0.80105289  0.60552602  0.60126890  1
  Pd  Pd157  1  0.80192800  0.19756005  0.39740273  1
  Pd  Pd158  1  0.38964561  0.41113731  0.58998169  1
  Pd  Pd159  1  0.40441247  0.59068755  0.41147839  1
  Pd  Pd160  1  0.60191544  -0.00022360  0.60568025  1
  Pd  Pd161  1  0.80504051  0.59833472  -0.00563471  1
  Pd  Pd162  1  0.19766179  -0.01032330  0.19147521  1
  Pd  Pd163  1  0.00389274  0.00726762  -0.00388311  1
  Pd  Pd164  1  0.20826366  0.80832237  0.01293427  1
  Pd  Pd165  1  0.20187104  0.79605015  0.19647645  1
  Pd  Pd166  1  0.79903165  0.40470654  0.39651344  1
  Pd  Pd167  1  0.40448192  0.60404129  0.19341709  1
  Pd  Pd168  1  0.40185909  0.39520689  0.00103047  1
  Pd  Pd169  1  0.20631187  0.20269570  0.20782963  1
  Pd  Pd170  1  0.40733967  0.19504343  0.00166098  1
  Pd  Pd171  1  0.60090488  0.19943213  0.40273021  1
  Pd  Pd172  1  0.59003983  0.20261181  0.78265875  1
  Pd  Pd173  1  0.20913037  0.20735735  0.78920131  1
  Pd  Pd174  1  0.00523796  0.41118238  0.79857174  1
  Pd  Pd175  1  0.39908170  0.80469413  0.40616623  1
  Pd  Pd176  1  0.59838257  0.59323087  0.39516929  1
  Pd  Pd177  1  0.00139992  0.40312855  0.19562646  1
  Pd  Pd178  1  0.20567626  0.39637499  0.39260694  1
  Pd  Pd179  1  0.19847064  0.00277165  0.40185686  1
  Pd  Pd180  1  0.79501580  0.60618062  0.20421486  1
  Pd  Pd181  1  0.19080715  0.40087990  0.61332562  1
  Pd  Pd182  1  0.01699786  0.60692785  0.81249932  1
  Pd  Pd183  1  0.79247144  0.00648497  -0.00462852  1
  Pd  Pd184  1  0.39362398  0.40041497  0.40874781  1
  Pd  Pd185  1  0.80412740  -0.00284525  0.20275402  1
  Pd  Pd186  1  -0.01083216  -0.00884663  0.20605850  1
  Pd  Pd187  1  0.19663150  0.40756773  0.20993311  1
  Pd  Pd188  1  0.40693454  0.60753048  0.01192164  1
  Pd  Pd189  1  0.59947634  -0.00600606  0.39653651  1
  Pd  Pd190  1  -0.00074660  0.00044718  0.80154324  1
  Pd  Pd191  1  0.60353293  0.39909488  -0.00484074  1
  Pd  Pd192  1  -0.00475482  0.79354736  0.59245379  1
  Pd  Pd193  1  0.39719343  0.59119110  0.59067933  1
  Pd  Pd194  1  0.79910097  0.40666421  0.60760371  1
  Pd  Pd195  1  0.78866876  0.19339907  0.59549669  1
  Pd  Pd196  1  0.39655882  0.39117487  0.81088879  1
  Pd  Pd197  1  -0.00894780  0.80365286  0.40928921  1
  Pd  Pd198  1  0.40151132  0.00319355  0.40460385  1
  Pd  Pd199  1  0.79733930  0.39546443  0.19451022  1
  Rh  Rh200  1  -0.00577630  0.79684424  -0.00504738  1
  Rh  Rh201  1  0.39536282  0.60975847  0.79841870  1
  Rh  Rh202  1  0.39726814  0.79860957  0.59812817  1
  Rh  Rh203  1  0.00627815  0.60306082  0.19566677  1
  Rh  Rh204  1  0.19522179  0.60556694  0.00327556  1
  Rh  Rh205  1  0.60635186  0.40169011  0.39645266  1
  Rh  Rh206  1  0.61017193  0.18764446  0.00917609  1
  Rh  Rh207  1  -0.00924133  -0.00854222  0.59980345  1
  Rh  Rh208  1  0.79992847  0.80360709  0.79794927  1
  Rh  Rh209  1  0.79817233  -0.00365849  0.61247674  1
  Rh  Rh210  1  0.39785770  -0.00143266  0.80392143  1
  Rh  Rh211  1  0.60318121  0.00117372  0.19731796  1
  Rh  Rh212  1  0.40653994  0.00231051  0.19343272  1
  Rh  Rh213  1  0.19197516  -0.01259217  0.61355326  1
  Rh  Rh214  1  0.80391378  0.80244952  0.40048525  1
  Rh  Rh215  1  0.60143044  0.80777605  0.40177661  1
  Rh  Rh216  1  0.39893611  0.19969839  0.20698330  1
  Rh  Rh217  1  0.40957250  -0.00068364  0.59371872  1
  Rh  Rh218  1  0.79235931  0.59756796  0.79349963  1
  Rh  Rh219  1  0.60002157  0.59982973  0.79373070  1
  Rh  Rh220  1  -0.00617490  0.60186313  0.59679500  1
  Rh  Rh221  1  0.60309586  0.20068285  0.20630987  1
  Rh  Rh222  1  0.59787235  0.80935035  -0.01393121  1
  Rh  Rh223  1  0.40153418  0.79531168  0.19539115  1
  Rh  Rh224  1  0.00000700  0.20418543  0.20024537  1
  Rh  Rh225  1  0.80595530  0.79732922  0.60438965  1
  Rh  Rh226  1  0.19785257  0.60781683  0.60833539  1
  Rh  Rh227  1  0.59281671  0.60271912  0.00964866  1
  Rh  Rh228  1  0.79331395  0.20599729  0.19486508  1
  Rh  Rh229  1  0.79636079  -0.00671237  0.79552833  1
  Rh  Rh230  1  0.60930361  0.39127136  0.60462884  1
  Rh  Rh231  1  0.60340316  0.80075849  0.60161901  1
  Rh  Rh232  1  0.19854920  0.40302808  -0.00434122  1
  Rh  Rh233  1  0.80419765  0.20105203  0.80184386  1
  Rh  Rh234  1  0.60372270  0.60799214  0.59703999  1
  Rh  Rh235  1  0.80250283  0.59650552  0.39486062  1
  Rh  Rh236  1  0.79841860  0.79846252  0.19944792  1
  Rh  Rh237  1  0.40164571  0.39670941  0.19184589  1
  Rh  Rh238  1  0.19149586  0.19215605  0.00791408  1
  Rh  Rh239  1  -0.00725844  0.19088040  0.80391275  1
  Rh  Rh240  1  0.79892158  0.80319055  -0.00720385  1
  Rh  Rh241  1  -0.00865809  0.39461447  0.40640083  1
  Rh  Rh242  1  -0.00882117  0.60409875  0.39845117  1
  Rh  Rh243  1  0.00454291  0.21157992  0.59493841  1
  Rh  Rh244  1  0.60665875  0.78978436  0.21058184  1
  Rh  Rh245  1  -0.00170824  0.79549690  0.80743417  1
  Rh  Rh246  1  0.40842327  0.19085427  0.60103758  1
  Rh  Rh247  1  0.19972181  0.60521829  0.38779461  1
  Rh  Rh248  1  0.59506837  0.40654452  0.20393407  1
  Rh  Rh249  1  -0.00432568  0.80393847  0.19673127  1
