# generated using pymatgen
data_ZrScNbPdRh
_symmetry_space_group_name_H-M   'P 1'
_cell_length_a   16.55605416
_cell_length_b   16.56082612
_cell_length_c   16.56186516
_cell_angle_alpha   89.94501496
_cell_angle_beta   89.99222890
_cell_angle_gamma   90.00269762
_symmetry_Int_Tables_number   1
_chemical_formula_structural   ZrScNbPdRh
_chemical_formula_sum   'Zr50 Sc50 Nb50 Pd50 Rh50'
_cell_volume   4540.96208404
_cell_formula_units_Z   50
loop_
 _symmetry_equiv_pos_site_id
 _symmetry_equiv_pos_as_xyz
  1  'x, y, z'
loop_
 _atom_site_type_symbol
 _atom_site_label
 _atom_site_symmetry_multiplicity
 _atom_site_fract_x
 _atom_site_fract_y
 _atom_site_fract_z
 _atom_site_occupancy
  Zr  Zr0  1  0.50049629  0.88891281  0.49584852  1
  Zr  Zr1  1  0.69909179  0.70790903  0.90327683  1
  Zr  Zr2  1  0.09591774  0.09987215  0.09033075  1
  Zr  Zr3  1  0.10055967  0.29278645  0.10286901  1
  Zr  Zr4  1  0.90508872  0.30139742  0.69929167  1
  Zr  Zr5  1  0.29327361  0.90187583  0.51402161  1
  Zr  Zr6  1  0.50060595  0.29728213  0.69553719  1
  Zr  Zr7  1  0.30004862  0.49809037  0.09283870  1
  Zr  Zr8  1  0.49392324  0.50014486  0.68586076  1
  Zr  Zr9  1  0.89893563  0.29627181  0.49991560  1
  Zr  Zr10  1  0.09991898  0.49235103  0.48800345  1
  Zr  Zr11  1  0.30559650  0.69611911  0.89942207  1
  Zr  Zr12  1  0.70737804  0.10202223  0.30224444  1
  Zr  Zr13  1  0.49764702  0.89908339  0.89751538  1
  Zr  Zr14  1  0.90541567  0.10661874  0.90026009  1
  Zr  Zr15  1  0.29631475  0.50283041  0.89525318  1
  Zr  Zr16  1  0.89337490  0.10343632  0.69778966  1
  Zr  Zr17  1  0.29939182  0.89670065  0.89947573  1
  Zr  Zr18  1  0.09485730  0.10011950  0.90121023  1
  Zr  Zr19  1  0.30083703  0.29923617  0.09645705  1
  Zr  Zr20  1  0.70355538  0.89582879  0.70472320  1
  Zr  Zr21  1  0.30355540  0.69780614  0.29928788  1
  Zr  Zr22  1  0.49952685  0.29079876  0.89750408  1
  Zr  Zr23  1  0.30226019  0.89900028  0.70667264  1
  Zr  Zr24  1  0.51120804  0.49981794  0.10523652  1
  Zr  Zr25  1  0.49933699  0.50181908  0.90537222  1
  Zr  Zr26  1  0.91118135  0.70567211  0.29390815  1
  Zr  Zr27  1  0.09892741  0.50301386  0.89092671  1
  Zr  Zr28  1  0.70645682  0.10239827  0.89862388  1
  Zr  Zr29  1  0.89479417  0.70917841  0.09948486  1
  Zr  Zr30  1  0.29272747  0.29037706  0.50630359  1
  Zr  Zr31  1  0.10517492  0.70258965  0.50200121  1
  Zr  Zr32  1  0.29656931  0.30307883  0.29686543  1
  Zr  Zr33  1  0.29422541  0.49410372  0.30341867  1
  Zr  Zr34  1  0.89550449  0.90364623  0.49264504  1
  Zr  Zr35  1  0.70231719  0.31315197  0.10474822  1
  Zr  Zr36  1  0.49813279  0.49973894  0.30138205  1
  Zr  Zr37  1  0.70300633  0.69347287  0.50650866  1
  Zr  Zr38  1  0.70195943  0.50373741  0.49701867  1
  Zr  Zr39  1  0.09411436  0.09544332  0.70289090  1
  Zr  Zr40  1  0.28687176  0.10174223  0.10303074  1
  Zr  Zr41  1  0.90690487  0.09958114  0.50049250  1
  Zr  Zr42  1  0.30004990  0.09721088  0.68084589  1
  Zr  Zr43  1  0.10521616  0.90659164  0.90156869  1
  Zr  Zr44  1  0.11149324  0.89837581  0.70178623  1
  Zr  Zr45  1  0.50068833  0.69589896  0.70554245  1
  Zr  Zr46  1  0.50350081  0.09640503  0.89389519  1
  Zr  Zr47  1  0.10247556  0.50051467  0.09673818  1
  Zr  Zr48  1  0.88959381  0.29217241  0.29170387  1
  Zr  Zr49  1  0.28846849  0.89506044  0.10598102  1
  Sc  Sc50  1  0.08976929  0.29710789  0.89223475  1
  Sc  Sc51  1  0.69523029  0.50440545  0.09907262  1
  Sc  Sc52  1  0.50106460  0.30422100  0.29962273  1
  Sc  Sc53  1  0.50103560  0.68864232  0.49524215  1
  Sc  Sc54  1  0.89508362  0.51360641  0.09351861  1
  Sc  Sc55  1  0.09452558  0.89015657  0.30365540  1
  Sc  Sc56  1  0.50711182  0.90450684  0.09782507  1
  Sc  Sc57  1  0.69733784  0.89703769  0.90178588  1
  Sc  Sc58  1  0.89397614  0.69662593  0.49587009  1
  Sc  Sc59  1  0.09937125  0.70299380  0.89592911  1
  Sc  Sc60  1  0.31135515  0.10333834  0.90528533  1
  Sc  Sc61  1  0.50364954  0.10837145  0.51735092  1
  Sc  Sc62  1  0.09701477  0.71004829  0.70437217  1
  Sc  Sc63  1  0.09961182  0.30526758  0.30307523  1
  Sc  Sc64  1  0.90317790  0.48949017  0.70069359  1
  Sc  Sc65  1  0.30782775  0.30565684  0.89799193  1
  Sc  Sc66  1  0.89718109  0.70555807  0.70135864  1
  Sc  Sc67  1  0.30259846  0.88804378  0.30184767  1
  Sc  Sc68  1  0.90108581  0.90073996  0.69591248  1
  Sc  Sc69  1  0.30660070  0.49592936  0.49917790  1
  Sc  Sc70  1  0.49462870  0.70075567  0.30021772  1
  Sc  Sc71  1  0.50660874  0.10306455  0.70507154  1
  Sc  Sc72  1  0.49990109  0.88871931  0.30283483  1
  Sc  Sc73  1  0.09699902  0.31508799  0.69734562  1
  Sc  Sc74  1  0.09280592  0.70243643  0.11006422  1
  Sc  Sc75  1  0.89747433  0.90197913  0.30280578  1
  Sc  Sc76  1  0.30645537  0.69281256  0.70569069  1
  Sc  Sc77  1  0.89608688  0.10357191  0.09549585  1
  Sc  Sc78  1  0.50444514  0.70210320  0.90246457  1
  Sc  Sc79  1  0.50741007  0.09768040  0.30064654  1
  Sc  Sc80  1  0.70705895  0.90840257  0.29942629  1
  Sc  Sc81  1  0.89381192  0.49841982  0.49997140  1
  Sc  Sc82  1  0.89907490  0.70103279  0.90214219  1
  Sc  Sc83  1  0.70346233  0.10592545  0.50670382  1
  Sc  Sc84  1  0.89685327  0.29612982  0.09848171  1
  Sc  Sc85  1  0.49774119  0.09475327  0.09034465  1
  Sc  Sc86  1  0.69831848  0.49772783  0.29315118  1
  Sc  Sc87  1  0.09859394  0.69390892  0.30861063  1
  Sc  Sc88  1  0.69437415  0.69775721  0.31042162  1
  Sc  Sc89  1  0.10042521  0.11072333  0.28928888  1
  Sc  Sc90  1  0.70552270  0.29529739  0.69717981  1
  Sc  Sc91  1  0.90103597  0.50891260  0.30388827  1
  Sc  Sc92  1  0.70053600  0.49959184  0.68130030  1
  Sc  Sc93  1  0.70427437  0.49418246  0.91729538  1
  Sc  Sc94  1  0.30095312  0.69708901  0.49914942  1
  Sc  Sc95  1  0.09388966  0.89749926  0.50336802  1
  Sc  Sc96  1  0.50464286  0.90769172  0.71137087  1
  Sc  Sc97  1  0.88967367  0.90673680  0.90180461  1
  Sc  Sc98  1  0.89578569  0.09775318  0.29784663  1
  Sc  Sc99  1  0.89119223  0.30367640  0.89504575  1
  Nb  Nb100  1  0.69949171  0.29641938  0.49477781  1
  Nb  Nb101  1  0.89586433  0.90024259  0.10396031  1
  Nb  Nb102  1  0.29402489  0.49327993  0.70172177  1
  Nb  Nb103  1  0.69692616  0.70491294  0.09334080  1
  Nb  Nb104  1  0.10010437  0.90688927  0.09497680  1
  Nb  Nb105  1  0.70174592  0.29403898  0.30252374  1
  Nb  Nb106  1  0.69794254  0.09017908  0.10482926  1
  Nb  Nb107  1  0.09323533  0.29699128  0.49590683  1
  Nb  Nb108  1  0.50515140  0.69903419  0.10472960  1
  Nb  Nb109  1  0.10172980  0.50091632  0.29587552  1
  Nb  Nb110  1  0.50777312  0.49042679  0.50467414  1
  Nb  Nb111  1  0.50639814  0.29878495  0.50398559  1
  Nb  Nb112  1  0.70964777  0.89966571  0.09811255  1
  Nb  Nb113  1  0.69521911  0.09860802  0.70174298  1
  Nb  Nb114  1  0.10049612  0.49833945  0.69907864  1
  Nb  Nb115  1  0.50518752  0.29831975  0.10004324  1
  Nb  Nb116  1  0.29615986  0.30473462  0.70262249  1
  Nb  Nb117  1  0.70145326  0.69615027  0.70182665  1
  Nb  Nb118  1  0.69755833  0.89502383  0.49688315  1
  Nb  Nb119  1  0.29811497  0.09983922  0.49919082  1
  Nb  Nb120  1  0.10456850  0.10711015  0.49783597  1
  Nb  Nb121  1  0.89837446  0.50254371  0.90163299  1
  Nb  Nb122  1  0.30593249  0.70130001  0.10695369  1
  Nb  Nb123  1  0.69554656  0.30431703  0.90371669  1
  Nb  Nb124  1  0.30221794  0.10070327  0.30040842  1
  Nb  Nb125  1  0.60253358  0.79658810  0.60163756  1
  Nb  Nb126  1  0.60586548  0.20091561  0.00407808  1
  Nb  Nb127  1  0.39788781  0.00548652  0.40347643  1
  Nb  Nb128  1  0.00018935  0.40603142  0.19682542  1
  Nb  Nb129  1  0.39535113  0.00284562  0.20604436  1
  Nb  Nb130  1  0.60777715  0.79896724  0.19309960  1
  Nb  Nb131  1  0.79578508  0.61270318  0.19662490  1
  Nb  Nb132  1  0.59926499  -0.00086967  0.40758788  1
  Nb  Nb133  1  0.20383548  0.20273035  0.79163263  1
  Nb  Nb134  1  0.20360969  0.59673966  0.20027647  1
  Nb  Nb135  1  0.00009853  0.81282237  0.00645205  1
  Nb  Nb136  1  0.40308797  0.19633617  0.20048009  1
  Nb  Nb137  1  0.60176500  0.40263126  0.79916379  1
  Nb  Nb138  1  0.19605223  0.59126857  0.60498308  1
  Nb  Nb139  1  -0.00324912  0.40574888  -0.00029134  1
  Nb  Nb140  1  0.60747811  0.59286441  0.79926265  1
  Nb  Nb141  1  0.20306313  0.00815856  0.40224372  1
  Nb  Nb142  1  0.60222143  0.20050675  0.19459766  1
  Nb  Nb143  1  0.00801992  0.59417450  0.60207359  1
  Nb  Nb144  1  0.60286580  0.39445181  0.40633065  1
  Nb  Nb145  1  0.00138100  -0.00515444  0.19034369  1
  Nb  Nb146  1  0.39785062  0.79528195  0.00993769  1
  Nb  Nb147  1  0.79482200  0.59609951  0.80101745  1
  Nb  Nb148  1  0.39881968  0.19538222  0.40080661  1
  Nb  Nb149  1  0.40667201  0.79801322  0.60478168  1
  Pd  Pd150  1  0.01148580  0.00640392  0.38842011  1
  Pd  Pd151  1  0.79122393  0.79743045  0.20999201  1
  Pd  Pd152  1  0.79799771  0.79667185  0.39416329  1
  Pd  Pd153  1  0.39722708  0.59318951  0.19957817  1
  Pd  Pd154  1  0.40541444  0.38930222  0.40879624  1
  Pd  Pd155  1  -0.00972193  0.39626381  0.39011276  1
  Pd  Pd156  1  -0.00656149  0.81031053  0.81037094  1
  Pd  Pd157  1  0.18649073  0.20423672  0.60856280  1
  Pd  Pd158  1  0.00209748  0.60753119  -0.00052895  1
  Pd  Pd159  1  0.40004425  0.59531039  0.40499274  1
  Pd  Pd160  1  -0.00376483  0.19851953  0.39050227  1
  Pd  Pd161  1  -0.00148136  0.60097137  0.40708397  1
  Pd  Pd162  1  0.19699689  0.40238211  0.59216939  1
  Pd  Pd163  1  0.20266955  0.80508642  0.40172833  1
  Pd  Pd164  1  0.59358253  0.19843099  0.39697018  1
  Pd  Pd165  1  0.79627993  0.40140798  0.39431033  1
  Pd  Pd166  1  -0.00827175  -0.00745851  0.79838788  1
  Pd  Pd167  1  0.19557883  -0.00527673  0.21393761  1
  Pd  Pd168  1  0.59561039  -0.00452597  0.20776257  1
  Pd  Pd169  1  0.21068534  0.01502744  0.80644914  1
  Pd  Pd170  1  0.79864530  0.39450572  0.59648660  1
  Pd  Pd171  1  0.39148917  -0.00987954  0.01066357  1
  Pd  Pd172  1  0.00362186  -0.00383219  0.59938323  1
  Pd  Pd173  1  -0.00773717  0.79445664  0.59433127  1
  Pd  Pd174  1  0.78956746  0.40857838  0.79979325  1
  Pd  Pd175  1  0.79909265  0.80048585  0.59862166  1
  Pd  Pd176  1  0.40345070  0.39718556  0.19430911  1
  Pd  Pd177  1  0.79569275  0.00080186  0.59665408  1
  Pd  Pd178  1  0.79700025  0.20426933  0.79767758  1
  Pd  Pd179  1  0.19497992  0.61268841  0.00697295  1
  Pd  Pd180  1  0.40637950  0.40543680  0.79833833  1
  Pd  Pd181  1  0.19011145  0.79122233  0.20637975  1
  Pd  Pd182  1  0.39408330  0.39281385  0.59528553  1
  Pd  Pd183  1  0.19943883  0.19987860  0.39354266  1
  Pd  Pd184  1  0.59790713  0.59253497  0.39826101  1
  Pd  Pd185  1  0.79371032  0.20323853  0.00446832  1
  Pd  Pd186  1  0.19721006  0.60608255  0.79195752  1
  Pd  Pd187  1  0.40705497  0.39845742  0.00244992  1
  Pd  Pd188  1  0.60080880  -0.00734462  0.59729555  1
  Pd  Pd189  1  0.20158789  0.20639252  -0.01707249  1
  Pd  Pd190  1  -0.00981439  0.59967891  0.79129329  1
  Pd  Pd191  1  0.00681804  0.20316129  0.60447535  1
  Pd  Pd192  1  0.80017051  0.00007489  0.79902267  1
  Pd  Pd193  1  0.41360190  -0.00665510  0.59920616  1
  Pd  Pd194  1  0.60745825  0.00057758  -0.00662877  1
  Pd  Pd195  1  0.80998198  0.41587475  0.19775819  1
  Pd  Pd196  1  0.39066125  0.19359414  0.78865914  1
  Pd  Pd197  1  0.19060940  0.39105337  -0.01277130  1
  Pd  Pd198  1  0.40767831  0.60589137  0.00538960  1
  Pd  Pd199  1  0.19746525  0.79051431  0.00103144  1
  Rh  Rh200  1  0.21276550  0.78455664  0.61023444  1
  Rh  Rh201  1  0.18539879  0.00194296  0.59128477  1
  Rh  Rh202  1  0.00171278  0.20277855  0.79309497  1
  Rh  Rh203  1  0.60867539  0.00151690  0.80459158  1
  Rh  Rh204  1  0.81680910  0.59832842  0.61113692  1
  Rh  Rh205  1  0.39103568  0.80043063  0.41056089  1
  Rh  Rh206  1  0.60120251  0.79463297  0.79425186  1
  Rh  Rh207  1  0.59653308  0.60642486  0.60189920  1
  Rh  Rh208  1  -0.00344942  0.40401504  0.80835420  1
  Rh  Rh209  1  0.59244114  0.80550807  0.00819134  1
  Rh  Rh210  1  0.79848719  0.19942517  0.59911789  1
  Rh  Rh211  1  0.39218111  0.60038511  0.59846313  1
  Rh  Rh212  1  0.40072789  0.20556843  0.59992237  1
  Rh  Rh213  1  0.79849066  0.00151419  0.00209903  1
  Rh  Rh214  1  0.40580812  0.58849113  0.79835453  1
  Rh  Rh215  1  0.79310725  0.00511066  0.40998983  1
  Rh  Rh216  1  -0.00432544  0.79892044  0.40745709  1
  Rh  Rh217  1  0.60602455  0.61072202  0.20070297  1
  Rh  Rh218  1  0.20701616  0.00545234  -0.00695784  1
  Rh  Rh219  1  0.60102700  0.39341974  0.21187823  1
  Rh  Rh220  1  -0.00016742  0.59293721  0.20022262  1
  Rh  Rh221  1  -0.00641332  0.21067418  -0.00307706  1
  Rh  Rh222  1  0.80053287  0.60190369  0.39036793  1
  Rh  Rh223  1  -0.01131796  -0.00349104  0.00445983  1
  Rh  Rh224  1  0.19236336  0.40397160  0.19806179  1
  Rh  Rh225  1  0.80917606  0.40021816  0.00389209  1
  Rh  Rh226  1  0.60690898  0.80370023  0.39733208  1
  Rh  Rh227  1  0.80687865  0.19563224  0.40621942  1
  Rh  Rh228  1  0.79071873  0.19494347  0.19204263  1
  Rh  Rh229  1  0.20399637  0.79408587  0.79978136  1
  Rh  Rh230  1  0.41307279  0.80952423  0.18969272  1
  Rh  Rh231  1  0.60014032  0.60313847  -0.00391360  1
  Rh  Rh232  1  0.80546058  0.80433909  -0.00404242  1
  Rh  Rh233  1  0.59258311  0.39318178  -0.00590578  1
  Rh  Rh234  1  0.79483211  0.60498204  -0.00111143  1
  Rh  Rh235  1  0.00093950  0.40404673  0.58929672  1
  Rh  Rh236  1  0.80940564  0.00443986  0.19488346  1
  Rh  Rh237  1  0.40690541  0.20184248  0.00877139  1
  Rh  Rh238  1  0.40245902  0.79997121  0.80326830  1
  Rh  Rh239  1  0.80217397  0.79568876  0.80217961  1
  Rh  Rh240  1  0.60912850  0.20514033  0.80294291  1
  Rh  Rh241  1  0.20261691  0.20526391  0.20309528  1
  Rh  Rh242  1  0.20015517  0.39367899  0.80419515  1
  Rh  Rh243  1  -0.00316648  0.20061875  0.19857045  1
  Rh  Rh244  1  0.00334588  0.81164809  0.19502341  1
  Rh  Rh245  1  0.39659910  0.00788563  0.79455602  1
  Rh  Rh246  1  0.60862696  0.20303708  0.60656932  1
  Rh  Rh247  1  0.20338399  0.59670172  0.39895886  1
  Rh  Rh248  1  0.60849655  0.39092616  0.59741716  1
  Rh  Rh249  1  0.19915833  0.39331881  0.40402822  1
