# generated using pymatgen
data_ZrScNbPdRh
_symmetry_space_group_name_H-M   'P 1'
_cell_length_a   16.55140342
_cell_length_b   16.55788069
_cell_length_c   16.55846340
_cell_angle_alpha   90.04280414
_cell_angle_beta   90.01188482
_cell_angle_gamma   89.98435113
_symmetry_Int_Tables_number   1
_chemical_formula_structural   ZrScNbPdRh
_chemical_formula_sum   'Zr50 Sc50 Nb50 Pd50 Rh50'
_cell_volume   4537.94741316
_cell_formula_units_Z   50
loop_
 _symmetry_equiv_pos_site_id
 _symmetry_equiv_pos_as_xyz
  1  'x, y, z'
loop_
 _atom_site_type_symbol
 _atom_site_label
 _atom_site_symmetry_multiplicity
 _atom_site_fract_x
 _atom_site_fract_y
 _atom_site_fract_z
 _atom_site_occupancy
  Zr  Zr0  1  0.10417400  0.29435455  0.29679145  1
  Zr  Zr1  1  0.69968329  0.49166011  0.31172917  1
  Zr  Zr2  1  0.30408238  0.09855092  0.70423480  1
  Zr  Zr3  1  0.89803854  0.50475216  0.71053741  1
  Zr  Zr4  1  0.89410592  0.29540232  0.29804173  1
  Zr  Zr5  1  0.49905999  0.71653217  0.50368296  1
  Zr  Zr6  1  0.89375518  0.30259518  0.69842911  1
  Zr  Zr7  1  0.70046448  0.10880056  0.29579520  1
  Zr  Zr8  1  0.69863214  0.70329549  0.91041930  1
  Zr  Zr9  1  0.89482854  0.49843645  0.89711197  1
  Zr  Zr10  1  0.50328198  0.30782550  0.70370068  1
  Zr  Zr11  1  0.09537168  0.30320074  0.69287240  1
  Zr  Zr12  1  0.08431260  0.50376027  0.89501003  1
  Zr  Zr13  1  0.30109904  0.50103793  0.29974966  1
  Zr  Zr14  1  0.10621110  0.10360000  0.90174496  1
  Zr  Zr15  1  0.10174395  0.30427464  0.49233208  1
  Zr  Zr16  1  0.10489361  0.89739663  0.70270002  1
  Zr  Zr17  1  0.69711425  0.49409252  0.09922593  1
  Zr  Zr18  1  0.49780211  0.50595867  0.30004322  1
  Zr  Zr19  1  0.89206374  0.09111774  0.89481143  1
  Zr  Zr20  1  0.50172536  0.30048701  0.50751538  1
  Zr  Zr21  1  0.50303828  0.29695820  0.09448110  1
  Zr  Zr22  1  0.69766667  0.70087483  0.10046168  1
  Zr  Zr23  1  0.09535950  0.90278979  0.90565501  1
  Zr  Zr24  1  0.69383096  0.90160614  0.50165134  1
  Zr  Zr25  1  0.50229208  0.09846216  0.49380316  1
  Zr  Zr26  1  0.50606091  0.69796707  0.30046483  1
  Zr  Zr27  1  0.10415494  0.49183540  0.30134708  1
  Zr  Zr28  1  0.50355686  0.69908067  0.09865372  1
  Zr  Zr29  1  0.49786681  0.90407769  0.30795486  1
  Zr  Zr30  1  0.50202661  0.69085816  0.90233411  1
  Zr  Zr31  1  0.29706670  0.90468348  0.30428522  1
  Zr  Zr32  1  0.69481198  0.30661948  0.49699284  1
  Zr  Zr33  1  0.30053514  0.89851189  0.10291044  1
  Zr  Zr34  1  0.29940841  0.69921081  0.09682539  1
  Zr  Zr35  1  0.30344772  0.90586424  0.69800488  1
  Zr  Zr36  1  0.69634389  0.90652910  0.70252662  1
  Zr  Zr37  1  0.90253368  0.90684807  0.69980167  1
  Zr  Zr38  1  0.30604318  0.30593019  0.70601386  1
  Zr  Zr39  1  0.09928308  0.89443069  0.10255819  1
  Zr  Zr40  1  0.49364416  0.30306363  0.89736564  1
  Zr  Zr41  1  0.49862602  0.10043120  0.70385319  1
  Zr  Zr42  1  0.30126925  0.89735780  0.49678194  1
  Zr  Zr43  1  0.69686826  0.89324226  0.08513191  1
  Zr  Zr44  1  0.90813805  0.69437693  0.31005814  1
  Zr  Zr45  1  0.90405503  0.70044206  0.50365595  1
  Zr  Zr46  1  0.90297764  0.50232773  0.09233853  1
  Zr  Zr47  1  0.89662533  0.50194422  0.50215149  1
  Zr  Zr48  1  0.09779699  0.09810511  0.29817180  1
  Zr  Zr49  1  0.29744930  0.51348840  0.69202909  1
  Sc  Sc50  1  0.89840269  0.70405681  0.09826198  1
  Sc  Sc51  1  0.10175498  0.29793094  0.89423770  1
  Sc  Sc52  1  0.29835311  0.69667528  0.50638232  1
  Sc  Sc53  1  0.10564978  0.89066297  0.30035086  1
  Sc  Sc54  1  0.29621799  0.28727187  0.09923994  1
  Sc  Sc55  1  0.90495352  0.29474243  0.50270699  1
  Sc  Sc56  1  0.29873745  0.08846997  0.49399979  1
  Sc  Sc57  1  0.30113514  0.49373974  0.50041941  1
  Sc  Sc58  1  0.10939449  0.09894307  0.70165578  1
  Sc  Sc59  1  0.89790321  0.68680742  0.90252617  1
  Sc  Sc60  1  0.89930647  0.90518768  0.28902064  1
  Sc  Sc61  1  0.69935831  0.49482376  0.50599186  1
  Sc  Sc62  1  0.90022605  0.10245492  0.10933082  1
  Sc  Sc63  1  0.30084463  0.09922394  0.29673569  1
  Sc  Sc64  1  0.50488525  0.91217116  0.90068662  1
  Sc  Sc65  1  0.30095477  0.29461949  0.90047695  1
  Sc  Sc66  1  0.50096182  0.90740526  0.09856337  1
  Sc  Sc67  1  0.30495748  0.10591627  0.89763506  1
  Sc  Sc68  1  0.10328107  0.10234789  0.10496437  1
  Sc  Sc69  1  0.69249798  0.29801883  0.89961004  1
  Sc  Sc70  1  0.49702508  0.50138572  0.09337124  1
  Sc  Sc71  1  0.09055283  0.70831387  0.49050891  1
  Sc  Sc72  1  0.69917026  0.90430354  0.29125843  1
  Sc  Sc73  1  0.69627390  0.30296959  0.69605180  1
  Sc  Sc74  1  0.30850217  0.49979122  0.90626131  1
  Sc  Sc75  1  0.89446223  0.10061399  0.29977555  1
  Sc  Sc76  1  0.70188542  0.28869953  0.10508927  1
  Sc  Sc77  1  0.50001813  0.28438167  0.30891731  1
  Sc  Sc78  1  0.49821123  0.10227241  0.10103334  1
  Sc  Sc79  1  0.49825815  0.49431888  0.49825861  1
  Sc  Sc80  1  0.29706825  0.50955929  0.10628984  1
  Sc  Sc81  1  0.10820459  0.70392772  0.90169178  1
  Sc  Sc82  1  0.89583149  0.30415184  0.89212368  1
  Sc  Sc83  1  0.30198719  0.10011457  0.09832041  1
  Sc  Sc84  1  0.70124746  0.10389515  0.69899495  1
  Sc  Sc85  1  0.29782051  0.69776081  0.29385193  1
  Sc  Sc86  1  0.90035740  0.49142092  0.31049871  1
  Sc  Sc87  1  0.70632307  0.49295327  0.70070632  1
  Sc  Sc88  1  0.50438989  0.49294557  0.90071141  1
  Sc  Sc89  1  0.09927861  0.49622581  0.50379258  1
  Sc  Sc90  1  0.49755950  0.90331755  0.68391172  1
  Sc  Sc91  1  0.90496682  0.90316692  0.09595909  1
  Sc  Sc92  1  0.69728083  0.10130980  0.09408601  1
  Sc  Sc93  1  0.70693084  0.69027490  0.70193726  1
  Sc  Sc94  1  0.29821443  0.89830600  0.90439103  1
  Sc  Sc95  1  0.70644109  0.10327325  0.49799651  1
  Sc  Sc96  1  0.29879989  0.70367713  0.90557109  1
  Sc  Sc97  1  0.10099485  0.10739251  0.49640066  1
  Sc  Sc98  1  0.69955815  0.69429792  0.50165111  1
  Sc  Sc99  1  0.69735899  0.50174726  0.89863691  1
  Nb  Nb100  1  0.10729813  0.69776207  0.10975911  1
  Nb  Nb101  1  0.10141918  0.69759343  0.30152015  1
  Nb  Nb102  1  0.50165051  0.10258395  0.89642813  1
  Nb  Nb103  1  0.09716939  0.89526752  0.49819096  1
  Nb  Nb104  1  0.10199004  0.50854965  0.70263430  1
  Nb  Nb105  1  0.49262569  0.69799691  0.70146180  1
  Nb  Nb106  1  0.29619320  0.70470449  0.70018531  1
  Nb  Nb107  1  0.90436115  0.89477074  0.49985038  1
  Nb  Nb108  1  0.90174033  0.70311558  0.70041848  1
  Nb  Nb109  1  0.09729445  0.29548718  0.09933842  1
  Nb  Nb110  1  0.89904294  0.90297695  0.89391078  1
  Nb  Nb111  1  0.09952648  0.49857154  0.09981267  1
  Nb  Nb112  1  0.50025896  0.09401716  0.29411271  1
  Nb  Nb113  1  0.90147561  0.09716853  0.50427073  1
  Nb  Nb114  1  0.49530197  0.89937242  0.49740909  1
  Nb  Nb115  1  0.69134228  0.08268231  0.89487005  1
  Nb  Nb116  1  0.90046975  0.29757579  0.09919472  1
  Nb  Nb117  1  0.30426196  0.30079845  0.49913586  1
  Nb  Nb118  1  0.90222964  0.10750758  0.69130162  1
  Nb  Nb119  1  0.49545778  0.50163638  0.70451574  1
  Nb  Nb120  1  0.10768773  0.69718885  0.70500247  1
  Nb  Nb121  1  0.70438192  0.90644942  0.89580852  1
  Nb  Nb122  1  0.29533138  0.30548955  0.30500999  1
  Nb  Nb123  1  0.70212056  0.69755215  0.29717483  1
  Nb  Nb124  1  0.70244136  0.30132197  0.30141111  1
  Nb  Nb125  1  0.19705268  0.40953686  0.79961444  1
  Nb  Nb126  1  -0.00347544  0.20220936  -0.00265396  1
  Nb  Nb127  1  -0.00078794  -0.00020677  0.59445963  1
  Nb  Nb128  1  -0.00418358  0.79916103  0.80008239  1
  Nb  Nb129  1  0.58863496  0.59987225  0.60871666  1
  Nb  Nb130  1  0.40056950  0.39307450  0.20455689  1
  Nb  Nb131  1  0.39762207  0.20160906  0.59792358  1
  Nb  Nb132  1  0.80013536  0.59907750  0.20561032  1
  Nb  Nb133  1  0.80103579  0.80179460  0.40168287  1
  Nb  Nb134  1  0.59657677  0.39318263  0.20656611  1
  Nb  Nb135  1  0.80194842  0.80520070  0.80135367  1
  Nb  Nb136  1  -0.00288777  -0.00435992  0.40740313  1
  Nb  Nb137  1  -0.00505044  0.19533538  0.79703515  1
  Nb  Nb138  1  0.19575266  0.79899022  0.60231433  1
  Nb  Nb139  1  0.21009567  0.20700619  0.59708109  1
  Nb  Nb140  1  0.40261745  0.80146404  0.20032224  1
  Nb  Nb141  1  0.80253463  0.39569558  0.00415770  1
  Nb  Nb142  1  0.19602170  0.59956181  0.39712948  1
  Nb  Nb143  1  0.00374469  0.60582305  0.60958704  1
  Nb  Nb144  1  0.80506030  0.80278687  0.60055334  1
  Nb  Nb145  1  0.00389660  0.59568241  0.20052224  1
  Nb  Nb146  1  0.00228933  0.39748804  0.19143298  1
  Nb  Nb147  1  0.40477181  0.79696022  0.79478711  1
  Nb  Nb148  1  0.18992041  0.40162354  0.00194257  1
  Nb  Nb149  1  0.59885820  0.79903950  0.79863151  1
  Pd  Pd150  1  0.59507349  0.80708715  0.20261851  1
  Pd  Pd151  1  0.79401297  0.60300554  0.39994749  1
  Pd  Pd152  1  0.59913302  0.19525182  -0.00603125  1
  Pd  Pd153  1  0.61051384  0.80097570  0.39493146  1
  Pd  Pd154  1  0.20867022  0.59683396  0.81173465  1
  Pd  Pd155  1  0.40514044  0.39634226  0.39390854  1
  Pd  Pd156  1  0.80440237  0.79409104  0.20547429  1
  Pd  Pd157  1  0.80372650  0.20186550  -0.00706213  1
  Pd  Pd158  1  0.00809978  0.61282382  0.00650128  1
  Pd  Pd159  1  0.39363219  0.19361257  0.40187715  1
  Pd  Pd160  1  0.20533794  0.00254387  0.00226969  1
  Pd  Pd161  1  0.39195668  0.60294916  0.80630052  1
  Pd  Pd162  1  0.60632156  0.59061221  0.19998451  1
  Pd  Pd163  1  0.60949823  0.79027857  0.60983313  1
  Pd  Pd164  1  0.20446131  0.39329557  0.18967198  1
  Pd  Pd165  1  0.60400961  0.19805872  0.40030704  1
  Pd  Pd166  1  -0.00202299  0.01068741  0.00694073  1
  Pd  Pd167  1  0.60446008  0.59902646  0.79540297  1
  Pd  Pd168  1  0.79309453  0.20724128  0.59355760  1
  Pd  Pd169  1  0.39216357  0.79197916  0.39256438  1
  Pd  Pd170  1  0.19571680  0.59346109  -0.00570704  1
  Pd  Pd171  1  0.60264150  0.00166179  0.19318230  1
  Pd  Pd172  1  0.60446657  0.20003394  0.80055612  1
  Pd  Pd173  1  0.80485252  -0.00569946  0.39871281  1
  Pd  Pd174  1  0.20377538  0.39888062  0.60292023  1
  Pd  Pd175  1  0.19782076  0.00061288  0.19852086  1
  Pd  Pd176  1  0.40536101  0.59957893  0.59188481  1
  Pd  Pd177  1  0.19282531  0.00205736  0.59084547  1
  Pd  Pd178  1  0.40794413  0.80361289  -0.00339366  1
  Pd  Pd179  1  0.59814652  0.00808911  0.59724474  1
  Pd  Pd180  1  0.20893099  0.19603826  0.40180850  1
  Pd  Pd181  1  -0.00151944  0.79491021  0.20193612  1
  Pd  Pd182  1  0.39758709  0.20235486  0.20339293  1
  Pd  Pd183  1  0.39920951  0.00667281  -0.00318073  1
  Pd  Pd184  1  -0.00612399  0.41101305  0.60409840  1
  Pd  Pd185  1  -0.00647903  0.19436287  0.39798744  1
  Pd  Pd186  1  -0.00119626  0.79208359  -0.00617217  1
  Pd  Pd187  1  0.00422209  0.00533172  0.79324332  1
  Pd  Pd188  1  0.60548064  0.00295939  0.39763346  1
  Pd  Pd189  1  0.79542053  0.19684812  0.80326872  1
  Pd  Pd190  1  0.79235312  0.00107431  0.18917639  1
  Pd  Pd191  1  0.80089891  0.40253708  0.19532437  1
  Pd  Pd192  1  0.81071869  0.80313363  -0.00736448  1
  Pd  Pd193  1  0.39476669  0.60679059  0.40759955  1
  Pd  Pd194  1  0.80247848  -0.00104912  0.59962400  1
  Pd  Pd195  1  0.20619205  -0.00303143  0.81009244  1
  Pd  Pd196  1  0.38565026  0.39812256  0.01305826  1
  Pd  Pd197  1  0.80261725  0.00155899  0.00775396  1
  Pd  Pd198  1  0.59971041  0.59943733  0.41324937  1
  Pd  Pd199  1  -0.00056126  0.38964662  -0.00192708  1
  Rh  Rh200  1  0.79833534  0.19784586  0.19934329  1
  Rh  Rh201  1  0.40578468  0.20002680  0.79916766  1
  Rh  Rh202  1  0.59551559  0.41295521  0.60656007  1
  Rh  Rh203  1  0.01152595  0.58938470  0.40289998  1
  Rh  Rh204  1  0.40093093  -0.00347329  0.20201528  1
  Rh  Rh205  1  0.59352324  0.80719194  -0.01091909  1
  Rh  Rh206  1  0.59869965  0.20202921  0.20337511  1
  Rh  Rh207  1  -0.00139840  0.20336325  0.19667773  1
  Rh  Rh208  1  0.39111869  0.80287764  0.60470397  1
  Rh  Rh209  1  0.19406748  0.20346501  0.00070380  1
  Rh  Rh210  1  0.80064510  0.20282478  0.40449751  1
  Rh  Rh211  1  0.40536764  0.19619809  -0.00487235  1
  Rh  Rh212  1  0.00371498  0.39376190  0.79344045  1
  Rh  Rh213  1  0.19415796  0.60079708  0.20690580  1
  Rh  Rh214  1  0.20396833  0.19908098  0.20250061  1
  Rh  Rh215  1  0.59873725  0.00433697  0.00203848  1
  Rh  Rh216  1  0.80236956  0.60115426  0.60224694  1
  Rh  Rh217  1  0.20420271  0.79097267  0.40680004  1
  Rh  Rh218  1  0.59358789  -0.00281451  0.79456500  1
  Rh  Rh219  1  -0.00688718  0.81194687  0.38573400  1
  Rh  Rh220  1  0.39180457  0.41152185  0.79836125  1
  Rh  Rh221  1  0.80565821  0.39060098  0.41110136  1
  Rh  Rh222  1  0.40546292  0.00668861  0.59135205  1
  Rh  Rh223  1  0.20749886  0.79817064  0.20007020  1
  Rh  Rh224  1  0.79883670  0.00420463  0.79119006  1
  Rh  Rh225  1  0.00563830  0.79904896  0.61140271  1
  Rh  Rh226  1  0.40393225  0.60419957  0.19441639  1
  Rh  Rh227  1  0.40184198  0.59845031  -0.00000822  1
  Rh  Rh228  1  0.19480572  0.80093187  0.00559620  1
  Rh  Rh229  1  0.19326315  0.21154072  0.78894418  1
  Rh  Rh230  1  0.40135237  0.39958573  0.60348061  1
  Rh  Rh231  1  0.01197895  0.19055909  0.60388996  1
  Rh  Rh232  1  0.60108877  0.40307697  0.79938794  1
  Rh  Rh233  1  0.79216494  0.59305588  0.00681857  1
  Rh  Rh234  1  -0.00031419  0.61185201  0.79745629  1
  Rh  Rh235  1  0.59152836  0.39615401  0.39377011  1
  Rh  Rh236  1  0.00492685  -0.00124301  0.20604220  1
  Rh  Rh237  1  0.40259473  0.00552278  0.39760603  1
  Rh  Rh238  1  0.79565000  0.60498672  0.80338921  1
  Rh  Rh239  1  0.40289974  -0.00625564  0.80420967  1
  Rh  Rh240  1  0.18677934  0.61095870  0.58762361  1
  Rh  Rh241  1  0.59996707  0.59383042  0.00081018  1
  Rh  Rh242  1  0.20290405  0.40456620  0.40479176  1
  Rh  Rh243  1  0.20446154  0.80368195  0.79766620  1
  Rh  Rh244  1  -0.00231876  0.39499352  0.39591312  1
  Rh  Rh245  1  0.59617625  0.19749617  0.60075127  1
  Rh  Rh246  1  0.18922528  -0.00098036  0.39840356  1
  Rh  Rh247  1  0.80413644  0.39730569  0.59777757  1
  Rh  Rh248  1  0.78936028  0.39689143  0.80887049  1
  Rh  Rh249  1  0.60733835  0.39399522  0.00530101  1
