# generated using pymatgen
data_ZrScNbPdRh
_symmetry_space_group_name_H-M   'P 1'
_cell_length_a   16.55967856
_cell_length_b   16.55869760
_cell_length_c   16.56066239
_cell_angle_alpha   90.01755062
_cell_angle_beta   90.02657302
_cell_angle_gamma   90.01523595
_symmetry_Int_Tables_number   1
_chemical_formula_structural   ZrScNbPdRh
_chemical_formula_sum   'Zr50 Sc50 Nb50 Pd50 Rh50'
_cell_volume   4541.04388198
_cell_formula_units_Z   50
loop_
 _symmetry_equiv_pos_site_id
 _symmetry_equiv_pos_as_xyz
  1  'x, y, z'
loop_
 _atom_site_type_symbol
 _atom_site_label
 _atom_site_symmetry_multiplicity
 _atom_site_fract_x
 _atom_site_fract_y
 _atom_site_fract_z
 _atom_site_occupancy
  Zr  Zr0  1  0.09956239  0.89528794  0.30750168  1
  Zr  Zr1  1  0.50188679  0.30040531  0.68939919  1
  Zr  Zr2  1  0.69140452  0.10495362  0.90150392  1
  Zr  Zr3  1  0.89703215  0.69771873  0.10556710  1
  Zr  Zr4  1  0.70330543  0.10449538  0.29487033  1
  Zr  Zr5  1  0.49625566  0.30370951  0.29688995  1
  Zr  Zr6  1  0.30375451  0.10054410  0.10410666  1
  Zr  Zr7  1  0.30193333  0.90498145  0.49549037  1
  Zr  Zr8  1  0.29684032  0.69122917  0.28978115  1
  Zr  Zr9  1  0.09305462  0.30195206  0.90101880  1
  Zr  Zr10  1  0.10112567  0.50189064  0.89668210  1
  Zr  Zr11  1  0.70147481  0.50175095  0.30161255  1
  Zr  Zr12  1  0.70245602  0.30192687  0.29202455  1
  Zr  Zr13  1  0.69383199  0.70719908  0.89814368  1
  Zr  Zr14  1  0.49790098  0.90323397  0.30355125  1
  Zr  Zr15  1  0.90241401  0.89941678  0.49957702  1
  Zr  Zr16  1  0.09775916  0.70544333  0.90395992  1
  Zr  Zr17  1  0.49981313  0.70523285  0.49168912  1
  Zr  Zr18  1  0.70736123  0.50236647  0.89840528  1
  Zr  Zr19  1  0.70158676  0.50601658  0.10570666  1
  Zr  Zr20  1  0.89922979  0.30091508  0.71359800  1
  Zr  Zr21  1  0.50742286  0.29615884  0.90342341  1
  Zr  Zr22  1  0.29739854  0.69864295  0.69868659  1
  Zr  Zr23  1  0.49511641  0.49661072  0.69530332  1
  Zr  Zr24  1  0.49536738  0.69973434  0.69883263  1
  Zr  Zr25  1  0.89391258  0.89716919  0.69764140  1
  Zr  Zr26  1  0.09454359  0.28992563  0.69572737  1
  Zr  Zr27  1  0.89842072  0.89172798  0.30528129  1
  Zr  Zr28  1  0.90070526  0.48416388  0.89736278  1
  Zr  Zr29  1  0.70589230  0.29689264  0.90198850  1
  Zr  Zr30  1  0.10042205  0.49932828  0.30140757  1
  Zr  Zr31  1  0.89963121  0.10321407  0.69789404  1
  Zr  Zr32  1  0.91067491  0.10225860  0.10025182  1
  Zr  Zr33  1  0.29499747  0.70842482  0.50393303  1
  Zr  Zr34  1  0.89314198  0.29704462  0.29751749  1
  Zr  Zr35  1  0.50856544  0.89785499  0.90017959  1
  Zr  Zr36  1  0.09221875  0.10163344  0.29165274  1
  Zr  Zr37  1  0.70040550  0.70271601  0.09430458  1
  Zr  Zr38  1  0.70104833  0.31181096  0.49520168  1
  Zr  Zr39  1  0.70953377  0.70310271  0.70155135  1
  Zr  Zr40  1  0.09785565  0.30930363  0.29849475  1
  Zr  Zr41  1  0.49403809  0.50280790  0.29344036  1
  Zr  Zr42  1  0.09386999  0.28551969  0.10328496  1
  Zr  Zr43  1  0.29955289  0.30125809  0.90278255  1
  Zr  Zr44  1  0.29752035  0.10062323  0.90088700  1
  Zr  Zr45  1  0.50523743  0.69718649  0.30176332  1
  Zr  Zr46  1  0.50390300  0.49140750  0.49701191  1
  Zr  Zr47  1  0.50061335  0.09850692  0.50367307  1
  Zr  Zr48  1  0.10875781  0.90194199  0.49643637  1
  Zr  Zr49  1  0.49904542  0.30316584  0.50252108  1
  Sc  Sc50  1  0.70441204  0.69672158  0.30673183  1
  Sc  Sc51  1  0.70098642  0.29752917  0.70091286  1
  Sc  Sc52  1  0.30535382  0.30450531  0.29840837  1
  Sc  Sc53  1  0.89954593  0.70406406  0.69929594  1
  Sc  Sc54  1  0.89507565  0.88877633  0.09265161  1
  Sc  Sc55  1  0.31221737  0.29908042  0.49941362  1
  Sc  Sc56  1  0.10263347  0.10036717  0.50770105  1
  Sc  Sc57  1  0.50217473  0.49759978  0.10492427  1
  Sc  Sc58  1  0.71451088  0.89726873  0.49696581  1
  Sc  Sc59  1  0.30206523  0.89453116  0.91370640  1
  Sc  Sc60  1  0.10466572  0.09927021  0.88767341  1
  Sc  Sc61  1  0.29168210  0.90836608  0.69134233  1
  Sc  Sc62  1  0.09340775  0.90959096  0.71206171  1
  Sc  Sc63  1  0.51226135  0.90634052  0.69556869  1
  Sc  Sc64  1  0.50097269  0.70131667  0.90306086  1
  Sc  Sc65  1  0.90048774  0.50507981  0.29434265  1
  Sc  Sc66  1  0.30101328  0.51037598  0.70406064  1
  Sc  Sc67  1  0.50185307  0.10201111  0.09827204  1
  Sc  Sc68  1  0.29948195  0.09329069  0.50583383  1
  Sc  Sc69  1  0.30326946  0.49712849  0.49695683  1
  Sc  Sc70  1  0.69913075  0.89617057  0.90654114  1
  Sc  Sc71  1  0.90743544  0.89488696  0.89472741  1
  Sc  Sc72  1  0.30397016  0.09873123  0.30450713  1
  Sc  Sc73  1  0.70016853  0.10122348  0.69352382  1
  Sc  Sc74  1  0.89563329  0.10563660  0.90165265  1
  Sc  Sc75  1  0.50328913  0.69150007  0.09706643  1
  Sc  Sc76  1  0.29674264  0.90525124  0.30736342  1
  Sc  Sc77  1  0.49323645  0.09750392  0.28921825  1
  Sc  Sc78  1  0.89614112  0.70231119  0.49848609  1
  Sc  Sc79  1  0.09915762  0.88379771  0.09935229  1
  Sc  Sc80  1  0.09953221  0.69428886  0.70189291  1
  Sc  Sc81  1  0.48417852  0.49954800  0.90218363  1
  Sc  Sc82  1  0.89821844  0.50479641  0.70453514  1
  Sc  Sc83  1  0.10212188  0.70334413  0.11044460  1
  Sc  Sc84  1  0.90210903  0.30193878  0.51303098  1
  Sc  Sc85  1  0.09524317  0.70251837  0.50010949  1
  Sc  Sc86  1  0.49719589  0.91127304  0.10082409  1
  Sc  Sc87  1  0.09648224  0.50836635  0.70377365  1
  Sc  Sc88  1  0.30570529  0.29454280  0.69462255  1
  Sc  Sc89  1  0.51078019  0.10216948  0.69500781  1
  Sc  Sc90  1  0.71129019  0.49989844  0.69729097  1
  Sc  Sc91  1  0.89900691  0.09818371  0.30214712  1
  Sc  Sc92  1  0.08944942  0.49665185  0.49436286  1
  Sc  Sc93  1  0.29743236  0.30161282  0.10181762  1
  Sc  Sc94  1  0.30732377  0.69490733  0.90416812  1
  Sc  Sc95  1  0.50198937  0.30390539  0.10186191  1
  Sc  Sc96  1  0.10834819  0.09908488  0.70226510  1
  Sc  Sc97  1  0.89521156  0.50705608  0.50117237  1
  Sc  Sc98  1  0.10305439  0.48610248  0.11081504  1
  Sc  Sc99  1  0.89656899  0.70622327  0.89749033  1
  Nb  Nb100  1  0.69642392  0.29394768  0.10095842  1
  Nb  Nb101  1  0.70862883  0.10261354  0.49231758  1
  Nb  Nb102  1  0.09884918  0.30044641  0.50121684  1
  Nb  Nb103  1  0.29710732  0.49901126  0.28869478  1
  Nb  Nb104  1  0.90165437  0.29883161  0.08494255  1
  Nb  Nb105  1  0.09886716  0.90016022  0.90008764  1
  Nb  Nb106  1  0.29217197  0.70556373  0.10122730  1
  Nb  Nb107  1  0.70066713  0.50898310  0.49860757  1
  Nb  Nb108  1  0.29751104  0.09859711  0.70829054  1
  Nb  Nb109  1  0.90705315  0.69618114  0.30486155  1
  Nb  Nb110  1  0.89228691  0.09973810  0.50090365  1
  Nb  Nb111  1  0.69878575  0.69392586  0.49524482  1
  Nb  Nb112  1  0.09709368  0.69933554  0.30400161  1
  Nb  Nb113  1  0.89994770  0.29935535  0.90549307  1
  Nb  Nb114  1  0.50002228  0.10133235  0.89689930  1
  Nb  Nb115  1  0.29504157  0.89310357  0.10429430  1
  Nb  Nb116  1  0.69852757  0.90054931  0.10124261  1
  Nb  Nb117  1  0.70044034  0.09207847  0.10102935  1
  Nb  Nb118  1  0.29442522  0.49931712  0.90175822  1
  Nb  Nb119  1  0.09929158  0.09656191  0.10240597  1
  Nb  Nb120  1  0.89589260  0.50509604  0.09574234  1
  Nb  Nb121  1  0.29804155  0.50899515  0.11052086  1
  Nb  Nb122  1  0.50294115  0.89944348  0.49292726  1
  Nb  Nb123  1  0.69694119  0.89978465  0.29741009  1
  Nb  Nb124  1  0.70536374  0.89553876  0.70045539  1
  Nb  Nb125  1  0.20348879  0.80075624  0.80454661  1
  Nb  Nb126  1  0.19512466  -0.00345342  0.00672552  1
  Nb  Nb127  1  0.60514062  0.79772182  0.59220196  1
  Nb  Nb128  1  0.00113822  0.20364609  0.40641264  1
  Nb  Nb129  1  0.79595306  -0.00175167  0.79808945  1
  Nb  Nb130  1  0.59989998  0.80521591  0.20183781  1
  Nb  Nb131  1  0.00041508  0.59440025  0.00490325  1
  Nb  Nb132  1  0.19851713  0.59860247  0.39302110  1
  Nb  Nb133  1  0.60461971  0.00306144  0.40072517  1
  Nb  Nb134  1  0.79517228  -0.00477423  0.19441060  1
  Nb  Nb135  1  0.60399124  0.60252193  0.59616704  1
  Nb  Nb136  1  0.59842853  0.59599613  0.79448360  1
  Nb  Nb137  1  0.39778905  0.80737769  0.79594873  1
  Nb  Nb138  1  0.19498170  0.39702248  0.60162410  1
  Nb  Nb139  1  0.19261865  0.20654448  0.40211774  1
  Nb  Nb140  1  0.40219952  0.00234058  0.80272376  1
  Nb  Nb141  1  -0.00759862  0.00157946  0.59793722  1
  Nb  Nb142  1  0.60348064  0.19727736  0.39915974  1
  Nb  Nb143  1  0.20006630  0.39870201  0.79829040  1
  Nb  Nb144  1  0.40421026  0.19337196  0.80102713  1
  Nb  Nb145  1  0.19510808  -0.00246230  0.19463149  1
  Nb  Nb146  1  0.20056451  0.59723378  0.00616334  1
  Nb  Nb147  1  0.39866608  0.79792298  0.19683213  1
  Nb  Nb148  1  0.59877377  0.40371371  0.80085014  1
  Nb  Nb149  1  0.00877494  -0.00163452  -0.00106385  1
  Pd  Pd150  1  0.20800386  0.39907707  0.40568891  1
  Pd  Pd151  1  0.59945877  0.39897099  0.39120772  1
  Pd  Pd152  1  0.59425756  0.19872089  0.19972493  1
  Pd  Pd153  1  0.39625065  0.40311373  0.00997518  1
  Pd  Pd154  1  0.38974080  0.79810179  0.39020770  1
  Pd  Pd155  1  0.61420903  -0.00823542  0.58811438  1
  Pd  Pd156  1  0.19327762  0.58960505  0.58714841  1
  Pd  Pd157  1  0.20647335  0.19765122  0.21059369  1
  Pd  Pd158  1  0.60527685  0.00021853  0.79926754  1
  Pd  Pd159  1  0.40291772  -0.00122367  0.60733381  1
  Pd  Pd160  1  0.18820452  0.80638796  0.61168269  1
  Pd  Pd161  1  -0.00246358  0.80100630  0.20125745  1
  Pd  Pd162  1  0.39725311  0.39241590  0.79582858  1
  Pd  Pd163  1  -0.01106900  0.60485034  0.80738623  1
  Pd  Pd164  1  0.20995567  0.20335784  0.59370982  1
  Pd  Pd165  1  0.39445234  0.59725021  0.00805577  1
  Pd  Pd166  1  0.40337964  0.59702396  0.58839178  1
  Pd  Pd167  1  -0.00408183  -0.01714696  0.19050973  1
  Pd  Pd168  1  0.40120358  0.19544625  0.40052828  1
  Pd  Pd169  1  0.80763247  0.60509272  -0.00864726  1
  Pd  Pd170  1  0.59895730  0.00150063  0.00183542  1
  Pd  Pd171  1  0.61098632  0.20247183  0.59044201  1
  Pd  Pd172  1  -0.00338286  0.60057474  0.59730908  1
  Pd  Pd173  1  0.79306373  0.39728465  0.00918866  1
  Pd  Pd174  1  0.80909734  -0.00442648  -0.00317040  1
  Pd  Pd175  1  -0.01347724  0.39715758  0.40175670  1
  Pd  Pd176  1  0.80560429  0.19534913  0.18782590  1
  Pd  Pd177  1  -0.00091627  0.19406231  0.80591734  1
  Pd  Pd178  1  -0.01310112  0.39639452  0.19246044  1
  Pd  Pd179  1  0.79618018  0.20646609  0.59813067  1
  Pd  Pd180  1  0.20057375  0.40396134  0.00305199  1
  Pd  Pd181  1  0.00120719  0.40799746  0.60809359  1
  Pd  Pd182  1  0.00355445  0.40473328  0.00794917  1
  Pd  Pd183  1  0.79823984  -0.00165595  0.39008859  1
  Pd  Pd184  1  0.60327346  0.40564797  -0.00279798  1
  Pd  Pd185  1  0.80511428  0.39918284  0.18957258  1
  Pd  Pd186  1  0.80825510  0.40617424  0.40242572  1
  Pd  Pd187  1  0.00355672  0.00989007  0.40877892  1
  Pd  Pd188  1  0.40798459  0.79804242  0.00543942  1
  Pd  Pd189  1  0.59555171  0.59076942  -0.00967821  1
  Pd  Pd190  1  0.00725011  0.80634061  0.60440678  1
  Pd  Pd191  1  0.40452132  0.20293937  0.00090385  1
  Pd  Pd192  1  0.80187182  0.40239753  0.60234003  1
  Pd  Pd193  1  0.40716115  0.81356646  0.60520199  1
  Pd  Pd194  1  0.39135810  0.59737495  0.40215066  1
  Pd  Pd195  1  0.79725271  0.19506782  0.00657479  1
  Pd  Pd196  1  0.00426381  0.59747289  0.19456978  1
  Pd  Pd197  1  0.19295105  0.19314350  -0.00183785  1
  Pd  Pd198  1  0.79385845  0.79718542  0.20579697  1
  Pd  Pd199  1  0.39640099  -0.00044789  -0.00121666  1
  Rh  Rh200  1  0.00598913  0.39847529  0.79377113  1
  Rh  Rh201  1  0.79974135  0.79389799  0.39721461  1
  Rh  Rh202  1  0.79521855  0.39354825  0.79913293  1
  Rh  Rh203  1  0.20461569  0.80715363  0.21277189  1
  Rh  Rh204  1  0.20286234  0.78846598  0.39557464  1
  Rh  Rh205  1  0.80081652  0.00290350  0.60559822  1
  Rh  Rh206  1  0.79794698  0.19457983  0.80268977  1
  Rh  Rh207  1  0.19367523  0.01455425  0.39170708  1
  Rh  Rh208  1  0.39598485  0.40157494  0.19483487  1
  Rh  Rh209  1  0.79483324  0.79258026  0.59170071  1
  Rh  Rh210  1  0.59565308  0.20708913  0.79542435  1
  Rh  Rh211  1  0.20751714  0.60300396  0.80914414  1
  Rh  Rh212  1  0.79992476  0.60500893  0.20493206  1
  Rh  Rh213  1  -0.00067618  0.79429100  0.40380521  1
  Rh  Rh214  1  0.40175210  0.60770539  0.80540298  1
  Rh  Rh215  1  0.60643489  -0.00247272  0.20268807  1
  Rh  Rh216  1  0.80044093  0.60359320  0.80385494  1
  Rh  Rh217  1  0.59815548  0.59214949  0.40063236  1
  Rh  Rh218  1  0.60503955  0.60669453  0.20298350  1
  Rh  Rh219  1  0.38690462  -0.00750610  0.19806603  1
  Rh  Rh220  1  0.60879933  0.81030135  0.40159480  1
  Rh  Rh221  1  0.80617921  0.60078966  0.39647850  1
  Rh  Rh222  1  0.40765051  0.00512128  0.40306600  1
  Rh  Rh223  1  -0.00921849  0.20638892  0.20487398  1
  Rh  Rh224  1  0.61030446  0.40990594  0.60707301  1
  Rh  Rh225  1  0.38575396  0.40676544  0.60455239  1
  Rh  Rh226  1  0.00260276  0.60298832  0.40110377  1
  Rh  Rh227  1  0.18920146  0.59896175  0.19878574  1
  Rh  Rh228  1  0.59276376  0.80462077  0.01399151  1
  Rh  Rh229  1  0.79871230  0.80817042  0.80643046  1
  Rh  Rh230  1  0.60452654  0.40050756  0.19868809  1
  Rh  Rh231  1  0.21335563  -0.01381527  0.81314036  1
  Rh  Rh232  1  0.19909832  0.79554704  -0.00573651  1
  Rh  Rh233  1  0.00877088  0.79593301  0.79439759  1
  Rh  Rh234  1  0.59437625  0.79473430  0.78914053  1
  Rh  Rh235  1  0.60153752  0.19692752  0.00853143  1
  Rh  Rh236  1  -0.00203523  0.79611879  0.00178660  1
  Rh  Rh237  1  0.20412183  0.39297191  0.19898689  1
  Rh  Rh238  1  0.19199402  -0.00065024  0.60172045  1
  Rh  Rh239  1  0.40392411  0.60623200  0.19280246  1
  Rh  Rh240  1  0.20713518  0.21251700  0.79801254  1
  Rh  Rh241  1  0.79901973  0.80008310  -0.00400684  1
  Rh  Rh242  1  -0.00309739  0.19040931  0.59390635  1
  Rh  Rh243  1  0.79972033  0.60446454  0.59812432  1
  Rh  Rh244  1  0.80429403  0.20831658  0.40745501  1
  Rh  Rh245  1  0.39673509  0.18705603  0.60780215  1
  Rh  Rh246  1  0.00506640  0.19121610  -0.00867440  1
  Rh  Rh247  1  0.39753482  0.40561665  0.39220126  1
  Rh  Rh248  1  0.39975521  0.20433597  0.19645888  1
  Rh  Rh249  1  -0.01247313  0.00500054  0.80095203  1
