# generated using pymatgen
data_ZrScNbPdRh
_symmetry_space_group_name_H-M   'P 1'
_cell_length_a   16.56003097
_cell_length_b   16.55530682
_cell_length_c   16.56541975
_cell_angle_alpha   90.00864979
_cell_angle_beta   90.01618059
_cell_angle_gamma   90.00929781
_symmetry_Int_Tables_number   1
_chemical_formula_structural   ZrScNbPdRh
_chemical_formula_sum   'Zr50 Sc50 Nb50 Pd50 Rh50'
_cell_volume   4541.51544539
_cell_formula_units_Z   50
loop_
 _symmetry_equiv_pos_site_id
 _symmetry_equiv_pos_as_xyz
  1  'x, y, z'
loop_
 _atom_site_type_symbol
 _atom_site_label
 _atom_site_symmetry_multiplicity
 _atom_site_fract_x
 _atom_site_fract_y
 _atom_site_fract_z
 _atom_site_occupancy
  Zr  Zr0  1  0.29616288  0.49977081  0.10072503  1
  Zr  Zr1  1  0.29499477  0.50480707  0.49495511  1
  Zr  Zr2  1  0.89736625  0.50435469  0.50007876  1
  Zr  Zr3  1  0.29887568  0.69808145  0.09742572  1
  Zr  Zr4  1  0.69910646  0.09593094  0.88996770  1
  Zr  Zr5  1  0.50076946  0.30533580  0.50230838  1
  Zr  Zr6  1  0.09336192  0.90359445  0.90164914  1
  Zr  Zr7  1  0.49090738  0.90175643  0.89714934  1
  Zr  Zr8  1  0.89947845  0.69575943  0.89717492  1
  Zr  Zr9  1  0.70492290  0.11375524  0.09973432  1
  Zr  Zr10  1  0.10355396  0.50714417  0.29905808  1
  Zr  Zr11  1  0.49793220  0.11019851  0.09958904  1
  Zr  Zr12  1  0.09839373  0.69854170  0.10946860  1
  Zr  Zr13  1  0.29648776  0.09205924  0.50375387  1
  Zr  Zr14  1  0.30014788  0.09837287  0.10636788  1
  Zr  Zr15  1  0.09997550  0.70068534  0.69964937  1
  Zr  Zr16  1  0.69954033  0.88603008  0.09603595  1
  Zr  Zr17  1  0.90024732  0.10437829  0.09243967  1
  Zr  Zr18  1  0.70905245  0.90866713  0.70737773  1
  Zr  Zr19  1  0.70715948  0.90350590  0.49141132  1
  Zr  Zr20  1  0.09885333  0.10150943  0.70786125  1
  Zr  Zr21  1  0.90292786  0.89890365  0.08622037  1
  Zr  Zr22  1  0.49374205  0.90100289  0.09745460  1
  Zr  Zr23  1  0.30545538  0.28696387  0.49156640  1
  Zr  Zr24  1  0.49437254  0.30882546  0.29378380  1
  Zr  Zr25  1  0.09864406  0.49302529  0.69103457  1
  Zr  Zr26  1  0.49089290  0.70185103  0.69421050  1
  Zr  Zr27  1  0.91042499  0.50098141  0.09260265  1
  Zr  Zr28  1  0.70793947  0.70068812  0.49130414  1
  Zr  Zr29  1  0.49725806  0.30197020  0.70286071  1
  Zr  Zr30  1  0.48869683  0.70370200  0.89854988  1
  Zr  Zr31  1  0.11048101  0.29860199  0.29437432  1
  Zr  Zr32  1  0.29658094  0.90157720  0.70251537  1
  Zr  Zr33  1  0.70602059  0.10286784  0.30189570  1
  Zr  Zr34  1  0.91202350  0.70273455  0.69510896  1
  Zr  Zr35  1  0.90592057  0.29438860  0.69549972  1
  Zr  Zr36  1  0.90580170  0.90258048  0.29878781  1
  Zr  Zr37  1  0.70777679  0.50608046  0.89411107  1
  Zr  Zr38  1  0.29818022  0.49107038  0.29772201  1
  Zr  Zr39  1  0.48992205  0.09959355  0.49403547  1
  Zr  Zr40  1  0.70241916  0.49443389  0.49619153  1
  Zr  Zr41  1  0.49753593  0.50507010  0.49811594  1
  Zr  Zr42  1  0.29822184  0.30164886  0.71098434  1
  Zr  Zr43  1  0.29374302  0.10979631  0.31001559  1
  Zr  Zr44  1  0.10263235  0.29919741  0.70891228  1
  Zr  Zr45  1  0.70020134  0.50368274  0.69957444  1
  Zr  Zr46  1  0.30834548  0.70138096  0.50303651  1
  Zr  Zr47  1  0.70675349  0.89828884  0.89647112  1
  Zr  Zr48  1  0.49374746  0.89757947  0.49813852  1
  Zr  Zr49  1  0.49737883  0.50041989  0.89667654  1
  Sc  Sc50  1  0.50157071  0.49819220  0.11400820  1
  Sc  Sc51  1  0.29226294  0.29295619  0.10442403  1
  Sc  Sc52  1  0.70363840  0.89386406  0.30442312  1
  Sc  Sc53  1  0.70012216  0.50087662  0.30148112  1
  Sc  Sc54  1  0.89720996  0.50034186  0.30153875  1
  Sc  Sc55  1  0.09924557  0.09213826  0.30437622  1
  Sc  Sc56  1  0.10888874  0.29485612  0.90358859  1
  Sc  Sc57  1  0.71681328  0.09991654  0.49883912  1
  Sc  Sc58  1  0.90144690  0.10268040  0.29754161  1
  Sc  Sc59  1  0.50305723  0.70081319  0.10534775  1
  Sc  Sc60  1  0.49153939  0.90073742  0.70817152  1
  Sc  Sc61  1  0.90147480  0.09264836  0.69293315  1
  Sc  Sc62  1  0.09732025  0.30488845  0.51658512  1
  Sc  Sc63  1  0.50134220  0.09318493  0.71123376  1
  Sc  Sc64  1  0.09958103  0.30410926  0.09833371  1
  Sc  Sc65  1  0.50641053  0.29445023  0.90360946  1
  Sc  Sc66  1  0.29760815  0.50259453  0.90115994  1
  Sc  Sc67  1  0.90307915  0.69530667  0.49625518  1
  Sc  Sc68  1  0.09963738  0.69244594  0.50710806  1
  Sc  Sc69  1  0.90182933  0.29482079  0.10661559  1
  Sc  Sc70  1  0.10054206  0.10307322  0.09340436  1
  Sc  Sc71  1  0.49467790  0.10052246  0.29831523  1
  Sc  Sc72  1  0.10571079  0.09570470  0.49582615  1
  Sc  Sc73  1  0.29282170  0.70250802  0.70069802  1
  Sc  Sc74  1  0.71429675  0.30447020  0.29650546  1
  Sc  Sc75  1  0.70004347  0.70389130  0.29668534  1
  Sc  Sc76  1  0.90632214  0.70524192  0.09297985  1
  Sc  Sc77  1  0.49086087  0.50071513  0.69769301  1
  Sc  Sc78  1  0.69715293  0.29520399  0.90065515  1
  Sc  Sc79  1  0.49048122  0.70115576  0.49521270  1
  Sc  Sc80  1  0.10090603  0.70052513  0.89131636  1
  Sc  Sc81  1  0.49635505  0.90418750  0.30826836  1
  Sc  Sc82  1  0.29860062  0.49478004  0.70566035  1
  Sc  Sc83  1  0.28873256  0.69883320  0.30381811  1
  Sc  Sc84  1  0.89448499  0.50316638  0.70068214  1
  Sc  Sc85  1  0.10308641  0.90614892  0.49795761  1
  Sc  Sc86  1  0.90056161  0.09402622  0.49497057  1
  Sc  Sc87  1  0.50113470  0.50178043  0.29760331  1
  Sc  Sc88  1  0.09080024  0.89280817  0.10273531  1
  Sc  Sc89  1  0.09427873  0.89536943  0.69678440  1
  Sc  Sc90  1  0.10087106  0.49239869  0.90931051  1
  Sc  Sc91  1  0.70650442  0.70422588  0.71344455  1
  Sc  Sc92  1  0.70404459  0.29842255  0.69599830  1
  Sc  Sc93  1  0.29316463  0.10330858  0.91478291  1
  Sc  Sc94  1  0.69270262  0.49536071  0.10744057  1
  Sc  Sc95  1  0.10279283  0.49772977  0.10104451  1
  Sc  Sc96  1  0.88843530  0.29631213  0.50428733  1
  Sc  Sc97  1  0.49656237  0.69677492  0.30181059  1
  Sc  Sc98  1  0.29938307  0.90031158  0.49730007  1
  Sc  Sc99  1  0.70510825  0.70564517  0.90033107  1
  Nb  Nb100  1  0.10340961  0.89249578  0.29752938  1
  Nb  Nb101  1  0.50992318  0.30700473  0.09968830  1
  Nb  Nb102  1  0.29813181  0.30501267  0.90073370  1
  Nb  Nb103  1  0.30058404  0.90235013  0.09662473  1
  Nb  Nb104  1  0.90565762  0.30196835  0.30354063  1
  Nb  Nb105  1  0.09582807  0.49668077  0.50051155  1
  Nb  Nb106  1  0.09336240  0.70714742  0.29242606  1
  Nb  Nb107  1  0.90305430  0.69708295  0.29714828  1
  Nb  Nb108  1  0.90229456  0.89939278  0.69516884  1
  Nb  Nb109  1  0.29836941  0.09670218  0.70554611  1
  Nb  Nb110  1  0.29185853  0.89524235  0.30023986  1
  Nb  Nb111  1  0.89908954  0.90622492  0.89466024  1
  Nb  Nb112  1  0.89920669  0.49489906  0.90200185  1
  Nb  Nb113  1  0.89705454  0.29870742  0.90379327  1
  Nb  Nb114  1  0.69992110  0.69946367  0.09879542  1
  Nb  Nb115  1  0.29454132  0.29830358  0.29921323  1
  Nb  Nb116  1  0.69957637  0.29523595  0.49840306  1
  Nb  Nb117  1  0.50483790  0.10017894  0.89620067  1
  Nb  Nb118  1  0.09684934  0.09814979  0.89706690  1
  Nb  Nb119  1  0.69970696  0.30135162  0.09935569  1
  Nb  Nb120  1  0.30054347  0.89647408  0.90272536  1
  Nb  Nb121  1  0.29769421  0.70745486  0.90066669  1
  Nb  Nb122  1  0.69820284  0.09887355  0.70130228  1
  Nb  Nb123  1  0.90185770  0.90043830  0.49871081  1
  Nb  Nb124  1  0.90348157  0.09627932  0.90309187  1
  Nb  Nb125  1  0.60508982  0.00051233  0.19304062  1
  Nb  Nb126  1  0.60173049  0.19388135  0.59641507  1
  Nb  Nb127  1  0.38949871  0.80703452  0.19968632  1
  Nb  Nb128  1  0.20321128  -0.00920172  0.20116247  1
  Nb  Nb129  1  0.60283333  0.20582732  0.40487306  1
  Nb  Nb130  1  0.60215840  0.60665230  0.59812934  1
  Nb  Nb131  1  0.40342983  0.39364645  0.00494173  1
  Nb  Nb132  1  0.00347621  0.79909474  0.39353779  1
  Nb  Nb133  1  0.80252898  0.60558177  0.19403952  1
  Nb  Nb134  1  0.60113483  0.60264717  -0.00026905  1
  Nb  Nb135  1  0.20591101  0.19618839  0.60835831  1
  Nb  Nb136  1  0.39688228  0.19675312  0.80757264  1
  Nb  Nb137  1  0.60355195  0.00035948  0.59823555  1
  Nb  Nb138  1  0.60617594  0.80270421  0.59933155  1
  Nb  Nb139  1  0.19875840  0.00029805  0.80703853  1
  Nb  Nb140  1  0.60153431  0.40320117  0.79926198  1
  Nb  Nb141  1  0.00206556  0.39890028  0.40290462  1
  Nb  Nb142  1  0.80030265  0.39745630  0.00068859  1
  Nb  Nb143  1  0.79726632  -0.00252437  0.19217946  1
  Nb  Nb144  1  0.80522158  0.19406794  0.80193482  1
  Nb  Nb145  1  0.80352282  0.80742209  0.59900391  1
  Nb  Nb146  1  -0.00685706  0.39685542  0.80662333  1
  Nb  Nb147  1  0.20447141  0.80233624  -0.00116311  1
  Nb  Nb148  1  0.00105836  0.21091056  0.39857331  1
  Nb  Nb149  1  0.59838805  0.00234233  0.00017794  1
  Pd  Pd150  1  0.40594149  -0.00238661  0.60408237  1
  Pd  Pd151  1  0.39867574  0.40292005  0.39970012  1
  Pd  Pd152  1  0.59515480  0.79676685  -0.00731081  1
  Pd  Pd153  1  0.19819030  0.59342332  0.80077505  1
  Pd  Pd154  1  0.39457230  0.60700691  0.20565583  1
  Pd  Pd155  1  0.80776679  0.79823448  0.19825744  1
  Pd  Pd156  1  0.80107467  0.39814842  0.59943433  1
  Pd  Pd157  1  0.60238447  0.40180254  0.60639727  1
  Pd  Pd158  1  0.21187050  0.39291962  0.59474877  1
  Pd  Pd159  1  0.39939119  0.20749415  -0.00317261  1
  Pd  Pd160  1  0.19483935  0.60804106  0.40082918  1
  Pd  Pd161  1  0.00516475  0.20575052  -0.00341077  1
  Pd  Pd162  1  0.00317146  0.58591689  0.80067951  1
  Pd  Pd163  1  0.58901816  0.80512051  0.20887754  1
  Pd  Pd164  1  0.40157698  0.19239736  0.61300937  1
  Pd  Pd165  1  -0.00214796  0.80400646  0.80284179  1
  Pd  Pd166  1  0.80510251  0.40706503  0.19306127  1
  Pd  Pd167  1  0.79232447  0.00066619  0.00263518  1
  Pd  Pd168  1  0.59615191  0.80281722  0.79548379  1
  Pd  Pd169  1  0.60021402  0.60373646  0.40237483  1
  Pd  Pd170  1  0.38837532  0.60364106  0.79650387  1
  Pd  Pd171  1  0.79873739  0.38941189  0.80289774  1
  Pd  Pd172  1  0.39734301  0.20789977  0.20120922  1
  Pd  Pd173  1  0.38988258  0.40452665  0.59586633  1
  Pd  Pd174  1  0.00269712  0.00367533  0.19395733  1
  Pd  Pd175  1  0.19307936  0.39276659  0.40830069  1
  Pd  Pd176  1  0.19205268  0.79371958  0.40981549  1
  Pd  Pd177  1  0.60435191  0.39501741  0.39181109  1
  Pd  Pd178  1  0.01017128  0.60403516  -0.00449205  1
  Pd  Pd179  1  0.59362625  0.79541954  0.40052778  1
  Pd  Pd180  1  0.60287617  0.00959031  0.39916440  1
  Pd  Pd181  1  0.60217761  0.20489309  0.21070124  1
  Pd  Pd182  1  -0.00706270  0.20186431  0.80905834  1
  Pd  Pd183  1  0.79372412  0.59501476  0.00833316  1
  Pd  Pd184  1  0.19159701  -0.00537300  0.00469360  1
  Pd  Pd185  1  0.79518692  0.61176777  0.60548608  1
  Pd  Pd186  1  0.00209603  0.40482177  0.20659534  1
  Pd  Pd187  1  0.00365120  0.60027439  0.39846340  1
  Pd  Pd188  1  0.39750144  -0.00322122  0.20926846  1
  Pd  Pd189  1  0.59630353  0.60119455  0.79900756  1
  Pd  Pd190  1  0.00654937  0.19413224  0.20538119  1
  Pd  Pd191  1  0.60294340  0.19673181  -0.00288878  1
  Pd  Pd192  1  0.19145959  0.60683251  -0.00458010  1
  Pd  Pd193  1  0.20394437  0.59786766  0.60337139  1
  Pd  Pd194  1  0.40390543  0.00854480  -0.00526726  1
  Pd  Pd195  1  0.40825903  0.59273663  0.00599874  1
  Pd  Pd196  1  0.60177431  0.40897959  -0.00509214  1
  Pd  Pd197  1  0.19724931  0.80342100  0.59370861  1
  Pd  Pd198  1  0.00603961  0.19007743  0.58922537  1
  Pd  Pd199  1  0.00607115  0.00197687  0.59633498  1
  Rh  Rh200  1  0.38733547  0.00940884  0.81340903  1
  Rh  Rh201  1  0.20046897  0.40038652  0.19562400  1
  Rh  Rh202  1  0.21039466  0.39693027  0.00345978  1
  Rh  Rh203  1  0.60687486  0.39400064  0.20687656  1
  Rh  Rh204  1  0.39872569  0.80700532  0.60268460  1
  Rh  Rh205  1  -0.00567929  0.39240696  -0.00449277  1
  Rh  Rh206  1  0.00230397  0.00325486  0.00050378  1
  Rh  Rh207  1  0.00127628  -0.00325416  0.39900211  1
  Rh  Rh208  1  0.80710692  0.00031676  0.38833026  1
  Rh  Rh209  1  0.39454418  0.59587968  0.39299125  1
  Rh  Rh210  1  -0.00875479  0.80059864  0.20164787  1
  Rh  Rh211  1  0.79861243  0.60217407  0.38620380  1
  Rh  Rh212  1  0.39253560  0.39287857  0.19096903  1
  Rh  Rh213  1  0.39526476  0.79977237  0.39069208  1
  Rh  Rh214  1  0.81499841  0.79705824  0.40281107  1
  Rh  Rh215  1  0.20933695  0.19123286  0.80477888  1
  Rh  Rh216  1  0.60909156  0.60450981  0.19726775  1
  Rh  Rh217  1  0.80609875  0.20193626  0.20173937  1
  Rh  Rh218  1  0.19472766  0.00444301  0.61207346  1
  Rh  Rh219  1  0.60071934  0.20739893  0.79031036  1
  Rh  Rh220  1  -0.00111682  -0.00219127  0.79859106  1
  Rh  Rh221  1  0.79527958  0.19345632  0.60769199  1
  Rh  Rh222  1  -0.00642712  0.59718436  0.19993923  1
  Rh  Rh223  1  0.40979043  0.20445101  0.39042289  1
  Rh  Rh224  1  0.00203768  0.59504046  0.60006267  1
  Rh  Rh225  1  0.79824037  0.20593372  -0.00703002  1
  Rh  Rh226  1  0.59661180  -0.00918234  0.80083268  1
  Rh  Rh227  1  0.39058207  0.79534575  0.79475944  1
  Rh  Rh228  1  0.19480179  0.18918795  0.19848872  1
  Rh  Rh229  1  0.38915247  -0.00255890  0.39635798  1
  Rh  Rh230  1  0.79869855  -0.00394478  0.59913473  1
  Rh  Rh231  1  0.19695976  0.20088716  0.00233315  1
  Rh  Rh232  1  0.80578313  0.39886463  0.40329525  1
  Rh  Rh233  1  0.00477814  0.79450692  -0.00968300  1
  Rh  Rh234  1  0.80503974  0.20330704  0.39711527  1
  Rh  Rh235  1  0.18923221  0.40641660  0.80701346  1
  Rh  Rh236  1  -0.00401130  0.80158813  0.58654193  1
  Rh  Rh237  1  0.20041010  0.80866835  0.80595832  1
  Rh  Rh238  1  0.20040268  0.59986983  0.20368219  1
  Rh  Rh239  1  -0.01156793  0.40639976  0.60074152  1
  Rh  Rh240  1  0.80669924  0.79710896  -0.00733420  1
  Rh  Rh241  1  0.80860337  0.60508928  0.79705838  1
  Rh  Rh242  1  0.18777485  0.20696519  0.41098735  1
  Rh  Rh243  1  0.40783342  0.39080621  0.81399626  1
  Rh  Rh244  1  0.39780782  0.59534622  0.60227394  1
  Rh  Rh245  1  0.81359937  0.80026900  0.79709107  1
  Rh  Rh246  1  0.20031102  -0.00442692  0.39163245  1
  Rh  Rh247  1  0.39496460  0.79593800  0.00673813  1
  Rh  Rh248  1  0.81476538  0.00840589  0.79791644  1
  Rh  Rh249  1  0.20476842  0.80320821  0.18974272  1
