# generated using pymatgen
data_ZrScNbPdRh
_symmetry_space_group_name_H-M   'P 1'
_cell_length_a   16.56451489
_cell_length_b   16.56844092
_cell_length_c   16.57051984
_cell_angle_alpha   90.00546992
_cell_angle_beta   89.95558453
_cell_angle_gamma   89.97774081
_symmetry_Int_Tables_number   1
_chemical_formula_structural   ZrScNbPdRh
_chemical_formula_sum   'Zr50 Sc50 Nb50 Pd50 Rh50'
_cell_volume   4547.74738820
_cell_formula_units_Z   50
loop_
 _symmetry_equiv_pos_site_id
 _symmetry_equiv_pos_as_xyz
  1  'x, y, z'
loop_
 _atom_site_type_symbol
 _atom_site_label
 _atom_site_symmetry_multiplicity
 _atom_site_fract_x
 _atom_site_fract_y
 _atom_site_fract_z
 _atom_site_occupancy
  Zr  Zr0  1  0.29411120  0.70457078  0.30355800  1
  Zr  Zr1  1  0.48926497  0.90973589  0.50376897  1
  Zr  Zr2  1  0.30174483  0.49106223  0.69875633  1
  Zr  Zr3  1  0.50876888  0.09988498  0.10568149  1
  Zr  Zr4  1  0.70096651  0.69027764  0.48961375  1
  Zr  Zr5  1  0.89621315  0.10415350  0.30219922  1
  Zr  Zr6  1  0.69164476  0.09639428  0.30056934  1
  Zr  Zr7  1  0.11346900  0.90967694  0.10248072  1
  Zr  Zr8  1  0.10262133  0.09414896  0.89573888  1
  Zr  Zr9  1  0.29314275  0.90229949  0.29397759  1
  Zr  Zr10  1  0.89968057  0.90732561  0.89822344  1
  Zr  Zr11  1  0.89677123  0.29916447  0.70310283  1
  Zr  Zr12  1  0.30676090  0.29382975  0.70439552  1
  Zr  Zr13  1  0.10657918  0.29364138  0.69939734  1
  Zr  Zr14  1  0.50263135  0.90356267  0.90748007  1
  Zr  Zr15  1  0.10078021  0.49452920  0.70435455  1
  Zr  Zr16  1  0.50466360  0.49559148  0.71111518  1
  Zr  Zr17  1  0.29913813  0.70712374  0.70731691  1
  Zr  Zr18  1  0.90293551  0.29615361  0.29442325  1
  Zr  Zr19  1  0.89475682  0.29901657  0.10464701  1
  Zr  Zr20  1  0.89907287  0.49212953  0.70883449  1
  Zr  Zr21  1  0.89685156  0.70372706  0.69199557  1
  Zr  Zr22  1  0.49507057  0.90100754  0.70038629  1
  Zr  Zr23  1  0.50391060  0.29770730  0.49896356  1
  Zr  Zr24  1  0.08971319  0.49762600  0.90499495  1
  Zr  Zr25  1  0.10077201  0.70221224  0.48509196  1
  Zr  Zr26  1  0.29786254  0.29654577  0.50777456  1
  Zr  Zr27  1  0.70499238  0.90404553  0.69157091  1
  Zr  Zr28  1  0.90709707  0.50409423  0.09438692  1
  Zr  Zr29  1  0.30191753  0.09962823  0.50176356  1
  Zr  Zr30  1  0.69812577  0.10532927  0.70127855  1
  Zr  Zr31  1  0.69928778  0.29937708  0.69740644  1
  Zr  Zr32  1  0.90318259  0.08976495  0.49044661  1
  Zr  Zr33  1  0.49242198  0.50889370  0.10121163  1
  Zr  Zr34  1  0.29743911  0.10288064  0.70428014  1
  Zr  Zr35  1  0.10384596  0.29130051  0.49303332  1
  Zr  Zr36  1  0.69626478  0.49572790  0.49665134  1
  Zr  Zr37  1  0.50286047  0.29738243  0.70839061  1
  Zr  Zr38  1  0.29893359  0.90634072  0.69151031  1
  Zr  Zr39  1  0.30148464  0.09202468  0.10275984  1
  Zr  Zr40  1  0.70210509  0.50406858  0.31118608  1
  Zr  Zr41  1  0.10026771  0.50200408  0.49076330  1
  Zr  Zr42  1  0.09515557  0.51386837  0.29868033  1
  Zr  Zr43  1  0.70329876  0.90636090  0.90952610  1
  Zr  Zr44  1  0.50523432  0.49618024  0.49593798  1
  Zr  Zr45  1  0.30060361  0.29263018  0.29487002  1
  Zr  Zr46  1  0.70174144  0.29130834  0.10033016  1
  Zr  Zr47  1  0.31339259  0.69131030  0.10417111  1
  Zr  Zr48  1  0.11040922  0.70404134  0.89746356  1
  Zr  Zr49  1  0.89846436  0.89757967  0.30522533  1
  Sc  Sc50  1  0.50096281  0.90248711  0.30160908  1
  Sc  Sc51  1  0.69413072  0.89643826  0.09864153  1
  Sc  Sc52  1  0.69878878  0.88839811  0.29631086  1
  Sc  Sc53  1  0.50494430  0.70283844  0.70082087  1
  Sc  Sc54  1  0.89891837  0.69416196  0.91263287  1
  Sc  Sc55  1  0.30808338  0.50824311  0.29235717  1
  Sc  Sc56  1  0.50090776  0.90075885  0.09634384  1
  Sc  Sc57  1  0.89431175  0.30149550  0.89803952  1
  Sc  Sc58  1  0.70785693  0.90036957  0.49930628  1
  Sc  Sc59  1  0.10712871  0.70914757  0.70005753  1
  Sc  Sc60  1  0.11384529  0.90433472  0.89739207  1
  Sc  Sc61  1  0.09116249  0.28810064  0.90283490  1
  Sc  Sc62  1  0.69174025  0.69346388  0.91157024  1
  Sc  Sc63  1  0.69733759  0.69786743  0.68553203  1
  Sc  Sc64  1  0.69995026  0.10550873  0.90987841  1
  Sc  Sc65  1  0.29861301  0.70943315  0.49279548  1
  Sc  Sc66  1  0.50384232  0.70506920  0.09607588  1
  Sc  Sc67  1  0.69551045  0.29941474  0.90272154  1
  Sc  Sc68  1  0.49696984  0.10013344  0.69702566  1
  Sc  Sc69  1  0.50262582  0.70350320  0.49540419  1
  Sc  Sc70  1  0.69917704  0.10000878  0.49888974  1
  Sc  Sc71  1  0.88907577  0.29720664  0.49256956  1
  Sc  Sc72  1  0.70268620  0.48978838  0.09919320  1
  Sc  Sc73  1  0.70531108  0.30712334  0.29359095  1
  Sc  Sc74  1  0.89272540  0.50523228  0.49006206  1
  Sc  Sc75  1  0.30451144  0.49668053  0.49022745  1
  Sc  Sc76  1  0.50014560  0.10644755  0.90494627  1
  Sc  Sc77  1  0.30343105  0.28523904  0.10208689  1
  Sc  Sc78  1  0.90035052  0.69984948  0.10208661  1
  Sc  Sc79  1  0.10582657  0.10904605  0.09762396  1
  Sc  Sc80  1  0.69138161  0.49677061  0.90046024  1
  Sc  Sc81  1  0.89591973  0.10276419  0.90145339  1
  Sc  Sc82  1  0.49877565  0.49347813  0.30325447  1
  Sc  Sc83  1  0.09446649  0.11246427  0.30334470  1
  Sc  Sc84  1  0.09958721  0.88802783  0.29579764  1
  Sc  Sc85  1  0.89819591  0.09436331  0.70099726  1
  Sc  Sc86  1  0.90261259  0.90615210  0.68710178  1
  Sc  Sc87  1  0.50341486  0.29365070  0.29687240  1
  Sc  Sc88  1  0.89988742  0.70790660  0.49572159  1
  Sc  Sc89  1  0.50611146  0.69371218  0.90598566  1
  Sc  Sc90  1  0.30276637  0.90103147  0.90129273  1
  Sc  Sc91  1  0.08904867  0.69378544  0.11461286  1
  Sc  Sc92  1  0.88963503  0.89235180  0.10145536  1
  Sc  Sc93  1  0.30436024  0.90111510  0.09667169  1
  Sc  Sc94  1  0.10326217  0.09264536  0.70310285  1
  Sc  Sc95  1  0.89595829  0.49524828  0.30432750  1
  Sc  Sc96  1  0.29999000  0.50171288  0.89937745  1
  Sc  Sc97  1  0.50550052  0.29622784  0.10503388  1
  Sc  Sc98  1  0.69508606  0.49505955  0.69894352  1
  Sc  Sc99  1  0.89364459  0.49212368  0.90460986  1
  Nb  Nb100  1  0.09658293  0.30383792  0.10715411  1
  Nb  Nb101  1  0.29869164  0.10510582  0.90303625  1
  Nb  Nb102  1  0.89328432  0.10353955  0.10363597  1
  Nb  Nb103  1  0.69883408  0.70320138  0.10886126  1
  Nb  Nb104  1  0.29922629  0.49753861  0.09911334  1
  Nb  Nb105  1  0.90978721  0.70834401  0.29508470  1
  Nb  Nb106  1  0.90570553  0.90494332  0.49979578  1
  Nb  Nb107  1  0.09935371  0.49970864  0.09766788  1
  Nb  Nb108  1  0.30799935  0.29380632  0.89822616  1
  Nb  Nb109  1  0.09664715  0.30344031  0.29513976  1
  Nb  Nb110  1  0.49917540  0.09630820  0.48042493  1
  Nb  Nb111  1  0.49693982  0.09748687  0.30935985  1
  Nb  Nb112  1  0.69787728  0.70219924  0.29782681  1
  Nb  Nb113  1  0.09997854  0.90575358  0.70142190  1
  Nb  Nb114  1  0.49793394  0.30428009  0.89644372  1
  Nb  Nb115  1  0.09159928  0.70151373  0.30269052  1
  Nb  Nb116  1  0.09650517  0.90919409  0.50929793  1
  Nb  Nb117  1  0.50411458  0.49831388  0.89848249  1
  Nb  Nb118  1  0.09845640  0.09890743  0.50040804  1
  Nb  Nb119  1  0.30541068  0.09400075  0.29787662  1
  Nb  Nb120  1  0.70273040  0.10185883  0.09899548  1
  Nb  Nb121  1  0.50580002  0.70316127  0.29868682  1
  Nb  Nb122  1  0.69418465  0.30691242  0.50595522  1
  Nb  Nb123  1  0.29564741  0.70046340  0.89923407  1
  Nb  Nb124  1  0.29286510  0.90557069  0.49715662  1
  Nb  Nb125  1  0.79957177  0.60456117  0.79890958  1
  Nb  Nb126  1  0.19455365  0.40172871  0.19565584  1
  Nb  Nb127  1  0.79932941  0.79670527  0.79999831  1
  Nb  Nb128  1  0.00010669  0.39696245  0.59681691  1
  Nb  Nb129  1  0.00046818  0.19914668  0.59453626  1
  Nb  Nb130  1  0.20357695  0.39123709  0.81159519  1
  Nb  Nb131  1  0.19749551  0.39544408  0.38622452  1
  Nb  Nb132  1  -0.00617963  0.00374149  0.19471753  1
  Nb  Nb133  1  0.20184563  0.59988637  0.59797796  1
  Nb  Nb134  1  0.79554335  0.60707260  0.20416637  1
  Nb  Nb135  1  0.39874018  0.39881164  -0.00413400  1
  Nb  Nb136  1  0.60512931  0.60485179  0.20365921  1
  Nb  Nb137  1  0.00624352  0.80747584  -0.00148914  1
  Nb  Nb138  1  0.79948593  0.00456328  0.19935338  1
  Nb  Nb139  1  0.19864409  0.00123613  0.40365015  1
  Nb  Nb140  1  0.60823054  0.80753324  0.80131859  1
  Nb  Nb141  1  0.39621310  0.59942770  0.60471911  1
  Nb  Nb142  1  0.20197516  0.39750141  0.00498221  1
  Nb  Nb143  1  0.60176174  -0.00293787  0.80009274  1
  Nb  Nb144  1  -0.00387649  0.60668647  0.79738557  1
  Nb  Nb145  1  0.39968736  0.59995550  0.80115171  1
  Nb  Nb146  1  -0.00205996  -0.00046883  0.00693860  1
  Nb  Nb147  1  0.20111905  0.59563891  0.00650588  1
  Nb  Nb148  1  -0.00281429  0.80281649  0.80154988  1
  Nb  Nb149  1  0.00522731  0.59629841  0.60162615  1
  Pd  Pd150  1  0.19930656  0.20452581  -0.00179391  1
  Pd  Pd151  1  0.19662867  0.79808876  0.59472268  1
  Pd  Pd152  1  0.19733324  0.19746028  0.20165238  1
  Pd  Pd153  1  0.39496702  0.39130799  0.39543301  1
  Pd  Pd154  1  0.60914670  0.20867366  0.39587562  1
  Pd  Pd155  1  0.19593120  0.40426939  0.59278484  1
  Pd  Pd156  1  0.40840581  0.40170349  0.59835769  1
  Pd  Pd157  1  0.00627888  0.79780917  0.60028233  1
  Pd  Pd158  1  -0.00574403  0.19547815  0.00516269  1
  Pd  Pd159  1  0.00019990  0.39451832  0.40342911  1
  Pd  Pd160  1  0.79000386  0.59500232  0.00373161  1
  Pd  Pd161  1  0.20014483  0.60062681  0.19825678  1
  Pd  Pd162  1  0.19969787  0.78948614  0.01340684  1
  Pd  Pd163  1  0.39599793  0.39321862  0.19301432  1
  Pd  Pd164  1  0.79696686  0.19955457  0.80608069  1
  Pd  Pd165  1  0.40769584  0.20176546  0.00506163  1
  Pd  Pd166  1  -0.00313829  0.19261125  0.79249936  1
  Pd  Pd167  1  0.60386827  -0.00628930  0.19945860  1
  Pd  Pd168  1  0.80102992  0.79879129  0.40232949  1
  Pd  Pd169  1  0.78815717  0.20394295  0.39944916  1
  Pd  Pd170  1  0.39885597  0.79814760  -0.00499369  1
  Pd  Pd171  1  0.40938617  0.79306733  0.81137065  1
  Pd  Pd172  1  0.80114249  0.79569500  -0.00217140  1
  Pd  Pd173  1  -0.00125114  0.38812542  -0.00002939  1
  Pd  Pd174  1  0.60095112  0.80223531  0.59534688  1
  Pd  Pd175  1  0.39806333  0.20403383  0.39876203  1
  Pd  Pd176  1  0.59766316  0.80839096  0.40712992  1
  Pd  Pd177  1  -0.00202331  0.40800762  0.20093650  1
  Pd  Pd178  1  0.80474145  0.59128359  0.60217422  1
  Pd  Pd179  1  0.59223141  0.39772820  0.00372255  1
  Pd  Pd180  1  0.59690498  0.00706507  0.59921780  1
  Pd  Pd181  1  0.40275915  0.00749288  0.80766914  1
  Pd  Pd182  1  0.40180197  0.80658425  0.39680680  1
  Pd  Pd183  1  0.39728669  0.59671727  -0.01085659  1
  Pd  Pd184  1  0.20457908  0.19575863  0.39402455  1
  Pd  Pd185  1  0.79406572  0.00071527  0.79890257  1
  Pd  Pd186  1  0.40957673  0.19374287  0.59669926  1
  Pd  Pd187  1  0.40288210  0.60430668  0.40217244  1
  Pd  Pd188  1  0.59191675  0.59756990  0.59985007  1
  Pd  Pd189  1  0.80629539  0.19326680  0.59403530  1
  Pd  Pd190  1  0.20048448  0.78863837  0.19168882  1
  Pd  Pd191  1  0.60588999  -0.01167074  0.40185170  1
  Pd  Pd192  1  0.40439272  0.80378670  0.20160461  1
  Pd  Pd193  1  0.20086185  0.59137146  0.80112704  1
  Pd  Pd194  1  0.40822913  -0.00311141  0.19946386  1
  Pd  Pd195  1  0.01202591  -0.00628780  0.38766579  1
  Pd  Pd196  1  0.60045403  0.40784928  0.20188135  1
  Pd  Pd197  1  0.39843062  0.79361671  0.59434608  1
  Pd  Pd198  1  0.80602693  0.40548923  0.59492221  1
  Pd  Pd199  1  0.59333908  0.19266418  0.59474663  1
  Rh  Rh200  1  0.59137603  0.60088600  0.39307430  1
  Rh  Rh201  1  0.60007483  0.00654005  -0.00088184  1
  Rh  Rh202  1  0.80029173  0.80534830  0.59412400  1
  Rh  Rh203  1  0.59783844  0.20264986  0.00142275  1
  Rh  Rh204  1  0.21150025  -0.00216326  0.80107859  1
  Rh  Rh205  1  0.20327277  0.00653602  -0.00365389  1
  Rh  Rh206  1  0.78809898  0.40439631  0.80466686  1
  Rh  Rh207  1  0.59232597  0.79857530  0.19766919  1
  Rh  Rh208  1  -0.01365625  0.59487102  0.20723416  1
  Rh  Rh209  1  0.19231051  0.81280071  0.40304401  1
  Rh  Rh210  1  -0.01091021  0.60722753  0.40016760  1
  Rh  Rh211  1  0.60354089  0.59368781  0.01401873  1
  Rh  Rh212  1  0.59471179  0.39840349  0.60273017  1
  Rh  Rh213  1  0.01205503  0.61350905  -0.00619667  1
  Rh  Rh214  1  0.79390130  0.39108434  0.40201608  1
  Rh  Rh215  1  0.60181796  0.60904968  0.79759970  1
  Rh  Rh216  1  0.60110677  0.79962126  -0.00063879  1
  Rh  Rh217  1  0.39580705  0.40555959  0.81061982  1
  Rh  Rh218  1  0.19715196  0.00498485  0.59739800  1
  Rh  Rh219  1  0.80309468  0.00484838  0.01151808  1
  Rh  Rh220  1  0.00092070  0.00859221  0.60317262  1
  Rh  Rh221  1  0.79904137  0.39580422  0.00060060  1
  Rh  Rh222  1  0.20863203  0.59616740  0.39857430  1
  Rh  Rh223  1  0.00584418  0.39540240  0.79936872  1
  Rh  Rh224  1  0.39069929  -0.00501246  0.39579601  1
  Rh  Rh225  1  0.79060737  0.19366858  0.20631382  1
  Rh  Rh226  1  -0.00005918  0.81008427  0.19050972  1
  Rh  Rh227  1  0.60205820  0.39099051  0.39622617  1
  Rh  Rh228  1  0.60623441  0.39216693  0.80244083  1
  Rh  Rh229  1  0.40644459  0.18880696  0.20339012  1
  Rh  Rh230  1  0.19397426  0.18854777  0.60240594  1
  Rh  Rh231  1  0.00178539  0.19577891  0.19419473  1
  Rh  Rh232  1  -0.00378704  0.20550058  0.40414377  1
  Rh  Rh233  1  0.80125024  0.79903821  0.20225885  1
  Rh  Rh234  1  0.39963094  0.00898837  0.59667459  1
  Rh  Rh235  1  0.41172436  0.60694061  0.21065600  1
  Rh  Rh236  1  0.80707174  0.40997140  0.19647043  1
  Rh  Rh237  1  0.80216890  0.20345487  -0.00208576  1
  Rh  Rh238  1  0.80303134  0.00561796  0.59236779  1
  Rh  Rh239  1  0.00274766  0.80809524  0.40441415  1
  Rh  Rh240  1  0.80908685  0.61483478  0.38792511  1
  Rh  Rh241  1  0.00180347  -0.00413677  0.80339292  1
  Rh  Rh242  1  0.18904703  0.01274959  0.21474009  1
  Rh  Rh243  1  0.59806580  0.19537410  0.80391867  1
  Rh  Rh244  1  0.40435249  0.19290048  0.80288736  1
  Rh  Rh245  1  0.39833319  0.00535168  0.00070400  1
  Rh  Rh246  1  0.60120458  0.19662194  0.20604502  1
  Rh  Rh247  1  0.79376329  -0.00547222  0.39379592  1
  Rh  Rh248  1  0.20194527  0.81481315  0.79424398  1
  Rh  Rh249  1  0.20157486  0.20222855  0.80756598  1
