# generated using pymatgen
data_ZrScNbPdRh
_symmetry_space_group_name_H-M   'P 1'
_cell_length_a   16.55777105
_cell_length_b   16.55677717
_cell_length_c   16.55632181
_cell_angle_alpha   90.01381191
_cell_angle_beta   90.02579765
_cell_angle_gamma   90.06240218
_symmetry_Int_Tables_number   1
_chemical_formula_structural   ZrScNbPdRh
_chemical_formula_sum   'Zr50 Sc50 Nb50 Pd50 Rh50'
_cell_volume   4538.80183859
_cell_formula_units_Z   50
loop_
 _symmetry_equiv_pos_site_id
 _symmetry_equiv_pos_as_xyz
  1  'x, y, z'
loop_
 _atom_site_type_symbol
 _atom_site_label
 _atom_site_symmetry_multiplicity
 _atom_site_fract_x
 _atom_site_fract_y
 _atom_site_fract_z
 _atom_site_occupancy
  Zr  Zr0  1  0.10010667  0.29476272  0.10380997  1
  Zr  Zr1  1  0.49775878  0.30251438  0.30410299  1
  Zr  Zr2  1  0.30144268  0.70318062  0.89912773  1
  Zr  Zr3  1  0.90037528  0.10149756  0.29692652  1
  Zr  Zr4  1  0.89167925  0.10652413  0.50298640  1
  Zr  Zr5  1  0.48668575  0.09031886  0.29438535  1
  Zr  Zr6  1  0.09942975  0.31284002  0.50127326  1
  Zr  Zr7  1  0.89899194  0.50759064  0.30409639  1
  Zr  Zr8  1  0.50150447  0.70299818  0.50065453  1
  Zr  Zr9  1  0.89850563  0.70190900  0.70292492  1
  Zr  Zr10  1  0.29808962  0.29658388  0.49803520  1
  Zr  Zr11  1  0.90116842  0.30317412  0.50293309  1
  Zr  Zr12  1  0.09407027  0.89781848  0.49777503  1
  Zr  Zr13  1  0.70464725  0.09926838  0.29606870  1
  Zr  Zr14  1  0.30850596  0.91174154  0.30764574  1
  Zr  Zr15  1  0.30695778  0.29878111  0.89952122  1
  Zr  Zr16  1  0.49964620  0.70339213  0.09610990  1
  Zr  Zr17  1  0.29020037  0.49570837  0.29519807  1
  Zr  Zr18  1  0.10596702  0.50880934  0.11071018  1
  Zr  Zr19  1  0.10075443  0.91058751  0.09249234  1
  Zr  Zr20  1  0.70182552  0.50735846  0.70285486  1
  Zr  Zr21  1  0.50160805  0.88982434  0.29538428  1
  Zr  Zr22  1  0.89961849  0.49624212  0.90001589  1
  Zr  Zr23  1  0.30318729  0.10080155  0.89775738  1
  Zr  Zr24  1  0.29558449  0.09762040  0.48876753  1
  Zr  Zr25  1  0.90358821  0.29703789  0.09845649  1
  Zr  Zr26  1  0.69280907  0.70193973  0.50289813  1
  Zr  Zr27  1  0.10298323  0.89926327  0.69866060  1
  Zr  Zr28  1  0.69797304  0.08845613  0.70551852  1
  Zr  Zr29  1  0.51013074  0.49793919  0.70680706  1
  Zr  Zr30  1  0.10170927  0.09474142  0.70519024  1
  Zr  Zr31  1  0.69787986  0.69934777  0.30450958  1
  Zr  Zr32  1  0.69717518  0.90280742  0.50718308  1
  Zr  Zr33  1  0.10207149  0.49979426  0.69439985  1
  Zr  Zr34  1  0.29730762  0.28760641  0.30086624  1
  Zr  Zr35  1  0.29697722  0.10133887  0.10161854  1
  Zr  Zr36  1  0.29573645  0.90151918  0.50744343  1
  Zr  Zr37  1  0.30796657  0.69567554  0.50845982  1
  Zr  Zr38  1  0.90383921  0.10096777  0.90209321  1
  Zr  Zr39  1  0.69690620  0.90004364  0.28242908  1
  Zr  Zr40  1  0.49378179  0.89224277  0.49352362  1
  Zr  Zr41  1  0.29979765  0.29752026  0.09581029  1
  Zr  Zr42  1  0.91299166  0.49698794  0.50089068  1
  Zr  Zr43  1  0.50029107  0.50493824  0.08592499  1
  Zr  Zr44  1  0.10396904  0.10743482  0.30172238  1
  Zr  Zr45  1  0.49550986  0.30333992  0.89679307  1
  Zr  Zr46  1  0.89744339  0.90244670  0.70827610  1
  Zr  Zr47  1  0.69430208  0.49868773  0.89303629  1
  Zr  Zr48  1  0.70872718  0.29638170  0.49503937  1
  Zr  Zr49  1  0.90269337  0.89877559  0.29692296  1
  Sc  Sc50  1  0.30657732  0.89846756  0.09026869  1
  Sc  Sc51  1  0.89696973  0.30181199  0.88942041  1
  Sc  Sc52  1  0.70685841  0.69603059  0.89565532  1
  Sc  Sc53  1  0.70324528  0.70052773  0.09851663  1
  Sc  Sc54  1  0.09848126  0.29916674  0.69718766  1
  Sc  Sc55  1  0.49826282  0.09329887  0.70364032  1
  Sc  Sc56  1  0.50228028  0.90212449  0.10569270  1
  Sc  Sc57  1  0.10160899  0.69749760  0.70927625  1
  Sc  Sc58  1  0.49024011  0.90456009  0.89408009  1
  Sc  Sc59  1  0.10243791  0.10300442  0.49875804  1
  Sc  Sc60  1  0.50146874  0.09706646  0.09080486  1
  Sc  Sc61  1  0.90154953  0.49638557  0.70228178  1
  Sc  Sc62  1  0.49854520  0.10436284  0.50718078  1
  Sc  Sc63  1  0.90326278  0.69602007  0.50078626  1
  Sc  Sc64  1  0.90463903  0.70080939  0.10195227  1
  Sc  Sc65  1  0.50029153  0.29311510  0.09004588  1
  Sc  Sc66  1  0.49834780  0.30132399  0.69675781  1
  Sc  Sc67  1  0.30050849  0.89790471  0.89743918  1
  Sc  Sc68  1  0.49308874  0.29943680  0.50366299  1
  Sc  Sc69  1  0.90639647  0.50462352  0.10589963  1
  Sc  Sc70  1  0.70172265  0.30751335  0.70279568  1
  Sc  Sc71  1  0.70535123  0.49527457  0.10328321  1
  Sc  Sc72  1  0.70544409  0.31161341  0.30040049  1
  Sc  Sc73  1  0.09969169  0.51783089  0.89803578  1
  Sc  Sc74  1  0.29625679  0.29523238  0.69674916  1
  Sc  Sc75  1  0.89819676  0.89611568  0.90340781  1
  Sc  Sc76  1  0.30057284  0.70068138  0.29226316  1
  Sc  Sc77  1  0.09543552  0.10727462  0.09204312  1
  Sc  Sc78  1  0.69954868  0.10133266  0.51234970  1
  Sc  Sc79  1  0.90045172  0.29602380  0.30315202  1
  Sc  Sc80  1  0.09908980  0.69298127  0.09459415  1
  Sc  Sc81  1  0.70007147  0.30222985  0.10082343  1
  Sc  Sc82  1  0.09973780  0.09424690  0.90510482  1
  Sc  Sc83  1  0.09235809  0.90043997  0.89874593  1
  Sc  Sc84  1  0.90898261  0.70631431  0.90180953  1
  Sc  Sc85  1  0.29533664  0.69859054  0.09215527  1
  Sc  Sc86  1  0.30042772  0.70891448  0.70258947  1
  Sc  Sc87  1  0.89363499  0.90021357  0.09594847  1
  Sc  Sc88  1  0.90179746  0.09837797  0.10112667  1
  Sc  Sc89  1  0.49558659  0.49568696  0.50524147  1
  Sc  Sc90  1  0.08801284  0.90404205  0.30541211  1
  Sc  Sc91  1  0.48979052  0.90197755  0.70217750  1
  Sc  Sc92  1  0.69651890  0.08952071  0.90389642  1
  Sc  Sc93  1  0.29558096  0.49484400  0.50760418  1
  Sc  Sc94  1  0.69793734  0.08776759  0.09672587  1
  Sc  Sc95  1  0.70881376  0.49846812  0.49511708  1
  Sc  Sc96  1  0.09084377  0.69890756  0.50947955  1
  Sc  Sc97  1  0.89502165  0.10565916  0.70707844  1
  Sc  Sc98  1  0.29937566  0.51329093  0.69755979  1
  Sc  Sc99  1  0.10161524  0.28740627  0.90209209  1
  Nb  Nb100  1  0.70055890  0.29786232  0.90096145  1
  Nb  Nb101  1  0.90001835  0.30146928  0.70340439  1
  Nb  Nb102  1  0.50380315  0.69896450  0.29898196  1
  Nb  Nb103  1  0.29753206  0.09966568  0.30191350  1
  Nb  Nb104  1  0.09964589  0.70105617  0.29547384  1
  Nb  Nb105  1  0.49984274  0.69861991  0.69876782  1
  Nb  Nb106  1  0.29995086  0.90736099  0.70068092  1
  Nb  Nb107  1  0.90397262  0.70497681  0.29907381  1
  Nb  Nb108  1  0.50346761  0.10768244  0.89813174  1
  Nb  Nb109  1  0.69723069  0.70150031  0.69919450  1
  Nb  Nb110  1  0.10459002  0.69879358  0.90189274  1
  Nb  Nb111  1  0.70032080  0.90014357  0.70991767  1
  Nb  Nb112  1  0.50040464  0.50414793  0.89959343  1
  Nb  Nb113  1  0.30143895  0.50333056  0.09619856  1
  Nb  Nb114  1  0.89875965  0.89968020  0.50004851  1
  Nb  Nb115  1  0.70336468  0.89477391  0.90072478  1
  Nb  Nb116  1  0.69517150  0.50001325  0.30045073  1
  Nb  Nb117  1  0.50176477  0.49586865  0.29823295  1
  Nb  Nb118  1  0.09998201  0.50009704  0.30435551  1
  Nb  Nb119  1  0.70169627  0.89859439  0.08962967  1
  Nb  Nb120  1  0.29351248  0.08307300  0.69495339  1
  Nb  Nb121  1  0.09977339  0.49615763  0.49588135  1
  Nb  Nb122  1  0.30999458  0.50011675  0.90615974  1
  Nb  Nb123  1  0.10314717  0.30905956  0.29998011  1
  Nb  Nb124  1  0.50618878  0.69560595  0.90159748  1
  Nb  Nb125  1  0.19595111  0.80781259  0.20356909  1
  Nb  Nb126  1  0.79537829  0.80316274  0.60366653  1
  Nb  Nb127  1  0.40498680  0.59440551  0.20106856  1
  Nb  Nb128  1  0.60027846  0.19592866  0.39361163  1
  Nb  Nb129  1  0.59878898  0.19844506  0.20523856  1
  Nb  Nb130  1  0.40820491  0.60170011  0.80563914  1
  Nb  Nb131  1  0.79792377  -0.00521316  0.40125460  1
  Nb  Nb132  1  0.59721989  0.59524966  0.20694474  1
  Nb  Nb133  1  0.80351201  0.59583771  -0.00244932  1
  Nb  Nb134  1  0.19683533  0.79375615  0.39687582  1
  Nb  Nb135  1  0.20265224  0.00035531  0.20304487  1
  Nb  Nb136  1  0.20395802  0.40620950  0.80843774  1
  Nb  Nb137  1  0.80210607  0.80365985  0.40227415  1
  Nb  Nb138  1  -0.00523651  -0.00066325  0.60060974  1
  Nb  Nb139  1  0.60050996  0.19865799  0.80625488  1
  Nb  Nb140  1  0.79688580  0.20116051  -0.00482339  1
  Nb  Nb141  1  0.00930661  0.40227357  0.00097757  1
  Nb  Nb142  1  0.39975913  0.40444399  0.19598787  1
  Nb  Nb143  1  0.19611949  0.60084981  0.39860119  1
  Nb  Nb144  1  0.20111009  0.40700090  -0.00275683  1
  Nb  Nb145  1  0.40149159  0.59749823  0.39089676  1
  Nb  Nb146  1  0.60335388  0.80263876  -0.00768124  1
  Nb  Nb147  1  0.60170262  0.00092155  0.39780566  1
  Nb  Nb148  1  0.59937987  0.40115196  -0.00916132  1
  Nb  Nb149  1  0.60186096  0.79854138  0.79940081  1
  Pd  Pd150  1  0.59732939  0.80905479  0.61168818  1
  Pd  Pd151  1  0.19402582  0.60421135  0.59496303  1
  Pd  Pd152  1  0.59344537  -0.01058790  -0.00694096  1
  Pd  Pd153  1  0.80787533  0.40159819  0.20549187  1
  Pd  Pd154  1  0.79355020  0.19987300  0.19041428  1
  Pd  Pd155  1  0.60079002  0.39549158  0.40927602  1
  Pd  Pd156  1  0.00352232  0.20625282  0.40059312  1
  Pd  Pd157  1  0.20353852  0.39499066  0.19349759  1
  Pd  Pd158  1  0.40235101  0.00098437  -0.00173134  1
  Pd  Pd159  1  0.60544163  0.39874749  0.59293964  1
  Pd  Pd160  1  0.80310154  0.00133800  0.81118158  1
  Pd  Pd161  1  0.80022518  0.79567065  0.19856845  1
  Pd  Pd162  1  0.40262760  0.00218369  0.59513427  1
  Pd  Pd163  1  0.79569411  0.20406643  0.61463511  1
  Pd  Pd164  1  0.59348194  0.39819455  0.18889869  1
  Pd  Pd165  1  0.59859543  0.59259630  0.59420857  1
  Pd  Pd166  1  -0.00235689  0.60241138  0.79811672  1
  Pd  Pd167  1  0.00703755  0.60652698  0.39749357  1
  Pd  Pd168  1  0.00466337  0.00577994  0.19459633  1
  Pd  Pd169  1  0.19909176  0.19675942  0.59850773  1
  Pd  Pd170  1  -0.00744248  0.80410562  0.60636320  1
  Pd  Pd171  1  0.00285177  0.20167977  0.79958187  1
  Pd  Pd172  1  0.80717594  0.60266512  0.80546295  1
  Pd  Pd173  1  0.39230200  0.19178019  0.60636894  1
  Pd  Pd174  1  0.19984116  0.79488883  0.59782028  1
  Pd  Pd175  1  0.39216971  0.40874396  0.78923437  1
  Pd  Pd176  1  0.39167616  0.40494986  0.39746757  1
  Pd  Pd177  1  0.40688356  0.20286055  0.19456118  1
  Pd  Pd178  1  0.00807045  0.79930948  0.19014649  1
  Pd  Pd179  1  0.60350956  0.20467227  0.60670383  1
  Pd  Pd180  1  0.80436381  0.60390014  0.59636833  1
  Pd  Pd181  1  0.80229432  0.60497093  0.40380375  1
  Pd  Pd182  1  0.19907386  -0.00632881  0.81022969  1
  Pd  Pd183  1  -0.00333172  0.40047799  0.20139870  1
  Pd  Pd184  1  0.80160012  0.39937283  0.00045158  1
  Pd  Pd185  1  0.19547998  0.80206395  0.00292691  1
  Pd  Pd186  1  -0.00680297  0.00930082  0.40786141  1
  Pd  Pd187  1  0.01330815  0.39737576  0.80672488  1
  Pd  Pd188  1  0.39168396  0.79668928  0.19496279  1
  Pd  Pd189  1  0.80143308  0.40263233  0.60397822  1
  Pd  Pd190  1  0.40186475  0.19335472  0.78788922  1
  Pd  Pd191  1  0.58906109  -0.00663900  0.60033048  1
  Pd  Pd192  1  0.59356234  0.59124325  0.40294153  1
  Pd  Pd193  1  0.20130238  0.20110992  0.79863492  1
  Pd  Pd194  1  0.19697099  0.80552292  0.80270357  1
  Pd  Pd195  1  0.00104831  0.19502433  0.60459987  1
  Pd  Pd196  1  0.79645777  0.60236912  0.19651900  1
  Pd  Pd197  1  0.39024755  0.79005255  0.39626395  1
  Pd  Pd198  1  0.39309612  0.40318382  0.60951740  1
  Pd  Pd199  1  0.00308381  0.80027754  0.00354282  1
  Rh  Rh200  1  0.78983455  0.20007182  0.80234312  1
  Rh  Rh201  1  0.79574508  0.79142524  -0.00134451  1
  Rh  Rh202  1  0.59577864  0.60953942  0.79579099  1
  Rh  Rh203  1  0.39217481  -0.00162228  0.19068601  1
  Rh  Rh204  1  0.00653544  0.79743533  0.80338340  1
  Rh  Rh205  1  0.19122234  0.00098438  0.59596400  1
  Rh  Rh206  1  0.39521646  0.60912497  -0.00315110  1
  Rh  Rh207  1  0.20325938  0.60941188  0.20403301  1
  Rh  Rh208  1  0.79430501  0.19524041  0.39868069  1
  Rh  Rh209  1  0.20398592  0.59729766  -0.00530036  1
  Rh  Rh210  1  0.60079304  0.39058547  0.80402302  1
  Rh  Rh211  1  0.80646952  0.40478162  0.39631466  1
  Rh  Rh212  1  0.80874813  -0.00541794  0.60023589  1
  Rh  Rh213  1  0.21206367  0.59771841  0.80712510  1
  Rh  Rh214  1  0.00185794  0.59509347  0.60532393  1
  Rh  Rh215  1  -0.00692022  -0.00114918  -0.00054217  1
  Rh  Rh216  1  0.19578014  0.19510830  0.20026676  1
  Rh  Rh217  1  0.59605198  -0.00322822  0.80512019  1
  Rh  Rh218  1  0.79912299  0.39831609  0.79424223  1
  Rh  Rh219  1  0.40518696  0.19600731  0.40377517  1
  Rh  Rh220  1  0.40198818  0.39761558  0.00523018  1
  Rh  Rh221  1  0.61582790  0.59797013  0.00516522  1
  Rh  Rh222  1  0.60791196  0.80870676  0.39520464  1
  Rh  Rh223  1  0.60389728  0.79191516  0.18890865  1
  Rh  Rh224  1  0.39817564  0.80400799  0.60738261  1
  Rh  Rh225  1  0.79618725  0.79639628  0.79680414  1
  Rh  Rh226  1  -0.01022824  0.20672888  -0.00594007  1
  Rh  Rh227  1  0.00370922  0.20120810  0.20653694  1
  Rh  Rh228  1  0.20366862  0.20164797  -0.00375612  1
  Rh  Rh229  1  0.40789575  0.00507008  0.40988546  1
  Rh  Rh230  1  0.20203059  0.40069565  0.60808238  1
  Rh  Rh231  1  0.59612007  0.00439344  0.19884592  1
  Rh  Rh232  1  0.20216500  0.40134391  0.40252861  1
  Rh  Rh233  1  0.80297877  0.00456072  -0.00194058  1
  Rh  Rh234  1  -0.00230724  0.39950147  0.60742181  1
  Rh  Rh235  1  0.40926913  0.80044887  -0.00353519  1
  Rh  Rh236  1  0.60843595  0.20594816  -0.00027655  1
  Rh  Rh237  1  0.19204648  0.20881065  0.40224447  1
  Rh  Rh238  1  0.80423272  -0.00380731  0.19603900  1
  Rh  Rh239  1  -0.00621779  0.59619956  -0.00074685  1
  Rh  Rh240  1  0.20228364  0.00299003  0.00112153  1
  Rh  Rh241  1  0.39884298  0.19170316  -0.00016920  1
  Rh  Rh242  1  0.40862780  0.59819418  0.60447505  1
  Rh  Rh243  1  -0.00299716  0.39734372  0.39188872  1
  Rh  Rh244  1  0.40629883  0.79275830  0.79736770  1
  Rh  Rh245  1  -0.00044046  0.60393698  0.20719076  1
  Rh  Rh246  1  0.39548830  0.00606472  0.80113967  1
  Rh  Rh247  1  0.19354415  -0.00769929  0.39475943  1
  Rh  Rh248  1  -0.00342081  0.79100651  0.40110551  1
  Rh  Rh249  1  -0.00140292  0.00006927  0.79658464  1
