# generated using pymatgen
data_ZrScNbPdRh
_symmetry_space_group_name_H-M   'P 1'
_cell_length_a   16.55744948
_cell_length_b   16.55529017
_cell_length_c   16.55198097
_cell_angle_alpha   90.00339570
_cell_angle_beta   90.02680156
_cell_angle_gamma   89.98503814
_symmetry_Int_Tables_number   1
_chemical_formula_structural   ZrScNbPdRh
_chemical_formula_sum   'Zr50 Sc50 Nb50 Pd50 Rh50'
_cell_volume   4537.11880155
_cell_formula_units_Z   50
loop_
 _symmetry_equiv_pos_site_id
 _symmetry_equiv_pos_as_xyz
  1  'x, y, z'
loop_
 _atom_site_type_symbol
 _atom_site_label
 _atom_site_symmetry_multiplicity
 _atom_site_fract_x
 _atom_site_fract_y
 _atom_site_fract_z
 _atom_site_occupancy
  Zr  Zr0  1  0.10369852  0.89342001  0.89933834  1
  Zr  Zr1  1  0.89208941  0.09510571  0.90812592  1
  Zr  Zr2  1  0.69960518  0.10021865  0.70634583  1
  Zr  Zr3  1  0.90290471  0.30074178  0.49742782  1
  Zr  Zr4  1  0.31138683  0.70286570  0.10074730  1
  Zr  Zr5  1  0.10492383  0.09925797  0.10234582  1
  Zr  Zr6  1  0.89599968  0.30317001  0.10393999  1
  Zr  Zr7  1  0.70481003  0.90227704  0.90449030  1
  Zr  Zr8  1  0.90342239  0.08976673  0.70629804  1
  Zr  Zr9  1  0.09598871  0.50091100  0.89910174  1
  Zr  Zr10  1  0.09376701  0.30188044  0.71048299  1
  Zr  Zr11  1  0.90442695  0.09364856  0.10223825  1
  Zr  Zr12  1  0.70933889  0.49857108  0.09865408  1
  Zr  Zr13  1  0.90118788  0.70519848  0.29387061  1
  Zr  Zr14  1  0.30524350  0.09945293  0.70079577  1
  Zr  Zr15  1  0.89895307  0.49827767  0.70466214  1
  Zr  Zr16  1  0.70158699  0.50047668  0.69670380  1
  Zr  Zr17  1  0.29666668  0.70160414  0.30391291  1
  Zr  Zr18  1  0.69322961  0.09328540  0.50847034  1
  Zr  Zr19  1  0.90366248  0.70195811  0.49804696  1
  Zr  Zr20  1  0.70138215  0.90949088  0.69630518  1
  Zr  Zr21  1  0.28884329  0.51188757  0.69078991  1
  Zr  Zr22  1  0.70090497  0.10302589  0.08899725  1
  Zr  Zr23  1  0.49875244  0.49338109  0.89542766  1
  Zr  Zr24  1  0.10426015  0.09988268  0.70450598  1
  Zr  Zr25  1  0.29905280  0.90052702  0.09731629  1
  Zr  Zr26  1  0.10267557  0.09950641  0.49795205  1
  Zr  Zr27  1  0.69117166  0.29928747  0.29704640  1
  Zr  Zr28  1  0.30210652  0.10351711  0.10834382  1
  Zr  Zr29  1  0.49863295  0.90078627  0.90504133  1
  Zr  Zr30  1  0.09763303  0.69618472  0.29964249  1
  Zr  Zr31  1  0.49569859  0.89930194  0.10245560  1
  Zr  Zr32  1  0.30821637  0.29225074  0.49124654  1
  Zr  Zr33  1  0.69603027  0.29728448  0.09960072  1
  Zr  Zr34  1  0.69222394  0.50133755  0.30205522  1
  Zr  Zr35  1  0.09682047  0.10024532  0.89940881  1
  Zr  Zr36  1  0.89788346  0.90166398  0.49951595  1
  Zr  Zr37  1  0.49047329  0.69817322  0.90213331  1
  Zr  Zr38  1  0.29233457  0.70501846  0.89718901  1
  Zr  Zr39  1  0.30383151  0.69344261  0.50156186  1
  Zr  Zr40  1  0.49458827  0.29369373  0.10308738  1
  Zr  Zr41  1  0.91004477  0.49680846  0.28764049  1
  Zr  Zr42  1  0.50243936  0.70461718  0.09932134  1
  Zr  Zr43  1  0.30218700  0.30442763  0.91521555  1
  Zr  Zr44  1  0.49962454  0.69722880  0.29750430  1
  Zr  Zr45  1  0.11431240  0.49993183  0.50189024  1
  Zr  Zr46  1  0.49567301  0.09635095  0.89995738  1
  Zr  Zr47  1  0.70412332  0.09202696  0.30214830  1
  Zr  Zr48  1  0.30070026  0.10401594  0.90096373  1
  Zr  Zr49  1  0.50120981  0.30053598  0.70299483  1
  Sc  Sc50  1  0.10305847  0.90562285  0.10136066  1
  Sc  Sc51  1  0.49068886  0.50981891  0.10005306  1
  Sc  Sc52  1  0.10050754  0.29353864  0.90501124  1
  Sc  Sc53  1  0.10063328  0.10424963  0.29538138  1
  Sc  Sc54  1  0.69834056  0.29175770  0.89881006  1
  Sc  Sc55  1  0.49413007  0.30459451  0.29956733  1
  Sc  Sc56  1  0.11207327  0.30393453  0.49186237  1
  Sc  Sc57  1  0.30145549  0.30104560  0.69086780  1
  Sc  Sc58  1  0.90249976  0.09737606  0.48849358  1
  Sc  Sc59  1  0.11159138  0.29885566  0.10441379  1
  Sc  Sc60  1  0.30641268  0.50545494  0.90088626  1
  Sc  Sc61  1  0.89431570  0.50610498  0.90493826  1
  Sc  Sc62  1  0.89725433  0.69552619  0.10690616  1
  Sc  Sc63  1  0.30393985  0.90006998  0.89789134  1
  Sc  Sc64  1  0.69318528  0.68861187  0.49783400  1
  Sc  Sc65  1  0.09581454  0.49789472  0.11078242  1
  Sc  Sc66  1  0.49883145  0.49838066  0.29896212  1
  Sc  Sc67  1  0.89908607  0.49649479  0.50204369  1
  Sc  Sc68  1  0.69688601  0.70478361  0.29153564  1
  Sc  Sc69  1  0.69825066  0.29364642  0.70081969  1
  Sc  Sc70  1  0.88809947  0.70192626  0.89608021  1
  Sc  Sc71  1  0.30397497  0.49045204  0.09876611  1
  Sc  Sc72  1  0.29971943  0.29815092  0.29708598  1
  Sc  Sc73  1  0.31701959  0.89132458  0.49853372  1
  Sc  Sc74  1  0.70253572  0.50643417  0.90082181  1
  Sc  Sc75  1  0.09011684  0.70773418  0.10458324  1
  Sc  Sc76  1  0.30608730  0.49096276  0.29845960  1
  Sc  Sc77  1  0.10708358  0.69830657  0.49062090  1
  Sc  Sc78  1  0.31131838  0.70034846  0.70283445  1
  Sc  Sc79  1  0.70585993  0.29533616  0.51000368  1
  Sc  Sc80  1  0.08523163  0.90322678  0.70449158  1
  Sc  Sc81  1  0.69752584  0.89876866  0.09874048  1
  Sc  Sc82  1  0.10161627  0.30577445  0.29944658  1
  Sc  Sc83  1  0.49919776  0.50525218  0.49131000  1
  Sc  Sc84  1  0.10365265  0.49404001  0.30504316  1
  Sc  Sc85  1  0.48973121  0.50131973  0.70264669  1
  Sc  Sc86  1  0.89515826  0.29673167  0.70061833  1
  Sc  Sc87  1  0.08887430  0.90342471  0.50271612  1
  Sc  Sc88  1  0.89618989  0.70550408  0.70294407  1
  Sc  Sc89  1  0.90666197  0.29400007  0.89566584  1
  Sc  Sc90  1  0.30334547  0.89690933  0.29184974  1
  Sc  Sc91  1  0.10565494  0.89890963  0.29254589  1
  Sc  Sc92  1  0.48634926  0.90236351  0.70069834  1
  Sc  Sc93  1  0.49275314  0.29919902  0.89499851  1
  Sc  Sc94  1  0.11101789  0.70371788  0.70697637  1
  Sc  Sc95  1  0.50113801  0.10421087  0.28763317  1
  Sc  Sc96  1  0.69891182  0.49836694  0.50167004  1
  Sc  Sc97  1  0.49853439  0.10406454  0.70090637  1
  Sc  Sc98  1  0.50059533  0.09785520  0.09746417  1
  Sc  Sc99  1  0.30045895  0.49562731  0.49923781  1
  Nb  Nb100  1  0.10172621  0.50083119  0.70103533  1
  Nb  Nb101  1  0.69062052  0.69988389  0.08586444  1
  Nb  Nb102  1  0.90168884  0.89871106  0.70148432  1
  Nb  Nb103  1  0.49378234  0.10799880  0.50095330  1
  Nb  Nb104  1  0.90203255  0.89763712  0.89336577  1
  Nb  Nb105  1  0.50735337  0.89860959  0.49478802  1
  Nb  Nb106  1  0.69401063  0.70407285  0.89842862  1
  Nb  Nb107  1  0.70033369  0.09112491  0.90429436  1
  Nb  Nb108  1  0.30185301  0.90062928  0.69443365  1
  Nb  Nb109  1  0.70294630  0.90219733  0.31356415  1
  Nb  Nb110  1  0.90114833  0.49673814  0.10023580  1
  Nb  Nb111  1  0.89814705  0.10111803  0.29823354  1
  Nb  Nb112  1  0.09817928  0.70192873  0.90195047  1
  Nb  Nb113  1  0.69463180  0.90175202  0.49441948  1
  Nb  Nb114  1  0.90242651  0.29758166  0.30431281  1
  Nb  Nb115  1  0.51298740  0.90000315  0.30428579  1
  Nb  Nb116  1  0.30105837  0.29905077  0.10270024  1
  Nb  Nb117  1  0.88412995  0.90435039  0.29717973  1
  Nb  Nb118  1  0.49464109  0.70414089  0.50270824  1
  Nb  Nb119  1  0.30101065  0.10254017  0.30688057  1
  Nb  Nb120  1  0.30414601  0.10473075  0.49575094  1
  Nb  Nb121  1  0.49848469  0.29429585  0.50305888  1
  Nb  Nb122  1  0.90216734  0.89695979  0.10191425  1
  Nb  Nb123  1  0.69745823  0.69942743  0.69809543  1
  Nb  Nb124  1  0.50060934  0.70235713  0.69741862  1
  Nb  Nb125  1  -0.00715456  0.80489095  0.39090263  1
  Nb  Nb126  1  0.20533604  0.80870396  0.60050327  1
  Nb  Nb127  1  0.00610350  0.59681813  0.60599103  1
  Nb  Nb128  1  0.00358605  0.20121174  0.59973009  1
  Nb  Nb129  1  0.00603294  0.40055418  0.60275901  1
  Nb  Nb130  1  0.20852479  -0.00274563  0.59624150  1
  Nb  Nb131  1  0.60089655  0.60910798  0.79720132  1
  Nb  Nb132  1  0.80252416  0.59497166  0.39214721  1
  Nb  Nb133  1  0.79806156  0.40110345  0.79951653  1
  Nb  Nb134  1  0.19563505  0.60531229  0.00447341  1
  Nb  Nb135  1  0.79015958  0.80497783  0.59788168  1
  Nb  Nb136  1  0.21157883  0.00303458  0.40514999  1
  Nb  Nb137  1  0.00318646  0.60210954  0.79928875  1
  Nb  Nb138  1  0.20360358  0.60159215  0.19731760  1
  Nb  Nb139  1  -0.00489108  0.40371997  0.00524741  1
  Nb  Nb140  1  0.40720749  0.00289567  0.40012848  1
  Nb  Nb141  1  0.59783766  0.80095144  0.59778276  1
  Nb  Nb142  1  0.80232040  0.39871342  0.39253377  1
  Nb  Nb143  1  0.19774959  0.40435649  0.79963751  1
  Nb  Nb144  1  -0.00613763  0.80382763  -0.00384985  1
  Nb  Nb145  1  0.80566138  0.19706745  0.20636286  1
  Nb  Nb146  1  0.59916221  0.40047531  0.00120987  1
  Nb  Nb147  1  0.59568376  0.19801841  0.40658076  1
  Nb  Nb148  1  0.60121216  0.79609578  0.79530660  1
  Nb  Nb149  1  0.59453799  0.39715721  0.60179144  1
  Pd  Pd150  1  0.78985838  0.80085321  0.19256218  1
  Pd  Pd151  1  0.20919392  0.21279522  0.80352339  1
  Pd  Pd152  1  0.60344781  0.39140945  0.41239991  1
  Pd  Pd153  1  0.40512427  0.40483914  0.59456691  1
  Pd  Pd154  1  0.80552642  0.00107549  0.59524277  1
  Pd  Pd155  1  0.80133561  0.60901484  0.00272208  1
  Pd  Pd156  1  0.59414905  -0.00515521  0.79921881  1
  Pd  Pd157  1  0.19203118  0.40883372  0.00013289  1
  Pd  Pd158  1  0.39838915  0.59506990  0.39565973  1
  Pd  Pd159  1  0.00034172  -0.00613327  0.20863160  1
  Pd  Pd160  1  0.00858136  0.20204584  0.40072041  1
  Pd  Pd161  1  0.58561076  -0.00304570  0.60440813  1
  Pd  Pd162  1  0.00129452  0.20705832  0.00783093  1
  Pd  Pd163  1  0.19440549  0.81520540  0.40933391  1
  Pd  Pd164  1  0.80116800  0.20066651  0.80394156  1
  Pd  Pd165  1  0.81102396  0.18935731  0.60068462  1
  Pd  Pd166  1  0.20365194  0.80811996  0.79063781  1
  Pd  Pd167  1  0.00026427  0.60301767  0.00093866  1
  Pd  Pd168  1  -0.00305348  0.59579906  0.40493900  1
  Pd  Pd169  1  0.20505742  0.00281593  -0.00209734  1
  Pd  Pd170  1  0.80703494  0.60675333  0.59445865  1
  Pd  Pd171  1  0.80564121  0.79791862  0.00651142  1
  Pd  Pd172  1  0.59936817  0.19512668  0.80763713  1
  Pd  Pd173  1  0.20206967  -0.00850032  0.79492319  1
  Pd  Pd174  1  0.58904602  0.40884411  0.18852372  1
  Pd  Pd175  1  0.79403427  0.00049583  0.19263275  1
  Pd  Pd176  1  0.38395477  0.39975996  0.79480250  1
  Pd  Pd177  1  0.79988965  0.39294234  -0.01229247  1
  Pd  Pd178  1  0.59661216  0.59259228  -0.00459528  1
  Pd  Pd179  1  0.79151369  0.20267753  0.39813257  1
  Pd  Pd180  1  0.40169796  -0.00287993  0.20713911  1
  Pd  Pd181  1  0.59139369  0.01173204  0.39843701  1
  Pd  Pd182  1  0.60123987  0.59728269  0.19375380  1
  Pd  Pd183  1  0.79374100  0.60331740  0.20033909  1
  Pd  Pd184  1  0.00572254  0.79155894  0.59933806  1
  Pd  Pd185  1  0.79639197  0.79219467  0.40559689  1
  Pd  Pd186  1  0.00013141  -0.00952512  -0.00311063  1
  Pd  Pd187  1  0.59165329  0.20412877  -0.00968967  1
  Pd  Pd188  1  -0.00022078  0.20584465  0.19900669  1
  Pd  Pd189  1  0.19937992  0.79447065  0.19298721  1
  Pd  Pd190  1  0.40548100  0.80508601  0.39069535  1
  Pd  Pd191  1  0.58939520  0.59495264  0.60237227  1
  Pd  Pd192  1  0.00433791  -0.00689703  0.38583464  1
  Pd  Pd193  1  0.19720860  0.20060426  0.59923077  1
  Pd  Pd194  1  0.60567516  0.80610052  0.20026550  1
  Pd  Pd195  1  0.40224898  0.00240506  0.59219921  1
  Pd  Pd196  1  0.79875872  0.39523599  0.20783208  1
  Pd  Pd197  1  0.60636136  -0.00189571  0.19540941  1
  Pd  Pd198  1  0.79380133  0.80456479  0.79227944  1
  Pd  Pd199  1  0.60380391  0.78990355  0.40337086  1
  Rh  Rh200  1  0.80117965  0.00104640  0.40510333  1
  Rh  Rh201  1  0.20393935  0.40362292  0.20036255  1
  Rh  Rh202  1  0.00730883  0.59752700  0.19829766  1
  Rh  Rh203  1  0.40164426  0.39661597  0.40256320  1
  Rh  Rh204  1  0.80501161  -0.00867743  0.00411654  1
  Rh  Rh205  1  0.80159737  -0.00247639  0.80345639  1
  Rh  Rh206  1  0.19714427  0.59559533  0.80997548  1
  Rh  Rh207  1  -0.00126400  -0.00015456  0.80852276  1
  Rh  Rh208  1  0.19477326  0.61691345  0.59945100  1
  Rh  Rh209  1  0.79622114  0.59745674  0.80107102  1
  Rh  Rh210  1  0.39844411  0.80282306  -0.00224605  1
  Rh  Rh211  1  0.39780593  0.00012685  0.80217053  1
  Rh  Rh212  1  0.79700633  0.39685654  0.60249773  1
  Rh  Rh213  1  0.40384986  0.59905617  0.59728509  1
  Rh  Rh214  1  0.60017181  0.60500571  0.39749435  1
  Rh  Rh215  1  0.39501095  0.00193424  0.00211400  1
  Rh  Rh216  1  -0.00390046  0.40206586  0.40587886  1
  Rh  Rh217  1  0.39279733  0.60080696  0.20555781  1
  Rh  Rh218  1  0.00360791  0.00845995  0.60330229  1
  Rh  Rh219  1  0.59661490  0.20403323  0.59877189  1
  Rh  Rh220  1  0.00481916  0.39277635  0.19529949  1
  Rh  Rh221  1  0.59794952  0.80310600  -0.00397743  1
  Rh  Rh222  1  0.39635813  0.20128696  0.20175377  1
  Rh  Rh223  1  0.19153042  0.79463200  0.00663535  1
  Rh  Rh224  1  -0.00481767  0.81007802  0.20133580  1
  Rh  Rh225  1  0.19772501  0.19733120  0.39298330  1
  Rh  Rh226  1  0.59803036  -0.00133161  0.00215630  1
  Rh  Rh227  1  0.60852361  0.19102846  0.20507428  1
  Rh  Rh228  1  0.40231789  0.60216968  0.79866641  1
  Rh  Rh229  1  0.19548864  0.39128227  0.60524957  1
  Rh  Rh230  1  0.39501936  0.20452006  0.79921006  1
  Rh  Rh231  1  -0.00494297  0.79195437  0.80556757  1
  Rh  Rh232  1  0.40178427  0.80213801  0.79977094  1
  Rh  Rh233  1  0.40971093  0.39828967  0.00591340  1
  Rh  Rh234  1  0.20339378  0.20086790  0.20381034  1
  Rh  Rh235  1  0.20363106  0.00500216  0.20730343  1
  Rh  Rh236  1  0.40114965  0.19969316  0.60661203  1
  Rh  Rh237  1  0.20251574  0.19500717  0.00411764  1
  Rh  Rh238  1  0.20900707  0.59133630  0.38936871  1
  Rh  Rh239  1  0.40087021  0.39647899  0.19678543  1
  Rh  Rh240  1  0.21019347  0.39802965  0.39762621  1
  Rh  Rh241  1  0.40025328  0.19698032  0.00313917  1
  Rh  Rh242  1  0.80347883  0.20068110  0.00251640  1
  Rh  Rh243  1  0.40953886  0.19780254  0.39050744  1
  Rh  Rh244  1  0.39230540  0.60162798  -0.00137257  1
  Rh  Rh245  1  0.40316734  0.79756127  0.59995440  1
  Rh  Rh246  1  -0.00313785  0.40690948  0.80589523  1
  Rh  Rh247  1  0.61157864  0.41052822  0.80032718  1
  Rh  Rh248  1  -0.00441943  0.19036022  0.79908755  1
  Rh  Rh249  1  0.40715913  0.80327770  0.20665281  1
