# generated using pymatgen
data_ZrScNbPdRh
_symmetry_space_group_name_H-M   'P 1'
_cell_length_a   16.55765899
_cell_length_b   16.56036614
_cell_length_c   16.56080528
_cell_angle_alpha   90.00896360
_cell_angle_beta   89.98623880
_cell_angle_gamma   90.02530368
_symmetry_Int_Tables_number   1
_chemical_formula_structural   ZrScNbPdRh
_chemical_formula_sum   'Zr50 Sc50 Nb50 Pd50 Rh50'
_cell_volume   4540.98700462
_cell_formula_units_Z   50
loop_
 _symmetry_equiv_pos_site_id
 _symmetry_equiv_pos_as_xyz
  1  'x, y, z'
loop_
 _atom_site_type_symbol
 _atom_site_label
 _atom_site_symmetry_multiplicity
 _atom_site_fract_x
 _atom_site_fract_y
 _atom_site_fract_z
 _atom_site_occupancy
  Zr  Zr0  1  0.49971164  0.09216929  0.50805144  1
  Zr  Zr1  1  0.90514134  0.90366389  0.10779605  1
  Zr  Zr2  1  0.50216752  0.50202177  0.68595603  1
  Zr  Zr3  1  0.10666416  0.09927318  0.90480284  1
  Zr  Zr4  1  0.09468777  0.49341734  0.30648739  1
  Zr  Zr5  1  0.70816936  0.70410137  0.30116658  1
  Zr  Zr6  1  0.30364939  0.70427666  0.90075074  1
  Zr  Zr7  1  0.29965878  0.90670281  0.49972601  1
  Zr  Zr8  1  0.49809340  0.68864046  0.49736157  1
  Zr  Zr9  1  0.70469752  0.28414391  0.30694928  1
  Zr  Zr10  1  0.70380622  0.49878520  0.69961111  1
  Zr  Zr11  1  0.09299180  0.09016120  0.10220091  1
  Zr  Zr12  1  0.10891380  0.49970763  0.08425658  1
  Zr  Zr13  1  0.29050907  0.50290684  0.91127351  1
  Zr  Zr14  1  0.69938938  0.69473465  0.69207770  1
  Zr  Zr15  1  0.50235783  0.10382140  0.10970132  1
  Zr  Zr16  1  0.50629098  0.69572637  0.30108736  1
  Zr  Zr17  1  0.30529277  0.69579969  0.29804147  1
  Zr  Zr18  1  0.09406527  0.49414381  0.50310519  1
  Zr  Zr19  1  0.29598129  0.70979584  0.70428147  1
  Zr  Zr20  1  0.09870463  0.29807672  0.30820499  1
  Zr  Zr21  1  0.28769648  0.89168762  0.29831144  1
  Zr  Zr22  1  0.89675295  0.89979969  0.69464919  1
  Zr  Zr23  1  0.29747655  0.70343625  0.49421587  1
  Zr  Zr24  1  0.89490524  0.28720871  0.09887367  1
  Zr  Zr25  1  0.89729572  0.70557757  0.10483552  1
  Zr  Zr26  1  0.50382992  0.70200655  0.70618634  1
  Zr  Zr27  1  0.09373220  0.70751414  0.50185956  1
  Zr  Zr28  1  0.70195199  0.09523583  0.89714775  1
  Zr  Zr29  1  0.30561843  0.90157136  0.90665605  1
  Zr  Zr30  1  0.30145489  0.69863543  0.09964409  1
  Zr  Zr31  1  0.89414459  0.70329559  0.49633967  1
  Zr  Zr32  1  0.31377161  0.49897146  0.50061553  1
  Zr  Zr33  1  0.90616836  0.69927980  0.69973247  1
  Zr  Zr34  1  0.50802343  0.29327159  0.90405636  1
  Zr  Zr35  1  0.50339815  0.89608072  0.89557477  1
  Zr  Zr36  1  0.69245495  0.90527097  0.90687463  1
  Zr  Zr37  1  0.90098604  0.29963555  0.30511809  1
  Zr  Zr38  1  0.70341221  0.29544904  0.69937314  1
  Zr  Zr39  1  0.50325091  0.10598175  0.69842437  1
  Zr  Zr40  1  0.09990577  0.49908955  0.89138663  1
  Zr  Zr41  1  0.29810243  0.09900885  0.89746568  1
  Zr  Zr42  1  0.89005213  0.90510464  0.89470039  1
  Zr  Zr43  1  0.89361119  0.30068049  0.70818207  1
  Zr  Zr44  1  0.09336130  0.31082124  0.69649318  1
  Zr  Zr45  1  0.10508871  0.71158304  0.29905520  1
  Zr  Zr46  1  0.49740944  0.29189549  0.70222593  1
  Zr  Zr47  1  0.50878632  0.90517027  0.09016764  1
  Zr  Zr48  1  0.09679424  0.10314032  0.30878142  1
  Zr  Zr49  1  0.50181979  0.90137171  0.30664990  1
  Sc  Sc50  1  0.70529080  0.68542142  0.10623627  1
  Sc  Sc51  1  0.50204225  0.91221515  0.69934152  1
  Sc  Sc52  1  0.69486625  0.70472448  0.89118950  1
  Sc  Sc53  1  0.49941830  0.29587243  0.50956596  1
  Sc  Sc54  1  0.89889039  0.10399364  0.90079472  1
  Sc  Sc55  1  0.69727203  0.30082325  0.09313626  1
  Sc  Sc56  1  0.50145289  0.68559065  0.09956003  1
  Sc  Sc57  1  0.90562517  0.10000358  0.49987551  1
  Sc  Sc58  1  0.29268732  0.09873802  0.50303878  1
  Sc  Sc59  1  0.89333447  0.50606295  0.89376596  1
  Sc  Sc60  1  0.29707042  0.09839857  0.30289372  1
  Sc  Sc61  1  0.88353776  0.51467569  0.08963080  1
  Sc  Sc62  1  0.09947061  0.29975405  0.89302032  1
  Sc  Sc63  1  0.31037533  0.30102999  0.30065966  1
  Sc  Sc64  1  0.30930046  0.49472057  0.30329742  1
  Sc  Sc65  1  0.90012312  0.11173641  0.29763226  1
  Sc  Sc66  1  0.10038958  0.69547755  0.89515332  1
  Sc  Sc67  1  0.70713578  0.29872007  0.89890711  1
  Sc  Sc68  1  0.30923990  0.50536145  0.09939947  1
  Sc  Sc69  1  0.89952145  0.50179428  0.69617703  1
  Sc  Sc70  1  0.70085669  0.90618096  0.70459900  1
  Sc  Sc71  1  0.10304989  0.90007399  0.90849982  1
  Sc  Sc72  1  0.10404895  0.10184931  0.69054914  1
  Sc  Sc73  1  0.70524713  0.29707407  0.50386922  1
  Sc  Sc74  1  0.89237734  0.10457843  0.70147351  1
  Sc  Sc75  1  0.30326674  0.29396523  0.69567670  1
  Sc  Sc76  1  0.29598943  0.90392940  0.70457728  1
  Sc  Sc77  1  0.30439404  0.09977190  0.69807025  1
  Sc  Sc78  1  0.70243951  0.69266300  0.49266518  1
  Sc  Sc79  1  0.10257470  0.29201671  0.08520186  1
  Sc  Sc80  1  0.70305315  0.90104590  0.50412073  1
  Sc  Sc81  1  0.70170958  0.50798596  0.29947398  1
  Sc  Sc82  1  0.50273367  0.09763827  0.89486472  1
  Sc  Sc83  1  0.89772637  0.50177005  0.49512676  1
  Sc  Sc84  1  0.30252116  0.30143374  0.49833627  1
  Sc  Sc85  1  0.70260053  0.49978185  0.91029798  1
  Sc  Sc86  1  0.70114567  0.10807484  0.50432599  1
  Sc  Sc87  1  0.28878399  0.29533601  0.89850177  1
  Sc  Sc88  1  0.89663386  0.70362698  0.30132660  1
  Sc  Sc89  1  0.09369934  0.90478748  0.30038388  1
  Sc  Sc90  1  0.90167074  0.70233561  0.90029784  1
  Sc  Sc91  1  0.29712397  0.49514442  0.69701753  1
  Sc  Sc92  1  0.29220247  0.09438082  0.09895760  1
  Sc  Sc93  1  0.50557027  0.30203032  0.11315313  1
  Sc  Sc94  1  0.89356917  0.29809630  0.50152046  1
  Sc  Sc95  1  0.49782105  0.49748506  0.29104985  1
  Sc  Sc96  1  0.70349953  0.50048257  0.50619448  1
  Sc  Sc97  1  0.10055161  0.29317261  0.49921821  1
  Sc  Sc98  1  0.09397593  0.71127525  0.09464113  1
  Sc  Sc99  1  0.50200626  0.70571748  0.90199969  1
  Nb  Nb100  1  0.69500372  0.10049475  0.70066342  1
  Nb  Nb101  1  0.50046948  0.90099631  0.50264652  1
  Nb  Nb102  1  0.90374335  0.49430893  0.29709071  1
  Nb  Nb103  1  0.49812847  0.49270793  0.49660955  1
  Nb  Nb104  1  0.69640710  0.09694811  0.30038163  1
  Nb  Nb105  1  0.70309049  0.90831040  0.10270461  1
  Nb  Nb106  1  0.70526921  0.08613324  0.10588321  1
  Nb  Nb107  1  0.09283263  0.91582353  0.50595014  1
  Nb  Nb108  1  0.50377656  0.28993508  0.30141973  1
  Nb  Nb109  1  0.30209227  0.29652314  0.10196252  1
  Nb  Nb110  1  0.89677061  0.30211057  0.89843354  1
  Nb  Nb111  1  0.09478894  0.50858910  0.69711265  1
  Nb  Nb112  1  0.50759106  0.10585029  0.29878544  1
  Nb  Nb113  1  0.49866516  0.49796146  0.90609148  1
  Nb  Nb114  1  0.70265365  0.90268942  0.29324667  1
  Nb  Nb115  1  0.09960472  0.09425434  0.49370324  1
  Nb  Nb116  1  0.10804807  0.90386893  0.11099591  1
  Nb  Nb117  1  0.69306088  0.49886126  0.10511224  1
  Nb  Nb118  1  0.90233586  0.90412403  0.49408886  1
  Nb  Nb119  1  0.89010367  0.89165136  0.30452449  1
  Nb  Nb120  1  0.89693865  0.10007627  0.09840936  1
  Nb  Nb121  1  0.51290344  0.49691256  0.09407625  1
  Nb  Nb122  1  0.29835102  0.90100642  0.10360028  1
  Nb  Nb123  1  0.09585083  0.89554349  0.69317531  1
  Nb  Nb124  1  0.09766489  0.69859131  0.69723522  1
  Nb  Nb125  1  0.40592144  0.80644837  0.19718752  1
  Nb  Nb126  1  0.19267180  0.60225418  0.59956600  1
  Nb  Nb127  1  0.40455092  0.39525738  0.00070445  1
  Nb  Nb128  1  0.40517740  0.40343426  0.80712988  1
  Nb  Nb129  1  0.40541834  0.80375412  0.59612558  1
  Nb  Nb130  1  0.19781495  0.59796599  0.40243860  1
  Nb  Nb131  1  0.19330982  0.59468955  0.20423106  1
  Nb  Nb132  1  0.00363314  -0.00394826  0.79453497  1
  Nb  Nb133  1  -0.01050688  0.39782545  -0.00281547  1
  Nb  Nb134  1  0.41014559  0.19527808  0.39670657  1
  Nb  Nb135  1  0.59562268  0.40253674  0.80091018  1
  Nb  Nb136  1  0.79521485  0.80778694  0.00693921  1
  Nb  Nb137  1  0.39815128  0.20380497  0.00596997  1
  Nb  Nb138  1  0.60432727  0.00330060  0.39627500  1
  Nb  Nb139  1  0.00234257  0.59381099  0.20000156  1
  Nb  Nb140  1  0.79883777  -0.00224343  0.39351191  1
  Nb  Nb141  1  0.59499649  0.39385059  0.39933012  1
  Nb  Nb142  1  0.80312530  0.40090639  0.19918893  1
  Nb  Nb143  1  0.19931049  0.20397729  0.20067801  1
  Nb  Nb144  1  0.60394285  0.80528984  0.19910578  1
  Nb  Nb145  1  0.40056978  -0.00483707  0.20199523  1
  Nb  Nb146  1  -0.00218426  0.40328716  0.18808907  1
  Nb  Nb147  1  0.59359597  0.80012932  0.59525038  1
  Nb  Nb148  1  0.19760098  0.39750537  0.19597607  1
  Nb  Nb149  1  0.40106480  0.59332935  0.80429843  1
  Pd  Pd150  1  0.60948621  0.80638444  0.40304330  1
  Pd  Pd151  1  0.60674574  0.60456581  -0.00517416  1
  Pd  Pd152  1  -0.00793318  0.00086292  0.21217392  1
  Pd  Pd153  1  0.00777600  0.20606165  0.19617448  1
  Pd  Pd154  1  0.20474614  0.59863511  0.79271712  1
  Pd  Pd155  1  0.79354568  0.79902210  0.59670962  1
  Pd  Pd156  1  0.40375095  0.00781211  0.39498865  1
  Pd  Pd157  1  0.79769273  0.00662185  0.59352530  1
  Pd  Pd158  1  0.20569736  0.39859537  0.79337926  1
  Pd  Pd159  1  0.81196866  0.00703859  0.20801628  1
  Pd  Pd160  1  0.39021966  0.60779769  0.60889685  1
  Pd  Pd161  1  0.40596287  0.79692877  0.00776862  1
  Pd  Pd162  1  0.80205853  0.40098759  0.00430976  1
  Pd  Pd163  1  0.79032761  0.40450018  0.39604031  1
  Pd  Pd164  1  0.19854559  0.80084288  0.00156247  1
  Pd  Pd165  1  0.60216657  0.19211451  0.00636354  1
  Pd  Pd166  1  0.19646235  0.20134309  0.78880585  1
  Pd  Pd167  1  -0.00794595  0.40667472  0.80328886  1
  Pd  Pd168  1  0.19157123  -0.00383069  0.79385697  1
  Pd  Pd169  1  -0.01092627  0.39745314  0.59610302  1
  Pd  Pd170  1  0.00371294  0.19145758  0.80025557  1
  Pd  Pd171  1  0.20174526  0.40246014  0.59918159  1
  Pd  Pd172  1  0.40208710  0.00108708  0.79674459  1
  Pd  Pd173  1  0.60011725  0.58516050  0.40124210  1
  Pd  Pd174  1  -0.00414052  -0.00401627  -0.00636125  1
  Pd  Pd175  1  0.00164746  0.80819155  0.39911152  1
  Pd  Pd176  1  0.61009128  0.78750250  0.01258454  1
  Pd  Pd177  1  0.20758678  0.40146458  0.39842860  1
  Pd  Pd178  1  0.39968828  0.40257315  0.19362853  1
  Pd  Pd179  1  0.60313526  0.39387091  0.59765871  1
  Pd  Pd180  1  -0.00064695  0.60387047  0.39472796  1
  Pd  Pd181  1  -0.00121898  0.19881695  0.59885035  1
  Pd  Pd182  1  -0.00589929  0.80280465  0.59616677  1
  Pd  Pd183  1  -0.00619145  0.80914611  -0.00205408  1
  Pd  Pd184  1  0.61381573  0.20092153  0.19263892  1
  Pd  Pd185  1  0.19649307  -0.00339198  0.39755792  1
  Pd  Pd186  1  -0.00378817  0.00849745  0.60713325  1
  Pd  Pd187  1  -0.00214754  0.59630491  0.00017458  1
  Pd  Pd188  1  0.79311274  0.79945011  0.80163560  1
  Pd  Pd189  1  0.00643283  0.80544999  0.80336961  1
  Pd  Pd190  1  0.20022151  0.20123823  0.59827151  1
  Pd  Pd191  1  0.79853822  0.60325454  0.80109107  1
  Pd  Pd192  1  0.59567848  0.59131418  0.80662819  1
  Pd  Pd193  1  0.40230009  0.00978151  0.00563896  1
  Pd  Pd194  1  0.40103093  0.80005358  0.39976821  1
  Pd  Pd195  1  0.79297172  0.19189430  0.00033706  1
  Pd  Pd196  1  0.20266688  0.80431108  0.59656388  1
  Pd  Pd197  1  -0.00043308  0.20203321  -0.00861675  1
  Pd  Pd198  1  0.19111554  0.80731143  0.80518095  1
  Pd  Pd199  1  0.61168479  0.39698579  0.21207804  1
  Rh  Rh200  1  0.59978078  0.39929008  -0.00312420  1
  Rh  Rh201  1  0.19747525  0.61474983  0.00446457  1
  Rh  Rh202  1  0.19986238  -0.00547243  0.00389120  1
  Rh  Rh203  1  0.59908858  0.60191892  0.20201802  1
  Rh  Rh204  1  0.20354925  0.19384527  0.00507133  1
  Rh  Rh205  1  0.20191335  0.00659223  0.20404651  1
  Rh  Rh206  1  0.20927776  0.20141019  0.39643410  1
  Rh  Rh207  1  -0.00153868  0.60032696  0.79824818  1
  Rh  Rh208  1  0.80583970  0.60085890  0.59733942  1
  Rh  Rh209  1  0.20358993  0.39042663  0.00244342  1
  Rh  Rh210  1  -0.00101357  0.60147857  0.59904750  1
  Rh  Rh211  1  0.60302540  0.60245530  0.59026052  1
  Rh  Rh212  1  0.60833273  -0.00285181  0.59603359  1
  Rh  Rh213  1  0.80704614  0.59239325  0.20783612  1
  Rh  Rh214  1  0.80580020  0.59543478  0.39659627  1
  Rh  Rh215  1  0.80218792  0.19676999  0.60290392  1
  Rh  Rh216  1  0.41378433  0.38864491  0.40057234  1
  Rh  Rh217  1  0.59562819  0.19802729  0.41008565  1
  Rh  Rh218  1  0.80569903  -0.00024274  0.00335937  1
  Rh  Rh219  1  0.80400766  0.40097429  0.60202115  1
  Rh  Rh220  1  0.20242173  0.79373225  0.19058882  1
  Rh  Rh221  1  -0.00605596  0.39181509  0.40786064  1
  Rh  Rh222  1  0.39459453  -0.00438540  0.60515822  1
  Rh  Rh223  1  0.39093572  0.18850611  0.20306393  1
  Rh  Rh224  1  -0.01035979  -0.00031074  0.39482046  1
  Rh  Rh225  1  -0.00191783  0.20003582  0.41110541  1
  Rh  Rh226  1  0.79634812  0.19700868  0.80282772  1
  Rh  Rh227  1  0.39445087  0.20338906  0.81125939  1
  Rh  Rh228  1  0.80253407  0.18889489  0.40393015  1
  Rh  Rh229  1  0.59907800  0.01088800  -0.00198551  1
  Rh  Rh230  1  0.40076108  0.39430575  0.60603826  1
  Rh  Rh231  1  0.59462574  -0.00403276  0.20431943  1
  Rh  Rh232  1  0.40312441  0.59815838  0.19781196  1
  Rh  Rh233  1  0.39363523  0.19528887  0.58845917  1
  Rh  Rh234  1  0.79510434  0.80714392  0.40681051  1
  Rh  Rh235  1  0.79311323  0.19846443  0.19440958  1
  Rh  Rh236  1  0.60293757  0.19989440  0.60020858  1
  Rh  Rh237  1  0.80273428  0.00579418  0.79582101  1
  Rh  Rh238  1  0.59833842  0.00232553  0.79815065  1
  Rh  Rh239  1  0.60164783  0.80707456  0.78936949  1
  Rh  Rh240  1  0.18848336  0.80940733  0.41136809  1
  Rh  Rh241  1  0.40344016  0.59517561  -0.00412057  1
  Rh  Rh242  1  0.79414459  0.40260850  0.80049894  1
  Rh  Rh243  1  0.79368295  0.61494643  -0.00945841  1
  Rh  Rh244  1  -0.00069346  0.80052015  0.20363254  1
  Rh  Rh245  1  0.19752218  -0.00046273  0.60304395  1
  Rh  Rh246  1  0.79274191  0.80155570  0.19251120  1
  Rh  Rh247  1  0.40360470  0.80091194  0.79444701  1
  Rh  Rh248  1  0.40070935  0.59363714  0.39358642  1
  Rh  Rh249  1  0.60876269  0.20213653  0.79976328  1
