# generated using pymatgen
data_ZrScNbPdRh
_symmetry_space_group_name_H-M   'P 1'
_cell_length_a   16.56472596
_cell_length_b   16.56073511
_cell_length_c   16.55948633
_cell_angle_alpha   89.99407771
_cell_angle_beta   89.98642365
_cell_angle_gamma   90.00303188
_symmetry_Int_Tables_number   1
_chemical_formula_structural   ZrScNbPdRh
_chemical_formula_sum   'Zr50 Sc50 Nb50 Pd50 Rh50'
_cell_volume   4542.66501386
_cell_formula_units_Z   50
loop_
 _symmetry_equiv_pos_site_id
 _symmetry_equiv_pos_as_xyz
  1  'x, y, z'
loop_
 _atom_site_type_symbol
 _atom_site_label
 _atom_site_symmetry_multiplicity
 _atom_site_fract_x
 _atom_site_fract_y
 _atom_site_fract_z
 _atom_site_occupancy
  Zr  Zr0  1  0.89573911  0.90349213  0.50186925  1
  Zr  Zr1  1  0.09451363  0.29785530  0.29476698  1
  Zr  Zr2  1  0.09631311  0.70886973  0.09992633  1
  Zr  Zr3  1  0.69635956  0.90305923  0.90268076  1
  Zr  Zr4  1  0.89707275  0.70003603  0.10612589  1
  Zr  Zr5  1  0.89579189  0.50575631  0.08921094  1
  Zr  Zr6  1  0.09717431  0.90023802  0.50690779  1
  Zr  Zr7  1  0.49607215  0.49774140  0.28159782  1
  Zr  Zr8  1  0.29817537  0.70061172  0.70655768  1
  Zr  Zr9  1  0.10664000  0.69362533  0.90089663  1
  Zr  Zr10  1  0.50414253  0.69716495  0.50187480  1
  Zr  Zr11  1  0.50517859  0.89635394  0.09394205  1
  Zr  Zr12  1  0.30003278  0.90749081  0.29849583  1
  Zr  Zr13  1  0.69831311  0.09346072  0.30703614  1
  Zr  Zr14  1  0.29515266  0.70456097  0.30473950  1
  Zr  Zr15  1  0.29849885  0.70022931  0.50180135  1
  Zr  Zr16  1  0.30508992  0.09935452  0.30359652  1
  Zr  Zr17  1  0.09665793  0.10351608  0.10225337  1
  Zr  Zr18  1  0.10035150  0.89278370  0.70130197  1
  Zr  Zr19  1  0.32204095  0.50170601  0.09828895  1
  Zr  Zr20  1  0.69155894  0.49864693  0.09095011  1
  Zr  Zr21  1  0.89359206  0.90680741  0.90259009  1
  Zr  Zr22  1  0.50578993  0.89861023  0.89291884  1
  Zr  Zr23  1  0.70558516  0.89550303  0.09801791  1
  Zr  Zr24  1  0.29858039  0.50018058  0.30196196  1
  Zr  Zr25  1  0.89463327  0.28046789  0.70352955  1
  Zr  Zr26  1  0.70041379  0.10161394  0.10465131  1
  Zr  Zr27  1  0.09952180  0.49992386  0.50094023  1
  Zr  Zr28  1  0.30305836  0.90064016  0.69646994  1
  Zr  Zr29  1  0.50777831  0.29824961  0.51018234  1
  Zr  Zr30  1  0.90765725  0.30813302  0.10004759  1
  Zr  Zr31  1  0.30146955  0.30127917  0.29580200  1
  Zr  Zr32  1  0.70350227  0.10693182  0.70407127  1
  Zr  Zr33  1  0.50202843  0.09341308  0.89481219  1
  Zr  Zr34  1  0.30803570  0.50182320  0.70665932  1
  Zr  Zr35  1  0.89735915  0.29319153  0.49929250  1
  Zr  Zr36  1  0.90487854  0.89536993  0.09367722  1
  Zr  Zr37  1  0.70169855  0.71299678  0.29570392  1
  Zr  Zr38  1  0.11282107  0.29755242  0.90825320  1
  Zr  Zr39  1  0.50187623  0.29254106  0.29558156  1
  Zr  Zr40  1  0.69592643  0.49991737  0.49393978  1
  Zr  Zr41  1  0.90301463  0.90655309  0.70251222  1
  Zr  Zr42  1  0.49896644  0.09998403  0.30008318  1
  Zr  Zr43  1  0.30263656  0.68820427  0.89591391  1
  Zr  Zr44  1  0.09713041  0.70328740  0.50514305  1
  Zr  Zr45  1  0.10209976  0.09953357  0.29818067  1
  Zr  Zr46  1  0.90083100  0.49570889  0.29323301  1
  Zr  Zr47  1  0.10205530  0.50066653  0.30756829  1
  Zr  Zr48  1  0.29093715  0.09530755  0.50307855  1
  Zr  Zr49  1  0.08763196  0.49918522  0.10016791  1
  Sc  Sc50  1  0.69374666  0.69636756  0.89361073  1
  Sc  Sc51  1  0.50533977  0.30249102  0.10112071  1
  Sc  Sc52  1  0.70114190  0.50050922  0.89716545  1
  Sc  Sc53  1  0.70494475  0.29232558  0.30422253  1
  Sc  Sc54  1  0.69200184  0.89915242  0.69829960  1
  Sc  Sc55  1  0.50145558  0.29425279  0.89271893  1
  Sc  Sc56  1  0.49722010  0.70518853  0.89349768  1
  Sc  Sc57  1  0.69770218  0.30655835  0.89563967  1
  Sc  Sc58  1  0.69560333  0.09499582  0.89766997  1
  Sc  Sc59  1  0.69633129  0.50203980  0.70840762  1
  Sc  Sc60  1  0.90218768  0.30148809  0.30500536  1
  Sc  Sc61  1  0.09840509  0.10374666  0.50626157  1
  Sc  Sc62  1  0.09395372  0.30133944  0.50272237  1
  Sc  Sc63  1  0.50061756  0.90270657  0.31159196  1
  Sc  Sc64  1  0.11164027  0.49931699  0.90324868  1
  Sc  Sc65  1  0.31103775  0.88590060  0.89755656  1
  Sc  Sc66  1  0.08909575  0.89390674  0.90512366  1
  Sc  Sc67  1  0.29337684  0.49968046  0.50141053  1
  Sc  Sc68  1  0.89854448  0.49914415  0.69718069  1
  Sc  Sc69  1  0.09312925  0.49922788  0.69442128  1
  Sc  Sc70  1  0.50253346  0.69926152  0.69948057  1
  Sc  Sc71  1  0.90672979  0.48854416  0.49520927  1
  Sc  Sc72  1  0.29709014  0.10152647  0.89189788  1
  Sc  Sc73  1  0.69233352  0.70792627  0.49557530  1
  Sc  Sc74  1  0.30457249  0.89747751  0.50209870  1
  Sc  Sc75  1  0.10522570  0.09912710  0.89878709  1
  Sc  Sc76  1  0.89903207  0.69959511  0.91204513  1
  Sc  Sc77  1  0.30461189  0.10009366  0.11378439  1
  Sc  Sc78  1  0.90385000  0.70224652  0.69340296  1
  Sc  Sc79  1  0.49985434  0.30252333  0.70348076  1
  Sc  Sc80  1  0.29931888  0.30437630  0.89092961  1
  Sc  Sc81  1  0.50371552  0.10641838  0.10834458  1
  Sc  Sc82  1  0.28427991  0.30553218  0.50505545  1
  Sc  Sc83  1  0.89961428  0.71537767  0.50197665  1
  Sc  Sc84  1  0.09543576  0.09207800  0.69779510  1
  Sc  Sc85  1  0.51342113  0.09612597  0.50127171  1
  Sc  Sc86  1  0.29715388  0.29669105  0.09017626  1
  Sc  Sc87  1  0.29770900  0.09160599  0.70466407  1
  Sc  Sc88  1  0.49930915  0.09865233  0.70451599  1
  Sc  Sc89  1  0.69566617  0.50149286  0.29856698  1
  Sc  Sc90  1  0.88866975  0.89671972  0.30011921  1
  Sc  Sc91  1  0.90031496  0.09402916  0.10371447  1
  Sc  Sc92  1  0.50494621  0.69466246  0.09909100  1
  Sc  Sc93  1  0.51225385  0.70294295  0.30093747  1
  Sc  Sc94  1  0.69719098  0.90359368  0.49391374  1
  Sc  Sc95  1  0.69594511  0.69812207  0.70293009  1
  Sc  Sc96  1  0.69024476  0.29819735  0.70057047  1
  Sc  Sc97  1  0.29977173  0.70662602  0.08898402  1
  Sc  Sc98  1  0.10004460  0.71303977  0.29900986  1
  Sc  Sc99  1  0.89474616  0.09884513  0.29702943  1
  Nb  Nb100  1  0.89863820  0.49630621  0.89772313  1
  Nb  Nb101  1  0.89831871  0.30111788  0.89954184  1
  Nb  Nb102  1  0.10280998  0.30066214  0.70265630  1
  Nb  Nb103  1  0.69989950  0.90230121  0.30016736  1
  Nb  Nb104  1  0.49835971  0.50310775  0.50218964  1
  Nb  Nb105  1  0.69971089  0.29551977  0.49932615  1
  Nb  Nb106  1  0.89562423  0.69887106  0.29924528  1
  Nb  Nb107  1  0.50142786  0.49789402  0.09490984  1
  Nb  Nb108  1  0.30422476  0.29671625  0.70208176  1
  Nb  Nb109  1  0.49908176  0.89961273  0.69879574  1
  Nb  Nb110  1  0.30380050  0.89948133  0.10220373  1
  Nb  Nb111  1  0.89732710  0.10011664  0.70228487  1
  Nb  Nb112  1  0.10006260  0.90073048  0.29048439  1
  Nb  Nb113  1  0.50636677  0.89528505  0.51177232  1
  Nb  Nb114  1  0.70242957  0.10704547  0.49867417  1
  Nb  Nb115  1  0.90230990  0.10087581  0.51112236  1
  Nb  Nb116  1  0.10056785  0.29902979  0.09831609  1
  Nb  Nb117  1  0.49696973  0.50589057  0.69270352  1
  Nb  Nb118  1  0.10224082  0.89873804  0.10627739  1
  Nb  Nb119  1  0.10019900  0.69589563  0.70313766  1
  Nb  Nb120  1  0.70367395  0.70514949  0.10152900  1
  Nb  Nb121  1  0.30908720  0.50656161  0.89853118  1
  Nb  Nb122  1  0.70382093  0.29901765  0.09448414  1
  Nb  Nb123  1  0.49244013  0.50684114  0.90365445  1
  Nb  Nb124  1  0.89548859  0.10728868  0.88383577  1
  Nb  Nb125  1  0.80128074  0.80517931  0.80274220  1
  Nb  Nb126  1  0.40580648  0.59470674  0.40146357  1
  Nb  Nb127  1  0.39433019  0.20145440  0.59991412  1
  Nb  Nb128  1  0.60536139  -0.00543134  0.20311160  1
  Nb  Nb129  1  -0.00610147  0.60697353  0.39886651  1
  Nb  Nb130  1  0.79460459  0.39600701  0.59529141  1
  Nb  Nb131  1  0.39981490  0.19273892  -0.00458564  1
  Nb  Nb132  1  -0.00205333  0.59441105  0.80512065  1
  Nb  Nb133  1  0.39898195  0.80543710  0.19984917  1
  Nb  Nb134  1  -0.00433668  0.20318797  -0.00546639  1
  Nb  Nb135  1  0.59274849  0.39897119  0.40201327  1
  Nb  Nb136  1  0.39798000  0.00001231  0.00228147  1
  Nb  Nb137  1  0.19803067  0.40395363  0.19284005  1
  Nb  Nb138  1  0.39888768  0.20368168  0.41085179  1
  Nb  Nb139  1  0.20078281  0.59818863  0.19747881  1
  Nb  Nb140  1  0.80543209  0.60392571  0.39896765  1
  Nb  Nb141  1  0.80598165  0.20438117  -0.00420733  1
  Nb  Nb142  1  0.80051894  0.01123949  0.60031960  1
  Nb  Nb143  1  0.19827008  0.60469006  0.60552861  1
  Nb  Nb144  1  0.80041946  0.59550465  0.59022676  1
  Nb  Nb145  1  -0.00198019  0.39466741  0.80494840  1
  Nb  Nb146  1  0.00033670  -0.00173402  0.39974845  1
  Nb  Nb147  1  0.40631823  0.39979835  0.40427931  1
  Nb  Nb148  1  0.20514511  -0.00703507  0.00819843  1
  Nb  Nb149  1  0.79640132  0.39987240  0.19062542  1
  Pd  Pd150  1  0.20235587  0.40725487  0.61105618  1
  Pd  Pd151  1  0.20020928  -0.01297302  0.81181719  1
  Pd  Pd152  1  0.01260907  0.20267913  0.80335628  1
  Pd  Pd153  1  0.80910477  0.60883594  0.79310053  1
  Pd  Pd154  1  0.79053299  0.59415410  0.20223172  1
  Pd  Pd155  1  0.00760127  0.60775322  0.20845824  1
  Pd  Pd156  1  0.40432574  0.79522207  0.60436308  1
  Pd  Pd157  1  0.60634660  0.60417700  0.19616910  1
  Pd  Pd158  1  0.21113775  0.41085542  0.00672683  1
  Pd  Pd159  1  0.19926994  0.19774347  0.61102195  1
  Pd  Pd160  1  0.80386724  0.39523757  0.78970841  1
  Pd  Pd161  1  0.00300122  0.39865645  -0.01072670  1
  Pd  Pd162  1  0.80440995  0.19338379  0.39872179  1
  Pd  Pd163  1  0.79193271  0.60508170  -0.00450792  1
  Pd  Pd164  1  0.20366411  0.20511119  0.19622822  1
  Pd  Pd165  1  0.59341641  0.39801996  -0.00958989  1
  Pd  Pd166  1  0.00389839  0.00933524  -0.00600092  1
  Pd  Pd167  1  0.79096974  0.80192373  0.60726443  1
  Pd  Pd168  1  0.40704919  0.00371507  0.41536399  1
  Pd  Pd169  1  0.40767146  0.79535837  0.39711530  1
  Pd  Pd170  1  0.58936920  0.40940643  0.80260459  1
  Pd  Pd171  1  0.00439374  0.00296704  0.80535865  1
  Pd  Pd172  1  0.20096821  0.20493813  0.40142402  1
  Pd  Pd173  1  0.60787464  0.00520439  0.60321554  1
  Pd  Pd174  1  0.19724132  0.81092428  0.40239170  1
  Pd  Pd175  1  0.19121512  -0.00613796  0.40243656  1
  Pd  Pd176  1  -0.00220145  0.19013761  0.40074383  1
  Pd  Pd177  1  0.80547864  0.20801531  0.19626874  1
  Pd  Pd178  1  0.19986143  0.80754896  -0.00535864  1
  Pd  Pd179  1  0.60280964  0.78865499  -0.00323700  1
  Pd  Pd180  1  0.20032143  0.80488060  0.80661491  1
  Pd  Pd181  1  0.20389435  0.59186395  0.01093168  1
  Pd  Pd182  1  0.60978631  0.39150376  0.20306009  1
  Pd  Pd183  1  -0.00320209  0.80503239  0.39214302  1
  Pd  Pd184  1  0.80242802  0.01267086  -0.00198615  1
  Pd  Pd185  1  0.60611745  0.40411007  0.60105792  1
  Pd  Pd186  1  0.59835988  0.60481461  -0.00576621  1
  Pd  Pd187  1  0.19650864  0.40610909  0.79376431  1
  Pd  Pd188  1  0.20029263  0.00171647  0.19563881  1
  Pd  Pd189  1  0.39491659  0.39501502  0.59687539  1
  Pd  Pd190  1  -0.00886939  0.78877278  0.80583995  1
  Pd  Pd191  1  0.60785444  0.59989929  0.60398541  1
  Pd  Pd192  1  0.40367484  0.00875928  0.59701906  1
  Pd  Pd193  1  0.39636967  0.61714355  0.20310076  1
  Pd  Pd194  1  -0.00811315  -0.00632327  0.20794029  1
  Pd  Pd195  1  0.40788078  0.40173020  0.80371311  1
  Pd  Pd196  1  0.40537546  0.38795575  -0.00757590  1
  Pd  Pd197  1  -0.01105006  0.38777551  0.61055360  1
  Pd  Pd198  1  0.60140545  0.19944720  -0.00495773  1
  Pd  Pd199  1  0.19814380  0.19683702  0.79210783  1
  Rh  Rh200  1  0.00086090  0.80195063  0.60688523  1
  Rh  Rh201  1  0.40016258  -0.00671431  0.80367108  1
  Rh  Rh202  1  0.79587441  -0.00745186  0.19774106  1
  Rh  Rh203  1  0.00486926  0.40021447  0.39928855  1
  Rh  Rh204  1  0.60857323  0.19684909  0.20272320  1
  Rh  Rh205  1  0.80601453  0.00652780  0.40962120  1
  Rh  Rh206  1  0.80336874  0.80456427  0.19785695  1
  Rh  Rh207  1  0.39827385  0.20728407  0.19385010  1
  Rh  Rh208  1  0.79359814  0.20032672  0.59775357  1
  Rh  Rh209  1  0.00675780  0.20125011  0.60611070  1
  Rh  Rh210  1  0.20763649  0.79739708  0.19828221  1
  Rh  Rh211  1  0.40420509  0.79973585  0.79200968  1
  Rh  Rh212  1  0.19211516  0.58901612  0.79162129  1
  Rh  Rh213  1  0.78852196  0.40369258  0.39626895  1
  Rh  Rh214  1  0.59721647  0.20399967  0.40010669  1
  Rh  Rh215  1  0.41031743  0.60027745  0.79691569  1
  Rh  Rh216  1  0.39766946  0.19869542  0.79689193  1
  Rh  Rh217  1  0.79622305  0.39798048  0.00080789  1
  Rh  Rh218  1  0.78767677  0.20415862  0.81000603  1
  Rh  Rh219  1  0.60005126  0.79897255  0.60174730  1
  Rh  Rh220  1  0.20197672  0.18637360  0.00534953  1
  Rh  Rh221  1  -0.00561644  0.19993348  0.19496378  1
  Rh  Rh222  1  0.40515210  0.79963248  0.00351310  1
  Rh  Rh223  1  0.59769919  0.80951060  0.40364616  1
  Rh  Rh224  1  0.60082916  0.19817728  0.79989535  1
  Rh  Rh225  1  -0.00677179  0.80455993  0.20233870  1
  Rh  Rh226  1  0.39744593  0.39153324  0.19487944  1
  Rh  Rh227  1  0.00058348  0.79760533  0.00095059  1
  Rh  Rh228  1  0.19827947  0.38981012  0.39186433  1
  Rh  Rh229  1  0.79545339  0.79718705  0.39998184  1
  Rh  Rh230  1  0.79297355  0.79240169  -0.00736536  1
  Rh  Rh231  1  0.59027971  0.59300716  0.80093366  1
  Rh  Rh232  1  0.60058648  -0.00243236  0.78986482  1
  Rh  Rh233  1  0.00067707  0.60046196  -0.00863791  1
  Rh  Rh234  1  0.60431229  0.80194305  0.79548294  1
  Rh  Rh235  1  0.40825634  0.60774446  -0.00136748  1
  Rh  Rh236  1  0.79438480  -0.00500052  0.79324544  1
  Rh  Rh237  1  0.59610592  0.80718971  0.20029420  1
  Rh  Rh238  1  -0.00104262  0.60627703  0.59742496  1
  Rh  Rh239  1  0.00042570  0.39858819  0.20234103  1
  Rh  Rh240  1  0.59342501  0.00912642  0.01107639  1
  Rh  Rh241  1  -0.00412060  0.00107713  0.59923198  1
  Rh  Rh242  1  0.60018428  -0.00421093  0.40110485  1
  Rh  Rh243  1  0.19822708  -0.00546216  0.60225812  1
  Rh  Rh244  1  0.19984967  0.79675652  0.60366534  1
  Rh  Rh245  1  0.41517286  -0.01006764  0.19385835  1
  Rh  Rh246  1  0.59640729  0.19519498  0.60573161  1
  Rh  Rh247  1  0.39210722  0.60216623  0.59656243  1
  Rh  Rh248  1  0.19497310  0.60796860  0.40376880  1
  Rh  Rh249  1  0.59603573  0.59256414  0.39310382  1
