# generated using pymatgen
data_ZrScNbPdRh
_symmetry_space_group_name_H-M   'P 1'
_cell_length_a   16.55180653
_cell_length_b   16.55604653
_cell_length_c   16.55713492
_cell_angle_alpha   90.04349982
_cell_angle_beta   89.95701578
_cell_angle_gamma   90.00905448
_symmetry_Int_Tables_number   1
_chemical_formula_structural   ZrScNbPdRh
_chemical_formula_sum   'Zr50 Sc50 Nb50 Pd50 Rh50'
_cell_volume   4537.19008483
_cell_formula_units_Z   50
loop_
 _symmetry_equiv_pos_site_id
 _symmetry_equiv_pos_as_xyz
  1  'x, y, z'
loop_
 _atom_site_type_symbol
 _atom_site_label
 _atom_site_symmetry_multiplicity
 _atom_site_fract_x
 _atom_site_fract_y
 _atom_site_fract_z
 _atom_site_occupancy
  Zr  Zr0  1  0.29667214  0.30621835  0.49654960  1
  Zr  Zr1  1  0.08427142  0.70464045  0.10877043  1
  Zr  Zr2  1  0.30072126  0.09717060  0.30424477  1
  Zr  Zr3  1  0.69817535  0.10307484  0.09776215  1
  Zr  Zr4  1  0.10487476  0.10336229  0.51228946  1
  Zr  Zr5  1  0.30302725  0.89828723  0.90595103  1
  Zr  Zr6  1  0.69955349  0.10545052  0.30041771  1
  Zr  Zr7  1  0.90228859  0.69016334  0.70226956  1
  Zr  Zr8  1  0.50082592  0.30597958  0.50521297  1
  Zr  Zr9  1  0.31037629  0.70504877  0.30390307  1
  Zr  Zr10  1  0.09593830  0.31323198  0.09636473  1
  Zr  Zr11  1  0.50008692  0.69704604  0.49844700  1
  Zr  Zr12  1  0.90045757  0.50509352  0.70298957  1
  Zr  Zr13  1  0.10299940  0.89503721  0.30391363  1
  Zr  Zr14  1  0.09814537  0.09350966  0.29433299  1
  Zr  Zr15  1  0.89830853  0.29823373  0.50187073  1
  Zr  Zr16  1  0.50526160  0.10266321  0.10094971  1
  Zr  Zr17  1  0.10336686  0.09612452  0.69801525  1
  Zr  Zr18  1  0.50116758  0.09659019  0.50733551  1
  Zr  Zr19  1  0.69743011  0.89647700  0.70333682  1
  Zr  Zr20  1  0.30395366  0.09839539  0.50072833  1
  Zr  Zr21  1  0.29976085  0.89746418  0.70566114  1
  Zr  Zr22  1  0.90545961  0.10500548  0.49665528  1
  Zr  Zr23  1  0.89803260  0.30567500  0.70238439  1
  Zr  Zr24  1  0.90569897  0.69891311  0.29572718  1
  Zr  Zr25  1  0.89865622  0.49885012  0.89129229  1
  Zr  Zr26  1  0.30284879  0.09826907  0.69671976  1
  Zr  Zr27  1  0.69607384  0.30209065  0.29847868  1
  Zr  Zr28  1  0.30976516  0.49530868  0.10389430  1
  Zr  Zr29  1  0.50651620  0.70311931  0.30788476  1
  Zr  Zr30  1  0.89407453  0.70181744  0.90905745  1
  Zr  Zr31  1  0.09512738  0.29509178  0.50080916  1
  Zr  Zr32  1  0.10056309  0.90145630  0.69227928  1
  Zr  Zr33  1  0.49609049  0.49922185  0.29605047  1
  Zr  Zr34  1  0.49846899  0.30432444  0.09857618  1
  Zr  Zr35  1  0.50254189  0.51135722  0.50224892  1
  Zr  Zr36  1  0.69600062  0.70331705  0.90848928  1
  Zr  Zr37  1  0.49626349  0.49713551  0.90459674  1
  Zr  Zr38  1  0.90565505  0.90555638  0.30544822  1
  Zr  Zr39  1  0.70319349  0.50307414  0.70287759  1
  Zr  Zr40  1  0.30527726  0.70619483  0.90297132  1
  Zr  Zr41  1  0.89105947  0.50479775  0.49911200  1
  Zr  Zr42  1  0.69538385  0.09080957  0.69691504  1
  Zr  Zr43  1  0.49787356  0.88728986  0.89404280  1
  Zr  Zr44  1  0.49594399  0.29983329  0.89260642  1
  Zr  Zr45  1  0.49960678  0.30285337  0.70144875  1
  Zr  Zr46  1  0.69528819  0.89505302  0.89993399  1
  Zr  Zr47  1  0.69185385  0.90128938  0.09655068  1
  Zr  Zr48  1  0.90072597  0.89317244  0.69322188  1
  Zr  Zr49  1  0.09297726  0.09556453  0.89714824  1
  Sc  Sc50  1  0.30399665  0.29925833  0.90242973  1
  Sc  Sc51  1  0.50030015  0.89395917  0.50183631  1
  Sc  Sc52  1  0.09935274  0.29102152  0.69737380  1
  Sc  Sc53  1  0.90136378  0.10055477  0.30878862  1
  Sc  Sc54  1  0.49988046  0.70726879  0.69150944  1
  Sc  Sc55  1  0.91062494  0.89143095  0.09541061  1
  Sc  Sc56  1  0.90156773  0.08987268  0.09596687  1
  Sc  Sc57  1  0.91563953  0.09523293  0.70395348  1
  Sc  Sc58  1  0.30577929  0.30243745  0.70024898  1
  Sc  Sc59  1  0.49718662  0.09969426  0.30151331  1
  Sc  Sc60  1  0.09731554  0.31583157  0.30442247  1
  Sc  Sc61  1  0.49259449  0.09529496  0.90501288  1
  Sc  Sc62  1  0.90631874  0.50174627  0.30355963  1
  Sc  Sc63  1  0.49527167  0.90576781  0.10311633  1
  Sc  Sc64  1  0.49064101  0.69192846  0.09708227  1
  Sc  Sc65  1  0.70309666  0.49672061  0.89924127  1
  Sc  Sc66  1  0.70036575  0.08907562  0.90889393  1
  Sc  Sc67  1  0.70580847  0.11279123  0.49835512  1
  Sc  Sc68  1  0.11118206  0.70607893  0.49993159  1
  Sc  Sc69  1  0.50360306  0.30237942  0.30000395  1
  Sc  Sc70  1  0.29515156  0.89513511  0.49744434  1
  Sc  Sc71  1  0.30615367  0.90261715  0.30492509  1
  Sc  Sc72  1  0.10477209  0.30906006  0.90195303  1
  Sc  Sc73  1  0.50091689  0.49540533  0.69112500  1
  Sc  Sc74  1  0.90144821  0.30620484  0.30753388  1
  Sc  Sc75  1  0.09785517  0.89996523  0.90270703  1
  Sc  Sc76  1  0.09670271  0.90468724  0.09811842  1
  Sc  Sc77  1  0.10248805  0.09095106  0.09482423  1
  Sc  Sc78  1  0.70203660  0.48937246  0.09751544  1
  Sc  Sc79  1  0.89606616  0.30673703  0.90154739  1
  Sc  Sc80  1  0.69891490  0.30509576  0.69492491  1
  Sc  Sc81  1  0.30567725  0.50670254  0.49820535  1
  Sc  Sc82  1  0.49923446  0.49671059  0.09879481  1
  Sc  Sc83  1  0.29403838  0.49845710  0.89525919  1
  Sc  Sc84  1  0.09427697  0.69773839  0.30811431  1
  Sc  Sc85  1  0.90117224  0.69602100  0.50233693  1
  Sc  Sc86  1  0.29087814  0.70130837  0.69538436  1
  Sc  Sc87  1  0.50870298  0.90354812  0.69532913  1
  Sc  Sc88  1  0.30268302  0.09501686  0.90052793  1
  Sc  Sc89  1  0.29795810  0.50734772  0.69657282  1
  Sc  Sc90  1  0.70002216  0.70435853  0.69780854  1
  Sc  Sc91  1  0.69500263  0.89474921  0.50653496  1
  Sc  Sc92  1  0.70282736  0.30308744  0.90363668  1
  Sc  Sc93  1  0.29888246  0.08880725  0.08959402  1
  Sc  Sc94  1  0.49565274  0.89412349  0.29779126  1
  Sc  Sc95  1  0.10303358  0.69819238  0.89584121  1
  Sc  Sc96  1  0.89958198  0.90384735  0.90057224  1
  Sc  Sc97  1  0.70639189  0.49626687  0.30880548  1
  Sc  Sc98  1  0.10524623  0.50876354  0.48308357  1
  Sc  Sc99  1  0.69804544  0.29962541  0.09907894  1
  Nb  Nb100  1  0.50087005  0.10631032  0.69800332  1
  Nb  Nb101  1  0.70635838  0.70051590  0.09845782  1
  Nb  Nb102  1  0.29608931  0.69739571  0.09985267  1
  Nb  Nb103  1  0.90667852  0.49262209  0.10001057  1
  Nb  Nb104  1  0.09744289  0.89893242  0.50357311  1
  Nb  Nb105  1  0.89866422  0.10463433  0.90097802  1
  Nb  Nb106  1  0.09934960  0.50433534  0.90220244  1
  Nb  Nb107  1  0.09906526  0.69466141  0.70177183  1
  Nb  Nb108  1  0.89999732  0.90153404  0.50071972  1
  Nb  Nb109  1  0.10166957  0.50516649  0.29333082  1
  Nb  Nb110  1  0.29857766  0.30469089  0.29842125  1
  Nb  Nb111  1  0.89713766  0.69872011  0.10081455  1
  Nb  Nb112  1  0.10017076  0.51403304  0.71608215  1
  Nb  Nb113  1  0.69584874  0.89496155  0.29977811  1
  Nb  Nb114  1  0.29791678  0.29844310  0.10289950  1
  Nb  Nb115  1  0.68908955  0.68994856  0.48599422  1
  Nb  Nb116  1  0.69953745  0.50844769  0.49920286  1
  Nb  Nb117  1  0.70569578  0.30644943  0.49258678  1
  Nb  Nb118  1  0.70022968  0.70327269  0.29928853  1
  Nb  Nb119  1  0.49863058  0.69484932  0.89786262  1
  Nb  Nb120  1  0.29453335  0.49229355  0.30230053  1
  Nb  Nb121  1  0.89854935  0.30299032  0.09842552  1
  Nb  Nb122  1  0.30599566  0.70076295  0.50077421  1
  Nb  Nb123  1  0.29855997  0.88939227  0.10033052  1
  Nb  Nb124  1  0.09619012  0.50002084  0.09976132  1
  Nb  Nb125  1  0.00088226  0.79516268  0.79223795  1
  Nb  Nb126  1  0.60438192  -0.00235337  0.39828344  1
  Nb  Nb127  1  0.18935179  0.40661453  0.60112272  1
  Nb  Nb128  1  0.59345520  0.60191177  0.80397982  1
  Nb  Nb129  1  0.61117418  0.60483144  0.19957917  1
  Nb  Nb130  1  0.79587225  0.79931195  0.39731218  1
  Nb  Nb131  1  0.20111238  0.19471116  0.79946936  1
  Nb  Nb132  1  0.19492813  0.59832101  0.00926969  1
  Nb  Nb133  1  0.80494895  -0.00373729  0.59675276  1
  Nb  Nb134  1  0.59996367  0.19532567  0.79718381  1
  Nb  Nb135  1  0.20065793  0.59804968  0.19973619  1
  Nb  Nb136  1  0.38990798  0.20408840  0.19862693  1
  Nb  Nb137  1  0.00644156  0.41173319  0.60392444  1
  Nb  Nb138  1  -0.00466295  0.20351438  0.00276394  1
  Nb  Nb139  1  0.79648114  0.79931137  0.20087832  1
  Nb  Nb140  1  0.79571714  -0.00458299  0.20447015  1
  Nb  Nb141  1  0.20143608  0.20202401  0.39291434  1
  Nb  Nb142  1  0.80671347  0.19896088  0.19569671  1
  Nb  Nb143  1  0.20403482  0.79428798  0.19783832  1
  Nb  Nb144  1  0.80063681  0.60392035  0.19481558  1
  Nb  Nb145  1  0.40480516  0.60569082  0.80115402  1
  Nb  Nb146  1  -0.00020974  0.20471067  0.19391146  1
  Nb  Nb147  1  0.20060527  0.20563787  0.19954941  1
  Nb  Nb148  1  0.79757754  0.19325046  0.80230882  1
  Nb  Nb149  1  -0.00041366  0.59464900  0.00362328  1
  Pd  Pd150  1  0.59459324  0.19767875  0.40445727  1
  Pd  Pd151  1  0.20844585  0.60614523  0.39274252  1
  Pd  Pd152  1  0.80768660  0.00455696  0.79414188  1
  Pd  Pd153  1  0.59520748  0.79262974  0.19052530  1
  Pd  Pd154  1  0.00073090  0.20920963  0.80915667  1
  Pd  Pd155  1  0.19371802  0.79819050  0.79884665  1
  Pd  Pd156  1  0.58794730  0.79759879  0.00970279  1
  Pd  Pd157  1  -0.00098961  0.40846240  0.40740857  1
  Pd  Pd158  1  0.80429158  0.40054368  0.20293719  1
  Pd  Pd159  1  0.19254901  0.19788852  -0.00198271  1
  Pd  Pd160  1  0.79023118  -0.00718443  0.40528900  1
  Pd  Pd161  1  0.40788606  0.80021321  0.00836563  1
  Pd  Pd162  1  0.40105713  0.20431956  0.39564725  1
  Pd  Pd163  1  0.39748501  0.80307388  0.60171637  1
  Pd  Pd164  1  0.39485803  0.41127601  0.79468704  1
  Pd  Pd165  1  0.80363465  0.58797255  0.00470209  1
  Pd  Pd166  1  -0.00391515  0.79516114  0.40916720  1
  Pd  Pd167  1  0.60019609  0.20274287  -0.01150781  1
  Pd  Pd168  1  0.40095811  0.60149720  0.20533143  1
  Pd  Pd169  1  0.79461823  0.79421883  0.58881333  1
  Pd  Pd170  1  0.80470936  0.79606916  0.80248325  1
  Pd  Pd171  1  0.20693104  -0.00658986  0.19503637  1
  Pd  Pd172  1  0.01033286  0.00346427  0.40896759  1
  Pd  Pd173  1  0.80018317  0.40357376  0.59818317  1
  Pd  Pd174  1  0.39505054  0.00360316  0.19722380  1
  Pd  Pd175  1  0.80400650  -0.00734036  0.00626863  1
  Pd  Pd176  1  0.60119041  0.39775030  -0.00346159  1
  Pd  Pd177  1  0.20021176  0.00117674  0.80526669  1
  Pd  Pd178  1  0.19510909  0.00200533  0.40761309  1
  Pd  Pd179  1  0.40257023  0.40495980  0.40161041  1
  Pd  Pd180  1  0.39722190  0.19926153  0.00498511  1
  Pd  Pd181  1  0.19801268  0.40202183  0.19928394  1
  Pd  Pd182  1  0.39720999  0.20618594  0.59974271  1
  Pd  Pd183  1  0.01272067  0.59568268  0.59101012  1
  Pd  Pd184  1  0.59065010  0.00476218  0.80619939  1
  Pd  Pd185  1  0.60525509  0.20577185  0.60054928  1
  Pd  Pd186  1  0.39973822  -0.01076929  0.60027351  1
  Pd  Pd187  1  0.80563767  0.19116034  0.61133545  1
  Pd  Pd188  1  0.19805799  0.39392556  0.79088075  1
  Pd  Pd189  1  0.19639252  0.59606266  0.59612565  1
  Pd  Pd190  1  0.60722453  0.40377194  0.59408690  1
  Pd  Pd191  1  0.60004002  0.00227874  0.20853310  1
  Pd  Pd192  1  0.40729317  -0.00028712  0.79674813  1
  Pd  Pd193  1  0.20820396  0.40658238  0.00028878  1
  Pd  Pd194  1  0.60192271  0.59550357  0.00350425  1
  Pd  Pd195  1  0.00434776  0.79129671  0.59806262  1
  Pd  Pd196  1  0.18935782  0.79618430  0.00691127  1
  Pd  Pd197  1  0.79052239  0.60991210  0.59714300  1
  Pd  Pd198  1  0.00876644  0.39631206  0.79678191  1
  Pd  Pd199  1  0.59957080  0.40632691  0.40367257  1
  Rh  Rh200  1  0.00108585  0.81032002  0.20524622  1
  Rh  Rh201  1  0.00256743  0.79331245  -0.01086187  1
  Rh  Rh202  1  0.80055357  0.21112306  0.39118829  1
  Rh  Rh203  1  0.38879302  0.59378100  -0.00903233  1
  Rh  Rh204  1  0.20384781  0.79908688  0.39694535  1
  Rh  Rh205  1  0.60333067  0.79313445  0.59547330  1
  Rh  Rh206  1  -0.00040239  0.60187935  0.40295599  1
  Rh  Rh207  1  0.59759936  0.20403119  0.19909799  1
  Rh  Rh208  1  0.40252615  0.39276646  0.20307705  1
  Rh  Rh209  1  0.60070160  0.59088026  0.38837813  1
  Rh  Rh210  1  0.60194779  0.40067704  0.80193306  1
  Rh  Rh211  1  0.78627028  0.60700810  0.80509406  1
  Rh  Rh212  1  0.60207319  0.80649550  0.40530198  1
  Rh  Rh213  1  -0.00354764  0.39975399  0.20424652  1
  Rh  Rh214  1  0.59719766  0.79242318  0.79729565  1
  Rh  Rh215  1  -0.00277938  0.00541327  -0.00339595  1
  Rh  Rh216  1  0.41296114  -0.00515102  0.40562977  1
  Rh  Rh217  1  -0.00595691  0.40263559  -0.00808589  1
  Rh  Rh218  1  0.20172120  -0.00814111  -0.00295914  1
  Rh  Rh219  1  0.80012475  0.81047988  0.00657952  1
  Rh  Rh220  1  0.21107083  0.20903235  0.60232245  1
  Rh  Rh221  1  0.80225607  0.40136215  0.00014460  1
  Rh  Rh222  1  0.40082001  -0.00866006  0.00283468  1
  Rh  Rh223  1  0.80576178  0.20001920  0.00045803  1
  Rh  Rh224  1  -0.00309955  -0.01253064  0.80229575  1
  Rh  Rh225  1  0.60418846  0.60259822  0.60788147  1
  Rh  Rh226  1  -0.00456289  0.00014475  0.59261457  1
  Rh  Rh227  1  0.19851588  0.39968190  0.40360268  1
  Rh  Rh228  1  0.39735252  0.59765327  0.39637809  1
  Rh  Rh229  1  -0.00087310  0.60878960  0.81193581  1
  Rh  Rh230  1  0.40008172  0.19299795  0.79967754  1
  Rh  Rh231  1  0.39968892  0.80186328  0.40603601  1
  Rh  Rh232  1  0.39501780  0.39728481  -0.00170948  1
  Rh  Rh233  1  -0.00791020  0.00177867  0.19898161  1
  Rh  Rh234  1  -0.00269550  0.59002209  0.19668712  1
  Rh  Rh235  1  0.80094213  0.60618213  0.39413877  1
  Rh  Rh236  1  0.20594599  -0.00879709  0.59550672  1
  Rh  Rh237  1  0.58977602  -0.00592667  -0.00720530  1
  Rh  Rh238  1  0.20832046  0.60560953  0.80797205  1
  Rh  Rh239  1  0.40222949  0.79449038  0.79170475  1
  Rh  Rh240  1  0.39723661  0.79814563  0.19562089  1
  Rh  Rh241  1  0.79348476  0.39242864  0.79977287  1
  Rh  Rh242  1  0.80081010  0.40145497  0.40235077  1
  Rh  Rh243  1  0.60012309  0.40813833  0.19977104  1
  Rh  Rh244  1  0.19994714  0.79979051  0.59940187  1
  Rh  Rh245  1  0.60634045  0.00146348  0.59076588  1
  Rh  Rh246  1  0.39890164  0.60525304  0.60615946  1
  Rh  Rh247  1  -0.00954667  0.20601610  0.60628137  1
  Rh  Rh248  1  0.39183357  0.40399627  0.59526417  1
  Rh  Rh249  1  0.01076154  0.19631017  0.38868444  1
