# generated using pymatgen
data_ZrScNbPdRh
_symmetry_space_group_name_H-M   'P 1'
_cell_length_a   16.56096906
_cell_length_b   16.55974680
_cell_length_c   16.56230126
_cell_angle_alpha   90.01366261
_cell_angle_beta   90.00441008
_cell_angle_gamma   90.01276091
_symmetry_Int_Tables_number   1
_chemical_formula_structural   ZrScNbPdRh
_chemical_formula_sum   'Zr50 Sc50 Nb50 Pd50 Rh50'
_cell_volume   4542.13557898
_cell_formula_units_Z   50
loop_
 _symmetry_equiv_pos_site_id
 _symmetry_equiv_pos_as_xyz
  1  'x, y, z'
loop_
 _atom_site_type_symbol
 _atom_site_label
 _atom_site_symmetry_multiplicity
 _atom_site_fract_x
 _atom_site_fract_y
 _atom_site_fract_z
 _atom_site_occupancy
  Zr  Zr0  1  0.09607000  0.50725805  0.70109481  1
  Zr  Zr1  1  0.70104147  0.48872843  0.89651257  1
  Zr  Zr2  1  0.69921719  0.88918765  0.70183671  1
  Zr  Zr3  1  0.69208746  0.31064953  0.70222704  1
  Zr  Zr4  1  0.30731867  0.10855840  0.70705061  1
  Zr  Zr5  1  0.09794927  0.69421110  0.10288758  1
  Zr  Zr6  1  0.10652359  0.89907140  0.30990739  1
  Zr  Zr7  1  0.10968889  0.90147734  0.50071652  1
  Zr  Zr8  1  0.69383235  0.09451374  0.90662523  1
  Zr  Zr9  1  0.89440223  0.89491596  0.10119679  1
  Zr  Zr10  1  0.50148169  0.30309415  0.29197268  1
  Zr  Zr11  1  0.69647763  0.50842978  0.70732863  1
  Zr  Zr12  1  0.69013831  0.30224474  0.09243659  1
  Zr  Zr13  1  0.90098501  0.30499690  0.09872352  1
  Zr  Zr14  1  0.70102472  0.89812429  0.09564677  1
  Zr  Zr15  1  0.30419309  0.10086684  0.10213389  1
  Zr  Zr16  1  0.89781350  0.50663412  0.09297389  1
  Zr  Zr17  1  0.49945754  0.90294827  0.69901584  1
  Zr  Zr18  1  0.70901051  0.50504750  0.30003804  1
  Zr  Zr19  1  0.70112680  0.69869681  0.29199204  1
  Zr  Zr20  1  0.51337412  0.10178466  0.50192026  1
  Zr  Zr21  1  0.50021835  0.29528451  0.50484678  1
  Zr  Zr22  1  0.30021669  0.30672632  0.50596264  1
  Zr  Zr23  1  0.68900843  0.90552109  0.50615621  1
  Zr  Zr24  1  0.29847095  0.69089361  0.70065837  1
  Zr  Zr25  1  0.68772965  0.69927412  0.89960441  1
  Zr  Zr26  1  0.89842152  0.49982935  0.89090338  1
  Zr  Zr27  1  0.30626227  0.49868676  0.89482914  1
  Zr  Zr28  1  0.49924508  0.89469399  0.49821601  1
  Zr  Zr29  1  0.70145992  0.90040742  0.89707099  1
  Zr  Zr30  1  0.09577495  0.09296826  0.50068891  1
  Zr  Zr31  1  0.50220147  0.69077610  0.69454544  1
  Zr  Zr32  1  0.69371984  0.09630388  0.10374865  1
  Zr  Zr33  1  0.09781114  0.89632875  0.10289651  1
  Zr  Zr34  1  0.49759757  0.48992057  0.09765818  1
  Zr  Zr35  1  0.70502776  0.30068660  0.30110149  1
  Zr  Zr36  1  0.29991472  0.11094841  0.49594055  1
  Zr  Zr37  1  0.89863953  0.10158872  0.69478856  1
  Zr  Zr38  1  0.10641436  0.68672000  0.89716807  1
  Zr  Zr39  1  0.50482637  0.69812942  0.09628423  1
  Zr  Zr40  1  0.49300768  0.09701674  0.89734012  1
  Zr  Zr41  1  0.49442600  0.70311266  0.49739196  1
  Zr  Zr42  1  0.69981954  0.29049065  0.50363490  1
  Zr  Zr43  1  0.90348501  0.10183027  0.30326208  1
  Zr  Zr44  1  0.09900565  0.10949905  0.70082441  1
  Zr  Zr45  1  0.09925222  0.89913544  0.68796230  1
  Zr  Zr46  1  0.70787729  0.69903887  0.10142010  1
  Zr  Zr47  1  0.89698962  0.10754154  0.50384369  1
  Zr  Zr48  1  0.09881023  0.30136400  0.88982692  1
  Zr  Zr49  1  0.10074933  0.70300751  0.50053703  1
  Sc  Sc50  1  0.50231243  0.49960543  0.29187714  1
  Sc  Sc51  1  0.30297440  0.70240004  0.09785777  1
  Sc  Sc52  1  0.29771087  0.49079758  0.10187245  1
  Sc  Sc53  1  0.70374150  0.09032543  0.68845192  1
  Sc  Sc54  1  0.89352153  0.89912433  0.90305219  1
  Sc  Sc55  1  0.69349155  0.90425031  0.28503064  1
  Sc  Sc56  1  0.10469908  0.30530417  0.49923834  1
  Sc  Sc57  1  0.69773742  0.10153140  0.29375629  1
  Sc  Sc58  1  0.09521381  0.10200791  0.09910566  1
  Sc  Sc59  1  0.89135408  0.89688812  0.70204398  1
  Sc  Sc60  1  0.90202041  0.69187289  0.90901903  1
  Sc  Sc61  1  0.69667458  0.70665385  0.50840572  1
  Sc  Sc62  1  0.49355631  0.89465225  0.10484814  1
  Sc  Sc63  1  0.90225552  0.29334835  0.30773607  1
  Sc  Sc64  1  0.49464234  0.30025384  0.09941528  1
  Sc  Sc65  1  0.89949466  0.29803186  0.49812706  1
  Sc  Sc66  1  0.90103945  0.50615124  0.31633715  1
  Sc  Sc67  1  0.30431146  0.49465010  0.69431043  1
  Sc  Sc68  1  0.89303763  0.08859658  0.89921477  1
  Sc  Sc69  1  0.90041311  0.69285726  0.49693381  1
  Sc  Sc70  1  0.10179346  0.49699045  0.49605764  1
  Sc  Sc71  1  0.30468009  0.89720942  0.11401980  1
  Sc  Sc72  1  0.10700244  0.30500092  0.09646456  1
  Sc  Sc73  1  0.91985170  0.90362595  0.50025945  1
  Sc  Sc74  1  0.10308874  0.49820908  0.89759068  1
  Sc  Sc75  1  0.10277461  0.10833425  0.89820585  1
  Sc  Sc76  1  0.29507865  0.69759121  0.30802103  1
  Sc  Sc77  1  0.89352016  0.09594384  0.10455768  1
  Sc  Sc78  1  0.29933925  0.30104347  0.30482166  1
  Sc  Sc79  1  0.49314398  0.50802176  0.51067963  1
  Sc  Sc80  1  0.90911495  0.29892832  0.69565463  1
  Sc  Sc81  1  0.30438563  0.10860985  0.90042668  1
  Sc  Sc82  1  0.08994084  0.89940598  0.90615445  1
  Sc  Sc83  1  0.49561939  0.30467247  0.69483567  1
  Sc  Sc84  1  0.69819443  0.50803393  0.09946834  1
  Sc  Sc85  1  0.30612937  0.69452897  0.50153149  1
  Sc  Sc86  1  0.29852766  0.30110726  0.89988112  1
  Sc  Sc87  1  0.30315576  0.68831656  0.90425572  1
  Sc  Sc88  1  0.50581400  0.89918009  0.90322147  1
  Sc  Sc89  1  0.50279833  0.09903821  0.29151650  1
  Sc  Sc90  1  0.49959072  0.10811452  0.09926011  1
  Sc  Sc91  1  0.10337270  0.30656211  0.69659628  1
  Sc  Sc92  1  0.50019399  0.30875748  0.90912910  1
  Sc  Sc93  1  0.30219947  0.89837652  0.69055533  1
  Sc  Sc94  1  0.31651792  0.90422084  0.90318597  1
  Sc  Sc95  1  0.49797211  0.49711719  0.70499900  1
  Sc  Sc96  1  0.89642352  0.31794671  0.89597952  1
  Sc  Sc97  1  0.89922373  0.69102773  0.30310174  1
  Sc  Sc98  1  0.10694396  0.50418778  0.10322677  1
  Sc  Sc99  1  0.89518910  0.68912017  0.69635896  1
  Nb  Nb100  1  0.69824596  0.30078649  0.89640336  1
  Nb  Nb101  1  0.30052089  0.91100473  0.30186789  1
  Nb  Nb102  1  0.29945925  0.49957001  0.48947504  1
  Nb  Nb103  1  0.10647740  0.50452425  0.30046984  1
  Nb  Nb104  1  0.30528150  0.29796982  0.10088035  1
  Nb  Nb105  1  0.70814494  0.49752743  0.48909354  1
  Nb  Nb106  1  0.10278010  0.69943150  0.70257044  1
  Nb  Nb107  1  0.89824208  0.90099433  0.29956313  1
  Nb  Nb108  1  0.49288383  0.89687683  0.30032203  1
  Nb  Nb109  1  0.49764545  0.50444943  0.89818415  1
  Nb  Nb110  1  0.70342221  0.09957370  0.50067505  1
  Nb  Nb111  1  0.50051118  0.69771515  0.30282844  1
  Nb  Nb112  1  0.29459022  0.09272583  0.30032110  1
  Nb  Nb113  1  0.30345856  0.90430336  0.49698686  1
  Nb  Nb114  1  0.29893253  0.50215910  0.30822434  1
  Nb  Nb115  1  0.09585968  0.68825883  0.30155143  1
  Nb  Nb116  1  0.89136984  0.50169199  0.50024187  1
  Nb  Nb117  1  0.90093884  0.69745843  0.10671677  1
  Nb  Nb118  1  0.10308359  0.10048234  0.30246282  1
  Nb  Nb119  1  0.89685676  0.49957887  0.69704001  1
  Nb  Nb120  1  0.69624851  0.70417479  0.70228189  1
  Nb  Nb121  1  0.30336742  0.30307573  0.69735994  1
  Nb  Nb122  1  0.09765550  0.30456455  0.29815691  1
  Nb  Nb123  1  0.49696201  0.10207956  0.70143885  1
  Nb  Nb124  1  0.49186456  0.69680941  0.90308071  1
  Nb  Nb125  1  0.00700798  0.79512390  0.79653728  1
  Nb  Nb126  1  0.19828675  -0.00534730  0.80292943  1
  Nb  Nb127  1  0.19937281  0.19802324  0.20612436  1
  Nb  Nb128  1  0.79794298  -0.00181493  0.40166969  1
  Nb  Nb129  1  0.79956805  0.81091294  0.39698776  1
  Nb  Nb130  1  0.60019071  0.59852576  0.39909499  1
  Nb  Nb131  1  0.59915933  0.40391157  0.40437342  1
  Nb  Nb132  1  -0.00858750  0.20540994  -0.00300601  1
  Nb  Nb133  1  0.20011189  0.80379237  -0.00448418  1
  Nb  Nb134  1  0.40344628  0.40399304  0.40088876  1
  Nb  Nb135  1  0.79694072  0.20500084  -0.00578449  1
  Nb  Nb136  1  0.20122976  -0.00387142  -0.00096354  1
  Nb  Nb137  1  -0.00112145  0.79636284  0.20517864  1
  Nb  Nb138  1  0.39990096  0.79234267  0.79961091  1
  Nb  Nb139  1  0.00192337  -0.00532966  0.20897821  1
  Nb  Nb140  1  0.40196073  0.59893268  0.20551645  1
  Nb  Nb141  1  0.00218466  0.40490522  0.20763272  1
  Nb  Nb142  1  0.80708392  0.40225750  0.20119135  1
  Nb  Nb143  1  0.79128802  0.20281008  0.80292065  1
  Nb  Nb144  1  0.60068771  0.19843537  0.80083289  1
  Nb  Nb145  1  0.20016263  0.80231382  0.80330060  1
  Nb  Nb146  1  0.00532820  -0.00389535  0.79508952  1
  Nb  Nb147  1  0.40237041  0.00582210  0.59243277  1
  Nb  Nb148  1  0.80008529  0.40915975  0.59819470  1
  Nb  Nb149  1  0.39857567  -0.00063292  0.39804184  1
  Pd  Pd150  1  0.20210121  0.39993024  -0.00340269  1
  Pd  Pd151  1  0.00139139  0.59883342  0.59465718  1
  Pd  Pd152  1  0.61037835  0.40388070  0.20245044  1
  Pd  Pd153  1  0.60072133  -0.00039380  0.38856571  1
  Pd  Pd154  1  0.39381136  0.20037365  0.20556224  1
  Pd  Pd155  1  0.00944502  0.40305543  0.00380698  1
  Pd  Pd156  1  0.79017300  0.59939272  0.59721783  1
  Pd  Pd157  1  0.39942756  -0.00142542  0.00943012  1
  Pd  Pd158  1  0.79834760  0.60799002  0.80518356  1
  Pd  Pd159  1  0.58847788  -0.00534841  0.00913237  1
  Pd  Pd160  1  0.60363764  0.41266270  0.59264619  1
  Pd  Pd161  1  0.60444272  0.00562238  0.79289845  1
  Pd  Pd162  1  0.21161126  0.00932162  0.60517441  1
  Pd  Pd163  1  0.60685600  0.59643857  0.59292849  1
  Pd  Pd164  1  0.19633277  0.19692285  0.00575672  1
  Pd  Pd165  1  0.00249726  0.79132489  -0.00099843  1
  Pd  Pd166  1  0.80975750  0.78775281  0.80641656  1
  Pd  Pd167  1  0.60838976  0.79615902  0.39410206  1
  Pd  Pd168  1  0.19847848  0.20511666  0.60356256  1
  Pd  Pd169  1  0.80880995  0.80309509  0.58949703  1
  Pd  Pd170  1  0.39037189  0.80331352  0.39389426  1
  Pd  Pd171  1  0.40931474  0.21558421  0.80620902  1
  Pd  Pd172  1  0.39498319  0.59284249  0.01149043  1
  Pd  Pd173  1  0.19339048  0.00538816  0.19253772  1
  Pd  Pd174  1  -0.00843746  0.79181482  0.60607578  1
  Pd  Pd175  1  0.21246572  0.60285348  0.19948343  1
  Pd  Pd176  1  0.58777615  0.79510047  0.80114541  1
  Pd  Pd177  1  0.19803093  0.79234888  0.20153314  1
  Pd  Pd178  1  0.40509376  0.19902622  0.39171869  1
  Pd  Pd179  1  0.00462268  0.59225074  -0.00195729  1
  Pd  Pd180  1  0.59558084  0.80107456  0.19710250  1
  Pd  Pd181  1  0.00741551  0.20330258  0.19409692  1
  Pd  Pd182  1  0.79757271  0.20537478  0.19276872  1
  Pd  Pd183  1  -0.00498805  0.79376807  0.39439205  1
  Pd  Pd184  1  0.60141995  0.59330344  -0.00298778  1
  Pd  Pd185  1  0.39574742  0.79001762  0.20995414  1
  Pd  Pd186  1  0.20952581  0.79435228  0.59924573  1
  Pd  Pd187  1  0.19415747  0.20586204  0.39610200  1
  Pd  Pd188  1  -0.01548668  0.19535957  0.81072684  1
  Pd  Pd189  1  0.20329429  0.40281546  0.79256915  1
  Pd  Pd190  1  0.00104538  0.00873165  -0.00067879  1
  Pd  Pd191  1  0.20718452  0.79539944  0.40218726  1
  Pd  Pd192  1  0.20092917  0.39503077  0.20566961  1
  Pd  Pd193  1  -0.00479512  0.40266895  0.59569417  1
  Pd  Pd194  1  0.79981679  0.79240466  -0.00636629  1
  Pd  Pd195  1  0.60194215  0.20188897  0.39190131  1
  Pd  Pd196  1  0.00000336  0.40361639  0.39858622  1
  Pd  Pd197  1  0.20168944  0.59369556  0.59292739  1
  Pd  Pd198  1  0.80717437  -0.01139170  0.59163181  1
  Pd  Pd199  1  0.00888099  0.20255055  0.40635175  1
  Rh  Rh200  1  0.59503762  0.00335814  0.60593300  1
  Rh  Rh201  1  0.40260093  0.19769399  0.60231842  1
  Rh  Rh202  1  0.80142657  0.00258756  0.79503608  1
  Rh  Rh203  1  0.59502064  0.79550432  0.60483475  1
  Rh  Rh204  1  0.00049460  0.40623524  0.79298784  1
  Rh  Rh205  1  0.79212227  0.40081249  0.00782331  1
  Rh  Rh206  1  -0.00251003  0.59589384  0.20520427  1
  Rh  Rh207  1  0.40510981  0.00158920  0.20625072  1
  Rh  Rh208  1  0.39746462  0.79770298  -0.00642604  1
  Rh  Rh209  1  0.59081135  -0.00412335  0.19615264  1
  Rh  Rh210  1  0.40866618  0.59225275  0.39282215  1
  Rh  Rh211  1  0.20561359  0.00244862  0.40554467  1
  Rh  Rh212  1  0.78983633  0.61866076  0.40720147  1
  Rh  Rh213  1  0.40160676  0.39786698  0.80094569  1
  Rh  Rh214  1  0.00639207  0.59596638  0.40665283  1
  Rh  Rh215  1  -0.00444979  0.60146751  0.79677273  1
  Rh  Rh216  1  0.39813874  0.40378979  0.59459710  1
  Rh  Rh217  1  0.80662184  0.39419729  0.78484727  1
  Rh  Rh218  1  0.59934120  0.40588881  -0.00271908  1
  Rh  Rh219  1  0.20561193  0.20424644  0.79532140  1
  Rh  Rh220  1  0.79462156  0.19030393  0.40027175  1
  Rh  Rh221  1  0.60365862  0.19270917  0.61257013  1
  Rh  Rh222  1  -0.00377694  0.00291017  0.60718997  1
  Rh  Rh223  1  0.40427943  0.59996727  0.79777921  1
  Rh  Rh224  1  0.39199464  -0.00875494  0.78918971  1
  Rh  Rh225  1  0.79769133  0.00275837  0.00530162  1
  Rh  Rh226  1  0.59821876  0.80150623  0.00131168  1
  Rh  Rh227  1  0.58687902  0.39890307  0.80532322  1
  Rh  Rh228  1  0.59793166  0.19942940  -0.00605338  1
  Rh  Rh229  1  0.39999347  0.80217837  0.60463552  1
  Rh  Rh230  1  0.80029616  0.38982951  0.40244964  1
  Rh  Rh231  1  0.59569679  0.60100412  0.80346229  1
  Rh  Rh232  1  0.38874821  0.40513801  0.20775421  1
  Rh  Rh233  1  0.79392283  0.60136277  -0.00584849  1
  Rh  Rh234  1  0.20290434  0.40597445  0.60154709  1
  Rh  Rh235  1  0.80492180  0.00140940  0.20483470  1
  Rh  Rh236  1  0.79438304  0.21237595  0.61130649  1
  Rh  Rh237  1  0.81126981  0.59344766  0.20060131  1
  Rh  Rh238  1  0.19383969  0.60322093  0.40520074  1
  Rh  Rh239  1  0.20429514  0.39932760  0.39664500  1
  Rh  Rh240  1  0.00801791  0.20559697  0.59242419  1
  Rh  Rh241  1  0.39455017  0.59584118  0.60098939  1
  Rh  Rh242  1  -0.00203996  0.00371599  0.39595561  1
  Rh  Rh243  1  0.39357473  0.39975812  -0.00191724  1
  Rh  Rh244  1  0.80750710  0.79646838  0.20563060  1
  Rh  Rh245  1  0.20465621  0.60090369  0.00466121  1
  Rh  Rh246  1  0.20408626  0.59418911  0.79641921  1
  Rh  Rh247  1  0.59918818  0.20287703  0.19741563  1
  Rh  Rh248  1  0.40034321  0.20514667  -0.00143872  1
  Rh  Rh249  1  0.59129648  0.60278712  0.20220777  1
