# generated using pymatgen
data_ZrScNbPdRh
_symmetry_space_group_name_H-M   'P 1'
_cell_length_a   16.56327508
_cell_length_b   16.56178091
_cell_length_c   16.56430798
_cell_angle_alpha   89.98812932
_cell_angle_beta   89.96668504
_cell_angle_gamma   89.96786729
_symmetry_Int_Tables_number   1
_chemical_formula_structural   ZrScNbPdRh
_chemical_formula_sum   'Zr50 Sc50 Nb50 Pd50 Rh50'
_cell_volume   4543.87520954
_cell_formula_units_Z   50
loop_
 _symmetry_equiv_pos_site_id
 _symmetry_equiv_pos_as_xyz
  1  'x, y, z'
loop_
 _atom_site_type_symbol
 _atom_site_label
 _atom_site_symmetry_multiplicity
 _atom_site_fract_x
 _atom_site_fract_y
 _atom_site_fract_z
 _atom_site_occupancy
  Zr  Zr0  1  0.69152711  0.50964758  0.09529211  1
  Zr  Zr1  1  0.90482783  0.50200688  0.09988988  1
  Zr  Zr2  1  0.49808901  0.88981612  0.50399064  1
  Zr  Zr3  1  0.50195819  0.89300566  0.70197658  1
  Zr  Zr4  1  0.29501904  0.30091029  0.30148195  1
  Zr  Zr5  1  0.69855008  0.50293883  0.30507612  1
  Zr  Zr6  1  0.30110710  0.90308597  0.29628483  1
  Zr  Zr7  1  0.30258551  0.90303985  0.50001370  1
  Zr  Zr8  1  0.49837713  0.09333434  0.28712104  1
  Zr  Zr9  1  0.70246395  0.09338232  0.29522814  1
  Zr  Zr10  1  0.49849737  0.30102475  0.50767025  1
  Zr  Zr11  1  0.49077168  0.49868430  0.69844677  1
  Zr  Zr12  1  0.29753406  0.50190961  0.10180951  1
  Zr  Zr13  1  0.10127614  0.89871566  0.69301200  1
  Zr  Zr14  1  0.28711527  0.29914718  0.90016435  1
  Zr  Zr15  1  0.29549330  0.69828182  0.50137855  1
  Zr  Zr16  1  0.89099201  0.30213492  0.89790106  1
  Zr  Zr17  1  0.10014201  0.09409561  0.50299492  1
  Zr  Zr18  1  0.69770592  0.70880040  0.10177206  1
  Zr  Zr19  1  0.09788547  0.49410713  0.90216195  1
  Zr  Zr20  1  0.50424225  0.50025905  0.89453500  1
  Zr  Zr21  1  0.29877340  0.70593131  0.10108280  1
  Zr  Zr22  1  0.10099011  0.70486302  0.10237537  1
  Zr  Zr23  1  0.09788473  0.70368612  0.69167089  1
  Zr  Zr24  1  0.70399598  0.50211073  0.49868534  1
  Zr  Zr25  1  0.89420687  0.09471165  0.70559927  1
  Zr  Zr26  1  0.30194792  0.09673184  0.30349748  1
  Zr  Zr27  1  0.69935121  0.69445811  0.48844065  1
  Zr  Zr28  1  0.70661298  0.10318685  0.50888464  1
  Zr  Zr29  1  0.89817226  0.70131012  0.50451204  1
  Zr  Zr30  1  0.10139606  0.70006673  0.90435198  1
  Zr  Zr31  1  0.49831853  0.90154177  0.30588784  1
  Zr  Zr32  1  0.29271193  0.69897018  0.29593905  1
  Zr  Zr33  1  0.49054037  0.09671565  0.50798010  1
  Zr  Zr34  1  0.30637604  0.88814119  0.90509414  1
  Zr  Zr35  1  0.70300281  0.29863879  0.50860871  1
  Zr  Zr36  1  0.89437554  0.10278775  0.30170325  1
  Zr  Zr37  1  0.69871398  0.89624994  0.50352857  1
  Zr  Zr38  1  0.09785190  0.09574909  0.69353589  1
  Zr  Zr39  1  0.69803617  0.29979549  0.09588266  1
  Zr  Zr40  1  0.09435011  0.90259360  0.50336993  1
  Zr  Zr41  1  0.10033293  0.50175531  0.70142635  1
  Zr  Zr42  1  0.50341434  0.68979639  0.10206125  1
  Zr  Zr43  1  0.09611402  0.89310456  0.90621865  1
  Zr  Zr44  1  0.10343932  0.30405372  0.69933112  1
  Zr  Zr45  1  0.29594364  0.09913257  0.49884462  1
  Zr  Zr46  1  0.69709779  0.90627376  0.70350114  1
  Zr  Zr47  1  0.50700340  0.70384903  0.30137024  1
  Zr  Zr48  1  0.70415410  0.50325717  0.89380298  1
  Zr  Zr49  1  0.30433677  0.69389956  0.70309235  1
  Sc  Sc50  1  0.50205883  0.28691720  0.09451102  1
  Sc  Sc51  1  0.50143762  0.28935473  0.89686870  1
  Sc  Sc52  1  0.30518990  0.89374918  0.69968060  1
  Sc  Sc53  1  0.89808490  0.30921658  0.69492961  1
  Sc  Sc54  1  0.11026041  0.09339430  0.30828715  1
  Sc  Sc55  1  0.49609653  0.09714169  0.70218525  1
  Sc  Sc56  1  0.91099254  0.70029413  0.10073189  1
  Sc  Sc57  1  0.89365702  0.89123664  0.70196104  1
  Sc  Sc58  1  0.31112216  0.09704205  0.10928711  1
  Sc  Sc59  1  0.89578070  0.50593992  0.51114100  1
  Sc  Sc60  1  0.90526691  0.09871097  0.50693619  1
  Sc  Sc61  1  0.49783807  0.30192370  0.69912128  1
  Sc  Sc62  1  0.51363016  0.30582173  0.29284302  1
  Sc  Sc63  1  0.70708420  0.29433021  0.29655082  1
  Sc  Sc64  1  0.90676747  0.49788374  0.28963933  1
  Sc  Sc65  1  0.10414218  0.50863853  0.50734981  1
  Sc  Sc66  1  0.51218670  0.50218302  0.50514581  1
  Sc  Sc67  1  0.70070542  0.89315593  0.29145047  1
  Sc  Sc68  1  0.10144721  0.49596543  0.29024456  1
  Sc  Sc69  1  0.89968919  0.70410561  0.30436407  1
  Sc  Sc70  1  0.10825158  0.30321134  0.29481575  1
  Sc  Sc71  1  0.09888805  0.89570873  0.30748108  1
  Sc  Sc72  1  0.89668013  0.50544150  0.90349262  1
  Sc  Sc73  1  0.29629905  0.50034286  0.50341613  1
  Sc  Sc74  1  0.50115578  0.71261704  0.90183509  1
  Sc  Sc75  1  0.69813711  0.10781583  0.89001995  1
  Sc  Sc76  1  0.49840160  0.90170511  0.89475134  1
  Sc  Sc77  1  0.89792661  0.30140294  0.28948069  1
  Sc  Sc78  1  0.70241552  0.49226664  0.69970893  1
  Sc  Sc79  1  0.90550158  0.89698022  0.30369634  1
  Sc  Sc80  1  0.30294146  0.10233012  0.69392814  1
  Sc  Sc81  1  0.10384852  0.11127324  0.90713810  1
  Sc  Sc82  1  0.09289495  0.50134217  0.09814955  1
  Sc  Sc83  1  0.70230361  0.09998544  0.10707143  1
  Sc  Sc84  1  0.29658640  0.29641888  0.09911174  1
  Sc  Sc85  1  0.51013501  0.50600697  0.29171486  1
  Sc  Sc86  1  0.30778364  0.10338141  0.90349216  1
  Sc  Sc87  1  0.89667003  0.30212398  0.09858094  1
  Sc  Sc88  1  0.89500525  0.50332577  0.69955001  1
  Sc  Sc89  1  0.49367341  0.89394708  0.10109224  1
  Sc  Sc90  1  0.29061960  0.50424883  0.30051714  1
  Sc  Sc91  1  0.29434335  0.50216330  0.88732512  1
  Sc  Sc92  1  0.89022189  0.09822113  0.09454323  1
  Sc  Sc93  1  0.70033568  0.70087547  0.90296023  1
  Sc  Sc94  1  0.10486488  0.30405415  0.09034497  1
  Sc  Sc95  1  0.10270522  0.70403904  0.50454886  1
  Sc  Sc96  1  0.49731559  0.10152258  0.90097249  1
  Sc  Sc97  1  0.29321518  0.29912633  0.50376212  1
  Sc  Sc98  1  0.69503402  0.90134467  0.88977180  1
  Sc  Sc99  1  0.89281228  0.09987000  0.90307380  1
  Nb  Nb100  1  0.30126751  0.70049360  0.90410808  1
  Nb  Nb101  1  0.70330293  0.29583740  0.71237092  1
  Nb  Nb102  1  0.50446729  0.09771492  0.09397124  1
  Nb  Nb103  1  0.69433514  0.30507766  0.89140562  1
  Nb  Nb104  1  0.09637305  0.69528079  0.30396895  1
  Nb  Nb105  1  0.90216622  0.90085666  0.90270001  1
  Nb  Nb106  1  0.09768997  0.09641277  0.10098950  1
  Nb  Nb107  1  0.09322079  0.29387245  0.49834201  1
  Nb  Nb108  1  0.90723207  0.90004180  0.49371813  1
  Nb  Nb109  1  0.70275231  0.69506777  0.30107619  1
  Nb  Nb110  1  0.09804489  0.30068877  0.89433306  1
  Nb  Nb111  1  0.30252117  0.31363447  0.69729838  1
  Nb  Nb112  1  0.70453769  0.09651406  0.70432482  1
  Nb  Nb113  1  0.89806341  0.70731070  0.89407627  1
  Nb  Nb114  1  0.09549788  0.89756621  0.09757537  1
  Nb  Nb115  1  0.89903048  0.29969240  0.49522265  1
  Nb  Nb116  1  0.50115582  0.69872962  0.69331908  1
  Nb  Nb117  1  0.90223022  0.90585400  0.09271349  1
  Nb  Nb118  1  0.50050544  0.69963067  0.50189152  1
  Nb  Nb119  1  0.50054163  0.49973966  0.09793936  1
  Nb  Nb120  1  0.29068552  0.89515628  0.10135115  1
  Nb  Nb121  1  0.29962026  0.49194270  0.69905631  1
  Nb  Nb122  1  0.70861694  0.90784619  0.10273827  1
  Nb  Nb123  1  0.89661199  0.69889989  0.70579650  1
  Nb  Nb124  1  0.70751462  0.70862762  0.71037107  1
  Nb  Nb125  1  0.40200007  0.40328251  0.19733278  1
  Nb  Nb126  1  0.40579869  0.20480128  0.39748403  1
  Nb  Nb127  1  0.40317092  0.40219722  0.39539000  1
  Nb  Nb128  1  0.59852703  0.39936652  -0.00503411  1
  Nb  Nb129  1  0.00351016  0.00035976  0.80519337  1
  Nb  Nb130  1  0.39898685  0.59805876  -0.00187384  1
  Nb  Nb131  1  0.00533370  0.19155051  0.19808948  1
  Nb  Nb132  1  0.19960601  -0.00550680  0.00510095  1
  Nb  Nb133  1  0.00157309  0.00042808  0.19292705  1
  Nb  Nb134  1  0.00176609  0.59810893  0.39963066  1
  Nb  Nb135  1  0.60275381  0.00263669  0.40412775  1
  Nb  Nb136  1  0.80671838  0.81010503  0.00051798  1
  Nb  Nb137  1  0.40375201  0.60067755  0.39991972  1
  Nb  Nb138  1  0.40293414  0.40382865  0.00140648  1
  Nb  Nb139  1  0.80639305  0.39895605  0.40356434  1
  Nb  Nb140  1  0.79804366  -0.00181416  0.40419448  1
  Nb  Nb141  1  0.19738564  -0.00295029  0.80771944  1
  Nb  Nb142  1  0.00095925  0.20537591  0.39894990  1
  Nb  Nb143  1  -0.00126707  0.39744899  0.40584538  1
  Nb  Nb144  1  0.59864963  0.60692042  0.79070217  1
  Nb  Nb145  1  0.59842714  0.19257542  0.40333011  1
  Nb  Nb146  1  0.00222116  0.20302828  0.80125283  1
  Nb  Nb147  1  0.79590322  0.60515058  0.20066428  1
  Nb  Nb148  1  -0.00351217  0.60837466  0.80017880  1
  Nb  Nb149  1  0.60033362  0.00177825  0.00622006  1
  Pd  Pd150  1  0.20786302  0.18845638  0.00983972  1
  Pd  Pd151  1  0.60415096  0.39798692  0.61003046  1
  Pd  Pd152  1  0.80644983  0.61361780  0.00595676  1
  Pd  Pd153  1  0.20392554  0.80128005  0.79842373  1
  Pd  Pd154  1  0.40061540  -0.00283373  0.00509070  1
  Pd  Pd155  1  0.79889668  0.80046704  0.59953196  1
  Pd  Pd156  1  0.61077906  0.60565336  0.60763623  1
  Pd  Pd157  1  0.39816854  0.39039789  0.80960179  1
  Pd  Pd158  1  0.19500824  0.19683312  0.19652415  1
  Pd  Pd159  1  0.00011802  0.40585037  0.59418833  1
  Pd  Pd160  1  0.19705148  0.80267845  0.40071551  1
  Pd  Pd161  1  0.19546983  0.40451463  0.40691392  1
  Pd  Pd162  1  0.80961398  0.79788722  0.19472281  1
  Pd  Pd163  1  -0.00919352  0.40393780  0.80043316  1
  Pd  Pd164  1  0.79156202  0.19916714  -0.00285607  1
  Pd  Pd165  1  0.19393842  0.60256475  0.79713287  1
  Pd  Pd166  1  0.39768296  0.59449429  0.59184392  1
  Pd  Pd167  1  0.40317032  0.20937377  0.20410624  1
  Pd  Pd168  1  0.19180518  0.59877954  0.19657759  1
  Pd  Pd169  1  0.79859587  0.80720799  0.39750958  1
  Pd  Pd170  1  0.78647524  -0.00098515  -0.01085339  1
  Pd  Pd171  1  0.59545711  0.19475710  0.79203136  1
  Pd  Pd172  1  0.79111590  0.60495724  0.60939582  1
  Pd  Pd173  1  0.40073915  0.80011858  0.19963590  1
  Pd  Pd174  1  -0.00207527  0.39383988  -0.00012190  1
  Pd  Pd175  1  -0.00680151  0.20277882  0.60341292  1
  Pd  Pd176  1  0.60271073  0.19902530  0.20154398  1
  Pd  Pd177  1  0.79358914  0.40856902  0.20183261  1
  Pd  Pd178  1  -0.00047743  0.80175379  0.79569439  1
  Pd  Pd179  1  0.39220872  -0.00069173  0.79824280  1
  Pd  Pd180  1  0.19597970  0.40025445  0.59377807  1
  Pd  Pd181  1  -0.00386805  0.20395994  0.00044621  1
  Pd  Pd182  1  0.39439130  0.20579430  0.79483171  1
  Pd  Pd183  1  0.80689695  0.20363156  0.60974890  1
  Pd  Pd184  1  0.60770744  0.78983903  0.60246889  1
  Pd  Pd185  1  0.40700321  0.60823734  0.80738238  1
  Pd  Pd186  1  0.59852683  0.80558178  0.19845814  1
  Pd  Pd187  1  0.39560123  0.79059342  0.39936911  1
  Pd  Pd188  1  0.80818406  -0.00870715  0.59649901  1
  Pd  Pd189  1  0.20411948  0.59641992  -0.00046948  1
  Pd  Pd190  1  0.59604773  0.00253235  0.60166430  1
  Pd  Pd191  1  0.60466417  0.39182721  0.40083792  1
  Pd  Pd192  1  0.00379027  0.00810029  -0.00314947  1
  Pd  Pd193  1  0.19917109  0.19407891  0.79250825  1
  Pd  Pd194  1  0.00062866  0.80575478  0.20294933  1
  Pd  Pd195  1  0.60706619  0.81422460  0.00152900  1
  Pd  Pd196  1  0.59967139  0.19587459  0.60819395  1
  Pd  Pd197  1  0.79349423  0.40283480  -0.00064737  1
  Pd  Pd198  1  0.19359158  -0.00498223  0.19664981  1
  Pd  Pd199  1  0.20303342  0.20257847  0.60406300  1
  Rh  Rh200  1  0.59682987  0.00769884  0.80480336  1
  Rh  Rh201  1  0.59062316  0.60274390  0.40099995  1
  Rh  Rh202  1  0.80341551  0.40198180  0.79779579  1
  Rh  Rh203  1  -0.00205319  0.60464143  0.60309689  1
  Rh  Rh204  1  0.20055353  0.80150144  0.00184801  1
  Rh  Rh205  1  0.20423662  0.39998018  0.19113068  1
  Rh  Rh206  1  0.20154683  0.40373512  -0.00383474  1
  Rh  Rh207  1  0.81518037  0.58936219  0.38729863  1
  Rh  Rh208  1  0.60580938  0.19679485  -0.00325310  1
  Rh  Rh209  1  0.59728022  0.79388290  0.79618472  1
  Rh  Rh210  1  0.00404959  0.78882602  0.40610058  1
  Rh  Rh211  1  0.39306703  0.20790566  0.59935471  1
  Rh  Rh212  1  0.19889908  0.19859136  0.40196291  1
  Rh  Rh213  1  -0.00280842  0.60469203  -0.00951428  1
  Rh  Rh214  1  0.59961366  0.40331759  0.79859486  1
  Rh  Rh215  1  0.81304261  -0.00817710  0.20826421  1
  Rh  Rh216  1  0.39740508  0.20468543  0.00043810  1
  Rh  Rh217  1  0.79697015  0.39652966  0.59861857  1
  Rh  Rh218  1  -0.00705046  0.79341169  0.00069122  1
  Rh  Rh219  1  0.40103683  0.79384044  0.00509939  1
  Rh  Rh220  1  -0.00990781  -0.00962610  0.60868643  1
  Rh  Rh221  1  0.40249473  0.79322796  0.79735414  1
  Rh  Rh222  1  0.20560442  0.59872519  0.60905213  1
  Rh  Rh223  1  -0.00964994  0.80078255  0.59824216  1
  Rh  Rh224  1  0.59292235  0.59863818  -0.01294002  1
  Rh  Rh225  1  0.20876092  -0.00467301  0.60682755  1
  Rh  Rh226  1  0.39700719  0.40404211  0.59267766  1
  Rh  Rh227  1  0.60509427  0.80204743  0.39947160  1
  Rh  Rh228  1  0.20086437  0.40024333  0.79900579  1
  Rh  Rh229  1  -0.00648372  0.00908441  0.39328577  1
  Rh  Rh230  1  0.79904479  0.60102347  0.79734763  1
  Rh  Rh231  1  0.20072156  -0.00794214  0.40369750  1
  Rh  Rh232  1  0.19118987  0.80326727  0.20580148  1
  Rh  Rh233  1  0.80594582  0.20216690  0.18957965  1
  Rh  Rh234  1  0.59413128  -0.00825006  0.19340637  1
  Rh  Rh235  1  0.19612101  0.60012497  0.39791330  1
  Rh  Rh236  1  0.80308136  -0.00354133  0.80507796  1
  Rh  Rh237  1  0.00716338  0.38707564  0.19856003  1
  Rh  Rh238  1  0.40532944  0.00574502  0.40050621  1
  Rh  Rh239  1  0.80039597  0.20114425  0.40212289  1
  Rh  Rh240  1  -0.00262339  0.60472840  0.20784630  1
  Rh  Rh241  1  0.39742676  0.79568987  0.60101223  1
  Rh  Rh242  1  0.20850408  0.80089182  0.59988178  1
  Rh  Rh243  1  0.60759657  0.60313470  0.20381501  1
  Rh  Rh244  1  0.39872801  -0.00741530  0.60616927  1
  Rh  Rh245  1  0.40139433  -0.00766515  0.19227749  1
  Rh  Rh246  1  0.80546738  0.20345774  0.79756577  1
  Rh  Rh247  1  0.59937895  0.39708812  0.18621178  1
  Rh  Rh248  1  0.79847268  0.80532023  0.80841015  1
  Rh  Rh249  1  0.39989744  0.59563592  0.20205565  1
