# generated using pymatgen
data_ZrScNbPdRh
_symmetry_space_group_name_H-M   'P 1'
_cell_length_a   16.55404329
_cell_length_b   16.55456619
_cell_length_c   16.55380880
_cell_angle_alpha   90.02239016
_cell_angle_beta   90.01578666
_cell_angle_gamma   90.00270649
_symmetry_Int_Tables_number   1
_chemical_formula_structural   ZrScNbPdRh
_chemical_formula_sum   'Zr50 Sc50 Nb50 Pd50 Rh50'
_cell_volume   4536.48809660
_cell_formula_units_Z   50
loop_
 _symmetry_equiv_pos_site_id
 _symmetry_equiv_pos_as_xyz
  1  'x, y, z'
loop_
 _atom_site_type_symbol
 _atom_site_label
 _atom_site_symmetry_multiplicity
 _atom_site_fract_x
 _atom_site_fract_y
 _atom_site_fract_z
 _atom_site_occupancy
  Zr  Zr0  1  0.29890725  0.89956533  0.10675296  1
  Zr  Zr1  1  0.90412833  0.89772499  0.29481256  1
  Zr  Zr2  1  0.49142037  0.69323130  0.90466340  1
  Zr  Zr3  1  0.50192923  0.48640824  0.69146730  1
  Zr  Zr4  1  0.49901127  0.09787153  0.29788725  1
  Zr  Zr5  1  0.90940339  0.50180024  0.89423049  1
  Zr  Zr6  1  0.49476270  0.90222864  0.10199700  1
  Zr  Zr7  1  0.48516664  0.09862372  0.69428355  1
  Zr  Zr8  1  0.90748232  0.50189034  0.69477870  1
  Zr  Zr9  1  0.50279152  0.70254474  0.69470628  1
  Zr  Zr10  1  0.90525730  0.09509913  0.09904460  1
  Zr  Zr11  1  0.90165690  0.09208256  0.90310450  1
  Zr  Zr12  1  0.10975614  0.90173428  0.30208938  1
  Zr  Zr13  1  0.69812564  0.70811818  0.51318283  1
  Zr  Zr14  1  0.70371079  0.51660667  0.70472769  1
  Zr  Zr15  1  0.30434783  0.50495943  0.90623192  1
  Zr  Zr16  1  0.69865014  0.90812469  0.89991070  1
  Zr  Zr17  1  0.90128366  0.29685539  0.50026819  1
  Zr  Zr18  1  0.50072868  0.09818486  0.10457669  1
  Zr  Zr19  1  0.90814869  0.89541731  0.09993867  1
  Zr  Zr20  1  0.09696912  0.50464485  0.69985954  1
  Zr  Zr21  1  0.09445943  0.30695208  0.69863426  1
  Zr  Zr22  1  0.69977188  0.29711995  0.50240592  1
  Zr  Zr23  1  0.09535528  0.71444524  0.69803590  1
  Zr  Zr24  1  0.09111217  0.69421352  0.09081297  1
  Zr  Zr25  1  0.90573575  0.29511747  0.89857947  1
  Zr  Zr26  1  0.10672063  0.89386493  0.10272355  1
  Zr  Zr27  1  0.69460715  0.09624363  0.69742300  1
  Zr  Zr28  1  0.10841003  0.70220029  0.89581552  1
  Zr  Zr29  1  0.89855907  0.50780218  0.30511907  1
  Zr  Zr30  1  0.29925114  0.10610515  0.50383974  1
  Zr  Zr31  1  0.69951865  0.90246560  0.10225767  1
  Zr  Zr32  1  0.49995684  0.50788484  0.30295312  1
  Zr  Zr33  1  0.69620100  0.09485288  0.30481213  1
  Zr  Zr34  1  0.29482976  0.29815197  0.30841061  1
  Zr  Zr35  1  0.50000501  0.29909104  0.08691903  1
  Zr  Zr36  1  0.29814218  0.09695466  0.69887189  1
  Zr  Zr37  1  0.10258585  0.51050464  0.90313907  1
  Zr  Zr38  1  0.69667312  0.49931150  0.90387529  1
  Zr  Zr39  1  0.49806492  0.70498312  0.30694118  1
  Zr  Zr40  1  0.69967028  0.69111183  0.89281105  1
  Zr  Zr41  1  0.29994201  0.89425486  0.29414938  1
  Zr  Zr42  1  0.69737327  0.50142757  0.10455517  1
  Zr  Zr43  1  0.50689442  0.89941191  0.29759913  1
  Zr  Zr44  1  0.29825104  0.49457236  0.30669073  1
  Zr  Zr45  1  0.70340560  0.90004192  0.69366854  1
  Zr  Zr46  1  0.29709389  0.10411551  0.30589525  1
  Zr  Zr47  1  0.89637351  0.10486986  0.30632560  1
  Zr  Zr48  1  0.89473035  0.90661484  0.50406723  1
  Zr  Zr49  1  0.49805534  0.09278399  0.89741165  1
  Sc  Sc50  1  0.09090495  0.89368784  0.88970936  1
  Sc  Sc51  1  0.90250934  0.29744221  0.69702339  1
  Sc  Sc52  1  0.10284583  0.10750350  0.09688784  1
  Sc  Sc53  1  0.10648554  0.11071197  0.30655495  1
  Sc  Sc54  1  0.09730743  0.29972324  0.49956938  1
  Sc  Sc55  1  0.09259590  0.50647796  0.49588446  1
  Sc  Sc56  1  0.49608704  0.49538825  0.49660601  1
  Sc  Sc57  1  0.10428736  0.09645404  0.90338830  1
  Sc  Sc58  1  0.71510318  0.29343839  0.29564151  1
  Sc  Sc59  1  0.30536721  0.29565191  0.90084948  1
  Sc  Sc60  1  0.69729674  0.10048450  0.10191927  1
  Sc  Sc61  1  0.70206860  0.09865052  0.50122040  1
  Sc  Sc62  1  0.49297721  0.90934104  0.69803462  1
  Sc  Sc63  1  0.29927055  0.71176098  0.09445580  1
  Sc  Sc64  1  0.29928589  0.90537634  0.69542565  1
  Sc  Sc65  1  0.89682105  0.10490948  0.50140231  1
  Sc  Sc66  1  0.90082229  0.69038788  0.50282457  1
  Sc  Sc67  1  0.10434990  0.09959317  0.50233720  1
  Sc  Sc68  1  0.30260959  0.89804341  0.90467972  1
  Sc  Sc69  1  0.10614661  0.29096054  0.90898941  1
  Sc  Sc70  1  0.29669332  0.10045228  0.89513150  1
  Sc  Sc71  1  0.91952843  0.70335915  0.90341975  1
  Sc  Sc72  1  0.28630904  0.90290974  0.49938559  1
  Sc  Sc73  1  0.69451100  0.29985413  0.90390040  1
  Sc  Sc74  1  0.69825239  0.90655160  0.49951630  1
  Sc  Sc75  1  0.49864875  0.48960994  0.89908230  1
  Sc  Sc76  1  0.90415336  0.29947325  0.30590929  1
  Sc  Sc77  1  0.29807897  0.09740673  0.10103743  1
  Sc  Sc78  1  0.89572805  0.09811869  0.69393163  1
  Sc  Sc79  1  0.29561212  0.71087415  0.48811857  1
  Sc  Sc80  1  0.70232317  0.30023874  0.10351265  1
  Sc  Sc81  1  0.50044316  0.50517933  0.08394892  1
  Sc  Sc82  1  0.49990018  0.30370194  0.51248727  1
  Sc  Sc83  1  0.90313196  0.50413155  0.49550610  1
  Sc  Sc84  1  0.70165362  0.50407760  0.49925534  1
  Sc  Sc85  1  0.69497579  0.29839610  0.69619178  1
  Sc  Sc86  1  0.70094727  0.09057640  0.89769863  1
  Sc  Sc87  1  0.30072243  0.48912012  0.49739186  1
  Sc  Sc88  1  0.90755338  0.50723819  0.11659572  1
  Sc  Sc89  1  0.30348499  0.29649738  0.69396540  1
  Sc  Sc90  1  0.29825625  0.70030448  0.89598970  1
  Sc  Sc91  1  0.29281325  0.29813935  0.09432224  1
  Sc  Sc92  1  0.49332222  0.29208231  0.30150686  1
  Sc  Sc93  1  0.50091783  0.89222695  0.50008590  1
  Sc  Sc94  1  0.30120108  0.49962946  0.69999590  1
  Sc  Sc95  1  0.90937314  0.90077403  0.69762857  1
  Sc  Sc96  1  0.69160444  0.69403963  0.29389323  1
  Sc  Sc97  1  0.90068201  0.29243046  0.11361016  1
  Sc  Sc98  1  0.10643369  0.69487588  0.30567096  1
  Sc  Sc99  1  0.29991554  0.70720887  0.70683436  1
  Nb  Nb100  1  0.70182028  0.89960850  0.30512071  1
  Nb  Nb101  1  0.09638497  0.49858200  0.29101678  1
  Nb  Nb102  1  0.49660409  0.29940338  0.70517613  1
  Nb  Nb103  1  0.10190520  0.09321019  0.70323568  1
  Nb  Nb104  1  0.50533897  0.69743880  0.10426989  1
  Nb  Nb105  1  0.49924446  0.69926353  0.49800389  1
  Nb  Nb106  1  0.10320949  0.30125976  0.29392787  1
  Nb  Nb107  1  0.09854606  0.89418327  0.50484534  1
  Nb  Nb108  1  0.30337065  0.49694308  0.09940882  1
  Nb  Nb109  1  0.69966668  0.49502554  0.29696166  1
  Nb  Nb110  1  0.90128635  0.70020672  0.29778797  1
  Nb  Nb111  1  0.70378287  0.70145802  0.70146010  1
  Nb  Nb112  1  0.89853697  0.70264129  0.10438571  1
  Nb  Nb113  1  0.89406219  0.89809256  0.90418064  1
  Nb  Nb114  1  0.69631232  0.69623276  0.09364389  1
  Nb  Nb115  1  0.49718013  0.09510354  0.50315137  1
  Nb  Nb116  1  0.49958593  0.29583085  0.89553462  1
  Nb  Nb117  1  0.09869088  0.90700347  0.68459755  1
  Nb  Nb118  1  0.10147828  0.70542330  0.50118919  1
  Nb  Nb119  1  0.10535387  0.49576245  0.10443903  1
  Nb  Nb120  1  0.88525046  0.69722759  0.69692556  1
  Nb  Nb121  1  0.50727182  0.90216593  0.90024440  1
  Nb  Nb122  1  0.09909605  0.30054667  0.10311553  1
  Nb  Nb123  1  0.30060567  0.70019591  0.29272661  1
  Nb  Nb124  1  0.30173887  0.30270586  0.49770882  1
  Nb  Nb125  1  0.60413439  0.39952848  0.39203828  1
  Nb  Nb126  1  -0.00113990  0.80005133  0.40287648  1
  Nb  Nb127  1  0.00504946  0.39927640  0.01012249  1
  Nb  Nb128  1  0.39972742  0.00250396  0.39887673  1
  Nb  Nb129  1  0.39835161  0.60695003  0.59309699  1
  Nb  Nb130  1  0.80099272  0.40424726  0.60509928  1
  Nb  Nb131  1  0.20381967  0.59223929  0.19766024  1
  Nb  Nb132  1  0.80212666  0.40276945  0.80043326  1
  Nb  Nb133  1  0.60141387  0.80125304  0.80152571  1
  Nb  Nb134  1  0.80095597  0.79754065  0.80250769  1
  Nb  Nb135  1  0.79922292  0.79440175  0.00022450  1
  Nb  Nb136  1  0.80470900  0.19935062  -0.00093694  1
  Nb  Nb137  1  0.00345761  -0.00571306  0.40327037  1
  Nb  Nb138  1  0.59999749  0.79727661  -0.00213281  1
  Nb  Nb139  1  0.40055499  0.40482652  0.19656920  1
  Nb  Nb140  1  0.80048608  -0.00439810  0.20531427  1
  Nb  Nb141  1  0.20047127  0.60826530  0.59644624  1
  Nb  Nb142  1  0.00483873  0.19255813  0.79764869  1
  Nb  Nb143  1  0.80957735  0.40238735  0.00084710  1
  Nb  Nb144  1  0.58967229  0.20002252  0.79811639  1
  Nb  Nb145  1  0.59477541  0.40283569  0.20500072  1
  Nb  Nb146  1  0.39536978  0.60110519  0.19814234  1
  Nb  Nb147  1  0.80283180  0.79868455  0.39406113  1
  Nb  Nb148  1  0.80645444  0.60301790  0.00449948  1
  Nb  Nb149  1  0.19719806  0.40316675  0.80336676  1
  Pd  Pd150  1  0.20095179  -0.00949932  0.80247117  1
  Pd  Pd151  1  0.39592174  0.00247993  -0.00170807  1
  Pd  Pd152  1  -0.00125156  0.61365320  0.79110383  1
  Pd  Pd153  1  0.60244845  0.20947708  0.20363630  1
  Pd  Pd154  1  0.39124233  0.60264073  0.40437938  1
  Pd  Pd155  1  0.59280538  -0.00189241  0.40805742  1
  Pd  Pd156  1  0.60589308  0.59982719  0.40667095  1
  Pd  Pd157  1  -0.01174669  0.79494190  0.59488806  1
  Pd  Pd158  1  0.19926322  0.40791891  0.60219784  1
  Pd  Pd159  1  0.40348798  0.59539568  0.78914753  1
  Pd  Pd160  1  0.60759261  0.39416375  0.79750931  1
  Pd  Pd161  1  0.59804838  0.20627544  0.40099199  1
  Pd  Pd162  1  0.80722963  -0.00634957  0.79125299  1
  Pd  Pd163  1  0.58562626  0.59956533  0.79899485  1
  Pd  Pd164  1  0.40415026  0.80021809  0.00095599  1
  Pd  Pd165  1  0.60215063  0.79845742  0.19682377  1
  Pd  Pd166  1  -0.00187414  0.00165192  0.79762745  1
  Pd  Pd167  1  0.39045935  0.39697652  0.80070409  1
  Pd  Pd168  1  0.18586955  0.39924372  0.40468503  1
  Pd  Pd169  1  -0.00610614  0.39680284  0.20178084  1
  Pd  Pd170  1  0.79606581  0.39922625  0.40483905  1
  Pd  Pd171  1  0.39444407  0.19279125  -0.00095880  1
  Pd  Pd172  1  0.00483327  0.40025782  0.39880131  1
  Pd  Pd173  1  0.60794899  0.19198463  -0.00702903  1
  Pd  Pd174  1  0.01147994  0.78935406  0.20816787  1
  Pd  Pd175  1  0.40761582  0.20026483  0.41085523  1
  Pd  Pd176  1  0.79226793  0.79908012  0.20009480  1
  Pd  Pd177  1  0.79150887  0.60999631  0.40169766  1
  Pd  Pd178  1  0.79709253  0.60371305  0.19933826  1
  Pd  Pd179  1  0.00417924  0.19224411  0.60486302  1
  Pd  Pd180  1  0.00679635  0.01070859  0.20837984  1
  Pd  Pd181  1  0.39199065  0.20694963  0.19396348  1
  Pd  Pd182  1  0.19709869  -0.00526074  -0.00361309  1
  Pd  Pd183  1  0.00508449  0.19662320  0.20561833  1
  Pd  Pd184  1  0.59280316  0.59432036  0.59344541  1
  Pd  Pd185  1  0.19636998  0.20308171  0.60076830  1
  Pd  Pd186  1  0.59609555  0.80829045  0.60482116  1
  Pd  Pd187  1  0.39266452  0.79907485  0.59417939  1
  Pd  Pd188  1  0.19807670  0.39819979  -0.00609662  1
  Pd  Pd189  1  0.19617273  0.01153596  0.20076673  1
  Pd  Pd190  1  0.59345562  0.19512892  0.60345278  1
  Pd  Pd191  1  0.19518886  0.20602074  0.79580070  1
  Pd  Pd192  1  0.01195358  -0.00766196  -0.00075892  1
  Pd  Pd193  1  0.20888272  0.60573344  0.00775232  1
  Pd  Pd194  1  0.20085687  0.59718862  0.40160890  1
  Pd  Pd195  1  0.20743360  0.39781123  0.19977692  1
  Pd  Pd196  1  0.40574763  0.80844781  0.80111658  1
  Pd  Pd197  1  0.39648319  0.80920405  0.40166159  1
  Pd  Pd198  1  0.79522028  0.20495571  0.80370753  1
  Pd  Pd199  1  0.20231421  0.81271815  0.79606566  1
  Rh  Rh200  1  0.20518488  0.79664764  0.60422324  1
  Rh  Rh201  1  0.61055814  0.40509314  0.59425220  1
  Rh  Rh202  1  0.79991789  0.40534933  0.19960868  1
  Rh  Rh203  1  0.79777543  0.19901417  0.40397614  1
  Rh  Rh204  1  0.00385102  0.00708071  0.59374161  1
  Rh  Rh205  1  0.19474393  0.20990434  0.40733658  1
  Rh  Rh206  1  0.59569794  -0.00052529  0.59727342  1
  Rh  Rh207  1  0.00212597  0.60649136  0.39331713  1
  Rh  Rh208  1  0.79899825  0.20565897  0.60028117  1
  Rh  Rh209  1  0.39632544  -0.00562645  0.58532632  1
  Rh  Rh210  1  0.80217303  0.00037383  0.01166145  1
  Rh  Rh211  1  0.59569999  0.00079184  0.00722911  1
  Rh  Rh212  1  0.19630785  0.80319039  -0.00446894  1
  Rh  Rh213  1  0.80378035  0.80275452  0.59852075  1
  Rh  Rh214  1  0.00622683  0.60764713  0.60231252  1
  Rh  Rh215  1  0.60336324  0.39579660  0.00473434  1
  Rh  Rh216  1  0.39471630  0.39966075  0.59959586  1
  Rh  Rh217  1  0.59249374  0.00372485  0.78928165  1
  Rh  Rh218  1  0.19420675  0.78562906  0.19746623  1
  Rh  Rh219  1  0.80101110  0.59429945  0.59352996  1
  Rh  Rh220  1  0.60992733  0.79578842  0.40292158  1
  Rh  Rh221  1  0.60568484  -0.00161919  0.20037731  1
  Rh  Rh222  1  0.59314391  0.59513569  0.19798379  1
  Rh  Rh223  1  -0.00839478  0.80135500  0.79339571  1
  Rh  Rh224  1  0.20344330  0.19652881  0.00309383  1
  Rh  Rh225  1  -0.00733907  0.40271750  0.58794669  1
  Rh  Rh226  1  0.40117299  0.39617825  -0.00085076  1
  Rh  Rh227  1  0.39494435  -0.00401333  0.80536964  1
  Rh  Rh228  1  0.00122069  0.80412816  -0.00132273  1
  Rh  Rh229  1  0.39519094  0.00247996  0.20816338  1
  Rh  Rh230  1  0.20095040  0.20385427  0.19894924  1
  Rh  Rh231  1  0.19922788  0.00027369  0.40325129  1
  Rh  Rh232  1  0.00894922  0.60545630  0.20504312  1
  Rh  Rh233  1  0.00469049  0.19752599  0.39889710  1
  Rh  Rh234  1  0.40956838  0.39022591  0.39824455  1
  Rh  Rh235  1  0.19790797  0.00285772  0.59863824  1
  Rh  Rh236  1  0.59946543  0.60224008  -0.00442099  1
  Rh  Rh237  1  0.40510062  0.79270306  0.19844949  1
  Rh  Rh238  1  0.39921796  0.20677573  0.59646801  1
  Rh  Rh239  1  0.80039156  0.18569241  0.19399636  1
  Rh  Rh240  1  0.39446323  0.60560138  0.00768495  1
  Rh  Rh241  1  0.81171178  0.60259291  0.80858482  1
  Rh  Rh242  1  0.00954865  0.38716956  0.81306386  1
  Rh  Rh243  1  0.19496113  0.79925507  0.39643038  1
  Rh  Rh244  1  0.80631988  -0.00464066  0.39468788  1
  Rh  Rh245  1  -0.00244566  0.20317173  -0.00164178  1
  Rh  Rh246  1  0.20202921  0.59569706  0.78974024  1
  Rh  Rh247  1  0.40207474  0.19878939  0.80018051  1
  Rh  Rh248  1  -0.00679306  0.58951826  0.00977507  1
  Rh  Rh249  1  0.79914654  0.00335923  0.60252506  1
