# generated using pymatgen
data_ZrScNbPdRh
_symmetry_space_group_name_H-M   'P 1'
_cell_length_a   16.56223181
_cell_length_b   16.56124206
_cell_length_c   16.56347307
_cell_angle_alpha   90.02145260
_cell_angle_beta   89.99374765
_cell_angle_gamma   90.03147182
_symmetry_Int_Tables_number   1
_chemical_formula_structural   ZrScNbPdRh
_chemical_formula_sum   'Zr50 Sc50 Nb50 Pd50 Rh50'
_cell_volume   4543.21271332
_cell_formula_units_Z   50
loop_
 _symmetry_equiv_pos_site_id
 _symmetry_equiv_pos_as_xyz
  1  'x, y, z'
loop_
 _atom_site_type_symbol
 _atom_site_label
 _atom_site_symmetry_multiplicity
 _atom_site_fract_x
 _atom_site_fract_y
 _atom_site_fract_z
 _atom_site_occupancy
  Zr  Zr0  1  0.29627018  0.09906327  0.69640168  1
  Zr  Zr1  1  0.10009165  0.69778083  0.30514885  1
  Zr  Zr2  1  0.69209723  0.30176593  0.30214323  1
  Zr  Zr3  1  0.49683697  0.10306154  0.09284179  1
  Zr  Zr4  1  0.89878613  0.09740983  0.88740266  1
  Zr  Zr5  1  0.89722864  0.91100851  0.70076079  1
  Zr  Zr6  1  0.29167324  0.70818564  0.71422847  1
  Zr  Zr7  1  0.49156039  0.69325773  0.69453774  1
  Zr  Zr8  1  0.69986821  0.90586722  0.69239971  1
  Zr  Zr9  1  0.69262678  0.49663075  0.10527468  1
  Zr  Zr10  1  0.49954880  0.30583643  0.09380331  1
  Zr  Zr11  1  0.29439851  0.10321797  0.31398148  1
  Zr  Zr12  1  0.89823648  0.89428073  0.09801893  1
  Zr  Zr13  1  0.88490092  0.29510538  0.30843694  1
  Zr  Zr14  1  0.69242322  0.09845942  0.69615638  1
  Zr  Zr15  1  0.70345406  0.50394509  0.50018578  1
  Zr  Zr16  1  0.30706577  0.69217166  0.09244235  1
  Zr  Zr17  1  0.49870443  0.50065178  0.28872417  1
  Zr  Zr18  1  0.90939088  0.29728475  0.69342875  1
  Zr  Zr19  1  0.49563747  0.29936379  0.89822349  1
  Zr  Zr20  1  0.50124366  0.90078232  0.70295739  1
  Zr  Zr21  1  0.10210854  0.10286518  0.89620271  1
  Zr  Zr22  1  0.10384812  0.91546437  0.09991022  1
  Zr  Zr23  1  0.49661861  0.10498155  0.90019279  1
  Zr  Zr24  1  0.70101699  0.70806153  0.50094045  1
  Zr  Zr25  1  0.29849884  0.89510681  0.30512994  1
  Zr  Zr26  1  0.49267797  0.29526414  0.50015335  1
  Zr  Zr27  1  0.48878927  0.50739468  0.52026765  1
  Zr  Zr28  1  0.51125501  0.89482676  0.30110446  1
  Zr  Zr29  1  0.69372531  0.29820546  0.09563408  1
  Zr  Zr30  1  0.29513804  0.90681476  0.50758174  1
  Zr  Zr31  1  0.89912918  0.90149707  0.89740821  1
  Zr  Zr32  1  0.09778865  0.29460909  0.10083947  1
  Zr  Zr33  1  0.29602713  0.49540630  0.50054923  1
  Zr  Zr34  1  0.69983777  0.50204378  0.70699885  1
  Zr  Zr35  1  0.90165819  0.50704369  0.10659592  1
  Zr  Zr36  1  0.90184425  0.69722377  0.90487886  1
  Zr  Zr37  1  0.09843177  0.49521109  0.89712754  1
  Zr  Zr38  1  0.89864057  0.29465249  0.88981640  1
  Zr  Zr39  1  0.50466445  0.89601363  0.09921925  1
  Zr  Zr40  1  0.10477870  0.88891878  0.69594835  1
  Zr  Zr41  1  0.90154184  0.68871156  0.29018241  1
  Zr  Zr42  1  0.29665855  0.69238499  0.29920970  1
  Zr  Zr43  1  0.29752326  0.90005942  0.70484603  1
  Zr  Zr44  1  0.10789159  0.09868437  0.49751885  1
  Zr  Zr45  1  0.89442432  0.90128510  0.50473618  1
  Zr  Zr46  1  0.30071003  0.09195915  0.08939509  1
  Zr  Zr47  1  0.69622420  0.09525504  0.30851100  1
  Zr  Zr48  1  0.69978720  0.70192144  0.10107303  1
  Zr  Zr49  1  0.31287529  0.50838419  0.69448533  1
  Sc  Sc50  1  0.89970649  0.28809095  0.09991664  1
  Sc  Sc51  1  0.30460560  0.09767098  0.89483561  1
  Sc  Sc52  1  0.10834731  0.50391027  0.09858847  1
  Sc  Sc53  1  0.09458425  0.89839016  0.50181621  1
  Sc  Sc54  1  0.11424342  0.28778674  0.29463822  1
  Sc  Sc55  1  0.90135140  0.50348618  0.89018696  1
  Sc  Sc56  1  0.30058363  0.50398823  0.89837758  1
  Sc  Sc57  1  0.70220844  0.90117978  0.11165439  1
  Sc  Sc58  1  0.69850268  0.50147682  0.88958458  1
  Sc  Sc59  1  0.29849713  0.30100160  0.69712157  1
  Sc  Sc60  1  0.30079648  0.10599891  0.50642113  1
  Sc  Sc61  1  0.50427881  0.10111297  0.31201999  1
  Sc  Sc62  1  0.49874145  0.70514573  0.90871052  1
  Sc  Sc63  1  0.70605707  0.29556110  0.49020559  1
  Sc  Sc64  1  0.90531675  0.09163393  0.50354550  1
  Sc  Sc65  1  0.30028425  0.29875122  0.50106670  1
  Sc  Sc66  1  0.90147246  0.09491464  0.08990486  1
  Sc  Sc67  1  0.50094297  0.49961212  0.71117881  1
  Sc  Sc68  1  0.89773997  0.70245801  0.48356693  1
  Sc  Sc69  1  0.09988870  0.10648810  0.69804317  1
  Sc  Sc70  1  0.89962168  0.48671006  0.70149012  1
  Sc  Sc71  1  0.89846953  0.49139617  0.50004504  1
  Sc  Sc72  1  0.10231729  0.49520926  0.49902844  1
  Sc  Sc73  1  0.30306112  0.50441851  0.10117950  1
  Sc  Sc74  1  0.70096182  0.10565368  0.89452683  1
  Sc  Sc75  1  0.29775076  0.30703513  0.10153321  1
  Sc  Sc76  1  0.90395406  0.70832970  0.71147541  1
  Sc  Sc77  1  0.10456084  0.90950902  0.89524778  1
  Sc  Sc78  1  0.49743916  0.50695303  0.09390148  1
  Sc  Sc79  1  0.10870621  0.50644282  0.30436445  1
  Sc  Sc80  1  0.10302968  0.68769416  0.88955708  1
  Sc  Sc81  1  0.70399168  0.70209314  0.30198649  1
  Sc  Sc82  1  0.30567883  0.90272646  0.89653123  1
  Sc  Sc83  1  0.69549250  0.29926083  0.89520259  1
  Sc  Sc84  1  0.10185115  0.29956448  0.70474923  1
  Sc  Sc85  1  0.90039723  0.09353621  0.30687912  1
  Sc  Sc86  1  0.09616493  0.90834024  0.30278298  1
  Sc  Sc87  1  0.50604657  0.10517401  0.51062137  1
  Sc  Sc88  1  0.69948948  0.69677416  0.89479909  1
  Sc  Sc89  1  0.10143895  0.09805660  0.29662048  1
  Sc  Sc90  1  0.10462057  0.30150566  0.51623051  1
  Sc  Sc91  1  0.10122972  0.49151419  0.70075679  1
  Sc  Sc92  1  0.71016809  0.50025744  0.29708405  1
  Sc  Sc93  1  0.90016094  0.89970961  0.30054737  1
  Sc  Sc94  1  0.70194188  0.29930448  0.70678874  1
  Sc  Sc95  1  0.29758498  0.49593601  0.29808807  1
  Sc  Sc96  1  0.50435451  0.10461550  0.69887858  1
  Sc  Sc97  1  0.69553465  0.70017191  0.70504518  1
  Sc  Sc98  1  0.29906371  0.71247201  0.49516520  1
  Sc  Sc99  1  0.69952373  0.89878137  0.89095320  1
  Nb  Nb100  1  0.89972872  0.49577520  0.30075417  1
  Nb  Nb101  1  0.90496642  0.69955228  0.09976534  1
  Nb  Nb102  1  0.09772916  0.69969893  0.09966642  1
  Nb  Nb103  1  0.10394028  0.30172277  0.89738959  1
  Nb  Nb104  1  0.30087326  0.89994475  0.10068491  1
  Nb  Nb105  1  0.50606682  0.29822249  0.69631323  1
  Nb  Nb106  1  0.69270085  0.90606193  0.30131772  1
  Nb  Nb107  1  0.10322784  0.70035947  0.69488291  1
  Nb  Nb108  1  0.29364655  0.29603189  0.89871008  1
  Nb  Nb109  1  0.09883168  0.69650374  0.50245968  1
  Nb  Nb110  1  0.49790774  0.70329750  0.30110403  1
  Nb  Nb111  1  0.50056001  0.69982977  0.10628227  1
  Nb  Nb112  1  0.50382747  0.90677953  0.89885275  1
  Nb  Nb113  1  0.29752633  0.70399716  0.89891629  1
  Nb  Nb114  1  0.90173206  0.29747598  0.50067883  1
  Nb  Nb115  1  0.89403719  0.10331475  0.69896742  1
  Nb  Nb116  1  0.50149814  0.49929836  0.89686500  1
  Nb  Nb117  1  0.69522836  0.90277969  0.49856485  1
  Nb  Nb118  1  0.69708519  0.10034175  0.50377012  1
  Nb  Nb119  1  0.49815787  0.88504544  0.49788134  1
  Nb  Nb120  1  0.31156803  0.29391122  0.30697250  1
  Nb  Nb121  1  0.10364759  0.10382552  0.09519957  1
  Nb  Nb122  1  0.50162628  0.70560220  0.49567537  1
  Nb  Nb123  1  0.49599855  0.29947282  0.30314277  1
  Nb  Nb124  1  0.69400162  0.09824588  0.10244433  1
  Nb  Nb125  1  0.80475282  0.40372829  -0.00003805  1
  Nb  Nb126  1  0.59920478  0.39811578  0.59800402  1
  Nb  Nb127  1  0.59189278  0.60203821  0.40285726  1
  Nb  Nb128  1  -0.00229065  0.39753677  0.00166033  1
  Nb  Nb129  1  0.40661346  0.60403888  0.40182453  1
  Nb  Nb130  1  -0.00033346  0.20612852  0.40585071  1
  Nb  Nb131  1  0.40369355  -0.00748224  0.40430848  1
  Nb  Nb132  1  0.59583044  0.19991623  0.20025510  1
  Nb  Nb133  1  0.59097332  0.40785029  0.40440156  1
  Nb  Nb134  1  0.59902965  -0.00040711  -0.00096754  1
  Nb  Nb135  1  0.00137366  0.60476623  0.59919920  1
  Nb  Nb136  1  -0.00215674  0.39125841  0.39326457  1
  Nb  Nb137  1  0.78919386  0.19164267  0.20033027  1
  Nb  Nb138  1  0.00694014  0.79628137  0.00461464  1
  Nb  Nb139  1  0.19921656  0.79826602  0.00336252  1
  Nb  Nb140  1  0.80171240  0.59800050  0.00578652  1
  Nb  Nb141  1  0.19540296  0.60736769  0.60110201  1
  Nb  Nb142  1  0.80289345  0.19593597  0.59743168  1
  Nb  Nb143  1  0.20042613  0.79932095  0.19106955  1
  Nb  Nb144  1  0.80602658  0.60252341  0.60236877  1
  Nb  Nb145  1  -0.00190930  0.39753907  0.20542940  1
  Nb  Nb146  1  0.39924991  0.79851276  0.19678169  1
  Nb  Nb147  1  0.40067893  -0.00121279  0.20581338  1
  Nb  Nb148  1  0.19689043  0.20086252  -0.00272523  1
  Nb  Nb149  1  0.40109847  0.19950323  0.20458427  1
  Pd  Pd150  1  0.80541323  0.00382978  0.20020502  1
  Pd  Pd151  1  0.39776003  0.39699172  0.19729501  1
  Pd  Pd152  1  -0.00003333  0.80379286  0.39890613  1
  Pd  Pd153  1  0.59122336  -0.00103203  0.41425352  1
  Pd  Pd154  1  -0.00665475  0.00732449  0.19776897  1
  Pd  Pd155  1  0.79112558  0.39427856  0.60046106  1
  Pd  Pd156  1  -0.00065162  -0.00206377  -0.00324228  1
  Pd  Pd157  1  0.00291068  0.20136493  -0.00838389  1
  Pd  Pd158  1  0.19747202  0.40056939  0.20432794  1
  Pd  Pd159  1  0.00744304  0.80423959  0.19841601  1
  Pd  Pd160  1  0.78835680  -0.00033714  -0.00417988  1
  Pd  Pd161  1  0.00766700  0.00270130  0.78938450  1
  Pd  Pd162  1  0.39667393  0.39435750  0.79927277  1
  Pd  Pd163  1  0.20931713  0.40539911  0.79423257  1
  Pd  Pd164  1  0.19936251  0.39771956  0.00046099  1
  Pd  Pd165  1  -0.01020390  0.79273682  0.59597188  1
  Pd  Pd166  1  0.00883378  0.80058838  0.81130759  1
  Pd  Pd167  1  -0.00097340  0.59456142  0.78640041  1
  Pd  Pd168  1  0.79886979  -0.00376447  0.40487211  1
  Pd  Pd169  1  0.79569537  0.20109657  0.00089260  1
  Pd  Pd170  1  0.19017475  0.80504608  0.39985295  1
  Pd  Pd171  1  0.39346900  0.40549635  -0.00499609  1
  Pd  Pd172  1  0.40290692  0.60730223  0.81127278  1
  Pd  Pd173  1  0.01148792  0.59160085  0.20192691  1
  Pd  Pd174  1  0.79700534  0.80813192  0.38997006  1
  Pd  Pd175  1  0.59325466  0.79423667  0.79839759  1
  Pd  Pd176  1  0.00699615  0.00275658  0.60533905  1
  Pd  Pd177  1  0.20592904  0.00177857  0.20492162  1
  Pd  Pd178  1  0.60535430  0.40703661  -0.01183761  1
  Pd  Pd179  1  0.20008483  0.60229218  -0.00476709  1
  Pd  Pd180  1  0.39800761  0.20410980  0.79131108  1
  Pd  Pd181  1  0.80519863  0.39040573  0.19215568  1
  Pd  Pd182  1  0.39428562  0.79811650  0.60535612  1
  Pd  Pd183  1  0.39632726  0.80379131  -0.00193879  1
  Pd  Pd184  1  0.80661232  0.79251854  0.60559057  1
  Pd  Pd185  1  0.59908986  0.80035746  0.60483596  1
  Pd  Pd186  1  0.40912705  0.00076156  0.59589954  1
  Pd  Pd187  1  0.60500717  0.60549361  0.20803974  1
  Pd  Pd188  1  0.40404712  0.40982558  0.40054792  1
  Pd  Pd189  1  0.60819517  0.80674536  -0.00200877  1
  Pd  Pd190  1  0.79693775  0.80031408  0.79681226  1
  Pd  Pd191  1  0.79866919  0.80109432  0.20784034  1
  Pd  Pd192  1  -0.00960212  0.19751558  0.21031315  1
  Pd  Pd193  1  0.60325466  0.59799430  -0.00614879  1
  Pd  Pd194  1  0.40331084  0.00344023  0.79581289  1
  Pd  Pd195  1  -0.00375764  0.58837010  0.40695995  1
  Pd  Pd196  1  0.21339716  0.19422103  0.19172482  1
  Pd  Pd197  1  0.19450905  0.39015136  0.39686457  1
  Pd  Pd198  1  0.79857503  0.79634902  -0.00220372  1
  Pd  Pd199  1  0.60758948  0.59936150  0.60061732  1
  Rh  Rh200  1  0.59270316  0.00726348  0.19380676  1
  Rh  Rh201  1  0.00362740  0.00379187  0.40198291  1
  Rh  Rh202  1  0.19847119  0.60399176  0.19723220  1
  Rh  Rh203  1  0.19484730  0.20686961  0.40812773  1
  Rh  Rh204  1  0.20039248  0.59288703  0.79302345  1
  Rh  Rh205  1  0.59662510  0.20622622  0.40179548  1
  Rh  Rh206  1  0.58917711  0.60528104  0.80538390  1
  Rh  Rh207  1  0.40838708  -0.01012181  -0.00034732  1
  Rh  Rh208  1  0.79487705  0.00709841  0.59488051  1
  Rh  Rh209  1  0.59448695  0.39624905  0.79666262  1
  Rh  Rh210  1  0.20269528  0.19970902  0.80340953  1
  Rh  Rh211  1  0.40690120  0.80071185  0.80519895  1
  Rh  Rh212  1  0.20176115  0.20243015  0.60437165  1
  Rh  Rh213  1  0.20168658  -0.00197671  0.40464316  1
  Rh  Rh214  1  0.60184410  0.79273518  0.20304706  1
  Rh  Rh215  1  0.40415288  0.39075754  0.60911283  1
  Rh  Rh216  1  0.40581846  0.59771177  -0.00706362  1
  Rh  Rh217  1  -0.00311713  0.19591720  0.59555480  1
  Rh  Rh218  1  0.19410285  0.80217815  0.81375653  1
  Rh  Rh219  1  0.38361526  0.61817360  0.59136244  1
  Rh  Rh220  1  0.79938189  0.59748025  0.40311557  1
  Rh  Rh221  1  0.19290062  -0.00080105  0.60456437  1
  Rh  Rh222  1  0.61038892  0.79715923  0.39757732  1
  Rh  Rh223  1  0.61279161  0.21268126  0.59644799  1
  Rh  Rh224  1  0.59355031  -0.00928227  0.59398162  1
  Rh  Rh225  1  0.80456945  0.60145679  0.79723001  1
  Rh  Rh226  1  0.20222970  0.00232813  -0.00847575  1
  Rh  Rh227  1  0.40233908  0.18990594  0.40277133  1
  Rh  Rh228  1  0.60490224  0.19323030  -0.00187686  1
  Rh  Rh229  1  0.79380154  0.00147773  0.79869570  1
  Rh  Rh230  1  0.00392754  0.40565982  0.59305108  1
  Rh  Rh231  1  0.80151593  0.39676471  0.80484236  1
  Rh  Rh232  1  -0.00291076  0.59909725  0.00079572  1
  Rh  Rh233  1  0.00075992  0.39427771  0.80546103  1
  Rh  Rh234  1  0.79756762  0.19910058  0.78931911  1
  Rh  Rh235  1  0.39997490  0.60401931  0.20335566  1
  Rh  Rh236  1  0.39713468  0.20160106  0.60475069  1
  Rh  Rh237  1  0.20190451  0.79690615  0.59507605  1
  Rh  Rh238  1  0.38455677  0.21201372  0.00352488  1
  Rh  Rh239  1  0.40130403  0.80117235  0.39402789  1
  Rh  Rh240  1  0.00290388  0.19985905  0.79677998  1
  Rh  Rh241  1  0.80575836  0.18318584  0.40722560  1
  Rh  Rh242  1  0.79593618  0.60343207  0.19596625  1
  Rh  Rh243  1  0.20914694  0.59999503  0.41046713  1
  Rh  Rh244  1  0.59650813  0.20170980  0.80207393  1
  Rh  Rh245  1  0.79960679  0.40649704  0.40155330  1
  Rh  Rh246  1  0.59981748  0.00445333  0.80601656  1
  Rh  Rh247  1  0.20087502  0.00152020  0.79482915  1
  Rh  Rh248  1  0.59326519  0.39503978  0.20549899  1
  Rh  Rh249  1  0.20405368  0.40689712  0.60709690  1
