# generated using pymatgen
data_ZrScNbPdRh
_symmetry_space_group_name_H-M   'P 1'
_cell_length_a   16.55572797
_cell_length_b   16.55801406
_cell_length_c   16.55638927
_cell_angle_alpha   90.02911633
_cell_angle_beta   89.99682841
_cell_angle_gamma   89.98567810
_symmetry_Int_Tables_number   1
_chemical_formula_structural   ZrScNbPdRh
_chemical_formula_sum   'Zr50 Sc50 Nb50 Pd50 Rh50'
_cell_volume   4538.60186567
_cell_formula_units_Z   50
loop_
 _symmetry_equiv_pos_site_id
 _symmetry_equiv_pos_as_xyz
  1  'x, y, z'
loop_
 _atom_site_type_symbol
 _atom_site_label
 _atom_site_symmetry_multiplicity
 _atom_site_fract_x
 _atom_site_fract_y
 _atom_site_fract_z
 _atom_site_occupancy
  Zr  Zr0  1  0.50306215  0.49349301  0.10536305  1
  Zr  Zr1  1  0.10020779  0.89923309  0.10006422  1
  Zr  Zr2  1  0.49536233  0.29720255  0.90157309  1
  Zr  Zr3  1  0.71073067  0.90317743  0.09662195  1
  Zr  Zr4  1  0.49343498  0.70690889  0.69338842  1
  Zr  Zr5  1  0.90205091  0.10104926  0.70083257  1
  Zr  Zr6  1  0.70531856  0.70608441  0.70100791  1
  Zr  Zr7  1  0.70204479  0.29309171  0.89517169  1
  Zr  Zr8  1  0.89719910  0.69864774  0.09785668  1
  Zr  Zr9  1  0.70470199  0.09915546  0.71117598  1
  Zr  Zr10  1  0.69091919  0.49776342  0.29688211  1
  Zr  Zr11  1  0.09222215  0.89990402  0.90505024  1
  Zr  Zr12  1  0.08706487  0.29604235  0.11130815  1
  Zr  Zr13  1  0.30750309  0.69978138  0.50791736  1
  Zr  Zr14  1  0.88911680  0.49815979  0.51006583  1
  Zr  Zr15  1  0.30215468  0.10941018  0.90333707  1
  Zr  Zr16  1  0.09929719  0.09719565  0.30029389  1
  Zr  Zr17  1  0.09584432  0.89725027  0.70069798  1
  Zr  Zr18  1  0.50021297  0.70618545  0.89154919  1
  Zr  Zr19  1  0.29274499  0.30107482  0.09513951  1
  Zr  Zr20  1  0.09794993  0.70570830  0.49952193  1
  Zr  Zr21  1  0.30225926  0.50335120  0.30634430  1
  Zr  Zr22  1  0.29541322  0.90568189  0.89516990  1
  Zr  Zr23  1  0.10105555  0.49551744  0.29833852  1
  Zr  Zr24  1  0.08927765  0.50761482  0.70702551  1
  Zr  Zr25  1  0.69932371  0.70378205  0.29824825  1
  Zr  Zr26  1  0.89531216  0.90414871  0.69564396  1
  Zr  Zr27  1  0.30330571  0.30723185  0.89646013  1
  Zr  Zr28  1  0.90275877  0.49811540  0.90094132  1
  Zr  Zr29  1  0.29466592  0.70192153  0.70501443  1
  Zr  Zr30  1  0.29817077  0.29865113  0.50728172  1
  Zr  Zr31  1  0.10337238  0.29024988  0.50599189  1
  Zr  Zr32  1  0.70149990  0.89661833  0.50035383  1
  Zr  Zr33  1  0.70690343  0.70639270  0.10304021  1
  Zr  Zr34  1  0.29317972  0.09867113  0.49228750  1
  Zr  Zr35  1  0.31156509  0.70444666  0.30224813  1
  Zr  Zr36  1  0.10150135  0.29499605  0.69609162  1
  Zr  Zr37  1  0.69286350  0.90578962  0.70066552  1
  Zr  Zr38  1  0.29654283  0.29666256  0.70442265  1
  Zr  Zr39  1  0.90168367  0.29493065  0.29028543  1
  Zr  Zr40  1  0.09660288  0.69624838  0.88386123  1
  Zr  Zr41  1  0.69548038  0.09980802  0.09389664  1
  Zr  Zr42  1  0.89659355  0.70051189  0.29621742  1
  Zr  Zr43  1  0.89661453  0.29603313  0.49779261  1
  Zr  Zr44  1  0.49544563  0.49720111  0.91026644  1
  Zr  Zr45  1  0.91093192  0.69750919  0.69611479  1
  Zr  Zr46  1  0.30603762  0.49931282  0.09378184  1
  Zr  Zr47  1  0.50229427  0.09888234  0.49383753  1
  Zr  Zr48  1  0.09391542  0.10098314  0.69108682  1
  Zr  Zr49  1  0.51015540  0.10614147  0.90661201  1
  Sc  Sc50  1  0.49512859  0.30563555  0.70481812  1
  Sc  Sc51  1  0.09451593  0.70810834  0.10425118  1
  Sc  Sc52  1  0.51298116  0.90557221  0.10899145  1
  Sc  Sc53  1  0.09898165  0.49921782  0.90025665  1
  Sc  Sc54  1  0.30529446  0.70567636  0.10830137  1
  Sc  Sc55  1  0.69876918  0.29782000  0.30359108  1
  Sc  Sc56  1  0.30730841  0.50111861  0.49895900  1
  Sc  Sc57  1  0.29934086  0.49051697  0.70366948  1
  Sc  Sc58  1  0.28634308  0.10024771  0.71191399  1
  Sc  Sc59  1  0.09803223  0.90909845  0.49739290  1
  Sc  Sc60  1  0.70185908  0.10025644  0.49311623  1
  Sc  Sc61  1  0.50205301  0.69613298  0.10299012  1
  Sc  Sc62  1  0.29529153  0.90430775  0.11441400  1
  Sc  Sc63  1  0.51832685  0.09199016  0.70686746  1
  Sc  Sc64  1  0.69837081  0.88918546  0.29217094  1
  Sc  Sc65  1  0.50442861  0.29331035  0.09804323  1
  Sc  Sc66  1  0.10398230  0.50130434  0.49606853  1
  Sc  Sc67  1  0.89131235  0.10650486  0.09524548  1
  Sc  Sc68  1  0.09666328  0.48623757  0.09380159  1
  Sc  Sc69  1  0.50183301  0.30520658  0.49497726  1
  Sc  Sc70  1  0.90285952  0.30795769  0.70246431  1
  Sc  Sc71  1  0.69138359  0.50933259  0.09853479  1
  Sc  Sc72  1  0.09899860  0.30012459  0.91115106  1
  Sc  Sc73  1  0.10252741  0.09754999  0.89532016  1
  Sc  Sc74  1  0.69244784  0.49663762  0.49968491  1
  Sc  Sc75  1  0.50552295  0.89086547  0.51106845  1
  Sc  Sc76  1  0.89954828  0.29519308  0.89992023  1
  Sc  Sc77  1  0.89893681  0.89758608  0.90421080  1
  Sc  Sc78  1  0.89420787  0.09845266  0.30260586  1
  Sc  Sc79  1  0.70636852  0.09835714  0.90063228  1
  Sc  Sc80  1  0.30297904  0.08717557  0.29912809  1
  Sc  Sc81  1  0.50974200  0.29871882  0.30162271  1
  Sc  Sc82  1  0.49850231  0.69782201  0.50246081  1
  Sc  Sc83  1  0.69657697  0.70208062  0.50094720  1
  Sc  Sc84  1  0.29401603  0.29843809  0.30309743  1
  Sc  Sc85  1  0.69996408  0.10488653  0.29865408  1
  Sc  Sc86  1  0.90131978  0.08966043  0.49791252  1
  Sc  Sc87  1  0.89700330  0.10174769  0.90120252  1
  Sc  Sc88  1  0.49286938  0.09998612  0.29292182  1
  Sc  Sc89  1  0.09215028  0.69808655  0.30208464  1
  Sc  Sc90  1  0.90233943  0.50655692  0.29289377  1
  Sc  Sc91  1  0.10162348  0.10331487  0.09670047  1
  Sc  Sc92  1  0.29747268  0.90270960  0.50177526  1
  Sc  Sc93  1  0.70830023  0.49890019  0.68888238  1
  Sc  Sc94  1  0.89689925  0.89689191  0.30867958  1
  Sc  Sc95  1  0.10269706  0.89910579  0.29809781  1
  Sc  Sc96  1  0.90065202  0.70628471  0.49602276  1
  Sc  Sc97  1  0.69740312  0.30409162  0.48852844  1
  Sc  Sc98  1  0.29487409  0.89460781  0.69689085  1
  Sc  Sc99  1  0.30247267  0.10030753  0.10829400  1
  Nb  Nb100  1  0.89791129  0.49785305  0.09684284  1
  Nb  Nb101  1  0.09743924  0.09868641  0.49821555  1
  Nb  Nb102  1  0.50013186  0.50290454  0.30654363  1
  Nb  Nb103  1  0.50139737  0.50549917  0.69920753  1
  Nb  Nb104  1  0.70509601  0.70229237  0.90015978  1
  Nb  Nb105  1  0.90499975  0.89705351  0.09403949  1
  Nb  Nb106  1  0.90130782  0.30291455  0.09544291  1
  Nb  Nb107  1  0.30028873  0.70041214  0.89687380  1
  Nb  Nb108  1  0.30091454  0.50157002  0.90211221  1
  Nb  Nb109  1  0.70199262  0.89466364  0.89569554  1
  Nb  Nb110  1  0.89433621  0.50244796  0.70262506  1
  Nb  Nb111  1  0.69947445  0.50030470  0.89636221  1
  Nb  Nb112  1  0.90081114  0.90165919  0.49251713  1
  Nb  Nb113  1  0.49800796  0.89396234  0.30303288  1
  Nb  Nb114  1  0.70337642  0.30304362  0.10056766  1
  Nb  Nb115  1  0.29988975  0.89920317  0.29826086  1
  Nb  Nb116  1  0.49730522  0.50312700  0.50569736  1
  Nb  Nb117  1  0.90007138  0.69966901  0.90304830  1
  Nb  Nb118  1  0.49700365  0.09899640  0.09650731  1
  Nb  Nb119  1  0.50355505  0.70742483  0.30542649  1
  Nb  Nb120  1  0.10064816  0.70068864  0.69735591  1
  Nb  Nb121  1  0.09208374  0.30044821  0.29826911  1
  Nb  Nb122  1  0.50206241  0.89835188  0.89283595  1
  Nb  Nb123  1  0.69913074  0.29648712  0.70608776  1
  Nb  Nb124  1  0.50281075  0.90060195  0.70462825  1
  Nb  Nb125  1  0.79415983  0.20239105  0.60397522  1
  Nb  Nb126  1  0.40382417  0.00518722  0.60802577  1
  Nb  Nb127  1  0.19644969  0.60497826  0.60687472  1
  Nb  Nb128  1  0.40694258  -0.00246843  -0.00134723  1
  Nb  Nb129  1  -0.00525460  -0.00285026  0.19460886  1
  Nb  Nb130  1  0.80094773  0.60023908  0.80332880  1
  Nb  Nb131  1  0.40151970  0.80896460  -0.00462699  1
  Nb  Nb132  1  0.80010098  0.40089561  0.18976554  1
  Nb  Nb133  1  0.40611498  -0.00295657  0.80179555  1
  Nb  Nb134  1  0.60242967  0.40717710  0.79940967  1
  Nb  Nb135  1  0.60280437  0.59749078  0.80015544  1
  Nb  Nb136  1  0.20491838  0.79509771  -0.00505583  1
  Nb  Nb137  1  0.40308661  0.19162613  0.60110317  1
  Nb  Nb138  1  0.60269973  0.20208438  0.60235182  1
  Nb  Nb139  1  0.20226476  0.59748904  0.19745113  1
  Nb  Nb140  1  0.20646089  0.79994946  0.39619804  1
  Nb  Nb141  1  0.40301573  0.40280115  0.20294248  1
  Nb  Nb142  1  0.00477840  0.20075512  0.40022098  1
  Nb  Nb143  1  0.79621570  0.60007186  0.39719372  1
  Nb  Nb144  1  0.60266593  0.80277924  -0.00810990  1
  Nb  Nb145  1  0.40112429  0.59697490  0.80187991  1
  Nb  Nb146  1  0.20513004  0.60535525  -0.00111242  1
  Nb  Nb147  1  0.59523377  -0.00846928  0.39488550  1
  Nb  Nb148  1  0.79771297  0.40167589  0.00264235  1
  Nb  Nb149  1  0.00008037  0.39332471  0.39802511  1
  Pd  Pd150  1  0.19772505  0.19898320  0.39282565  1
  Pd  Pd151  1  -0.00638204  0.80848931  0.20638808  1
  Pd  Pd152  1  0.60679374  0.39395818  -0.00381886  1
  Pd  Pd153  1  0.80406940  0.79861499  0.59469935  1
  Pd  Pd154  1  0.00884841  0.59358855  0.18874324  1
  Pd  Pd155  1  0.19499228  0.80600182  0.80286804  1
  Pd  Pd156  1  0.60517497  0.60361670  0.60349883  1
  Pd  Pd157  1  0.00240399  0.59610395  0.59097609  1
  Pd  Pd158  1  0.40204726  0.59641105  0.20578784  1
  Pd  Pd159  1  0.60103221  0.19860124  0.19736680  1
  Pd  Pd160  1  0.00174795  0.20357444  0.80400124  1
  Pd  Pd161  1  0.40458934  0.39607140  0.39530359  1
  Pd  Pd162  1  0.40875887  0.18691871  0.78878463  1
  Pd  Pd163  1  0.40309500  0.39678997  0.60140972  1
  Pd  Pd164  1  0.01047248  0.60342425  0.00399456  1
  Pd  Pd165  1  0.80658152  -0.00377219  0.20183015  1
  Pd  Pd166  1  0.20655110  0.40424612  0.19986059  1
  Pd  Pd167  1  0.59951437  0.00405958  0.20950794  1
  Pd  Pd168  1  0.39924310  0.20597359  0.40037879  1
  Pd  Pd169  1  0.79767231  0.59550588  -0.00272152  1
  Pd  Pd170  1  0.79687712  0.00649302  0.59657155  1
  Pd  Pd171  1  0.40002319  0.80703270  0.40952506  1
  Pd  Pd172  1  0.59642878  0.60749716  0.20242125  1
  Pd  Pd173  1  0.80614035  0.40822235  0.38653688  1
  Pd  Pd174  1  0.59967074  0.60166209  0.40458057  1
  Pd  Pd175  1  0.20369867  0.60992942  0.40065925  1
  Pd  Pd176  1  0.20786472  -0.00106747  0.00658061  1
  Pd  Pd177  1  0.39798471  0.20860811  0.20043356  1
  Pd  Pd178  1  0.39786160  0.61243818  -0.00171600  1
  Pd  Pd179  1  0.60124142  -0.00733108  -0.00584656  1
  Pd  Pd180  1  0.19170951  0.40000757  0.80450874  1
  Pd  Pd181  1  -0.00583084  0.01069942  0.00511156  1
  Pd  Pd182  1  0.40909529  0.80733872  0.19085961  1
  Pd  Pd183  1  -0.01091333  0.59115746  0.40690648  1
  Pd  Pd184  1  0.20362067  0.00259321  0.60298160  1
  Pd  Pd185  1  0.79689725  0.20226198  0.19593198  1
  Pd  Pd186  1  0.79349613  0.38882584  0.60249453  1
  Pd  Pd187  1  -0.00091088  0.80955087  0.59278390  1
  Pd  Pd188  1  0.00252144  0.40386137  0.59529863  1
  Pd  Pd189  1  0.81051959  0.79854883  0.80024807  1
  Pd  Pd190  1  -0.00340226  -0.00140396  0.80165113  1
  Pd  Pd191  1  0.59831789  0.39289406  0.60417989  1
  Pd  Pd192  1  0.19663129  0.20049450  0.00052649  1
  Pd  Pd193  1  0.20279538  0.19636930  0.20543176  1
  Pd  Pd194  1  0.40624333  -0.01149106  0.40682112  1
  Pd  Pd195  1  0.19680457  0.39562747  0.40479231  1
  Pd  Pd196  1  0.60121316  0.61021642  -0.00402042  1
  Pd  Pd197  1  0.00285797  0.39498062  0.80336986  1
  Pd  Pd198  1  0.19603670  0.41189942  0.60065446  1
  Pd  Pd199  1  0.78893112  -0.00404471  0.39244980  1
  Rh  Rh200  1  0.80033683  0.80225323  -0.00152004  1
  Rh  Rh201  1  0.80286038  -0.00443854  0.80666963  1
  Rh  Rh202  1  0.79895552  0.60552305  0.59742639  1
  Rh  Rh203  1  0.00299783  0.79099901  -0.00487173  1
  Rh  Rh204  1  0.59243715  0.40692066  0.40278258  1
  Rh  Rh205  1  0.79871481  0.79414123  0.40244385  1
  Rh  Rh206  1  -0.01086536  0.60052881  0.80246067  1
  Rh  Rh207  1  0.40584827  -0.00511702  0.19529430  1
  Rh  Rh208  1  0.19962346  -0.00933426  0.39602389  1
  Rh  Rh209  1  0.39703917  0.19730645  0.00833750  1
  Rh  Rh210  1  0.79728396  0.20594308  0.00176161  1
  Rh  Rh211  1  0.19408368  -0.00243087  0.79607971  1
  Rh  Rh212  1  0.39537418  0.80328195  0.79754268  1
  Rh  Rh213  1  0.60138214  0.79740642  0.60501624  1
  Rh  Rh214  1  0.38987008  0.59224719  0.60878085  1
  Rh  Rh215  1  -0.00243335  -0.00352418  0.59536977  1
  Rh  Rh216  1  0.20079717  0.40552625  -0.00553769  1
  Rh  Rh217  1  -0.00365725  0.18557357  0.20249391  1
  Rh  Rh218  1  -0.00697293  0.39435922  -0.00373765  1
  Rh  Rh219  1  0.20763032  0.59241279  0.79834431  1
  Rh  Rh220  1  0.60617883  0.79751557  0.79806628  1
  Rh  Rh221  1  0.80935284  0.80658587  0.19707452  1
  Rh  Rh222  1  0.18914016  0.20511092  0.80414348  1
  Rh  Rh223  1  -0.01183755  0.19422613  0.59197457  1
  Rh  Rh224  1  0.20887267  0.18988836  0.60134512  1
  Rh  Rh225  1  0.00057912  0.00314110  0.39268384  1
  Rh  Rh226  1  0.79480840  0.59263534  0.20446464  1
  Rh  Rh227  1  0.19674832  0.79625279  0.59128696  1
  Rh  Rh228  1  -0.00645741  0.80197272  0.79919446  1
  Rh  Rh229  1  0.20098595  0.78894862  0.20806763  1
  Rh  Rh230  1  0.39826837  0.81116480  0.60366492  1
  Rh  Rh231  1  -0.00884496  0.40558866  0.20294325  1
  Rh  Rh232  1  0.80605043  0.19594337  0.40548215  1
  Rh  Rh233  1  0.59868490  0.39654837  0.20292454  1
  Rh  Rh234  1  0.81043975  0.20146260  0.79363457  1
  Rh  Rh235  1  0.41182939  0.60086478  0.40291909  1
  Rh  Rh236  1  0.19261754  0.00374468  0.20189368  1
  Rh  Rh237  1  0.00599993  0.80700616  0.39980557  1
  Rh  Rh238  1  0.39975950  0.38957375  0.00829615  1
  Rh  Rh239  1  0.59835275  0.00466964  0.58950465  1
  Rh  Rh240  1  0.60338794  -0.00213657  0.81115337  1
  Rh  Rh241  1  0.80235026  -0.00284850  -0.00431870  1
  Rh  Rh242  1  0.59782882  0.80309066  0.40028394  1
  Rh  Rh243  1  0.60054371  0.19160028  0.40145470  1
  Rh  Rh244  1  -0.00010005  0.19750552  0.00094254  1
  Rh  Rh245  1  0.40712255  0.41000140  0.80070923  1
  Rh  Rh246  1  0.59411920  0.20886850  0.79584190  1
  Rh  Rh247  1  0.59575444  0.79571263  0.19402536  1
  Rh  Rh248  1  0.79559855  0.40572193  0.80347786  1
  Rh  Rh249  1  0.60638544  0.20339674  0.00417859  1
