# generated using pymatgen
data_ZrScNbPdRh
_symmetry_space_group_name_H-M   'P 1'
_cell_length_a   16.55619267
_cell_length_b   16.55561991
_cell_length_c   16.55257135
_cell_angle_alpha   89.97549031
_cell_angle_beta   89.95887235
_cell_angle_gamma   90.01220973
_symmetry_Int_Tables_number   1
_chemical_formula_structural   ZrScNbPdRh
_chemical_formula_sum   'Zr50 Sc50 Nb50 Pd50 Rh50'
_cell_volume   4537.02556085
_cell_formula_units_Z   50
loop_
 _symmetry_equiv_pos_site_id
 _symmetry_equiv_pos_as_xyz
  1  'x, y, z'
loop_
 _atom_site_type_symbol
 _atom_site_label
 _atom_site_symmetry_multiplicity
 _atom_site_fract_x
 _atom_site_fract_y
 _atom_site_fract_z
 _atom_site_occupancy
  Zr  Zr0  1  0.49848987  0.30191464  0.70073439  1
  Zr  Zr1  1  0.90813046  0.29712231  0.29310451  1
  Zr  Zr2  1  0.70007701  0.49932136  0.50714755  1
  Zr  Zr3  1  0.50066976  0.90477705  0.30091748  1
  Zr  Zr4  1  0.50701177  0.30600380  0.48982222  1
  Zr  Zr5  1  0.09706108  0.28912746  0.50785247  1
  Zr  Zr6  1  0.30023499  0.89658427  0.90067990  1
  Zr  Zr7  1  0.89841321  0.49384342  0.09674157  1
  Zr  Zr8  1  0.90044542  0.71307579  0.70867787  1
  Zr  Zr9  1  0.90146642  0.70448723  0.10179283  1
  Zr  Zr10  1  0.10654258  0.50423902  0.09523338  1
  Zr  Zr11  1  0.28939739  0.70273717  0.89639560  1
  Zr  Zr12  1  0.91189187  0.50187406  0.70389103  1
  Zr  Zr13  1  0.49639829  0.89651534  0.69530802  1
  Zr  Zr14  1  0.70401114  0.29736820  0.50229399  1
  Zr  Zr15  1  0.69859379  0.50605486  0.29971079  1
  Zr  Zr16  1  0.29652296  0.09980579  0.90547440  1
  Zr  Zr17  1  0.30525382  0.30153217  0.09695488  1
  Zr  Zr18  1  0.29671483  0.49863547  0.29720780  1
  Zr  Zr19  1  0.90196402  0.49971803  0.30158300  1
  Zr  Zr20  1  0.30055318  0.89306964  0.09700374  1
  Zr  Zr21  1  0.70733297  0.10024058  0.70331156  1
  Zr  Zr22  1  0.10241246  0.30319183  0.70274008  1
  Zr  Zr23  1  0.10563672  0.51756188  0.50649156  1
  Zr  Zr24  1  0.89551280  0.09902966  0.11216196  1
  Zr  Zr25  1  0.70197770  0.50927195  0.69351305  1
  Zr  Zr26  1  0.49853464  0.10324158  0.29430369  1
  Zr  Zr27  1  0.90326638  0.09667003  0.90882878  1
  Zr  Zr28  1  0.09905681  0.09732480  0.90254350  1
  Zr  Zr29  1  0.10179476  0.89698101  0.90539281  1
  Zr  Zr30  1  0.70317901  0.10838427  0.89646362  1
  Zr  Zr31  1  0.90565764  0.30253959  0.69163413  1
  Zr  Zr32  1  0.30009866  0.50265660  0.90145510  1
  Zr  Zr33  1  0.29755315  0.70450275  0.30023996  1
  Zr  Zr34  1  0.30640450  0.50877224  0.50015983  1
  Zr  Zr35  1  0.10303725  0.71207969  0.30827705  1
  Zr  Zr36  1  0.49203893  0.28752299  0.29598443  1
  Zr  Zr37  1  0.09101458  0.09373465  0.09450477  1
  Zr  Zr38  1  0.70633295  0.90257781  0.49315768  1
  Zr  Zr39  1  0.29374442  0.29725742  0.29580824  1
  Zr  Zr40  1  0.49785849  0.90189018  0.49628041  1
  Zr  Zr41  1  0.30842173  0.90329929  0.69737647  1
  Zr  Zr42  1  0.70294819  0.91031025  0.10096817  1
  Zr  Zr43  1  0.70135464  0.29424084  0.09975820  1
  Zr  Zr44  1  0.29309045  0.69394612  0.49704379  1
  Zr  Zr45  1  0.30050938  0.50445756  0.10088723  1
  Zr  Zr46  1  0.49131195  0.49900186  0.89217646  1
  Zr  Zr47  1  0.49911486  0.69645836  0.90268155  1
  Zr  Zr48  1  0.70284075  0.09636887  0.09307544  1
  Zr  Zr49  1  0.70243579  0.69778544  0.50100062  1
  Sc  Sc50  1  0.89955466  0.50273462  0.50818250  1
  Sc  Sc51  1  0.90323692  0.89645637  0.89077746  1
  Sc  Sc52  1  0.30597154  0.50138090  0.70697928  1
  Sc  Sc53  1  0.08655856  0.90388945  0.69508564  1
  Sc  Sc54  1  0.70867065  0.28957652  0.70434861  1
  Sc  Sc55  1  0.49013111  0.70243376  0.10007319  1
  Sc  Sc56  1  0.29707982  0.69708333  0.09879583  1
  Sc  Sc57  1  0.48783443  0.70143843  0.50165607  1
  Sc  Sc58  1  0.30605429  0.90262865  0.50263457  1
  Sc  Sc59  1  0.09939052  0.49366470  0.29647751  1
  Sc  Sc60  1  0.68789553  0.70668407  0.89266383  1
  Sc  Sc61  1  0.30050482  0.29383321  0.49586182  1
  Sc  Sc62  1  0.90212357  0.30102359  0.90543322  1
  Sc  Sc63  1  0.29643442  0.90102506  0.29490733  1
  Sc  Sc64  1  0.90511107  0.29112225  0.09959955  1
  Sc  Sc65  1  0.49033666  0.29415043  0.90188914  1
  Sc  Sc66  1  0.49424810  0.09876642  0.48381682  1
  Sc  Sc67  1  0.68845162  0.69096498  0.10868023  1
  Sc  Sc68  1  0.09918621  0.69163633  0.70799475  1
  Sc  Sc69  1  0.09376165  0.89957239  0.49451265  1
  Sc  Sc70  1  0.09805364  0.10909963  0.69215232  1
  Sc  Sc71  1  0.50641855  0.69623330  0.70549652  1
  Sc  Sc72  1  0.49771003  0.90401269  0.09773802  1
  Sc  Sc73  1  0.90401691  0.90529474  0.50446772  1
  Sc  Sc74  1  0.09923909  0.29938864  0.89558197  1
  Sc  Sc75  1  0.69554115  0.50309196  0.90406691  1
  Sc  Sc76  1  0.90039369  0.09539473  0.70217289  1
  Sc  Sc77  1  0.70034273  0.70196638  0.70139352  1
  Sc  Sc78  1  0.50343285  0.10009625  0.90403924  1
  Sc  Sc79  1  0.70093490  0.09320388  0.29074831  1
  Sc  Sc80  1  0.09971536  0.89679621  0.10586498  1
  Sc  Sc81  1  0.90401791  0.91082882  0.10557628  1
  Sc  Sc82  1  0.90837980  0.70056325  0.50105557  1
  Sc  Sc83  1  0.50217041  0.89221938  0.90299074  1
  Sc  Sc84  1  0.49908260  0.48533740  0.30549973  1
  Sc  Sc85  1  0.10739583  0.09778133  0.29885268  1
  Sc  Sc86  1  0.30171211  0.10274519  0.30435563  1
  Sc  Sc87  1  0.49211505  0.50419434  0.09663896  1
  Sc  Sc88  1  0.69778153  0.90320866  0.90446782  1
  Sc  Sc89  1  0.90589085  0.90585022  0.30492376  1
  Sc  Sc90  1  0.29407693  0.09578664  0.49882677  1
  Sc  Sc91  1  0.09927258  0.29723952  0.10808446  1
  Sc  Sc92  1  0.10027761  0.09400049  0.50476208  1
  Sc  Sc93  1  0.68062470  0.29563258  0.30231539  1
  Sc  Sc94  1  0.49566515  0.09239793  0.70078035  1
  Sc  Sc95  1  0.29758577  0.09722410  0.09684209  1
  Sc  Sc96  1  0.69381883  0.50102738  0.10451824  1
  Sc  Sc97  1  0.29946973  0.30630647  0.89563064  1
  Sc  Sc98  1  0.89738672  0.69810530  0.30690925  1
  Sc  Sc99  1  0.50087672  0.71373022  0.30064344  1
  Nb  Nb100  1  0.49991315  0.11007480  0.09847874  1
  Nb  Nb101  1  0.70554719  0.09968050  0.50207950  1
  Nb  Nb102  1  0.09743621  0.70102995  0.90186602  1
  Nb  Nb103  1  0.50693214  0.49992694  0.51019479  1
  Nb  Nb104  1  0.69632336  0.29979310  0.89388428  1
  Nb  Nb105  1  0.29673240  0.70550077  0.69665094  1
  Nb  Nb106  1  0.10350643  0.49596287  0.70806907  1
  Nb  Nb107  1  0.10255277  0.89540014  0.29995733  1
  Nb  Nb108  1  0.10235790  0.29857702  0.30634082  1
  Nb  Nb109  1  0.70637930  0.89984779  0.69808883  1
  Nb  Nb110  1  0.50661025  0.49794111  0.69496564  1
  Nb  Nb111  1  0.49811746  0.29052304  0.10047505  1
  Nb  Nb112  1  0.90381335  0.50012423  0.90102824  1
  Nb  Nb113  1  0.10984911  0.70328069  0.49921403  1
  Nb  Nb114  1  0.89761969  0.09799317  0.49434221  1
  Nb  Nb115  1  0.09956317  0.70173922  0.09559353  1
  Nb  Nb116  1  0.29638587  0.29745029  0.69752725  1
  Nb  Nb117  1  0.29919564  0.09848920  0.69518622  1
  Nb  Nb118  1  0.90019370  0.10320054  0.29518820  1
  Nb  Nb119  1  0.69621266  0.70420621  0.30578198  1
  Nb  Nb120  1  0.90271178  0.70301508  0.89869654  1
  Nb  Nb121  1  0.09890290  0.50341983  0.88660511  1
  Nb  Nb122  1  0.69233234  0.88692598  0.30156362  1
  Nb  Nb123  1  0.89973873  0.29881171  0.49824263  1
  Nb  Nb124  1  0.89163869  0.89949595  0.69909087  1
  Nb  Nb125  1  0.80253880  0.39387164  0.39817189  1
  Nb  Nb126  1  0.60704550  0.00086210  0.59833778  1
  Nb  Nb127  1  0.80472727  0.19775435  0.39909736  1
  Nb  Nb128  1  0.79842552  0.39692859  0.20654648  1
  Nb  Nb129  1  0.00195553  0.60293731  -0.00554395  1
  Nb  Nb130  1  0.60362036  -0.00198457  0.79289216  1
  Nb  Nb131  1  0.80716405  0.59898576  0.80827867  1
  Nb  Nb132  1  -0.00529398  0.19785157  0.39905262  1
  Nb  Nb133  1  0.19922973  0.40732562  -0.00246519  1
  Nb  Nb134  1  0.00354805  0.60472735  0.19315499  1
  Nb  Nb135  1  0.60257355  0.39867511  0.80121779  1
  Nb  Nb136  1  0.20015972  0.79469602  0.59939942  1
  Nb  Nb137  1  0.20351764  0.00251064  0.79640800  1
  Nb  Nb138  1  0.79209782  0.80066461  0.20454285  1
  Nb  Nb139  1  0.39133745  0.19647190  0.79195217  1
  Nb  Nb140  1  0.59597084  0.39176039  -0.00251335  1
  Nb  Nb141  1  0.20099943  0.40340267  0.60142022  1
  Nb  Nb142  1  0.59878204  0.60016922  0.40393306  1
  Nb  Nb143  1  0.80005060  0.40556844  0.80393810  1
  Nb  Nb144  1  0.60326760  0.80787259  0.59753983  1
  Nb  Nb145  1  0.19499074  0.39847083  0.40634596  1
  Nb  Nb146  1  0.80002104  0.79463427  0.00450846  1
  Nb  Nb147  1  0.80566704  0.60523777  -0.00508950  1
  Nb  Nb148  1  0.59770265  0.19196321  0.59688938  1
  Nb  Nb149  1  0.40149080  0.19970491  0.60219060  1
  Pd  Pd150  1  0.40428152  0.39870325  0.19569544  1
  Pd  Pd151  1  -0.00633518  0.79855083  0.20782963  1
  Pd  Pd152  1  0.19512222  -0.01007894  0.60413785  1
  Pd  Pd153  1  0.19896677  0.19425200  0.19440339  1
  Pd  Pd154  1  0.79913867  0.79874441  0.59608130  1
  Pd  Pd155  1  0.79021233  0.40281578  -0.00031488  1
  Pd  Pd156  1  0.59578407  0.00257356  0.19596575  1
  Pd  Pd157  1  0.00897421  0.40648936  0.59276818  1
  Pd  Pd158  1  0.79797565  0.59512185  0.40545057  1
  Pd  Pd159  1  0.19209519  0.60870067  0.20624894  1
  Pd  Pd160  1  0.39762661  0.00375996  0.19664485  1
  Pd  Pd161  1  0.40160013  0.00505705  0.80965978  1
  Pd  Pd162  1  0.40563555  -0.00005359  -0.00078182  1
  Pd  Pd163  1  0.60562753  0.00650793  0.39937608  1
  Pd  Pd164  1  0.40661579  0.60260792  0.21008660  1
  Pd  Pd165  1  0.80519228  0.20228752  -0.00243606  1
  Pd  Pd166  1  0.80380369  0.60249537  0.19583583  1
  Pd  Pd167  1  0.20193470  0.19324896  0.79992017  1
  Pd  Pd168  1  0.39782922  0.60704516  0.79333733  1
  Pd  Pd169  1  0.18967617  0.81029379  0.78744152  1
  Pd  Pd170  1  0.19973345  -0.00068663  0.19656147  1
  Pd  Pd171  1  0.39240487  0.39877198  0.40375119  1
  Pd  Pd172  1  0.00290362  0.39840611  0.41064061  1
  Pd  Pd173  1  0.01176019  0.39998099  -0.00401151  1
  Pd  Pd174  1  0.40369903  0.60338223  0.60995685  1
  Pd  Pd175  1  0.00614883  0.60249666  0.39403766  1
  Pd  Pd176  1  0.39169753  0.80616307  0.39810613  1
  Pd  Pd177  1  0.19573700  0.21111354  0.00124208  1
  Pd  Pd178  1  0.00471946  0.00156436  0.79648012  1
  Pd  Pd179  1  0.58428755  0.60082702  0.21212185  1
  Pd  Pd180  1  0.00745906  0.79636378  0.59976923  1
  Pd  Pd181  1  0.20022401  -0.00560245  0.39972790  1
  Pd  Pd182  1  0.60498131  0.79859135  0.00943223  1
  Pd  Pd183  1  0.59822361  0.80185393  0.19086526  1
  Pd  Pd184  1  0.00172810  0.40299926  0.19491804  1
  Pd  Pd185  1  0.81017514  0.80309987  0.39818836  1
  Pd  Pd186  1  0.59831973  0.59445183  -0.00012994  1
  Pd  Pd187  1  0.40427198  0.79301486  0.80079140  1
  Pd  Pd188  1  -0.00386256  0.20092134  0.80071969  1
  Pd  Pd189  1  0.80534514  0.19452985  0.59876219  1
  Pd  Pd190  1  0.60987232  0.38888505  0.60964649  1
  Pd  Pd191  1  0.41224313  0.59736544  0.39151245  1
  Pd  Pd192  1  0.39312451  0.39663975  0.59770302  1
  Pd  Pd193  1  0.59560688  0.39748868  0.19134412  1
  Pd  Pd194  1  0.79801403  0.00173098  0.39045454  1
  Pd  Pd195  1  0.79844172  -0.00530969  0.80700481  1
  Pd  Pd196  1  0.59864367  0.20261328  -0.00327769  1
  Pd  Pd197  1  -0.00541904  0.80484278  0.00032919  1
  Pd  Pd198  1  0.00091771  0.60920225  0.60615323  1
  Pd  Pd199  1  0.00601080  0.00637155  0.39556297  1
  Rh  Rh200  1  0.80234738  0.40039808  0.60350714  1
  Rh  Rh201  1  0.81364842  0.60813265  0.61089007  1
  Rh  Rh202  1  0.00168327  0.20012190  0.00228176  1
  Rh  Rh203  1  0.19292239  0.20159179  0.40255677  1
  Rh  Rh204  1  0.59741442  0.79093990  0.41130237  1
  Rh  Rh205  1  0.40661371  0.01227810  0.58898213  1
  Rh  Rh206  1  0.20392181  0.81073058  0.40889026  1
  Rh  Rh207  1  0.19841659  0.39469947  0.19963336  1
  Rh  Rh208  1  0.80452339  -0.00061107  0.60032166  1
  Rh  Rh209  1  0.60393478  0.19215787  0.19523978  1
  Rh  Rh210  1  -0.00428453  -0.00678339  0.00129497  1
  Rh  Rh211  1  0.20314993  0.40294165  0.79965674  1
  Rh  Rh212  1  0.60424400  0.58992633  0.79986603  1
  Rh  Rh213  1  0.39562182  0.60708147  -0.00292616  1
  Rh  Rh214  1  0.00682649  0.00140185  0.20809100  1
  Rh  Rh215  1  0.19936904  0.79842544  0.00549759  1
  Rh  Rh216  1  0.39740891  0.79493684  -0.00112047  1
  Rh  Rh217  1  0.39749062  0.80326001  0.19956288  1
  Rh  Rh218  1  0.20809697  0.20280916  0.59646844  1
  Rh  Rh219  1  0.39350377  -0.00204481  0.39305442  1
  Rh  Rh220  1  0.01026712  0.19157557  0.20570765  1
  Rh  Rh221  1  0.40343320  0.39575639  0.79507376  1
  Rh  Rh222  1  -0.00817443  0.00350897  0.60091356  1
  Rh  Rh223  1  0.19534095  0.59319261  0.38852170  1
  Rh  Rh224  1  0.80715849  -0.00719295  -0.00664207  1
  Rh  Rh225  1  0.20248640  0.60001479  0.61411678  1
  Rh  Rh226  1  0.60748004  0.41038273  0.40318543  1
  Rh  Rh227  1  0.19905713  -0.00700313  -0.00116843  1
  Rh  Rh228  1  0.81433316  0.20948420  0.80448946  1
  Rh  Rh229  1  0.79332858  0.79892319  0.80856549  1
  Rh  Rh230  1  0.59104648  0.61334803  0.59305860  1
  Rh  Rh231  1  0.39199379  0.19290190  0.19377238  1
  Rh  Rh232  1  0.79166259  0.20770410  0.20720733  1
  Rh  Rh233  1  0.39764879  0.79137373  0.60231272  1
  Rh  Rh234  1  0.20215695  0.60041034  0.79855100  1
  Rh  Rh235  1  -0.00925598  0.18996139  0.59393077  1
  Rh  Rh236  1  0.39522048  0.20037457  0.40327988  1
  Rh  Rh237  1  0.20030394  0.79864078  0.19597098  1
  Rh  Rh238  1  0.60745805  0.18989566  0.40460637  1
  Rh  Rh239  1  0.39658919  0.19807191  -0.00400317  1
  Rh  Rh240  1  -0.00102071  0.80174439  0.40313617  1
  Rh  Rh241  1  -0.00462508  0.39209334  0.80353571  1
  Rh  Rh242  1  -0.00120511  0.60487577  0.80381449  1
  Rh  Rh243  1  0.79968455  -0.01266350  0.21126220  1
  Rh  Rh244  1  0.00534017  0.80516735  0.79787183  1
  Rh  Rh245  1  0.19522683  0.59935772  -0.00932825  1
  Rh  Rh246  1  0.58847852  0.19792466  0.79428443  1
  Rh  Rh247  1  0.59697552  0.00505316  -0.00425144  1
  Rh  Rh248  1  0.60215585  0.81143457  0.79064340  1
  Rh  Rh249  1  0.40102315  0.39869540  0.00498508  1
