# generated using pymatgen
data_ZrScNbPdRh
_symmetry_space_group_name_H-M   'P 1'
_cell_length_a   16.55524642
_cell_length_b   16.55891171
_cell_length_c   16.56295644
_cell_angle_alpha   89.99728607
_cell_angle_beta   90.01648078
_cell_angle_gamma   90.03262286
_symmetry_Int_Tables_number   1
_chemical_formula_structural   ZrScNbPdRh
_chemical_formula_sum   'Zr50 Sc50 Nb50 Pd50 Rh50'
_cell_volume   4540.51600664
_cell_formula_units_Z   50
loop_
 _symmetry_equiv_pos_site_id
 _symmetry_equiv_pos_as_xyz
  1  'x, y, z'
loop_
 _atom_site_type_symbol
 _atom_site_label
 _atom_site_symmetry_multiplicity
 _atom_site_fract_x
 _atom_site_fract_y
 _atom_site_fract_z
 _atom_site_occupancy
  Zr  Zr0  1  0.30337633  0.70056130  0.70040470  1
  Zr  Zr1  1  0.09531373  0.29774309  0.09766105  1
  Zr  Zr2  1  0.49775493  0.89560978  0.69554688  1
  Zr  Zr3  1  0.90092978  0.31139482  0.90241615  1
  Zr  Zr4  1  0.89764232  0.29973840  0.10289680  1
  Zr  Zr5  1  0.10026432  0.90297217  0.89929197  1
  Zr  Zr6  1  0.29761431  0.29211547  0.29915210  1
  Zr  Zr7  1  0.70143840  0.89659715  0.89527860  1
  Zr  Zr8  1  0.09574516  0.49832081  0.49358257  1
  Zr  Zr9  1  0.29561220  0.69582650  0.29484690  1
  Zr  Zr10  1  0.09786915  0.29507497  0.70404225  1
  Zr  Zr11  1  0.50192431  0.89910850  0.90706104  1
  Zr  Zr12  1  0.90580473  0.29864134  0.50467416  1
  Zr  Zr13  1  0.69996269  0.91134666  0.09222823  1
  Zr  Zr14  1  0.69645280  0.30362854  0.69700855  1
  Zr  Zr15  1  0.69923028  0.10868444  0.30181479  1
  Zr  Zr16  1  0.90093144  0.90368540  0.10686951  1
  Zr  Zr17  1  0.90248233  0.89557305  0.29788779  1
  Zr  Zr18  1  0.89894676  0.69505374  0.50954936  1
  Zr  Zr19  1  0.89900375  0.69992969  0.88993819  1
  Zr  Zr20  1  0.49742279  0.69930842  0.89223438  1
  Zr  Zr21  1  0.48920138  0.09789742  0.70285685  1
  Zr  Zr22  1  0.30217683  0.91293932  0.29256708  1
  Zr  Zr23  1  0.29857534  0.29089078  0.69769615  1
  Zr  Zr24  1  0.51548350  0.70289563  0.29679237  1
  Zr  Zr25  1  0.29701470  0.50422205  0.90050279  1
  Zr  Zr26  1  0.30239339  0.90385101  0.90858503  1
  Zr  Zr27  1  0.29106253  0.90966057  0.50184919  1
  Zr  Zr28  1  0.31600681  0.49409563  0.29757723  1
  Zr  Zr29  1  0.70200632  0.10498998  0.49875962  1
  Zr  Zr30  1  0.69923351  0.30202652  0.90474706  1
  Zr  Zr31  1  0.30059488  0.09889968  0.69307091  1
  Zr  Zr32  1  0.70284252  0.29437844  0.50000005  1
  Zr  Zr33  1  0.49111115  0.50248079  0.48482424  1
  Zr  Zr34  1  0.10885126  0.90503970  0.09961720  1
  Zr  Zr35  1  0.29992130  0.90348289  0.69449071  1
  Zr  Zr36  1  0.89004765  0.10090365  0.10671774  1
  Zr  Zr37  1  0.70193173  0.89792554  0.69924725  1
  Zr  Zr38  1  0.10398063  0.90506178  0.29869246  1
  Zr  Zr39  1  0.28951915  0.69745729  0.89933496  1
  Zr  Zr40  1  0.49647459  0.70910451  0.10296576  1
  Zr  Zr41  1  0.50507528  0.29903062  0.89782969  1
  Zr  Zr42  1  0.09284749  0.29263282  0.90179702  1
  Zr  Zr43  1  0.30174220  0.09747997  0.10497695  1
  Zr  Zr44  1  0.69679076  0.10153769  0.69458116  1
  Zr  Zr45  1  0.49735716  0.70138414  0.49951899  1
  Zr  Zr46  1  0.49856909  0.29317609  0.70296142  1
  Zr  Zr47  1  0.11127409  0.69856092  0.10014438  1
  Zr  Zr48  1  0.49527847  0.89642019  0.10394444  1
  Zr  Zr49  1  0.90969982  0.90586324  0.51024646  1
  Sc  Sc50  1  0.51009563  0.29955924  0.10812879  1
  Sc  Sc51  1  0.30359164  0.69150801  0.49404869  1
  Sc  Sc52  1  0.09957303  0.50034833  0.09649781  1
  Sc  Sc53  1  0.50149978  0.90569249  0.50050251  1
  Sc  Sc54  1  0.69817560  0.49749468  0.70020732  1
  Sc  Sc55  1  0.29573218  0.09857795  0.49619631  1
  Sc  Sc56  1  0.10221233  0.10482045  0.29993145  1
  Sc  Sc57  1  0.10067587  0.69611779  0.29140014  1
  Sc  Sc58  1  0.49559899  0.50716859  0.70679379  1
  Sc  Sc59  1  0.69464058  0.71044320  0.11133474  1
  Sc  Sc60  1  0.70645616  0.88739031  0.30245814  1
  Sc  Sc61  1  0.09470879  0.50030981  0.70156187  1
  Sc  Sc62  1  0.29713472  0.50093289  0.48038734  1
  Sc  Sc63  1  0.10491145  0.49651340  0.30584520  1
  Sc  Sc64  1  0.30590404  0.09690795  0.89731951  1
  Sc  Sc65  1  0.89755149  0.69114845  0.69793841  1
  Sc  Sc66  1  0.69876238  0.71142693  0.50208168  1
  Sc  Sc67  1  0.09668753  0.70096844  0.70145323  1
  Sc  Sc68  1  0.69544065  0.90326420  0.51055253  1
  Sc  Sc69  1  0.69708105  0.48342062  0.10864169  1
  Sc  Sc70  1  0.90151387  0.90483486  0.88820500  1
  Sc  Sc71  1  0.29877330  0.29334117  0.48918410  1
  Sc  Sc72  1  0.69806412  0.09838090  0.91647918  1
  Sc  Sc73  1  0.49734651  0.29866881  0.29974681  1
  Sc  Sc74  1  0.69753533  0.49508971  0.89375468  1
  Sc  Sc75  1  0.89843756  0.49438876  0.51300807  1
  Sc  Sc76  1  0.29903697  0.29496780  0.10610950  1
  Sc  Sc77  1  0.49748397  0.09936222  0.89747570  1
  Sc  Sc78  1  0.90580114  0.70177656  0.11371703  1
  Sc  Sc79  1  0.69491923  0.69960471  0.88888626  1
  Sc  Sc80  1  0.09849046  0.29810639  0.30574365  1
  Sc  Sc81  1  0.09532748  0.10209255  0.09541327  1
  Sc  Sc82  1  0.69277674  0.48567942  0.50082194  1
  Sc  Sc83  1  0.70081291  0.70679849  0.69866736  1
  Sc  Sc84  1  0.50874370  0.10586927  0.10104205  1
  Sc  Sc85  1  0.28519225  0.30436880  0.90144702  1
  Sc  Sc86  1  0.50800473  0.30501253  0.49482391  1
  Sc  Sc87  1  0.49556502  0.09970473  0.30064829  1
  Sc  Sc88  1  0.90955950  0.10117502  0.29432049  1
  Sc  Sc89  1  0.91338589  0.09660779  0.89010696  1
  Sc  Sc90  1  0.90258195  0.30521702  0.29827238  1
  Sc  Sc91  1  0.10859886  0.49886105  0.89813396  1
  Sc  Sc92  1  0.90740398  0.09495195  0.69629157  1
  Sc  Sc93  1  0.90389088  0.48754827  0.10241807  1
  Sc  Sc94  1  0.10191808  0.89766043  0.68497135  1
  Sc  Sc95  1  0.29081234  0.50386342  0.70882511  1
  Sc  Sc96  1  0.50455598  0.09372588  0.49355825  1
  Sc  Sc97  1  0.50723078  0.50110347  0.89455900  1
  Sc  Sc98  1  0.30007351  0.10444267  0.30325564  1
  Sc  Sc99  1  0.70323734  0.30332106  0.30271572  1
  Nb  Nb100  1  0.09980786  0.30172323  0.49616940  1
  Nb  Nb101  1  0.09115776  0.09452469  0.50409930  1
  Nb  Nb102  1  0.69968389  0.10736426  0.10475825  1
  Nb  Nb103  1  0.89571921  0.90220560  0.70245364  1
  Nb  Nb104  1  0.10368851  0.89770147  0.49924637  1
  Nb  Nb105  1  0.30019103  0.70015567  0.09971337  1
  Nb  Nb106  1  0.49820746  0.69848088  0.69858904  1
  Nb  Nb107  1  0.89511266  0.50343765  0.90089491  1
  Nb  Nb108  1  0.30505318  0.89534258  0.10227081  1
  Nb  Nb109  1  0.89419769  0.49271357  0.70630336  1
  Nb  Nb110  1  0.09765657  0.70031419  0.50459922  1
  Nb  Nb111  1  0.70079803  0.50204479  0.30274159  1
  Nb  Nb112  1  0.89945780  0.30817001  0.70628042  1
  Nb  Nb113  1  0.70829165  0.69973787  0.30334791  1
  Nb  Nb114  1  0.89442829  0.70265290  0.30412520  1
  Nb  Nb115  1  0.49591284  0.49834864  0.10994762  1
  Nb  Nb116  1  0.09796286  0.70016263  0.90331587  1
  Nb  Nb117  1  0.09974534  0.10214855  0.70658657  1
  Nb  Nb118  1  0.70439545  0.28001473  0.09993315  1
  Nb  Nb119  1  0.09929701  0.09527060  0.89266081  1
  Nb  Nb120  1  0.89574926  0.49991870  0.30120108  1
  Nb  Nb121  1  0.50887798  0.49625756  0.29580695  1
  Nb  Nb122  1  0.90374128  0.09849068  0.49829805  1
  Nb  Nb123  1  0.30662943  0.50176164  0.10228954  1
  Nb  Nb124  1  0.49550066  0.90273347  0.29589202  1
  Nb  Nb125  1  0.39712622  0.80642578  0.39198145  1
  Nb  Nb126  1  0.40252138  0.40334040  0.00330646  1
  Nb  Nb127  1  0.80286884  0.20703175  0.79801712  1
  Nb  Nb128  1  0.20623559  0.40057020  0.19988879  1
  Nb  Nb129  1  0.40207926  0.59798284  0.00798354  1
  Nb  Nb130  1  0.79845648  0.59884768  0.39661045  1
  Nb  Nb131  1  0.80720475  0.79576755  -0.00060991  1
  Nb  Nb132  1  0.80691194  0.00352406  0.40556010  1
  Nb  Nb133  1  0.79884813  0.60210733  0.00591717  1
  Nb  Nb134  1  0.59784608  0.59744397  0.00883949  1
  Nb  Nb135  1  0.19961593  0.39817220  0.59405534  1
  Nb  Nb136  1  0.39652813  0.39617906  0.80133288  1
  Nb  Nb137  1  0.40135116  0.20849134  0.00002248  1
  Nb  Nb138  1  0.19678492  0.00198696  0.79655308  1
  Nb  Nb139  1  0.79868427  0.59748210  0.20708977  1
  Nb  Nb140  1  0.59930623  -0.00373846  0.79907300  1
  Nb  Nb141  1  0.60380918  -0.00166943  0.20094270  1
  Nb  Nb142  1  0.59178793  0.60430321  0.59898855  1
  Nb  Nb143  1  0.39196570  0.40028029  0.60178743  1
  Nb  Nb144  1  -0.00516032  0.60478782  -0.00573901  1
  Nb  Nb145  1  0.00099588  0.79628917  -0.00209665  1
  Nb  Nb146  1  0.19624290  0.59681722  0.59418958  1
  Nb  Nb147  1  -0.01002381  0.60426384  0.39782212  1
  Nb  Nb148  1  0.19740860  0.80241167  0.40228024  1
  Nb  Nb149  1  0.00439107  0.79648053  0.40424556  1
  Pd  Pd150  1  0.40699018  0.00967528  0.00816338  1
  Pd  Pd151  1  -0.00067644  0.19952840  0.60510560  1
  Pd  Pd152  1  0.61052226  0.18928085  0.80770708  1
  Pd  Pd153  1  0.61059484  -0.00656197  0.39057911  1
  Pd  Pd154  1  0.80710990  0.80554641  0.41537342  1
  Pd  Pd155  1  0.40620103  0.60655929  0.20277132  1
  Pd  Pd156  1  0.59643638  0.80984399  0.40074954  1
  Pd  Pd157  1  0.39431393  0.80267912  0.58830483  1
  Pd  Pd158  1  0.60922568  0.59934195  0.40838779  1
  Pd  Pd159  1  0.00013595  -0.00251277  0.39658595  1
  Pd  Pd160  1  0.81126084  0.20284495  0.60850973  1
  Pd  Pd161  1  0.79162736  0.59667956  0.79966434  1
  Pd  Pd162  1  0.79144481  0.00105435  0.21383115  1
  Pd  Pd163  1  0.19737648  0.01021115  0.19858126  1
  Pd  Pd164  1  0.59709243  0.40317501  0.00542370  1
  Pd  Pd165  1  0.00467283  0.40800159  0.80601510  1
  Pd  Pd166  1  0.00452464  0.40098834  0.60404245  1
  Pd  Pd167  1  0.20093397  0.80235071  0.00209067  1
  Pd  Pd168  1  0.19271954  0.19954202  0.58952198  1
  Pd  Pd169  1  0.60911983  0.79135986  -0.00266966  1
  Pd  Pd170  1  -0.00506718  -0.00153538  0.00315355  1
  Pd  Pd171  1  0.81056859  -0.00121230  -0.00912221  1
  Pd  Pd172  1  -0.00102937  0.20177135  0.39788903  1
  Pd  Pd173  1  0.81150295  0.19446501  -0.01150234  1
  Pd  Pd174  1  -0.00543663  0.79861046  0.60619989  1
  Pd  Pd175  1  -0.00428551  0.59294305  0.20095933  1
  Pd  Pd176  1  0.80100484  0.00172506  0.59627223  1
  Pd  Pd177  1  0.01009314  0.40168358  0.20664020  1
  Pd  Pd178  1  0.20304058  0.40135410  0.01070816  1
  Pd  Pd179  1  0.20411199  0.19325376  0.80710747  1
  Pd  Pd180  1  0.40596974  0.20347511  0.58443259  1
  Pd  Pd181  1  -0.00918537  0.19267909  -0.00004146  1
  Pd  Pd182  1  0.60593949  0.39000056  0.20571039  1
  Pd  Pd183  1  0.60872335  0.59783505  0.19454593  1
  Pd  Pd184  1  0.80459365  0.40250745  0.40597630  1
  Pd  Pd185  1  0.58886959  0.19620940  0.59308460  1
  Pd  Pd186  1  0.81333756  0.19777032  0.39397476  1
  Pd  Pd187  1  0.00009335  0.80478493  0.79428099  1
  Pd  Pd188  1  0.40693700  0.19783158  0.40361896  1
  Pd  Pd189  1  0.19622244  0.80665680  0.79531417  1
  Pd  Pd190  1  0.79194534  0.01427524  0.80339717  1
  Pd  Pd191  1  0.20017335  0.58701120  0.19998635  1
  Pd  Pd192  1  0.79469443  0.40625247  0.00539394  1
  Pd  Pd193  1  0.20571027  0.19049197  -0.00291780  1
  Pd  Pd194  1  0.78413222  0.59252623  0.59461137  1
  Pd  Pd195  1  0.00803303  0.79966733  0.20054719  1
  Pd  Pd196  1  0.58417735  0.41105679  0.60445796  1
  Pd  Pd197  1  0.39685865  0.80370548  0.80343620  1
  Pd  Pd198  1  0.00352007  0.59280491  0.80249015  1
  Pd  Pd199  1  0.39419407  0.58822914  0.60180201  1
  Rh  Rh200  1  0.18954810  0.01196843  0.60416694  1
  Rh  Rh201  1  0.79650655  0.39648380  0.19930547  1
  Rh  Rh202  1  0.80080626  0.39670822  0.60284124  1
  Rh  Rh203  1  0.40326291  0.39275828  0.39897646  1
  Rh  Rh204  1  -0.00681900  0.40380272  0.39995475  1
  Rh  Rh205  1  0.00637113  0.00454437  0.19668130  1
  Rh  Rh206  1  0.80603434  0.79923519  0.79677604  1
  Rh  Rh207  1  0.59433187  0.00465166  0.60853646  1
  Rh  Rh208  1  0.79611149  0.39831294  0.79904296  1
  Rh  Rh209  1  0.59569807  0.79294779  0.60199887  1
  Rh  Rh210  1  0.59439702  0.00420611  0.00271699  1
  Rh  Rh211  1  0.59969789  0.39739595  0.39224877  1
  Rh  Rh212  1  0.59443501  0.80469768  0.79476129  1
  Rh  Rh213  1  -0.00837804  0.20381211  0.79836726  1
  Rh  Rh214  1  0.20839994  0.78589356  0.59206696  1
  Rh  Rh215  1  0.59444857  0.20008994  -0.00070539  1
  Rh  Rh216  1  0.18958898  0.19398725  0.40564656  1
  Rh  Rh217  1  0.41090894  0.60961019  0.38282346  1
  Rh  Rh218  1  0.40366462  0.19744933  0.19304575  1
  Rh  Rh219  1  0.39894079  -0.00915509  0.79946749  1
  Rh  Rh220  1  0.40812069  0.00686393  0.19509159  1
  Rh  Rh221  1  0.20628621  0.80350037  0.20110028  1
  Rh  Rh222  1  0.79911727  0.79782575  0.19087024  1
  Rh  Rh223  1  0.19201552  0.60734740  0.79144408  1
  Rh  Rh224  1  0.80583519  0.80415603  0.60417320  1
  Rh  Rh225  1  0.00356594  0.59240750  0.60114052  1
  Rh  Rh226  1  0.00023532  0.20240175  0.19745655  1
  Rh  Rh227  1  0.20427063  0.39107875  0.39575069  1
  Rh  Rh228  1  0.19983153  0.39328012  0.79021997  1
  Rh  Rh229  1  0.39715149  -0.00332439  0.40124898  1
  Rh  Rh230  1  0.20012549  0.59742125  0.00403559  1
  Rh  Rh231  1  0.39171545  0.79814737  0.20707002  1
  Rh  Rh232  1  0.59765459  0.20469736  0.39939437  1
  Rh  Rh233  1  0.60058577  0.19775226  0.20709240  1
  Rh  Rh234  1  0.01144460  -0.00887826  0.78718619  1
  Rh  Rh235  1  0.39801750  0.39145546  0.19775598  1
  Rh  Rh236  1  0.00504754  0.00158224  0.60550817  1
  Rh  Rh237  1  0.20140688  0.00586748  -0.00501478  1
  Rh  Rh238  1  0.19418712  0.00439464  0.40182528  1
  Rh  Rh239  1  0.80298311  0.20611060  0.20769292  1
  Rh  Rh240  1  0.18549634  0.61120492  0.40337470  1
  Rh  Rh241  1  0.59400908  0.40037009  0.79271042  1
  Rh  Rh242  1  0.60673407  0.81240307  0.20376839  1
  Rh  Rh243  1  0.19314404  0.20515841  0.19953990  1
  Rh  Rh244  1  0.60333984  0.60393019  0.79149683  1
  Rh  Rh245  1  0.39143316  0.79025014  -0.00367441  1
  Rh  Rh246  1  0.00344420  0.41077226  -0.00777164  1
  Rh  Rh247  1  0.40289562  0.00385367  0.59222970  1
  Rh  Rh248  1  0.39026987  0.21093197  0.81359760  1
  Rh  Rh249  1  0.39926667  0.59622126  0.80708997  1
