# generated using pymatgen
data_ZrScNbPdRh
_symmetry_space_group_name_H-M   'P 1'
_cell_length_a   16.55860114
_cell_length_b   16.56068899
_cell_length_c   16.56267452
_cell_angle_alpha   90.00444718
_cell_angle_beta   89.99968186
_cell_angle_gamma   90.02709960
_symmetry_Int_Tables_number   1
_chemical_formula_structural   ZrScNbPdRh
_chemical_formula_sum   'Zr50 Sc50 Nb50 Pd50 Rh50'
_cell_volume   4541.84662185
_cell_formula_units_Z   50
loop_
 _symmetry_equiv_pos_site_id
 _symmetry_equiv_pos_as_xyz
  1  'x, y, z'
loop_
 _atom_site_type_symbol
 _atom_site_label
 _atom_site_symmetry_multiplicity
 _atom_site_fract_x
 _atom_site_fract_y
 _atom_site_fract_z
 _atom_site_occupancy
  Zr  Zr0  1  0.50289853  0.90760570  0.90518421  1
  Zr  Zr1  1  0.30506678  0.70305698  0.29606300  1
  Zr  Zr2  1  0.70356483  0.50354304  0.48525618  1
  Zr  Zr3  1  0.90361499  0.09279330  0.29725886  1
  Zr  Zr4  1  0.70713052  0.89887659  0.30031965  1
  Zr  Zr5  1  0.90374092  0.30146587  0.09420195  1
  Zr  Zr6  1  0.90006099  0.29761504  0.89863183  1
  Zr  Zr7  1  0.50071527  0.30287551  0.49674640  1
  Zr  Zr8  1  0.30119805  0.11078918  0.90278910  1
  Zr  Zr9  1  0.29396503  0.29573994  0.49589642  1
  Zr  Zr10  1  0.90410786  0.69699391  0.89416943  1
  Zr  Zr11  1  0.09488952  0.31042275  0.50399561  1
  Zr  Zr12  1  0.90300170  0.90634622  0.10110255  1
  Zr  Zr13  1  0.69796426  0.10391501  0.09658085  1
  Zr  Zr14  1  0.70903018  0.50040372  0.70617032  1
  Zr  Zr15  1  0.29272062  0.90487872  0.30677916  1
  Zr  Zr16  1  0.30712467  0.29789655  0.10447827  1
  Zr  Zr17  1  0.70333956  0.91063768  0.90291459  1
  Zr  Zr18  1  0.10520899  0.90376717  0.69768219  1
  Zr  Zr19  1  0.69100306  0.89535353  0.50213330  1
  Zr  Zr20  1  0.50401049  0.70206634  0.11063151  1
  Zr  Zr21  1  0.29851792  0.09398899  0.69974572  1
  Zr  Zr22  1  0.09802641  0.90588628  0.90659322  1
  Zr  Zr23  1  0.10909002  0.90084991  0.49584404  1
  Zr  Zr24  1  0.90354331  0.09844724  0.50850920  1
  Zr  Zr25  1  0.29173717  0.50445437  0.70346438  1
  Zr  Zr26  1  0.50519464  0.50346945  0.29971169  1
  Zr  Zr27  1  0.69740783  0.69185693  0.89323368  1
  Zr  Zr28  1  0.70627859  0.29455666  0.10705987  1
  Zr  Zr29  1  0.90374245  0.69736126  0.10172578  1
  Zr  Zr30  1  0.30259094  0.49912489  0.29477880  1
  Zr  Zr31  1  0.69538787  0.49861989  0.90024401  1
  Zr  Zr32  1  0.49847614  0.68921268  0.90376871  1
  Zr  Zr33  1  0.69555712  0.10139796  0.29955637  1
  Zr  Zr34  1  0.89869284  0.10630765  0.10054142  1
  Zr  Zr35  1  0.90005325  0.10036395  0.69345574  1
  Zr  Zr36  1  0.90154676  0.69601087  0.49784036  1
  Zr  Zr37  1  0.09981657  0.50974571  0.09192926  1
  Zr  Zr38  1  0.69279307  0.30174577  0.29846347  1
  Zr  Zr39  1  0.30458134  0.50470389  0.89604463  1
  Zr  Zr40  1  0.29983684  0.49698381  0.51160508  1
  Zr  Zr41  1  0.10937046  0.30207581  0.30337871  1
  Zr  Zr42  1  0.90112743  0.48883979  0.49105531  1
  Zr  Zr43  1  0.10891912  0.09836626  0.90215763  1
  Zr  Zr44  1  0.28597587  0.70243087  0.10064173  1
  Zr  Zr45  1  0.89632358  0.09418662  0.90110893  1
  Zr  Zr46  1  0.10500127  0.49823785  0.69091637  1
  Zr  Zr47  1  0.30276200  0.89984376  0.69161204  1
  Zr  Zr48  1  0.89851858  0.90566574  0.70241710  1
  Zr  Zr49  1  0.09531032  0.69195961  0.70467640  1
  Sc  Sc50  1  0.69802726  0.08869289  0.50167474  1
  Sc  Sc51  1  0.70335808  0.30629883  0.49797963  1
  Sc  Sc52  1  0.90569539  0.50170491  0.09975012  1
  Sc  Sc53  1  0.91182639  0.90222434  0.50064247  1
  Sc  Sc54  1  0.49947327  0.30082049  0.10130860  1
  Sc  Sc55  1  0.30113993  0.49805231  0.10304347  1
  Sc  Sc56  1  0.48087516  0.49915858  0.69657126  1
  Sc  Sc57  1  0.89536361  0.69790697  0.29499286  1
  Sc  Sc58  1  0.50210473  0.10011074  0.90341404  1
  Sc  Sc59  1  0.50218363  0.70634336  0.48976070  1
  Sc  Sc60  1  0.10797115  0.90291733  0.09362915  1
  Sc  Sc61  1  0.49532509  0.70170251  0.69630642  1
  Sc  Sc62  1  0.10070807  0.51017320  0.89418263  1
  Sc  Sc63  1  0.90147436  0.50745867  0.70146880  1
  Sc  Sc64  1  0.30048257  0.31361208  0.70469888  1
  Sc  Sc65  1  0.90750846  0.90225089  0.30414819  1
  Sc  Sc66  1  0.48648912  0.29513173  0.90536835  1
  Sc  Sc67  1  0.10377292  0.10854807  0.51216842  1
  Sc  Sc68  1  0.09664923  0.09913640  0.09942644  1
  Sc  Sc69  1  0.09895796  0.10308488  0.70126938  1
  Sc  Sc70  1  0.49835781  0.09293121  0.49420362  1
  Sc  Sc71  1  0.29950315  0.09330016  0.49573757  1
  Sc  Sc72  1  0.30201769  0.90377156  0.10855016  1
  Sc  Sc73  1  0.48726175  0.88927274  0.30153954  1
  Sc  Sc74  1  0.49915490  0.50549948  0.49052181  1
  Sc  Sc75  1  0.09876802  0.28826914  0.90265790  1
  Sc  Sc76  1  0.49187190  0.89775331  0.49934106  1
  Sc  Sc77  1  0.69826089  0.10905983  0.70136367  1
  Sc  Sc78  1  0.10327149  0.09602102  0.29217268  1
  Sc  Sc79  1  0.49775596  0.49644356  0.09736578  1
  Sc  Sc80  1  0.69813520  0.90581452  0.69823595  1
  Sc  Sc81  1  0.50110020  0.10249745  0.70468625  1
  Sc  Sc82  1  0.89252648  0.30530754  0.29217277  1
  Sc  Sc83  1  0.09919397  0.29045790  0.09395989  1
  Sc  Sc84  1  0.49566396  0.90319425  0.69318114  1
  Sc  Sc85  1  0.89149445  0.49982799  0.29680218  1
  Sc  Sc86  1  0.70164274  0.90144794  0.10569266  1
  Sc  Sc87  1  0.29224861  0.91429379  0.90644487  1
  Sc  Sc88  1  0.49849079  0.50036290  0.90749985  1
  Sc  Sc89  1  0.88536618  0.29446428  0.69746928  1
  Sc  Sc90  1  0.49513746  0.10263527  0.09654487  1
  Sc  Sc91  1  0.70657140  0.29153909  0.89362221  1
  Sc  Sc92  1  0.68860286  0.49539752  0.10589894  1
  Sc  Sc93  1  0.10557895  0.49520294  0.29640120  1
  Sc  Sc94  1  0.69763997  0.69313749  0.29655413  1
  Sc  Sc95  1  0.30018442  0.69135920  0.69716155  1
  Sc  Sc96  1  0.90725165  0.49721348  0.90248382  1
  Sc  Sc97  1  0.09818892  0.70871307  0.50499157  1
  Sc  Sc98  1  0.10901404  0.70291203  0.29646318  1
  Sc  Sc99  1  0.30738777  0.70381921  0.50172481  1
  Nb  Nb100  1  0.50231235  0.89928558  0.09939791  1
  Nb  Nb101  1  0.30528001  0.90499908  0.50181594  1
  Nb  Nb102  1  0.89939614  0.90121939  0.90110657  1
  Nb  Nb103  1  0.89598558  0.70086402  0.70269795  1
  Nb  Nb104  1  0.10566169  0.70296779  0.91058172  1
  Nb  Nb105  1  0.49830406  0.10587699  0.29949602  1
  Nb  Nb106  1  0.30456794  0.29546451  0.29546586  1
  Nb  Nb107  1  0.29733892  0.30224348  0.90800128  1
  Nb  Nb108  1  0.49063447  0.69457473  0.30386792  1
  Nb  Nb109  1  0.09642851  0.89297002  0.30301938  1
  Nb  Nb110  1  0.70554582  0.70802892  0.10037514  1
  Nb  Nb111  1  0.69471179  0.30407285  0.70270302  1
  Nb  Nb112  1  0.29786083  0.70151953  0.90158945  1
  Nb  Nb113  1  0.30761416  0.10778111  0.29233711  1
  Nb  Nb114  1  0.09446543  0.30101446  0.69863456  1
  Nb  Nb115  1  0.70032035  0.09922596  0.90732515  1
  Nb  Nb116  1  0.70045596  0.69843291  0.50026089  1
  Nb  Nb117  1  0.49641342  0.29145532  0.30189031  1
  Nb  Nb118  1  0.90130985  0.29727703  0.49331583  1
  Nb  Nb119  1  0.10183004  0.70204191  0.09403764  1
  Nb  Nb120  1  0.29584463  0.10453472  0.10968528  1
  Nb  Nb121  1  0.50397499  0.29883109  0.69337985  1
  Nb  Nb122  1  0.70152662  0.49291601  0.30474941  1
  Nb  Nb123  1  0.09850854  0.49728548  0.49737455  1
  Nb  Nb124  1  0.70693479  0.69507373  0.70303500  1
  Nb  Nb125  1  0.19936491  0.79799839  0.80635540  1
  Nb  Nb126  1  0.00685182  0.59486265  0.40125586  1
  Nb  Nb127  1  0.79938387  0.79823590  -0.00339611  1
  Nb  Nb128  1  0.60881137  0.60054815  0.59894930  1
  Nb  Nb129  1  0.79829914  0.79218547  0.60151975  1
  Nb  Nb130  1  0.59570091  0.39381939  0.79297711  1
  Nb  Nb131  1  0.40098378  0.20421582  0.60080252  1
  Nb  Nb132  1  0.79537428  0.60196673  0.00245049  1
  Nb  Nb133  1  0.79747360  0.79772953  0.40759919  1
  Nb  Nb134  1  0.20310181  0.39794513  -0.00482679  1
  Nb  Nb135  1  0.00386528  0.39919716  0.19568857  1
  Nb  Nb136  1  0.80598433  0.19751224  0.40050126  1
  Nb  Nb137  1  0.59128184  0.00032465  0.20306501  1
  Nb  Nb138  1  0.39674703  0.80033061  0.80997769  1
  Nb  Nb139  1  0.00752155  0.79952521  0.19534334  1
  Nb  Nb140  1  0.19940964  0.59631053  0.40593346  1
  Nb  Nb141  1  0.60169805  0.40525682  0.60500905  1
  Nb  Nb142  1  0.79778077  0.40207222  0.00079529  1
  Nb  Nb143  1  0.00358061  0.39396257  0.79493193  1
  Nb  Nb144  1  0.00111381  0.80130228  0.80410236  1
  Nb  Nb145  1  0.59831790  0.79861103  0.80358755  1
  Nb  Nb146  1  0.60159574  0.79925072  0.00004891  1
  Nb  Nb147  1  0.40321584  0.80084777  0.00034728  1
  Nb  Nb148  1  0.39713198  0.39256819  0.39141717  1
  Nb  Nb149  1  -0.00340067  0.20519439  0.40181322  1
  Pd  Pd150  1  0.58604014  0.59297213  0.78540453  1
  Pd  Pd151  1  0.19560838  -0.00242244  0.20018175  1
  Pd  Pd152  1  0.00314985  0.00012303  0.80001925  1
  Pd  Pd153  1  0.59882365  0.20104950  0.59097654  1
  Pd  Pd154  1  0.01030877  0.60003918  0.20998539  1
  Pd  Pd155  1  0.79498676  0.00305856  0.19653782  1
  Pd  Pd156  1  -0.00088199  0.59653642  0.59365174  1
  Pd  Pd157  1  0.60261176  0.79524670  0.38922304  1
  Pd  Pd158  1  -0.00495884  0.80143143  0.00133111  1
  Pd  Pd159  1  0.20555290  0.79292909  0.60486156  1
  Pd  Pd160  1  0.19701935  0.00939034  0.39900624  1
  Pd  Pd161  1  0.39438306  0.60381895  0.01149663  1
  Pd  Pd162  1  0.20835812  0.20678763  0.61040100  1
  Pd  Pd163  1  0.00216971  0.20769328  0.20884313  1
  Pd  Pd164  1  0.59311693  0.00470975  0.60406631  1
  Pd  Pd165  1  0.60410919  0.59914067  0.20092511  1
  Pd  Pd166  1  0.80350544  -0.00363646  0.41005947  1
  Pd  Pd167  1  0.79107674  0.59132798  0.19483017  1
  Pd  Pd168  1  0.40556813  0.00027795  0.20527638  1
  Pd  Pd169  1  -0.00577367  0.80262844  0.60851466  1
  Pd  Pd170  1  0.80048466  0.59879881  0.59574647  1
  Pd  Pd171  1  0.19382512  0.39559028  0.18559398  1
  Pd  Pd172  1  -0.00415166  0.20083068  0.79694025  1
  Pd  Pd173  1  0.41055750  0.60648471  0.59075838  1
  Pd  Pd174  1  -0.01380550  0.39638068  0.60960275  1
  Pd  Pd175  1  0.39918420  0.59994733  0.19315337  1
  Pd  Pd176  1  0.18931470  0.39454728  0.80945069  1
  Pd  Pd177  1  0.59737094  0.20717674  -0.00363378  1
  Pd  Pd178  1  0.39415183  0.00261493  0.00577743  1
  Pd  Pd179  1  0.60470320  0.38669256  -0.00923051  1
  Pd  Pd180  1  0.39813250  0.20546836  0.79298150  1
  Pd  Pd181  1  0.60111317  0.00045889  0.79538362  1
  Pd  Pd182  1  0.40646131  0.39683001  0.80443700  1
  Pd  Pd183  1  0.20573448  0.79280107  0.40419985  1
  Pd  Pd184  1  0.59667423  0.20368589  0.80920723  1
  Pd  Pd185  1  0.78978860  0.20056200  0.59207018  1
  Pd  Pd186  1  0.59806283  0.80524848  0.20582367  1
  Pd  Pd187  1  0.39833375  -0.00388553  0.80191078  1
  Pd  Pd188  1  0.20852901  0.40586583  0.40046049  1
  Pd  Pd189  1  0.79810458  0.80420689  0.79975110  1
  Pd  Pd190  1  0.20377207  0.20678303  0.79256482  1
  Pd  Pd191  1  0.60907816  0.19827077  0.40895454  1
  Pd  Pd192  1  0.60263183  0.79152867  0.61030618  1
  Pd  Pd193  1  0.19400332  0.18908805  0.39513151  1
  Pd  Pd194  1  0.59277143  0.39639477  0.20216735  1
  Pd  Pd195  1  0.58730854  -0.00849272  0.39048071  1
  Pd  Pd196  1  0.01413544  0.01179010  0.40614640  1
  Pd  Pd197  1  0.39800655  0.19651637  0.40684247  1
  Pd  Pd198  1  0.79333757  0.00901734  0.79487401  1
  Pd  Pd199  1  0.79956282  0.40063048  0.59919561  1
  Rh  Rh200  1  0.20131212  -0.00187626  0.79790584  1
  Rh  Rh201  1  0.80406883  0.60460128  0.39445163  1
  Rh  Rh202  1  -0.00540718  0.78750495  0.38625500  1
  Rh  Rh203  1  -0.00098611  0.20820992  0.59912032  1
  Rh  Rh204  1  0.39947833  0.60391152  0.79902464  1
  Rh  Rh205  1  0.20869537  0.80572019  -0.00306969  1
  Rh  Rh206  1  0.79818221  0.19178719  0.79887076  1
  Rh  Rh207  1  0.00150999  0.59929103  0.80085893  1
  Rh  Rh208  1  0.20006345  0.39516632  0.60189054  1
  Rh  Rh209  1  0.20606190  0.20096004  0.00831579  1
  Rh  Rh210  1  0.80075516  0.20284438  -0.00383857  1
  Rh  Rh211  1  0.19945696  0.00129675  0.59566694  1
  Rh  Rh212  1  0.80160450  0.19440236  0.21050525  1
  Rh  Rh213  1  0.01033307  -0.01219049  0.19828054  1
  Rh  Rh214  1  0.40892588  0.39725625  0.20750559  1
  Rh  Rh215  1  -0.00086732  0.18903566  -0.00627854  1
  Rh  Rh216  1  0.79732838  -0.00855937  0.59842125  1
  Rh  Rh217  1  0.20013690  0.60886560  0.80346433  1
  Rh  Rh218  1  0.19947683  0.19928999  0.20032193  1
  Rh  Rh219  1  0.00685139  0.40170707  -0.00254011  1
  Rh  Rh220  1  0.59248347  0.40080028  0.39980059  1
  Rh  Rh221  1  0.39322941  0.80208401  0.40287526  1
  Rh  Rh222  1  0.59135730  0.19453480  0.19738399  1
  Rh  Rh223  1  0.60331628  -0.00073771  0.01100622  1
  Rh  Rh224  1  0.40677038  0.19943051  0.19570227  1
  Rh  Rh225  1  0.80048746  -0.00184757  0.00517659  1
  Rh  Rh226  1  0.40028537  0.79981850  0.60164300  1
  Rh  Rh227  1  0.39622057  0.79932525  0.19592120  1
  Rh  Rh228  1  0.19423492  0.80809536  0.19861429  1
  Rh  Rh229  1  0.81219348  0.80505501  0.20295043  1
  Rh  Rh230  1  0.19472763  0.60469730  0.59078599  1
  Rh  Rh231  1  -0.00260946  0.40022404  0.38614119  1
  Rh  Rh232  1  0.40339181  0.39327804  0.59115417  1
  Rh  Rh233  1  0.19778594  0.60106429  0.20407721  1
  Rh  Rh234  1  0.39797600  0.00058064  0.39349494  1
  Rh  Rh235  1  0.80353247  0.40235643  0.80753730  1
  Rh  Rh236  1  0.00943971  -0.00229520  0.59821388  1
  Rh  Rh237  1  0.20754721  0.01052899  0.00902635  1
  Rh  Rh238  1  -0.00097521  0.00594830  0.00115826  1
  Rh  Rh239  1  0.39171818  0.59476374  0.40101220  1
  Rh  Rh240  1  0.39314639  0.40259689  -0.00037407  1
  Rh  Rh241  1  0.60639463  0.60694023  0.01527194  1
  Rh  Rh242  1  -0.00294620  0.60287036  -0.00386740  1
  Rh  Rh243  1  0.40224659  0.00996917  0.59786470  1
  Rh  Rh244  1  0.39615755  0.19500925  0.00634606  1
  Rh  Rh245  1  0.80415091  0.40722600  0.19062151  1
  Rh  Rh246  1  0.20577557  0.59322729  -0.00335930  1
  Rh  Rh247  1  0.80962706  0.59166519  0.80844290  1
  Rh  Rh248  1  0.79966554  0.39036847  0.39337676  1
  Rh  Rh249  1  0.60175424  0.60554639  0.39752228  1
