# generated using pymatgen
data_ZrScNbPdRh
_symmetry_space_group_name_H-M   'P 1'
_cell_length_a   16.55693249
_cell_length_b   16.55119239
_cell_length_c   16.55629245
_cell_angle_alpha   90.00704687
_cell_angle_beta   90.01911366
_cell_angle_gamma   89.99318868
_symmetry_Int_Tables_number   1
_chemical_formula_structural   ZrScNbPdRh
_chemical_formula_sum   'Zr50 Sc50 Nb50 Pd50 Rh50'
_cell_volume   4537.03598325
_cell_formula_units_Z   50
loop_
 _symmetry_equiv_pos_site_id
 _symmetry_equiv_pos_as_xyz
  1  'x, y, z'
loop_
 _atom_site_type_symbol
 _atom_site_label
 _atom_site_symmetry_multiplicity
 _atom_site_fract_x
 _atom_site_fract_y
 _atom_site_fract_z
 _atom_site_occupancy
  Zr  Zr0  1  0.29332428  0.29965246  0.29958434  1
  Zr  Zr1  1  0.90535901  0.49880585  0.49709615  1
  Zr  Zr2  1  0.70908883  0.70084058  0.69901691  1
  Zr  Zr3  1  0.29454316  0.09667930  0.90946024  1
  Zr  Zr4  1  0.90047869  0.10667343  0.29568463  1
  Zr  Zr5  1  0.30224336  0.90721883  0.09693177  1
  Zr  Zr6  1  0.29339978  0.28980734  0.09724342  1
  Zr  Zr7  1  0.10419514  0.09915702  0.50269616  1
  Zr  Zr8  1  0.50930124  0.49854538  0.10155246  1
  Zr  Zr9  1  0.69326690  0.09748517  0.89637966  1
  Zr  Zr10  1  0.69666791  0.90325139  0.49895634  1
  Zr  Zr11  1  0.69962895  0.69948965  0.89716281  1
  Zr  Zr12  1  0.29988926  0.89918802  0.70533136  1
  Zr  Zr13  1  0.89171380  0.30221615  0.49368658  1
  Zr  Zr14  1  0.10526963  0.30802203  0.89120968  1
  Zr  Zr15  1  0.69210431  0.69322264  0.09142264  1
  Zr  Zr16  1  0.49782715  0.90841196  0.90221263  1
  Zr  Zr17  1  0.30030304  0.50240512  0.49935568  1
  Zr  Zr18  1  0.90243239  0.49912740  0.30186143  1
  Zr  Zr19  1  0.90378385  0.49467432  0.90017629  1
  Zr  Zr20  1  0.09733412  0.90547369  0.30853921  1
  Zr  Zr21  1  0.29758213  0.30070142  0.49498341  1
  Zr  Zr22  1  0.08926317  0.70367511  0.89507764  1
  Zr  Zr23  1  0.50148372  0.90870252  0.30286099  1
  Zr  Zr24  1  0.69184575  0.70373081  0.49821035  1
  Zr  Zr25  1  0.10177321  0.90094074  0.50135612  1
  Zr  Zr26  1  0.71053495  0.30047436  0.90397613  1
  Zr  Zr27  1  0.49897777  0.09495836  0.49814665  1
  Zr  Zr28  1  0.09632890  0.49810531  0.30590744  1
  Zr  Zr29  1  0.09785060  0.50036072  0.89368231  1
  Zr  Zr30  1  0.69736407  0.89502749  0.90435640  1
  Zr  Zr31  1  0.31289061  0.70015239  0.90507914  1
  Zr  Zr32  1  0.29436218  0.49402993  0.89350061  1
  Zr  Zr33  1  0.90485695  0.70322188  0.28449252  1
  Zr  Zr34  1  0.30236979  0.70076661  0.69441199  1
  Zr  Zr35  1  0.89748067  0.90116911  0.29040414  1
  Zr  Zr36  1  0.50095909  0.69920390  0.30899513  1
  Zr  Zr37  1  0.70516603  0.10774752  0.50282071  1
  Zr  Zr38  1  0.30075399  0.09941826  0.50659411  1
  Zr  Zr39  1  0.89342661  0.28393362  0.09946682  1
  Zr  Zr40  1  0.48576062  0.69406018  0.09359953  1
  Zr  Zr41  1  0.90128127  0.29873910  0.30072942  1
  Zr  Zr42  1  0.49718580  0.50083727  0.69588637  1
  Zr  Zr43  1  0.09914302  0.70183657  0.50800769  1
  Zr  Zr44  1  0.90791993  0.70503501  0.70597669  1
  Zr  Zr45  1  0.90025934  0.69285200  0.51524400  1
  Zr  Zr46  1  0.50718592  0.30148842  0.30157049  1
  Zr  Zr47  1  0.10163592  0.89490008  0.70373135  1
  Zr  Zr48  1  0.30147466  0.70185452  0.29363997  1
  Zr  Zr49  1  0.50370744  0.10375819  0.70475044  1
  Sc  Sc50  1  0.50158093  0.30624557  0.50194160  1
  Sc  Sc51  1  0.10352592  0.70111561  0.29770858  1
  Sc  Sc52  1  0.29657773  0.10044867  0.69956788  1
  Sc  Sc53  1  0.10135106  0.90575086  0.89527450  1
  Sc  Sc54  1  0.51367194  0.29428949  0.90131041  1
  Sc  Sc55  1  0.68218991  0.49787551  0.30114593  1
  Sc  Sc56  1  0.69693836  0.90088837  0.29454847  1
  Sc  Sc57  1  0.29992501  0.70247164  0.49630495  1
  Sc  Sc58  1  0.29964889  0.50063969  0.69781911  1
  Sc  Sc59  1  0.30573063  0.50964646  0.10172956  1
  Sc  Sc60  1  0.50203961  0.09603382  0.09183613  1
  Sc  Sc61  1  0.90370553  0.90917592  0.50720586  1
  Sc  Sc62  1  0.90311475  0.71057809  0.09625095  1
  Sc  Sc63  1  0.29302469  0.08791166  0.29471273  1
  Sc  Sc64  1  0.10253625  0.29570711  0.10336045  1
  Sc  Sc65  1  0.09277203  0.70188309  0.10864766  1
  Sc  Sc66  1  0.29671912  0.29667009  0.70500594  1
  Sc  Sc67  1  0.70780660  0.10505588  0.09682858  1
  Sc  Sc68  1  0.89887138  0.50667178  0.09052173  1
  Sc  Sc69  1  0.70257857  0.49455064  0.70707481  1
  Sc  Sc70  1  0.09584734  0.49944915  0.09854013  1
  Sc  Sc71  1  0.10486325  0.29655446  0.29968023  1
  Sc  Sc72  1  0.29595701  0.89558281  0.30249335  1
  Sc  Sc73  1  0.49509660  0.90309886  0.70247685  1
  Sc  Sc74  1  0.50650702  0.30438943  0.70164975  1
  Sc  Sc75  1  0.49590212  0.89812731  0.49627532  1
  Sc  Sc76  1  0.70257237  0.49590368  0.50159464  1
  Sc  Sc77  1  0.89996645  0.29838813  0.69294692  1
  Sc  Sc78  1  0.49428459  0.69954011  0.49576212  1
  Sc  Sc79  1  0.50348401  0.50165958  0.89812149  1
  Sc  Sc80  1  0.50450905  0.70804071  0.70339121  1
  Sc  Sc81  1  0.49345255  0.50054233  0.49689384  1
  Sc  Sc82  1  0.68664303  0.10096980  0.30448104  1
  Sc  Sc83  1  0.69405907  0.29706055  0.30908477  1
  Sc  Sc84  1  0.10182495  0.28920932  0.49456467  1
  Sc  Sc85  1  0.49715163  0.49824328  0.30835193  1
  Sc  Sc86  1  0.71151264  0.89849371  0.10027035  1
  Sc  Sc87  1  0.29577013  0.49698129  0.30629047  1
  Sc  Sc88  1  0.10045164  0.10173208  0.30468173  1
  Sc  Sc89  1  0.09524800  0.89746923  0.09252896  1
  Sc  Sc90  1  0.09557132  0.69980514  0.70059586  1
  Sc  Sc91  1  0.51396667  0.29466083  0.09510040  1
  Sc  Sc92  1  0.89735354  0.90113794  0.70702722  1
  Sc  Sc93  1  0.89843184  0.50995026  0.69595178  1
  Sc  Sc94  1  0.90066114  0.10820338  0.50138563  1
  Sc  Sc95  1  0.70436400  0.89723291  0.70158056  1
  Sc  Sc96  1  0.49931297  0.89885255  0.09618453  1
  Sc  Sc97  1  0.50938588  0.70606591  0.90779905  1
  Sc  Sc98  1  0.70903044  0.50137687  0.90621512  1
  Sc  Sc99  1  0.29721465  0.89821633  0.50248317  1
  Nb  Nb100  1  0.90082983  0.90055371  0.91515608  1
  Nb  Nb101  1  0.90115239  0.69792297  0.90032197  1
  Nb  Nb102  1  0.70596084  0.10279202  0.69675838  1
  Nb  Nb103  1  0.10553171  0.10096112  0.09549276  1
  Nb  Nb104  1  0.30122593  0.70349786  0.09746809  1
  Nb  Nb105  1  0.10040356  0.10880602  0.70172728  1
  Nb  Nb106  1  0.89869613  0.09460605  0.90089669  1
  Nb  Nb107  1  0.10007015  0.29238384  0.69549554  1
  Nb  Nb108  1  0.29741636  0.90191982  0.90009677  1
  Nb  Nb109  1  0.09706101  0.50081741  0.50051922  1
  Nb  Nb110  1  0.10102623  0.09831784  0.89173273  1
  Nb  Nb111  1  0.69945810  0.28812640  0.69819592  1
  Nb  Nb112  1  0.90198983  0.09755826  0.09552536  1
  Nb  Nb113  1  0.30192576  0.29941329  0.90094023  1
  Nb  Nb114  1  0.70208976  0.30801033  0.09548900  1
  Nb  Nb115  1  0.89554802  0.09702976  0.69915567  1
  Nb  Nb116  1  0.50015425  0.10223913  0.30105310  1
  Nb  Nb117  1  0.29199004  0.10056100  0.09844452  1
  Nb  Nb118  1  0.70210170  0.29700102  0.50541216  1
  Nb  Nb119  1  0.70196851  0.49716232  0.09949165  1
  Nb  Nb120  1  0.50291544  0.10108969  0.89921140  1
  Nb  Nb121  1  0.10096120  0.49397271  0.70458171  1
  Nb  Nb122  1  0.90002087  0.90557638  0.09831593  1
  Nb  Nb123  1  0.69754548  0.70049856  0.30148137  1
  Nb  Nb124  1  0.90258374  0.29299546  0.90076578  1
  Nb  Nb125  1  0.39961474  0.19602162  0.19971097  1
  Nb  Nb126  1  0.79533763  0.40157757  0.19519952  1
  Nb  Nb127  1  -0.00745868  0.79950690  0.40215968  1
  Nb  Nb128  1  -0.00883166  0.39589000  0.20052264  1
  Nb  Nb129  1  0.60374573  0.00661783  0.60266044  1
  Nb  Nb130  1  0.60142909  0.60204901  0.60254848  1
  Nb  Nb131  1  0.79862231  0.60733264  0.39378906  1
  Nb  Nb132  1  0.00033115  0.19080050  -0.00868916  1
  Nb  Nb133  1  0.79250936  0.59733895  0.20037606  1
  Nb  Nb134  1  -0.00242147  0.19404339  0.79991624  1
  Nb  Nb135  1  0.20132178  0.60885138  -0.00118342  1
  Nb  Nb136  1  0.00814518  0.40011191  0.59786460  1
  Nb  Nb137  1  0.39728324  0.39248222  0.00053842  1
  Nb  Nb138  1  0.19036934  0.40005451  0.60078374  1
  Nb  Nb139  1  0.20674516  0.79571532  -0.00141097  1
  Nb  Nb140  1  0.80082365  -0.00088347  0.39840628  1
  Nb  Nb141  1  -0.00374037  0.00633633  0.19001015  1
  Nb  Nb142  1  0.40150465  0.19821277  0.81187567  1
  Nb  Nb143  1  0.80422165  0.19441435  0.79900444  1
  Nb  Nb144  1  0.00307094  0.01037086  0.61077902  1
  Nb  Nb145  1  0.40242282  0.19578189  0.39151480  1
  Nb  Nb146  1  0.59757172  0.79257480  0.19951192  1
  Nb  Nb147  1  0.80415768  0.79874717  0.39834840  1
  Nb  Nb148  1  0.40113585  0.60171585  0.79911809  1
  Nb  Nb149  1  0.40093086  0.39074060  0.19442062  1
  Pd  Pd150  1  0.40280309  0.00695259  0.19416564  1
  Pd  Pd151  1  0.19608479  -0.00080162  0.60806510  1
  Pd  Pd152  1  0.59391245  0.80405803  0.60363622  1
  Pd  Pd153  1  0.80615923  0.59845344  0.80394634  1
  Pd  Pd154  1  0.60207679  -0.00349389  0.19086426  1
  Pd  Pd155  1  0.00714507  0.00317760  0.00078412  1
  Pd  Pd156  1  0.60483007  0.40595019  0.59829038  1
  Pd  Pd157  1  0.80657263  0.39254004  0.79304664  1
  Pd  Pd158  1  0.40216820  0.80255302  0.59532426  1
  Pd  Pd159  1  0.40686492  0.80576764  0.20259699  1
  Pd  Pd160  1  0.59755528  0.60371231  0.20120989  1
  Pd  Pd161  1  0.18819725  -0.00443945  0.19689176  1
  Pd  Pd162  1  0.39038988  0.39379273  0.60356495  1
  Pd  Pd163  1  0.19900993  0.40781461  0.19440747  1
  Pd  Pd164  1  0.80573622  0.80667947  0.59601712  1
  Pd  Pd165  1  0.59418180  0.19921560  0.59666059  1
  Pd  Pd166  1  -0.00279280  0.61267841  0.39792053  1
  Pd  Pd167  1  0.00150870  0.19993858  0.40167411  1
  Pd  Pd168  1  0.20153971  0.79304846  0.80639888  1
  Pd  Pd169  1  0.20453065  0.60812132  0.80193814  1
  Pd  Pd170  1  -0.00803933  0.39464334  0.78903697  1
  Pd  Pd171  1  0.80289406  0.40139594  0.60631250  1
  Pd  Pd172  1  0.80198616  0.79494070  0.00072350  1
  Pd  Pd173  1  0.79814922  0.00927981  0.20330477  1
  Pd  Pd174  1  0.19567062  0.59585193  0.60325487  1
  Pd  Pd175  1  0.18921500  0.20177221  -0.00938352  1
  Pd  Pd176  1  0.80684839  0.80415133  0.80839173  1
  Pd  Pd177  1  0.19554866  0.80768201  0.19341796  1
  Pd  Pd178  1  0.59639722  0.60105120  0.79599439  1
  Pd  Pd179  1  0.78811427  0.40632787  0.39132672  1
  Pd  Pd180  1  0.40096875  0.20760278  0.60569920  1
  Pd  Pd181  1  0.40638465  0.20105154  0.00096565  1
  Pd  Pd182  1  -0.00457415  0.38741906  0.00933159  1
  Pd  Pd183  1  0.40779162  0.79730502  0.80614695  1
  Pd  Pd184  1  0.20083300  0.60527810  0.39940059  1
  Pd  Pd185  1  0.40451725  0.39569738  0.80566078  1
  Pd  Pd186  1  0.40096323  0.59058933  0.20906545  1
  Pd  Pd187  1  0.60371935  -0.00568776  0.79191354  1
  Pd  Pd188  1  0.60758241  -0.00182237  0.00896055  1
  Pd  Pd189  1  0.59922220  0.40469290  -0.00863592  1
  Pd  Pd190  1  0.20446991  0.40862765  0.00883313  1
  Pd  Pd191  1  0.19753190  0.59650710  0.19449237  1
  Pd  Pd192  1  -0.00097247  -0.00075168  0.79650142  1
  Pd  Pd193  1  0.39403727  0.00959479  0.80174920  1
  Pd  Pd194  1  0.60628739  0.39745228  0.80394871  1
  Pd  Pd195  1  0.60176390  0.19722822  0.19263281  1
  Pd  Pd196  1  0.39194138  0.00122930  0.39895565  1
  Pd  Pd197  1  0.79734987  -0.00238453  0.80620354  1
  Pd  Pd198  1  0.00431171  0.60459793  0.00321782  1
  Pd  Pd199  1  0.78498789  0.20396890  0.20661858  1
  Rh  Rh200  1  0.39694561  0.58592941  -0.00922680  1
  Rh  Rh201  1  0.01032642  0.38859435  0.40106601  1
  Rh  Rh202  1  0.20633511  0.00116747  0.40472798  1
  Rh  Rh203  1  0.39474839  0.80155699  0.39633537  1
  Rh  Rh204  1  0.00212132  0.80212093  -0.00370364  1
  Rh  Rh205  1  0.20295109  0.00401363  0.79729591  1
  Rh  Rh206  1  0.80002533  0.19255479  -0.00807352  1
  Rh  Rh207  1  0.39722899  0.81218996  -0.00291852  1
  Rh  Rh208  1  0.20097295  0.19004140  0.20427240  1
  Rh  Rh209  1  0.01066512  0.19665309  0.19126746  1
  Rh  Rh210  1  0.40451525  -0.00473130  0.60333227  1
  Rh  Rh211  1  0.60358322  0.59348368  0.41211559  1
  Rh  Rh212  1  0.19325242  0.79598487  0.40216799  1
  Rh  Rh213  1  0.39997921  0.39226035  0.39207438  1
  Rh  Rh214  1  0.41001364  0.60742015  0.60661435  1
  Rh  Rh215  1  0.20255498  0.39455312  0.79022001  1
  Rh  Rh216  1  -0.00369445  0.59558136  0.79773029  1
  Rh  Rh217  1  0.60035487  0.59375889  -0.00570796  1
  Rh  Rh218  1  0.60406167  0.20212340  0.80074754  1
  Rh  Rh219  1  0.60479607  0.00155822  0.40630563  1
  Rh  Rh220  1  0.78859069  0.59696911  0.59571846  1
  Rh  Rh221  1  0.19688949  -0.00695112  -0.00244705  1
  Rh  Rh222  1  0.20217206  0.79937911  0.60254481  1
  Rh  Rh223  1  0.79729199  0.00154082  -0.00264179  1
  Rh  Rh224  1  0.39109665  0.60214026  0.39700653  1
  Rh  Rh225  1  -0.00538973  0.58840811  0.19454022  1
  Rh  Rh226  1  0.80224385  0.60396738  0.00045695  1
  Rh  Rh227  1  0.80867619  0.39948078  0.00534043  1
  Rh  Rh228  1  0.60159037  0.39987816  0.41156198  1
  Rh  Rh229  1  0.19374120  0.40293012  0.40934286  1
  Rh  Rh230  1  0.60963587  0.19629500  0.00087766  1
  Rh  Rh231  1  0.80455099  0.20455633  0.60351158  1
  Rh  Rh232  1  0.59822438  0.80419658  0.00747881  1
  Rh  Rh233  1  0.60124239  0.80756453  0.39066282  1
  Rh  Rh234  1  -0.00857832  0.81064429  0.80932108  1
  Rh  Rh235  1  0.60049177  0.80690191  0.80158825  1
  Rh  Rh236  1  -0.00485338  0.19950806  0.60176934  1
  Rh  Rh237  1  0.39921195  0.00344884  -0.00011758  1
  Rh  Rh238  1  0.80012672  0.00010953  0.59486687  1
  Rh  Rh239  1  0.20268613  0.19959140  0.80451490  1
  Rh  Rh240  1  0.78735135  0.78906756  0.19607218  1
  Rh  Rh241  1  -0.01061941  -0.00076730  0.39833641  1
  Rh  Rh242  1  -0.00139017  0.81180419  0.59892841  1
  Rh  Rh243  1  0.60099483  0.39632950  0.19857169  1
  Rh  Rh244  1  0.59378473  0.20396306  0.41062212  1
  Rh  Rh245  1  0.20882838  0.19015559  0.39662109  1
  Rh  Rh246  1  0.79487912  0.19533472  0.39602073  1
  Rh  Rh247  1  0.00900939  0.81508178  0.20298230  1
  Rh  Rh248  1  0.00918756  0.59199915  0.60971470  1
  Rh  Rh249  1  0.20506760  0.20585155  0.60042267  1
