# generated using pymatgen
data_ZrScNbPdRh
_symmetry_space_group_name_H-M   'P 1'
_cell_length_a   16.56195898
_cell_length_b   16.56267952
_cell_length_c   16.56226219
_cell_angle_alpha   89.98534545
_cell_angle_beta   90.01157254
_cell_angle_gamma   90.03949778
_symmetry_Int_Tables_number   1
_chemical_formula_structural   ZrScNbPdRh
_chemical_formula_sum   'Zr50 Sc50 Nb50 Pd50 Rh50'
_cell_volume   4543.19975883
_cell_formula_units_Z   50
loop_
 _symmetry_equiv_pos_site_id
 _symmetry_equiv_pos_as_xyz
  1  'x, y, z'
loop_
 _atom_site_type_symbol
 _atom_site_label
 _atom_site_symmetry_multiplicity
 _atom_site_fract_x
 _atom_site_fract_y
 _atom_site_fract_z
 _atom_site_occupancy
  Zr  Zr0  1  0.09845540  0.69989186  0.90339911  1
  Zr  Zr1  1  0.90080215  0.28796057  0.10378993  1
  Zr  Zr2  1  0.89559711  0.50139237  0.70065094  1
  Zr  Zr3  1  0.49738557  0.09613248  0.88636895  1
  Zr  Zr4  1  0.90508887  0.89958409  0.10690564  1
  Zr  Zr5  1  0.29484448  0.90606512  0.89821300  1
  Zr  Zr6  1  0.70327344  0.29334712  0.30186841  1
  Zr  Zr7  1  0.49772173  0.69472456  0.29859176  1
  Zr  Zr8  1  0.90317558  0.70061788  0.11259642  1
  Zr  Zr9  1  0.29921183  0.49934923  0.49966855  1
  Zr  Zr10  1  0.49783511  0.70082727  0.90496260  1
  Zr  Zr11  1  0.10305125  0.50006767  0.49035124  1
  Zr  Zr12  1  0.69801033  0.29389164  0.69983741  1
  Zr  Zr13  1  0.50328480  0.10132974  0.09986951  1
  Zr  Zr14  1  0.09926727  0.70704707  0.69498061  1
  Zr  Zr15  1  0.49816870  0.09440394  0.51313401  1
  Zr  Zr16  1  0.50571179  0.70495181  0.70292878  1
  Zr  Zr17  1  0.89644421  0.28709413  0.49712695  1
  Zr  Zr18  1  0.10059532  0.69625376  0.49825016  1
  Zr  Zr19  1  0.30513431  0.49050081  0.29608288  1
  Zr  Zr20  1  0.90407541  0.89923335  0.70015852  1
  Zr  Zr21  1  0.89791302  0.49400122  0.49572947  1
  Zr  Zr22  1  0.49435581  0.29599628  0.10308605  1
  Zr  Zr23  1  0.50295205  0.49683677  0.69443683  1
  Zr  Zr24  1  0.50497498  0.30350775  0.51017980  1
  Zr  Zr25  1  0.30005646  0.29235177  0.29227572  1
  Zr  Zr26  1  0.89374072  0.29663000  0.69928368  1
  Zr  Zr27  1  0.30412671  0.29282129  0.70182554  1
  Zr  Zr28  1  0.70207210  0.89431227  0.69889087  1
  Zr  Zr29  1  0.10501414  0.90647604  0.89638855  1
  Zr  Zr30  1  0.30034101  0.69885348  0.49680310  1
  Zr  Zr31  1  0.69675622  0.50253943  0.10297283  1
  Zr  Zr32  1  0.10369609  0.29519243  0.90688433  1
  Zr  Zr33  1  0.69616393  0.09789858  0.49783224  1
  Zr  Zr34  1  0.30553566  0.49521111  0.69527366  1
  Zr  Zr35  1  0.10160003  0.90050401  0.10194655  1
  Zr  Zr36  1  0.29531325  0.10172826  0.89588329  1
  Zr  Zr37  1  0.69233719  0.29677066  0.09775960  1
  Zr  Zr38  1  0.70064875  0.69890041  0.30146077  1
  Zr  Zr39  1  0.69881831  0.50371907  0.50166068  1
  Zr  Zr40  1  0.49871132  0.49863544  0.49679278  1
  Zr  Zr41  1  0.90291065  0.29777664  0.30913248  1
  Zr  Zr42  1  0.10353649  0.49643665  0.10335473  1
  Zr  Zr43  1  0.91055927  0.71392921  0.49747970  1
  Zr  Zr44  1  0.90210102  0.90123259  0.89184415  1
  Zr  Zr45  1  0.49885779  0.91022149  0.69578778  1
  Zr  Zr46  1  0.70144838  0.10902573  0.10517936  1
  Zr  Zr47  1  0.30013488  0.29603322  0.90387640  1
  Zr  Zr48  1  0.09678731  0.29755310  0.49030807  1
  Zr  Zr49  1  0.69618984  0.71422931  0.49772095  1
  Sc  Sc50  1  0.29757386  0.49908661  0.10096815  1
  Sc  Sc51  1  0.49366306  0.89743440  0.89492286  1
  Sc  Sc52  1  0.09718369  0.50847969  0.69150894  1
  Sc  Sc53  1  0.90522042  0.50401794  0.89794518  1
  Sc  Sc54  1  0.69924615  0.50291995  0.70089556  1
  Sc  Sc55  1  0.10171009  0.29794577  0.29953847  1
  Sc  Sc56  1  0.09647223  0.29559359  0.10189484  1
  Sc  Sc57  1  0.10854300  0.10100224  0.49323597  1
  Sc  Sc58  1  0.10835920  0.29053065  0.69039357  1
  Sc  Sc59  1  0.30753268  0.70212476  0.28739895  1
  Sc  Sc60  1  0.29057440  0.30051879  0.50202123  1
  Sc  Sc61  1  0.70019171  0.50680889  0.30380067  1
  Sc  Sc62  1  0.10827922  0.70007917  0.10528708  1
  Sc  Sc63  1  0.49621578  0.90036148  0.30132742  1
  Sc  Sc64  1  0.29803847  0.89858776  0.29464731  1
  Sc  Sc65  1  0.10339481  0.90347661  0.70349703  1
  Sc  Sc66  1  0.70708677  0.30252328  0.50130866  1
  Sc  Sc67  1  0.50352445  0.69991276  0.49268152  1
  Sc  Sc68  1  0.29084310  0.90368725  0.70200063  1
  Sc  Sc69  1  0.90532444  0.90374710  0.30885255  1
  Sc  Sc70  1  0.70153398  0.89652026  0.10595265  1
  Sc  Sc71  1  0.29609777  0.91219924  0.49260137  1
  Sc  Sc72  1  0.69243055  0.29567128  0.89690511  1
  Sc  Sc73  1  0.69640826  0.09735673  0.30004461  1
  Sc  Sc74  1  0.09990111  0.49471108  0.29902106  1
  Sc  Sc75  1  0.29440294  0.70587251  0.69889400  1
  Sc  Sc76  1  0.90186652  0.70059893  0.70631791  1
  Sc  Sc77  1  0.49907181  0.49207836  0.90518407  1
  Sc  Sc78  1  0.90985293  0.49915169  0.29801626  1
  Sc  Sc79  1  0.28887152  0.09756681  0.30239305  1
  Sc  Sc80  1  0.49852127  0.89529664  0.09392506  1
  Sc  Sc81  1  0.10645106  0.91063066  0.29272388  1
  Sc  Sc82  1  0.48931788  0.49834394  0.09751413  1
  Sc  Sc83  1  0.89239042  0.10715177  0.69778803  1
  Sc  Sc84  1  0.69378857  0.70552255  0.88864715  1
  Sc  Sc85  1  0.29916660  0.70352211  0.90726220  1
  Sc  Sc86  1  0.70488143  0.70000903  0.11106301  1
  Sc  Sc87  1  0.49827994  0.29616767  0.70144436  1
  Sc  Sc88  1  0.68980193  0.10356664  0.70463029  1
  Sc  Sc89  1  0.09957267  0.90047866  0.50288122  1
  Sc  Sc90  1  0.10257029  0.49959086  0.91664219  1
  Sc  Sc91  1  0.50378532  0.09806143  0.29522575  1
  Sc  Sc92  1  0.30208876  0.49718713  0.91632089  1
  Sc  Sc93  1  0.51099788  0.90333496  0.49537525  1
  Sc  Sc94  1  0.69773784  0.69834717  0.69813873  1
  Sc  Sc95  1  0.90876206  0.50090216  0.10750632  1
  Sc  Sc96  1  0.89801859  0.10406698  0.89561149  1
  Sc  Sc97  1  0.89847905  0.29749667  0.90126738  1
  Sc  Sc98  1  0.29397478  0.89286227  0.10034063  1
  Sc  Sc99  1  0.69114664  0.49727349  0.89453645  1
  Nb  Nb100  1  0.89717189  0.90637243  0.50081821  1
  Nb  Nb101  1  0.49454917  0.30427038  0.30472983  1
  Nb  Nb102  1  0.49908022  0.30416820  0.90264786  1
  Nb  Nb103  1  0.49291522  0.10423546  0.69611744  1
  Nb  Nb104  1  0.30329301  0.29219514  0.10272165  1
  Nb  Nb105  1  0.70302771  0.90234552  0.49334578  1
  Nb  Nb106  1  0.09539084  0.69444734  0.30562155  1
  Nb  Nb107  1  0.09962700  0.09737715  0.89672953  1
  Nb  Nb108  1  0.90261752  0.10187859  0.10320894  1
  Nb  Nb109  1  0.31292490  0.69362101  0.10365333  1
  Nb  Nb110  1  0.30284748  0.10313021  0.69555508  1
  Nb  Nb111  1  0.90243349  0.10044148  0.30187075  1
  Nb  Nb112  1  0.30123891  0.10053967  0.49797403  1
  Nb  Nb113  1  0.50022719  0.49342349  0.30389950  1
  Nb  Nb114  1  0.90568621  0.69489298  0.30023267  1
  Nb  Nb115  1  0.69911339  0.09762596  0.89891424  1
  Nb  Nb116  1  0.08956505  0.10177874  0.10401376  1
  Nb  Nb117  1  0.69494118  0.90354089  0.31010098  1
  Nb  Nb118  1  0.49241391  0.70017410  0.10261336  1
  Nb  Nb119  1  0.30545629  0.11272473  0.10241332  1
  Nb  Nb120  1  0.89766722  0.09719624  0.49231912  1
  Nb  Nb121  1  0.09785280  0.10195965  0.29303270  1
  Nb  Nb122  1  0.89907246  0.70094744  0.90542063  1
  Nb  Nb123  1  0.70781461  0.90364471  0.89977930  1
  Nb  Nb124  1  0.10479802  0.09529708  0.70449638  1
  Nb  Nb125  1  0.19618939  0.79351577  0.39478954  1
  Nb  Nb126  1  -0.00560623  0.00621081  0.59722562  1
  Nb  Nb127  1  0.59711165  0.79668825  0.20426670  1
  Nb  Nb128  1  0.80124908  -0.00323203  0.59138100  1
  Nb  Nb129  1  0.19731964  0.40198184  0.80047625  1
  Nb  Nb130  1  0.80074678  0.00106498  0.00300456  1
  Nb  Nb131  1  0.20337835  0.59464390  0.80292037  1
  Nb  Nb132  1  0.79658934  0.39627398  0.19838763  1
  Nb  Nb133  1  0.00823920  0.19972200  0.79803336  1
  Nb  Nb134  1  0.39762581  0.59855198  0.79974057  1
  Nb  Nb135  1  0.59573769  0.39945772  0.20610807  1
  Nb  Nb136  1  -0.00030042  0.00527500  0.00149328  1
  Nb  Nb137  1  0.40200717  0.19860408  0.40401850  1
  Nb  Nb138  1  0.39638430  0.00557920  0.19135941  1
  Nb  Nb139  1  0.80727693  0.60901617  0.40159699  1
  Nb  Nb140  1  0.80304091  0.80022686  -0.00450248  1
  Nb  Nb141  1  0.59982647  0.60703606  0.00456689  1
  Nb  Nb142  1  0.79830141  0.60399660  -0.00012345  1
  Nb  Nb143  1  -0.00335096  0.39533483  0.59980131  1
  Nb  Nb144  1  0.79741502  0.40345510  0.00634263  1
  Nb  Nb145  1  0.80471457  0.00415147  0.20096364  1
  Nb  Nb146  1  0.59097135  0.20316691  0.40316749  1
  Nb  Nb147  1  0.40136200  0.80426198  0.59703957  1
  Nb  Nb148  1  0.60983241  -0.00078375  -0.00630532  1
  Nb  Nb149  1  0.00733581  0.39508834  0.79397372  1
  Pd  Pd150  1  0.39291646  0.79780088  0.79317642  1
  Pd  Pd151  1  0.38965568  -0.00733144  0.60162788  1
  Pd  Pd152  1  0.40344028  -0.00120405  0.00306685  1
  Pd  Pd153  1  0.19903887  0.39104292  0.19541789  1
  Pd  Pd154  1  0.60790744  0.39622849  0.39755751  1
  Pd  Pd155  1  0.60132921  -0.00471295  0.79973926  1
  Pd  Pd156  1  0.00955941  0.80063109  0.21196735  1
  Pd  Pd157  1  0.00237195  0.19393996  0.60174846  1
  Pd  Pd158  1  0.79968209  0.00800551  0.79336099  1
  Pd  Pd159  1  -0.00880517  0.39798549  -0.00129264  1
  Pd  Pd160  1  0.39544531  0.40345743  0.80498083  1
  Pd  Pd161  1  -0.00668903  0.59710847  0.59584287  1
  Pd  Pd162  1  0.80244213  0.40033658  0.81090180  1
  Pd  Pd163  1  0.19554813  0.19460933  0.00930253  1
  Pd  Pd164  1  0.20933462  0.60332866  0.38660394  1
  Pd  Pd165  1  0.39626509  0.59843963  0.39390291  1
  Pd  Pd166  1  0.79942230  0.20068623  -0.00785734  1
  Pd  Pd167  1  0.80552622  0.80001285  0.39126063  1
  Pd  Pd168  1  0.20328679  0.79459101  0.00357064  1
  Pd  Pd169  1  0.59872092  -0.01133332  0.19374806  1
  Pd  Pd170  1  0.00469623  0.79876718  0.79989360  1
  Pd  Pd171  1  0.79935313  0.39848719  0.60066670  1
  Pd  Pd172  1  0.80343283  0.80022008  0.60258528  1
  Pd  Pd173  1  0.39272058  0.80487586  0.00223441  1
  Pd  Pd174  1  0.59222832  0.19390145  -0.01111527  1
  Pd  Pd175  1  0.20634534  0.80844081  0.58955093  1
  Pd  Pd176  1  0.40170508  0.00708976  0.38948035  1
  Pd  Pd177  1  0.20204397  0.19325509  0.59457424  1
  Pd  Pd178  1  0.40725591  0.19728239  -0.00871713  1
  Pd  Pd179  1  0.20116917  0.60179772  0.20446023  1
  Pd  Pd180  1  0.58903874  0.59754165  0.19552601  1
  Pd  Pd181  1  0.79571468  0.60268034  0.80760905  1
  Pd  Pd182  1  0.59887254  0.60451959  0.59543999  1
  Pd  Pd183  1  0.39392247  0.80567537  0.40479533  1
  Pd  Pd184  1  0.19153558  0.40201944  0.60403536  1
  Pd  Pd185  1  0.01053771  0.81011207  0.39325450  1
  Pd  Pd186  1  0.20271324  0.59989610  0.60533053  1
  Pd  Pd187  1  0.79705027  0.81027948  0.21037363  1
  Pd  Pd188  1  0.19591988  0.01089397  0.01018187  1
  Pd  Pd189  1  0.80489490  0.61310381  0.59266702  1
  Pd  Pd190  1  0.00958674  0.59420530  0.80373988  1
  Pd  Pd191  1  0.20814715  0.00797273  0.19011241  1
  Pd  Pd192  1  0.59695641  0.39606997  0.79546568  1
  Pd  Pd193  1  0.00926461  0.00242145  0.40417554  1
  Pd  Pd194  1  -0.00337929  0.60277922  0.00900426  1
  Pd  Pd195  1  0.61042016  0.79929047  0.00718612  1
  Pd  Pd196  1  0.40274957  0.61135294  0.60510373  1
  Pd  Pd197  1  -0.00232890  0.80555994  -0.00044197  1
  Pd  Pd198  1  0.39193619  0.39035175  0.40767293  1
  Pd  Pd199  1  0.59865299  0.80896304  0.80075316  1
  Rh  Rh200  1  0.39480957  0.39137432  0.00605095  1
  Rh  Rh201  1  0.79234237  0.18963864  0.59583803  1
  Rh  Rh202  1  -0.00340166  0.39167617  0.20066094  1
  Rh  Rh203  1  0.00077110  0.20243257  0.20931812  1
  Rh  Rh204  1  0.00596321  0.19047726  0.39494774  1
  Rh  Rh205  1  0.20543256  0.39125246  0.00600178  1
  Rh  Rh206  1  0.40623466  0.81035452  0.19532832  1
  Rh  Rh207  1  0.79208854  0.18932145  0.39800567  1
  Rh  Rh208  1  0.79896895  0.41189524  0.39087301  1
  Rh  Rh209  1  0.20373103  0.19863033  0.39622887  1
  Rh  Rh210  1  0.40196545  0.58894731  0.20129896  1
  Rh  Rh211  1  0.81162405  0.59247210  0.20576299  1
  Rh  Rh212  1  0.59561344  0.80361260  0.39206358  1
  Rh  Rh213  1  0.00253641  0.19002868  -0.00917017  1
  Rh  Rh214  1  0.19639880  0.20006705  0.79717436  1
  Rh  Rh215  1  0.40382223  0.60216220  -0.00302300  1
  Rh  Rh216  1  -0.00255623  0.01121813  0.79543606  1
  Rh  Rh217  1  0.79838259  0.00242766  0.39529365  1
  Rh  Rh218  1  0.01084809  0.59987464  0.19946306  1
  Rh  Rh219  1  0.20467514  0.60588799  0.00205143  1
  Rh  Rh220  1  0.19727185  0.79292621  0.80500999  1
  Rh  Rh221  1  0.40364586  0.20060673  0.80154923  1
  Rh  Rh222  1  0.40276386  0.40073237  0.19544293  1
  Rh  Rh223  1  0.58879695  0.59597136  0.80649562  1
  Rh  Rh224  1  0.59166314  0.20263921  0.80161976  1
  Rh  Rh225  1  0.80647391  0.19726204  0.20984571  1
  Rh  Rh226  1  0.60784306  0.40082067  0.60662316  1
  Rh  Rh227  1  0.79975797  0.19950533  0.80319567  1
  Rh  Rh228  1  -0.00464346  0.59668524  0.40013398  1
  Rh  Rh229  1  0.60084336  0.40493829  0.00576636  1
  Rh  Rh230  1  0.59437606  0.80534449  0.59806251  1
  Rh  Rh231  1  0.19584972  0.00748265  0.59977609  1
  Rh  Rh232  1  0.39734510  0.39351095  0.59575036  1
  Rh  Rh233  1  -0.00526495  0.00513417  0.19967860  1
  Rh  Rh234  1  0.39153725  0.00309160  0.79319017  1
  Rh  Rh235  1  0.39481280  0.20217586  0.59369742  1
  Rh  Rh236  1  0.19345140  0.19623926  0.19605381  1
  Rh  Rh237  1  0.59564394  0.00602613  0.39999964  1
  Rh  Rh238  1  0.60359875  0.59886537  0.40462661  1
  Rh  Rh239  1  0.60232904  0.19974989  0.59838621  1
  Rh  Rh240  1  0.20646002  0.00593149  0.79445300  1
  Rh  Rh241  1  0.19570124  -0.00271738  0.39773651  1
  Rh  Rh242  1  0.61129026  -0.00336531  0.60504634  1
  Rh  Rh243  1  0.00181948  0.80976203  0.60254579  1
  Rh  Rh244  1  0.00098342  0.39862982  0.40317243  1
  Rh  Rh245  1  0.80163682  0.79186019  0.80282313  1
  Rh  Rh246  1  0.20305017  0.39786994  0.39401018  1
  Rh  Rh247  1  0.40223083  0.19181945  0.21032662  1
  Rh  Rh248  1  0.59092364  0.21016981  0.21253965  1
  Rh  Rh249  1  0.19894396  0.79126623  0.20657080  1
