# generated using pymatgen
data_ZrScNbPdRh
_symmetry_space_group_name_H-M   'P 1'
_cell_length_a   16.55923632
_cell_length_b   16.55466605
_cell_length_c   16.55498989
_cell_angle_alpha   90.00994024
_cell_angle_beta   90.00293668
_cell_angle_gamma   90.01457486
_symmetry_Int_Tables_number   1
_chemical_formula_structural   ZrScNbPdRh
_chemical_formula_sum   'Zr50 Sc50 Nb50 Pd50 Rh50'
_cell_volume   4538.26265413
_cell_formula_units_Z   50
loop_
 _symmetry_equiv_pos_site_id
 _symmetry_equiv_pos_as_xyz
  1  'x, y, z'
loop_
 _atom_site_type_symbol
 _atom_site_label
 _atom_site_symmetry_multiplicity
 _atom_site_fract_x
 _atom_site_fract_y
 _atom_site_fract_z
 _atom_site_occupancy
  Zr  Zr0  1  0.70351799  0.48688649  0.50720974  1
  Zr  Zr1  1  0.10293291  0.29864919  0.30470113  1
  Zr  Zr2  1  0.10312522  0.09496408  0.70308387  1
  Zr  Zr3  1  0.49787545  0.49437493  0.29842608  1
  Zr  Zr4  1  0.30573078  0.09546638  0.89620953  1
  Zr  Zr5  1  0.71829641  0.90390344  0.49904053  1
  Zr  Zr6  1  0.70625451  0.89638164  0.70365140  1
  Zr  Zr7  1  0.69175363  0.89954084  0.90114929  1
  Zr  Zr8  1  0.50600037  0.50151651  0.10145015  1
  Zr  Zr9  1  0.30058365  0.09966137  0.69958570  1
  Zr  Zr10  1  0.69620826  0.30879489  0.69544528  1
  Zr  Zr11  1  0.29770868  0.09722640  0.51003951  1
  Zr  Zr12  1  0.10170557  0.69791078  0.49830495  1
  Zr  Zr13  1  0.29763574  0.69701641  0.29849688  1
  Zr  Zr14  1  0.89833305  0.90048838  0.69037973  1
  Zr  Zr15  1  0.10335264  0.29160690  0.90804189  1
  Zr  Zr16  1  0.69195468  0.69995936  0.70040882  1
  Zr  Zr17  1  0.10013210  0.90338245  0.89469070  1
  Zr  Zr18  1  0.09028070  0.89854701  0.69924910  1
  Zr  Zr19  1  0.29917337  0.49747335  0.50586005  1
  Zr  Zr20  1  0.49153666  0.50454880  0.69879506  1
  Zr  Zr21  1  0.69484817  0.70396078  0.11054857  1
  Zr  Zr22  1  0.89912376  0.50254707  0.69857977  1
  Zr  Zr23  1  0.29224137  0.49990052  0.29158507  1
  Zr  Zr24  1  0.70217527  0.70036611  0.49973990  1
  Zr  Zr25  1  0.49884837  0.10128733  0.29501434  1
  Zr  Zr26  1  0.49827202  0.90367407  0.29845697  1
  Zr  Zr27  1  0.50019773  0.90132413  0.10408177  1
  Zr  Zr28  1  0.69840078  0.09806582  0.09833136  1
  Zr  Zr29  1  0.30474418  0.69872648  0.90185081  1
  Zr  Zr30  1  0.29907028  0.70186209  0.50445213  1
  Zr  Zr31  1  0.30032336  0.30336230  0.90482219  1
  Zr  Zr32  1  0.09844811  0.50632232  0.50394203  1
  Zr  Zr33  1  0.50871530  0.70516358  0.29619972  1
  Zr  Zr34  1  0.30944146  0.50342009  0.09371302  1
  Zr  Zr35  1  0.30355330  0.90637738  0.29290336  1
  Zr  Zr36  1  0.08744574  0.90421553  0.29776300  1
  Zr  Zr37  1  0.10256795  0.90177452  0.10310015  1
  Zr  Zr38  1  0.29832799  0.29925298  0.29872548  1
  Zr  Zr39  1  0.50050819  0.29677169  0.30390479  1
  Zr  Zr40  1  0.89804086  0.29202459  0.29461192  1
  Zr  Zr41  1  0.69754386  0.70006799  0.89955040  1
  Zr  Zr42  1  0.89749740  0.70281144  0.70168378  1
  Zr  Zr43  1  0.49643755  0.49482798  0.50116753  1
  Zr  Zr44  1  0.29984638  0.30024526  0.70498792  1
  Zr  Zr45  1  0.51006478  0.30385763  0.50228643  1
  Zr  Zr46  1  0.70663296  0.50462737  0.29851239  1
  Zr  Zr47  1  0.50185453  0.89392942  0.69785214  1
  Zr  Zr48  1  0.10710369  0.49517035  0.90058984  1
  Zr  Zr49  1  0.09008717  0.69854921  0.69674099  1
  Sc  Sc50  1  0.49134744  0.49914830  0.90247017  1
  Sc  Sc51  1  0.70559247  0.70185769  0.30197962  1
  Sc  Sc52  1  0.89743580  0.69630845  0.30097984  1
  Sc  Sc53  1  0.09763194  0.29094099  0.49886309  1
  Sc  Sc54  1  0.30406954  0.90766401  0.69530008  1
  Sc  Sc55  1  0.49764008  0.70165620  0.10490334  1
  Sc  Sc56  1  0.09607327  0.69828527  0.10051487  1
  Sc  Sc57  1  0.09702004  0.10338372  0.29634689  1
  Sc  Sc58  1  0.89846886  0.69287163  0.89967389  1
  Sc  Sc59  1  0.90600483  0.09523086  0.69835653  1
  Sc  Sc60  1  0.49782566  0.69653993  0.88301542  1
  Sc  Sc61  1  0.30532320  0.70832480  0.09547774  1
  Sc  Sc62  1  0.69817942  0.89160127  0.30219305  1
  Sc  Sc63  1  0.49638683  0.90297787  0.90118340  1
  Sc  Sc64  1  0.69554120  0.09733567  0.70449951  1
  Sc  Sc65  1  0.09840477  0.29505383  0.69270564  1
  Sc  Sc66  1  0.70347553  0.08413266  0.90060393  1
  Sc  Sc67  1  0.89212142  0.50448774  0.90142301  1
  Sc  Sc68  1  0.50014303  0.90353816  0.49624819  1
  Sc  Sc69  1  0.10562241  0.50731954  0.11260358  1
  Sc  Sc70  1  0.29817327  0.29830579  0.10286307  1
  Sc  Sc71  1  0.50031667  0.10323555  0.49615395  1
  Sc  Sc72  1  0.50457174  0.30321858  0.10379764  1
  Sc  Sc73  1  0.10696483  0.28790434  0.10084564  1
  Sc  Sc74  1  0.30286350  0.10511199  0.10536309  1
  Sc  Sc75  1  0.50112823  0.09925843  0.10314320  1
  Sc  Sc76  1  0.09252025  0.70368379  0.90043792  1
  Sc  Sc77  1  0.30811595  0.49134354  0.89505462  1
  Sc  Sc78  1  0.49764361  0.09955059  0.89683998  1
  Sc  Sc79  1  0.49692422  0.30359368  0.89684402  1
  Sc  Sc80  1  0.89952728  0.68986948  0.10504738  1
  Sc  Sc81  1  0.29953302  0.29499508  0.49977406  1
  Sc  Sc82  1  0.90077817  0.30349234  0.89791937  1
  Sc  Sc83  1  0.69675479  0.11023971  0.30431667  1
  Sc  Sc84  1  0.70611291  0.49729581  0.10566151  1
  Sc  Sc85  1  0.90375764  0.30049422  0.69450145  1
  Sc  Sc86  1  0.69731830  0.31283001  0.89095415  1
  Sc  Sc87  1  0.30240149  0.10696393  0.30059498  1
  Sc  Sc88  1  0.89331356  0.90869462  0.88692203  1
  Sc  Sc89  1  0.89681402  0.50083095  0.49497438  1
  Sc  Sc90  1  0.90208349  0.30294487  0.49512959  1
  Sc  Sc91  1  0.31435672  0.70379365  0.69484335  1
  Sc  Sc92  1  0.48936521  0.09855103  0.70264771  1
  Sc  Sc93  1  0.70547138  0.50080990  0.89292752  1
  Sc  Sc94  1  0.90065351  0.90433417  0.31151050  1
  Sc  Sc95  1  0.90623991  0.10286602  0.89686257  1
  Sc  Sc96  1  0.70319236  0.30710173  0.11090371  1
  Sc  Sc97  1  0.89725907  0.69918864  0.49910031  1
  Sc  Sc98  1  0.69733241  0.29857492  0.30158375  1
  Sc  Sc99  1  0.90496358  0.90485693  0.11652854  1
  Nb  Nb100  1  0.90248834  0.90902528  0.49621165  1
  Nb  Nb101  1  0.90076575  0.11086948  0.10277535  1
  Nb  Nb102  1  0.69631863  0.29404211  0.50648904  1
  Nb  Nb103  1  0.89549982  0.09918444  0.29663107  1
  Nb  Nb104  1  0.29900611  0.89565082  0.09358895  1
  Nb  Nb105  1  0.89982794  0.29948888  0.09962135  1
  Nb  Nb106  1  0.09896812  0.10066457  0.09133934  1
  Nb  Nb107  1  0.10677960  0.68996863  0.29841619  1
  Nb  Nb108  1  0.10489064  0.10058690  0.49923247  1
  Nb  Nb109  1  0.50083800  0.69948730  0.68801015  1
  Nb  Nb110  1  0.88716900  0.08347783  0.48860061  1
  Nb  Nb111  1  0.69857716  0.90438999  0.09148106  1
  Nb  Nb112  1  0.09438986  0.90084748  0.49482192  1
  Nb  Nb113  1  0.70207260  0.10108651  0.50085303  1
  Nb  Nb114  1  0.10176531  0.50948246  0.30053805  1
  Nb  Nb115  1  0.29072274  0.49294967  0.70427443  1
  Nb  Nb116  1  0.70789494  0.49525867  0.70145042  1
  Nb  Nb117  1  0.29479899  0.89391397  0.90673746  1
  Nb  Nb118  1  0.90035623  0.49386694  0.10598954  1
  Nb  Nb119  1  0.50282639  0.29660582  0.70562933  1
  Nb  Nb120  1  0.10303045  0.09930901  0.90184589  1
  Nb  Nb121  1  0.90117079  0.49939326  0.29600824  1
  Nb  Nb122  1  0.29779313  0.89743800  0.49812352  1
  Nb  Nb123  1  0.49603292  0.69453086  0.51062109  1
  Nb  Nb124  1  0.10309434  0.49874685  0.69994880  1
  Nb  Nb125  1  0.20186525  0.60109509  0.79751750  1
  Nb  Nb126  1  0.40407980  0.60289599  0.40188006  1
  Nb  Nb127  1  0.79756394  0.20216554  0.79783992  1
  Nb  Nb128  1  0.79525263  0.19604210  0.59542679  1
  Nb  Nb129  1  0.19799572  0.80201514  0.20423531  1
  Nb  Nb130  1  0.20101333  -0.00056686  0.00057817  1
  Nb  Nb131  1  0.20218488  0.79866825  0.79985700  1
  Nb  Nb132  1  0.60118430  0.60010525  0.00099683  1
  Nb  Nb133  1  0.00378474  0.00459459  0.00415078  1
  Nb  Nb134  1  -0.00802452  0.80971354  0.00090618  1
  Nb  Nb135  1  0.19530730  0.40677030  0.39751832  1
  Nb  Nb136  1  0.19566622  -0.00356737  0.40535113  1
  Nb  Nb137  1  0.80007503  0.80706018  0.00610054  1
  Nb  Nb138  1  0.60676399  0.00030030  0.59671961  1
  Nb  Nb139  1  -0.00212125  0.40090430  0.20136188  1
  Nb  Nb140  1  0.20341631  0.60153925  -0.00727860  1
  Nb  Nb141  1  -0.00217850  0.40130630  0.00809340  1
  Nb  Nb142  1  0.20021448  0.19610932  0.80428890  1
  Nb  Nb143  1  0.79855696  0.20274739  -0.00106641  1
  Nb  Nb144  1  0.39696161  0.79615619  0.40233991  1
  Nb  Nb145  1  0.79902517  0.00674076  0.20022313  1
  Nb  Nb146  1  0.60896263  0.20120926  -0.00221408  1
  Nb  Nb147  1  0.00683851  0.40385332  0.80271800  1
  Nb  Nb148  1  0.59629989  0.59882803  0.40640114  1
  Nb  Nb149  1  0.19677354  0.80533195  0.39736554  1
  Pd  Pd150  1  0.80231047  0.79657152  0.80857509  1
  Pd  Pd151  1  0.40956643  0.20431752  0.00286834  1
  Pd  Pd152  1  0.39702171  0.00140595  0.00467228  1
  Pd  Pd153  1  0.59544915  0.79568059  0.40880087  1
  Pd  Pd154  1  0.39319779  0.00035778  0.40405792  1
  Pd  Pd155  1  0.79822013  0.39316089  0.39742682  1
  Pd  Pd156  1  0.80168172  0.80797783  0.19900784  1
  Pd  Pd157  1  0.19475593  -0.00865718  0.59737373  1
  Pd  Pd158  1  0.59279499  0.41048853  0.79747948  1
  Pd  Pd159  1  -0.00086367  0.79070583  0.39934668  1
  Pd  Pd160  1  -0.00761619  0.79949715  0.58891095  1
  Pd  Pd161  1  0.19505429  0.40597041  0.01461314  1
  Pd  Pd162  1  0.00610636  0.20192400  0.19895776  1
  Pd  Pd163  1  0.79234837  0.60533070  0.00822853  1
  Pd  Pd164  1  0.59283420  0.00099293  0.79415357  1
  Pd  Pd165  1  0.40683463  0.20561839  0.59973047  1
  Pd  Pd166  1  0.81530603  -0.00071248  0.00789407  1
  Pd  Pd167  1  0.79983989  0.60097250  0.60121901  1
  Pd  Pd168  1  0.00017069  0.20584331  0.79973804  1
  Pd  Pd169  1  0.00081195  0.78952361  0.19979955  1
  Pd  Pd170  1  0.60312522  0.80941674  0.59078655  1
  Pd  Pd171  1  0.00145329  0.00761488  0.59201394  1
  Pd  Pd172  1  0.59848743  0.59211051  0.80169807  1
  Pd  Pd173  1  0.20315203  0.00471551  0.19907874  1
  Pd  Pd174  1  0.39665696  0.80529023  0.79794786  1
  Pd  Pd175  1  0.60311793  0.40163901  -0.00098814  1
  Pd  Pd176  1  0.39943923  0.20000203  0.40517996  1
  Pd  Pd177  1  0.80164477  0.39531958  -0.00180096  1
  Pd  Pd178  1  0.79997065  0.20449702  0.40544658  1
  Pd  Pd179  1  0.41380921  0.79569296  -0.00350890  1
  Pd  Pd180  1  0.60847320  0.40279220  0.39567071  1
  Pd  Pd181  1  0.60944636  -0.00247903  0.20509487  1
  Pd  Pd182  1  0.40010035  0.39364529  0.19559541  1
  Pd  Pd183  1  -0.01117788  0.18818029  0.58765544  1
  Pd  Pd184  1  0.59496857  0.79279137  -0.00133452  1
  Pd  Pd185  1  0.40155395  0.60417479  0.20179213  1
  Pd  Pd186  1  0.00520542  0.40474326  0.39443861  1
  Pd  Pd187  1  0.19779484  0.80609511  0.60491759  1
  Pd  Pd188  1  -0.00043079  0.40382075  0.60141350  1
  Pd  Pd189  1  -0.00577855  0.60167634  0.39867329  1
  Pd  Pd190  1  0.19362646  0.38984688  0.59242019  1
  Pd  Pd191  1  0.60697479  0.00352001  0.40236177  1
  Pd  Pd192  1  0.59951094  0.18986759  0.60521151  1
  Pd  Pd193  1  0.40144007  0.39097712  0.60638050  1
  Pd  Pd194  1  0.60587111  0.19668274  0.80883671  1
  Pd  Pd195  1  0.00299826  0.59312786  0.80282120  1
  Pd  Pd196  1  0.20523234  0.60494404  0.61162161  1
  Pd  Pd197  1  -0.00579142  0.18980814  0.40479976  1
  Pd  Pd198  1  0.60600126  0.58999323  0.59858942  1
  Pd  Pd199  1  0.00459245  0.59547321  0.00274100  1
  Rh  Rh200  1  0.38623214  0.40500092  0.39673441  1
  Rh  Rh201  1  -0.00903395  0.20106730  -0.00065062  1
  Rh  Rh202  1  0.19877814  0.19519759  0.20040145  1
  Rh  Rh203  1  0.18995852  0.79945325  0.00096912  1
  Rh  Rh204  1  0.19978761  0.20072209  0.60645485  1
  Rh  Rh205  1  0.40367834  0.39463274  0.00570633  1
  Rh  Rh206  1  0.79573832  0.59849080  0.40000640  1
  Rh  Rh207  1  0.59825767  0.19977158  0.40191567  1
  Rh  Rh208  1  0.59406358  0.40465147  0.60849140  1
  Rh  Rh209  1  0.21246966  0.18944965  -0.00406148  1
  Rh  Rh210  1  0.59473559  0.79858835  0.79849731  1
  Rh  Rh211  1  0.79415299  0.19666429  0.19469731  1
  Rh  Rh212  1  -0.00509410  0.59815210  0.59772562  1
  Rh  Rh213  1  0.58890649  0.00568931  -0.00111286  1
  Rh  Rh214  1  0.80394609  0.00822513  0.79228902  1
  Rh  Rh215  1  0.79490445  0.00780003  0.60723752  1
  Rh  Rh216  1  0.40470558  0.80848784  0.59303488  1
  Rh  Rh217  1  0.39227394  0.59677821  0.79054051  1
  Rh  Rh218  1  0.39858409  -0.00972734  0.80050061  1
  Rh  Rh219  1  0.80679336  0.39171321  0.59913432  1
  Rh  Rh220  1  0.60276376  0.59696172  0.20208139  1
  Rh  Rh221  1  0.39766731  0.00214225  0.19241957  1
  Rh  Rh222  1  0.60232095  0.80869194  0.19804155  1
  Rh  Rh223  1  0.40410604  0.20315670  0.19966687  1
  Rh  Rh224  1  -0.00422867  0.59696644  0.20431220  1
  Rh  Rh225  1  0.00593411  0.01140100  0.40258056  1
  Rh  Rh226  1  0.81171423  0.39501909  0.79388320  1
  Rh  Rh227  1  0.79070946  0.00061067  0.38444469  1
  Rh  Rh228  1  0.80197981  0.59997080  0.20029937  1
  Rh  Rh229  1  0.39656691  0.80362698  0.20330839  1
  Rh  Rh230  1  0.60178152  0.40006714  0.20630727  1
  Rh  Rh231  1  0.80975971  0.80139063  0.40161880  1
  Rh  Rh232  1  0.20785301  -0.00256897  0.80468226  1
  Rh  Rh233  1  0.40548296  0.39733077  0.79525458  1
  Rh  Rh234  1  -0.00340207  0.00090596  0.80232090  1
  Rh  Rh235  1  0.20246842  0.19619249  0.40070228  1
  Rh  Rh236  1  -0.00827817  0.01362390  0.19680602  1
  Rh  Rh237  1  0.80535720  0.39796817  0.20756333  1
  Rh  Rh238  1  0.79522658  0.60312346  0.79291841  1
  Rh  Rh239  1  0.19247888  0.39366193  0.79431340  1
  Rh  Rh240  1  0.80561605  0.79815925  0.59482241  1
  Rh  Rh241  1  0.40529750  0.60309905  -0.00083649  1
  Rh  Rh242  1  0.20600283  0.59655192  0.40448434  1
  Rh  Rh243  1  0.59942948  0.20346014  0.19383470  1
  Rh  Rh244  1  0.39232431  0.59393343  0.60257840  1
  Rh  Rh245  1  0.19111161  0.39572697  0.20380354  1
  Rh  Rh246  1  0.39566242  0.20553888  0.80218121  1
  Rh  Rh247  1  -0.00217509  0.80214951  0.80601812  1
  Rh  Rh248  1  0.40893216  -0.00257418  0.59551519  1
  Rh  Rh249  1  0.20665141  0.61229167  0.18329771  1
