# generated using pymatgen
data_ZrScNbPdRh
_symmetry_space_group_name_H-M   'P 1'
_cell_length_a   16.55894362
_cell_length_b   16.55718457
_cell_length_c   16.55802913
_cell_angle_alpha   89.98935696
_cell_angle_beta   90.03687862
_cell_angle_gamma   89.99392262
_symmetry_Int_Tables_number   1
_chemical_formula_structural   ZrScNbPdRh
_chemical_formula_sum   'Zr50 Sc50 Nb50 Pd50 Rh50'
_cell_volume   4539.70528880
_cell_formula_units_Z   50
loop_
 _symmetry_equiv_pos_site_id
 _symmetry_equiv_pos_as_xyz
  1  'x, y, z'
loop_
 _atom_site_type_symbol
 _atom_site_label
 _atom_site_symmetry_multiplicity
 _atom_site_fract_x
 _atom_site_fract_y
 _atom_site_fract_z
 _atom_site_occupancy
  Zr  Zr0  1  0.90553846  0.69384833  0.70733168  1
  Zr  Zr1  1  0.89941798  0.50048667  0.50079961  1
  Zr  Zr2  1  0.50550966  0.29246134  0.10267490  1
  Zr  Zr3  1  0.29891095  0.50154444  0.10310343  1
  Zr  Zr4  1  0.89532347  0.70745965  0.29358463  1
  Zr  Zr5  1  0.70480876  0.09510167  0.70122454  1
  Zr  Zr6  1  0.09729755  0.89850613  0.29178830  1
  Zr  Zr7  1  0.50184662  0.89586207  0.90234926  1
  Zr  Zr8  1  0.69559561  0.89437217  0.88943454  1
  Zr  Zr9  1  0.70357905  0.88977086  0.30621477  1
  Zr  Zr10  1  0.49500909  0.09491966  0.30005793  1
  Zr  Zr11  1  0.90020371  0.29589126  0.70694161  1
  Zr  Zr12  1  0.50560731  0.90154683  0.70678988  1
  Zr  Zr13  1  0.30153036  0.10806803  0.70042983  1
  Zr  Zr14  1  0.28988484  0.30394854  0.49655952  1
  Zr  Zr15  1  0.69548586  0.49567553  0.89732301  1
  Zr  Zr16  1  0.69359738  0.69527476  0.10093863  1
  Zr  Zr17  1  0.29456335  0.68975592  0.28954543  1
  Zr  Zr18  1  0.50189071  0.30921924  0.49800122  1
  Zr  Zr19  1  0.69999350  0.29225118  0.10448566  1
  Zr  Zr20  1  0.49402406  0.09700531  0.70017866  1
  Zr  Zr21  1  0.29879398  0.69287640  0.70584279  1
  Zr  Zr22  1  0.49174445  0.29856762  0.70156500  1
  Zr  Zr23  1  0.10292401  0.70062399  0.29784036  1
  Zr  Zr24  1  0.70784063  0.70487542  0.70400304  1
  Zr  Zr25  1  0.89506173  0.90382923  0.29513389  1
  Zr  Zr26  1  0.10085382  0.50228591  0.69778228  1
  Zr  Zr27  1  0.09642741  0.89353072  0.50331078  1
  Zr  Zr28  1  0.30144105  0.89468456  0.28976440  1
  Zr  Zr29  1  0.70038111  0.29788304  0.90218228  1
  Zr  Zr30  1  0.90300066  0.49826153  0.30518803  1
  Zr  Zr31  1  0.49097446  0.90032134  0.10787753  1
  Zr  Zr32  1  0.89459942  0.90144209  0.49651623  1
  Zr  Zr33  1  0.29825330  0.10295824  0.10808758  1
  Zr  Zr34  1  0.09543192  0.49843497  0.49855012  1
  Zr  Zr35  1  0.29958032  0.09973293  0.49799399  1
  Zr  Zr36  1  0.29337859  0.88989229  0.09730105  1
  Zr  Zr37  1  0.49171455  0.50660463  0.30394897  1
  Zr  Zr38  1  0.90081690  0.50275577  0.69646799  1
  Zr  Zr39  1  0.91378979  0.50162529  0.10093536  1
  Zr  Zr40  1  0.69253420  0.70049608  0.30523276  1
  Zr  Zr41  1  0.70415064  0.09870045  0.90586417  1
  Zr  Zr42  1  0.49464947  0.50645809  0.69616160  1
  Zr  Zr43  1  0.28385666  0.89309273  0.90224526  1
  Zr  Zr44  1  0.70507267  0.50215688  0.30295572  1
  Zr  Zr45  1  0.29763849  0.50631047  0.90557181  1
  Zr  Zr46  1  0.89988442  0.29546778  0.90048943  1
  Zr  Zr47  1  0.49860270  0.09680397  0.49754754  1
  Zr  Zr48  1  0.09474372  0.69362282  0.10048134  1
  Zr  Zr49  1  0.10172529  0.49792246  0.09082000  1
  Sc  Sc50  1  0.09601261  0.11171369  0.48981241  1
  Sc  Sc51  1  0.29539880  0.10601609  0.29820623  1
  Sc  Sc52  1  0.49928435  0.30594051  0.30118632  1
  Sc  Sc53  1  0.70527046  0.10102799  0.48873441  1
  Sc  Sc54  1  0.90094675  0.88821406  0.69547607  1
  Sc  Sc55  1  0.10472294  0.88915926  0.70997758  1
  Sc  Sc56  1  0.90170054  0.10293372  0.49253909  1
  Sc  Sc57  1  0.49587279  0.69746931  0.68556014  1
  Sc  Sc58  1  0.49191331  0.50126790  0.90422405  1
  Sc  Sc59  1  0.50159965  0.30564491  0.90305274  1
  Sc  Sc60  1  0.90175623  0.69557592  0.50722889  1
  Sc  Sc61  1  0.50215757  0.89565412  0.49974023  1
  Sc  Sc62  1  0.28479760  0.09869428  0.89609563  1
  Sc  Sc63  1  0.91129713  0.89790507  0.91185948  1
  Sc  Sc64  1  0.10141721  0.50683151  0.29789778  1
  Sc  Sc65  1  0.10816920  0.49250230  0.90409999  1
  Sc  Sc66  1  0.11140172  0.30470159  0.69314046  1
  Sc  Sc67  1  0.29894155  0.30749297  0.89727754  1
  Sc  Sc68  1  0.29975818  0.90282756  0.70468598  1
  Sc  Sc69  1  0.30113550  0.89387854  0.50035424  1
  Sc  Sc70  1  0.90534543  0.30101822  0.48993878  1
  Sc  Sc71  1  0.69641730  0.10434847  0.10155247  1
  Sc  Sc72  1  0.09999039  0.29536498  0.29927776  1
  Sc  Sc73  1  0.70798488  0.29747935  0.30181114  1
  Sc  Sc74  1  0.29428888  0.50021088  0.48843900  1
  Sc  Sc75  1  0.49588827  0.50237546  0.10194207  1
  Sc  Sc76  1  0.90019038  0.29974302  0.29470569  1
  Sc  Sc77  1  0.29437621  0.50027191  0.71086904  1
  Sc  Sc78  1  0.89712221  0.09975737  0.10059815  1
  Sc  Sc79  1  0.10705395  0.69518135  0.50213616  1
  Sc  Sc80  1  0.50547822  0.09106413  0.89752825  1
  Sc  Sc81  1  0.70823357  0.50096091  0.69634501  1
  Sc  Sc82  1  0.70659689  0.31219829  0.70863190  1
  Sc  Sc83  1  0.10034355  0.29559782  0.10028482  1
  Sc  Sc84  1  0.10591971  0.11067698  0.70839934  1
  Sc  Sc85  1  0.91071863  0.50236135  0.90025206  1
  Sc  Sc86  1  0.09209256  0.10772648  0.29328180  1
  Sc  Sc87  1  0.70365847  0.10690013  0.29555730  1
  Sc  Sc88  1  0.09770438  0.71019780  0.89768324  1
  Sc  Sc89  1  0.90293838  0.89953914  0.10563002  1
  Sc  Sc90  1  0.69161825  0.50306162  0.10171637  1
  Sc  Sc91  1  0.10281049  0.29547256  0.91321048  1
  Sc  Sc92  1  0.89903480  0.10482306  0.29598718  1
  Sc  Sc93  1  0.70122024  0.50528054  0.50112597  1
  Sc  Sc94  1  0.70802668  0.90646089  0.10348435  1
  Sc  Sc95  1  0.30121586  0.69641413  0.50480373  1
  Sc  Sc96  1  0.70275466  0.30569975  0.49285294  1
  Sc  Sc97  1  0.70454940  0.89114433  0.69727179  1
  Sc  Sc98  1  0.50183370  0.69622038  0.10190911  1
  Sc  Sc99  1  0.09924797  0.30444876  0.49400994  1
  Nb  Nb100  1  0.50492144  0.69933965  0.30270933  1
  Nb  Nb101  1  0.90390526  0.10521564  0.89396151  1
  Nb  Nb102  1  0.69795196  0.70201562  0.89907784  1
  Nb  Nb103  1  0.09551206  0.70132970  0.69566533  1
  Nb  Nb104  1  0.09762028  0.09422218  0.91286382  1
  Nb  Nb105  1  0.90041690  0.69741881  0.09376419  1
  Nb  Nb106  1  0.30537711  0.49172399  0.29166200  1
  Nb  Nb107  1  0.29012913  0.69606050  0.09432098  1
  Nb  Nb108  1  0.89674303  0.69910573  0.90174527  1
  Nb  Nb109  1  0.50341517  0.69056046  0.49551301  1
  Nb  Nb110  1  0.90396789  0.10340159  0.70406957  1
  Nb  Nb111  1  0.10295493  0.91124245  0.90668657  1
  Nb  Nb112  1  0.30115479  0.30721188  0.29712231  1
  Nb  Nb113  1  0.30455368  0.69776293  0.90410524  1
  Nb  Nb114  1  0.68909035  0.71076782  0.50088017  1
  Nb  Nb115  1  0.49919985  0.89497401  0.30016014  1
  Nb  Nb116  1  0.09693122  0.90554403  0.08104207  1
  Nb  Nb117  1  0.50753488  0.70230889  0.90119410  1
  Nb  Nb118  1  0.49980488  0.09986649  0.10240625  1
  Nb  Nb119  1  0.30008449  0.30179854  0.69603526  1
  Nb  Nb120  1  0.90493215  0.30469240  0.09943457  1
  Nb  Nb121  1  0.29823160  0.29856092  0.10924431  1
  Nb  Nb122  1  0.10315274  0.10419895  0.09067916  1
  Nb  Nb123  1  0.70075762  0.89432219  0.50151920  1
  Nb  Nb124  1  0.49571804  0.50562772  0.50280838  1
  Nb  Nb125  1  0.80373885  0.40250028  0.00500092  1
  Nb  Nb126  1  0.00189833  0.00519515  0.80293543  1
  Nb  Nb127  1  0.59950984  0.60573290  0.80224076  1
  Nb  Nb128  1  0.39998728  0.79260441  0.80740891  1
  Nb  Nb129  1  0.59348206  -0.00197199  0.20623891  1
  Nb  Nb130  1  0.39579266  0.00209093  0.00499238  1
  Nb  Nb131  1  0.80051613  0.60110981  -0.00070677  1
  Nb  Nb132  1  0.19273338  -0.00153929  0.19440854  1
  Nb  Nb133  1  0.39516667  0.20785474  0.40007946  1
  Nb  Nb134  1  0.00255885  0.00434786  0.60718726  1
  Nb  Nb135  1  0.19640901  -0.00309342  0.39652057  1
  Nb  Nb136  1  0.59983536  0.40044214  0.20318444  1
  Nb  Nb137  1  0.60040485  0.19879348  0.79470898  1
  Nb  Nb138  1  0.80398897  0.60224790  0.19516393  1
  Nb  Nb139  1  0.81269669  0.00185346  0.80200149  1
  Nb  Nb140  1  0.80065536  0.19890671  0.60435770  1
  Nb  Nb141  1  0.00276524  0.39661782  0.79775273  1
  Nb  Nb142  1  0.19341799  0.00266298  0.59664962  1
  Nb  Nb143  1  0.79969314  0.79018821  -0.00269954  1
  Nb  Nb144  1  0.60603791  0.00023455  0.59559176  1
  Nb  Nb145  1  0.40692521  0.79125190  0.39268591  1
  Nb  Nb146  1  0.39604774  0.40200445  0.59818941  1
  Nb  Nb147  1  0.60375724  0.19847495  0.60330078  1
  Nb  Nb148  1  -0.00240559  0.80201971  0.39722331  1
  Nb  Nb149  1  0.39922494  0.19433258  0.00600633  1
  Pd  Pd150  1  0.60153073  0.40275856  0.00884321  1
  Pd  Pd151  1  0.59701446  -0.00408795  0.01096587  1
  Pd  Pd152  1  0.59877288  0.39837797  0.60462727  1
  Pd  Pd153  1  0.59550924  0.20284063  0.40011167  1
  Pd  Pd154  1  0.01567857  0.20506979  0.80470996  1
  Pd  Pd155  1  0.19243806  0.40012077  0.19969594  1
  Pd  Pd156  1  0.39663647  0.40344803  0.79740908  1
  Pd  Pd157  1  0.00426080  0.00837792  0.18945866  1
  Pd  Pd158  1  -0.00176028  0.80773348  0.80589900  1
  Pd  Pd159  1  0.60627846  0.80746708  0.01035122  1
  Pd  Pd160  1  0.40309572  0.20538154  0.20598141  1
  Pd  Pd161  1  0.01111358  0.59475295  0.80715203  1
  Pd  Pd162  1  -0.00140005  0.19965662  0.59683506  1
  Pd  Pd163  1  0.60746106  -0.00597198  0.39867552  1
  Pd  Pd164  1  0.80492893  0.00432682  0.60244238  1
  Pd  Pd165  1  0.20439886  0.79945841  0.40049184  1
  Pd  Pd166  1  0.20335091  0.80207096  0.60784511  1
  Pd  Pd167  1  0.00240708  0.80036442  0.19447127  1
  Pd  Pd168  1  0.60910694  0.60173924  0.60447084  1
  Pd  Pd169  1  0.40361043  0.60541852  0.00555273  1
  Pd  Pd170  1  0.19378923  0.19596511  0.59508530  1
  Pd  Pd171  1  0.60168704  0.40868021  0.39456206  1
  Pd  Pd172  1  0.40215455  0.80127015  0.59892581  1
  Pd  Pd173  1  0.40076206  0.79825572  -0.00173516  1
  Pd  Pd174  1  0.60253390  0.80666650  0.19525824  1
  Pd  Pd175  1  0.39708980  -0.00975831  0.59895958  1
  Pd  Pd176  1  0.39153083  0.60476934  0.40042895  1
  Pd  Pd177  1  0.38981690  -0.00707758  0.81317745  1
  Pd  Pd178  1  0.79791500  0.60944034  0.40253561  1
  Pd  Pd179  1  -0.00171246  0.39317884  0.60375148  1
  Pd  Pd180  1  0.39520486  0.39123177  0.00815568  1
  Pd  Pd181  1  0.00518659  -0.00172277  0.40403109  1
  Pd  Pd182  1  0.18977402  0.60594779  0.80802895  1
  Pd  Pd183  1  0.59293874  0.40363893  0.79433801  1
  Pd  Pd184  1  0.79498963  0.40538377  0.19362257  1
  Pd  Pd185  1  0.39010585  -0.00754990  0.39678168  1
  Pd  Pd186  1  0.80625613  -0.00725420  -0.00557894  1
  Pd  Pd187  1  0.40084892  0.78459087  0.20094998  1
  Pd  Pd188  1  0.00117795  0.60942057  0.40083547  1
  Pd  Pd189  1  0.80482222  0.79180931  0.59561331  1
  Pd  Pd190  1  0.00986063  0.39765555  0.20542786  1
  Pd  Pd191  1  0.79596002  0.00389714  0.39285249  1
  Pd  Pd192  1  0.79587624  0.59430594  0.80607167  1
  Pd  Pd193  1  0.19291841  0.40461332  0.38851272  1
  Pd  Pd194  1  0.19680359  0.20839953  0.80772338  1
  Pd  Pd195  1  0.40155624  0.20833789  0.58972445  1
  Pd  Pd196  1  0.40282345  0.19897713  0.81658146  1
  Pd  Pd197  1  0.80375514  0.39183782  0.59358370  1
  Pd  Pd198  1  0.20410869  0.59414798  0.59929903  1
  Pd  Pd199  1  0.80663119  0.20309931  0.00768963  1
  Rh  Rh200  1  0.60095650  0.59122790  0.21017818  1
  Rh  Rh201  1  0.20488441  0.79100093  0.79876139  1
  Rh  Rh202  1  0.81243269  0.80941243  0.81078918  1
  Rh  Rh203  1  0.80462759  0.20260308  0.40394026  1
  Rh  Rh204  1  0.39679541  0.00004513  0.19940569  1
  Rh  Rh205  1  0.20871650  0.39418729  0.00697392  1
  Rh  Rh206  1  -0.00247908  0.20152560  0.19128521  1
  Rh  Rh207  1  0.20842194  0.00602747  0.00770175  1
  Rh  Rh208  1  -0.00308479  0.20525703  0.39251059  1
  Rh  Rh209  1  -0.00401399  0.60138402  0.20494748  1
  Rh  Rh210  1  -0.00022944  0.79715510  0.00118518  1
  Rh  Rh211  1  0.19419246  0.19926651  0.20098048  1
  Rh  Rh212  1  0.20413262  0.59673737  0.39421096  1
  Rh  Rh213  1  0.79461235  0.79333013  0.18751247  1
  Rh  Rh214  1  0.80562581  0.20124416  0.19647234  1
  Rh  Rh215  1  0.00378078  0.40077751  0.39391352  1
  Rh  Rh216  1  0.39947183  0.60450422  0.19578348  1
  Rh  Rh217  1  0.19776313  0.59154282  0.19682460  1
  Rh  Rh218  1  0.40628681  0.39927264  0.19532915  1
  Rh  Rh219  1  0.81471832  0.40978031  0.80945695  1
  Rh  Rh220  1  0.20394271  0.19873539  0.39328308  1
  Rh  Rh221  1  -0.00339525  0.39387371  -0.00662329  1
  Rh  Rh222  1  0.59695581  0.80420584  0.59914337  1
  Rh  Rh223  1  0.19544363  0.60559256  -0.00539286  1
  Rh  Rh224  1  0.19061576  0.00304022  0.79158490  1
  Rh  Rh225  1  -0.00937362  0.00862863  0.00066819  1
  Rh  Rh226  1  0.59891250  0.59510702  -0.01077840  1
  Rh  Rh227  1  0.19008443  0.78939017  0.00156236  1
  Rh  Rh228  1  0.00396484  0.60393021  -0.00895486  1
  Rh  Rh229  1  -0.00445056  0.19625747  0.00662070  1
  Rh  Rh230  1  0.60111029  0.59529634  0.40441332  1
  Rh  Rh231  1  0.39069273  0.59074118  0.59344628  1
  Rh  Rh232  1  0.19484468  0.39554053  0.80076433  1
  Rh  Rh233  1  0.59769419  0.19893715  0.21107440  1
  Rh  Rh234  1  0.80427070  0.40016132  0.40320987  1
  Rh  Rh235  1  0.59125562  0.80142645  0.40601613  1
  Rh  Rh236  1  0.18781575  0.80323089  0.18621352  1
  Rh  Rh237  1  0.58947020  0.78723127  0.78769722  1
  Rh  Rh238  1  0.61102798  0.00165573  0.79348017  1
  Rh  Rh239  1  0.79032017  0.19455207  0.79762170  1
  Rh  Rh240  1  0.79123342  0.00290611  0.20427614  1
  Rh  Rh241  1  0.20893188  0.40729351  0.60175185  1
  Rh  Rh242  1  0.80601992  0.79344020  0.40934031  1
  Rh  Rh243  1  0.79440464  0.60705081  0.59582076  1
  Rh  Rh244  1  0.39729813  0.39871556  0.40521548  1
  Rh  Rh245  1  0.21144171  0.20515978  0.00138532  1
  Rh  Rh246  1  0.00047965  0.79737875  0.59724367  1
  Rh  Rh247  1  0.58978910  0.19435182  -0.01213824  1
  Rh  Rh248  1  0.40938876  0.60831400  0.80500718  1
  Rh  Rh249  1  0.00400751  0.60333770  0.59880378  1
