# generated using pymatgen
data_ZrScNbPdRh
_symmetry_space_group_name_H-M   'P 1'
_cell_length_a   16.55563303
_cell_length_b   16.55920488
_cell_length_c   16.56015433
_cell_angle_alpha   90.02254610
_cell_angle_beta   89.98169046
_cell_angle_gamma   90.01422945
_symmetry_Int_Tables_number   1
_chemical_formula_structural   ZrScNbPdRh
_chemical_formula_sum   'Zr50 Sc50 Nb50 Pd50 Rh50'
_cell_volume   4539.93443932
_cell_formula_units_Z   50
loop_
 _symmetry_equiv_pos_site_id
 _symmetry_equiv_pos_as_xyz
  1  'x, y, z'
loop_
 _atom_site_type_symbol
 _atom_site_label
 _atom_site_symmetry_multiplicity
 _atom_site_fract_x
 _atom_site_fract_y
 _atom_site_fract_z
 _atom_site_occupancy
  Zr  Zr0  1  0.90244160  0.69260088  0.29461239  1
  Zr  Zr1  1  0.31151793  0.49668663  0.50981901  1
  Zr  Zr2  1  0.29714075  0.29970208  0.30243436  1
  Zr  Zr3  1  0.90262499  0.50596459  0.10049208  1
  Zr  Zr4  1  0.29878028  0.69774782  0.90984101  1
  Zr  Zr5  1  0.10101730  0.69321038  0.89583145  1
  Zr  Zr6  1  0.30458838  0.51500780  0.09840272  1
  Zr  Zr7  1  0.09615936  0.89488816  0.50590555  1
  Zr  Zr8  1  0.70247616  0.29266419  0.09242294  1
  Zr  Zr9  1  0.90536979  0.90568805  0.30215327  1
  Zr  Zr10  1  0.90110015  0.29288679  0.90134470  1
  Zr  Zr11  1  0.29220267  0.88731983  0.10161028  1
  Zr  Zr12  1  0.89719277  0.09721654  0.30584322  1
  Zr  Zr13  1  0.69427273  0.30499673  0.49125731  1
  Zr  Zr14  1  0.90308661  0.30536769  0.29759334  1
  Zr  Zr15  1  0.89533019  0.49484254  0.69692275  1
  Zr  Zr16  1  0.90279742  0.70010016  0.10213575  1
  Zr  Zr17  1  0.91123131  0.90333786  0.70723194  1
  Zr  Zr18  1  0.90057653  0.10366380  0.69748133  1
  Zr  Zr19  1  0.30799154  0.89653884  0.49285418  1
  Zr  Zr20  1  0.29324767  0.29954493  0.89641738  1
  Zr  Zr21  1  0.69880728  0.09940505  0.30239397  1
  Zr  Zr22  1  0.10160988  0.30391031  0.30048530  1
  Zr  Zr23  1  0.70254144  0.49725821  0.31054053  1
  Zr  Zr24  1  0.91033975  0.50408774  0.89624331  1
  Zr  Zr25  1  0.69907782  0.89397702  0.51202761  1
  Zr  Zr26  1  0.69655386  0.09941781  0.69594152  1
  Zr  Zr27  1  0.10248914  0.29731185  0.90248912  1
  Zr  Zr28  1  0.09944024  0.10185710  0.29527858  1
  Zr  Zr29  1  0.30237299  0.70249790  0.28540204  1
  Zr  Zr30  1  0.69849399  0.50128143  0.69919032  1
  Zr  Zr31  1  0.49173109  0.30672394  0.50065076  1
  Zr  Zr32  1  0.10655799  0.70646463  0.69864821  1
  Zr  Zr33  1  0.50429785  0.70903163  0.90243968  1
  Zr  Zr34  1  0.49931663  0.09837244  0.08584404  1
  Zr  Zr35  1  0.70031180  0.10270755  0.49852982  1
  Zr  Zr36  1  0.50152326  0.08088682  0.29616243  1
  Zr  Zr37  1  0.10529139  0.09991292  0.09840242  1
  Zr  Zr38  1  0.90637839  0.29380053  0.70412852  1
  Zr  Zr39  1  0.50292619  0.10616874  0.70001629  1
  Zr  Zr40  1  0.50064104  0.30036285  0.09497855  1
  Zr  Zr41  1  0.49633671  0.69512165  0.50103226  1
  Zr  Zr42  1  0.09277897  0.50208583  0.31236051  1
  Zr  Zr43  1  0.90317546  0.90249941  0.50227551  1
  Zr  Zr44  1  0.49949121  0.90769574  0.10002913  1
  Zr  Zr45  1  0.69728761  0.70707671  0.69419494  1
  Zr  Zr46  1  0.50822209  0.50242717  0.90821934  1
  Zr  Zr47  1  0.49097482  0.88855034  0.30441129  1
  Zr  Zr48  1  0.10009008  0.29987607  0.49982650  1
  Zr  Zr49  1  0.50381969  0.29918301  0.70269039  1
  Sc  Sc50  1  0.09875226  0.68890027  0.50716880  1
  Sc  Sc51  1  0.68602430  0.89883567  0.29341043  1
  Sc  Sc52  1  0.90647843  0.89038894  0.09945468  1
  Sc  Sc53  1  0.10768339  0.49685751  0.10141331  1
  Sc  Sc54  1  0.29725390  0.09915720  0.49604596  1
  Sc  Sc55  1  0.29296482  0.09035313  0.29876957  1
  Sc  Sc56  1  0.49439968  0.50445696  0.30555217  1
  Sc  Sc57  1  0.09890295  0.29335974  0.10637098  1
  Sc  Sc58  1  0.70052512  0.69035994  0.50560158  1
  Sc  Sc59  1  0.09957098  0.89629424  0.88580402  1
  Sc  Sc60  1  0.89600333  0.11996752  0.08741527  1
  Sc  Sc61  1  0.48834775  0.69998062  0.09527560  1
  Sc  Sc62  1  0.30139968  0.50171140  0.29892105  1
  Sc  Sc63  1  0.49733861  0.50387029  0.69672248  1
  Sc  Sc64  1  0.29748550  0.88412165  0.70853158  1
  Sc  Sc65  1  0.10149951  0.50416543  0.70452776  1
  Sc  Sc66  1  0.50825149  0.09960097  0.50436443  1
  Sc  Sc67  1  0.09977720  0.50020429  0.50394894  1
  Sc  Sc68  1  0.69905031  0.30283175  0.30262603  1
  Sc  Sc69  1  0.10134000  0.29898282  0.69190302  1
  Sc  Sc70  1  0.10270206  0.90192956  0.09898240  1
  Sc  Sc71  1  0.69823737  0.29754725  0.70260752  1
  Sc  Sc72  1  0.29476591  0.10820659  0.70439742  1
  Sc  Sc73  1  0.10016103  0.10024820  0.50373518  1
  Sc  Sc74  1  0.50265159  0.31723335  0.30088928  1
  Sc  Sc75  1  0.29143467  0.30524919  0.10509551  1
  Sc  Sc76  1  0.29587582  0.30165852  0.50464438  1
  Sc  Sc77  1  0.90479425  0.50163079  0.30574377  1
  Sc  Sc78  1  0.69224657  0.30137016  0.89280699  1
  Sc  Sc79  1  0.29878368  0.30194769  0.69262004  1
  Sc  Sc80  1  0.30311075  0.69478057  0.51063442  1
  Sc  Sc81  1  0.50026242  0.50434125  0.10474131  1
  Sc  Sc82  1  0.49553814  0.70453462  0.69663469  1
  Sc  Sc83  1  0.29078845  0.89843612  0.90362007  1
  Sc  Sc84  1  0.69823512  0.90180011  0.70247227  1
  Sc  Sc85  1  0.90043242  0.30647739  0.50632970  1
  Sc  Sc86  1  0.49827829  0.89337067  0.49949985  1
  Sc  Sc87  1  0.09945822  0.91050047  0.29246593  1
  Sc  Sc88  1  0.09689068  0.10175132  0.70409689  1
  Sc  Sc89  1  0.50385298  0.28716260  0.89965182  1
  Sc  Sc90  1  0.29084919  0.49803752  0.69927126  1
  Sc  Sc91  1  0.30453005  0.90057890  0.29848551  1
  Sc  Sc92  1  0.90121542  0.70442334  0.69148419  1
  Sc  Sc93  1  0.69356520  0.50692179  0.09083523  1
  Sc  Sc94  1  0.50633883  0.89094133  0.70056725  1
  Sc  Sc95  1  0.69622050  0.89233445  0.09655714  1
  Sc  Sc96  1  0.29948091  0.08872365  0.08874695  1
  Sc  Sc97  1  0.90172708  0.10435688  0.88526710  1
  Sc  Sc98  1  0.90955976  0.70293399  0.91009616  1
  Sc  Sc99  1  0.69934760  0.10169592  0.09313389  1
  Nb  Nb100  1  0.70192615  0.50017706  0.50512629  1
  Nb  Nb101  1  0.90002820  0.09757296  0.49543270  1
  Nb  Nb102  1  0.50240866  0.70268988  0.30292365  1
  Nb  Nb103  1  0.70078959  0.70321609  0.29487106  1
  Nb  Nb104  1  0.10203657  0.89810587  0.70155783  1
  Nb  Nb105  1  0.70424645  0.70116499  0.10059639  1
  Nb  Nb106  1  0.89749018  0.30282252  0.09169852  1
  Nb  Nb107  1  0.29663650  0.09397611  0.89721856  1
  Nb  Nb108  1  0.49551946  0.09155744  0.90363836  1
  Nb  Nb109  1  0.69849947  0.70345433  0.90851965  1
  Nb  Nb110  1  0.11103928  0.49385402  0.89723011  1
  Nb  Nb111  1  0.29037730  0.49698474  0.90096366  1
  Nb  Nb112  1  0.11236725  0.70906817  0.10767937  1
  Nb  Nb113  1  0.90042788  0.90474053  0.89459561  1
  Nb  Nb114  1  0.10000492  0.69452985  0.30882958  1
  Nb  Nb115  1  0.51123463  0.90614356  0.90505544  1
  Nb  Nb116  1  0.69455045  0.08926319  0.89599127  1
  Nb  Nb117  1  0.88902214  0.50603635  0.49976426  1
  Nb  Nb118  1  0.11061558  0.09657408  0.90182192  1
  Nb  Nb119  1  0.29300753  0.70331575  0.10035596  1
  Nb  Nb120  1  0.89750549  0.70385456  0.50107928  1
  Nb  Nb121  1  0.50055467  0.50269466  0.50265294  1
  Nb  Nb122  1  0.69605503  0.89729644  0.89885497  1
  Nb  Nb123  1  0.69976146  0.50596125  0.89724669  1
  Nb  Nb124  1  0.30290079  0.69459333  0.70625893  1
  Nb  Nb125  1  0.19394660  0.79341862  0.39673069  1
  Nb  Nb126  1  0.40132903  0.00119262  0.80440745  1
  Nb  Nb127  1  0.20241063  -0.00864168  0.60704634  1
  Nb  Nb128  1  0.39832086  0.40489804  0.80780796  1
  Nb  Nb129  1  -0.00252038  0.19877740  0.39995504  1
  Nb  Nb130  1  0.39771854  0.59698555  0.80819592  1
  Nb  Nb131  1  0.60466735  0.61146291  0.20575758  1
  Nb  Nb132  1  0.40430429  0.19777897  0.20243954  1
  Nb  Nb133  1  0.60303131  0.60485825  0.80502609  1
  Nb  Nb134  1  0.80529988  0.00422793  0.59915274  1
  Nb  Nb135  1  -0.00220228  0.00304266  -0.01008711  1
  Nb  Nb136  1  0.00002402  0.79247371  0.39961512  1
  Nb  Nb137  1  0.79468568  0.60754273  0.80517269  1
  Nb  Nb138  1  0.40236928  0.19902850  0.39071364  1
  Nb  Nb139  1  0.80319461  -0.00504255  -0.00864214  1
  Nb  Nb140  1  0.80310489  0.79546865  0.39770987  1
  Nb  Nb141  1  0.39478153  0.40361325  -0.00613924  1
  Nb  Nb142  1  0.59930899  0.40612765  0.59395497  1
  Nb  Nb143  1  0.80275398  0.39986735  0.18999815  1
  Nb  Nb144  1  0.80373656  0.40323237  -0.00397112  1
  Nb  Nb145  1  0.39565358  -0.00278258  0.60958666  1
  Nb  Nb146  1  0.59175961  0.19829805  0.19979184  1
  Nb  Nb147  1  0.79848442  0.80093815  0.80977509  1
  Nb  Nb148  1  -0.00012777  0.39960397  -0.00204312  1
  Nb  Nb149  1  0.80164736  0.00216733  0.19386495  1
  Pd  Pd150  1  0.20160902  0.40953480  0.20214635  1
  Pd  Pd151  1  0.01005179  0.79807859  0.20695647  1
  Pd  Pd152  1  0.01278142  0.60079834  0.19336384  1
  Pd  Pd153  1  0.38815722  0.20574833  0.00339718  1
  Pd  Pd154  1  0.59328593  -0.00130642  0.79365035  1
  Pd  Pd155  1  0.01011792  0.80727327  -0.00412399  1
  Pd  Pd156  1  0.19499008  0.20436661  0.79320364  1
  Pd  Pd157  1  0.79935828  0.40275528  0.80611739  1
  Pd  Pd158  1  0.19368995  -0.00857052  0.40568001  1
  Pd  Pd159  1  -0.00153437  0.40133134  0.19231499  1
  Pd  Pd160  1  0.19283524  0.59575658  0.20415368  1
  Pd  Pd161  1  0.59014663  0.79332265  0.19078687  1
  Pd  Pd162  1  0.00885377  0.39568356  0.80092072  1
  Pd  Pd163  1  0.39247025  0.60371895  0.39654056  1
  Pd  Pd164  1  0.39514321  0.19183724  0.59130971  1
  Pd  Pd165  1  0.79960369  0.60628257  0.40058587  1
  Pd  Pd166  1  -0.00605160  0.60681171  0.78982133  1
  Pd  Pd167  1  -0.01265855  0.01240162  0.18019340  1
  Pd  Pd168  1  0.80208928  0.59931231  -0.00485818  1
  Pd  Pd169  1  0.20700661  0.20155474  0.00641955  1
  Pd  Pd170  1  -0.00436428  0.19763744  0.20170462  1
  Pd  Pd171  1  0.60946325  0.79431831  0.40741646  1
  Pd  Pd172  1  0.78776554  -0.01315366  0.39950784  1
  Pd  Pd173  1  0.40078731  0.80290875  0.80759805  1
  Pd  Pd174  1  0.79177466  0.59097968  0.19883143  1
  Pd  Pd175  1  0.40103155  0.80872483  -0.00099968  1
  Pd  Pd176  1  0.39166412  0.00112340  0.19422571  1
  Pd  Pd177  1  0.19955643  0.19742437  0.40140195  1
  Pd  Pd178  1  -0.00355633  0.59694748  0.60178790  1
  Pd  Pd179  1  0.20642560  0.79989375  0.59436335  1
  Pd  Pd180  1  0.00365557  0.00647486  0.60283618  1
  Pd  Pd181  1  0.21091877  0.60265409  0.40632738  1
  Pd  Pd182  1  0.19193627  0.60126360  0.00349777  1
  Pd  Pd183  1  0.01559693  0.59705289  0.00811748  1
  Pd  Pd184  1  0.58753792  0.20274901  0.39013228  1
  Pd  Pd185  1  0.59879096  -0.01063594  0.40679297  1
  Pd  Pd186  1  0.00086814  0.40614025  0.59911904  1
  Pd  Pd187  1  0.60240172  0.39717235  -0.00056618  1
  Pd  Pd188  1  0.79863734  0.20226579  0.59444111  1
  Pd  Pd189  1  0.60959143  0.40554359  0.19668184  1
  Pd  Pd190  1  0.39821139  0.19959088  0.80413849  1
  Pd  Pd191  1  0.79022968  0.19839925  0.80276743  1
  Pd  Pd192  1  0.80314701  0.80526185  -0.00270654  1
  Pd  Pd193  1  0.60132341  0.60030065  0.39740729  1
  Pd  Pd194  1  0.79350863  0.20135927  0.20254845  1
  Pd  Pd195  1  0.39727620  0.39938218  0.19371580  1
  Pd  Pd196  1  0.80751057  0.20978967  0.40457932  1
  Pd  Pd197  1  0.80026589  0.80996731  0.20535650  1
  Pd  Pd198  1  0.79352066  0.39159324  0.60071984  1
  Pd  Pd199  1  0.20584818  0.40804345  0.40622695  1
  Rh  Rh200  1  0.39949172  0.59645987  -0.00527088  1
  Rh  Rh201  1  0.39988391  0.59978623  0.61129986  1
  Rh  Rh202  1  -0.00138995  0.19714561  0.59148555  1
  Rh  Rh203  1  0.59777765  -0.00349711  0.60170763  1
  Rh  Rh204  1  0.39732949  0.80295954  0.60176290  1
  Rh  Rh205  1  0.19215267  -0.00767402  -0.00383506  1
  Rh  Rh206  1  0.00186226  0.79489671  0.59852447  1
  Rh  Rh207  1  0.80769340  0.81070942  0.60560135  1
  Rh  Rh208  1  0.00907130  0.19911195  0.80164969  1
  Rh  Rh209  1  0.40593525  0.40133564  0.61067070  1
  Rh  Rh210  1  0.40416363  0.79830811  0.19468152  1
  Rh  Rh211  1  0.60544561  0.79607283  0.80220111  1
  Rh  Rh212  1  0.20048630  0.79282208  0.80398967  1
  Rh  Rh213  1  0.60412919  0.19337090  -0.00589121  1
  Rh  Rh214  1  0.19850083  0.39846128  0.00543836  1
  Rh  Rh215  1  0.41012460  0.60606947  0.20326341  1
  Rh  Rh216  1  -0.00355222  0.79270512  0.80015475  1
  Rh  Rh217  1  0.19061945  0.79807257  -0.00562186  1
  Rh  Rh218  1  0.20544161  -0.00221385  0.79304230  1
  Rh  Rh219  1  0.79064501  0.19754628  -0.01676109  1
  Rh  Rh220  1  0.60096954  0.61193069  0.00640197  1
  Rh  Rh221  1  0.59636492  0.59678993  0.60401236  1
  Rh  Rh222  1  0.59516509  0.41149262  0.40706012  1
  Rh  Rh223  1  0.39022215  0.78636810  0.39909197  1
  Rh  Rh224  1  0.20088367  0.39550611  0.79221474  1
  Rh  Rh225  1  0.19300171  0.80381041  0.21183614  1
  Rh  Rh226  1  0.80700061  0.40212175  0.39818491  1
  Rh  Rh227  1  0.20546575  -0.00270829  0.19377331  1
  Rh  Rh228  1  0.20554866  0.60316930  0.79900346  1
  Rh  Rh229  1  0.79565654  -0.00592046  0.79715192  1
  Rh  Rh230  1  0.19503077  0.40300354  0.59922224  1
  Rh  Rh231  1  0.21181348  0.19077986  0.19575609  1
  Rh  Rh232  1  0.39355992  -0.01063463  -0.00944802  1
  Rh  Rh233  1  0.20259674  0.59805892  0.60486851  1
  Rh  Rh234  1  0.60163642  0.18958944  0.80652304  1
  Rh  Rh235  1  -0.00525049  0.39939828  0.41041343  1
  Rh  Rh236  1  0.59237898  0.40915777  0.79217528  1
  Rh  Rh237  1  0.39527042  0.39820592  0.40080421  1
  Rh  Rh238  1  0.80441414  0.60105284  0.60552842  1
  Rh  Rh239  1  0.60381018  0.21311973  0.59582514  1
  Rh  Rh240  1  0.40704778  0.01002290  0.41314693  1
  Rh  Rh241  1  0.61012546  -0.00190485  0.00279867  1
  Rh  Rh242  1  0.19973712  0.19161827  0.60055302  1
  Rh  Rh243  1  -0.00748187  0.60095610  0.41153894  1
  Rh  Rh244  1  0.61035140  0.00681890  0.18928063  1
  Rh  Rh245  1  0.01100681  0.00553437  0.40285427  1
  Rh  Rh246  1  0.59290572  0.79476792  0.59459375  1
  Rh  Rh247  1  0.01031294  0.00719628  0.80480975  1
  Rh  Rh248  1  0.00876486  0.19747128  -0.00513572  1
  Rh  Rh249  1  0.59751144  0.79927538  0.00735234  1
