# generated using pymatgen
data_ZrScNbPdRh
_symmetry_space_group_name_H-M   'P 1'
_cell_length_a   16.56215871
_cell_length_b   16.55424361
_cell_length_c   16.55797070
_cell_angle_alpha   90.03758438
_cell_angle_beta   89.94816899
_cell_angle_gamma   89.98368293
_symmetry_Int_Tables_number   1
_chemical_formula_structural   ZrScNbPdRh
_chemical_formula_sum   'Zr50 Sc50 Nb50 Pd50 Rh50'
_cell_volume   4539.76220432
_cell_formula_units_Z   50
loop_
 _symmetry_equiv_pos_site_id
 _symmetry_equiv_pos_as_xyz
  1  'x, y, z'
loop_
 _atom_site_type_symbol
 _atom_site_label
 _atom_site_symmetry_multiplicity
 _atom_site_fract_x
 _atom_site_fract_y
 _atom_site_fract_z
 _atom_site_occupancy
  Zr  Zr0  1  0.50600745  0.30172990  0.49577026  1
  Zr  Zr1  1  0.70471334  0.89635777  0.50395784  1
  Zr  Zr2  1  0.49013741  0.09775988  0.89321400  1
  Zr  Zr3  1  0.50160047  0.30514828  0.09675705  1
  Zr  Zr4  1  0.29513005  0.30384204  0.49717812  1
  Zr  Zr5  1  0.50420636  0.29560320  0.90352754  1
  Zr  Zr6  1  0.09325061  0.50259680  0.29971269  1
  Zr  Zr7  1  0.50349660  0.08809350  0.09322283  1
  Zr  Zr8  1  0.10076020  0.70040619  0.69801398  1
  Zr  Zr9  1  0.09227584  0.10096569  0.49672992  1
  Zr  Zr10  1  0.10295933  0.90007551  0.49689522  1
  Zr  Zr11  1  0.70267622  0.29753609  0.49656787  1
  Zr  Zr12  1  0.10735734  0.10114151  0.11315377  1
  Zr  Zr13  1  0.49245303  0.69256740  0.91008370  1
  Zr  Zr14  1  0.89673389  0.70039869  0.90097981  1
  Zr  Zr15  1  0.69656367  0.30979229  0.09833083  1
  Zr  Zr16  1  0.08899236  0.30861732  0.90785753  1
  Zr  Zr17  1  0.69776379  0.10334120  0.29644100  1
  Zr  Zr18  1  0.50403165  0.50431986  0.49922529  1
  Zr  Zr19  1  0.09228233  0.69082912  0.09801982  1
  Zr  Zr20  1  0.89374883  0.88819327  0.29260030  1
  Zr  Zr21  1  0.90093450  0.49964673  0.30175021  1
  Zr  Zr22  1  0.70471725  0.68602705  0.70812364  1
  Zr  Zr23  1  0.89752272  0.09999792  0.50419680  1
  Zr  Zr24  1  0.69891273  0.31185419  0.69810001  1
  Zr  Zr25  1  0.50448784  0.90326131  0.70055481  1
  Zr  Zr26  1  0.09988636  0.10095393  0.70431294  1
  Zr  Zr27  1  0.69793308  0.30034991  0.29881485  1
  Zr  Zr28  1  0.50080096  0.69074218  0.50013929  1
  Zr  Zr29  1  0.69825973  0.90532216  0.11073244  1
  Zr  Zr30  1  0.29636965  0.11211000  0.71639808  1
  Zr  Zr31  1  0.70127761  0.31154891  0.89921153  1
  Zr  Zr32  1  0.90186570  0.69413328  0.28866290  1
  Zr  Zr33  1  0.70663753  0.50004597  0.28977692  1
  Zr  Zr34  1  0.50594981  0.89166699  0.28252321  1
  Zr  Zr35  1  0.30341826  0.49103545  0.30350632  1
  Zr  Zr36  1  0.09844463  0.09215580  0.30297044  1
  Zr  Zr37  1  0.29146542  0.68933654  0.70102783  1
  Zr  Zr38  1  0.49805763  0.49568424  0.10131569  1
  Zr  Zr39  1  0.29900693  0.90218824  0.90495022  1
  Zr  Zr40  1  0.29475094  0.69590663  0.89785519  1
  Zr  Zr41  1  0.70377722  0.89744088  0.70199736  1
  Zr  Zr42  1  0.69767576  0.08692816  0.69194871  1
  Zr  Zr43  1  0.70709368  0.89509974  0.89974542  1
  Zr  Zr44  1  0.90709833  0.69712548  0.69999619  1
  Zr  Zr45  1  0.89436444  0.30425556  0.50563855  1
  Zr  Zr46  1  0.29538051  0.89229613  0.70187654  1
  Zr  Zr47  1  0.30201671  0.89336770  0.49948610  1
  Zr  Zr48  1  0.10415560  0.90298794  0.89525140  1
  Zr  Zr49  1  0.69683630  0.10320535  0.89261362  1
  Sc  Sc50  1  0.90664029  0.89925126  0.50171848  1
  Sc  Sc51  1  0.30086042  0.70426347  0.50848098  1
  Sc  Sc52  1  0.89830050  0.89544878  0.89885863  1
  Sc  Sc53  1  0.70340696  0.09842945  0.09887908  1
  Sc  Sc54  1  0.30839050  0.09937557  0.48187506  1
  Sc  Sc55  1  0.10123901  0.30063978  0.50263898  1
  Sc  Sc56  1  0.29968467  0.09341489  0.09882322  1
  Sc  Sc57  1  0.70413925  0.71530726  0.29990863  1
  Sc  Sc58  1  0.30198896  0.29886446  0.30285200  1
  Sc  Sc59  1  0.30628620  0.71096284  0.31249560  1
  Sc  Sc60  1  0.50152283  0.49992394  0.30727584  1
  Sc  Sc61  1  0.11571840  0.29194900  0.30876140  1
  Sc  Sc62  1  0.89856857  0.30098344  0.89390464  1
  Sc  Sc63  1  0.30307917  0.30445132  0.09838135  1
  Sc  Sc64  1  0.09866515  0.10307948  0.89001210  1
  Sc  Sc65  1  0.50046899  0.50063973  0.69354843  1
  Sc  Sc66  1  0.30422394  0.30398658  0.88735157  1
  Sc  Sc67  1  0.09820260  0.69407421  0.90064261  1
  Sc  Sc68  1  0.49772425  0.30638285  0.70873287  1
  Sc  Sc69  1  0.90105738  0.50211219  0.69352685  1
  Sc  Sc70  1  0.49868476  0.31408950  0.30126542  1
  Sc  Sc71  1  0.69657147  0.50023604  0.50762678  1
  Sc  Sc72  1  0.89556476  0.50621880  0.10292419  1
  Sc  Sc73  1  0.10252068  0.50492045  0.69872257  1
  Sc  Sc74  1  0.29042458  0.10424718  0.29258907  1
  Sc  Sc75  1  0.50180034  0.89083355  0.50884480  1
  Sc  Sc76  1  0.10420307  0.70062558  0.51071314  1
  Sc  Sc77  1  0.90901218  0.49402239  0.50032519  1
  Sc  Sc78  1  0.88824238  0.30276861  0.30659635  1
  Sc  Sc79  1  0.90971749  0.49485640  0.90255289  1
  Sc  Sc80  1  0.90237685  0.10880952  0.89589218  1
  Sc  Sc81  1  0.90069561  0.70675475  0.10237566  1
  Sc  Sc82  1  0.10792343  0.29495140  0.70219485  1
  Sc  Sc83  1  0.29899635  0.50009157  0.08550464  1
  Sc  Sc84  1  0.30684575  0.70919039  0.09190598  1
  Sc  Sc85  1  0.89479519  0.30012410  0.08363798  1
  Sc  Sc86  1  0.69448017  0.69605649  0.49507975  1
  Sc  Sc87  1  0.30378128  0.90177102  0.10136434  1
  Sc  Sc88  1  0.30391192  0.90495834  0.30794712  1
  Sc  Sc89  1  0.90288923  0.10249764  0.30129788  1
  Sc  Sc90  1  0.90243455  0.10042553  0.70195799  1
  Sc  Sc91  1  0.49154922  0.49920902  0.90261587  1
  Sc  Sc92  1  0.49062710  0.09276877  0.30763529  1
  Sc  Sc93  1  0.30053675  0.49790080  0.50906689  1
  Sc  Sc94  1  0.09735734  0.89762586  0.70176833  1
  Sc  Sc95  1  0.89311789  0.10608209  0.10213095  1
  Sc  Sc96  1  0.90028679  0.30622902  0.70077770  1
  Sc  Sc97  1  0.90356098  0.69946288  0.50229816  1
  Sc  Sc98  1  0.10160733  0.90213068  0.10699398  1
  Sc  Sc99  1  0.90401615  0.90070555  0.70462690  1
  Nb  Nb100  1  0.49547504  0.70437394  0.69595616  1
  Nb  Nb101  1  0.49881393  0.10011606  0.69854354  1
  Nb  Nb102  1  0.29153400  0.50597217  0.89175379  1
  Nb  Nb103  1  0.09617830  0.69747803  0.29472619  1
  Nb  Nb104  1  0.29762961  0.48871194  0.71206564  1
  Nb  Nb105  1  0.10337038  0.50160586  0.49482575  1
  Nb  Nb106  1  0.70151253  0.90241307  0.30398575  1
  Nb  Nb107  1  0.10373598  0.30192344  0.09618994  1
  Nb  Nb108  1  0.69825984  0.49936348  0.70015851  1
  Nb  Nb109  1  0.10166930  0.49573870  0.09020208  1
  Nb  Nb110  1  0.69648726  0.09644733  0.49937107  1
  Nb  Nb111  1  0.30139355  0.30570048  0.69850868  1
  Nb  Nb112  1  0.69581897  0.69651413  0.09758476  1
  Nb  Nb113  1  0.50292860  0.10031904  0.50059607  1
  Nb  Nb114  1  0.69653048  0.69744624  0.89937410  1
  Nb  Nb115  1  0.49810839  0.89648988  0.90309359  1
  Nb  Nb116  1  0.50362650  0.69576998  0.29616225  1
  Nb  Nb117  1  0.49869552  0.89321059  0.09520066  1
  Nb  Nb118  1  0.69647191  0.50817142  0.89698299  1
  Nb  Nb119  1  0.09917002  0.89878083  0.30174274  1
  Nb  Nb120  1  0.29569429  0.10212752  0.90093401  1
  Nb  Nb121  1  0.49717106  0.70803518  0.10723782  1
  Nb  Nb122  1  0.10828209  0.50223116  0.91945966  1
  Nb  Nb123  1  0.90018849  0.90184856  0.09639877  1
  Nb  Nb124  1  0.69868293  0.49947258  0.09613658  1
  Nb  Nb125  1  0.40482296  0.79631775  0.80083874  1
  Nb  Nb126  1  0.40788170  0.20157759  0.19491099  1
  Nb  Nb127  1  0.59293035  0.20070339  0.19961849  1
  Nb  Nb128  1  -0.00187464  -0.00037959  0.00482907  1
  Nb  Nb129  1  0.39827134  0.00862249  0.60359846  1
  Nb  Nb130  1  0.59677893  0.19480365  0.59922521  1
  Nb  Nb131  1  0.20426462  0.60105014  0.20232520  1
  Nb  Nb132  1  0.59558741  0.79216850  0.80691354  1
  Nb  Nb133  1  0.00498380  0.21073993  0.19832187  1
  Nb  Nb134  1  0.19376101  0.40552505  0.19519281  1
  Nb  Nb135  1  0.78877768  0.60120657  -0.00231891  1
  Nb  Nb136  1  0.60438369  -0.00346628  0.40234329  1
  Nb  Nb137  1  0.40116323  0.60457491  0.20155751  1
  Nb  Nb138  1  0.40271599  0.19861744  0.60268281  1
  Nb  Nb139  1  0.20046344  0.20144704  -0.00372848  1
  Nb  Nb140  1  0.80306677  0.59947988  0.39404319  1
  Nb  Nb141  1  0.79471930  -0.00247593  0.40064307  1
  Nb  Nb142  1  0.19546106  0.79435657  0.20834398  1
  Nb  Nb143  1  0.80041973  0.79555246  0.60475560  1
  Nb  Nb144  1  0.59807633  0.60521670  0.19692463  1
  Nb  Nb145  1  0.59816437  0.79818392  0.00188564  1
  Nb  Nb146  1  0.20601094  0.00575087  0.59985389  1
  Nb  Nb147  1  0.19593770  0.60093350  0.39700076  1
  Nb  Nb148  1  0.00692159  0.79683038  0.39093438  1
  Nb  Nb149  1  0.00674510  0.39308876  0.19480891  1
  Pd  Pd150  1  0.60196773  0.20105673  0.79033721  1
  Pd  Pd151  1  0.79398482  0.79529175  0.00687190  1
  Pd  Pd152  1  0.39355031  0.59452037  0.60532737  1
  Pd  Pd153  1  0.00599968  0.80767888  0.00060471  1
  Pd  Pd154  1  0.59705599  0.59878330  0.00643025  1
  Pd  Pd155  1  0.39793791  0.00327732  0.19984991  1
  Pd  Pd156  1  0.21002427  0.19202645  0.59192711  1
  Pd  Pd157  1  -0.00230272  0.20666247  0.60540453  1
  Pd  Pd158  1  0.80125399  0.19327095  0.40075086  1
  Pd  Pd159  1  0.60677319  0.19662679  0.00444633  1
  Pd  Pd160  1  0.00117833  0.79970457  0.80449349  1
  Pd  Pd161  1  0.19175515  0.00767675  -0.00011986  1
  Pd  Pd162  1  0.39401885  -0.00610393  0.79771751  1
  Pd  Pd163  1  0.80407812  0.41120931  0.80053486  1
  Pd  Pd164  1  0.59295382  0.41115917  0.80272808  1
  Pd  Pd165  1  0.60320206  -0.00580314  -0.00820902  1
  Pd  Pd166  1  0.41353125  0.80247849  0.39951504  1
  Pd  Pd167  1  0.58725332  0.59841091  0.79571994  1
  Pd  Pd168  1  0.80141241  0.59977934  0.58980850  1
  Pd  Pd169  1  0.39205883  0.40050016  -0.01063782  1
  Pd  Pd170  1  0.00579008  0.59274164  0.80499839  1
  Pd  Pd171  1  0.00479753  -0.00252261  0.60571816  1
  Pd  Pd172  1  0.20261005  0.00192782  0.40275417  1
  Pd  Pd173  1  0.39152449  0.59940134  0.39898574  1
  Pd  Pd174  1  0.39160976  0.19716396  0.00338128  1
  Pd  Pd175  1  0.79185449  0.20038619  -0.00449587  1
  Pd  Pd176  1  0.00737945  0.18841790  0.00674323  1
  Pd  Pd177  1  0.00561248  0.38794842  0.39441543  1
  Pd  Pd178  1  0.81086522  0.39333373  0.19175663  1
  Pd  Pd179  1  0.80919959  0.58971174  0.80730126  1
  Pd  Pd180  1  -0.00858205  0.00334759  0.19808002  1
  Pd  Pd181  1  0.18948646  0.39941151  0.80570000  1
  Pd  Pd182  1  0.60871200  0.40942736  0.39925948  1
  Pd  Pd183  1  0.59923854  -0.00580452  0.80814764  1
  Pd  Pd184  1  0.59409464  0.80355088  0.39976212  1
  Pd  Pd185  1  0.79656960  0.20135759  0.79141142  1
  Pd  Pd186  1  0.00666002  0.40580264  0.79569153  1
  Pd  Pd187  1  0.40390968  0.20582586  0.39405355  1
  Pd  Pd188  1  0.80943592  0.00346362  0.80307369  1
  Pd  Pd189  1  0.00982392  0.39855031  0.60438139  1
  Pd  Pd190  1  0.60980555  0.78760155  0.60731389  1
  Pd  Pd191  1  0.00093556  0.60832995  0.40904962  1
  Pd  Pd192  1  0.80850556  0.00587576  -0.00624725  1
  Pd  Pd193  1  0.40357924  0.59818899  0.79263518  1
  Pd  Pd194  1  0.40408979  0.39552882  0.59956298  1
  Pd  Pd195  1  0.19373343  0.40407291  0.60152332  1
  Pd  Pd196  1  -0.00263410  0.20961230  0.39415225  1
  Pd  Pd197  1  0.80641355  0.00396655  0.20546441  1
  Pd  Pd198  1  0.19308045  0.79833402  0.00814470  1
  Pd  Pd199  1  0.79342810  0.19973938  0.60834949  1
  Rh  Rh200  1  0.79824502  0.79487066  0.79266770  1
  Rh  Rh201  1  0.39983783  0.40076053  0.41058417  1
  Rh  Rh202  1  0.39660944  0.79998889  0.60755413  1
  Rh  Rh203  1  0.40136140  0.80448239  -0.00493239  1
  Rh  Rh204  1  0.19029828  0.79040085  0.39600691  1
  Rh  Rh205  1  -0.01295495  0.59865906  0.00130623  1
  Rh  Rh206  1  0.79892667  0.20741424  0.19733442  1
  Rh  Rh207  1  0.60026168  0.60160968  0.60686809  1
  Rh  Rh208  1  0.59578447  0.19343206  0.39592857  1
  Rh  Rh209  1  0.60126497  0.40867747  -0.00924605  1
  Rh  Rh210  1  0.20542057  0.60685852  0.00546310  1
  Rh  Rh211  1  0.79383189  0.79838825  0.18943647  1
  Rh  Rh212  1  0.80888854  -0.00732307  0.59516914  1
  Rh  Rh213  1  0.39413288  0.59873217  0.00764020  1
  Rh  Rh214  1  0.79884913  0.40686830  0.60090094  1
  Rh  Rh215  1  0.81165979  0.79771694  0.40924343  1
  Rh  Rh216  1  0.19946073  0.19290292  0.40723925  1
  Rh  Rh217  1  0.00612914  0.80673912  0.19914349  1
  Rh  Rh218  1  0.59880926  0.39661290  0.59974124  1
  Rh  Rh219  1  0.19614924  0.21230326  0.81187575  1
  Rh  Rh220  1  0.20239360  0.59063496  0.59662637  1
  Rh  Rh221  1  0.20080342  0.79597105  0.80237133  1
  Rh  Rh222  1  -0.00861064  0.40385989  0.00720390  1
  Rh  Rh223  1  -0.01370779  -0.01163069  0.39010744  1
  Rh  Rh224  1  0.59637361  0.00671271  0.20624078  1
  Rh  Rh225  1  0.40280018  0.40441128  0.80244170  1
  Rh  Rh226  1  0.20932327  0.39269892  -0.00550386  1
  Rh  Rh227  1  0.38948975  0.79646445  0.20354401  1
  Rh  Rh228  1  -0.00210509  -0.00082332  0.80931969  1
  Rh  Rh229  1  0.20786490  -0.01442346  0.20646863  1
  Rh  Rh230  1  0.20118703  -0.00190692  0.79464091  1
  Rh  Rh231  1  0.39852969  -0.00170150  -0.00221261  1
  Rh  Rh232  1  0.79627900  0.41130964  0.40913517  1
  Rh  Rh233  1  0.61409982  0.59925976  0.38715308  1
  Rh  Rh234  1  0.19606646  0.80596482  0.60207300  1
  Rh  Rh235  1  0.00474041  0.59648644  0.59673243  1
  Rh  Rh236  1  0.40257299  0.20659682  0.79905165  1
  Rh  Rh237  1  0.20677778  0.21155435  0.19108373  1
  Rh  Rh238  1  0.00390383  0.58796662  0.18859795  1
  Rh  Rh239  1  0.79806758  0.41168213  -0.00732722  1
  Rh  Rh240  1  0.60840823  0.79614903  0.19512049  1
  Rh  Rh241  1  -0.00401730  0.79927869  0.59630615  1
  Rh  Rh242  1  0.39283282  0.40216954  0.19852116  1
  Rh  Rh243  1  0.19699731  0.40594464  0.39854734  1
  Rh  Rh244  1  0.59856126  0.40355579  0.20288593  1
  Rh  Rh245  1  0.41511784  -0.01440146  0.40875575  1
  Rh  Rh246  1  -0.00082164  0.20710498  0.79479540  1
  Rh  Rh247  1  0.59063757  0.00327874  0.59235087  1
  Rh  Rh248  1  0.79051861  0.60778085  0.19690817  1
  Rh  Rh249  1  0.18993166  0.59427463  0.80125368  1
