# generated using pymatgen
data_ZrScNbPdRh
_symmetry_space_group_name_H-M   'P 1'
_cell_length_a   16.55152584
_cell_length_b   16.55691508
_cell_length_c   16.55227419
_cell_angle_alpha   89.98175244
_cell_angle_beta   90.02434401
_cell_angle_gamma   89.97329714
_symmetry_Int_Tables_number   1
_chemical_formula_structural   ZrScNbPdRh
_chemical_formula_sum   'Zr50 Sc50 Nb50 Pd50 Rh50'
_cell_volume   4536.02063241
_cell_formula_units_Z   50
loop_
 _symmetry_equiv_pos_site_id
 _symmetry_equiv_pos_as_xyz
  1  'x, y, z'
loop_
 _atom_site_type_symbol
 _atom_site_label
 _atom_site_symmetry_multiplicity
 _atom_site_fract_x
 _atom_site_fract_y
 _atom_site_fract_z
 _atom_site_occupancy
  Zr  Zr0  1  0.90197099  0.09986337  0.09594402  1
  Zr  Zr1  1  0.30134200  0.90105142  0.10034301  1
  Zr  Zr2  1  0.09496143  0.10925859  0.30205061  1
  Zr  Zr3  1  0.10912594  0.69577691  0.49808600  1
  Zr  Zr4  1  0.10082704  0.49980585  0.69347116  1
  Zr  Zr5  1  0.10118280  0.29923326  0.70241356  1
  Zr  Zr6  1  0.69126635  0.29487562  0.49755018  1
  Zr  Zr7  1  0.09717474  0.29694097  0.90412564  1
  Zr  Zr8  1  0.69863892  0.50236912  0.70495987  1
  Zr  Zr9  1  0.70304598  0.90127559  0.49481639  1
  Zr  Zr10  1  0.69789436  0.30303029  0.30279487  1
  Zr  Zr11  1  0.30116484  0.70215575  0.30403800  1
  Zr  Zr12  1  0.09455623  0.50485776  0.90565651  1
  Zr  Zr13  1  0.10289835  0.08647918  0.49858707  1
  Zr  Zr14  1  0.10181328  0.09843164  0.70623849  1
  Zr  Zr15  1  0.70245620  0.08949609  0.89614597  1
  Zr  Zr16  1  0.89814324  0.69750730  0.89686205  1
  Zr  Zr17  1  0.89638682  0.08998955  0.70141693  1
  Zr  Zr18  1  0.50338961  0.29374569  0.49909549  1
  Zr  Zr19  1  0.49930386  0.51596512  0.70598266  1
  Zr  Zr20  1  0.49323365  0.50192029  0.90313530  1
  Zr  Zr21  1  0.49511582  0.69929432  0.10615544  1
  Zr  Zr22  1  0.50127874  0.30450454  0.29649911  1
  Zr  Zr23  1  0.70158298  0.50053058  0.09795816  1
  Zr  Zr24  1  0.50782923  0.89662572  0.10230504  1
  Zr  Zr25  1  0.69523983  0.49564404  0.29158292  1
  Zr  Zr26  1  0.90439860  0.50414098  0.70289199  1
  Zr  Zr27  1  0.09969540  0.89376136  0.50617753  1
  Zr  Zr28  1  0.70136857  0.90129931  0.29755796  1
  Zr  Zr29  1  0.89404078  0.89071904  0.29391824  1
  Zr  Zr30  1  0.90387143  0.89898913  0.50131030  1
  Zr  Zr31  1  0.70405664  0.90495765  0.69719939  1
  Zr  Zr32  1  0.89615090  0.89364375  0.90525157  1
  Zr  Zr33  1  0.69825231  0.29530115  0.69566352  1
  Zr  Zr34  1  0.30206077  0.10422818  0.09445490  1
  Zr  Zr35  1  0.50033495  0.29963088  0.70204513  1
  Zr  Zr36  1  0.29351795  0.50762573  0.50068850  1
  Zr  Zr37  1  0.69950565  0.09951935  0.30128062  1
  Zr  Zr38  1  0.48810580  0.29702026  0.09754233  1
  Zr  Zr39  1  0.90661306  0.10552154  0.89881725  1
  Zr  Zr40  1  0.49231203  0.09281462  0.09439047  1
  Zr  Zr41  1  0.69779953  0.30387341  0.89951192  1
  Zr  Zr42  1  0.49427356  0.29953931  0.89903550  1
  Zr  Zr43  1  0.10313670  0.89260568  0.08586854  1
  Zr  Zr44  1  0.49405929  0.89815660  0.69830484  1
  Zr  Zr45  1  0.48950744  0.50094448  0.50679513  1
  Zr  Zr46  1  0.90376264  0.69809461  0.29446732  1
  Zr  Zr47  1  0.69548343  0.49376544  0.49486270  1
  Zr  Zr48  1  0.31363923  0.30630290  0.50251991  1
  Zr  Zr49  1  0.70532694  0.90082157  0.09448035  1
  Sc  Sc50  1  0.30754603  0.09638365  0.29768692  1
  Sc  Sc51  1  0.50948467  0.91118599  0.90502249  1
  Sc  Sc52  1  0.90351306  0.89532223  0.69755684  1
  Sc  Sc53  1  0.49692967  0.09406731  0.30346488  1
  Sc  Sc54  1  0.29823443  0.89605328  0.70515691  1
  Sc  Sc55  1  0.29430797  0.89967980  0.50057048  1
  Sc  Sc56  1  0.49497988  0.69114988  0.89837152  1
  Sc  Sc57  1  0.29882551  0.30564122  0.70574016  1
  Sc  Sc58  1  0.30721614  0.70727155  0.70133233  1
  Sc  Sc59  1  0.69423340  0.70883558  0.09553631  1
  Sc  Sc60  1  0.69942296  0.31263462  0.10177358  1
  Sc  Sc61  1  0.09411955  0.70592310  0.90766588  1
  Sc  Sc62  1  0.30233359  0.50068597  0.69277572  1
  Sc  Sc63  1  0.10900910  0.89703686  0.30433452  1
  Sc  Sc64  1  0.90726619  0.30733992  0.09853655  1
  Sc  Sc65  1  0.90623761  0.70962476  0.10482570  1
  Sc  Sc66  1  0.09298067  0.29480163  0.50817399  1
  Sc  Sc67  1  0.90167847  0.29552631  0.50471246  1
  Sc  Sc68  1  0.30365086  0.50179618  0.29943453  1
  Sc  Sc69  1  0.90737134  0.09460705  0.50024987  1
  Sc  Sc70  1  0.68823305  0.09554762  0.49896778  1
  Sc  Sc71  1  0.09650888  0.49340323  0.09575804  1
  Sc  Sc72  1  0.90895512  0.69750525  0.49357272  1
  Sc  Sc73  1  0.30052650  0.30657592  0.90503250  1
  Sc  Sc74  1  0.90558957  0.28418421  0.69754858  1
  Sc  Sc75  1  0.70216203  0.09661312  0.69871001  1
  Sc  Sc76  1  0.28831289  0.89694497  0.89925812  1
  Sc  Sc77  1  0.30087509  0.70269344  0.50205451  1
  Sc  Sc78  1  0.09783350  0.50262964  0.29739423  1
  Sc  Sc79  1  0.10888335  0.10223801  0.90952217  1
  Sc  Sc80  1  0.69859541  0.69325414  0.70522061  1
  Sc  Sc81  1  0.10461687  0.89127325  0.69739707  1
  Sc  Sc82  1  0.70669969  0.09149065  0.10427917  1
  Sc  Sc83  1  0.09666311  0.50824744  0.50352401  1
  Sc  Sc84  1  0.70366099  0.89605952  0.90507876  1
  Sc  Sc85  1  0.90258491  0.70081643  0.70956507  1
  Sc  Sc86  1  0.50025152  0.90273556  0.50650643  1
  Sc  Sc87  1  0.29789947  0.30649484  0.09997474  1
  Sc  Sc88  1  0.89945814  0.49820947  0.29284769  1
  Sc  Sc89  1  0.69345726  0.50317404  0.90061211  1
  Sc  Sc90  1  0.49946305  0.50735185  0.10165403  1
  Sc  Sc91  1  0.90283724  0.49857023  0.09708697  1
  Sc  Sc92  1  0.30627459  0.89717836  0.30176016  1
  Sc  Sc93  1  0.90190823  0.50253346  0.90626179  1
  Sc  Sc94  1  0.10563327  0.30149395  0.10504054  1
  Sc  Sc95  1  0.30259267  0.30336949  0.28718596  1
  Sc  Sc96  1  0.90090633  0.10248206  0.29341964  1
  Sc  Sc97  1  0.29756923  0.70251566  0.09724221  1
  Sc  Sc98  1  0.30062542  0.50260705  0.90757714  1
  Sc  Sc99  1  0.29981086  0.69935937  0.89886450  1
  Nb  Nb100  1  0.10180649  0.89896452  0.90196018  1
  Nb  Nb101  1  0.09920539  0.30168559  0.30243276  1
  Nb  Nb102  1  0.09953722  0.69715269  0.30072782  1
  Nb  Nb103  1  0.48119237  0.09580459  0.71446564  1
  Nb  Nb104  1  0.29341939  0.50175472  0.10061234  1
  Nb  Nb105  1  0.49782689  0.70348249  0.69848019  1
  Nb  Nb106  1  0.10298894  0.69946701  0.69814686  1
  Nb  Nb107  1  0.70362114  0.70735258  0.89726692  1
  Nb  Nb108  1  0.90137402  0.49865717  0.49944494  1
  Nb  Nb109  1  0.50143612  0.70223386  0.50838781  1
  Nb  Nb110  1  0.90049745  0.30051704  0.90214345  1
  Nb  Nb111  1  0.09855101  0.70307884  0.10500997  1
  Nb  Nb112  1  0.48672317  0.10560072  0.50428316  1
  Nb  Nb113  1  0.49792524  0.89002404  0.29337164  1
  Nb  Nb114  1  0.49970085  0.51502429  0.29397961  1
  Nb  Nb115  1  0.49654437  0.10283994  0.89676275  1
  Nb  Nb116  1  0.70717734  0.70319311  0.30726908  1
  Nb  Nb117  1  0.10249108  0.09836267  0.09825366  1
  Nb  Nb118  1  0.31199378  0.09933792  0.89151963  1
  Nb  Nb119  1  0.69925947  0.70143006  0.49473142  1
  Nb  Nb120  1  0.90887188  0.29454408  0.30301119  1
  Nb  Nb121  1  0.30573253  0.10330435  0.49993827  1
  Nb  Nb122  1  0.30606414  0.09580537  0.70518027  1
  Nb  Nb123  1  0.49581989  0.70143948  0.30005845  1
  Nb  Nb124  1  0.90041280  0.90023717  0.10201820  1
  Nb  Nb125  1  0.80151482  0.40295786  0.60189790  1
  Nb  Nb126  1  0.79716076  0.79156108  0.59415462  1
  Nb  Nb127  1  0.79547246  0.59788411  0.39988760  1
  Nb  Nb128  1  0.20412071  0.20332316  0.40556322  1
  Nb  Nb129  1  0.60074272  0.19550111  -0.00022863  1
  Nb  Nb130  1  0.79992284  0.20379353  0.39679460  1
  Nb  Nb131  1  0.19429551  0.60282110  0.79620041  1
  Nb  Nb132  1  0.79776005  0.60662225  -0.00125709  1
  Nb  Nb133  1  0.19470350  0.00430292  0.19280199  1
  Nb  Nb134  1  0.00519657  0.79538642  0.39511679  1
  Nb  Nb135  1  0.00055731  0.39724229  0.39975501  1
  Nb  Nb136  1  0.59565664  0.60724556  0.39706341  1
  Nb  Nb137  1  0.59740880  0.20009039  0.19466416  1
  Nb  Nb138  1  0.59776945  0.79658640  0.79749932  1
  Nb  Nb139  1  0.00538160  -0.00541993  0.80781401  1
  Nb  Nb140  1  0.59510331  0.79528336  0.39663898  1
  Nb  Nb141  1  0.20974214  0.19088426  0.59788699  1
  Nb  Nb142  1  0.79864075  0.59851598  0.59102333  1
  Nb  Nb143  1  -0.00219567  0.39588443  0.80114057  1
  Nb  Nb144  1  0.00712395  -0.00430565  0.19198184  1
  Nb  Nb145  1  0.79710851  0.20494453  -0.00294289  1
  Nb  Nb146  1  0.19449035  0.39363475  0.39924990  1
  Nb  Nb147  1  0.80572756  0.39644621  0.79809484  1
  Nb  Nb148  1  0.40422206  0.80258888  0.00253944  1
  Nb  Nb149  1  0.19589171  0.60446845  0.19684617  1
  Pd  Pd150  1  0.60427967  0.60246208  0.59553642  1
  Pd  Pd151  1  0.60716253  0.79425671  0.20621999  1
  Pd  Pd152  1  0.40527401  0.80477474  0.40945864  1
  Pd  Pd153  1  0.40230491  0.41155552  0.19597367  1
  Pd  Pd154  1  0.58679186  -0.00512864  0.40023628  1
  Pd  Pd155  1  0.59141322  0.39787866  0.00507646  1
  Pd  Pd156  1  0.58424606  0.41109245  0.39634792  1
  Pd  Pd157  1  0.19656457  0.41140566  0.80736044  1
  Pd  Pd158  1  0.40805138  0.80601817  0.81322416  1
  Pd  Pd159  1  0.00012120  -0.00273109  -0.00228544  1
  Pd  Pd160  1  -0.00556882  0.60907650  0.60178005  1
  Pd  Pd161  1  0.59927413  0.19206572  0.80081042  1
  Pd  Pd162  1  0.20768635  0.20313627  -0.00226931  1
  Pd  Pd163  1  0.20456538  0.19559218  0.20564223  1
  Pd  Pd164  1  0.39971795  0.40442895  0.39296019  1
  Pd  Pd165  1  0.79985377  0.20371504  0.80330124  1
  Pd  Pd166  1  0.58979181  0.18456111  0.60920987  1
  Pd  Pd167  1  0.39551643  0.40742922  0.79743097  1
  Pd  Pd168  1  -0.00399097  -0.01038274  0.38646344  1
  Pd  Pd169  1  0.00581287  0.18790998  0.59895164  1
  Pd  Pd170  1  0.59955895  0.40271492  0.80002855  1
  Pd  Pd171  1  0.00241375  0.20078402  0.19047023  1
  Pd  Pd172  1  0.59867041  -0.00458208  0.79495414  1
  Pd  Pd173  1  0.60316051  0.60704041  -0.00362606  1
  Pd  Pd174  1  0.40364570  -0.00824497  0.40197657  1
  Pd  Pd175  1  0.59661263  0.00468196  0.20012087  1
  Pd  Pd176  1  0.00569968  0.59413966  0.19194437  1
  Pd  Pd177  1  0.80881561  0.39461575  0.19918896  1
  Pd  Pd178  1  0.81089570  0.39599202  0.40241960  1
  Pd  Pd179  1  0.19860986  0.39319256  0.59065868  1
  Pd  Pd180  1  0.60818661  0.61058062  0.20210098  1
  Pd  Pd181  1  0.20888028  0.19981026  0.80013797  1
  Pd  Pd182  1  0.40226260  0.60418638  0.40412472  1
  Pd  Pd183  1  0.39613786  0.20213364  0.61225022  1
  Pd  Pd184  1  0.39368630  -0.00885042  -0.00898407  1
  Pd  Pd185  1  0.19863303  0.60503680  0.00091136  1
  Pd  Pd186  1  0.19990193  0.80079817  0.20234592  1
  Pd  Pd187  1  0.19631915  -0.00248571  0.80374224  1
  Pd  Pd188  1  0.80818922  0.01029235  0.39898785  1
  Pd  Pd189  1  0.20841969  0.00036198  0.60620460  1
  Pd  Pd190  1  0.59695121  0.40314662  0.60456373  1
  Pd  Pd191  1  0.59006742  0.01003707  0.60450370  1
  Pd  Pd192  1  0.00644840  0.80464232  0.80152704  1
  Pd  Pd193  1  0.79605967  0.60649990  0.19490353  1
  Pd  Pd194  1  0.39640804  0.20328088  0.39001274  1
  Pd  Pd195  1  0.79855999  0.19442832  0.58789930  1
  Pd  Pd196  1  0.20671827  0.00491686  0.39055772  1
  Pd  Pd197  1  0.79514342  0.20981643  0.19619260  1
  Pd  Pd198  1  0.60648120  0.79803257  0.60253294  1
  Pd  Pd199  1  0.39310931  -0.00541861  0.59838757  1
  Rh  Rh200  1  0.39749641  0.80218308  0.59686167  1
  Rh  Rh201  1  0.80195581  -0.00434321  0.59290451  1
  Rh  Rh202  1  0.39561732  0.60836372  0.60138700  1
  Rh  Rh203  1  0.39792390  0.20030626  -0.00756267  1
  Rh  Rh204  1  -0.00423733  0.79764085  -0.00033891  1
  Rh  Rh205  1  0.59781714  0.19179885  0.39325494  1
  Rh  Rh206  1  0.19338088  0.79028374  0.80151252  1
  Rh  Rh207  1  0.39627866  0.79993086  0.19451255  1
  Rh  Rh208  1  0.80166686  0.40516957  -0.00637995  1
  Rh  Rh209  1  0.00358726  -0.00263417  0.61349397  1
  Rh  Rh210  1  -0.00541202  0.59622408  0.39509388  1
  Rh  Rh211  1  0.39726199  -0.00533589  0.20212705  1
  Rh  Rh212  1  -0.00294291  0.79259385  0.59421222  1
  Rh  Rh213  1  0.38810800  0.59843916  0.79636519  1
  Rh  Rh214  1  -0.00047351  0.20414601  0.40715150  1
  Rh  Rh215  1  0.58900746  0.79390655  -0.01317647  1
  Rh  Rh216  1  0.19733305  0.41092410  0.20357587  1
  Rh  Rh217  1  0.39705494  -0.01056021  0.80693662  1
  Rh  Rh218  1  -0.00882733  0.60885703  0.00848001  1
  Rh  Rh219  1  -0.00211113  0.20518266  0.00642635  1
  Rh  Rh220  1  0.79075296  0.80175406  0.78880797  1
  Rh  Rh221  1  0.59898777  0.60902831  0.80645487  1
  Rh  Rh222  1  0.01120966  0.81104379  0.20486812  1
  Rh  Rh223  1  0.80914349  -0.00799693  0.80308180  1
  Rh  Rh224  1  0.80837285  -0.00347545  0.19979396  1
  Rh  Rh225  1  0.60477007  0.00897026  0.00170140  1
  Rh  Rh226  1  0.80616244  0.79352125  0.00634826  1
  Rh  Rh227  1  0.01112831  0.59635081  0.79936774  1
  Rh  Rh228  1  0.00407564  0.19712191  0.80265068  1
  Rh  Rh229  1  0.80697155  0.79324280  0.40593551  1
  Rh  Rh230  1  -0.00665255  0.39983589  0.60050522  1
  Rh  Rh231  1  0.39613615  0.60379889  0.00623709  1
  Rh  Rh232  1  0.19683119  0.79802501  0.40122549  1
  Rh  Rh233  1  0.79302172  0.79779635  0.19232317  1
  Rh  Rh234  1  0.80352914  0.00377486  -0.00157286  1
  Rh  Rh235  1  0.00111853  0.39831324  0.20693017  1
  Rh  Rh236  1  0.20747404  0.00612108  -0.00183669  1
  Rh  Rh237  1  0.59064997  0.39965325  0.19517089  1
  Rh  Rh238  1  0.19891553  0.39903701  0.00185826  1
  Rh  Rh239  1  0.40515383  0.19619962  0.20206801  1
  Rh  Rh240  1  0.20506024  0.79668115  0.60229565  1
  Rh  Rh241  1  0.38622321  0.60067872  0.19613757  1
  Rh  Rh242  1  0.79701184  0.59361496  0.80756820  1
  Rh  Rh243  1  0.39685586  0.40876647  0.00685100  1
  Rh  Rh244  1  0.39361261  0.20819629  0.80174116  1
  Rh  Rh245  1  0.00338294  0.39585146  -0.00395280  1
  Rh  Rh246  1  0.20072941  0.59174921  0.39012117  1
  Rh  Rh247  1  0.40707731  0.40074040  0.60849548  1
  Rh  Rh248  1  0.20502862  0.79272076  -0.00434373  1
  Rh  Rh249  1  0.20774806  0.60854814  0.60912948  1
