# generated using pymatgen
data_ZrScNbPdRh
_symmetry_space_group_name_H-M   'P 1'
_cell_length_a   16.56836344
_cell_length_b   16.56750858
_cell_length_c   16.55847587
_cell_angle_alpha   90.00026382
_cell_angle_beta   89.99643889
_cell_angle_gamma   90.03383705
_symmetry_Int_Tables_number   1
_chemical_formula_structural   ZrScNbPdRh
_chemical_formula_sum   'Zr50 Sc50 Nb50 Pd50 Rh50'
_cell_volume   4545.24292863
_cell_formula_units_Z   50
loop_
 _symmetry_equiv_pos_site_id
 _symmetry_equiv_pos_as_xyz
  1  'x, y, z'
loop_
 _atom_site_type_symbol
 _atom_site_label
 _atom_site_symmetry_multiplicity
 _atom_site_fract_x
 _atom_site_fract_y
 _atom_site_fract_z
 _atom_site_occupancy
  Zr  Zr0  1  0.90111019  0.90066398  0.30181452  1
  Zr  Zr1  1  0.30374387  0.10151047  0.30055706  1
  Zr  Zr2  1  0.30298749  0.90724619  0.50486347  1
  Zr  Zr3  1  0.29480921  0.29997048  0.49308869  1
  Zr  Zr4  1  0.10223697  0.49896363  0.90528485  1
  Zr  Zr5  1  0.89338026  0.50251007  0.49998424  1
  Zr  Zr6  1  0.09823530  0.89530529  0.70675204  1
  Zr  Zr7  1  0.30237814  0.30258524  0.09840166  1
  Zr  Zr8  1  0.90487418  0.69432925  0.90590688  1
  Zr  Zr9  1  0.70260963  0.30540403  0.30176516  1
  Zr  Zr10  1  0.30802720  0.49799397  0.09756687  1
  Zr  Zr11  1  0.29510705  0.09422608  0.90255741  1
  Zr  Zr12  1  0.29682149  0.90747824  0.08634449  1
  Zr  Zr13  1  0.70052022  0.69745517  0.89968281  1
  Zr  Zr14  1  0.90185385  0.49723216  0.30002905  1
  Zr  Zr15  1  0.50197735  0.89473564  0.70400322  1
  Zr  Zr16  1  0.10052492  0.49791806  0.29917925  1
  Zr  Zr17  1  0.09200219  0.89321593  0.30057326  1
  Zr  Zr18  1  0.29861702  0.69016975  0.50900245  1
  Zr  Zr19  1  0.89990337  0.29490805  0.49476467  1
  Zr  Zr20  1  0.50285038  0.10805267  0.11442292  1
  Zr  Zr21  1  0.09453509  0.69551380  0.30291782  1
  Zr  Zr22  1  0.10347786  0.70129294  0.69466348  1
  Zr  Zr23  1  0.89761110  0.29865403  0.89861793  1
  Zr  Zr24  1  0.29047559  0.30750556  0.29767143  1
  Zr  Zr25  1  0.29921654  0.49476181  0.49488568  1
  Zr  Zr26  1  0.70271482  0.89688018  0.50736044  1
  Zr  Zr27  1  0.50101025  0.69533552  0.70317253  1
  Zr  Zr28  1  0.90001531  0.10377770  0.49162326  1
  Zr  Zr29  1  0.30374379  0.49769879  0.91007099  1
  Zr  Zr30  1  0.69970880  0.30269922  0.89691861  1
  Zr  Zr31  1  0.49450737  0.10492700  0.70232140  1
  Zr  Zr32  1  0.70039175  0.70852791  0.69666026  1
  Zr  Zr33  1  0.90578598  0.70032924  0.30086812  1
  Zr  Zr34  1  0.50625187  0.29602022  0.70330282  1
  Zr  Zr35  1  0.29413397  0.89665975  0.89711633  1
  Zr  Zr36  1  0.29786936  0.90081150  0.70188623  1
  Zr  Zr37  1  0.90417308  0.50264963  0.69513976  1
  Zr  Zr38  1  0.30872753  0.50687224  0.69308853  1
  Zr  Zr39  1  0.49513768  0.29944984  0.28893801  1
  Zr  Zr40  1  0.70471997  0.10650697  0.90506663  1
  Zr  Zr41  1  0.09921251  0.90358842  0.49601695  1
  Zr  Zr42  1  0.49259481  0.90014453  0.90501628  1
  Zr  Zr43  1  0.70258986  0.50072656  0.09830674  1
  Zr  Zr44  1  0.29379941  0.09439928  0.69932630  1
  Zr  Zr45  1  0.28877967  0.09213808  0.49986173  1
  Zr  Zr46  1  0.49789651  0.69614252  0.29933358  1
  Zr  Zr47  1  0.49825477  0.30222813  0.49743590  1
  Zr  Zr48  1  0.70176393  0.90328604  0.11097064  1
  Zr  Zr49  1  0.70672996  0.30192443  0.49673614  1
  Sc  Sc50  1  0.69631841  0.69785196  0.30366278  1
  Sc  Sc51  1  0.49201414  0.50236280  0.29872264  1
  Sc  Sc52  1  0.90672935  0.70082017  0.69695996  1
  Sc  Sc53  1  0.31062082  0.29131880  0.70205013  1
  Sc  Sc54  1  0.49734271  0.89834995  0.10113120  1
  Sc  Sc55  1  0.90053559  0.50556199  0.09904795  1
  Sc  Sc56  1  0.10187185  0.49864752  0.10031139  1
  Sc  Sc57  1  0.90049637  0.69517095  0.50527790  1
  Sc  Sc58  1  0.91181403  0.10021697  0.90107310  1
  Sc  Sc59  1  0.50495363  0.90225978  0.49926536  1
  Sc  Sc60  1  0.09586545  0.89644359  0.09227853  1
  Sc  Sc61  1  0.49939540  0.09379803  0.50383461  1
  Sc  Sc62  1  0.70168593  0.28964035  0.09143377  1
  Sc  Sc63  1  0.09777417  0.50496044  0.69323843  1
  Sc  Sc64  1  0.90344215  0.29387222  0.10784399  1
  Sc  Sc65  1  0.49997327  0.91464249  0.30483036  1
  Sc  Sc66  1  0.29870831  0.29187500  0.90488220  1
  Sc  Sc67  1  0.10495690  0.30081256  0.10672471  1
  Sc  Sc68  1  0.89571934  0.09493437  0.69962500  1
  Sc  Sc69  1  0.71023976  0.49330334  0.90144873  1
  Sc  Sc70  1  0.49226363  0.49633316  0.49664588  1
  Sc  Sc71  1  0.69473765  0.90408336  0.30220749  1
  Sc  Sc72  1  0.30203357  0.68944156  0.09420457  1
  Sc  Sc73  1  0.89519842  0.50331741  0.89910579  1
  Sc  Sc74  1  0.69575688  0.09503805  0.28779835  1
  Sc  Sc75  1  0.09679825  0.70735320  0.89796314  1
  Sc  Sc76  1  0.90134163  0.29346444  0.29797153  1
  Sc  Sc77  1  0.29816247  0.91464778  0.31034933  1
  Sc  Sc78  1  0.30537830  0.70593478  0.69898334  1
  Sc  Sc79  1  0.09843780  0.50730269  0.50190577  1
  Sc  Sc80  1  0.50868061  0.70241440  0.50292700  1
  Sc  Sc81  1  0.49904745  0.30018485  0.89506827  1
  Sc  Sc82  1  0.70624019  0.50336742  0.30710248  1
  Sc  Sc83  1  0.09990885  0.90517603  0.89828691  1
  Sc  Sc84  1  0.08954741  0.69764245  0.09871976  1
  Sc  Sc85  1  0.49425705  0.10286650  0.90092255  1
  Sc  Sc86  1  0.70481216  0.69686761  0.50238009  1
  Sc  Sc87  1  0.49342244  0.29973292  0.09578269  1
  Sc  Sc88  1  0.70309344  0.90573623  0.69566796  1
  Sc  Sc89  1  0.10096820  0.10799479  0.31124366  1
  Sc  Sc90  1  0.69677623  0.70249669  0.10668384  1
  Sc  Sc91  1  0.09903691  0.10411391  0.08642011  1
  Sc  Sc92  1  0.50029932  0.70678512  0.89421569  1
  Sc  Sc93  1  0.90042220  0.30057798  0.68707623  1
  Sc  Sc94  1  0.69114660  0.89982749  0.89471802  1
  Sc  Sc95  1  0.30102779  0.10437532  0.09252744  1
  Sc  Sc96  1  0.69256454  0.09829319  0.69871201  1
  Sc  Sc97  1  0.49763311  0.69661745  0.10266850  1
  Sc  Sc98  1  0.70314442  0.09547592  0.49830239  1
  Sc  Sc99  1  0.71277625  0.49787202  0.71087583  1
  Nb  Nb100  1  0.89671568  0.70643893  0.09811898  1
  Nb  Nb101  1  0.49876074  0.50057697  0.90056354  1
  Nb  Nb102  1  0.49447321  0.49893560  0.09285664  1
  Nb  Nb103  1  0.10676109  0.11282126  0.88945982  1
  Nb  Nb104  1  0.10083607  0.29348990  0.89451249  1
  Nb  Nb105  1  0.10389734  0.29115233  0.69658180  1
  Nb  Nb106  1  0.30000140  0.50364426  0.30098166  1
  Nb  Nb107  1  0.29948352  0.70001153  0.89776095  1
  Nb  Nb108  1  0.10049995  0.10783341  0.50929347  1
  Nb  Nb109  1  0.89349736  0.09800982  0.10441342  1
  Nb  Nb110  1  0.49963685  0.49758421  0.70287297  1
  Nb  Nb111  1  0.70264819  0.09699594  0.09843720  1
  Nb  Nb112  1  0.10117974  0.30482939  0.30683466  1
  Nb  Nb113  1  0.70290604  0.49957486  0.50107977  1
  Nb  Nb114  1  0.89811111  0.10092835  0.29591947  1
  Nb  Nb115  1  0.89809905  0.90512155  0.50294495  1
  Nb  Nb116  1  0.50031547  0.10446137  0.30106012  1
  Nb  Nb117  1  0.29899785  0.69214271  0.29969297  1
  Nb  Nb118  1  0.89972622  0.90107720  0.69923250  1
  Nb  Nb119  1  0.90283855  0.90218153  0.89590739  1
  Nb  Nb120  1  0.09928375  0.70088833  0.49924230  1
  Nb  Nb121  1  0.69792782  0.29857415  0.70448921  1
  Nb  Nb122  1  0.09900446  0.28737972  0.50032127  1
  Nb  Nb123  1  0.10268221  0.10607596  0.69505372  1
  Nb  Nb124  1  0.89996434  0.90044231  0.10306191  1
  Nb  Nb125  1  0.59524846  0.19984653  0.39479235  1
  Nb  Nb126  1  0.79557704  0.20413754  0.79873223  1
  Nb  Nb127  1  0.20621361  0.80104372  0.20488953  1
  Nb  Nb128  1  0.19725874  0.39856575  0.79558722  1
  Nb  Nb129  1  -0.00470293  0.00480969  0.19781814  1
  Nb  Nb130  1  0.60403032  0.40275088  0.60452482  1
  Nb  Nb131  1  0.00063829  0.00110899  0.59888452  1
  Nb  Nb132  1  0.40162686  0.19882985  0.39669604  1
  Nb  Nb133  1  0.60523497  0.00489797  0.00735896  1
  Nb  Nb134  1  0.80639268  0.80502077  0.40438762  1
  Nb  Nb135  1  0.00532226  0.39327678  0.40237565  1
  Nb  Nb136  1  0.59584193  0.59225276  -0.00322983  1
  Nb  Nb137  1  0.60243017  0.58533363  0.60530770  1
  Nb  Nb138  1  0.80351967  -0.00312174  0.00415689  1
  Nb  Nb139  1  0.38717938  0.80019447  0.20933994  1
  Nb  Nb140  1  0.39256196  0.79618165  0.39622097  1
  Nb  Nb141  1  0.20498801  0.59758322  0.80261110  1
  Nb  Nb142  1  0.59938810  0.40396351  0.19396205  1
  Nb  Nb143  1  0.19684566  0.39243746  0.60322610  1
  Nb  Nb144  1  0.20473633  0.79299321  0.39871574  1
  Nb  Nb145  1  0.80949777  0.80697291  0.80351455  1
  Nb  Nb146  1  0.19201799  -0.00250461  0.19859474  1
  Nb  Nb147  1  0.80566422  0.80708861  0.00038213  1
  Nb  Nb148  1  0.00851163  0.39381139  0.79895969  1
  Nb  Nb149  1  0.00375095  0.39417674  -0.00677716  1
  Pd  Pd150  1  0.79926167  0.79610652  0.20660919  1
  Pd  Pd151  1  -0.00264251  0.59806894  0.19382194  1
  Pd  Pd152  1  0.39753742  0.79195033  0.00601752  1
  Pd  Pd153  1  0.19423918  0.60829268  -0.00287916  1
  Pd  Pd154  1  0.59678169  0.00523946  0.80717327  1
  Pd  Pd155  1  0.79826309  0.00265354  0.80542902  1
  Pd  Pd156  1  0.58800916  0.80621059  0.20773548  1
  Pd  Pd157  1  0.40090116  0.39627798  0.60292793  1
  Pd  Pd158  1  0.39297914  0.39571510  0.80498955  1
  Pd  Pd159  1  0.81144047  0.39567340  0.00890947  1
  Pd  Pd160  1  0.40364111  0.60428678  0.40622097  1
  Pd  Pd161  1  0.80451561  0.61025095  0.79410024  1
  Pd  Pd162  1  0.39644858  0.60258117  0.80638017  1
  Pd  Pd163  1  0.40711170  0.80051379  0.59347097  1
  Pd  Pd164  1  0.39301360  -0.00406013  0.19433041  1
  Pd  Pd165  1  0.59154505  0.19747840  -0.00126942  1
  Pd  Pd166  1  0.19639071  0.19170850  0.19719882  1
  Pd  Pd167  1  0.79363653  0.20083538  0.20259745  1
  Pd  Pd168  1  0.59880597  0.59351203  0.40851619  1
  Pd  Pd169  1  0.60610570  0.79913243  0.00306007  1
  Pd  Pd170  1  0.79460538  0.40041583  0.60403141  1
  Pd  Pd171  1  -0.00080331  0.20523071  0.00420069  1
  Pd  Pd172  1  0.79348253  -0.00086885  0.39527393  1
  Pd  Pd173  1  0.20033872  0.40741024  0.19527453  1
  Pd  Pd174  1  0.60156453  0.40784627  0.79838846  1
  Pd  Pd175  1  0.39455331  0.19429237  0.59074008  1
  Pd  Pd176  1  0.00696254  0.00675100  0.79334114  1
  Pd  Pd177  1  0.60539446  0.20384581  0.59019741  1
  Pd  Pd178  1  0.19695626  0.59967140  0.40206492  1
  Pd  Pd179  1  0.80059228  0.60559622  0.20177437  1
  Pd  Pd180  1  0.00297166  0.00953796  0.39999381  1
  Pd  Pd181  1  0.60476992  0.59069707  0.80199988  1
  Pd  Pd182  1  0.00872806  0.19377500  0.20240906  1
  Pd  Pd183  1  0.39972428  -0.00047214  0.80042818  1
  Pd  Pd184  1  0.00011590  0.00241999  0.00213329  1
  Pd  Pd185  1  0.00770318  0.59603019  0.80055485  1
  Pd  Pd186  1  -0.00446793  0.80448305  0.59545413  1
  Pd  Pd187  1  0.59730027  -0.00067212  0.60124080  1
  Pd  Pd188  1  0.59632925  0.40164030  0.00313969  1
  Pd  Pd189  1  0.19743008  0.79168895  0.00538993  1
  Pd  Pd190  1  0.79711257  0.39670694  0.19392827  1
  Pd  Pd191  1  -0.00319797  0.80386276  -0.00235866  1
  Pd  Pd192  1  0.20023140  0.80327101  0.59394359  1
  Pd  Pd193  1  0.59662452  0.40195802  0.39686498  1
  Pd  Pd194  1  0.59643615  0.59045421  0.19503714  1
  Pd  Pd195  1  0.20077106  0.60264627  0.19315570  1
  Pd  Pd196  1  -0.01043516  0.20308004  0.78833538  1
  Pd  Pd197  1  0.00949832  0.39669914  0.59566972  1
  Pd  Pd198  1  0.79483573  0.19258537  0.60559450  1
  Pd  Pd199  1  0.60144535  0.80213596  0.39847842  1
  Rh  Rh200  1  0.60582323  0.80541697  0.79602795  1
  Rh  Rh201  1  0.78977835  0.19210667  0.38935959  1
  Rh  Rh202  1  0.81287787  0.39188904  0.79165463  1
  Rh  Rh203  1  0.59333564  -0.00212335  0.19592916  1
  Rh  Rh204  1  0.40167724  0.40747968  0.20039240  1
  Rh  Rh205  1  0.40395560  0.39294307  -0.00671146  1
  Rh  Rh206  1  0.80589031  0.80201364  0.60086917  1
  Rh  Rh207  1  0.40638064  0.00391577  0.40730566  1
  Rh  Rh208  1  0.79087759  0.61011667  0.00732938  1
  Rh  Rh209  1  0.19236704  0.00206533  0.80080680  1
  Rh  Rh210  1  0.00107312  0.39874411  0.20231655  1
  Rh  Rh211  1  -0.00411024  0.79149997  0.41194531  1
  Rh  Rh212  1  0.80625773  0.00037247  0.20168270  1
  Rh  Rh213  1  0.18946417  0.00145081  0.39657398  1
  Rh  Rh214  1  0.39769073  0.59914068  0.19835569  1
  Rh  Rh215  1  0.59871773  0.79704539  0.60293330  1
  Rh  Rh216  1  0.39614211  0.19625172  0.80401578  1
  Rh  Rh217  1  0.20745550  0.20135015  0.79502417  1
  Rh  Rh218  1  0.19943114  0.20304549  0.00076487  1
  Rh  Rh219  1  0.41129651  0.60703292  -0.00750536  1
  Rh  Rh220  1  0.41357207  0.60098423  0.59544136  1
  Rh  Rh221  1  0.19041061  0.00533979  -0.00291094  1
  Rh  Rh222  1  0.20262217  0.79214503  0.80201042  1
  Rh  Rh223  1  0.19921133  0.59628644  0.60533328  1
  Rh  Rh224  1  0.40568801  -0.00120066  0.60554364  1
  Rh  Rh225  1  0.20904679  0.20564655  0.60180133  1
  Rh  Rh226  1  0.80053799  0.60845132  0.39880196  1
  Rh  Rh227  1  0.79397682  0.59896597  0.60484718  1
  Rh  Rh228  1  0.00191919  0.60521278  0.59575308  1
  Rh  Rh229  1  0.39656122  0.80108895  0.80147248  1
  Rh  Rh230  1  0.19317842  0.38911933  -0.00326725  1
  Rh  Rh231  1  -0.00219558  0.59343985  0.00345382  1
  Rh  Rh232  1  0.00430724  0.80342714  0.19191111  1
  Rh  Rh233  1  0.18694012  -0.00473809  0.60725818  1
  Rh  Rh234  1  0.60872181  0.21086944  0.20337377  1
  Rh  Rh235  1  -0.00246211  0.59338975  0.40455153  1
  Rh  Rh236  1  0.00009559  0.20390773  0.39585887  1
  Rh  Rh237  1  0.81144434  0.40130263  0.39924947  1
  Rh  Rh238  1  0.80590642  0.00318167  0.59936991  1
  Rh  Rh239  1  0.39001679  0.20210171  0.20268870  1
  Rh  Rh240  1  0.81085150  0.19323458  -0.00404278  1
  Rh  Rh241  1  0.41486119  0.00965829  0.00927233  1
  Rh  Rh242  1  0.40151682  0.19903191  -0.00112859  1
  Rh  Rh243  1  -0.00582590  0.19136798  0.60353214  1
  Rh  Rh244  1  0.20421761  0.19707384  0.39996024  1
  Rh  Rh245  1  0.18939085  0.40551895  0.40863398  1
  Rh  Rh246  1  -0.00520078  0.79862352  0.80132043  1
  Rh  Rh247  1  0.60352600  0.00906057  0.40141498  1
  Rh  Rh248  1  0.39632994  0.39673251  0.38935667  1
  Rh  Rh249  1  0.60510028  0.19554490  0.80340515  1
