# generated using pymatgen
data_ZrScNbPdRh
_symmetry_space_group_name_H-M   'P 1'
_cell_length_a   16.55987430
_cell_length_b   16.56244134
_cell_length_c   16.55877477
_cell_angle_alpha   90.01682792
_cell_angle_beta   90.00339747
_cell_angle_gamma   90.01660849
_symmetry_Int_Tables_number   1
_chemical_formula_structural   ZrScNbPdRh
_chemical_formula_sum   'Zr50 Sc50 Nb50 Pd50 Rh50'
_cell_volume   4541.60699758
_cell_formula_units_Z   50
loop_
 _symmetry_equiv_pos_site_id
 _symmetry_equiv_pos_as_xyz
  1  'x, y, z'
loop_
 _atom_site_type_symbol
 _atom_site_label
 _atom_site_symmetry_multiplicity
 _atom_site_fract_x
 _atom_site_fract_y
 _atom_site_fract_z
 _atom_site_occupancy
  Zr  Zr0  1  0.30666239  0.89595192  0.89995326  1
  Zr  Zr1  1  0.50589816  0.31053685  0.50013982  1
  Zr  Zr2  1  0.51107425  0.50216643  0.09605409  1
  Zr  Zr3  1  0.49539563  0.49120207  0.90111992  1
  Zr  Zr4  1  0.10326024  0.09806032  0.49478519  1
  Zr  Zr5  1  0.89690942  0.70918768  0.70802715  1
  Zr  Zr6  1  0.09842973  0.50269262  0.49861021  1
  Zr  Zr7  1  0.50504426  0.90047501  0.30491232  1
  Zr  Zr8  1  0.69497397  0.90513278  0.91146498  1
  Zr  Zr9  1  0.50347628  0.69856409  0.28941936  1
  Zr  Zr10  1  0.09322751  0.71053182  0.49911070  1
  Zr  Zr11  1  0.29433864  0.30121005  0.10263332  1
  Zr  Zr12  1  0.89665631  0.50707656  0.29714523  1
  Zr  Zr13  1  0.51283580  0.70020530  0.69648097  1
  Zr  Zr14  1  0.49448914  0.90246686  0.90439481  1
  Zr  Zr15  1  0.10302378  0.29639206  0.90119223  1
  Zr  Zr16  1  0.70108814  0.09510850  0.09658808  1
  Zr  Zr17  1  0.29969534  0.69419059  0.30106953  1
  Zr  Zr18  1  0.51055888  0.29780115  0.29927881  1
  Zr  Zr19  1  0.89960113  0.91009249  0.69785544  1
  Zr  Zr20  1  0.30525166  0.09547446  0.29883890  1
  Zr  Zr21  1  0.50294965  0.50016781  0.49785680  1
  Zr  Zr22  1  0.49704486  0.29910854  0.70421560  1
  Zr  Zr23  1  0.90084544  0.50011593  0.90813067  1
  Zr  Zr24  1  0.89645439  0.09959470  0.50954003  1
  Zr  Zr25  1  0.89732555  0.70642773  0.10229747  1
  Zr  Zr26  1  0.89898693  0.10643582  0.10426684  1
  Zr  Zr27  1  0.50829665  0.89886978  0.49832721  1
  Zr  Zr28  1  0.30407438  0.30893336  0.30319251  1
  Zr  Zr29  1  0.30797700  0.49970400  0.70149393  1
  Zr  Zr30  1  0.89530916  0.10017740  0.89196471  1
  Zr  Zr31  1  0.29924679  0.10206226  0.90377566  1
  Zr  Zr32  1  0.08996623  0.10717504  0.70104033  1
  Zr  Zr33  1  0.29954396  0.89220448  0.70141174  1
  Zr  Zr34  1  0.09490034  0.29398461  0.10038816  1
  Zr  Zr35  1  0.71152736  0.09999118  0.69941330  1
  Zr  Zr36  1  0.50570346  0.08819500  0.49294716  1
  Zr  Zr37  1  0.90240620  0.70331958  0.90752788  1
  Zr  Zr38  1  0.29025728  0.09791787  0.10348816  1
  Zr  Zr39  1  0.10171471  0.69684363  0.30233987  1
  Zr  Zr40  1  0.89865818  0.50029750  0.49790759  1
  Zr  Zr41  1  0.30688778  0.30238566  0.89653321  1
  Zr  Zr42  1  0.10765305  0.70474394  0.69902006  1
  Zr  Zr43  1  0.70443496  0.10540684  0.50364948  1
  Zr  Zr44  1  0.50944690  0.10151013  0.90008064  1
  Zr  Zr45  1  0.69605277  0.90255110  0.49210157  1
  Zr  Zr46  1  0.09703352  0.89395856  0.69203781  1
  Zr  Zr47  1  0.68980703  0.69081848  0.10444097  1
  Zr  Zr48  1  0.69921492  0.09832050  0.90251603  1
  Zr  Zr49  1  0.90844003  0.29544230  0.70218645  1
  Sc  Sc50  1  0.29715432  0.50219234  0.30226856  1
  Sc  Sc51  1  0.09174260  0.90092188  0.90425643  1
  Sc  Sc52  1  0.49715120  0.70654663  0.89726009  1
  Sc  Sc53  1  0.30998141  0.10374834  0.69576398  1
  Sc  Sc54  1  0.90173204  0.48742051  0.69698460  1
  Sc  Sc55  1  0.89248219  0.11734605  0.29655275  1
  Sc  Sc56  1  0.71264103  0.89535877  0.10783198  1
  Sc  Sc57  1  0.50802720  0.69572022  0.48158503  1
  Sc  Sc58  1  0.09648244  0.70498763  0.10872483  1
  Sc  Sc59  1  0.70370603  0.69896906  0.29823266  1
  Sc  Sc60  1  0.69424272  0.89914689  0.69552215  1
  Sc  Sc61  1  0.89715331  0.29917671  0.50437982  1
  Sc  Sc62  1  0.89669471  0.69997007  0.30632758  1
  Sc  Sc63  1  0.09613402  0.49771356  0.69580363  1
  Sc  Sc64  1  0.90037889  0.89316845  0.10097316  1
  Sc  Sc65  1  0.70426438  0.70082813  0.89593356  1
  Sc  Sc66  1  0.09783903  0.10286319  0.91031427  1
  Sc  Sc67  1  0.10227210  0.29270178  0.49725169  1
  Sc  Sc68  1  0.30391192  0.70387707  0.88151664  1
  Sc  Sc69  1  0.29549766  0.90044110  0.49078116  1
  Sc  Sc70  1  0.29468734  0.70100613  0.70087150  1
  Sc  Sc71  1  0.50188601  0.09281590  0.10107017  1
  Sc  Sc72  1  0.10237325  0.88857665  0.30140083  1
  Sc  Sc73  1  0.09760776  0.49615286  0.10079861  1
  Sc  Sc74  1  0.30416149  0.49826306  0.48970616  1
  Sc  Sc75  1  0.10616177  0.10947422  0.30240509  1
  Sc  Sc76  1  0.31199556  0.29112608  0.69883979  1
  Sc  Sc77  1  0.50276158  0.90431967  0.69784003  1
  Sc  Sc78  1  0.69700555  0.69417344  0.48711485  1
  Sc  Sc79  1  0.50710249  0.49737947  0.69378005  1
  Sc  Sc80  1  0.30360998  0.90365369  0.10229810  1
  Sc  Sc81  1  0.49323515  0.50241545  0.30221054  1
  Sc  Sc82  1  0.50487558  0.10076485  0.69869659  1
  Sc  Sc83  1  0.30592519  0.49443616  0.11033263  1
  Sc  Sc84  1  0.28912382  0.69796701  0.49580452  1
  Sc  Sc85  1  0.69734609  0.29511465  0.68882620  1
  Sc  Sc86  1  0.69048944  0.49547802  0.50048217  1
  Sc  Sc87  1  0.29717566  0.89929281  0.29807938  1
  Sc  Sc88  1  0.69934168  0.11264492  0.29740663  1
  Sc  Sc89  1  0.30467766  0.70408739  0.11138276  1
  Sc  Sc90  1  0.69156296  0.50993865  0.91261703  1
  Sc  Sc91  1  0.89828574  0.89298416  0.90366437  1
  Sc  Sc92  1  0.68892651  0.30043974  0.11261239  1
  Sc  Sc93  1  0.90125473  0.89187103  0.50079599  1
  Sc  Sc94  1  0.69289521  0.28720206  0.90792791  1
  Sc  Sc95  1  0.29982975  0.10605967  0.49297117  1
  Sc  Sc96  1  0.09545536  0.49399374  0.90759150  1
  Sc  Sc97  1  0.89993976  0.50378286  0.10439249  1
  Sc  Sc98  1  0.09841898  0.89703579  0.10247711  1
  Sc  Sc99  1  0.90658938  0.29916089  0.90428423  1
  Nb  Nb100  1  0.70478026  0.50177913  0.29058154  1
  Nb  Nb101  1  0.09204534  0.30478356  0.29798376  1
  Nb  Nb102  1  0.10484532  0.69902163  0.89937677  1
  Nb  Nb103  1  0.69731530  0.30171965  0.49017594  1
  Nb  Nb104  1  0.89860612  0.30248991  0.11257712  1
  Nb  Nb105  1  0.70045519  0.69157388  0.69932363  1
  Nb  Nb106  1  0.49900528  0.09658215  0.29550379  1
  Nb  Nb107  1  0.49569616  0.30633233  0.10043891  1
  Nb  Nb108  1  0.09701218  0.50188478  0.30637985  1
  Nb  Nb109  1  0.49699604  0.70123796  0.10143487  1
  Nb  Nb110  1  0.10208596  0.30364815  0.70266725  1
  Nb  Nb111  1  0.30175058  0.50304794  0.89718888  1
  Nb  Nb112  1  0.70509757  0.90017711  0.29802822  1
  Nb  Nb113  1  0.30791456  0.30593489  0.50292986  1
  Nb  Nb114  1  0.69726976  0.50312348  0.70385213  1
  Nb  Nb115  1  0.50046496  0.29978846  0.90164213  1
  Nb  Nb116  1  0.89457155  0.30250501  0.29097432  1
  Nb  Nb117  1  0.09786775  0.09927166  0.10442944  1
  Nb  Nb118  1  0.89459734  0.10124252  0.69771169  1
  Nb  Nb119  1  0.89238885  0.69553051  0.49796399  1
  Nb  Nb120  1  0.88963379  0.90260675  0.29254392  1
  Nb  Nb121  1  0.70397509  0.30142347  0.30501649  1
  Nb  Nb122  1  0.10043201  0.89941254  0.49725235  1
  Nb  Nb123  1  0.49899359  0.89148646  0.10391644  1
  Nb  Nb124  1  0.70056323  0.49787934  0.10210488  1
  Nb  Nb125  1  0.40335550  0.20549091  0.00523709  1
  Nb  Nb126  1  -0.00338856  0.39741028  0.39053749  1
  Nb  Nb127  1  0.59489905  0.80074997  0.00852061  1
  Nb  Nb128  1  0.20789292  0.60367250  -0.00353399  1
  Nb  Nb129  1  0.19570143  0.00018199  0.60157440  1
  Nb  Nb130  1  0.60464622  0.39721681  0.80324713  1
  Nb  Nb131  1  0.40402918  0.60590766  0.59587179  1
  Nb  Nb132  1  -0.00550968  -0.00141092  0.39351852  1
  Nb  Nb133  1  0.19814883  0.00098931  0.79551562  1
  Nb  Nb134  1  -0.00892831  0.60977871  0.60203371  1
  Nb  Nb135  1  0.79730792  0.60157408  0.60455923  1
  Nb  Nb136  1  -0.00015411  0.60440491  0.79984605  1
  Nb  Nb137  1  0.78999379  0.40168977  0.80626053  1
  Nb  Nb138  1  0.80341180  0.00058650  0.39530565  1
  Nb  Nb139  1  0.20319993  0.39720497  0.79658922  1
  Nb  Nb140  1  0.40405436  0.20126776  0.19804108  1
  Nb  Nb141  1  0.79909958  0.39653968  0.39220596  1
  Nb  Nb142  1  0.20476152  0.39216589  0.60249892  1
  Nb  Nb143  1  0.39444881  0.60159076  -0.00199657  1
  Nb  Nb144  1  0.79561279  0.39904979  0.00646870  1
  Nb  Nb145  1  0.79640853  0.79036862  0.59934277  1
  Nb  Nb146  1  0.60070039  -0.00549590  0.20378483  1
  Nb  Nb147  1  -0.00257796  0.00440955  0.20662116  1
  Nb  Nb148  1  0.20330496  0.79193187  -0.00389033  1
  Nb  Nb149  1  0.40463772  0.79414829  0.59347308  1
  Pd  Pd150  1  0.39553621  0.80482176  0.20630514  1
  Pd  Pd151  1  0.40633510  0.20312787  0.39878966  1
  Pd  Pd152  1  0.19608003  -0.00956883  -0.00437160  1
  Pd  Pd153  1  0.60432970  0.79210355  0.59060605  1
  Pd  Pd154  1  0.60241123  0.80441319  0.80796151  1
  Pd  Pd155  1  0.79061545  0.40120264  0.59993842  1
  Pd  Pd156  1  0.20222046  0.20440944  0.20841665  1
  Pd  Pd157  1  0.39601865  -0.00454899  0.40131590  1
  Pd  Pd158  1  0.00999728  0.60609216  0.00204939  1
  Pd  Pd159  1  0.20599037  0.20892382  0.39484171  1
  Pd  Pd160  1  0.00176607  0.20452914  0.59612835  1
  Pd  Pd161  1  0.19902087  0.59501966  0.19266717  1
  Pd  Pd162  1  0.41030360  0.19679201  0.58636879  1
  Pd  Pd163  1  0.39784504  0.79622462  0.40226328  1
  Pd  Pd164  1  -0.00026737  0.60390405  0.20058048  1
  Pd  Pd165  1  0.00512397  0.79946862  0.80414220  1
  Pd  Pd166  1  0.60355796  0.00034238  0.79421114  1
  Pd  Pd167  1  0.19227982  0.40496703  0.20352385  1
  Pd  Pd168  1  0.39721962  0.00539728  0.79768937  1
  Pd  Pd169  1  0.59735084  0.40591788  0.20679252  1
  Pd  Pd170  1  0.81198488  -0.00419238  0.00239763  1
  Pd  Pd171  1  0.80333657  0.21123887  0.00717306  1
  Pd  Pd172  1  0.59257249  0.20246874  0.01230698  1
  Pd  Pd173  1  0.19390676  0.39704121  0.40600416  1
  Pd  Pd174  1  0.79867119  0.59884217  0.00671422  1
  Pd  Pd175  1  0.00217774  0.40535558  0.80354891  1
  Pd  Pd176  1  0.59561761  0.19715444  0.59795523  1
  Pd  Pd177  1  -0.00599629  -0.00034410  0.00984603  1
  Pd  Pd178  1  0.39563492  0.40245890  0.00483561  1
  Pd  Pd179  1  0.40999119  0.60368998  0.79584346  1
  Pd  Pd180  1  0.00171953  0.40668789  0.20026937  1
  Pd  Pd181  1  0.78967061  0.80987226  0.79691842  1
  Pd  Pd182  1  -0.00558572  0.19994447  0.00097753  1
  Pd  Pd183  1  0.59393963  0.59475562  0.80800655  1
  Pd  Pd184  1  0.00343168  0.00373222  0.80333320  1
  Pd  Pd185  1  0.39237516  -0.00750819  0.59296711  1
  Pd  Pd186  1  0.20425635  0.40678889  -0.00405873  1
  Pd  Pd187  1  -0.00896976  0.80502441  0.39330876  1
  Pd  Pd188  1  0.79748629  0.21150827  0.79993680  1
  Pd  Pd189  1  0.20387113  0.19991255  0.60311111  1
  Pd  Pd190  1  0.80798569  0.58936283  0.79800748  1
  Pd  Pd191  1  0.40164924  0.00624527  0.00701949  1
  Pd  Pd192  1  -0.00855310  0.20138949  0.39731494  1
  Pd  Pd193  1  0.20135928  0.19824039  0.79544827  1
  Pd  Pd194  1  0.19037475  0.58726151  0.80412553  1
  Pd  Pd195  1  0.18797778  -0.00585769  0.20648203  1
  Pd  Pd196  1  0.79574057  -0.00841069  0.80306653  1
  Pd  Pd197  1  0.00308349  -0.00062954  0.59151615  1
  Pd  Pd198  1  0.59829839  0.19454110  0.40122402  1
  Pd  Pd199  1  0.20422585  0.59123829  0.59608687  1
  Rh  Rh200  1  0.19261892  -0.00310782  0.40095156  1
  Rh  Rh201  1  0.20218676  0.19932797  0.00402048  1
  Rh  Rh202  1  -0.00521909  0.80518237  0.20679279  1
  Rh  Rh203  1  0.40726076  0.00067346  0.20016473  1
  Rh  Rh204  1  0.78915246  0.79574991  0.00146968  1
  Rh  Rh205  1  0.79540220  0.39886726  0.19777891  1
  Rh  Rh206  1  0.60734373  0.40819658  0.38919898  1
  Rh  Rh207  1  0.20158771  0.79770919  0.39720751  1
  Rh  Rh208  1  0.80325533  0.20502989  0.40603828  1
  Rh  Rh209  1  0.61294116  0.00789390  0.38760580  1
  Rh  Rh210  1  0.60859740  0.39296087  -0.00485540  1
  Rh  Rh211  1  -0.00151527  0.19701334  0.80327005  1
  Rh  Rh212  1  0.39766019  0.79147130  0.00393947  1
  Rh  Rh213  1  0.79655561  -0.01122836  0.59348584  1
  Rh  Rh214  1  0.59738659  0.59323114  0.20392061  1
  Rh  Rh215  1  0.79897279  0.80802115  0.40294782  1
  Rh  Rh216  1  0.80143506  0.60486954  0.19462432  1
  Rh  Rh217  1  0.60442834  0.59336415  0.38736120  1
  Rh  Rh218  1  0.00278971  0.59957565  0.40471629  1
  Rh  Rh219  1  0.40687488  0.19220775  0.80970559  1
  Rh  Rh220  1  0.00829705  0.79676219  0.00288071  1
  Rh  Rh221  1  -0.00979100  0.39246202  0.01053864  1
  Rh  Rh222  1  0.79961199  0.79016573  0.20273463  1
  Rh  Rh223  1  0.39800714  0.60283002  0.40211211  1
  Rh  Rh224  1  0.20999774  0.80882144  0.59020198  1
  Rh  Rh225  1  0.20376354  0.80174184  0.19451843  1
  Rh  Rh226  1  0.60156425  0.60157118  0.59419268  1
  Rh  Rh227  1  0.60549796  0.80571452  0.19807577  1
  Rh  Rh228  1  0.40517654  0.39915783  0.39775653  1
  Rh  Rh229  1  0.58822269  0.61294368  -0.00534776  1
  Rh  Rh230  1  0.41172663  0.79873236  0.78282385  1
  Rh  Rh231  1  0.00565892  0.19615909  0.20322278  1
  Rh  Rh232  1  0.78947957  0.58683085  0.40506305  1
  Rh  Rh233  1  0.39652666  0.40772401  0.59697697  1
  Rh  Rh234  1  0.78943846  0.20474042  0.19273218  1
  Rh  Rh235  1  0.59677292  -0.01218713  0.01429653  1
  Rh  Rh236  1  0.60529333  0.79547164  0.38954285  1
  Rh  Rh237  1  0.19254103  0.81349325  0.81058801  1
  Rh  Rh238  1  0.59340285  0.19227336  0.19657060  1
  Rh  Rh239  1  0.40618381  0.39805837  0.20536481  1
  Rh  Rh240  1  0.19702542  0.60117981  0.39966051  1
  Rh  Rh241  1  0.40268820  0.40027681  0.79642436  1
  Rh  Rh242  1  0.40330853  0.59424104  0.19336751  1
  Rh  Rh243  1  0.80210440  0.21006500  0.59961919  1
  Rh  Rh244  1  0.60371508  0.39769933  0.60656858  1
  Rh  Rh245  1  0.60563289  0.00730199  0.60471059  1
  Rh  Rh246  1  0.60192703  0.20379797  0.79561530  1
  Rh  Rh247  1  0.01326013  0.39594004  0.58904508  1
  Rh  Rh248  1  -0.00969803  0.79645836  0.59824913  1
  Rh  Rh249  1  0.79931926  0.00941196  0.20590087  1
