# generated using pymatgen
data_ZrScNbPdRh
_symmetry_space_group_name_H-M   'P 1'
_cell_length_a   16.55290974
_cell_length_b   16.55067358
_cell_length_c   16.55237033
_cell_angle_alpha   89.98640890
_cell_angle_beta   89.98555086
_cell_angle_gamma   89.97528668
_symmetry_Int_Tables_number   1
_chemical_formula_structural   ZrScNbPdRh
_chemical_formula_sum   'Zr50 Sc50 Nb50 Pd50 Rh50'
_cell_volume   4534.71657595
_cell_formula_units_Z   50
loop_
 _symmetry_equiv_pos_site_id
 _symmetry_equiv_pos_as_xyz
  1  'x, y, z'
loop_
 _atom_site_type_symbol
 _atom_site_label
 _atom_site_symmetry_multiplicity
 _atom_site_fract_x
 _atom_site_fract_y
 _atom_site_fract_z
 _atom_site_occupancy
  Zr  Zr0  1  0.50274164  0.70064744  0.69823192  1
  Zr  Zr1  1  0.71342018  0.30008867  0.30283395  1
  Zr  Zr2  1  0.89469360  0.50395429  0.69762289  1
  Zr  Zr3  1  0.09875418  0.50245734  0.31260719  1
  Zr  Zr4  1  0.90149688  0.69788980  0.29195429  1
  Zr  Zr5  1  0.28842215  0.50147802  0.90517118  1
  Zr  Zr6  1  0.89430996  0.90980473  0.89521980  1
  Zr  Zr7  1  0.30476098  0.29418032  0.90114393  1
  Zr  Zr8  1  0.90602000  0.49690792  0.10498856  1
  Zr  Zr9  1  0.70453507  0.90378338  0.10561204  1
  Zr  Zr10  1  0.88952890  0.70358194  0.50670069  1
  Zr  Zr11  1  0.70302202  0.30033572  0.10330689  1
  Zr  Zr12  1  0.90059929  0.49276962  0.29653674  1
  Zr  Zr13  1  0.10498269  0.70414056  0.10373791  1
  Zr  Zr14  1  0.69795039  0.30369646  0.50062900  1
  Zr  Zr15  1  0.49752410  0.30227359  0.69943732  1
  Zr  Zr16  1  0.49442913  0.30313019  0.30537676  1
  Zr  Zr17  1  0.70722342  0.09436033  0.29631770  1
  Zr  Zr18  1  0.09138571  0.90375831  0.69654976  1
  Zr  Zr19  1  0.30293403  0.09978678  0.08848213  1
  Zr  Zr20  1  0.69713492  0.89736953  0.50632961  1
  Zr  Zr21  1  0.29728525  0.30666998  0.10810579  1
  Zr  Zr22  1  0.69936268  0.70734041  0.90293059  1
  Zr  Zr23  1  0.30082192  0.10713846  0.30781176  1
  Zr  Zr24  1  0.71062262  0.09348252  0.89908386  1
  Zr  Zr25  1  0.90323485  0.49416278  0.49819977  1
  Zr  Zr26  1  0.89530045  0.70901471  0.89569435  1
  Zr  Zr27  1  0.89723409  0.70663166  0.70270046  1
  Zr  Zr28  1  0.89197419  0.29508027  0.49370967  1
  Zr  Zr29  1  0.70164913  0.29553605  0.69211839  1
  Zr  Zr30  1  0.10128934  0.69987429  0.90824254  1
  Zr  Zr31  1  0.29350038  0.70864583  0.91578803  1
  Zr  Zr32  1  0.69737505  0.49818738  0.49997020  1
  Zr  Zr33  1  0.69404255  0.70822971  0.49926156  1
  Zr  Zr34  1  0.49384339  0.09431956  0.49894269  1
  Zr  Zr35  1  0.50279244  0.49845433  0.90015374  1
  Zr  Zr36  1  0.09516119  0.30719428  0.89122520  1
  Zr  Zr37  1  0.09861691  0.10027752  0.30606291  1
  Zr  Zr38  1  0.89739137  0.69833509  0.10537999  1
  Zr  Zr39  1  0.49634675  0.08812142  0.30310079  1
  Zr  Zr40  1  0.49263944  0.70115286  0.49990899  1
  Zr  Zr41  1  0.50749375  0.89903771  0.10871218  1
  Zr  Zr42  1  0.69977644  0.70392797  0.10523832  1
  Zr  Zr43  1  0.50874235  0.70144873  0.90452674  1
  Zr  Zr44  1  0.08846041  0.10641711  0.89821067  1
  Zr  Zr45  1  0.49655190  0.49924040  0.69440954  1
  Zr  Zr46  1  0.30842650  0.89973988  0.29396220  1
  Zr  Zr47  1  0.09678865  0.70831878  0.69785263  1
  Zr  Zr48  1  0.10157411  0.09880220  0.50069578  1
  Zr  Zr49  1  0.70861503  0.70154511  0.69957251  1
  Sc  Sc50  1  0.69848139  0.90807515  0.70069652  1
  Sc  Sc51  1  0.09555768  0.09204958  0.09989654  1
  Sc  Sc52  1  0.50170504  0.30676246  0.50484610  1
  Sc  Sc53  1  0.49648252  0.50032017  0.49398853  1
  Sc  Sc54  1  0.30245372  0.49881942  0.29687039  1
  Sc  Sc55  1  0.48735622  0.09152250  0.90367141  1
  Sc  Sc56  1  0.69947530  0.09681239  0.69525756  1
  Sc  Sc57  1  0.49946411  0.50598435  0.30426515  1
  Sc  Sc58  1  0.09696672  0.90286223  0.28468671  1
  Sc  Sc59  1  0.71363744  0.09888671  0.50762003  1
  Sc  Sc60  1  0.70058567  0.09026031  0.09748653  1
  Sc  Sc61  1  0.50864769  0.70249493  0.10613447  1
  Sc  Sc62  1  0.69697602  0.89853350  0.29978909  1
  Sc  Sc63  1  0.30035305  0.29506493  0.49063790  1
  Sc  Sc64  1  0.50357876  0.50517673  0.10746903  1
  Sc  Sc65  1  0.10074104  0.69270548  0.29261585  1
  Sc  Sc66  1  0.89438170  0.30155825  0.70449709  1
  Sc  Sc67  1  0.69943350  0.50638988  0.09958798  1
  Sc  Sc68  1  0.30488444  0.90701963  0.90600637  1
  Sc  Sc69  1  0.09282728  0.90792091  0.50311907  1
  Sc  Sc70  1  0.89888199  0.90797159  0.50431233  1
  Sc  Sc71  1  0.70379381  0.49549878  0.70090262  1
  Sc  Sc72  1  0.10259510  0.69523695  0.49062674  1
  Sc  Sc73  1  0.10577465  0.29467348  0.70097726  1
  Sc  Sc74  1  0.91075566  0.49210878  0.90237930  1
  Sc  Sc75  1  0.10602592  0.29712997  0.29928587  1
  Sc  Sc76  1  0.09761375  0.30413089  0.10852722  1
  Sc  Sc77  1  0.50455633  0.90219806  0.90363036  1
  Sc  Sc78  1  0.70439633  0.30110671  0.89262187  1
  Sc  Sc79  1  0.50271044  0.69983312  0.30250079  1
  Sc  Sc80  1  0.09117672  0.90560329  0.90008592  1
  Sc  Sc81  1  0.30022836  0.49970508  0.49270970  1
  Sc  Sc82  1  0.69516473  0.50350783  0.90317262  1
  Sc  Sc83  1  0.09828896  0.48075902  0.70294284  1
  Sc  Sc84  1  0.30592212  0.10119261  0.68973148  1
  Sc  Sc85  1  0.69309911  0.49954700  0.30404976  1
  Sc  Sc86  1  0.30595257  0.70518492  0.68054714  1
  Sc  Sc87  1  0.30715822  0.49620549  0.69227310  1
  Sc  Sc88  1  0.89900384  0.09686272  0.09507353  1
  Sc  Sc89  1  0.90307988  0.30116493  0.11440365  1
  Sc  Sc90  1  0.30509184  0.09494118  0.89757570  1
  Sc  Sc91  1  0.30498430  0.29799737  0.69736589  1
  Sc  Sc92  1  0.30391792  0.90161338  0.69572130  1
  Sc  Sc93  1  0.31160840  0.89076475  0.50426166  1
  Sc  Sc94  1  0.49516467  0.30222036  0.09678122  1
  Sc  Sc95  1  0.50345314  0.90902028  0.69512585  1
  Sc  Sc96  1  0.49982394  0.09294822  0.09485843  1
  Sc  Sc97  1  0.89639277  0.90770474  0.29667968  1
  Sc  Sc98  1  0.29278573  0.89232096  0.09831281  1
  Sc  Sc99  1  0.89163754  0.09732688  0.70064036  1
  Nb  Nb100  1  0.30268260  0.49946504  0.10066350  1
  Nb  Nb101  1  0.50020051  0.29835083  0.90026236  1
  Nb  Nb102  1  0.29401482  0.69651251  0.10601290  1
  Nb  Nb103  1  0.09905822  0.50203785  0.90001229  1
  Nb  Nb104  1  0.29861674  0.09740658  0.49024922  1
  Nb  Nb105  1  0.50750447  0.89548357  0.49214273  1
  Nb  Nb106  1  0.10252841  0.31059897  0.50238104  1
  Nb  Nb107  1  0.90915153  0.09725605  0.49534307  1
  Nb  Nb108  1  0.10321211  0.09837029  0.69366250  1
  Nb  Nb109  1  0.89946511  0.28573302  0.89938038  1
  Nb  Nb110  1  0.08963906  0.90177605  0.09943472  1
  Nb  Nb111  1  0.70003021  0.90329117  0.90575056  1
  Nb  Nb112  1  0.29127075  0.69850990  0.29780330  1
  Nb  Nb113  1  0.30076317  0.69579217  0.49378884  1
  Nb  Nb114  1  0.90138573  0.10947340  0.31780892  1
  Nb  Nb115  1  0.10081272  0.49537793  0.50042529  1
  Nb  Nb116  1  0.29877496  0.29746285  0.29764472  1
  Nb  Nb117  1  0.90255524  0.89414536  0.70268852  1
  Nb  Nb118  1  0.90417277  0.89951353  0.10603903  1
  Nb  Nb119  1  0.89628865  0.10825482  0.90047497  1
  Nb  Nb120  1  0.50120113  0.09901072  0.69988538  1
  Nb  Nb121  1  0.50256730  0.90351473  0.30657276  1
  Nb  Nb122  1  0.10015247  0.49953822  0.08990098  1
  Nb  Nb123  1  0.89761721  0.29731626  0.29846094  1
  Nb  Nb124  1  0.69841886  0.69943481  0.30214306  1
  Nb  Nb125  1  0.39376522  0.60084216  0.00542628  1
  Nb  Nb126  1  0.00261638  0.19655513  0.59498418  1
  Nb  Nb127  1  -0.00563787  0.80502867  0.00637708  1
  Nb  Nb128  1  0.59809939  0.20152270  -0.00579033  1
  Nb  Nb129  1  0.39831699  0.40633933  0.00002215  1
  Nb  Nb130  1  0.39864095  0.79546101  0.80220270  1
  Nb  Nb131  1  0.00511100  0.59584582  0.60161549  1
  Nb  Nb132  1  0.80516113  0.39396997  0.00075515  1
  Nb  Nb133  1  0.00751783  0.59876957  0.79866353  1
  Nb  Nb134  1  0.59269983  0.19738096  0.80226264  1
  Nb  Nb135  1  0.00131463  0.80031891  0.39523886  1
  Nb  Nb136  1  0.39933291  0.20071729  0.20351780  1
  Nb  Nb137  1  0.19432068  0.00125081  0.79285550  1
  Nb  Nb138  1  0.39340261  0.60762772  0.80724255  1
  Nb  Nb139  1  0.59611235  0.19903263  0.20177363  1
  Nb  Nb140  1  0.20231496  0.80178087  0.80000585  1
  Nb  Nb141  1  0.19258568  0.59528736  0.59793568  1
  Nb  Nb142  1  0.19938768  0.60402418  0.79334516  1
  Nb  Nb143  1  0.20568068  -0.00417023  0.40094075  1
  Nb  Nb144  1  0.60010812  0.39179656  0.20319236  1
  Nb  Nb145  1  0.60220263  0.19739079  0.39745921  1
  Nb  Nb146  1  0.79802680  0.60389428  0.39944456  1
  Nb  Nb147  1  0.20070215  0.80167067  0.39450936  1
  Nb  Nb148  1  0.60062898  0.60313025  0.59858173  1
  Nb  Nb149  1  0.19662910  0.20257774  -0.00355669  1
  Pd  Pd150  1  -0.00348554  0.19245224  0.20129061  1
  Pd  Pd151  1  -0.00543768  0.38798465  0.00043194  1
  Pd  Pd152  1  -0.00548584  0.39243415  0.60459675  1
  Pd  Pd153  1  0.19853741  0.39180974  0.00001867  1
  Pd  Pd154  1  0.00985479  0.21138359  0.40546101  1
  Pd  Pd155  1  0.20499850  0.00275772  0.20098201  1
  Pd  Pd156  1  0.60391095  0.39471032  0.79450951  1
  Pd  Pd157  1  0.20856525  -0.00379774  0.59642195  1
  Pd  Pd158  1  0.40694062  0.79864140  0.00471953  1
  Pd  Pd159  1  0.19334266  0.00282251  -0.00870298  1
  Pd  Pd160  1  0.40191630  0.60720618  0.20037981  1
  Pd  Pd161  1  -0.00261390  0.00974983  0.79485882  1
  Pd  Pd162  1  0.00096242  0.38817559  0.39386896  1
  Pd  Pd163  1  0.59740998  0.19194717  0.59749556  1
  Pd  Pd164  1  -0.00606016  0.60721029  -0.00176388  1
  Pd  Pd165  1  0.79176661  0.59318025  0.20747154  1
  Pd  Pd166  1  0.59719543  0.00664188  0.80580399  1
  Pd  Pd167  1  0.40389577  0.19201005  0.79682980  1
  Pd  Pd168  1  0.59925100  0.80936369  0.79588328  1
  Pd  Pd169  1  0.19705773  0.79811024  0.59124760  1
  Pd  Pd170  1  0.39748517  0.79555333  0.39341414  1
  Pd  Pd171  1  -0.00908007  0.01204231  0.20567747  1
  Pd  Pd172  1  0.80432116  0.40233079  0.80960850  1
  Pd  Pd173  1  0.39403143  0.40625383  0.80576680  1
  Pd  Pd174  1  0.80303306  0.80873842  0.00472581  1
  Pd  Pd175  1  0.80396994  0.59290049  0.81119217  1
  Pd  Pd176  1  0.00482226  0.20762353  0.00856603  1
  Pd  Pd177  1  0.20617523  0.19093532  0.80249169  1
  Pd  Pd178  1  0.61167659  0.00578303  0.40733120  1
  Pd  Pd179  1  0.60044675  0.59606891  0.79312729  1
  Pd  Pd180  1  0.00088453  0.79687891  0.58676512  1
  Pd  Pd181  1  0.39964509  0.20226982  0.59204116  1
  Pd  Pd182  1  0.39529802  0.00380836  0.19247152  1
  Pd  Pd183  1  0.39462857  0.40193601  0.40032928  1
  Pd  Pd184  1  0.79840489  -0.00486618  0.40324005  1
  Pd  Pd185  1  -0.00901482  0.60790940  0.40716891  1
  Pd  Pd186  1  0.20936445  0.40194783  0.79453169  1
  Pd  Pd187  1  0.20213659  0.19027566  0.19131674  1
  Pd  Pd188  1  0.60161862  0.39597940  0.00649826  1
  Pd  Pd189  1  0.80269173  0.18959986  0.19501811  1
  Pd  Pd190  1  0.40261641  0.79309741  0.19984852  1
  Pd  Pd191  1  0.40144833  -0.00415424  0.59573735  1
  Pd  Pd192  1  0.20976522  0.40024320  0.59751552  1
  Pd  Pd193  1  0.19248863  0.41076488  0.20659785  1
  Pd  Pd194  1  0.79607247  0.20403160  0.00474028  1
  Pd  Pd195  1  0.80675240  0.80118333  0.39228037  1
  Pd  Pd196  1  0.20004034  0.20451009  0.59298103  1
  Pd  Pd197  1  0.80565754  0.59090678  -0.00637094  1
  Pd  Pd198  1  -0.00499381  0.19863848  0.78484034  1
  Pd  Pd199  1  0.19524712  0.58831377  0.19695004  1
  Rh  Rh200  1  0.78856952  0.81203590  0.79808250  1
  Rh  Rh201  1  0.80243454  0.39728416  0.59872718  1
  Rh  Rh202  1  -0.00957681  0.00880127  0.60778105  1
  Rh  Rh203  1  0.60242756  0.59640530  0.20377581  1
  Rh  Rh204  1  0.01119308  0.59019178  0.19479390  1
  Rh  Rh205  1  0.40677436  0.39649444  0.19773269  1
  Rh  Rh206  1  0.39401302  0.60273942  0.39363689  1
  Rh  Rh207  1  0.80086846  0.40718848  0.39780051  1
  Rh  Rh208  1  0.79809102  0.81285791  0.60878402  1
  Rh  Rh209  1  0.40505292  -0.01486672  0.00812383  1
  Rh  Rh210  1  0.60253617  0.80103768  0.20953431  1
  Rh  Rh211  1  0.19468475  0.20232130  0.40582548  1
  Rh  Rh212  1  -0.00159221  0.80043913  0.20037835  1
  Rh  Rh213  1  0.59938848  0.00192062  0.20191978  1
  Rh  Rh214  1  0.00529809  0.79767506  0.81172681  1
  Rh  Rh215  1  0.40612014  0.20283094  0.40010843  1
  Rh  Rh216  1  0.79242124  0.19621990  0.79627715  1
  Rh  Rh217  1  0.59836192  0.00342495  0.59253192  1
  Rh  Rh218  1  0.80861257  0.00405437  0.20239433  1
  Rh  Rh219  1  0.59791495  0.79893430  0.60488419  1
  Rh  Rh220  1  0.79364508  0.40702407  0.19548076  1
  Rh  Rh221  1  0.00577677  -0.00826421  0.39266272  1
  Rh  Rh222  1  0.81032507  0.19815391  0.59875388  1
  Rh  Rh223  1  0.60374675  0.60523253  0.40636585  1
  Rh  Rh224  1  -0.00598532  0.39858344  0.79903089  1
  Rh  Rh225  1  0.79728520  0.80349080  0.20391320  1
  Rh  Rh226  1  0.39461532  -0.01110014  0.40736180  1
  Rh  Rh227  1  0.19837611  0.80433128  0.20182410  1
  Rh  Rh228  1  0.20299140  0.39684215  0.39754239  1
  Rh  Rh229  1  -0.00940473  -0.00299110  -0.00115485  1
  Rh  Rh230  1  0.39647010  0.39605106  0.59087402  1
  Rh  Rh231  1  0.00992062  0.40368309  0.20735498  1
  Rh  Rh232  1  0.59856822  0.40940689  0.60323285  1
  Rh  Rh233  1  0.20108732  0.59595170  0.00890814  1
  Rh  Rh234  1  0.20551746  0.60119252  0.40349088  1
  Rh  Rh235  1  0.39809337  0.20833902  0.00709504  1
  Rh  Rh236  1  0.39526735  -0.00676712  0.79494892  1
  Rh  Rh237  1  0.79531220  0.19506027  0.40451358  1
  Rh  Rh238  1  0.80627812  -0.00341308  0.00262863  1
  Rh  Rh239  1  0.41156214  0.80664905  0.60339843  1
  Rh  Rh240  1  0.39792191  0.59643149  0.59749884  1
  Rh  Rh241  1  0.60059991  0.00341107  -0.00297275  1
  Rh  Rh242  1  0.60618072  0.80565202  0.00523805  1
  Rh  Rh243  1  0.18628536  0.81613587  -0.00056574  1
  Rh  Rh244  1  0.60005194  0.39308291  0.39406278  1
  Rh  Rh245  1  0.80078713  -0.00154709  0.79633902  1
  Rh  Rh246  1  0.59641649  0.80020325  0.39410409  1
  Rh  Rh247  1  0.80694039  -0.00417895  0.60252467  1
  Rh  Rh248  1  0.79625719  0.59481543  0.59119923  1
  Rh  Rh249  1  0.59642453  0.60415700  0.00580118  1
