# generated using pymatgen
data_ZrScNbPdRh
_symmetry_space_group_name_H-M   'P 1'
_cell_length_a   16.56391086
_cell_length_b   16.55763610
_cell_length_c   16.56380806
_cell_angle_alpha   89.97684851
_cell_angle_beta   90.00562943
_cell_angle_gamma   90.05594282
_symmetry_Int_Tables_number   1
_chemical_formula_structural   ZrScNbPdRh
_chemical_formula_sum   'Zr50 Sc50 Nb50 Pd50 Rh50'
_cell_volume   4542.77432860
_cell_formula_units_Z   50
loop_
 _symmetry_equiv_pos_site_id
 _symmetry_equiv_pos_as_xyz
  1  'x, y, z'
loop_
 _atom_site_type_symbol
 _atom_site_label
 _atom_site_symmetry_multiplicity
 _atom_site_fract_x
 _atom_site_fract_y
 _atom_site_fract_z
 _atom_site_occupancy
  Zr  Zr0  1  0.09894633  0.29640405  0.89851298  1
  Zr  Zr1  1  0.09613850  0.70246525  0.09994985  1
  Zr  Zr2  1  0.50092261  0.09867994  0.50410587  1
  Zr  Zr3  1  0.30393317  0.30043113  0.10262661  1
  Zr  Zr4  1  0.89778963  0.49598229  0.10845801  1
  Zr  Zr5  1  0.50709714  0.29142528  0.90151125  1
  Zr  Zr6  1  0.89965315  0.29769252  0.89006213  1
  Zr  Zr7  1  0.49532671  0.69308592  0.50370865  1
  Zr  Zr8  1  0.30306064  0.89501494  0.29973092  1
  Zr  Zr9  1  0.90385439  0.10209970  0.89962133  1
  Zr  Zr10  1  0.90608058  0.89850824  0.90037190  1
  Zr  Zr11  1  0.30246324  0.49842157  0.28248098  1
  Zr  Zr12  1  0.89833188  0.09415492  0.30372241  1
  Zr  Zr13  1  0.49715265  0.11042435  0.70039378  1
  Zr  Zr14  1  0.90064262  0.49910207  0.30063568  1
  Zr  Zr15  1  0.69876070  0.90170919  0.11175078  1
  Zr  Zr16  1  0.89598482  0.10833551  0.69778913  1
  Zr  Zr17  1  0.70185717  0.69042694  0.90243003  1
  Zr  Zr18  1  0.29912817  0.68398372  0.09790852  1
  Zr  Zr19  1  0.50083773  0.29695329  0.50395856  1
  Zr  Zr20  1  0.89219619  0.69509644  0.10573313  1
  Zr  Zr21  1  0.30806053  0.70734046  0.89909909  1
  Zr  Zr22  1  0.89574475  0.70452211  0.70275169  1
  Zr  Zr23  1  0.90135438  0.90288163  0.10040857  1
  Zr  Zr24  1  0.89796875  0.30594008  0.29162195  1
  Zr  Zr25  1  0.89717301  0.49835331  0.70559977  1
  Zr  Zr26  1  0.09856808  0.10272181  0.89679650  1
  Zr  Zr27  1  0.89269007  0.29975259  0.10392783  1
  Zr  Zr28  1  0.30088677  0.69814796  0.50729083  1
  Zr  Zr29  1  0.49915109  0.90109822  0.50062692  1
  Zr  Zr30  1  0.49671113  0.50148414  0.29617240  1
  Zr  Zr31  1  0.10346672  0.09750313  0.09081074  1
  Zr  Zr32  1  0.30038294  0.50210927  0.91391998  1
  Zr  Zr33  1  0.90032248  0.70056577  0.30133032  1
  Zr  Zr34  1  0.50468126  0.89818562  0.28540699  1
  Zr  Zr35  1  0.50305101  0.49748022  0.50214136  1
  Zr  Zr36  1  0.49305045  0.70461716  0.69925247  1
  Zr  Zr37  1  0.09870575  0.91170029  0.90493537  1
  Zr  Zr38  1  0.90668883  0.90604714  0.69143917  1
  Zr  Zr39  1  0.49824833  0.50420230  0.10070381  1
  Zr  Zr40  1  0.89958111  0.70843102  0.50037555  1
  Zr  Zr41  1  0.10387009  0.89485177  0.30504471  1
  Zr  Zr42  1  0.10476814  0.49922827  0.50396502  1
  Zr  Zr43  1  0.48572403  0.89448623  0.90618389  1
  Zr  Zr44  1  0.69708573  0.10401862  0.89754426  1
  Zr  Zr45  1  0.68815925  0.49812388  0.90160452  1
  Zr  Zr46  1  0.29048792  0.29805626  0.89796238  1
  Zr  Zr47  1  0.10498129  0.29911800  0.70168156  1
  Zr  Zr48  1  0.09769247  0.89822135  0.09408654  1
  Zr  Zr49  1  0.29871848  0.10614655  0.69137954  1
  Sc  Sc50  1  0.30134641  0.89586657  0.70253472  1
  Sc  Sc51  1  0.69891821  0.30510130  0.49984109  1
  Sc  Sc52  1  0.70325794  0.10164035  0.10517800  1
  Sc  Sc53  1  0.11014566  0.10035868  0.50682385  1
  Sc  Sc54  1  0.50475282  0.49454452  0.69285336  1
  Sc  Sc55  1  0.28615586  0.29682672  0.50361772  1
  Sc  Sc56  1  0.50239892  0.90089057  0.70099193  1
  Sc  Sc57  1  0.89603267  0.30772570  0.70185063  1
  Sc  Sc58  1  0.29969883  0.89787361  0.50586216  1
  Sc  Sc59  1  0.69802422  0.09984714  0.29733369  1
  Sc  Sc60  1  0.89188175  0.49648663  0.50568724  1
  Sc  Sc61  1  0.69804123  0.89635564  0.89381926  1
  Sc  Sc62  1  0.69803726  0.89658898  0.69873280  1
  Sc  Sc63  1  0.09935610  0.29931918  0.10519662  1
  Sc  Sc64  1  0.10052695  0.09406545  0.69980443  1
  Sc  Sc65  1  0.88865799  0.49989176  0.89594010  1
  Sc  Sc66  1  0.29693424  0.70369500  0.70002252  1
  Sc  Sc67  1  0.70338048  0.70431522  0.70674225  1
  Sc  Sc68  1  0.10659554  0.49270109  0.89402942  1
  Sc  Sc69  1  0.70186131  0.49799446  0.69867600  1
  Sc  Sc70  1  0.69801080  0.30301750  0.90484046  1
  Sc  Sc71  1  0.10515276  0.69976093  0.70339631  1
  Sc  Sc72  1  0.09942889  0.50020286  0.70144985  1
  Sc  Sc73  1  0.09965403  0.71382934  0.89898946  1
  Sc  Sc74  1  0.10208717  0.70841859  0.49522259  1
  Sc  Sc75  1  0.10495743  0.70452458  0.29494449  1
  Sc  Sc76  1  0.50685650  0.29676610  0.29123927  1
  Sc  Sc77  1  0.50246220  0.69469355  0.90537934  1
  Sc  Sc78  1  0.10448165  0.90486257  0.69999301  1
  Sc  Sc79  1  0.70933505  0.29716353  0.70008606  1
  Sc  Sc80  1  0.69568167  0.09766616  0.69532686  1
  Sc  Sc81  1  0.29339372  0.50660604  0.69422285  1
  Sc  Sc82  1  0.89335375  0.10271885  0.10212004  1
  Sc  Sc83  1  0.89893772  0.69783006  0.89111297  1
  Sc  Sc84  1  0.69960973  0.48440128  0.29668500  1
  Sc  Sc85  1  0.29171940  0.10272133  0.90901012  1
  Sc  Sc86  1  0.69613753  0.10307473  0.50185083  1
  Sc  Sc87  1  0.09991875  0.49853982  0.29299850  1
  Sc  Sc88  1  0.31582549  0.90082338  0.09158318  1
  Sc  Sc89  1  0.69556052  0.29308117  0.29610180  1
  Sc  Sc90  1  0.29700796  0.89874377  0.90079057  1
  Sc  Sc91  1  0.10628049  0.30200503  0.29867234  1
  Sc  Sc92  1  0.70378343  0.90695912  0.49815288  1
  Sc  Sc93  1  0.30324140  0.50216762  0.50390670  1
  Sc  Sc94  1  0.70449438  0.71031680  0.28333934  1
  Sc  Sc95  1  0.50667080  0.09952018  0.29763829  1
  Sc  Sc96  1  0.70181026  0.70530448  0.51198521  1
  Sc  Sc97  1  0.29412490  0.29766604  0.29538118  1
  Sc  Sc98  1  0.10565570  0.10796172  0.30344133  1
  Sc  Sc99  1  0.70607627  0.90757650  0.29898710  1
  Nb  Nb100  1  0.69496129  0.50218023  0.49720738  1
  Nb  Nb101  1  0.50548868  0.29289059  0.09581982  1
  Nb  Nb102  1  0.30313594  0.09985056  0.10392670  1
  Nb  Nb103  1  0.30138626  0.09778872  0.49674325  1
  Nb  Nb104  1  0.09765521  0.30063078  0.49928943  1
  Nb  Nb105  1  0.50845724  0.70089444  0.10931858  1
  Nb  Nb106  1  0.09411568  0.90825999  0.49864761  1
  Nb  Nb107  1  0.69292334  0.30159760  0.09991197  1
  Nb  Nb108  1  0.89958569  0.90477462  0.31188716  1
  Nb  Nb109  1  0.29926720  0.69829116  0.30207816  1
  Nb  Nb110  1  0.10943965  0.50014777  0.09483185  1
  Nb  Nb111  1  0.50135974  0.90176067  0.09736973  1
  Nb  Nb112  1  0.70198120  0.50530260  0.08724835  1
  Nb  Nb113  1  0.29744881  0.49542034  0.09716875  1
  Nb  Nb114  1  0.30770995  0.29172478  0.70482865  1
  Nb  Nb115  1  0.90227795  0.09500858  0.50033103  1
  Nb  Nb116  1  0.49434795  0.10147407  0.09193709  1
  Nb  Nb117  1  0.89683788  0.29929976  0.50516843  1
  Nb  Nb118  1  0.50059297  0.49347572  0.90005916  1
  Nb  Nb119  1  0.70041464  0.69735418  0.09586760  1
  Nb  Nb120  1  0.90982399  0.91429410  0.48824048  1
  Nb  Nb121  1  0.29992489  0.09940581  0.30374531  1
  Nb  Nb122  1  0.50291060  0.10089779  0.89922436  1
  Nb  Nb123  1  0.48307150  0.29418802  0.70136647  1
  Nb  Nb124  1  0.49848868  0.69634616  0.29667102  1
  Nb  Nb125  1  0.00095875  0.59288353  0.00202023  1
  Nb  Nb126  1  0.39603246  0.19761103  0.40120165  1
  Nb  Nb127  1  0.79081624  0.59932511  0.40170681  1
  Nb  Nb128  1  0.60192985  0.80053945  0.01016323  1
  Nb  Nb129  1  0.40419051  0.01060808  0.80471780  1
  Nb  Nb130  1  0.20489781  -0.00053865  0.39866151  1
  Nb  Nb131  1  -0.00312007  0.20397482  0.59309167  1
  Nb  Nb132  1  0.40518122  0.39724113  -0.00037881  1
  Nb  Nb133  1  0.59137773  -0.00155138  0.00119617  1
  Nb  Nb134  1  -0.00459763  0.60365068  0.60035983  1
  Nb  Nb135  1  0.60461444  0.60360974  0.39730266  1
  Nb  Nb136  1  0.39982086  0.39467639  0.39843440  1
  Nb  Nb137  1  0.59402803  0.79305633  0.39539203  1
  Nb  Nb138  1  0.40431138  0.79264039  0.39495347  1
  Nb  Nb139  1  0.80975137  0.20072465  0.40504741  1
  Nb  Nb140  1  -0.00056375  0.40386082  0.00282809  1
  Nb  Nb141  1  0.20545763  0.00088807  0.20098815  1
  Nb  Nb142  1  0.40291713  0.58938773  0.80542703  1
  Nb  Nb143  1  -0.00284807  0.20451657  0.40775311  1
  Nb  Nb144  1  0.20674993  0.60209630  0.39545885  1
  Nb  Nb145  1  -0.00057005  0.39391533  0.40681325  1
  Nb  Nb146  1  0.80389332  0.00144644  0.79963421  1
  Nb  Nb147  1  0.00585031  -0.00254940  0.20574912  1
  Nb  Nb148  1  0.79511590  0.79680795  0.00400347  1
  Nb  Nb149  1  0.40077797  0.39794439  0.80242075  1
  Pd  Pd150  1  0.00401759  0.59616315  0.80212827  1
  Pd  Pd151  1  0.18791696  0.60717164  -0.01088648  1
  Pd  Pd152  1  0.00122187  0.19356044  0.20519238  1
  Pd  Pd153  1  0.39956172  -0.00330348  0.61033246  1
  Pd  Pd154  1  0.20588978  0.60343761  0.80636464  1
  Pd  Pd155  1  -0.00215466  0.40182980  0.59983796  1
  Pd  Pd156  1  0.00720371  0.79908570  0.60026430  1
  Pd  Pd157  1  0.59741195  -0.00397398  0.80308526  1
  Pd  Pd158  1  0.79489705  0.20430376  -0.00007978  1
  Pd  Pd159  1  0.20588782  0.39672941  0.60691618  1
  Pd  Pd160  1  0.40021524  0.00567687  0.20036032  1
  Pd  Pd161  1  0.79654154  -0.00124915  0.60150494  1
  Pd  Pd162  1  -0.00257476  0.20649700  0.00475632  1
  Pd  Pd163  1  0.40016862  -0.00217782  0.39716701  1
  Pd  Pd164  1  0.60304110  -0.00399007  0.39811475  1
  Pd  Pd165  1  0.59540739  0.79745314  0.80877273  1
  Pd  Pd166  1  0.60484854  0.60349612  0.60273939  1
  Pd  Pd167  1  0.20270742  0.40851400  0.39582746  1
  Pd  Pd168  1  0.00736622  0.59642709  0.19677192  1
  Pd  Pd169  1  0.78878409  0.59119167  0.20874623  1
  Pd  Pd170  1  0.20618180  0.80296430  0.00392545  1
  Pd  Pd171  1  0.21102492  0.80417587  0.18745692  1
  Pd  Pd172  1  0.79019046  0.79710923  0.40161381  1
  Pd  Pd173  1  0.60490487  0.20744759  0.60430168  1
  Pd  Pd174  1  0.00066616  0.79871847  0.39901555  1
  Pd  Pd175  1  0.80156124  0.39772603  0.40328453  1
  Pd  Pd176  1  0.59333062  0.39914652  0.39687393  1
  Pd  Pd177  1  0.00188939  0.59264335  0.40743184  1
  Pd  Pd178  1  0.60587549  0.20761518  0.79172841  1
  Pd  Pd179  1  0.79068615  -0.00592362  -0.00720103  1
  Pd  Pd180  1  0.20041763  0.19554327  0.19560461  1
  Pd  Pd181  1  0.60028898  0.40257452  0.19189952  1
  Pd  Pd182  1  0.00687625  0.80593228  0.79487915  1
  Pd  Pd183  1  0.40462840  0.19903135  0.20743845  1
  Pd  Pd184  1  0.39502358  0.20216268  -0.00502134  1
  Pd  Pd185  1  0.80242632  0.39793729  -0.00172982  1
  Pd  Pd186  1  0.39095112  0.39749513  0.59887679  1
  Pd  Pd187  1  0.39739788  0.59490123  0.39789707  1
  Pd  Pd188  1  0.80140242  0.59900209  0.59876204  1
  Pd  Pd189  1  0.59352020  0.59984759  0.79147211  1
  Pd  Pd190  1  0.20925475  0.40380955  0.79186241  1
  Pd  Pd191  1  0.19366410  0.80419849  0.59970912  1
  Pd  Pd192  1  0.39459352  0.79126484  0.19581915  1
  Pd  Pd193  1  0.21132346  0.00274998  0.79955963  1
  Pd  Pd194  1  0.59998846  0.80335975  0.59615977  1
  Pd  Pd195  1  0.61116086  0.59392711  0.20465083  1
  Pd  Pd196  1  0.80369615  0.81381949  0.59516614  1
  Pd  Pd197  1  0.60476590  0.39064615  0.60830511  1
  Pd  Pd198  1  -0.00699920  0.80663276  0.20639462  1
  Pd  Pd199  1  0.59593709  0.39014481  0.78936562  1
  Rh  Rh200  1  0.19664244  0.39040715  0.00713361  1
  Rh  Rh201  1  -0.00484801  0.00170365  0.79652075  1
  Rh  Rh202  1  0.79412124  0.20296872  0.20664993  1
  Rh  Rh203  1  -0.00604994  0.00957632  0.00675824  1
  Rh  Rh204  1  0.19946652  0.20371028  0.00735825  1
  Rh  Rh205  1  0.39232671  0.20288376  0.58579369  1
  Rh  Rh206  1  0.20918366  -0.00374201  0.00767137  1
  Rh  Rh207  1  0.19679701  0.39931919  0.19507514  1
  Rh  Rh208  1  0.40030545  0.80375386  0.59715748  1
  Rh  Rh209  1  0.79269908  0.00877269  0.40319772  1
  Rh  Rh210  1  0.19572889  0.59987110  0.20396756  1
  Rh  Rh211  1  0.39842279  0.60334428  0.19445972  1
  Rh  Rh212  1  0.39437979  0.19674170  0.81178078  1
  Rh  Rh213  1  0.79378489  0.40252666  0.59900997  1
  Rh  Rh214  1  0.78630806  0.39970884  0.19040224  1
  Rh  Rh215  1  0.40550324  0.39278713  0.19563422  1
  Rh  Rh216  1  -0.00026103  0.40175346  0.80713305  1
  Rh  Rh217  1  0.19660511  0.20211411  0.60187552  1
  Rh  Rh218  1  0.60013946  0.19539143  0.19096887  1
  Rh  Rh219  1  0.19776095  0.80590433  0.80243335  1
  Rh  Rh220  1  0.80982643  -0.00157137  0.20476245  1
  Rh  Rh221  1  0.18972855  0.60671909  0.59274180  1
  Rh  Rh222  1  0.59916534  0.20002186  0.40219860  1
  Rh  Rh223  1  0.00776781  0.40205747  0.19807144  1
  Rh  Rh224  1  0.80263966  0.80927552  0.80477205  1
  Rh  Rh225  1  0.59622567  0.39975361  0.00886627  1
  Rh  Rh226  1  0.40880684  0.59871050  0.00113890  1
  Rh  Rh227  1  0.40177386  0.59626186  0.61545793  1
  Rh  Rh228  1  0.40022199  0.80013922  0.79695663  1
  Rh  Rh229  1  0.60173084  0.79947041  0.19954645  1
  Rh  Rh230  1  0.20204360  -0.00559608  0.59381843  1
  Rh  Rh231  1  0.80726406  0.60215675  -0.00319491  1
  Rh  Rh232  1  0.79191171  0.59492148  0.79879407  1
  Rh  Rh233  1  0.80215958  0.19934124  0.59383307  1
  Rh  Rh234  1  0.59359604  0.60223729  0.00469575  1
  Rh  Rh235  1  0.59290669  0.01139209  0.19005527  1
  Rh  Rh236  1  0.59797309  -0.00097083  0.60132297  1
  Rh  Rh237  1  0.40788602  0.78304857  0.01098139  1
  Rh  Rh238  1  0.19738459  0.19249481  0.79485115  1
  Rh  Rh239  1  0.20119617  0.19461599  0.40434487  1
  Rh  Rh240  1  0.00458856  0.00731994  0.59844419  1
  Rh  Rh241  1  0.00255655  0.20167998  0.78744903  1
  Rh  Rh242  1  0.79518961  0.19504721  0.80089807  1
  Rh  Rh243  1  0.01489939  0.00953085  0.39589839  1
  Rh  Rh244  1  0.80792984  0.80836954  0.19948834  1
  Rh  Rh245  1  0.60582707  0.19098725  0.00709619  1
  Rh  Rh246  1  0.40033323  0.00948620  -0.00762509  1
  Rh  Rh247  1  -0.01448670  0.78302945  -0.00059972  1
  Rh  Rh248  1  0.79123307  0.40061794  0.80459062  1
  Rh  Rh249  1  0.20928856  0.79974021  0.40819926  1
