# generated using pymatgen
data_ZrScNbPdRh
_symmetry_space_group_name_H-M   'P 1'
_cell_length_a   16.56304275
_cell_length_b   16.56166157
_cell_length_c   16.56536824
_cell_angle_alpha   89.98601786
_cell_angle_beta   90.02378093
_cell_angle_gamma   89.98541712
_symmetry_Int_Tables_number   1
_chemical_formula_structural   ZrScNbPdRh
_chemical_formula_sum   'Zr50 Sc50 Nb50 Pd50 Rh50'
_cell_volume   4544.07047871
_cell_formula_units_Z   50
loop_
 _symmetry_equiv_pos_site_id
 _symmetry_equiv_pos_as_xyz
  1  'x, y, z'
loop_
 _atom_site_type_symbol
 _atom_site_label
 _atom_site_symmetry_multiplicity
 _atom_site_fract_x
 _atom_site_fract_y
 _atom_site_fract_z
 _atom_site_occupancy
  Zr  Zr0  1  0.89566808  0.09578876  0.49631894  1
  Zr  Zr1  1  0.29882586  0.70062982  0.70554804  1
  Zr  Zr2  1  0.49947166  0.90447503  0.09918056  1
  Zr  Zr3  1  0.50326423  0.68154791  0.90064385  1
  Zr  Zr4  1  0.70058410  0.90033536  0.70058903  1
  Zr  Zr5  1  0.49946868  0.90815925  0.49708417  1
  Zr  Zr6  1  0.29323674  0.29490073  0.70426273  1
  Zr  Zr7  1  0.30549790  0.70147885  0.28836062  1
  Zr  Zr8  1  0.50623089  0.29730014  0.50304307  1
  Zr  Zr9  1  0.49914050  0.09732586  0.30005621  1
  Zr  Zr10  1  0.90119101  0.10001151  0.89994415  1
  Zr  Zr11  1  0.30307789  0.69502589  0.90152016  1
  Zr  Zr12  1  0.89922440  0.90789684  0.88817267  1
  Zr  Zr13  1  0.09680017  0.69534928  0.49086689  1
  Zr  Zr14  1  0.90318400  0.30578578  0.30325422  1
  Zr  Zr15  1  0.09427185  0.10405108  0.50037408  1
  Zr  Zr16  1  0.49578134  0.09242589  0.70058636  1
  Zr  Zr17  1  0.29897289  0.10320766  0.10330447  1
  Zr  Zr18  1  0.89754456  0.90328721  0.30986952  1
  Zr  Zr19  1  0.69627883  0.69895802  0.28649045  1
  Zr  Zr20  1  0.50542382  0.70676173  0.50391254  1
  Zr  Zr21  1  0.10153170  0.50408849  0.10601733  1
  Zr  Zr22  1  0.10840683  0.89571754  0.30225382  1
  Zr  Zr23  1  0.70164422  0.89590003  0.89169647  1
  Zr  Zr24  1  0.49596303  0.30325428  0.29599941  1
  Zr  Zr25  1  0.10435750  0.70394716  0.90054381  1
  Zr  Zr26  1  0.50038641  0.30290225  0.69924329  1
  Zr  Zr27  1  0.50131963  0.69602181  0.30147343  1
  Zr  Zr28  1  0.70105187  0.29878344  0.69844654  1
  Zr  Zr29  1  0.30180959  0.49528070  0.69829547  1
  Zr  Zr30  1  0.29761225  0.49862515  0.50259404  1
  Zr  Zr31  1  0.69415558  0.09092732  0.10511827  1
  Zr  Zr32  1  0.50757044  0.89986976  0.69106012  1
  Zr  Zr33  1  0.30300734  0.91172872  0.69655072  1
  Zr  Zr34  1  0.09944808  0.49800290  0.70967647  1
  Zr  Zr35  1  0.70618383  0.89684333  0.29159774  1
  Zr  Zr36  1  0.29849815  0.49758038  0.09811265  1
  Zr  Zr37  1  0.28858415  0.30840003  0.50415204  1
  Zr  Zr38  1  0.10748348  0.89403225  0.09390419  1
  Zr  Zr39  1  0.30501098  0.90256761  0.30045273  1
  Zr  Zr40  1  0.50049575  0.69466355  0.10696174  1
  Zr  Zr41  1  0.89695045  0.69490519  0.09987262  1
  Zr  Zr42  1  0.30030679  0.10249836  0.29865301  1
  Zr  Zr43  1  0.90120016  0.49943557  0.48453946  1
  Zr  Zr44  1  0.88792283  0.29930201  0.90359143  1
  Zr  Zr45  1  0.29490268  0.89230137  0.89748345  1
  Zr  Zr46  1  0.89866162  0.30441646  0.10357459  1
  Zr  Zr47  1  0.49637421  0.90068851  0.89980659  1
  Zr  Zr48  1  0.69649443  0.11054703  0.89724975  1
  Zr  Zr49  1  0.49643520  0.10000317  0.10265733  1
  Sc  Sc50  1  0.49708207  0.69783451  0.70229023  1
  Sc  Sc51  1  0.30764913  0.49744156  0.30908820  1
  Sc  Sc52  1  0.09898970  0.50619431  0.30721385  1
  Sc  Sc53  1  0.70660702  0.50511219  0.30019446  1
  Sc  Sc54  1  0.29373732  0.10291985  0.88748175  1
  Sc  Sc55  1  0.90466877  0.49613029  0.70978349  1
  Sc  Sc56  1  0.29399308  0.08825759  0.50236431  1
  Sc  Sc57  1  0.09841137  0.10540563  0.09189865  1
  Sc  Sc58  1  0.70152206  0.70213993  0.48265862  1
  Sc  Sc59  1  0.69867602  0.30714705  0.29692957  1
  Sc  Sc60  1  0.10808865  0.30644349  0.90185352  1
  Sc  Sc61  1  0.10393699  0.69931851  0.70695702  1
  Sc  Sc62  1  0.10865744  0.90141412  0.49484677  1
  Sc  Sc63  1  0.09312759  0.09462304  0.89986848  1
  Sc  Sc64  1  0.30921786  0.69546626  0.49897170  1
  Sc  Sc65  1  0.10625875  0.09935285  0.69799240  1
  Sc  Sc66  1  0.10654497  0.50320722  0.90218525  1
  Sc  Sc67  1  0.50137724  0.49926863  0.09721672  1
  Sc  Sc68  1  0.90006116  0.69359965  0.70996525  1
  Sc  Sc69  1  0.70061030  0.31038801  0.09278614  1
  Sc  Sc70  1  0.49631970  0.50634879  0.69829368  1
  Sc  Sc71  1  0.50133864  0.30898648  0.10464284  1
  Sc  Sc72  1  0.30696212  0.89205630  0.09646254  1
  Sc  Sc73  1  0.29539393  0.30229288  0.10054349  1
  Sc  Sc74  1  0.09955274  0.30253711  0.68961464  1
  Sc  Sc75  1  0.90779479  0.10812250  0.09325795  1
  Sc  Sc76  1  0.90251212  0.09517888  0.30810109  1
  Sc  Sc77  1  0.30021425  0.90097841  0.49959351  1
  Sc  Sc78  1  0.89758056  0.70076498  0.90190974  1
  Sc  Sc79  1  0.10924788  0.69717394  0.29510332  1
  Sc  Sc80  1  0.50635626  0.09938683  0.89860643  1
  Sc  Sc81  1  0.69409059  0.90465642  0.49694359  1
  Sc  Sc82  1  0.70478593  0.49740028  0.49144966  1
  Sc  Sc83  1  0.89004693  0.89400037  0.10116275  1
  Sc  Sc84  1  0.10010255  0.10424509  0.30857981  1
  Sc  Sc85  1  0.51206253  0.29660818  0.90579898  1
  Sc  Sc86  1  0.10794581  0.69578356  0.10029656  1
  Sc  Sc87  1  0.89687559  0.70051600  0.31226722  1
  Sc  Sc88  1  0.09810515  0.29180662  0.10435865  1
  Sc  Sc89  1  0.10295820  0.90629691  0.89991224  1
  Sc  Sc90  1  0.89729882  0.49905955  0.29241711  1
  Sc  Sc91  1  0.69632942  0.09715108  0.69680130  1
  Sc  Sc92  1  0.11147826  0.90343522  0.70126605  1
  Sc  Sc93  1  0.48632571  0.50337697  0.50546517  1
  Sc  Sc94  1  0.69614219  0.09367259  0.30317833  1
  Sc  Sc95  1  0.29525309  0.49889077  0.90557251  1
  Sc  Sc96  1  0.89262956  0.09286623  0.70102905  1
  Sc  Sc97  1  0.69646158  0.51070104  0.90361871  1
  Sc  Sc98  1  0.90202652  0.50596468  0.89695025  1
  Sc  Sc99  1  0.69499768  0.70552018  0.71427364  1
  Nb  Nb100  1  0.89722005  0.89683262  0.49761645  1
  Nb  Nb101  1  0.70004170  0.70164453  0.10066680  1
  Nb  Nb102  1  0.09265334  0.30133667  0.49596862  1
  Nb  Nb103  1  0.90205214  0.29947225  0.50289289  1
  Nb  Nb104  1  0.10788922  0.29337585  0.30809583  1
  Nb  Nb105  1  0.89895601  0.70088510  0.50098399  1
  Nb  Nb106  1  0.69871991  0.29668833  0.49976699  1
  Nb  Nb107  1  0.70157517  0.50112760  0.69504335  1
  Nb  Nb108  1  0.50214587  0.49646997  0.29997834  1
  Nb  Nb109  1  0.90051273  0.30114907  0.69975934  1
  Nb  Nb110  1  0.68793426  0.10751470  0.49265557  1
  Nb  Nb111  1  0.30127337  0.30337356  0.90034994  1
  Nb  Nb112  1  0.30076287  0.69525128  0.10157416  1
  Nb  Nb113  1  0.70108217  0.89079715  0.10299494  1
  Nb  Nb114  1  0.29536292  0.29931669  0.30289614  1
  Nb  Nb115  1  0.90011536  0.49715331  0.10319879  1
  Nb  Nb116  1  0.71209545  0.51399359  0.10889467  1
  Nb  Nb117  1  0.49456516  0.89833434  0.29930278  1
  Nb  Nb118  1  0.69434873  0.69969900  0.90614938  1
  Nb  Nb119  1  0.69739223  0.30192756  0.89397731  1
  Nb  Nb120  1  0.89369872  0.90055329  0.70001018  1
  Nb  Nb121  1  0.10127418  0.49773550  0.50199500  1
  Nb  Nb122  1  0.29897767  0.10362797  0.69373069  1
  Nb  Nb123  1  0.49950590  0.50000599  0.89725075  1
  Nb  Nb124  1  0.50598228  0.10115035  0.49295549  1
  Nb  Nb125  1  -0.00265970  0.80857917  0.79459174  1
  Nb  Nb126  1  0.60541515  0.79496232  0.00316964  1
  Nb  Nb127  1  0.39828680  0.19494783  0.59672522  1
  Nb  Nb128  1  0.19915537  0.39366515  0.21218207  1
  Nb  Nb129  1  0.59559225  0.39983901  0.40101497  1
  Nb  Nb130  1  0.00638784  -0.00700249  0.20043054  1
  Nb  Nb131  1  0.39902323  0.20112800  0.40566499  1
  Nb  Nb132  1  0.40434645  0.39725056  0.80780331  1
  Nb  Nb133  1  0.00027726  0.80270138  0.20126292  1
  Nb  Nb134  1  0.80133106  0.20144767  0.20420516  1
  Nb  Nb135  1  0.19390473  0.59627152  0.59765379  1
  Nb  Nb136  1  0.79602600  0.20530564  0.40435899  1
  Nb  Nb137  1  -0.00504984  0.40390741  0.00780525  1
  Nb  Nb138  1  0.19812712  0.00023506  0.19851740  1
  Nb  Nb139  1  -0.00117783  0.60043086  0.59550230  1
  Nb  Nb140  1  -0.00696614  0.20621170  0.79634662  1
  Nb  Nb141  1  0.80184557  0.59965089  0.59843574  1
  Nb  Nb142  1  0.80535754  0.79656542  0.59851080  1
  Nb  Nb143  1  0.80409080  0.39720472  0.59798074  1
  Nb  Nb144  1  -0.00689431  -0.01192882  0.59883522  1
  Nb  Nb145  1  0.79280366  -0.00139049  -0.00024867  1
  Nb  Nb146  1  0.60219885  0.40404149  0.80125558  1
  Nb  Nb147  1  0.39667697  0.20369174  -0.00339344  1
  Nb  Nb148  1  -0.00594917  0.80037923  0.60059956  1
  Nb  Nb149  1  0.61031006  0.60127337  0.59953631  1
  Pd  Pd150  1  -0.00172349  0.19132523  0.20992529  1
  Pd  Pd151  1  0.00657421  0.40072166  0.39470566  1
  Pd  Pd152  1  0.21212114  0.79160520  0.40287041  1
  Pd  Pd153  1  -0.00484209  0.40760572  0.59876571  1
  Pd  Pd154  1  0.59700257  0.20345163  0.01095138  1
  Pd  Pd155  1  0.80126349  0.59770345  -0.00225864  1
  Pd  Pd156  1  0.60707387  -0.00838158  -0.00515516  1
  Pd  Pd157  1  0.39089399  0.01176775  -0.00959023  1
  Pd  Pd158  1  0.20794659  0.60078741  0.39943178  1
  Pd  Pd159  1  0.18629126  0.20034829  0.80242725  1
  Pd  Pd160  1  0.60845762  0.41055691  0.20242174  1
  Pd  Pd161  1  0.59371256  0.58892801  0.40677066  1
  Pd  Pd162  1  0.40381357  0.39430525  -0.00442817  1
  Pd  Pd163  1  0.01140622  0.39878536  0.20208169  1
  Pd  Pd164  1  0.20746277  0.00305839  0.00237096  1
  Pd  Pd165  1  0.60816757  0.20428869  0.19954733  1
  Pd  Pd166  1  0.79443909  -0.00382203  0.59146333  1
  Pd  Pd167  1  0.79873773  0.41207988  -0.00391354  1
  Pd  Pd168  1  -0.00330526  0.80430648  -0.00200367  1
  Pd  Pd169  1  0.39731189  0.20963565  0.19674724  1
  Pd  Pd170  1  0.00083013  0.39172283  0.81295318  1
  Pd  Pd171  1  -0.00918638  -0.00985100  0.01021797  1
  Pd  Pd172  1  0.80195019  0.20147942  0.59612422  1
  Pd  Pd173  1  0.79410318  0.60076775  0.79890232  1
  Pd  Pd174  1  0.39680868  0.00137644  0.80483106  1
  Pd  Pd175  1  0.00235373  0.59514888  -0.00272567  1
  Pd  Pd176  1  0.39848436  0.79826411  0.40150265  1
  Pd  Pd177  1  0.59468531  0.19191679  0.60759389  1
  Pd  Pd178  1  0.81284573  0.01001022  0.19308862  1
  Pd  Pd179  1  0.79843664  0.80239287  -0.00531189  1
  Pd  Pd180  1  0.40811892  0.78956352  0.00059979  1
  Pd  Pd181  1  0.79127804  0.19468831  0.01131579  1
  Pd  Pd182  1  0.40029495  0.58812127  0.20096269  1
  Pd  Pd183  1  0.00335600  0.80058890  0.39760586  1
  Pd  Pd184  1  0.60225772  0.80773735  0.39259401  1
  Pd  Pd185  1  0.59639504  -0.00806365  0.20671752  1
  Pd  Pd186  1  0.20614746  0.19591734  0.41026684  1
  Pd  Pd187  1  0.79337188  0.40607263  0.79883314  1
  Pd  Pd188  1  0.60484659  0.41215233  0.59529427  1
  Pd  Pd189  1  0.19572575  0.79288069  0.59715422  1
  Pd  Pd190  1  -0.00429048  0.19075832  0.60773236  1
  Pd  Pd191  1  0.58842371  0.79764066  0.80575918  1
  Pd  Pd192  1  0.20198705  0.19971090  -0.00634646  1
  Pd  Pd193  1  0.60747625  0.41072460  -0.00238304  1
  Pd  Pd194  1  -0.00392345  0.60973319  0.20715090  1
  Pd  Pd195  1  0.40448494  0.39481359  0.40364128  1
  Pd  Pd196  1  0.80254935  0.19630159  0.79347974  1
  Pd  Pd197  1  0.40544703  0.80057978  0.79685432  1
  Pd  Pd198  1  0.40556806  0.20441946  0.80316327  1
  Pd  Pd199  1  0.39821420  0.80173191  0.60117702  1
  Rh  Rh200  1  0.39851093  0.59708152  0.00251918  1
  Rh  Rh201  1  0.20636083  0.40051185  0.80010164  1
  Rh  Rh202  1  0.19305723  0.00058025  0.59846731  1
  Rh  Rh203  1  0.20689179  0.79245968  0.00144333  1
  Rh  Rh204  1  0.80618216  0.79126230  0.79831529  1
  Rh  Rh205  1  0.40618629  0.60224047  0.39868754  1
  Rh  Rh206  1  0.19974245  0.00329800  0.39431457  1
  Rh  Rh207  1  0.18953930  0.40383274  0.60167866  1
  Rh  Rh208  1  0.59952581  0.20815984  0.39014236  1
  Rh  Rh209  1  0.79316684  0.39073185  0.40417628  1
  Rh  Rh210  1  0.59235835  0.80430086  0.19684874  1
  Rh  Rh211  1  0.39450960  0.58924007  0.80144720  1
  Rh  Rh212  1  0.39455795  -0.00536096  0.19808138  1
  Rh  Rh213  1  0.20086877  0.19977060  0.59367245  1
  Rh  Rh214  1  0.00571839  0.60983788  0.80300686  1
  Rh  Rh215  1  0.39823070  0.60878015  0.60288086  1
  Rh  Rh216  1  0.00679427  0.00257823  0.78627544  1
  Rh  Rh217  1  0.80033203  0.60187072  0.39711535  1
  Rh  Rh218  1  0.20026329  0.80178098  0.19330265  1
  Rh  Rh219  1  -0.00145007  0.59896105  0.39751615  1
  Rh  Rh220  1  0.61308022  0.78876086  0.59909403  1
  Rh  Rh221  1  0.60317775  0.59895738  0.01090499  1
  Rh  Rh222  1  0.79291024  0.80208374  0.40068164  1
  Rh  Rh223  1  0.78785829  0.00588405  0.40671513  1
  Rh  Rh224  1  0.20384963  0.59653580  0.79774742  1
  Rh  Rh225  1  0.19136316  0.40209692  0.39645914  1
  Rh  Rh226  1  0.18849883  0.39778000  0.01347285  1
  Rh  Rh227  1  0.39518647  0.39018655  0.60754168  1
  Rh  Rh228  1  0.20347657  0.00261406  0.79826591  1
  Rh  Rh229  1  0.59895606  0.20528135  0.79485374  1
  Rh  Rh230  1  0.79549937  0.39830051  0.19766430  1
  Rh  Rh231  1  0.81029778  0.79148295  0.20432671  1
  Rh  Rh232  1  0.19521033  0.19907173  0.20175748  1
  Rh  Rh233  1  0.60254274  0.00557212  0.59591113  1
  Rh  Rh234  1  0.00350722  0.21412895  -0.01552993  1
  Rh  Rh235  1  0.78983448  0.00945812  0.80514810  1
  Rh  Rh236  1  0.60339281  0.59273153  0.79144855  1
  Rh  Rh237  1  0.59977810  0.59213163  0.19632059  1
  Rh  Rh238  1  0.40200321  0.00595044  0.40147701  1
  Rh  Rh239  1  0.60096850  0.00043560  0.80023328  1
  Rh  Rh240  1  0.80722384  0.60571589  0.20386757  1
  Rh  Rh241  1  0.21009275  0.58939574  0.20546368  1
  Rh  Rh242  1  0.00717236  -0.00570656  0.40397630  1
  Rh  Rh243  1  0.20325697  0.60417592  0.00097430  1
  Rh  Rh244  1  0.38992952  0.40283439  0.20135054  1
  Rh  Rh245  1  0.40393337  0.80219273  0.19728593  1
  Rh  Rh246  1  -0.00796353  0.20482670  0.39981259  1
  Rh  Rh247  1  0.40303003  0.00557084  0.59371358  1
  Rh  Rh248  1  0.60027105  -0.00655764  0.39292655  1
  Rh  Rh249  1  0.19455697  0.80366623  0.80182846  1
