# generated using pymatgen
data_ZrScNbPdRh
_symmetry_space_group_name_H-M   'P 1'
_cell_length_a   16.55748101
_cell_length_b   16.55912241
_cell_length_c   16.56247967
_cell_angle_alpha   90.01556988
_cell_angle_beta   90.01096877
_cell_angle_gamma   90.04064199
_symmetry_Int_Tables_number   1
_chemical_formula_structural   ZrScNbPdRh
_chemical_formula_sum   'Zr50 Sc50 Nb50 Pd50 Rh50'
_cell_volume   4541.05547229
_cell_formula_units_Z   50
loop_
 _symmetry_equiv_pos_site_id
 _symmetry_equiv_pos_as_xyz
  1  'x, y, z'
loop_
 _atom_site_type_symbol
 _atom_site_label
 _atom_site_symmetry_multiplicity
 _atom_site_fract_x
 _atom_site_fract_y
 _atom_site_fract_z
 _atom_site_occupancy
  Zr  Zr0  1  0.50313862  0.90067052  0.50830728  1
  Zr  Zr1  1  0.30200234  0.70295450  0.29293700  1
  Zr  Zr2  1  0.69709334  0.89141029  0.70228467  1
  Zr  Zr3  1  0.49241915  0.29919611  0.29569710  1
  Zr  Zr4  1  0.49772030  0.49589131  0.09157497  1
  Zr  Zr5  1  0.30191662  0.49933147  0.08739212  1
  Zr  Zr6  1  0.50699904  0.49048650  0.30822678  1
  Zr  Zr7  1  0.49502843  0.90674364  0.89914478  1
  Zr  Zr8  1  0.70357200  0.70023577  0.88664165  1
  Zr  Zr9  1  0.48748824  0.10252963  0.69890497  1
  Zr  Zr10  1  0.29439289  0.89688812  0.50034950  1
  Zr  Zr11  1  0.10633090  0.49667470  0.10053716  1
  Zr  Zr12  1  0.69451332  0.89826451  0.30202609  1
  Zr  Zr13  1  0.30603931  0.89979155  0.10208918  1
  Zr  Zr14  1  0.50124108  0.49815491  0.90059421  1
  Zr  Zr15  1  0.49989230  0.50891431  0.49954917  1
  Zr  Zr16  1  0.70324035  0.09901111  0.29893996  1
  Zr  Zr17  1  0.70000420  0.71039286  0.30767911  1
  Zr  Zr18  1  0.69760338  0.49874848  0.89407475  1
  Zr  Zr19  1  0.70423579  0.50652976  0.30796425  1
  Zr  Zr20  1  0.89898574  0.30253304  0.50696113  1
  Zr  Zr21  1  0.10042306  0.50180952  0.29739498  1
  Zr  Zr22  1  0.70822767  0.70144487  0.11076456  1
  Zr  Zr23  1  0.30188106  0.50073632  0.51425282  1
  Zr  Zr24  1  0.50404110  0.30133804  0.09573945  1
  Zr  Zr25  1  0.90070899  0.69151191  0.89971624  1
  Zr  Zr26  1  0.09711449  0.90053773  0.69873649  1
  Zr  Zr27  1  0.88996853  0.90147217  0.31022933  1
  Zr  Zr28  1  0.30524623  0.69455050  0.50486325  1
  Zr  Zr29  1  0.90145747  0.70133937  0.70442117  1
  Zr  Zr30  1  0.09418947  0.29995555  0.89998315  1
  Zr  Zr31  1  0.69977710  0.49802382  0.09839773  1
  Zr  Zr32  1  0.49462932  0.11108518  0.30751166  1
  Zr  Zr33  1  0.10550024  0.10108485  0.70568474  1
  Zr  Zr34  1  0.68989653  0.90581849  0.10713107  1
  Zr  Zr35  1  0.29923388  0.29951371  0.10254656  1
  Zr  Zr36  1  0.50082949  0.29923713  0.90213343  1
  Zr  Zr37  1  0.09836966  0.68912852  0.89639839  1
  Zr  Zr38  1  0.89950973  0.29582257  0.89416300  1
  Zr  Zr39  1  0.69521591  0.50384515  0.70220342  1
  Zr  Zr40  1  0.69149283  0.69572566  0.50351204  1
  Zr  Zr41  1  0.10282627  0.91053494  0.89760680  1
  Zr  Zr42  1  0.90098741  0.10778957  0.70347686  1
  Zr  Zr43  1  0.09730339  0.09874493  0.49325453  1
  Zr  Zr44  1  0.90743294  0.90451789  0.50167917  1
  Zr  Zr45  1  0.90200763  0.50040037  0.30344942  1
  Zr  Zr46  1  0.10773756  0.29638396  0.09461502  1
  Zr  Zr47  1  0.09980470  0.49159791  0.50680036  1
  Zr  Zr48  1  0.90236823  0.29274320  0.30140919  1
  Zr  Zr49  1  0.29314190  0.89896957  0.29755770  1
  Sc  Sc50  1  0.69617642  0.30169409  0.89222689  1
  Sc  Sc51  1  0.49533744  0.30429625  0.48764819  1
  Sc  Sc52  1  0.90451821  0.09911956  0.29903519  1
  Sc  Sc53  1  0.10322036  0.68805721  0.10514940  1
  Sc  Sc54  1  0.50026457  0.09807311  0.09183499  1
  Sc  Sc55  1  0.90560034  0.49378234  0.69638852  1
  Sc  Sc56  1  0.70072242  0.10610880  0.09790606  1
  Sc  Sc57  1  0.89174886  0.30315496  0.70292908  1
  Sc  Sc58  1  0.29309297  0.29363699  0.90515280  1
  Sc  Sc59  1  0.90023674  0.70411715  0.50988438  1
  Sc  Sc60  1  0.29384213  0.69726063  0.69024400  1
  Sc  Sc61  1  0.89388394  0.69877944  0.29358984  1
  Sc  Sc62  1  0.70467213  0.89299058  0.49311867  1
  Sc  Sc63  1  0.29412145  0.29209243  0.69501629  1
  Sc  Sc64  1  0.49696364  0.29876353  0.70614587  1
  Sc  Sc65  1  0.29371199  0.29944451  0.50651638  1
  Sc  Sc66  1  0.10335089  0.29867134  0.49887288  1
  Sc  Sc67  1  0.89309236  0.10378655  0.09752265  1
  Sc  Sc68  1  0.90079100  0.90530036  0.89811044  1
  Sc  Sc69  1  0.30095351  0.10132450  0.09829279  1
  Sc  Sc70  1  0.50230160  0.50383099  0.69914667  1
  Sc  Sc71  1  0.10038953  0.30061412  0.70054880  1
  Sc  Sc72  1  0.11086060  0.70637671  0.51834879  1
  Sc  Sc73  1  0.69798412  0.10869310  0.70053663  1
  Sc  Sc74  1  0.09914396  0.09377319  0.10104821  1
  Sc  Sc75  1  0.90285750  0.51725550  0.10329315  1
  Sc  Sc76  1  0.69476485  0.90253722  0.89481315  1
  Sc  Sc77  1  0.90333706  0.28655604  0.09403931  1
  Sc  Sc78  1  0.10824360  0.28936581  0.30649666  1
  Sc  Sc79  1  0.69874148  0.09926459  0.50251197  1
  Sc  Sc80  1  0.29923190  0.69214392  0.09949623  1
  Sc  Sc81  1  0.30818883  0.90348270  0.89964303  1
  Sc  Sc82  1  0.50698290  0.70297241  0.69594978  1
  Sc  Sc83  1  0.90687753  0.89388479  0.70206792  1
  Sc  Sc84  1  0.30397768  0.89841663  0.70596166  1
  Sc  Sc85  1  0.90093471  0.91479134  0.09785447  1
  Sc  Sc86  1  0.50346814  0.89642152  0.70769945  1
  Sc  Sc87  1  0.09958609  0.49473293  0.89791024  1
  Sc  Sc88  1  0.68810582  0.29853877  0.29939080  1
  Sc  Sc89  1  0.10286199  0.10034972  0.89286643  1
  Sc  Sc90  1  0.11140736  0.70018331  0.28860320  1
  Sc  Sc91  1  0.49884475  0.89766640  0.28879806  1
  Sc  Sc92  1  0.49318693  0.70854336  0.89276431  1
  Sc  Sc93  1  0.89639493  0.49444775  0.50187407  1
  Sc  Sc94  1  0.50336772  0.70065672  0.30394739  1
  Sc  Sc95  1  0.30179538  0.10121787  0.30001677  1
  Sc  Sc96  1  0.30325819  0.49241117  0.29678948  1
  Sc  Sc97  1  0.48757752  0.70179279  0.10712598  1
  Sc  Sc98  1  0.10035122  0.49798513  0.70314400  1
  Sc  Sc99  1  0.69401768  0.10856965  0.90411386  1
  Nb  Nb100  1  0.89784161  0.09966545  0.49850567  1
  Nb  Nb101  1  0.30621262  0.09728245  0.88393320  1
  Nb  Nb102  1  0.29666423  0.10572442  0.69770618  1
  Nb  Nb103  1  0.70297141  0.30408753  0.69465249  1
  Nb  Nb104  1  0.10562374  0.90163133  0.29922377  1
  Nb  Nb105  1  0.89511365  0.10573075  0.89497808  1
  Nb  Nb106  1  0.30983705  0.09984104  0.51571412  1
  Nb  Nb107  1  0.90112879  0.49358279  0.89660624  1
  Nb  Nb108  1  0.10289144  0.90055073  0.09960086  1
  Nb  Nb109  1  0.29993375  0.50593428  0.90038444  1
  Nb  Nb110  1  0.09503258  0.70158508  0.70397232  1
  Nb  Nb111  1  0.30277897  0.28970211  0.29122048  1
  Nb  Nb112  1  0.70452177  0.29862939  0.09465662  1
  Nb  Nb113  1  0.10272212  0.90100885  0.49681339  1
  Nb  Nb114  1  0.50009128  0.70095995  0.49890314  1
  Nb  Nb115  1  0.70718526  0.30183151  0.50872018  1
  Nb  Nb116  1  0.49472851  0.09936664  0.50391685  1
  Nb  Nb117  1  0.90402915  0.70595734  0.09908582  1
  Nb  Nb118  1  0.30142567  0.49714178  0.70020758  1
  Nb  Nb119  1  0.69992148  0.70029322  0.70238690  1
  Nb  Nb120  1  0.49934449  0.89846501  0.09377252  1
  Nb  Nb121  1  0.29548902  0.69616135  0.90129591  1
  Nb  Nb122  1  0.69638682  0.49602191  0.49891559  1
  Nb  Nb123  1  0.48955722  0.10409279  0.89566258  1
  Nb  Nb124  1  0.10294695  0.09896281  0.30057849  1
  Nb  Nb125  1  0.60090047  0.60937922  0.00229076  1
  Nb  Nb126  1  0.59723628  0.20557274  0.59457097  1
  Nb  Nb127  1  0.80362464  0.40121559  0.00062905  1
  Nb  Nb128  1  0.01153126  0.80169067  0.39637023  1
  Nb  Nb129  1  0.00995193  0.60767152  0.40317079  1
  Nb  Nb130  1  0.19524869  0.80061697  -0.00277404  1
  Nb  Nb131  1  0.80040889  0.00554988  0.79567090  1
  Nb  Nb132  1  0.80310359  0.00172517  0.60354870  1
  Nb  Nb133  1  0.19737523  0.79426561  0.80452621  1
  Nb  Nb134  1  0.39115048  0.40546563  0.80219628  1
  Nb  Nb135  1  0.20178144  0.00295206  0.59736846  1
  Nb  Nb136  1  0.00469584  0.80861533  0.19909346  1
  Nb  Nb137  1  -0.00396224  0.19607329  0.59658273  1
  Nb  Nb138  1  0.80007296  0.20071712  0.40660451  1
  Nb  Nb139  1  0.80327741  0.39582647  0.19475115  1
  Nb  Nb140  1  0.60150003  0.59777870  0.19912861  1
  Nb  Nb141  1  0.60063374  0.79923448  0.00486478  1
  Nb  Nb142  1  -0.00052935  0.39553751  0.19868044  1
  Nb  Nb143  1  0.80105756  0.79932874  0.00213311  1
  Nb  Nb144  1  0.39042812  0.59734827  0.80034953  1
  Nb  Nb145  1  0.59253854  0.00445354  0.40233566  1
  Nb  Nb146  1  0.19925929  0.59774246  0.40484353  1
  Nb  Nb147  1  0.39960397  0.80012872  0.40482003  1
  Nb  Nb148  1  0.60518339  0.39717375  0.59594029  1
  Nb  Nb149  1  0.00221137  0.80011884  0.00612691  1
  Pd  Pd150  1  0.00155041  0.00599729  0.60425618  1
  Pd  Pd151  1  0.20496384  0.39406977  0.80142583  1
  Pd  Pd152  1  0.80834020  0.59094191  0.79074859  1
  Pd  Pd153  1  0.21077838  0.19344501  0.40412407  1
  Pd  Pd154  1  -0.00026201  -0.00193023  0.20667255  1
  Pd  Pd155  1  0.40649907  0.58993013  0.20618964  1
  Pd  Pd156  1  0.39678983  0.19709624  -0.00024973  1
  Pd  Pd157  1  0.60252920  0.01047015  0.79865180  1
  Pd  Pd158  1  0.39564708  -0.00807555  0.60907336  1
  Pd  Pd159  1  0.60538584  0.40257230  0.19987526  1
  Pd  Pd160  1  0.19644379  0.39375547  0.20562087  1
  Pd  Pd161  1  -0.00885390  0.40492096  0.00926026  1
  Pd  Pd162  1  0.40386876  -0.00756021  0.39799638  1
  Pd  Pd163  1  0.20982157  0.00088998  -0.00300743  1
  Pd  Pd164  1  0.60501690  0.19944834  0.40856813  1
  Pd  Pd165  1  0.58931199  0.01080343  0.20556496  1
  Pd  Pd166  1  0.80966945  0.60813480  0.40941192  1
  Pd  Pd167  1  0.39753984  0.79578669  0.00029340  1
  Pd  Pd168  1  0.80196985  0.00192978  0.19831739  1
  Pd  Pd169  1  0.00217313  -0.00215759  0.39091279  1
  Pd  Pd170  1  0.00896398  0.19966679  0.19818527  1
  Pd  Pd171  1  0.19980924  0.18748423  -0.00460543  1
  Pd  Pd172  1  0.00259104  0.80108660  0.81087972  1
  Pd  Pd173  1  0.79984188  0.59570678  0.60150709  1
  Pd  Pd174  1  0.79410199  0.39041264  0.39295274  1
  Pd  Pd175  1  0.60683054  0.00473263  0.59922724  1
  Pd  Pd176  1  0.00439021  0.59652466  0.00039294  1
  Pd  Pd177  1  0.79641056  0.60014382  -0.00211329  1
  Pd  Pd178  1  0.59728164  0.19638450  0.19236762  1
  Pd  Pd179  1  0.40805355  0.39397467  0.60628189  1
  Pd  Pd180  1  0.20730059  0.00988931  0.40414929  1
  Pd  Pd181  1  0.20742182  0.40153936  0.39846790  1
  Pd  Pd182  1  0.79818118  0.80494319  0.59912003  1
  Pd  Pd183  1  0.20177549  0.60152926  0.79138501  1
  Pd  Pd184  1  0.00322623  0.18724716  -0.00295384  1
  Pd  Pd185  1  -0.00215768  0.00533054  -0.00483142  1
  Pd  Pd186  1  0.00360286  0.60154127  0.59795219  1
  Pd  Pd187  1  0.20160205  0.00701549  0.19842954  1
  Pd  Pd188  1  0.59860420  0.20017705  0.79385801  1
  Pd  Pd189  1  0.38805519  0.20504859  0.40851605  1
  Pd  Pd190  1  0.40505668  0.00529200  0.19888900  1
  Pd  Pd191  1  0.59861073  0.00050338  -0.00516747  1
  Pd  Pd192  1  0.39968912  0.40196942  0.19638684  1
  Pd  Pd193  1  0.40272193  0.79941366  0.60221154  1
  Pd  Pd194  1  0.79327743  -0.00090113  -0.00894064  1
  Pd  Pd195  1  0.38653898  0.39500392  0.40195764  1
  Pd  Pd196  1  0.81032264  0.81313265  0.19294753  1
  Pd  Pd197  1  0.00401331  0.39966951  0.39686770  1
  Pd  Pd198  1  0.19990759  0.78855556  0.40092092  1
  Pd  Pd199  1  0.39568324  0.60329885  0.39297850  1
  Rh  Rh200  1  0.58774865  0.80839612  0.40353117  1
  Rh  Rh201  1  0.61094456  0.39815819  -0.00303400  1
  Rh  Rh202  1  0.80131371  0.40180121  0.80266163  1
  Rh  Rh203  1  0.81033850  0.79197155  0.40870961  1
  Rh  Rh204  1  0.39113484  0.39099484  -0.00847438  1
  Rh  Rh205  1  0.20172460  0.40151017  -0.00722048  1
  Rh  Rh206  1  0.38843352  0.78802070  0.79522811  1
  Rh  Rh207  1  0.40904165  0.60710635  -0.00960720  1
  Rh  Rh208  1  0.60493135  0.39551587  0.40720576  1
  Rh  Rh209  1  0.20154683  0.20354049  0.80346800  1
  Rh  Rh210  1  0.19794657  0.19389408  0.20106225  1
  Rh  Rh211  1  0.00457896  0.79959399  0.59452627  1
  Rh  Rh212  1  0.59227654  0.79126982  0.19274931  1
  Rh  Rh213  1  0.79115857  0.19849622  0.80334381  1
  Rh  Rh214  1  0.80396526  0.80834437  0.80431429  1
  Rh  Rh215  1  0.19755439  0.81018306  0.61170763  1
  Rh  Rh216  1  0.79644306  0.20466366  0.20727209  1
  Rh  Rh217  1  0.39942464  0.80293611  0.20295376  1
  Rh  Rh218  1  0.20890547  -0.00384759  0.79295572  1
  Rh  Rh219  1  0.58967152  0.60789824  0.80426659  1
  Rh  Rh220  1  0.59282617  0.39757608  0.78967264  1
  Rh  Rh221  1  0.40749302  0.60257450  0.61027862  1
  Rh  Rh222  1  0.40158136  0.19796923  0.19233198  1
  Rh  Rh223  1  0.40750397  0.20913777  0.59726185  1
  Rh  Rh224  1  0.39153897  0.20921156  0.80047487  1
  Rh  Rh225  1  0.00212267  0.38929884  0.60369929  1
  Rh  Rh226  1  0.21226941  0.59178909  0.20300066  1
  Rh  Rh227  1  0.60369023  0.79697258  0.60024367  1
  Rh  Rh228  1  0.19502326  0.59942313  0.00173867  1
  Rh  Rh229  1  0.59814327  0.20151340  -0.00072305  1
  Rh  Rh230  1  0.59935768  0.60214154  0.39673290  1
  Rh  Rh231  1  0.80022410  0.19342088  0.59627219  1
  Rh  Rh232  1  0.00280923  0.20419611  0.79515442  1
  Rh  Rh233  1  0.39878276  0.00641450  -0.00303896  1
  Rh  Rh234  1  0.60033182  0.59831793  0.59919383  1
  Rh  Rh235  1  -0.00102380  0.39866482  0.79798010  1
  Rh  Rh236  1  0.19790335  0.80173809  0.18582913  1
  Rh  Rh237  1  -0.00499894  0.19774236  0.40524227  1
  Rh  Rh238  1  0.19776444  0.39908356  0.60624775  1
  Rh  Rh239  1  0.40028120  0.00044522  0.79389380  1
  Rh  Rh240  1  0.79718490  0.20644389  -0.00640616  1
  Rh  Rh241  1  0.59801582  0.79783314  0.80448143  1
  Rh  Rh242  1  -0.00229661  0.60411128  0.20868554  1
  Rh  Rh243  1  0.79386574  0.41276442  0.60572601  1
  Rh  Rh244  1  0.19251476  0.59279532  0.60368784  1
  Rh  Rh245  1  0.79003616  0.00733432  0.40784475  1
  Rh  Rh246  1  0.79714872  0.59586244  0.20419244  1
  Rh  Rh247  1  -0.00952746  0.00616843  0.80431420  1
  Rh  Rh248  1  0.19013047  0.19155432  0.59520520  1
  Rh  Rh249  1  -0.00385750  0.59092898  0.79610528  1
