# generated using pymatgen
data_ZrScNbPdRh
_symmetry_space_group_name_H-M   'P 1'
_cell_length_a   16.55212628
_cell_length_b   16.55445707
_cell_length_c   16.55089351
_cell_angle_alpha   90.00614356
_cell_angle_beta   90.00876488
_cell_angle_gamma   90.01157248
_symmetry_Int_Tables_number   1
_chemical_formula_structural   ZrScNbPdRh
_chemical_formula_sum   'Zr50 Sc50 Nb50 Pd50 Rh50'
_cell_volume   4535.13438917
_cell_formula_units_Z   50
loop_
 _symmetry_equiv_pos_site_id
 _symmetry_equiv_pos_as_xyz
  1  'x, y, z'
loop_
 _atom_site_type_symbol
 _atom_site_label
 _atom_site_symmetry_multiplicity
 _atom_site_fract_x
 _atom_site_fract_y
 _atom_site_fract_z
 _atom_site_occupancy
  Zr  Zr0  1  0.30760621  0.10127494  0.89779953  1
  Zr  Zr1  1  0.50667521  0.89134847  0.10132263  1
  Zr  Zr2  1  0.10653936  0.69993090  0.49603117  1
  Zr  Zr3  1  0.29620697  0.69850166  0.29524763  1
  Zr  Zr4  1  0.69859809  0.89586031  0.48617696  1
  Zr  Zr5  1  0.70961643  0.29595652  0.30827379  1
  Zr  Zr6  1  0.10715301  0.90469213  0.89731742  1
  Zr  Zr7  1  0.10446415  0.70522001  0.69244444  1
  Zr  Zr8  1  0.89890295  0.49825038  0.10234629  1
  Zr  Zr9  1  0.10689538  0.29906604  0.50044147  1
  Zr  Zr10  1  0.49483269  0.30046942  0.49422628  1
  Zr  Zr11  1  0.70285868  0.50074247  0.29169457  1
  Zr  Zr12  1  0.89388131  0.10048230  0.70070474  1
  Zr  Zr13  1  0.09791024  0.89145253  0.49392422  1
  Zr  Zr14  1  0.10556247  0.09486841  0.90325970  1
  Zr  Zr15  1  0.70001550  0.09961889  0.90266152  1
  Zr  Zr16  1  0.50394728  0.70138912  0.90568603  1
  Zr  Zr17  1  0.10008643  0.10201896  0.69914645  1
  Zr  Zr18  1  0.29862673  0.49970421  0.10672460  1
  Zr  Zr19  1  0.29555754  0.49683198  0.90397606  1
  Zr  Zr20  1  0.90191462  0.49346073  0.90041672  1
  Zr  Zr21  1  0.10135789  0.50400374  0.49263500  1
  Zr  Zr22  1  0.70248497  0.90931777  0.90163691  1
  Zr  Zr23  1  0.89799602  0.30559822  0.90393406  1
  Zr  Zr24  1  0.29681721  0.50111586  0.70938342  1
  Zr  Zr25  1  0.30536781  0.69876100  0.88393441  1
  Zr  Zr26  1  0.49521316  0.30029439  0.09164362  1
  Zr  Zr27  1  0.30474821  0.48740364  0.49720734  1
  Zr  Zr28  1  0.69770259  0.50113573  0.89878295  1
  Zr  Zr29  1  0.90210904  0.69494505  0.70423494  1
  Zr  Zr30  1  0.70116350  0.89663364  0.29238181  1
  Zr  Zr31  1  0.50446521  0.90569825  0.90364312  1
  Zr  Zr32  1  0.10299235  0.29707633  0.10887944  1
  Zr  Zr33  1  0.69793613  0.69001838  0.70092089  1
  Zr  Zr34  1  0.29379894  0.69956320  0.49787201  1
  Zr  Zr35  1  0.70011144  0.29854612  0.70175840  1
  Zr  Zr36  1  0.89671484  0.49449294  0.29386027  1
  Zr  Zr37  1  0.89940517  0.49470170  0.70543756  1
  Zr  Zr38  1  0.90182953  0.49115639  0.50103853  1
  Zr  Zr39  1  0.30111698  0.30161715  0.10408127  1
  Zr  Zr40  1  0.29768861  0.90187550  0.30396510  1
  Zr  Zr41  1  0.49456267  0.49495344  0.50097998  1
  Zr  Zr42  1  0.29703372  0.89935315  0.09896179  1
  Zr  Zr43  1  0.10157305  0.09466880  0.10926370  1
  Zr  Zr44  1  0.90709645  0.70476342  0.09759223  1
  Zr  Zr45  1  0.29815143  0.09587716  0.29932448  1
  Zr  Zr46  1  0.89880740  0.30468619  0.69973845  1
  Zr  Zr47  1  0.89632253  0.89934492  0.70365852  1
  Zr  Zr48  1  0.50428729  0.49859143  0.10337763  1
  Zr  Zr49  1  0.50391986  0.69938071  0.50266176  1
  Sc  Sc50  1  0.09844197  0.91196853  0.29592589  1
  Sc  Sc51  1  0.69179962  0.10623017  0.49898699  1
  Sc  Sc52  1  0.09850065  0.30623985  0.91051186  1
  Sc  Sc53  1  0.10099839  0.71432860  0.89697361  1
  Sc  Sc54  1  0.51319108  0.10537801  0.10043906  1
  Sc  Sc55  1  0.91506715  0.70416966  0.49489992  1
  Sc  Sc56  1  0.89383409  0.90092768  0.90017833  1
  Sc  Sc57  1  0.70316613  0.69616464  0.90036761  1
  Sc  Sc58  1  0.29898676  0.89795182  0.49199330  1
  Sc  Sc59  1  0.69895906  0.29376919  0.49791812  1
  Sc  Sc60  1  0.49823584  0.70408502  0.29004205  1
  Sc  Sc61  1  0.30584710  0.10065424  0.70325367  1
  Sc  Sc62  1  0.09772716  0.69112437  0.30219319  1
  Sc  Sc63  1  0.50231022  0.29880901  0.70322999  1
  Sc  Sc64  1  0.49241676  0.90413873  0.49832138  1
  Sc  Sc65  1  0.50336901  0.11017881  0.89614768  1
  Sc  Sc66  1  0.09863820  0.30251177  0.69341501  1
  Sc  Sc67  1  0.70124840  0.09840585  0.10198769  1
  Sc  Sc68  1  0.90458950  0.30223918  0.09901461  1
  Sc  Sc69  1  0.49484145  0.28993727  0.29578508  1
  Sc  Sc70  1  0.50108221  0.89191469  0.29738700  1
  Sc  Sc71  1  0.69673510  0.49831262  0.10094435  1
  Sc  Sc72  1  0.89802350  0.10292549  0.11020371  1
  Sc  Sc73  1  0.09417851  0.49560065  0.70191330  1
  Sc  Sc74  1  0.29601569  0.10125882  0.49111945  1
  Sc  Sc75  1  0.89668956  0.70218368  0.28807581  1
  Sc  Sc76  1  0.89861987  0.89680813  0.10924444  1
  Sc  Sc77  1  0.10308092  0.49169363  0.11187254  1
  Sc  Sc78  1  0.50198262  0.91863144  0.69448261  1
  Sc  Sc79  1  0.50152340  0.10261254  0.50102874  1
  Sc  Sc80  1  0.70237588  0.29277977  0.09955843  1
  Sc  Sc81  1  0.50001968  0.10553093  0.70442129  1
  Sc  Sc82  1  0.09688870  0.10837555  0.49593117  1
  Sc  Sc83  1  0.29924243  0.90428566  0.89361251  1
  Sc  Sc84  1  0.30812667  0.90249628  0.70093151  1
  Sc  Sc85  1  0.89584415  0.29084059  0.49868683  1
  Sc  Sc86  1  0.30210574  0.29877629  0.90956379  1
  Sc  Sc87  1  0.68873079  0.10105637  0.69999048  1
  Sc  Sc88  1  0.10035009  0.49098506  0.89926592  1
  Sc  Sc89  1  0.51348328  0.49638317  0.69671228  1
  Sc  Sc90  1  0.29412599  0.30603110  0.69839970  1
  Sc  Sc91  1  0.69648501  0.70126544  0.10664038  1
  Sc  Sc92  1  0.69948654  0.29784360  0.90194914  1
  Sc  Sc93  1  0.49636636  0.69710879  0.70356251  1
  Sc  Sc94  1  0.29067874  0.10666973  0.10084119  1
  Sc  Sc95  1  0.69426680  0.49640132  0.50663252  1
  Sc  Sc96  1  0.70569146  0.10216077  0.29222553  1
  Sc  Sc97  1  0.30069076  0.50342540  0.30147901  1
  Sc  Sc98  1  0.09627963  0.10121694  0.29924278  1
  Sc  Sc99  1  0.90049826  0.70661270  0.89609449  1
  Nb  Nb100  1  0.89584470  0.92131256  0.30998071  1
  Nb  Nb101  1  0.69975399  0.70076218  0.49796027  1
  Nb  Nb102  1  0.89846439  0.90608601  0.49307892  1
  Nb  Nb103  1  0.09862944  0.70973853  0.09598374  1
  Nb  Nb104  1  0.30239159  0.30019455  0.50022726  1
  Nb  Nb105  1  0.09876367  0.49532419  0.29893211  1
  Nb  Nb106  1  0.90054057  0.09893187  0.90032320  1
  Nb  Nb107  1  0.09987198  0.90696485  0.69815788  1
  Nb  Nb108  1  0.50270504  0.49810541  0.30312642  1
  Nb  Nb109  1  0.69721028  0.70397833  0.30922629  1
  Nb  Nb110  1  0.30038038  0.69834259  0.10359401  1
  Nb  Nb111  1  0.90082642  0.09681570  0.30745347  1
  Nb  Nb112  1  0.30232528  0.69325043  0.69729051  1
  Nb  Nb113  1  0.49203032  0.70420423  0.09625586  1
  Nb  Nb114  1  0.09511174  0.30022129  0.30101244  1
  Nb  Nb115  1  0.09773771  0.89886947  0.09279814  1
  Nb  Nb116  1  0.50050330  0.09571346  0.30198221  1
  Nb  Nb117  1  0.30234093  0.29167424  0.31001528  1
  Nb  Nb118  1  0.50082141  0.49702511  0.91253257  1
  Nb  Nb119  1  0.49380316  0.29902532  0.90268640  1
  Nb  Nb120  1  0.70520997  0.50121891  0.70244457  1
  Nb  Nb121  1  0.69884341  0.90497668  0.69618923  1
  Nb  Nb122  1  0.89690859  0.29456451  0.30506588  1
  Nb  Nb123  1  0.89969755  0.08973197  0.48990272  1
  Nb  Nb124  1  0.69479822  0.91082458  0.10129079  1
  Nb  Nb125  1  -0.00356134  -0.00369137  0.59599867  1
  Nb  Nb126  1  0.40670086  0.40185118  0.80979817  1
  Nb  Nb127  1  0.40284026  0.00182963  0.00679830  1
  Nb  Nb128  1  0.79852475  0.79898211  0.59573643  1
  Nb  Nb129  1  0.00135432  0.39540185  0.39288332  1
  Nb  Nb130  1  0.19242503  -0.00231839  0.60019573  1
  Nb  Nb131  1  0.39862261  0.60339194  0.00351970  1
  Nb  Nb132  1  0.60642216  0.80178595  0.60240469  1
  Nb  Nb133  1  -0.00049584  0.19775050  0.80590211  1
  Nb  Nb134  1  0.80052694  -0.00537865  0.59304918  1
  Nb  Nb135  1  0.19505755  0.19982472  0.80237732  1
  Nb  Nb136  1  0.59880813  0.00052866  0.39094153  1
  Nb  Nb137  1  0.79447929  0.60247353  0.40293994  1
  Nb  Nb138  1  0.00584331  0.60321715  0.00324908  1
  Nb  Nb139  1  0.39400898  0.59802637  0.60186935  1
  Nb  Nb140  1  0.60398070  0.80658787  0.79448423  1
  Nb  Nb141  1  0.19939243  0.60875401  0.00632190  1
  Nb  Nb142  1  0.40361102  0.00093971  0.19747726  1
  Nb  Nb143  1  0.59724382  0.40396043  0.39298345  1
  Nb  Nb144  1  0.19483418  0.79838105  0.19226338  1
  Nb  Nb145  1  0.79928117  0.60258086  0.59675678  1
  Nb  Nb146  1  0.80846382  0.59838924  0.00330925  1
  Nb  Nb147  1  0.60233492  0.59985853  0.39686175  1
  Nb  Nb148  1  0.00192083  -0.00058450  0.00214677  1
  Nb  Nb149  1  0.39461280  0.20869900  0.59492077  1
  Pd  Pd150  1  -0.00556385  0.80450643  0.60111012  1
  Pd  Pd151  1  0.00721007  0.59958797  0.19494281  1
  Pd  Pd152  1  0.20954959  0.79622988  -0.00296938  1
  Pd  Pd153  1  -0.01003024  0.59411297  0.39248353  1
  Pd  Pd154  1  0.19941702  0.39904726  0.39191235  1
  Pd  Pd155  1  0.20873311  0.39254653  0.21357046  1
  Pd  Pd156  1  0.41334688  0.58835842  0.80031519  1
  Pd  Pd157  1  -0.00229031  0.80325067  0.38473668  1
  Pd  Pd158  1  0.00846728  0.60184626  0.81061276  1
  Pd  Pd159  1  0.41145358  0.80909510  0.79120835  1
  Pd  Pd160  1  0.20313294  0.59042656  0.59944691  1
  Pd  Pd161  1  0.40377162  0.60535146  0.40249238  1
  Pd  Pd162  1  0.39052404  0.01222124  0.59211232  1
  Pd  Pd163  1  0.60022544  0.38658983  0.20524748  1
  Pd  Pd164  1  -0.00185412  0.19286720  -0.00092304  1
  Pd  Pd165  1  0.20942622  0.80990289  0.60515528  1
  Pd  Pd166  1  0.40298820  0.79501545  0.39671805  1
  Pd  Pd167  1  0.80318906  0.19784774  0.00407430  1
  Pd  Pd168  1  0.59360948  0.60047233  0.80309030  1
  Pd  Pd169  1  0.59691912  0.60755263  0.20127714  1
  Pd  Pd170  1  0.00264666  0.80560701  0.80071613  1
  Pd  Pd171  1  0.40440590  0.79615555  0.60523902  1
  Pd  Pd172  1  0.80111195  0.19933524  0.80372796  1
  Pd  Pd173  1  0.19881219  0.20219612  -0.00311347  1
  Pd  Pd174  1  0.60484383  0.39133823  0.59555394  1
  Pd  Pd175  1  0.79843134  0.19115482  0.59493938  1
  Pd  Pd176  1  0.61279425  0.79737355  -0.00258494  1
  Pd  Pd177  1  0.00525136  0.80928976  0.20983850  1
  Pd  Pd178  1  -0.00543332  0.19941621  0.20631053  1
  Pd  Pd179  1  0.79436983  0.79740915  0.00553868  1
  Pd  Pd180  1  0.81317041  0.79390612  0.39865873  1
  Pd  Pd181  1  0.19778163  0.19743250  0.39521350  1
  Pd  Pd182  1  0.20433442  0.80492761  0.78722947  1
  Pd  Pd183  1  0.79095525  0.79939479  0.79691314  1
  Pd  Pd184  1  0.39875472  0.19011674  0.19461455  1
  Pd  Pd185  1  0.79617860  0.80144673  0.19708670  1
  Pd  Pd186  1  0.39151164  0.80135391  -0.00544923  1
  Pd  Pd187  1  0.60289145  0.20374800  0.20317062  1
  Pd  Pd188  1  0.80938960  0.00155815  0.01025225  1
  Pd  Pd189  1  0.40692312  0.59864596  0.19821286  1
  Pd  Pd190  1  0.18600508  0.60176801  0.80665016  1
  Pd  Pd191  1  0.60682829  0.39276384  0.00154691  1
  Pd  Pd192  1  0.39913031  0.39866436  0.20943676  1
  Pd  Pd193  1  -0.00673965  0.19638311  0.59860887  1
  Pd  Pd194  1  -0.00195466  0.59801457  0.60045942  1
  Pd  Pd195  1  0.19619823  0.40635570  0.60143625  1
  Pd  Pd196  1  0.59759237  0.39623119  0.80601508  1
  Pd  Pd197  1  0.79853178  0.38842100  0.19262462  1
  Pd  Pd198  1  -0.00361899  0.00136273  0.80314984  1
  Pd  Pd199  1  0.79336271  0.40091373  0.59587259  1
  Rh  Rh200  1  0.80535621  0.59289814  0.80414891  1
  Rh  Rh201  1  0.60080706  0.00141408  0.80323241  1
  Rh  Rh202  1  0.80602307  0.20076600  0.20213136  1
  Rh  Rh203  1  0.39177465  0.21457510  0.79199413  1
  Rh  Rh204  1  0.19011466  0.60620864  0.19699516  1
  Rh  Rh205  1  0.20328344  0.38995940  0.80512340  1
  Rh  Rh206  1  0.40313975  0.19123987  0.00691488  1
  Rh  Rh207  1  0.79906223  0.40509972  0.40317444  1
  Rh  Rh208  1  0.79448528  0.40444727  0.00221006  1
  Rh  Rh209  1  0.60461926  0.79696545  0.19636596  1
  Rh  Rh210  1  0.00539077  0.38665370  0.79813438  1
  Rh  Rh211  1  0.60082051  0.20305416  -0.00259199  1
  Rh  Rh212  1  0.40617394  0.00117002  0.39331149  1
  Rh  Rh213  1  0.80218635  0.00058219  0.19961409  1
  Rh  Rh214  1  0.20088765  0.20583455  0.20995377  1
  Rh  Rh215  1  0.59970639  0.60195432  0.59656618  1
  Rh  Rh216  1  0.20822134  0.00399231  0.78990048  1
  Rh  Rh217  1  0.79487629  0.60762255  0.19917338  1
  Rh  Rh218  1  0.79261549  0.39938107  0.80246977  1
  Rh  Rh219  1  0.20334282  0.59488820  0.39658744  1
  Rh  Rh220  1  -0.00440536  0.80808831  -0.00739926  1
  Rh  Rh221  1  0.40294487  0.39328020  0.38816977  1
  Rh  Rh222  1  0.00636242  0.40768825  0.01079164  1
  Rh  Rh223  1  0.19839043  0.40355932  0.00746367  1
  Rh  Rh224  1  0.58888598  0.80026973  0.40284747  1
  Rh  Rh225  1  -0.00617373  -0.00279565  0.19547311  1
  Rh  Rh226  1  0.59915257  0.60330717  0.00570935  1
  Rh  Rh227  1  0.79349659  0.00752380  0.79505452  1
  Rh  Rh228  1  -0.00366374  0.20478698  0.39891656  1
  Rh  Rh229  1  0.60164324  0.20418479  0.80317283  1
  Rh  Rh230  1  0.40009728  0.19455494  0.40554710  1
  Rh  Rh231  1  0.20195726  0.00137606  0.00547415  1
  Rh  Rh232  1  0.39741475  0.40579088  0.00036581  1
  Rh  Rh233  1  0.59594786  0.00608675  0.00223950  1
  Rh  Rh234  1  0.19262193  0.79943575  0.38493825  1
  Rh  Rh235  1  0.00454391  0.39637688  0.58982296  1
  Rh  Rh236  1  0.00975527  0.00275162  0.40336461  1
  Rh  Rh237  1  0.39066330  0.80624565  0.20183504  1
  Rh  Rh238  1  0.80147782  0.19037379  0.40269944  1
  Rh  Rh239  1  0.59006723  0.20454695  0.60277267  1
  Rh  Rh240  1  0.19245686  0.00114084  0.40910802  1
  Rh  Rh241  1  0.59799134  0.19873561  0.39195049  1
  Rh  Rh242  1  -0.00373705  0.39114332  0.20584075  1
  Rh  Rh243  1  0.39824854  0.40119125  0.61517481  1
  Rh  Rh244  1  0.60659350  -0.00712484  0.58341115  1
  Rh  Rh245  1  0.20367351  -0.00640910  0.19757403  1
  Rh  Rh246  1  0.59580665  -0.00302283  0.20428458  1
  Rh  Rh247  1  0.78559424  0.00832916  0.40021916  1
  Rh  Rh248  1  0.40625797  0.00053575  0.80871561  1
  Rh  Rh249  1  0.21115307  0.19261622  0.60565950  1
