# generated using pymatgen
data_ZrScNbPdRh
_symmetry_space_group_name_H-M   'P 1'
_cell_length_a   16.56195972
_cell_length_b   16.56371300
_cell_length_c   16.56249074
_cell_angle_alpha   90.03262389
_cell_angle_beta   90.00999965
_cell_angle_gamma   89.97415427
_symmetry_Int_Tables_number   1
_chemical_formula_structural   ZrScNbPdRh
_chemical_formula_sum   'Zr50 Sc50 Nb50 Pd50 Rh50'
_cell_volume   4543.54619695
_cell_formula_units_Z   50
loop_
 _symmetry_equiv_pos_site_id
 _symmetry_equiv_pos_as_xyz
  1  'x, y, z'
loop_
 _atom_site_type_symbol
 _atom_site_label
 _atom_site_symmetry_multiplicity
 _atom_site_fract_x
 _atom_site_fract_y
 _atom_site_fract_z
 _atom_site_occupancy
  Zr  Zr0  1  0.09653935  0.10150411  0.49454556  1
  Zr  Zr1  1  0.29192047  0.69898197  0.70341412  1
  Zr  Zr2  1  0.69811927  0.89002405  0.70502022  1
  Zr  Zr3  1  0.69693557  0.28839622  0.69340133  1
  Zr  Zr4  1  0.09671934  0.49463186  0.30100644  1
  Zr  Zr5  1  0.70783527  0.30019987  0.29654291  1
  Zr  Zr6  1  0.49949639  0.89736971  0.29707667  1
  Zr  Zr7  1  0.49877433  0.10480193  0.29622537  1
  Zr  Zr8  1  0.29889726  0.69890894  0.30459145  1
  Zr  Zr9  1  0.49812695  0.30176354  0.51033137  1
  Zr  Zr10  1  0.30163777  0.50260119  0.49911454  1
  Zr  Zr11  1  0.50092908  0.69940951  0.90169986  1
  Zr  Zr12  1  0.49111577  0.30320663  0.89892433  1
  Zr  Zr13  1  0.89601937  0.30298168  0.49347091  1
  Zr  Zr14  1  0.49843798  0.70005115  0.29867286  1
  Zr  Zr15  1  0.89275172  0.89397835  0.30496452  1
  Zr  Zr16  1  0.30204822  0.69349032  0.91034911  1
  Zr  Zr17  1  0.70168480  0.09654532  0.71280082  1
  Zr  Zr18  1  0.29716085  0.69787011  0.49759825  1
  Zr  Zr19  1  0.70777731  0.10260065  0.29954124  1
  Zr  Zr20  1  0.49274352  0.90267895  0.09296334  1
  Zr  Zr21  1  0.70008725  0.50419633  0.29149126  1
  Zr  Zr22  1  0.29380440  0.70866080  0.10380496  1
  Zr  Zr23  1  0.49608068  0.09994414  0.70350764  1
  Zr  Zr24  1  0.89745324  0.29706057  0.09900566  1
  Zr  Zr25  1  0.29705327  0.09600271  0.50843306  1
  Zr  Zr26  1  0.90218676  0.89511987  0.10649005  1
  Zr  Zr27  1  0.89907246  0.89759817  0.90989462  1
  Zr  Zr28  1  0.69933983  0.30840160  0.09984546  1
  Zr  Zr29  1  0.29453629  0.89832329  0.89776309  1
  Zr  Zr30  1  0.91409275  0.29431129  0.89504725  1
  Zr  Zr31  1  0.30046757  0.89674506  0.49723598  1
  Zr  Zr32  1  0.09494525  0.89958851  0.10263200  1
  Zr  Zr33  1  0.30411760  0.30199758  0.71280853  1
  Zr  Zr34  1  0.49655001  0.70046993  0.09680721  1
  Zr  Zr35  1  0.70180326  0.51670814  0.69806397  1
  Zr  Zr36  1  0.90522039  0.50221862  0.49956448  1
  Zr  Zr37  1  0.90529424  0.09312972  0.49474166  1
  Zr  Zr38  1  0.70421669  0.49857647  0.49267930  1
  Zr  Zr39  1  0.49565973  0.69202657  0.49366107  1
  Zr  Zr40  1  0.70325262  0.11323735  0.09323698  1
  Zr  Zr41  1  0.90272016  0.50681535  0.30620081  1
  Zr  Zr42  1  0.49925453  0.90285519  0.90708515  1
  Zr  Zr43  1  0.89498469  0.10526937  0.70862724  1
  Zr  Zr44  1  0.09958528  0.30420580  0.49297794  1
  Zr  Zr45  1  0.51828218  0.69555737  0.70263899  1
  Zr  Zr46  1  0.90487470  0.50126611  0.69459442  1
  Zr  Zr47  1  0.49668996  0.49424467  0.70204776  1
  Zr  Zr48  1  0.70916913  0.70346016  0.88939932  1
  Zr  Zr49  1  0.90348735  0.50308753  0.89448702  1
  Sc  Sc50  1  0.30852039  0.89092050  0.29556678  1
  Sc  Sc51  1  0.69590158  0.29155562  0.90784625  1
  Sc  Sc52  1  0.50462609  0.30040304  0.09699699  1
  Sc  Sc53  1  0.49840528  0.50665692  0.29472700  1
  Sc  Sc54  1  0.10324993  0.30756264  0.70490279  1
  Sc  Sc55  1  0.70156850  0.50485469  0.90051028  1
  Sc  Sc56  1  0.29310873  0.49645231  0.29580997  1
  Sc  Sc57  1  0.30137532  0.50754200  0.09814354  1
  Sc  Sc58  1  0.30007785  0.30240010  0.09115655  1
  Sc  Sc59  1  0.50416636  0.49590979  0.10176495  1
  Sc  Sc60  1  0.70453940  0.69697906  0.29985953  1
  Sc  Sc61  1  0.10289132  0.89445395  0.70631033  1
  Sc  Sc62  1  0.91191682  0.89970538  0.69616822  1
  Sc  Sc63  1  0.29419874  0.29619286  0.50465303  1
  Sc  Sc64  1  0.90897687  0.10291877  0.30051585  1
  Sc  Sc65  1  0.49469432  0.29561634  0.69805532  1
  Sc  Sc66  1  0.29829446  0.90976643  0.70190317  1
  Sc  Sc67  1  0.30122092  0.10794325  0.89576744  1
  Sc  Sc68  1  0.50190015  0.90119517  0.70359814  1
  Sc  Sc69  1  0.10205588  0.70324003  0.49644288  1
  Sc  Sc70  1  0.09675365  0.49718052  0.49959623  1
  Sc  Sc71  1  0.08987018  0.10387502  0.10687894  1
  Sc  Sc72  1  0.90282502  0.69150777  0.70467414  1
  Sc  Sc73  1  0.30182964  0.10337444  0.09300761  1
  Sc  Sc74  1  0.08915783  0.89859911  0.50414201  1
  Sc  Sc75  1  0.90487924  0.29946917  0.29939038  1
  Sc  Sc76  1  0.90605289  0.89676588  0.49483028  1
  Sc  Sc77  1  0.09830916  0.50018124  0.10526171  1
  Sc  Sc78  1  0.49959913  0.50339947  0.50412902  1
  Sc  Sc79  1  0.71170290  0.10770530  0.49742647  1
  Sc  Sc80  1  0.09454808  0.30320032  0.09219178  1
  Sc  Sc81  1  0.29855713  0.49392776  0.70097955  1
  Sc  Sc82  1  0.70685724  0.89534423  0.48730964  1
  Sc  Sc83  1  0.09419561  0.50011009  0.69604065  1
  Sc  Sc84  1  0.70413673  0.89588224  0.08778346  1
  Sc  Sc85  1  0.49875280  0.50289582  0.90295995  1
  Sc  Sc86  1  0.08377708  0.89469624  0.29856129  1
  Sc  Sc87  1  0.49677118  0.89655746  0.49742419  1
  Sc  Sc88  1  0.90120301  0.10332113  0.10119575  1
  Sc  Sc89  1  0.70305858  0.90442442  0.89764872  1
  Sc  Sc90  1  0.10234230  0.09097943  0.69234527  1
  Sc  Sc91  1  0.09433729  0.70424867  0.69543986  1
  Sc  Sc92  1  0.90268471  0.50314657  0.10347418  1
  Sc  Sc93  1  0.30615697  0.09911755  0.69988975  1
  Sc  Sc94  1  0.10402387  0.71515670  0.89864797  1
  Sc  Sc95  1  0.48437898  0.10021790  0.50296450  1
  Sc  Sc96  1  0.30241722  0.49205248  0.90189352  1
  Sc  Sc97  1  0.69092706  0.68999204  0.50218015  1
  Sc  Sc98  1  0.49682007  0.09669037  0.09026868  1
  Sc  Sc99  1  0.31193005  0.10807991  0.30533893  1
  Nb  Nb100  1  0.89366243  0.70366336  0.10187524  1
  Nb  Nb101  1  0.70936385  0.09687943  0.89749697  1
  Nb  Nb102  1  0.70231441  0.70133882  0.69807643  1
  Nb  Nb103  1  0.90651798  0.70019024  0.29711818  1
  Nb  Nb104  1  0.10789273  0.29768248  0.30192715  1
  Nb  Nb105  1  0.69881395  0.50132497  0.10155369  1
  Nb  Nb106  1  0.28451270  0.29822388  0.89719252  1
  Nb  Nb107  1  0.11409942  0.30043664  0.90339039  1
  Nb  Nb108  1  0.90640878  0.69686033  0.50106424  1
  Nb  Nb109  1  0.70901447  0.69369894  0.10422739  1
  Nb  Nb110  1  0.69908172  0.30175439  0.49543713  1
  Nb  Nb111  1  0.70077679  0.89981444  0.29690887  1
  Nb  Nb112  1  0.30032420  0.30116885  0.30190519  1
  Nb  Nb113  1  0.09804688  0.10280651  0.29951621  1
  Nb  Nb114  1  0.50325179  0.09153407  0.89803062  1
  Nb  Nb115  1  0.29715639  0.90647350  0.09844973  1
  Nb  Nb116  1  0.09709890  0.49338652  0.90408030  1
  Nb  Nb117  1  0.89880680  0.29999994  0.69945912  1
  Nb  Nb118  1  0.09247660  0.69343109  0.29381524  1
  Nb  Nb119  1  0.90020177  0.69872260  0.90811853  1
  Nb  Nb120  1  0.09608644  0.69965117  0.10832006  1
  Nb  Nb121  1  0.09876777  0.90857815  0.90150655  1
  Nb  Nb122  1  0.89247861  0.10104759  0.89663285  1
  Nb  Nb123  1  0.49128612  0.29407295  0.30396527  1
  Nb  Nb124  1  0.09987315  0.10936699  0.90574517  1
  Nb  Nb125  1  0.60436864  0.80219777  0.19596068  1
  Nb  Nb126  1  0.00065681  0.60986151  0.00081235  1
  Nb  Nb127  1  0.19507385  0.59702900  0.80634021  1
  Nb  Nb128  1  0.19270686  0.00107388  0.00191790  1
  Nb  Nb129  1  0.60735545  0.00067999  0.59470806  1
  Nb  Nb130  1  0.00135329  0.00528222  0.81414407  1
  Nb  Nb131  1  0.60618735  -0.00320113  0.19913246  1
  Nb  Nb132  1  0.79950224  0.79389650  0.60106900  1
  Nb  Nb133  1  0.19711808  0.00110134  0.39145922  1
  Nb  Nb134  1  0.79825626  0.39556209  0.79591094  1
  Nb  Nb135  1  0.60965486  0.60392313  0.00686507  1
  Nb  Nb136  1  0.59698152  0.20413724  0.40078401  1
  Nb  Nb137  1  0.39982856  0.79522677  0.79974451  1
  Nb  Nb138  1  0.39973103  0.79383551  0.60614142  1
  Nb  Nb139  1  0.40129333  0.39423024  0.39682911  1
  Nb  Nb140  1  0.79731458  -0.00601442  0.60270500  1
  Nb  Nb141  1  0.60578450  0.39928873  0.79770635  1
  Nb  Nb142  1  0.59634543  0.39223306  0.39625815  1
  Nb  Nb143  1  0.19969371  0.00435312  0.20361506  1
  Nb  Nb144  1  0.80245722  0.40122103  -0.00325704  1
  Nb  Nb145  1  0.79857770  0.39688671  0.60265428  1
  Nb  Nb146  1  0.79603245  -0.00394433  0.20173071  1
  Nb  Nb147  1  0.60102892  0.00572966  0.39695846  1
  Nb  Nb148  1  0.19913023  0.20185161  0.20588164  1
  Nb  Nb149  1  -0.00408614  0.20519318  0.60096409  1
  Pd  Pd150  1  0.39445255  0.20474147  0.18735068  1
  Pd  Pd151  1  0.80880963  0.40624969  0.19630516  1
  Pd  Pd152  1  0.40165047  0.60386725  0.60893677  1
  Pd  Pd153  1  0.01427548  0.19491869  0.79161761  1
  Pd  Pd154  1  0.19936564  0.59913456  0.20216106  1
  Pd  Pd155  1  0.81428836  0.80223849  0.79315043  1
  Pd  Pd156  1  0.20009271  0.40637643  0.00787024  1
  Pd  Pd157  1  0.80113774  0.60825496  0.40083065  1
  Pd  Pd158  1  0.19433511  0.19191496  0.79029905  1
  Pd  Pd159  1  0.19622941  0.80532400  0.00380865  1
  Pd  Pd160  1  0.39821950  -0.00157910  0.39762120  1
  Pd  Pd161  1  0.20153385  0.39260526  0.19154238  1
  Pd  Pd162  1  0.59925545  -0.00464732  0.80055053  1
  Pd  Pd163  1  0.20233354  0.39940986  0.60133074  1
  Pd  Pd164  1  0.19389578  0.20498649  0.60944145  1
  Pd  Pd165  1  0.20246084  0.80674137  0.60205021  1
  Pd  Pd166  1  0.80046149  0.00339077  0.00768738  1
  Pd  Pd167  1  0.39623695  0.00472978  0.19842212  1
  Pd  Pd168  1  0.59836600  0.18545528  0.59028225  1
  Pd  Pd169  1  0.39244543  0.60009063  0.79831333  1
  Pd  Pd170  1  0.59753478  0.19915208  0.19947485  1
  Pd  Pd171  1  0.80222630  0.59456101  0.00117780  1
  Pd  Pd172  1  0.80690064  0.19775597  0.59579328  1
  Pd  Pd173  1  0.20634636  0.19384809  0.39714527  1
  Pd  Pd174  1  -0.00363708  0.80469842  0.80281911  1
  Pd  Pd175  1  0.00408680  0.79433001  0.00307708  1
  Pd  Pd176  1  0.19216054  0.59730899  0.60586632  1
  Pd  Pd177  1  0.80055211  0.78584045  0.40715231  1
  Pd  Pd178  1  0.40048815  0.20040934  -0.00544285  1
  Pd  Pd179  1  0.61084525  0.79275152  0.00082699  1
  Pd  Pd180  1  0.00010555  0.19803040  0.00118779  1
  Pd  Pd181  1  0.60779350  0.40668366  0.60243365  1
  Pd  Pd182  1  0.39797153  0.40181427  0.00157759  1
  Pd  Pd183  1  0.19479371  0.01050315  0.80546750  1
  Pd  Pd184  1  0.39567206  0.59979079  0.19876755  1
  Pd  Pd185  1  0.19226925  0.59456487  0.39838444  1
  Pd  Pd186  1  0.40091536  0.39713897  0.20069968  1
  Pd  Pd187  1  0.19373634  -0.00943225  0.59291348  1
  Pd  Pd188  1  0.01122375  0.60611106  0.80898984  1
  Pd  Pd189  1  0.59466564  0.20384386  0.80877747  1
  Pd  Pd190  1  0.60135197  0.80022180  0.39608458  1
  Pd  Pd191  1  0.19013042  0.80864030  0.39108941  1
  Pd  Pd192  1  0.59306536  0.19391882  -0.00766355  1
  Pd  Pd193  1  0.60130398  0.80477684  0.58962062  1
  Pd  Pd194  1  -0.00156685  0.39589875  0.20264293  1
  Pd  Pd195  1  -0.00041088  0.00954632  -0.00051108  1
  Pd  Pd196  1  0.00387574  0.39800135  0.79937149  1
  Pd  Pd197  1  0.18786188  0.59713673  -0.00366956  1
  Pd  Pd198  1  0.59162671  0.39678965  0.20736497  1
  Pd  Pd199  1  0.19582774  0.80763961  0.20889929  1
  Rh  Rh200  1  0.80802734  0.59930704  0.20252789  1
  Rh  Rh201  1  0.80486310  0.60053416  0.79839369  1
  Rh  Rh202  1  -0.00844702  0.00845726  0.60884941  1
  Rh  Rh203  1  0.60085552  0.61007056  0.19436527  1
  Rh  Rh204  1  -0.00101930  0.20559394  0.40225994  1
  Rh  Rh205  1  0.60255327  0.59445770  0.80867141  1
  Rh  Rh206  1  0.00547184  -0.00273517  0.39387500  1
  Rh  Rh207  1  0.38695367  0.00395384  -0.00917738  1
  Rh  Rh208  1  0.19640816  0.19538897  0.00887268  1
  Rh  Rh209  1  0.40216490  0.79986009  0.19187425  1
  Rh  Rh210  1  -0.00688453  0.79324602  0.59930190  1
  Rh  Rh211  1  0.80877854  0.19452225  0.20172761  1
  Rh  Rh212  1  0.59467838  0.80274573  0.80954253  1
  Rh  Rh213  1  0.60929281  0.41132685  -0.00616901  1
  Rh  Rh214  1  0.80595089  0.20613632  -0.00670263  1
  Rh  Rh215  1  0.59765024  0.59056328  0.39436795  1
  Rh  Rh216  1  0.79516603  0.21053949  0.81019719  1
  Rh  Rh217  1  0.00633104  0.20901193  0.20156256  1
  Rh  Rh218  1  0.80560498  0.60448574  0.59562361  1
  Rh  Rh219  1  0.20692853  0.40345704  0.40168607  1
  Rh  Rh220  1  -0.00423339  0.40716706  -0.00243389  1
  Rh  Rh221  1  0.79755226  0.40081046  0.39884799  1
  Rh  Rh222  1  0.81066670  -0.01043245  0.79690378  1
  Rh  Rh223  1  0.39138180  0.20199066  0.60505481  1
  Rh  Rh224  1  0.60947642  0.00942027  0.00195178  1
  Rh  Rh225  1  0.39582882  0.58975202  0.39149557  1
  Rh  Rh226  1  0.00591785  0.60341310  0.59382333  1
  Rh  Rh227  1  0.79833799  0.79714799  -0.00090551  1
  Rh  Rh228  1  0.40086081  -0.00387970  0.80468693  1
  Rh  Rh229  1  0.00188927  0.39733922  0.39353859  1
  Rh  Rh230  1  -0.00692661  -0.00103600  0.20566171  1
  Rh  Rh231  1  0.40790721  0.59322187  0.00637469  1
  Rh  Rh232  1  0.40881631  -0.01112630  0.60452230  1
  Rh  Rh233  1  -0.00628839  0.60451499  0.19366657  1
  Rh  Rh234  1  0.38962499  0.80475172  -0.00153162  1
  Rh  Rh235  1  0.80342726  0.20201304  0.39623736  1
  Rh  Rh236  1  0.39068389  0.39857312  0.59456556  1
  Rh  Rh237  1  0.39834813  0.20790622  0.41262007  1
  Rh  Rh238  1  -0.00248909  0.79340550  0.20038832  1
  Rh  Rh239  1  0.19457108  0.41026624  0.80359661  1
  Rh  Rh240  1  0.00589562  0.60542362  0.40178498  1
  Rh  Rh241  1  0.40179053  0.19897641  0.80705935  1
  Rh  Rh242  1  0.00052481  0.79128833  0.39990568  1
  Rh  Rh243  1  -0.00578825  0.39241845  0.59888205  1
  Rh  Rh244  1  0.80007791  0.00105274  0.39935997  1
  Rh  Rh245  1  0.59795752  0.59513134  0.59678379  1
  Rh  Rh246  1  0.79672825  0.80083718  0.19896860  1
  Rh  Rh247  1  0.39878266  0.79563389  0.40740853  1
  Rh  Rh248  1  0.20394184  0.79607750  0.80038573  1
  Rh  Rh249  1  0.40268617  0.39935548  0.80440589  1
