# generated using pymatgen
data_ZrScNbPdRh
_symmetry_space_group_name_H-M   'P 1'
_cell_length_a   16.56044673
_cell_length_b   16.56026858
_cell_length_c   16.55874512
_cell_angle_alpha   89.98031616
_cell_angle_beta   89.96957182
_cell_angle_gamma   89.99781248
_symmetry_Int_Tables_number   1
_chemical_formula_structural   ZrScNbPdRh
_chemical_formula_sum   'Zr50 Sc50 Nb50 Pd50 Rh50'
_cell_volume   4541.15952120
_cell_formula_units_Z   50
loop_
 _symmetry_equiv_pos_site_id
 _symmetry_equiv_pos_as_xyz
  1  'x, y, z'
loop_
 _atom_site_type_symbol
 _atom_site_label
 _atom_site_symmetry_multiplicity
 _atom_site_fract_x
 _atom_site_fract_y
 _atom_site_fract_z
 _atom_site_occupancy
  Zr  Zr0  1  0.90530826  0.90152066  0.29275095  1
  Zr  Zr1  1  0.89975204  0.50526902  0.29762998  1
  Zr  Zr2  1  0.68313368  0.30802765  0.50303630  1
  Zr  Zr3  1  0.10270646  0.70307339  0.70666913  1
  Zr  Zr4  1  0.10085652  0.69444908  0.49681400  1
  Zr  Zr5  1  0.70081049  0.69272235  0.29937320  1
  Zr  Zr6  1  0.68931187  0.69293096  0.50783111  1
  Zr  Zr7  1  0.90346128  0.10718100  0.90756527  1
  Zr  Zr8  1  0.49403282  0.10067518  0.90672313  1
  Zr  Zr9  1  0.09740504  0.69839421  0.90074851  1
  Zr  Zr10  1  0.09669844  0.70107103  0.29293492  1
  Zr  Zr11  1  0.49420912  0.90264064  0.09593450  1
  Zr  Zr12  1  0.90194667  0.29705209  0.50694629  1
  Zr  Zr13  1  0.50359908  0.70421162  0.30565755  1
  Zr  Zr14  1  0.49690165  0.10812401  0.49771185  1
  Zr  Zr15  1  0.50544622  0.29648361  0.30722784  1
  Zr  Zr16  1  0.29184090  0.69606950  0.29216136  1
  Zr  Zr17  1  0.90604811  0.50094834  0.90147271  1
  Zr  Zr18  1  0.29885082  0.10779372  0.50058744  1
  Zr  Zr19  1  0.29614916  0.89450462  0.09381634  1
  Zr  Zr20  1  0.89513885  0.28705096  0.30706395  1
  Zr  Zr21  1  0.69969891  0.88864020  0.10278640  1
  Zr  Zr22  1  0.10298542  0.90685453  0.70139563  1
  Zr  Zr23  1  0.10476305  0.30233617  0.29686745  1
  Zr  Zr24  1  0.69955984  0.50462742  0.10425590  1
  Zr  Zr25  1  0.50761525  0.50609770  0.50615317  1
  Zr  Zr26  1  0.10124227  0.10031846  0.30130840  1
  Zr  Zr27  1  0.50667862  0.70646639  0.09136440  1
  Zr  Zr28  1  0.89348450  0.69310959  0.70946845  1
  Zr  Zr29  1  0.09808251  0.09937572  0.69769067  1
  Zr  Zr30  1  0.50399078  0.89456157  0.69953238  1
  Zr  Zr31  1  0.70770183  0.10955052  0.29469161  1
  Zr  Zr32  1  0.70207874  0.70055308  0.08625816  1
  Zr  Zr33  1  0.50508586  0.89935788  0.30194415  1
  Zr  Zr34  1  0.29355557  0.09316982  0.69926750  1
  Zr  Zr35  1  0.90721287  0.89210039  0.69068986  1
  Zr  Zr36  1  0.49596775  0.70577317  0.50404564  1
  Zr  Zr37  1  0.89989405  0.09457935  0.29409684  1
  Zr  Zr38  1  0.10491524  0.70107224  0.09701781  1
  Zr  Zr39  1  0.49814696  0.69754937  0.69617118  1
  Zr  Zr40  1  0.70192186  0.10564328  0.09271062  1
  Zr  Zr41  1  0.49928121  0.09597167  0.30638420  1
  Zr  Zr42  1  0.51205207  0.89607595  0.49459919  1
  Zr  Zr43  1  0.08347241  0.90182801  0.50831423  1
  Zr  Zr44  1  0.30982449  0.09030569  0.09944221  1
  Zr  Zr45  1  0.10243234  0.50117658  0.29519767  1
  Zr  Zr46  1  0.50291657  0.10557417  0.10015929  1
  Zr  Zr47  1  0.89890143  0.30044271  0.89831949  1
  Zr  Zr48  1  0.30144716  0.69904502  0.09097789  1
  Zr  Zr49  1  0.70571095  0.50554946  0.68812335  1
  Sc  Sc50  1  0.89823750  0.49286679  0.70522104  1
  Sc  Sc51  1  0.90021929  0.10233398  0.71059355  1
  Sc  Sc52  1  0.30218279  0.89734382  0.89433734  1
  Sc  Sc53  1  0.90485687  0.70538835  0.09497418  1
  Sc  Sc54  1  0.30097578  0.49861114  0.10078022  1
  Sc  Sc55  1  0.28824268  0.50205916  0.50852887  1
  Sc  Sc56  1  0.49743278  0.50438878  0.09543551  1
  Sc  Sc57  1  0.91024206  0.89511045  0.89970673  1
  Sc  Sc58  1  0.70437095  0.10454695  0.89208953  1
  Sc  Sc59  1  0.29857624  0.70060986  0.89579649  1
  Sc  Sc60  1  0.30219995  0.90916141  0.29194202  1
  Sc  Sc61  1  0.68703517  0.30142143  0.70406935  1
  Sc  Sc62  1  0.69085694  0.29308814  0.10048041  1
  Sc  Sc63  1  0.89966646  0.09977825  0.48832577  1
  Sc  Sc64  1  0.09578879  0.09963121  0.10563763  1
  Sc  Sc65  1  0.50678814  0.50301055  0.29121843  1
  Sc  Sc66  1  0.90211913  0.09783166  0.10460891  1
  Sc  Sc67  1  0.70951989  0.89624522  0.70148579  1
  Sc  Sc68  1  0.09544862  0.89231169  0.09989329  1
  Sc  Sc69  1  0.90968635  0.29761018  0.09820473  1
  Sc  Sc70  1  0.10161635  0.49460036  0.50140748  1
  Sc  Sc71  1  0.89329609  0.49954486  0.51223203  1
  Sc  Sc72  1  0.30826920  0.89838245  0.50015107  1
  Sc  Sc73  1  0.49530169  0.89147643  0.89551604  1
  Sc  Sc74  1  0.69839541  0.89152949  0.89450101  1
  Sc  Sc75  1  0.29915924  0.30768958  0.10535361  1
  Sc  Sc76  1  0.10188236  0.49851595  0.70116283  1
  Sc  Sc77  1  0.50438015  0.10561241  0.70233045  1
  Sc  Sc78  1  0.29026298  0.30146824  0.30438754  1
  Sc  Sc79  1  0.29636106  0.29819314  0.49857775  1
  Sc  Sc80  1  0.50228436  0.30067326  0.09340080  1
  Sc  Sc81  1  0.70109587  0.90213867  0.30112682  1
  Sc  Sc82  1  0.08601142  0.29809618  0.69776471  1
  Sc  Sc83  1  0.90953013  0.50934912  0.09915882  1
  Sc  Sc84  1  0.08814949  0.30502855  0.90673185  1
  Sc  Sc85  1  0.90317625  0.30288515  0.70274028  1
  Sc  Sc86  1  0.30056302  0.69325861  0.70303510  1
  Sc  Sc87  1  0.90428788  0.70657232  0.50695115  1
  Sc  Sc88  1  0.48933022  0.49673369  0.70248766  1
  Sc  Sc89  1  0.70655844  0.09224423  0.48875021  1
  Sc  Sc90  1  0.69405978  0.29810981  0.90342064  1
  Sc  Sc91  1  0.30680762  0.50692485  0.90087551  1
  Sc  Sc92  1  0.30580503  0.31091934  0.90841550  1
  Sc  Sc93  1  0.10087002  0.29587181  0.50370290  1
  Sc  Sc94  1  0.29742093  0.89854544  0.70716251  1
  Sc  Sc95  1  0.90776745  0.69581417  0.29682751  1
  Sc  Sc96  1  0.29840836  0.50755366  0.70385445  1
  Sc  Sc97  1  0.70170147  0.50020585  0.90249770  1
  Sc  Sc98  1  0.30773548  0.30665132  0.69288951  1
  Sc  Sc99  1  0.10052939  0.89391125  0.89463944  1
  Nb  Nb100  1  0.70005991  0.30579115  0.29987078  1
  Nb  Nb101  1  0.70449643  0.89943470  0.49997704  1
  Nb  Nb102  1  0.70238798  0.09567224  0.69882913  1
  Nb  Nb103  1  0.29873911  0.10196538  0.89962705  1
  Nb  Nb104  1  0.29977674  0.10309990  0.30204655  1
  Nb  Nb105  1  0.49650849  0.49644988  0.89346935  1
  Nb  Nb106  1  0.70344755  0.50206410  0.30423477  1
  Nb  Nb107  1  0.10196665  0.49581416  0.90602838  1
  Nb  Nb108  1  0.89683728  0.90263041  0.10119940  1
  Nb  Nb109  1  0.69851081  0.50502434  0.49696566  1
  Nb  Nb110  1  0.10073120  0.10163990  0.89704473  1
  Nb  Nb111  1  0.49719239  0.30074665  0.69324623  1
  Nb  Nb112  1  0.30402631  0.49710312  0.30331987  1
  Nb  Nb113  1  0.89806320  0.69144766  0.90272130  1
  Nb  Nb114  1  0.29812784  0.69885613  0.50054888  1
  Nb  Nb115  1  0.70078302  0.69617919  0.70742473  1
  Nb  Nb116  1  0.10691003  0.09687168  0.50898402  1
  Nb  Nb117  1  0.10937138  0.31424829  0.09996602  1
  Nb  Nb118  1  0.49868714  0.69541465  0.90015457  1
  Nb  Nb119  1  0.49215974  0.30047233  0.50939767  1
  Nb  Nb120  1  0.49903238  0.30868186  0.88620878  1
  Nb  Nb121  1  0.09804821  0.48868070  0.09233862  1
  Nb  Nb122  1  0.70391486  0.69547367  0.89666570  1
  Nb  Nb123  1  0.10092837  0.89725508  0.30034541  1
  Nb  Nb124  1  0.88948755  0.90017241  0.49656981  1
  Nb  Nb125  1  0.19923702  0.00748961  -0.00686159  1
  Nb  Nb126  1  0.79984205  -0.00520544  0.00237389  1
  Nb  Nb127  1  0.80101106  0.40085447  0.00818023  1
  Nb  Nb128  1  0.40123794  0.40599368  0.40254747  1
  Nb  Nb129  1  0.19582212  0.80473093  0.40036520  1
  Nb  Nb130  1  0.40097923  0.79773591  0.19697785  1
  Nb  Nb131  1  0.79221063  0.19673761  0.60326522  1
  Nb  Nb132  1  0.00152381  0.60248156  0.60601031  1
  Nb  Nb133  1  0.19795875  0.39678283  0.80623489  1
  Nb  Nb134  1  0.60452722  -0.00045490  0.59875483  1
  Nb  Nb135  1  0.39506182  0.59740961  0.40068365  1
  Nb  Nb136  1  0.80036256  0.80144378  0.40490264  1
  Nb  Nb137  1  0.39801934  0.20585120  0.80228259  1
  Nb  Nb138  1  0.19878424  0.79787724  0.59310305  1
  Nb  Nb139  1  -0.00713536  0.39870352  0.39730685  1
  Nb  Nb140  1  0.19988971  0.19776946  -0.00246772  1
  Nb  Nb141  1  0.79340101  0.40365120  0.39827653  1
  Nb  Nb142  1  0.60407036  -0.00182175  0.00036155  1
  Nb  Nb143  1  0.20232148  0.20364422  0.80760196  1
  Nb  Nb144  1  0.60265490  0.00352015  0.19451522  1
  Nb  Nb145  1  0.40888049  0.00065315  0.59938263  1
  Nb  Nb146  1  0.79628628  0.40067855  0.20413354  1
  Nb  Nb147  1  0.60088661  0.60288319  0.80189698  1
  Nb  Nb148  1  0.19425735  -0.00060296  0.40317460  1
  Nb  Nb149  1  0.39775260  0.19638234  0.20695672  1
  Pd  Pd150  1  0.39017795  0.80439311  0.60819162  1
  Pd  Pd151  1  0.59453831  0.19871902  0.80245107  1
  Pd  Pd152  1  0.60665638  0.19684785  0.40289705  1
  Pd  Pd153  1  0.40216024  0.39130378  0.20818287  1
  Pd  Pd154  1  0.39234672  -0.00135117  0.40477755  1
  Pd  Pd155  1  0.00997312  0.20101549  0.40549034  1
  Pd  Pd156  1  -0.00795762  0.39650312  0.20500228  1
  Pd  Pd157  1  0.80453719  0.79156396  0.20784503  1
  Pd  Pd158  1  0.00417630  0.59303881  0.79676940  1
  Pd  Pd159  1  0.59903534  0.79188598  0.80022306  1
  Pd  Pd160  1  0.80491226  0.60293590  0.19136544  1
  Pd  Pd161  1  -0.00375319  0.80018702  0.39789330  1
  Pd  Pd162  1  0.00272208  -0.00452916  0.00355503  1
  Pd  Pd163  1  0.80796473  0.80218645  0.80633183  1
  Pd  Pd164  1  -0.00690049  0.58945180  0.41239636  1
  Pd  Pd165  1  0.80702751  -0.00581817  0.80870918  1
  Pd  Pd166  1  0.39646233  0.21076832  0.00164124  1
  Pd  Pd167  1  -0.01674042  0.01150242  0.59948228  1
  Pd  Pd168  1  0.00560839  0.20485086  0.19591402  1
  Pd  Pd169  1  0.59613603  0.59337520  -0.00953609  1
  Pd  Pd170  1  0.19718961  0.58979339  0.18896895  1
  Pd  Pd171  1  0.80723021  0.60486127  0.41076359  1
  Pd  Pd172  1  0.20155525  0.59440390  -0.00190696  1
  Pd  Pd173  1  0.80285322  0.00698509  0.60100650  1
  Pd  Pd174  1  0.79251136  0.39854068  0.80657702  1
  Pd  Pd175  1  0.19957243  0.21092710  0.61109301  1
  Pd  Pd176  1  0.00210141  0.00167842  0.40054582  1
  Pd  Pd177  1  0.59848147  0.60523410  0.19653192  1
  Pd  Pd178  1  0.60132848  0.39933905  0.19593581  1
  Pd  Pd179  1  0.79476529  0.39061700  0.59808587  1
  Pd  Pd180  1  0.20346026  0.59827849  0.39903532  1
  Pd  Pd181  1  0.60609795  0.19055678  0.59835230  1
  Pd  Pd182  1  0.38667025  0.79546245  0.39039962  1
  Pd  Pd183  1  0.59456709  0.40930790  0.39920003  1
  Pd  Pd184  1  0.39519724  0.40870454  0.59301939  1
  Pd  Pd185  1  0.80753393  0.80324640  -0.00952190  1
  Pd  Pd186  1  0.19389738  -0.00314027  0.19713676  1
  Pd  Pd187  1  0.40388272  0.40460182  0.00155843  1
  Pd  Pd188  1  0.40379663  0.60575636  0.20156997  1
  Pd  Pd189  1  0.00953850  0.20238762  0.00792104  1
  Pd  Pd190  1  0.40402846  0.00462282  0.79555321  1
  Pd  Pd191  1  0.19548579  0.39436395  0.60994302  1
  Pd  Pd192  1  0.79677181  0.20800039  0.79227814  1
  Pd  Pd193  1  0.60196986  0.00058688  0.80151066  1
  Pd  Pd194  1  -0.00363894  0.00039386  0.80224587  1
  Pd  Pd195  1  0.80234610  0.20890434  0.18875665  1
  Pd  Pd196  1  0.79403825  0.79124260  0.59781642  1
  Pd  Pd197  1  0.60279082  0.40232109  0.00075183  1
  Pd  Pd198  1  0.60261056  0.41119042  0.79268893  1
  Pd  Pd199  1  0.20690633  0.19854735  0.18990985  1
  Rh  Rh200  1  0.19410754  0.19308635  0.40317383  1
  Rh  Rh201  1  0.00415984  0.20176946  0.80163280  1
  Rh  Rh202  1  0.20557753  0.80615160  0.20476169  1
  Rh  Rh203  1  0.19286830  0.60700991  0.60600252  1
  Rh  Rh204  1  -0.00826509  0.39936822  0.00146590  1
  Rh  Rh205  1  0.00122869  0.40882653  0.59547983  1
  Rh  Rh206  1  0.19784908  0.40165996  0.39916262  1
  Rh  Rh207  1  0.00931150  0.60195069  0.18866732  1
  Rh  Rh208  1  0.39385517  0.21517626  0.39433312  1
  Rh  Rh209  1  0.79421100  0.59319814  0.80599267  1
  Rh  Rh210  1  0.00602335  0.60251205  0.00083502  1
  Rh  Rh211  1  0.39837608  -0.00893732  -0.01089929  1
  Rh  Rh212  1  0.80248036  -0.00852225  0.39027748  1
  Rh  Rh213  1  0.59540339  0.20009405  -0.01293420  1
  Rh  Rh214  1  0.19791450  0.80628580  -0.00944063  1
  Rh  Rh215  1  0.60792873  0.00262800  0.39760502  1
  Rh  Rh216  1  0.39186989  0.39509685  0.79719127  1
  Rh  Rh217  1  0.61645101  0.79630249  0.39897855  1
  Rh  Rh218  1  0.00803277  0.40273712  0.80152834  1
  Rh  Rh219  1  0.20290588  0.39953102  -0.00589012  1
  Rh  Rh220  1  0.80638898  0.60573766  0.59873108  1
  Rh  Rh221  1  0.40255812  0.59927526  -0.00328598  1
  Rh  Rh222  1  0.40718450  0.60264539  0.80366970  1
  Rh  Rh223  1  0.59404519  0.40737417  0.60737730  1
  Rh  Rh224  1  0.59265177  0.59844757  0.39776218  1
  Rh  Rh225  1  0.20446490  0.40793333  0.20135973  1
  Rh  Rh226  1  0.59285824  0.19759774  0.20718578  1
  Rh  Rh227  1  0.59972483  0.80293190  -0.01208661  1
  Rh  Rh228  1  0.00472940  0.79068142  0.60754341  1
  Rh  Rh229  1  -0.00173057  0.79718764  -0.00118471  1
  Rh  Rh230  1  0.19747385  0.59051647  0.80676168  1
  Rh  Rh231  1  0.80432744  0.59599081  -0.00055899  1
  Rh  Rh232  1  0.40791906  0.00092728  0.20592677  1
  Rh  Rh233  1  0.78891517  0.21411074  0.41530213  1
  Rh  Rh234  1  -0.00975715  0.19117379  0.59910084  1
  Rh  Rh235  1  0.39899062  0.79635343  -0.00269444  1
  Rh  Rh236  1  0.00498278  -0.00442888  0.19672123  1
  Rh  Rh237  1  0.20283603  0.79827555  0.79588677  1
  Rh  Rh238  1  0.59640767  0.59705934  0.61102580  1
  Rh  Rh239  1  0.80330056  0.20336758  0.00103645  1
  Rh  Rh240  1  0.79405778  -0.00027206  0.19308915  1
  Rh  Rh241  1  0.39823454  0.79213361  0.79837144  1
  Rh  Rh242  1  0.39882149  0.19357150  0.60970617  1
  Rh  Rh243  1  0.39566046  0.59881223  0.59316590  1
  Rh  Rh244  1  -0.00115163  0.80031084  0.19522198  1
  Rh  Rh245  1  0.21082570  -0.01270695  0.58902016  1
  Rh  Rh246  1  0.61111418  0.80645665  0.60617021  1
  Rh  Rh247  1  0.59615580  0.80100806  0.20306711  1
  Rh  Rh248  1  -0.00408408  0.79594696  0.80127901  1
  Rh  Rh249  1  0.19545269  0.00298193  0.80767878  1
