# generated using pymatgen
data_ZrScNbPdRh
_symmetry_space_group_name_H-M   'P 1'
_cell_length_a   16.56826686
_cell_length_b   16.56483761
_cell_length_c   16.56358444
_cell_angle_alpha   90.00679682
_cell_angle_beta   90.03853075
_cell_angle_gamma   89.98929282
_symmetry_Int_Tables_number   1
_chemical_formula_structural   ZrScNbPdRh
_chemical_formula_sum   'Zr50 Sc50 Nb50 Pd50 Rh50'
_cell_volume   4545.88537587
_cell_formula_units_Z   50
loop_
 _symmetry_equiv_pos_site_id
 _symmetry_equiv_pos_as_xyz
  1  'x, y, z'
loop_
 _atom_site_type_symbol
 _atom_site_label
 _atom_site_symmetry_multiplicity
 _atom_site_fract_x
 _atom_site_fract_y
 _atom_site_fract_z
 _atom_site_occupancy
  Zr  Zr0  1  0.49308185  0.70434545  0.10368126  1
  Zr  Zr1  1  0.29468869  0.10732844  0.10887274  1
  Zr  Zr2  1  0.88941632  0.89161185  0.50197023  1
  Zr  Zr3  1  0.10024430  0.89403597  0.28743589  1
  Zr  Zr4  1  0.10040499  0.69623807  0.29886755  1
  Zr  Zr5  1  0.89888578  0.50085250  0.69840793  1
  Zr  Zr6  1  0.90885122  0.09618135  0.89792187  1
  Zr  Zr7  1  0.10413845  0.10062724  0.29515490  1
  Zr  Zr8  1  0.90722033  0.49363418  0.30293454  1
  Zr  Zr9  1  0.50449225  0.10118764  0.70016528  1
  Zr  Zr10  1  0.49598991  0.48516756  0.10091221  1
  Zr  Zr11  1  0.49509004  0.90587592  0.70379672  1
  Zr  Zr12  1  0.29858543  0.50638699  0.09769248  1
  Zr  Zr13  1  0.10146995  0.30152750  0.70452060  1
  Zr  Zr14  1  0.10174951  0.10443880  0.70997686  1
  Zr  Zr15  1  0.70281406  0.09494812  0.30058298  1
  Zr  Zr16  1  0.90974702  0.89829958  0.10478541  1
  Zr  Zr17  1  0.50191850  0.69399263  0.69627842  1
  Zr  Zr18  1  0.09832715  0.28455378  0.90121560  1
  Zr  Zr19  1  0.29355067  0.90313693  0.89354158  1
  Zr  Zr20  1  0.49548876  0.69926352  0.90274799  1
  Zr  Zr21  1  0.29947398  0.69465990  0.91078245  1
  Zr  Zr22  1  0.89541295  0.10090272  0.10813606  1
  Zr  Zr23  1  0.49038079  0.30770930  0.30079877  1
  Zr  Zr24  1  0.89862661  0.30382365  0.50096846  1
  Zr  Zr25  1  0.10291858  0.29495375  0.09605215  1
  Zr  Zr26  1  0.69396272  0.49206970  0.49755871  1
  Zr  Zr27  1  0.09795463  0.49631294  0.69684900  1
  Zr  Zr28  1  0.49417526  0.69048022  0.49055369  1
  Zr  Zr29  1  0.90785321  0.30474768  0.69531615  1
  Zr  Zr30  1  0.29272077  0.89960222  0.30618636  1
  Zr  Zr31  1  0.69337726  0.69614071  0.29893486  1
  Zr  Zr32  1  0.28782582  0.09847825  0.90712358  1
  Zr  Zr33  1  0.50086371  0.29694735  0.69936727  1
  Zr  Zr34  1  0.30450749  0.10906501  0.70073912  1
  Zr  Zr35  1  0.89955798  0.09110163  0.50037278  1
  Zr  Zr36  1  0.49507295  0.88714508  0.30262229  1
  Zr  Zr37  1  0.29567379  0.11793325  0.49652872  1
  Zr  Zr38  1  0.49331648  0.89064392  0.49725098  1
  Zr  Zr39  1  0.70528542  0.69849693  0.10590216  1
  Zr  Zr40  1  0.69695536  0.49505399  0.69460365  1
  Zr  Zr41  1  0.29582110  0.89316841  0.69788800  1
  Zr  Zr42  1  0.50509806  0.49902510  0.69442768  1
  Zr  Zr43  1  0.90210672  0.70522898  0.09849299  1
  Zr  Zr44  1  0.91648206  0.89956392  0.90328378  1
  Zr  Zr45  1  0.90174303  0.49767265  0.89427704  1
  Zr  Zr46  1  0.31185108  0.31079216  0.11829201  1
  Zr  Zr47  1  0.70302553  0.10040438  0.10550917  1
  Zr  Zr48  1  0.69365121  0.29683089  0.50491144  1
  Zr  Zr49  1  0.90360611  0.50086039  0.50242956  1
  Sc  Sc50  1  0.10532008  0.30063880  0.50643801  1
  Sc  Sc51  1  0.89252346  0.70155613  0.29190710  1
  Sc  Sc52  1  0.69649823  0.30213022  0.90485970  1
  Sc  Sc53  1  0.90032978  0.70325096  0.69134884  1
  Sc  Sc54  1  0.89800827  0.70793846  0.88783614  1
  Sc  Sc55  1  0.50494134  0.11346222  0.49866352  1
  Sc  Sc56  1  0.29903982  0.29972226  0.69636900  1
  Sc  Sc57  1  0.90259364  0.29499599  0.09829333  1
  Sc  Sc58  1  0.49656973  0.30929235  0.89946104  1
  Sc  Sc59  1  0.29219184  0.70479408  0.50522117  1
  Sc  Sc60  1  0.90911731  0.29261105  0.29617294  1
  Sc  Sc61  1  0.90553752  0.29739638  0.90467516  1
  Sc  Sc62  1  0.09668305  0.70612316  0.89243570  1
  Sc  Sc63  1  0.30151349  0.30405766  0.89556440  1
  Sc  Sc64  1  0.29378191  0.70564733  0.29558126  1
  Sc  Sc65  1  0.10817632  0.70098091  0.10319075  1
  Sc  Sc66  1  0.11075946  0.49349329  0.10093904  1
  Sc  Sc67  1  0.29289466  0.49816474  0.69828288  1
  Sc  Sc68  1  0.49661994  0.90063369  0.11131404  1
  Sc  Sc69  1  0.29037941  0.69899087  0.69737983  1
  Sc  Sc70  1  0.29457564  0.50354175  0.49725745  1
  Sc  Sc71  1  0.70858007  0.90320176  0.10544323  1
  Sc  Sc72  1  0.10126858  0.70436012  0.69621740  1
  Sc  Sc73  1  0.48703395  0.90282394  0.89741650  1
  Sc  Sc74  1  0.49076308  0.09487246  0.89219462  1
  Sc  Sc75  1  0.30249897  0.49874849  0.90573425  1
  Sc  Sc76  1  0.49296731  0.09039267  0.11144574  1
  Sc  Sc77  1  0.09817931  0.31077438  0.29349730  1
  Sc  Sc78  1  0.10400822  0.49690190  0.89770095  1
  Sc  Sc79  1  0.90892265  0.09691045  0.69574578  1
  Sc  Sc80  1  0.69904651  0.90144677  0.30614314  1
  Sc  Sc81  1  0.70392005  0.09737423  0.89560026  1
  Sc  Sc82  1  0.10419630  0.89551021  0.50173806  1
  Sc  Sc83  1  0.09979429  0.10361531  0.50283078  1
  Sc  Sc84  1  0.69504992  0.50191130  0.89173205  1
  Sc  Sc85  1  0.71817509  0.90265960  0.89515347  1
  Sc  Sc86  1  0.69724300  0.29989120  0.30816866  1
  Sc  Sc87  1  0.09941593  0.50756674  0.49207539  1
  Sc  Sc88  1  0.50488357  0.09333396  0.30268956  1
  Sc  Sc89  1  0.69456207  0.50393437  0.29886702  1
  Sc  Sc90  1  0.49876929  0.49373192  0.89984932  1
  Sc  Sc91  1  0.30289192  0.90041834  0.10831207  1
  Sc  Sc92  1  0.71369836  0.71341541  0.50193371  1
  Sc  Sc93  1  0.28965004  0.49302480  0.30019965  1
  Sc  Sc94  1  0.70497217  0.30088102  0.09795986  1
  Sc  Sc95  1  0.70439071  0.90873871  0.49880214  1
  Sc  Sc96  1  0.70735072  0.68846814  0.70661548  1
  Sc  Sc97  1  0.69788906  0.49585851  0.10238099  1
  Sc  Sc98  1  0.90153176  0.90098671  0.70185300  1
  Sc  Sc99  1  0.89794327  0.49387450  0.09879652  1
  Nb  Nb100  1  0.70029928  0.10436983  0.49858101  1
  Nb  Nb101  1  0.70042809  0.29530608  0.69641738  1
  Nb  Nb102  1  0.69115678  0.10428759  0.68980639  1
  Nb  Nb103  1  0.50084168  0.49853012  0.49466839  1
  Nb  Nb104  1  0.09694561  0.50392232  0.29450529  1
  Nb  Nb105  1  0.10276327  0.09260646  0.90724142  1
  Nb  Nb106  1  0.29807761  0.10656448  0.30342870  1
  Nb  Nb107  1  0.10856371  0.89878027  0.71211460  1
  Nb  Nb108  1  0.49725204  0.30343099  0.49023566  1
  Nb  Nb109  1  0.10789737  0.09969848  0.08372234  1
  Nb  Nb110  1  0.08861331  0.69788047  0.49854904  1
  Nb  Nb111  1  0.30534935  0.29559308  0.30974349  1
  Nb  Nb112  1  0.49982260  0.69640095  0.30094524  1
  Nb  Nb113  1  0.69202149  0.90459883  0.69689334  1
  Nb  Nb114  1  0.69797296  0.69837722  0.89992276  1
  Nb  Nb115  1  0.10262620  0.90925392  0.90131897  1
  Nb  Nb116  1  0.50154404  0.29875211  0.10244098  1
  Nb  Nb117  1  0.29913704  0.90192744  0.50150002  1
  Nb  Nb118  1  0.29982055  0.69395235  0.09746645  1
  Nb  Nb119  1  0.09491296  0.89635942  0.09076815  1
  Nb  Nb120  1  0.90314669  0.90490895  0.30105847  1
  Nb  Nb121  1  0.31486172  0.29978008  0.48923019  1
  Nb  Nb122  1  0.90529103  0.70024951  0.49631945  1
  Nb  Nb123  1  0.89885264  0.09755493  0.29962820  1
  Nb  Nb124  1  0.50301722  0.51234430  0.31402628  1
  Nb  Nb125  1  0.60316442  0.80079594  0.80078127  1
  Nb  Nb126  1  0.79941083  0.60364471  -0.00327740  1
  Nb  Nb127  1  0.40486947  0.39826945  0.58758767  1
  Nb  Nb128  1  0.60395264  0.80258656  -0.00442099  1
  Nb  Nb129  1  0.40109252  0.59851217  0.79794877  1
  Nb  Nb130  1  0.40346666  0.60093321  0.20446617  1
  Nb  Nb131  1  0.59631521  0.20289008  0.19703197  1
  Nb  Nb132  1  0.38950415  0.00227685  0.40522266  1
  Nb  Nb133  1  -0.00483406  0.79951483  0.39916872  1
  Nb  Nb134  1  0.40339244  0.20251328  0.00944457  1
  Nb  Nb135  1  0.39400618  0.00287830  0.59316672  1
  Nb  Nb136  1  0.00208836  0.59567930  0.19757842  1
  Nb  Nb137  1  -0.00263146  -0.00456470  0.39454672  1
  Nb  Nb138  1  -0.00299011  0.60271797  0.00194337  1
  Nb  Nb139  1  0.60164751  0.60591453  0.00160826  1
  Nb  Nb140  1  0.60102801  0.80262601  0.60794605  1
  Nb  Nb141  1  0.80301798  0.39778681  0.20458245  1
  Nb  Nb142  1  0.80190908  0.19210484  0.40405108  1
  Nb  Nb143  1  0.80442282  0.60005782  0.40160334  1
  Nb  Nb144  1  0.79954748  0.39312977  0.79236130  1
  Nb  Nb145  1  0.19903909  0.80519875  -0.00035942  1
  Nb  Nb146  1  0.20563161  -0.00035526  0.60247835  1
  Nb  Nb147  1  0.59988334  -0.00183575  0.00094133  1
  Nb  Nb148  1  0.79701692  0.20201579  0.78873490  1
  Nb  Nb149  1  0.59146940  0.19411105  0.00605272  1
  Pd  Pd150  1  0.60504353  0.39432370  0.80069726  1
  Pd  Pd151  1  0.40181334  0.79703833  0.60091640  1
  Pd  Pd152  1  0.00428602  0.80764074  0.60019818  1
  Pd  Pd153  1  0.18845931  0.21221878  0.39458614  1
  Pd  Pd154  1  0.39698738  0.81129969  0.00486817  1
  Pd  Pd155  1  0.60600844  0.39573642  0.20716614  1
  Pd  Pd156  1  -0.00037756  0.60511707  0.80029612  1
  Pd  Pd157  1  0.60400271  0.80625353  0.19556848  1
  Pd  Pd158  1  0.80018536  0.39745995  0.39449823  1
  Pd  Pd159  1  0.38366080  0.60144140  0.39323161  1
  Pd  Pd160  1  0.59198114  -0.00188590  0.40708028  1
  Pd  Pd161  1  0.60515713  0.79590450  0.40903529  1
  Pd  Pd162  1  0.79662461  0.80140654  0.79161292  1
  Pd  Pd163  1  0.80445548  0.19440783  0.59939150  1
  Pd  Pd164  1  0.39152475  0.59148488  0.60270071  1
  Pd  Pd165  1  0.19274991  0.79432477  0.40642549  1
  Pd  Pd166  1  0.20408083  0.59886360  0.80217677  1
  Pd  Pd167  1  0.20331719  0.60560429  0.40048310  1
  Pd  Pd168  1  -0.00015678  0.19640475  0.40196351  1
  Pd  Pd169  1  0.79656194  0.59959734  0.59158095  1
  Pd  Pd170  1  0.00727314  0.00760685  0.19611565  1
  Pd  Pd171  1  0.00351872  0.19995122  0.59810246  1
  Pd  Pd172  1  0.80236692  -0.00096556  0.00276018  1
  Pd  Pd173  1  0.20850433  0.39726499  0.59168002  1
  Pd  Pd174  1  0.40086257  0.00351011  0.00392689  1
  Pd  Pd175  1  0.59016362  0.59483249  0.19140957  1
  Pd  Pd176  1  0.00727580  0.19463665  0.19415960  1
  Pd  Pd177  1  0.79494682  0.40668553  -0.00302558  1
  Pd  Pd178  1  0.60462397  -0.00552737  0.81146047  1
  Pd  Pd179  1  0.01007917  0.39552137  0.40575394  1
  Pd  Pd180  1  0.19710615  -0.00263907  0.19297600  1
  Pd  Pd181  1  0.19458006  0.00250964  0.40704858  1
  Pd  Pd182  1  0.20002222  0.39850772  0.80427371  1
  Pd  Pd183  1  0.39441478  0.00202582  0.21555534  1
  Pd  Pd184  1  0.60400179  0.20068845  0.81078281  1
  Pd  Pd185  1  0.39715348  0.78900875  0.79602181  1
  Pd  Pd186  1  0.00365729  0.59986601  0.60544083  1
  Pd  Pd187  1  0.79848771  0.79886476  -0.00288068  1
  Pd  Pd188  1  0.20482916  0.39265464  -0.00193431  1
  Pd  Pd189  1  0.79776171  0.80878383  0.20829673  1
  Pd  Pd190  1  0.19803660  0.20990233  0.20623794  1
  Pd  Pd191  1  0.61120727  0.61155476  0.58807355  1
  Pd  Pd192  1  0.00610617  0.40552469  0.00216476  1
  Pd  Pd193  1  0.79726138  0.19815579  -0.01052001  1
  Pd  Pd194  1  0.59089226  -0.00239473  0.58705285  1
  Pd  Pd195  1  0.79593006  0.00193300  0.60822437  1
  Pd  Pd196  1  0.01249845  -0.00929915  0.59808834  1
  Pd  Pd197  1  0.39862553  0.20267948  0.81079815  1
  Pd  Pd198  1  0.19499144  0.39553854  0.40139902  1
  Pd  Pd199  1  0.80043232  0.00992667  0.78795664  1
  Rh  Rh200  1  0.79360517  0.21048905  0.21351935  1
  Rh  Rh201  1  0.39134815  0.79614007  0.39661766  1
  Rh  Rh202  1  0.40645408  0.20503419  0.59767786  1
  Rh  Rh203  1  0.80377471  0.59262769  0.80334630  1
  Rh  Rh204  1  0.59628283  0.39991587  0.39626674  1
  Rh  Rh205  1  0.39827223  0.40965151  0.78617641  1
  Rh  Rh206  1  0.39935522  0.41475407  0.21584173  1
  Rh  Rh207  1  -0.00705714  0.60819434  0.38895449  1
  Rh  Rh208  1  0.21377848  0.21086962  0.00405612  1
  Rh  Rh209  1  0.00311394  0.80658502  0.79437369  1
  Rh  Rh210  1  0.39551262  0.39321434  -0.00062440  1
  Rh  Rh211  1  0.80442494  0.79511836  0.39133604  1
  Rh  Rh212  1  0.59355950  0.20405520  0.59749096  1
  Rh  Rh213  1  0.20117047  0.39752610  0.20365786  1
  Rh  Rh214  1  0.20217030  0.00622505  0.79329530  1
  Rh  Rh215  1  0.39815796  0.41221960  0.39969518  1
  Rh  Rh216  1  0.60420135  0.00018080  0.19619447  1
  Rh  Rh217  1  0.59058156  0.39064275  0.59585089  1
  Rh  Rh218  1  -0.00333359  0.40415673  0.19159569  1
  Rh  Rh219  1  0.61114658  0.60740843  0.40953848  1
  Rh  Rh220  1  0.00903914  0.79361946  -0.00426014  1
  Rh  Rh221  1  0.80217181  -0.00705516  0.20385365  1
  Rh  Rh222  1  0.19163033  0.80129745  0.59668203  1
  Rh  Rh223  1  0.40985607  0.59010246  0.00441109  1
  Rh  Rh224  1  0.20462773  -0.01061322  0.01030862  1
  Rh  Rh225  1  0.19108880  0.60155555  0.59661297  1
  Rh  Rh226  1  0.40879033  0.19077246  0.38972116  1
  Rh  Rh227  1  0.81055155  0.58411132  0.20347868  1
  Rh  Rh228  1  0.59080963  0.60318453  0.80825004  1
  Rh  Rh229  1  0.00791772  0.40459241  0.59385233  1
  Rh  Rh230  1  -0.00286814  0.00655283  0.00783482  1
  Rh  Rh231  1  0.00071600  0.79243755  0.20470264  1
  Rh  Rh232  1  -0.00094200  0.39413031  0.80578098  1
  Rh  Rh233  1  0.40556007  0.19503758  0.20549403  1
  Rh  Rh234  1  0.20132324  0.59718518  0.20053862  1
  Rh  Rh235  1  0.00545464  -0.00290740  0.79712224  1
  Rh  Rh236  1  0.20191091  0.19997789  0.80409717  1
  Rh  Rh237  1  0.39315373  0.79250595  0.20463657  1
  Rh  Rh238  1  0.80421151  0.00482863  0.39798737  1
  Rh  Rh239  1  0.79872521  0.40072001  0.60355229  1
  Rh  Rh240  1  -0.00490138  0.19825252  0.80285342  1
  Rh  Rh241  1  0.19858002  0.20228073  0.60359652  1
  Rh  Rh242  1  0.20351510  0.80236556  0.18897709  1
  Rh  Rh243  1  0.18613445  0.60908154  -0.00487187  1
  Rh  Rh244  1  -0.00340639  0.19088023  0.00476180  1
  Rh  Rh245  1  0.60293009  0.20066412  0.39283217  1
  Rh  Rh246  1  0.38885477  0.00439079  0.79259060  1
  Rh  Rh247  1  0.19978574  0.79582734  0.80844986  1
  Rh  Rh248  1  0.79266451  0.80439824  0.61052343  1
  Rh  Rh249  1  0.60187645  0.39953204  -0.00073921  1
