# generated using pymatgen
data_ZrScNbPdRh
_symmetry_space_group_name_H-M   'P 1'
_cell_length_a   16.55789996
_cell_length_b   16.55916967
_cell_length_c   16.56182237
_cell_angle_alpha   89.97675354
_cell_angle_beta   90.00525058
_cell_angle_gamma   90.01548162
_symmetry_Int_Tables_number   1
_chemical_formula_structural   ZrScNbPdRh
_chemical_formula_sum   'Zr50 Sc50 Nb50 Pd50 Rh50'
_cell_volume   4541.00394889
_cell_formula_units_Z   50
loop_
 _symmetry_equiv_pos_site_id
 _symmetry_equiv_pos_as_xyz
  1  'x, y, z'
loop_
 _atom_site_type_symbol
 _atom_site_label
 _atom_site_symmetry_multiplicity
 _atom_site_fract_x
 _atom_site_fract_y
 _atom_site_fract_z
 _atom_site_occupancy
  Zr  Zr0  1  0.30711861  0.10485565  0.49872968  1
  Zr  Zr1  1  0.69480757  0.70424906  0.09079832  1
  Zr  Zr2  1  0.89813284  0.49280697  0.09505288  1
  Zr  Zr3  1  0.49532727  0.30646399  0.71413174  1
  Zr  Zr4  1  0.70123033  0.29426849  0.50415516  1
  Zr  Zr5  1  0.69306957  0.90486725  0.49827872  1
  Zr  Zr6  1  0.49682804  0.90628398  0.49434854  1
  Zr  Zr7  1  0.91070391  0.69758965  0.10107219  1
  Zr  Zr8  1  0.89906125  0.90869191  0.29417067  1
  Zr  Zr9  1  0.29694432  0.88706730  0.91460123  1
  Zr  Zr10  1  0.50719114  0.50310715  0.29069027  1
  Zr  Zr11  1  0.28655976  0.10347384  0.69783172  1
  Zr  Zr12  1  0.29838344  0.70316490  0.49943583  1
  Zr  Zr13  1  0.49437440  0.89568877  0.69890912  1
  Zr  Zr14  1  0.50822334  0.88891501  0.10449474  1
  Zr  Zr15  1  0.70534797  0.11501153  0.90361016  1
  Zr  Zr16  1  0.89143636  0.70559755  0.68914371  1
  Zr  Zr17  1  0.49062207  0.30199176  0.10508144  1
  Zr  Zr18  1  0.09825920  0.08750180  0.90142397  1
  Zr  Zr19  1  0.70228019  0.09934784  0.10481148  1
  Zr  Zr20  1  0.89732901  0.50835470  0.50095988  1
  Zr  Zr21  1  0.68942771  0.90205327  0.29355277  1
  Zr  Zr22  1  0.09549421  0.49680653  0.10421329  1
  Zr  Zr23  1  0.09875060  0.89177887  0.89670389  1
  Zr  Zr24  1  0.29622381  0.29714006  0.69631145  1
  Zr  Zr25  1  0.68817851  0.10271949  0.50187658  1
  Zr  Zr26  1  0.90403820  0.49521669  0.90457333  1
  Zr  Zr27  1  0.90386066  0.10545582  0.90375385  1
  Zr  Zr28  1  0.49066200  0.70220429  0.49817846  1
  Zr  Zr29  1  0.09896882  0.91306953  0.69898982  1
  Zr  Zr30  1  0.10403484  0.71380355  0.70398406  1
  Zr  Zr31  1  0.30057979  0.70181611  0.09181286  1
  Zr  Zr32  1  0.70508652  0.88623492  0.90546165  1
  Zr  Zr33  1  0.29712002  0.69625981  0.29917358  1
  Zr  Zr34  1  0.29679624  0.10038814  0.30136530  1
  Zr  Zr35  1  0.69671934  0.69473843  0.29983330  1
  Zr  Zr36  1  0.30202133  0.49638552  0.71118808  1
  Zr  Zr37  1  0.69771770  0.69730513  0.70463929  1
  Zr  Zr38  1  0.30281501  0.70063640  0.70026662  1
  Zr  Zr39  1  0.29851086  0.90936251  0.29720319  1
  Zr  Zr40  1  0.90368727  0.29669174  0.30837176  1
  Zr  Zr41  1  0.10988829  0.29499221  0.69681884  1
  Zr  Zr42  1  0.49665568  0.68821594  0.70067416  1
  Zr  Zr43  1  0.90823549  0.90444490  0.90335480  1
  Zr  Zr44  1  0.69679933  0.69544723  0.89962202  1
  Zr  Zr45  1  0.90428452  0.09851471  0.30103443  1
  Zr  Zr46  1  0.90152092  0.49722586  0.69324523  1
  Zr  Zr47  1  0.29192228  0.90111920  0.49705715  1
  Zr  Zr48  1  0.69517571  0.30331731  0.29759571  1
  Zr  Zr49  1  0.90188971  0.09651447  0.09231387  1
  Sc  Sc50  1  0.90106418  0.89916496  0.70515370  1
  Sc  Sc51  1  0.10012833  0.09438128  0.09467581  1
  Sc  Sc52  1  0.30543851  0.49841186  0.29954045  1
  Sc  Sc53  1  0.10004262  0.48615702  0.70059549  1
  Sc  Sc54  1  0.70096521  0.09752864  0.30089121  1
  Sc  Sc55  1  0.29701566  0.89694797  0.69849060  1
  Sc  Sc56  1  0.70845078  0.88393444  0.70439611  1
  Sc  Sc57  1  0.50346677  0.68757526  0.09647289  1
  Sc  Sc58  1  0.30806607  0.29967302  0.89505803  1
  Sc  Sc59  1  0.49696567  0.09937345  0.29740086  1
  Sc  Sc60  1  0.49166813  0.09598099  0.69524134  1
  Sc  Sc61  1  0.10366720  0.49771858  0.89583259  1
  Sc  Sc62  1  0.31002476  0.50529846  0.10353924  1
  Sc  Sc63  1  0.70980613  0.69565246  0.50412690  1
  Sc  Sc64  1  0.90903149  0.71219268  0.90969809  1
  Sc  Sc65  1  0.10569953  0.49546988  0.29836009  1
  Sc  Sc66  1  0.49601815  0.69508970  0.90481242  1
  Sc  Sc67  1  0.89659822  0.11220416  0.49574689  1
  Sc  Sc68  1  0.69712647  0.49958447  0.10018765  1
  Sc  Sc69  1  0.09524432  0.09591175  0.51139881  1
  Sc  Sc70  1  0.10344242  0.69946281  0.10304853  1
  Sc  Sc71  1  0.29827322  0.09539638  0.90355265  1
  Sc  Sc72  1  0.70101895  0.30251221  0.10179298  1
  Sc  Sc73  1  0.49718210  0.10381249  0.90306574  1
  Sc  Sc74  1  0.49682352  0.11321849  0.10517076  1
  Sc  Sc75  1  0.10611412  0.30198528  0.49561418  1
  Sc  Sc76  1  0.89120308  0.30146725  0.69211509  1
  Sc  Sc77  1  0.90355107  0.10484852  0.69330106  1
  Sc  Sc78  1  0.90658848  0.50301876  0.30169652  1
  Sc  Sc79  1  0.10622418  0.69972316  0.49612846  1
  Sc  Sc80  1  0.90015583  0.91505830  0.50008250  1
  Sc  Sc81  1  0.09265149  0.30548570  0.90145543  1
  Sc  Sc82  1  0.49947857  0.29110944  0.48987247  1
  Sc  Sc83  1  0.10538710  0.90980860  0.29307663  1
  Sc  Sc84  1  0.10247463  0.69525748  0.28976843  1
  Sc  Sc85  1  0.49744924  0.30353899  0.29345358  1
  Sc  Sc86  1  0.69751892  0.50318879  0.49437758  1
  Sc  Sc87  1  0.49553696  0.29491000  0.90441873  1
  Sc  Sc88  1  0.09535165  0.49843146  0.50118743  1
  Sc  Sc89  1  0.69344253  0.49685106  0.70993661  1
  Sc  Sc90  1  0.49614263  0.50059891  0.89134738  1
  Sc  Sc91  1  0.30111688  0.50056941  0.48668900  1
  Sc  Sc92  1  0.49491584  0.50462620  0.48858712  1
  Sc  Sc93  1  0.89254800  0.29855266  0.90703582  1
  Sc  Sc94  1  0.49577627  0.89148618  0.89802050  1
  Sc  Sc95  1  0.69763035  0.11579518  0.69913949  1
  Sc  Sc96  1  0.90730243  0.69557209  0.29849520  1
  Sc  Sc97  1  0.30365963  0.09682359  0.10726303  1
  Sc  Sc98  1  0.70241655  0.30282664  0.70585564  1
  Sc  Sc99  1  0.70129436  0.49846165  0.90320249  1
  Nb  Nb100  1  0.88895801  0.30601221  0.49905690  1
  Nb  Nb101  1  0.09956027  0.89739823  0.50663205  1
  Nb  Nb102  1  0.70256744  0.50021274  0.29707719  1
  Nb  Nb103  1  0.89975474  0.89731026  0.09691156  1
  Nb  Nb104  1  0.89981099  0.70126122  0.49654674  1
  Nb  Nb105  1  0.69589073  0.30226733  0.89874689  1
  Nb  Nb106  1  0.90711752  0.29842012  0.09506878  1
  Nb  Nb107  1  0.11474081  0.89845557  0.09674147  1
  Nb  Nb108  1  0.30509545  0.29891714  0.10220039  1
  Nb  Nb109  1  0.10450325  0.70402828  0.89578143  1
  Nb  Nb110  1  0.29764441  0.89690280  0.10365087  1
  Nb  Nb111  1  0.29561130  0.30455870  0.30933919  1
  Nb  Nb112  1  0.29665417  0.50707472  0.90169222  1
  Nb  Nb113  1  0.50132825  0.49618066  0.09752775  1
  Nb  Nb114  1  0.50267948  0.09112414  0.50111755  1
  Nb  Nb115  1  0.09962572  0.10750563  0.29476085  1
  Nb  Nb116  1  0.10006835  0.10129911  0.70247097  1
  Nb  Nb117  1  0.10029599  0.30413467  0.10197152  1
  Nb  Nb118  1  0.70334824  0.89888063  0.10091053  1
  Nb  Nb119  1  0.50234179  0.70614830  0.29766132  1
  Nb  Nb120  1  0.30334305  0.30257810  0.49333288  1
  Nb  Nb121  1  0.50227980  0.89201459  0.30258883  1
  Nb  Nb122  1  0.29133914  0.68840945  0.89932000  1
  Nb  Nb123  1  0.10569593  0.30222162  0.29700649  1
  Nb  Nb124  1  0.49831418  0.49797015  0.69971377  1
  Nb  Nb125  1  0.40049258  0.39757430  0.59756563  1
  Nb  Nb126  1  -0.00151192  0.80512229  0.40313220  1
  Nb  Nb127  1  0.60110454  -0.00293160  -0.00005242  1
  Nb  Nb128  1  0.79941822  0.40068392  0.39926027  1
  Nb  Nb129  1  0.79553864  0.00540679  0.80142135  1
  Nb  Nb130  1  0.20646476  0.39672271  0.00584164  1
  Nb  Nb131  1  0.79324455  0.00387199  0.60431063  1
  Nb  Nb132  1  0.40213555  0.80008068  0.20370256  1
  Nb  Nb133  1  -0.00149756  0.80225979  0.59117320  1
  Nb  Nb134  1  0.59538343  0.79680295  0.59937002  1
  Nb  Nb135  1  0.20030593  0.20882581  0.00885093  1
  Nb  Nb136  1  -0.00266935  0.60551976  0.79737662  1
  Nb  Nb137  1  0.80582903  0.80147009  0.39566668  1
  Nb  Nb138  1  0.00535468  0.20557470  0.19821132  1
  Nb  Nb139  1  0.20316446  0.60016095  0.60418591  1
  Nb  Nb140  1  0.79820147  0.60214264  0.19916398  1
  Nb  Nb141  1  0.59523440  0.39781975  -0.00024313  1
  Nb  Nb142  1  0.19708528  0.20951745  0.20181556  1
  Nb  Nb143  1  0.00464494  0.19798542  0.79657220  1
  Nb  Nb144  1  0.81096892  0.60188096  0.80242887  1
  Nb  Nb145  1  0.81139068  0.20220280  0.19902051  1
  Nb  Nb146  1  0.60739635  -0.00153624  0.80581442  1
  Nb  Nb147  1  0.40413307  -0.00876927  0.00835186  1
  Nb  Nb148  1  0.58860925  0.40178808  0.60219676  1
  Nb  Nb149  1  0.79998074  0.80134886  0.19726134  1
  Pd  Pd150  1  0.19302589  0.20347056  0.81633062  1
  Pd  Pd151  1  0.39033839  -0.00262577  0.60034227  1
  Pd  Pd152  1  0.00937095  0.20225370  0.40294806  1
  Pd  Pd153  1  -0.00578711  0.39814513  0.20518102  1
  Pd  Pd154  1  -0.00536135  0.39202652  0.79680008  1
  Pd  Pd155  1  0.39902364  0.40749809  -0.00647492  1
  Pd  Pd156  1  0.20951086  0.40789883  0.58979304  1
  Pd  Pd157  1  -0.00013096  0.38981221  0.59398587  1
  Pd  Pd158  1  -0.00151234  0.40043540  0.40468913  1
  Pd  Pd159  1  0.00668312  0.00148038  0.19078755  1
  Pd  Pd160  1  0.19338015  0.19489910  0.40399429  1
  Pd  Pd161  1  0.59738758  0.60439029  0.40224559  1
  Pd  Pd162  1  0.39121329  0.58719008  0.59682785  1
  Pd  Pd163  1  0.19414970  0.59350491  0.40142534  1
  Pd  Pd164  1  0.01283179  0.60918946  0.60545191  1
  Pd  Pd165  1  0.60183980  0.59717150  0.59592395  1
  Pd  Pd166  1  0.60813324  0.79166316  0.40926133  1
  Pd  Pd167  1  0.58667489  0.20961676  0.60801760  1
  Pd  Pd168  1  0.59286538  0.19586260  0.79862745  1
  Pd  Pd169  1  0.80258566  0.60199824  0.00024500  1
  Pd  Pd170  1  0.18897512  0.80220119  0.38915265  1
  Pd  Pd171  1  0.40553017  0.20550204  0.59919285  1
  Pd  Pd172  1  0.39486709  0.79189457  0.80555260  1
  Pd  Pd173  1  0.59927830  0.20435785  0.00626314  1
  Pd  Pd174  1  0.21228779  0.40223132  0.19645684  1
  Pd  Pd175  1  0.18839534  0.59622761  0.79158068  1
  Pd  Pd176  1  0.80183792  0.40375210  0.80295845  1
  Pd  Pd177  1  0.59174989  0.00570348  0.19640692  1
  Pd  Pd178  1  0.01166915  0.60037946  -0.00829365  1
  Pd  Pd179  1  0.00189605  0.80754151  0.20290755  1
  Pd  Pd180  1  0.39725104  0.18995799  0.80009245  1
  Pd  Pd181  1  0.19386366  0.59334531  0.00569067  1
  Pd  Pd182  1  0.59490160  0.19501006  0.39155301  1
  Pd  Pd183  1  0.00951554  -0.00078347  0.40300396  1
  Pd  Pd184  1  0.79494507  0.00162669  0.40474765  1
  Pd  Pd185  1  0.80589319  0.40082381  0.20395352  1
  Pd  Pd186  1  0.59234326  0.79889713  0.79780969  1
  Pd  Pd187  1  0.40906491  -0.00720289  0.19647444  1
  Pd  Pd188  1  0.40251479  0.60651923  0.20131111  1
  Pd  Pd189  1  0.78870154  0.58962023  0.60757625  1
  Pd  Pd190  1  0.39311423  0.80361474  0.39371922  1
  Pd  Pd191  1  0.40590910  0.19773222  0.39377821  1
  Pd  Pd192  1  0.19029871  0.00842341  0.40641516  1
  Pd  Pd193  1  0.40006614  -0.00027319  0.80904558  1
  Pd  Pd194  1  0.00892867  0.60588681  0.39758015  1
  Pd  Pd195  1  0.79414787  -0.00169874  -0.00537288  1
  Pd  Pd196  1  0.00003320  0.20923902  0.59984912  1
  Pd  Pd197  1  0.20954527  -0.00799553  0.80447369  1
  Pd  Pd198  1  0.60755104  -0.00799148  0.61783356  1
  Pd  Pd199  1  0.60104335  0.40075370  0.40520616  1
  Rh  Rh200  1  0.20606621  0.39543573  0.81304475  1
  Rh  Rh201  1  0.81042045  0.79422101  0.81240977  1
  Rh  Rh202  1  0.60113930  0.79146886  0.19818267  1
  Rh  Rh203  1  -0.00775244  -0.00222512  0.60405020  1
  Rh  Rh204  1  0.20738836  0.79840851  0.20219907  1
  Rh  Rh205  1  0.19350865  0.79148965  0.00138546  1
  Rh  Rh206  1  0.39768121  0.39998518  0.20646787  1
  Rh  Rh207  1  0.59253723  0.00670227  0.39081433  1
  Rh  Rh208  1  0.19973929  0.19709528  0.58913538  1
  Rh  Rh209  1  0.20297205  0.59529510  0.19575479  1
  Rh  Rh210  1  0.59770216  0.40242501  0.19116193  1
  Rh  Rh211  1  0.00610645  0.39974542  -0.00119317  1
  Rh  Rh212  1  0.19897390  0.40378699  0.40058285  1
  Rh  Rh213  1  0.80637185  0.79702130  0.00579082  1
  Rh  Rh214  1  0.01047719  0.20340658  -0.00267861  1
  Rh  Rh215  1  0.38794479  0.20712611  0.21177726  1
  Rh  Rh216  1  0.19752401  0.79795862  0.60013720  1
  Rh  Rh217  1  0.79019869  0.39350427  -0.00040504  1
  Rh  Rh218  1  0.59456799  0.80147287  -0.00376214  1
  Rh  Rh219  1  0.81142772  0.20062620  0.79918546  1
  Rh  Rh220  1  0.39039663  0.18799526  0.00126212  1
  Rh  Rh221  1  -0.00573695  0.79514012  0.79273535  1
  Rh  Rh222  1  0.79692629  0.20940566  0.00918889  1
  Rh  Rh223  1  -0.00254679  0.59229185  0.19888654  1
  Rh  Rh224  1  0.78624797  0.40547429  0.59142367  1
  Rh  Rh225  1  0.59874956  0.39929654  0.80594659  1
  Rh  Rh226  1  0.60166207  0.59648708  0.80430611  1
  Rh  Rh227  1  0.00757042  -0.01302179  0.00786689  1
  Rh  Rh228  1  0.60430765  0.59923997  0.19579190  1
  Rh  Rh229  1  0.40346858  0.79825384  0.00833605  1
  Rh  Rh230  1  0.20362498  0.00426687  0.59698843  1
  Rh  Rh231  1  0.59458505  0.58569216  -0.00410663  1
  Rh  Rh232  1  0.40078602  0.59572147  -0.00438088  1
  Rh  Rh233  1  -0.00964020  0.01076867  0.79332343  1
  Rh  Rh234  1  0.60847352  0.20106887  0.20159313  1
  Rh  Rh235  1  0.79936940  0.19614321  0.59903846  1
  Rh  Rh236  1  0.80112710  0.81439299  0.58233871  1
  Rh  Rh237  1  0.20944336  0.00424836  0.00748349  1
  Rh  Rh238  1  0.40246046  0.80641634  0.59614968  1
  Rh  Rh239  1  0.39900113  0.60186719  0.80676873  1
  Rh  Rh240  1  0.40322685  0.00222944  0.39767647  1
  Rh  Rh241  1  0.40319072  0.39825585  0.39861579  1
  Rh  Rh242  1  0.80338172  0.59755304  0.39043592  1
  Rh  Rh243  1  0.40448547  0.60267116  0.38924612  1
  Rh  Rh244  1  0.80233743  0.00096172  0.19529675  1
  Rh  Rh245  1  0.79206010  0.20532802  0.39431416  1
  Rh  Rh246  1  0.39602623  0.40216655  0.80391507  1
  Rh  Rh247  1  0.01226588  0.80428819  0.00959228  1
  Rh  Rh248  1  0.20959523  0.80570343  0.80232106  1
  Rh  Rh249  1  0.19739063  0.00894810  0.19478500  1
