# generated using pymatgen
data_ZrScNbPdRh
_symmetry_space_group_name_H-M   'P 1'
_cell_length_a   16.55973082
_cell_length_b   16.56473883
_cell_length_c   16.56083360
_cell_angle_alpha   90.00493767
_cell_angle_beta   89.99835714
_cell_angle_gamma   89.98679929
_symmetry_Int_Tables_number   1
_chemical_formula_structural   ZrScNbPdRh
_chemical_formula_sum   'Zr50 Sc50 Nb50 Pd50 Rh50'
_cell_volume   4542.76264913
_cell_formula_units_Z   50
loop_
 _symmetry_equiv_pos_site_id
 _symmetry_equiv_pos_as_xyz
  1  'x, y, z'
loop_
 _atom_site_type_symbol
 _atom_site_label
 _atom_site_symmetry_multiplicity
 _atom_site_fract_x
 _atom_site_fract_y
 _atom_site_fract_z
 _atom_site_occupancy
  Zr  Zr0  1  0.89920050  0.50222696  0.29955941  1
  Zr  Zr1  1  0.29996419  0.90727788  0.90081554  1
  Zr  Zr2  1  0.50075794  0.09384499  0.69498240  1
  Zr  Zr3  1  0.69674953  0.10674367  0.10081321  1
  Zr  Zr4  1  0.50413882  0.89930094  0.69455092  1
  Zr  Zr5  1  0.09331867  0.29652137  0.31120783  1
  Zr  Zr6  1  0.70077742  0.09697003  0.69929732  1
  Zr  Zr7  1  0.50662080  0.30019788  0.89514591  1
  Zr  Zr8  1  0.89848499  0.50337431  0.10135582  1
  Zr  Zr9  1  0.70521023  0.48856210  0.09792840  1
  Zr  Zr10  1  0.70841317  0.09652332  0.49273137  1
  Zr  Zr11  1  0.09904925  0.08445123  0.91068657  1
  Zr  Zr12  1  0.88646342  0.49685560  0.50042057  1
  Zr  Zr13  1  0.89471612  0.89570352  0.49736032  1
  Zr  Zr14  1  0.89610637  0.89772763  0.10821614  1
  Zr  Zr15  1  0.50214401  0.09165752  0.09996714  1
  Zr  Zr16  1  0.50722192  0.31201179  0.69470662  1
  Zr  Zr17  1  0.90705960  0.10104619  0.69991731  1
  Zr  Zr18  1  0.69647390  0.49986347  0.68961995  1
  Zr  Zr19  1  0.09924890  0.50235205  0.89810582  1
  Zr  Zr20  1  0.48997611  0.09835334  0.90251564  1
  Zr  Zr21  1  0.69058251  0.90295056  0.09712380  1
  Zr  Zr22  1  0.70395113  0.49623411  0.30723285  1
  Zr  Zr23  1  0.48603953  0.09483323  0.49638815  1
  Zr  Zr24  1  0.50509796  0.90106716  0.50515480  1
  Zr  Zr25  1  0.70318029  0.30102695  0.71321247  1
  Zr  Zr26  1  0.30816867  0.29269929  0.89768505  1
  Zr  Zr27  1  0.09933334  0.29993237  0.49651236  1
  Zr  Zr28  1  0.09151069  0.10348774  0.50145739  1
  Zr  Zr29  1  0.90850264  0.71121176  0.29360110  1
  Zr  Zr30  1  0.29918391  0.49690956  0.91798069  1
  Zr  Zr31  1  0.10378673  0.70550994  0.30313980  1
  Zr  Zr32  1  0.30525325  0.09915169  0.70915798  1
  Zr  Zr33  1  0.30538400  0.69912071  0.10045773  1
  Zr  Zr34  1  0.49953915  0.49157069  0.50931083  1
  Zr  Zr35  1  0.28826228  0.90059288  0.30367503  1
  Zr  Zr36  1  0.08927140  0.70710941  0.89913935  1
  Zr  Zr37  1  0.29837136  0.29450337  0.70722277  1
  Zr  Zr38  1  0.29576802  0.30026521  0.09487922  1
  Zr  Zr39  1  0.69169417  0.70489681  0.30792547  1
  Zr  Zr40  1  0.30319780  0.50580724  0.30856694  1
  Zr  Zr41  1  0.30112978  0.10308299  0.90626973  1
  Zr  Zr42  1  0.10547536  0.10092114  0.29887398  1
  Zr  Zr43  1  0.10582518  0.50070619  0.09657247  1
  Zr  Zr44  1  0.10163825  0.29456807  0.12064261  1
  Zr  Zr45  1  0.09429066  0.48764288  0.70000732  1
  Zr  Zr46  1  0.09480878  0.91363943  0.10172173  1
  Zr  Zr47  1  0.10613912  0.10299005  0.10079693  1
  Zr  Zr48  1  0.49524310  0.50824726  0.08640608  1
  Zr  Zr49  1  0.90520500  0.90186144  0.69559318  1
  Sc  Sc50  1  0.50507350  0.89869210  0.29185870  1
  Sc  Sc51  1  0.30373516  0.91735246  0.49895202  1
  Sc  Sc52  1  0.69490630  0.88598419  0.69509951  1
  Sc  Sc53  1  0.50039084  0.29874876  0.30014468  1
  Sc  Sc54  1  0.30891576  0.70909251  0.89687277  1
  Sc  Sc55  1  0.09728752  0.70665825  0.70007074  1
  Sc  Sc56  1  0.30687736  0.89906131  0.10343468  1
  Sc  Sc57  1  0.10861090  0.49153328  0.50074452  1
  Sc  Sc58  1  0.51746396  0.30151796  0.09943755  1
  Sc  Sc59  1  0.29100906  0.29555023  0.30502693  1
  Sc  Sc60  1  0.89268115  0.49858780  0.90028069  1
  Sc  Sc61  1  0.30630067  0.51107603  0.68282203  1
  Sc  Sc62  1  0.88750048  0.10229262  0.30619652  1
  Sc  Sc63  1  0.51111664  0.69642816  0.49858386  1
  Sc  Sc64  1  0.91288550  0.89531968  0.89904944  1
  Sc  Sc65  1  0.70111244  0.11537469  0.90267036  1
  Sc  Sc66  1  0.30348460  0.09691273  0.31292326  1
  Sc  Sc67  1  0.09457002  0.90103856  0.71054065  1
  Sc  Sc68  1  0.70038955  0.10231764  0.29190207  1
  Sc  Sc69  1  0.10335992  0.30987537  0.87954887  1
  Sc  Sc70  1  0.88929455  0.70766064  0.69777432  1
  Sc  Sc71  1  0.09497404  0.09844388  0.69494323  1
  Sc  Sc72  1  0.89697439  0.10055608  0.09982471  1
  Sc  Sc73  1  0.30465652  0.29799147  0.49785665  1
  Sc  Sc74  1  0.09011581  0.69631619  0.10228730  1
  Sc  Sc75  1  0.30348151  0.90207692  0.71233400  1
  Sc  Sc76  1  0.10316203  0.70039353  0.49769799  1
  Sc  Sc77  1  0.29762307  0.67959087  0.49657756  1
  Sc  Sc78  1  0.49911716  0.50101498  0.30619675  1
  Sc  Sc79  1  0.49859506  0.70692544  0.09151320  1
  Sc  Sc80  1  0.89188351  0.48833357  0.70054389  1
  Sc  Sc81  1  0.29556642  0.10286341  0.50299189  1
  Sc  Sc82  1  0.70413329  0.71061988  0.08222194  1
  Sc  Sc83  1  0.50175612  0.90126982  0.09686439  1
  Sc  Sc84  1  0.70049954  0.69853733  0.50906252  1
  Sc  Sc85  1  0.89475077  0.70418602  0.50454250  1
  Sc  Sc86  1  0.70354336  0.50755307  0.89981569  1
  Sc  Sc87  1  0.49612767  0.89486099  0.90877374  1
  Sc  Sc88  1  0.10250107  0.90144046  0.50047447  1
  Sc  Sc89  1  0.69900801  0.30129840  0.28618562  1
  Sc  Sc90  1  0.49753223  0.69862612  0.29983105  1
  Sc  Sc91  1  0.90926710  0.29711339  0.49190183  1
  Sc  Sc92  1  0.90170173  0.10219587  0.89910259  1
  Sc  Sc93  1  0.09304758  0.29886902  0.69080997  1
  Sc  Sc94  1  0.90056970  0.70050431  0.09792354  1
  Sc  Sc95  1  0.09907035  0.49218396  0.30246024  1
  Sc  Sc96  1  0.70431556  0.31429495  0.49475099  1
  Sc  Sc97  1  0.89076010  0.29806563  0.89116780  1
  Sc  Sc98  1  0.30019787  0.69885529  0.30425931  1
  Sc  Sc99  1  0.49998706  0.09759772  0.29512643  1
  Nb  Nb100  1  0.10175339  0.90051158  0.90560618  1
  Nb  Nb101  1  0.49756038  0.68584275  0.70432089  1
  Nb  Nb102  1  0.89580168  0.30471215  0.09886977  1
  Nb  Nb103  1  0.30141997  0.10976685  0.09191307  1
  Nb  Nb104  1  0.71188943  0.29911530  0.08777460  1
  Nb  Nb105  1  0.50147669  0.29408262  0.50023070  1
  Nb  Nb106  1  0.30366828  0.69951944  0.69751667  1
  Nb  Nb107  1  0.69841646  0.89282502  0.90544313  1
  Nb  Nb108  1  0.90265155  0.29882712  0.70319629  1
  Nb  Nb109  1  0.50234112  0.50713197  0.70311948  1
  Nb  Nb110  1  0.30356685  0.50072296  0.49152996  1
  Nb  Nb111  1  0.88881811  0.69736697  0.90203426  1
  Nb  Nb112  1  0.50841072  0.68737624  0.89549689  1
  Nb  Nb113  1  0.70515880  0.70756708  0.89214158  1
  Nb  Nb114  1  0.70274326  0.50471348  0.49847115  1
  Nb  Nb115  1  0.90031394  0.09597566  0.50198493  1
  Nb  Nb116  1  0.30076217  0.50002826  0.10016180  1
  Nb  Nb117  1  0.69444864  0.89486879  0.49983728  1
  Nb  Nb118  1  0.09270184  0.89941091  0.30110530  1
  Nb  Nb119  1  0.70445608  0.30141234  0.90793548  1
  Nb  Nb120  1  0.69008428  0.69566874  0.70465779  1
  Nb  Nb121  1  0.90485657  0.30720492  0.29758897  1
  Nb  Nb122  1  0.49825336  0.50932256  0.89491610  1
  Nb  Nb123  1  0.70669597  0.90108679  0.30470094  1
  Nb  Nb124  1  0.90131394  0.89725192  0.30078937  1
  Nb  Nb125  1  0.79445673  -0.00515849  0.80173213  1
  Nb  Nb126  1  0.80272241  0.19855209  0.60009617  1
  Nb  Nb127  1  0.39986010  0.80213849  0.40793583  1
  Nb  Nb128  1  0.39708153  0.79066789  0.60105768  1
  Nb  Nb129  1  0.60393151  0.20157046  0.59229909  1
  Nb  Nb130  1  0.00141924  0.21111707  0.00368997  1
  Nb  Nb131  1  -0.00578093  -0.00544428  0.39507170  1
  Nb  Nb132  1  0.79115920  0.60342013  0.20151478  1
  Nb  Nb133  1  0.39643101  0.20197543  0.19294053  1
  Nb  Nb134  1  0.21248463  0.79759801  0.60450699  1
  Nb  Nb135  1  -0.00330046  0.59495678  0.60102706  1
  Nb  Nb136  1  0.79952850  -0.00174252  0.59893278  1
  Nb  Nb137  1  0.60695738  -0.00437040  0.80787740  1
  Nb  Nb138  1  0.60651590  -0.00244365  0.40062845  1
  Nb  Nb139  1  0.19851250  0.60317043  0.79819465  1
  Nb  Nb140  1  0.79411151  -0.00511218  -0.00634286  1
  Nb  Nb141  1  0.19370264  0.80607884  -0.00164866  1
  Nb  Nb142  1  0.40663936  0.41078212  0.79962635  1
  Nb  Nb143  1  0.60692760  0.59925581  0.19487296  1
  Nb  Nb144  1  0.20368116  0.59595048  0.19712140  1
  Nb  Nb145  1  0.59826368  0.19736205  0.40657483  1
  Nb  Nb146  1  0.39522919  0.40170665  0.19358507  1
  Nb  Nb147  1  -0.00222958  0.59985657  0.40470900  1
  Nb  Nb148  1  -0.00098397  0.39155822  0.00389693  1
  Nb  Nb149  1  -0.00325198  0.60169375  0.79701279  1
  Pd  Pd150  1  0.20111841  -0.00681686  0.60907291  1
  Pd  Pd151  1  0.60351318  0.41160774  0.80872958  1
  Pd  Pd152  1  0.40274053  0.20175470  0.60493318  1
  Pd  Pd153  1  -0.00155641  0.80278777  0.00755299  1
  Pd  Pd154  1  0.19356815  0.00540901  0.79617115  1
  Pd  Pd155  1  0.60130935  0.79507245  0.19674267  1
  Pd  Pd156  1  0.19991829  0.20180232  0.59990506  1
  Pd  Pd157  1  0.20303466  0.61609172  -0.00203471  1
  Pd  Pd158  1  0.19318515  0.79587343  0.18995044  1
  Pd  Pd159  1  0.80551557  0.61279095  0.39604472  1
  Pd  Pd160  1  0.40435207  0.59637291  0.19994854  1
  Pd  Pd161  1  0.18749602  0.18932895  0.80173569  1
  Pd  Pd162  1  0.21057159  0.39586345  0.59814783  1
  Pd  Pd163  1  0.59074058  0.80168916  0.80346688  1
  Pd  Pd164  1  0.59734990  0.59539513  0.40088921  1
  Pd  Pd165  1  0.18843764  0.38743492  -0.00107465  1
  Pd  Pd166  1  -0.00856251  0.59399196  -0.00757549  1
  Pd  Pd167  1  0.40071421  0.80119912  0.20930636  1
  Pd  Pd168  1  0.39264924  0.00499459  0.20259844  1
  Pd  Pd169  1  -0.00905627  0.00970191  0.20858810  1
  Pd  Pd170  1  0.59577142  0.19296810  0.79581921  1
  Pd  Pd171  1  0.80206285  0.59739541  0.79138027  1
  Pd  Pd172  1  -0.01187816  0.19260056  0.20215807  1
  Pd  Pd173  1  0.00915987  0.79762962  0.59517656  1
  Pd  Pd174  1  0.20730282  0.40563573  0.20912193  1
  Pd  Pd175  1  0.59828356  0.39518475  0.40061705  1
  Pd  Pd176  1  -0.00114765  0.40507175  0.19682828  1
  Pd  Pd177  1  0.59157649  0.40911223  0.19969324  1
  Pd  Pd178  1  0.60222630  0.40559492  -0.00887537  1
  Pd  Pd179  1  0.21860043  0.41487066  0.79205093  1
  Pd  Pd180  1  0.80280176  0.38776529  0.60055053  1
  Pd  Pd181  1  0.40877772  0.39198593  -0.00022638  1
  Pd  Pd182  1  0.79781412  0.79351277  0.40210184  1
  Pd  Pd183  1  0.79672509  0.21181563  0.40045065  1
  Pd  Pd184  1  0.41084531  0.79935441  0.79684711  1
  Pd  Pd185  1  0.59586200  0.19752698  -0.00003974  1
  Pd  Pd186  1  0.80459786  0.20744125  0.19986949  1
  Pd  Pd187  1  0.18834168  0.60324368  0.60574666  1
  Pd  Pd188  1  0.00689366  0.19759102  0.80782923  1
  Pd  Pd189  1  0.20952872  0.80246307  0.41539520  1
  Pd  Pd190  1  0.40002161  0.39254500  0.39387005  1
  Pd  Pd191  1  0.39311754  0.39860545  0.60400880  1
  Pd  Pd192  1  0.78980979  0.79466455  0.19863742  1
  Pd  Pd193  1  0.79512765  -0.00050491  0.19582196  1
  Pd  Pd194  1  0.38623820  0.59370363  0.80651421  1
  Pd  Pd195  1  0.21095742  0.00610418  0.19600940  1
  Pd  Pd196  1  0.20001155  0.79676212  0.80119380  1
  Pd  Pd197  1  0.80348624  0.80697984  0.79975311  1
  Pd  Pd198  1  0.60940084  0.60446449  0.00114045  1
  Pd  Pd199  1  0.18538424  0.21126651  -0.01156551  1
  Rh  Rh200  1  0.60709429  0.00536213  -0.00875548  1
  Rh  Rh201  1  0.39718025  0.60917155  -0.00679694  1
  Rh  Rh202  1  0.18946161  0.59328820  0.39213259  1
  Rh  Rh203  1  0.00149027  0.80064184  0.40443908  1
  Rh  Rh204  1  0.80867464  0.80739229  -0.00445866  1
  Rh  Rh205  1  -0.00724228  0.20699067  0.59944548  1
  Rh  Rh206  1  0.39574423  -0.00188934  0.00519620  1
  Rh  Rh207  1  0.59351184  0.78366724  0.60694164  1
  Rh  Rh208  1  0.19964786  0.19696828  0.40690965  1
  Rh  Rh209  1  0.80230901  0.39258898  0.39354170  1
  Rh  Rh210  1  0.59336061  0.19912270  0.20497125  1
  Rh  Rh211  1  0.80259299  0.39923353  0.20322091  1
  Rh  Rh212  1  0.00683304  0.80390868  0.19460655  1
  Rh  Rh213  1  0.60792368  -0.00340678  0.20783369  1
  Rh  Rh214  1  -0.00584108  0.18921724  0.39271249  1
  Rh  Rh215  1  0.79472821  0.40084035  0.80388141  1
  Rh  Rh216  1  -0.00703125  0.40108240  0.59402770  1
  Rh  Rh217  1  0.61018894  0.00646809  0.59405698  1
  Rh  Rh218  1  -0.00085032  0.00093563  0.80517762  1
  Rh  Rh219  1  0.00533309  0.60060821  0.21173633  1
  Rh  Rh220  1  0.41111305  -0.00487640  0.80119213  1
  Rh  Rh221  1  0.41221319  0.20693037  0.79125722  1
  Rh  Rh222  1  0.41142022  0.20666531  0.00974572  1
  Rh  Rh223  1  0.40977411  0.60426292  0.40783174  1
  Rh  Rh224  1  0.80040909  -0.00835166  0.40234742  1
  Rh  Rh225  1  0.59392050  0.80950165  0.39742929  1
  Rh  Rh226  1  -0.00412659  0.40966844  0.40555734  1
  Rh  Rh227  1  -0.01299482  0.00393170  0.00179862  1
  Rh  Rh228  1  0.38827233  -0.00466595  0.60936438  1
  Rh  Rh229  1  0.39783545  0.79890934  -0.00193755  1
  Rh  Rh230  1  -0.01138445  0.40455112  0.80493007  1
  Rh  Rh231  1  0.80229821  0.19719616  0.79604209  1
  Rh  Rh232  1  0.59309521  0.79250599  -0.00968085  1
  Rh  Rh233  1  0.40914351  0.60307616  0.59163088  1
  Rh  Rh234  1  0.79987925  0.60322680  0.60660498  1
  Rh  Rh235  1  0.80627666  0.39821115  -0.00694430  1
  Rh  Rh236  1  0.79786818  0.60387380  0.00405517  1
  Rh  Rh237  1  0.78986243  0.80126714  0.60215674  1
  Rh  Rh238  1  0.60593533  0.39855476  0.59404582  1
  Rh  Rh239  1  0.41067329  -0.01357637  0.38986023  1
  Rh  Rh240  1  0.20519058  0.39903170  0.40372180  1
  Rh  Rh241  1  0.59922562  0.59882080  0.59899562  1
  Rh  Rh242  1  0.80823906  0.19663413  -0.00086135  1
  Rh  Rh243  1  -0.00964616  0.79270585  0.79900624  1
  Rh  Rh244  1  0.60883620  0.59728410  0.80075051  1
  Rh  Rh245  1  0.40541638  0.20193433  0.39146956  1
  Rh  Rh246  1  0.20999022  -0.00683579  0.00949952  1
  Rh  Rh247  1  0.18642535  0.00322603  0.40311797  1
  Rh  Rh248  1  0.21367175  0.19094905  0.20786023  1
  Rh  Rh249  1  -0.00212993  -0.00771611  0.59051164  1
