# generated using pymatgen
data_ZrScNbPdRh
_symmetry_space_group_name_H-M   'P 1'
_cell_length_a   16.56369477
_cell_length_b   16.55732720
_cell_length_c   16.55866648
_cell_angle_alpha   90.01067118
_cell_angle_beta   90.00672495
_cell_angle_gamma   89.97338926
_symmetry_Int_Tables_number   1
_chemical_formula_structural   ZrScNbPdRh
_chemical_formula_sum   'Zr50 Sc50 Nb50 Pd50 Rh50'
_cell_volume   4541.22219272
_cell_formula_units_Z   50
loop_
 _symmetry_equiv_pos_site_id
 _symmetry_equiv_pos_as_xyz
  1  'x, y, z'
loop_
 _atom_site_type_symbol
 _atom_site_label
 _atom_site_symmetry_multiplicity
 _atom_site_fract_x
 _atom_site_fract_y
 _atom_site_fract_z
 _atom_site_occupancy
  Zr  Zr0  1  0.29953326  0.50225738  0.70095928  1
  Zr  Zr1  1  0.89086743  0.70165556  0.70064174  1
  Zr  Zr2  1  0.30836678  0.10106879  0.70222848  1
  Zr  Zr3  1  0.90804189  0.28480680  0.50635298  1
  Zr  Zr4  1  0.90340918  0.89663898  0.69250635  1
  Zr  Zr5  1  0.89592182  0.10048616  0.09861117  1
  Zr  Zr6  1  0.09964766  0.10269451  0.49975165  1
  Zr  Zr7  1  0.69596198  0.30495623  0.31026832  1
  Zr  Zr8  1  0.50604522  0.69993397  0.89360462  1
  Zr  Zr9  1  0.69021348  0.50228306  0.10370748  1
  Zr  Zr10  1  0.69319087  0.09549996  0.09541052  1
  Zr  Zr11  1  0.90682950  0.50093884  0.09720862  1
  Zr  Zr12  1  0.88874436  0.89954541  0.50374326  1
  Zr  Zr13  1  0.10451201  0.89961029  0.90033482  1
  Zr  Zr14  1  0.49503174  0.10688176  0.09860187  1
  Zr  Zr15  1  0.10240788  0.30280625  0.30297697  1
  Zr  Zr16  1  0.09231329  0.69683351  0.10322045  1
  Zr  Zr17  1  0.89841226  0.30241087  0.09233141  1
  Zr  Zr18  1  0.68897209  0.90022636  0.89532164  1
  Zr  Zr19  1  0.69319413  0.90119193  0.11166904  1
  Zr  Zr20  1  0.29286434  0.11195583  0.89766256  1
  Zr  Zr21  1  0.90251818  0.69496347  0.29049337  1
  Zr  Zr22  1  0.30153420  0.89910989  0.69964964  1
  Zr  Zr23  1  0.89709410  0.29697057  0.70304923  1
  Zr  Zr24  1  0.10412218  0.10258221  0.30844380  1
  Zr  Zr25  1  0.90032725  0.89124153  0.89642614  1
  Zr  Zr26  1  0.08875514  0.49277424  0.29970433  1
  Zr  Zr27  1  0.10222695  0.70246012  0.90206618  1
  Zr  Zr28  1  0.10259183  0.29973484  0.49054140  1
  Zr  Zr29  1  0.11796233  0.89671128  0.30287786  1
  Zr  Zr30  1  0.09553301  0.30642495  0.69441841  1
  Zr  Zr31  1  0.50282998  0.90546771  0.09572451  1
  Zr  Zr32  1  0.30258582  0.29494253  0.70244246  1
  Zr  Zr33  1  0.09844909  0.50144027  0.50815483  1
  Zr  Zr34  1  0.90381958  0.70001750  0.09787626  1
  Zr  Zr35  1  0.69602317  0.30199076  0.09150058  1
  Zr  Zr36  1  0.49997435  0.69760743  0.49333193  1
  Zr  Zr37  1  0.29419543  0.89194925  0.49057950  1
  Zr  Zr38  1  0.30364218  0.50692449  0.50740271  1
  Zr  Zr39  1  0.89790255  0.09954454  0.68467457  1
  Zr  Zr40  1  0.69790327  0.10181959  0.70552765  1
  Zr  Zr41  1  0.69648545  0.70871734  0.49662790  1
  Zr  Zr42  1  0.29495573  0.69217629  0.70121240  1
  Zr  Zr43  1  0.49824350  0.09674275  0.69684856  1
  Zr  Zr44  1  0.89886624  0.89543630  0.10645339  1
  Zr  Zr45  1  0.69289847  0.49700435  0.49336635  1
  Zr  Zr46  1  0.30071167  0.90346623  0.89654870  1
  Zr  Zr47  1  0.30182571  0.10744008  0.09900768  1
  Zr  Zr48  1  0.69819035  0.49526712  0.69625117  1
  Zr  Zr49  1  0.09618212  0.09843601  0.08846907  1
  Sc  Sc50  1  0.71827485  0.09994008  0.50294940  1
  Sc  Sc51  1  0.49839844  0.69775534  0.30757089  1
  Sc  Sc52  1  0.29678460  0.30552996  0.29906599  1
  Sc  Sc53  1  0.09647029  0.49634996  0.10412370  1
  Sc  Sc54  1  0.31397219  0.29985362  0.09766421  1
  Sc  Sc55  1  0.09106946  0.50011499  0.90360498  1
  Sc  Sc56  1  0.50424997  0.89982768  0.30631604  1
  Sc  Sc57  1  0.29966772  0.08730694  0.30716933  1
  Sc  Sc58  1  0.89945766  0.70061882  0.50689214  1
  Sc  Sc59  1  0.69872863  0.89889693  0.69306472  1
  Sc  Sc60  1  0.50330076  0.69700176  0.09755794  1
  Sc  Sc61  1  0.49709503  0.49472852  0.10123319  1
  Sc  Sc62  1  0.09917273  0.70110119  0.50722215  1
  Sc  Sc63  1  0.30161624  0.69982213  0.30450213  1
  Sc  Sc64  1  0.90440076  0.11279008  0.90616667  1
  Sc  Sc65  1  0.50931148  0.30423227  0.49715838  1
  Sc  Sc66  1  0.31139112  0.50697176  0.89170741  1
  Sc  Sc67  1  0.30754511  0.70182143  0.89527041  1
  Sc  Sc68  1  0.29424723  0.90460868  0.10422149  1
  Sc  Sc69  1  0.50598990  0.89220647  0.50522194  1
  Sc  Sc70  1  0.49320870  0.10335443  0.30934166  1
  Sc  Sc71  1  0.09318277  0.29007437  0.89509928  1
  Sc  Sc72  1  0.89693530  0.69856724  0.89366025  1
  Sc  Sc73  1  0.89814936  0.50543325  0.49617253  1
  Sc  Sc74  1  0.30987429  0.49418563  0.10526555  1
  Sc  Sc75  1  0.69464749  0.49672616  0.89270135  1
  Sc  Sc76  1  0.09639368  0.31094737  0.10392418  1
  Sc  Sc77  1  0.50172245  0.29984776  0.70698534  1
  Sc  Sc78  1  0.49667778  0.89838520  0.89365171  1
  Sc  Sc79  1  0.69974605  0.30466586  0.50198968  1
  Sc  Sc80  1  0.89533547  0.50032777  0.69593533  1
  Sc  Sc81  1  0.70197314  0.30229048  0.70332456  1
  Sc  Sc82  1  0.90832777  0.30594960  0.31111646  1
  Sc  Sc83  1  0.49662291  0.49002809  0.70205265  1
  Sc  Sc84  1  0.09866613  0.89215745  0.50764132  1
  Sc  Sc85  1  0.30497670  0.70290647  0.49984671  1
  Sc  Sc86  1  0.09871764  0.88996232  0.09515945  1
  Sc  Sc87  1  0.50272416  0.90720230  0.69948407  1
  Sc  Sc88  1  0.88779333  0.09549338  0.30822700  1
  Sc  Sc89  1  0.89995128  0.49968092  0.90246227  1
  Sc  Sc90  1  0.89633766  0.30307443  0.90212060  1
  Sc  Sc91  1  0.49834810  0.30347521  0.30411756  1
  Sc  Sc92  1  0.10514579  0.10755585  0.70365767  1
  Sc  Sc93  1  0.50188243  0.50627538  0.29987055  1
  Sc  Sc94  1  0.30653059  0.69106247  0.10502850  1
  Sc  Sc95  1  0.30616257  0.10548456  0.49860913  1
  Sc  Sc96  1  0.30242633  0.50209222  0.29039061  1
  Sc  Sc97  1  0.50720217  0.10058674  0.89186307  1
  Sc  Sc98  1  0.49752042  0.49502831  0.89695913  1
  Sc  Sc99  1  0.49683783  0.30127259  0.90066428  1
  Nb  Nb100  1  0.50720319  0.09768655  0.50379725  1
  Nb  Nb101  1  0.10046216  0.69817725  0.69662333  1
  Nb  Nb102  1  0.29586182  0.30547222  0.49932151  1
  Nb  Nb103  1  0.70132766  0.10184673  0.89844724  1
  Nb  Nb104  1  0.89779398  0.89897232  0.29910578  1
  Nb  Nb105  1  0.70017208  0.69899944  0.89235804  1
  Nb  Nb106  1  0.09978576  0.09815500  0.90036431  1
  Nb  Nb107  1  0.10579246  0.51063344  0.69955082  1
  Nb  Nb108  1  0.69976409  0.89909799  0.49482739  1
  Nb  Nb109  1  0.69646985  0.69912322  0.29698235  1
  Nb  Nb110  1  0.50171998  0.50455571  0.49942874  1
  Nb  Nb111  1  0.49758402  0.30098473  0.10289921  1
  Nb  Nb112  1  0.30031088  0.30356470  0.89863211  1
  Nb  Nb113  1  0.69696341  0.70131310  0.09784093  1
  Nb  Nb114  1  0.70076713  0.09735035  0.29577440  1
  Nb  Nb115  1  0.70003828  0.69458312  0.71244055  1
  Nb  Nb116  1  0.09963230  0.89693492  0.69661376  1
  Nb  Nb117  1  0.70935296  0.90442825  0.30429294  1
  Nb  Nb118  1  0.70585341  0.50457566  0.30256465  1
  Nb  Nb119  1  0.70062621  0.28620995  0.89430335  1
  Nb  Nb120  1  0.30317119  0.89507699  0.30347166  1
  Nb  Nb121  1  0.89453232  0.50063247  0.29953584  1
  Nb  Nb122  1  0.90664200  0.09291676  0.50390349  1
  Nb  Nb123  1  0.50546539  0.70211580  0.69969842  1
  Nb  Nb124  1  0.09982369  0.69780249  0.29829799  1
  Nb  Nb125  1  -0.00255768  0.19540567  0.20306171  1
  Nb  Nb126  1  0.59977465  0.19392006  0.59942157  1
  Nb  Nb127  1  0.80503165  0.00241777  0.80375691  1
  Nb  Nb128  1  0.79485581  0.20588965  0.20225685  1
  Nb  Nb129  1  0.00510971  0.60290571  0.79130472  1
  Nb  Nb130  1  0.79705307  0.40386661  0.20568137  1
  Nb  Nb131  1  0.00245243  0.00057206  0.80013128  1
  Nb  Nb132  1  0.20102785  0.59451122  -0.00001156  1
  Nb  Nb133  1  0.60236037  0.20181276  0.20088164  1
  Nb  Nb134  1  0.61141754  0.00112101  0.40325455  1
  Nb  Nb135  1  0.39741585  0.00641463  -0.00194760  1
  Nb  Nb136  1  -0.00374989  -0.00712910  0.40085690  1
  Nb  Nb137  1  -0.00216750  0.80266236  0.39213589  1
  Nb  Nb138  1  0.39993038  0.80611721  0.20401163  1
  Nb  Nb139  1  0.20671940  0.40153145  -0.00887125  1
  Nb  Nb140  1  0.78882704  0.60729644  0.00138600  1
  Nb  Nb141  1  0.59878838  0.60165534  0.60121056  1
  Nb  Nb142  1  0.39816921  0.40659658  0.40907065  1
  Nb  Nb143  1  0.19581547  0.19888231  0.19949383  1
  Nb  Nb144  1  0.20179699  -0.00256750  0.60283146  1
  Nb  Nb145  1  0.19369712  0.59910683  0.39749914  1
  Nb  Nb146  1  0.79501467  -0.00457190  -0.00459512  1
  Nb  Nb147  1  0.19842530  0.40266559  0.80094039  1
  Nb  Nb148  1  0.00018133  -0.00067294  0.20852296  1
  Nb  Nb149  1  0.78902534  0.79699855  0.00025129  1
  Pd  Pd150  1  0.41038893  0.60413253  0.60740506  1
  Pd  Pd151  1  0.79379349  0.79504240  0.20044448  1
  Pd  Pd152  1  0.40069016  0.79885730  0.60263841  1
  Pd  Pd153  1  0.59677486  0.39845669  -0.00837622  1
  Pd  Pd154  1  0.41104853  0.20960444  0.59095072  1
  Pd  Pd155  1  0.20042330  0.19663728  0.59892045  1
  Pd  Pd156  1  0.79920787  0.40217141  0.80483903  1
  Pd  Pd157  1  0.80837548  0.39769549  0.40429323  1
  Pd  Pd158  1  0.20133541  0.79686357  0.79662754  1
  Pd  Pd159  1  0.19267015  0.21460933  0.00636511  1
  Pd  Pd160  1  0.59974984  0.79892680  -0.00259727  1
  Pd  Pd161  1  0.59393015  0.59070202  0.79299809  1
  Pd  Pd162  1  0.20948083  0.79223296  0.19577655  1
  Pd  Pd163  1  0.59916630  0.39751374  0.20711766  1
  Pd  Pd164  1  0.79738734  0.60872810  0.40178196  1
  Pd  Pd165  1  0.39415992  -0.00759936  0.58872609  1
  Pd  Pd166  1  0.80205291  0.20111270  0.40016458  1
  Pd  Pd167  1  0.00303292  0.60654607  0.40122532  1
  Pd  Pd168  1  -0.00465219  0.19368380  0.79552998  1
  Pd  Pd169  1  0.19457901  0.00571222  0.19527431  1
  Pd  Pd170  1  0.59273847  0.20316373  -0.00175643  1
  Pd  Pd171  1  -0.00743675  0.40504255  0.59773795  1
  Pd  Pd172  1  -0.00742625  -0.00702917  -0.00352620  1
  Pd  Pd173  1  0.59913446  0.59586968  -0.00511706  1
  Pd  Pd174  1  0.58863858  0.00798988  0.21261702  1
  Pd  Pd175  1  0.39609640  0.21065576  0.40313966  1
  Pd  Pd176  1  0.79133747  0.40992324  -0.00129170  1
  Pd  Pd177  1  0.40412395  0.79847781  0.79213662  1
  Pd  Pd178  1  0.60559846  0.18998091  0.40346183  1
  Pd  Pd179  1  0.39568272  0.80592426  0.00907737  1
  Pd  Pd180  1  0.80461780  0.39622498  0.59202794  1
  Pd  Pd181  1  0.20840686  0.41350267  0.39979650  1
  Pd  Pd182  1  0.21272876  0.78915934  0.00669131  1
  Pd  Pd183  1  0.00509012  0.79707484  0.79621231  1
  Pd  Pd184  1  0.40966256  -0.00739869  0.40978275  1
  Pd  Pd185  1  0.60308231  0.79520952  0.60599603  1
  Pd  Pd186  1  0.40003522  0.59689991  -0.00029941  1
  Pd  Pd187  1  0.39725721  0.20356868  0.21308795  1
  Pd  Pd188  1  0.00249547  0.40849083  0.79994993  1
  Pd  Pd189  1  0.40276800  -0.00451823  0.19935869  1
  Pd  Pd190  1  0.59438115  0.60433255  0.20405510  1
  Pd  Pd191  1  0.40639928  0.39209592  0.59624291  1
  Pd  Pd192  1  0.19521783  0.00257340  0.79323269  1
  Pd  Pd193  1  0.59248807  0.79537121  0.20887101  1
  Pd  Pd194  1  0.79864940  0.59620936  0.19281571  1
  Pd  Pd195  1  0.19624413  0.59624774  0.19911490  1
  Pd  Pd196  1  0.80528869  0.79155339  0.39376260  1
  Pd  Pd197  1  0.20190649  0.39954676  0.60565114  1
  Pd  Pd198  1  0.20581319  -0.00038885  0.00150939  1
  Pd  Pd199  1  0.78911572  0.60192222  0.59641585  1
  Rh  Rh200  1  0.59890525  0.20337453  0.79535851  1
  Rh  Rh201  1  0.59941562  0.80260439  0.79292741  1
  Rh  Rh202  1  0.19781184  -0.00082819  0.41383196  1
  Rh  Rh203  1  0.79239966  0.20737419  0.60072618  1
  Rh  Rh204  1  0.60722911  0.80722561  0.39068772  1
  Rh  Rh205  1  0.39227889  0.39702562  0.79987693  1
  Rh  Rh206  1  0.21257876  0.20064811  0.39481538  1
  Rh  Rh207  1  0.60316836  0.39197473  0.80344817  1
  Rh  Rh208  1  0.80000771  -0.00080403  0.40381030  1
  Rh  Rh209  1  0.00756968  0.39385091  -0.00701076  1
  Rh  Rh210  1  -0.00420162  0.60176232  0.60817837  1
  Rh  Rh211  1  0.00876340  0.80951315  0.20967162  1
  Rh  Rh212  1  0.78986214  0.80643035  0.79975663  1
  Rh  Rh213  1  0.41062887  0.60444728  0.79431892  1
  Rh  Rh214  1  0.40663259  0.39781152  0.20906243  1
  Rh  Rh215  1  -0.00144211  0.79441999  0.59704130  1
  Rh  Rh216  1  0.79359966  -0.00351633  0.60451691  1
  Rh  Rh217  1  0.39006452  0.59207374  0.39643776  1
  Rh  Rh218  1  0.39948959  0.00420561  0.80856535  1
  Rh  Rh219  1  0.80655903  0.59310700  0.80636475  1
  Rh  Rh220  1  0.80514333  0.19577467  0.80127275  1
  Rh  Rh221  1  0.59020198  0.40973201  0.39552857  1
  Rh  Rh222  1  -0.01500080  0.39626556  0.20153911  1
  Rh  Rh223  1  0.19321112  0.78652447  0.40014568  1
  Rh  Rh224  1  -0.00542837  0.40553946  0.40940776  1
  Rh  Rh225  1  -0.00916180  0.18846664  0.39534676  1
  Rh  Rh226  1  0.40405979  0.19965179  0.80536038  1
  Rh  Rh227  1  0.60302019  -0.00008184  0.79722385  1
  Rh  Rh228  1  0.40588888  0.19845992  -0.00903475  1
  Rh  Rh229  1  0.40486973  0.80270021  0.39512672  1
  Rh  Rh230  1  0.59793706  0.39948061  0.60269437  1
  Rh  Rh231  1  0.20242353  0.80061620  0.60525146  1
  Rh  Rh232  1  0.01298296  0.00157359  0.60094490  1
  Rh  Rh233  1  0.00136259  0.59234516  0.20194150  1
  Rh  Rh234  1  0.20974154  0.39076506  0.18697531  1
  Rh  Rh235  1  0.20165812  0.60796864  0.59155949  1
  Rh  Rh236  1  -0.00073994  0.60584871  -0.00921079  1
  Rh  Rh237  1  0.19172393  0.59569970  0.81119213  1
  Rh  Rh238  1  0.00473093  0.20700967  0.00406139  1
  Rh  Rh239  1  0.80430546  0.00401744  0.19451853  1
  Rh  Rh240  1  -0.00589123  0.79699318  -0.00242655  1
  Rh  Rh241  1  0.60537095  0.60049863  0.40015868  1
  Rh  Rh242  1  0.60840504  0.00538063  0.59089978  1
  Rh  Rh243  1  0.79067448  0.79673524  0.60441185  1
  Rh  Rh244  1  0.79512257  0.19519813  -0.00002281  1
  Rh  Rh245  1  0.19701898  0.20799779  0.79883608  1
  Rh  Rh246  1  0.59583311  0.00042941  -0.00744027  1
  Rh  Rh247  1  0.40856130  0.61002704  0.20199589  1
  Rh  Rh248  1  0.00842654  0.19792772  0.60295994  1
  Rh  Rh249  1  0.39896997  0.40021246  -0.00086422  1
