# generated using pymatgen
data_ZrScNbPdRh
_symmetry_space_group_name_H-M   'P 1'
_cell_length_a   16.56166744
_cell_length_b   16.56009499
_cell_length_c   16.55372470
_cell_angle_alpha   90.00073952
_cell_angle_beta   90.03798037
_cell_angle_gamma   90.03535324
_symmetry_Int_Tables_number   1
_chemical_formula_structural   ZrScNbPdRh
_chemical_formula_sum   'Zr50 Sc50 Nb50 Pd50 Rh50'
_cell_volume   4540.06879103
_cell_formula_units_Z   50
loop_
 _symmetry_equiv_pos_site_id
 _symmetry_equiv_pos_as_xyz
  1  'x, y, z'
loop_
 _atom_site_type_symbol
 _atom_site_label
 _atom_site_symmetry_multiplicity
 _atom_site_fract_x
 _atom_site_fract_y
 _atom_site_fract_z
 _atom_site_occupancy
  Zr  Zr0  1  0.30104004  0.89570990  0.11077811  1
  Zr  Zr1  1  0.90381975  0.09962098  0.49086742  1
  Zr  Zr2  1  0.10431782  0.90227812  0.29158649  1
  Zr  Zr3  1  0.89870182  0.90388466  0.89813977  1
  Zr  Zr4  1  0.29613021  0.69657380  0.29776553  1
  Zr  Zr5  1  0.50015602  0.30051961  0.69828928  1
  Zr  Zr6  1  0.09711292  0.50190749  0.70997152  1
  Zr  Zr7  1  0.50660218  0.89290307  0.69666068  1
  Zr  Zr8  1  0.90148949  0.30422928  0.70065955  1
  Zr  Zr9  1  0.71174453  0.09670383  0.30197177  1
  Zr  Zr10  1  0.29500282  0.50310009  0.29533549  1
  Zr  Zr11  1  0.50286499  0.09545717  0.09679947  1
  Zr  Zr12  1  0.09556063  0.69241273  0.30449952  1
  Zr  Zr13  1  0.70028131  0.51547477  0.30412368  1
  Zr  Zr14  1  0.09685514  0.10223295  0.30398011  1
  Zr  Zr15  1  0.50736228  0.09810551  0.30059629  1
  Zr  Zr16  1  0.50011187  0.70030964  0.89598111  1
  Zr  Zr17  1  0.70242933  0.09348532  0.09342412  1
  Zr  Zr18  1  0.10555185  0.50117910  0.29267972  1
  Zr  Zr19  1  0.70590559  0.09591872  0.69792566  1
  Zr  Zr20  1  0.89443842  0.69707120  0.69986036  1
  Zr  Zr21  1  0.90203968  0.89903328  0.70652208  1
  Zr  Zr22  1  0.70209659  0.30277732  0.71114325  1
  Zr  Zr23  1  0.90250245  0.31487791  0.49740025  1
  Zr  Zr24  1  0.10224973  0.09662190  0.09766742  1
  Zr  Zr25  1  0.30907899  0.49347233  0.49596278  1
  Zr  Zr26  1  0.89040276  0.89823577  0.09288854  1
  Zr  Zr27  1  0.29882445  0.48955964  0.10178334  1
  Zr  Zr28  1  0.09484700  0.09959101  0.90492118  1
  Zr  Zr29  1  0.50533908  0.89245803  0.09291454  1
  Zr  Zr30  1  0.09698156  0.50216886  0.09294696  1
  Zr  Zr31  1  0.09531402  0.90010891  0.89427889  1
  Zr  Zr32  1  0.50041681  0.50119835  0.09695943  1
  Zr  Zr33  1  0.10033518  0.90279804  0.51056456  1
  Zr  Zr34  1  0.89098206  0.91324766  0.30193630  1
  Zr  Zr35  1  0.29760565  0.50587285  0.90158693  1
  Zr  Zr36  1  0.50879290  0.29373589  0.30671775  1
  Zr  Zr37  1  0.30464372  0.10204316  0.69923091  1
  Zr  Zr38  1  0.71221959  0.29228931  0.10462762  1
  Zr  Zr39  1  0.90302617  0.50753547  0.90133233  1
  Zr  Zr40  1  0.89371409  0.29809334  0.29870009  1
  Zr  Zr41  1  0.10390063  0.10604225  0.49804459  1
  Zr  Zr42  1  0.08603436  0.69471872  0.10602376  1
  Zr  Zr43  1  0.50456627  0.88733896  0.50534362  1
  Zr  Zr44  1  0.89683503  0.50770518  0.69235122  1
  Zr  Zr45  1  0.30965746  0.69815985  0.50429425  1
  Zr  Zr46  1  0.49254079  0.30540421  0.50557653  1
  Zr  Zr47  1  0.29768105  0.89675419  0.70344783  1
  Zr  Zr48  1  0.70163316  0.50004221  0.10368774  1
  Zr  Zr49  1  0.50670616  0.29983858  0.89652994  1
  Sc  Sc50  1  0.09040354  0.70412768  0.70341408  1
  Sc  Sc51  1  0.89600075  0.71121229  0.89806660  1
  Sc  Sc52  1  0.50791009  0.50455631  0.69109778  1
  Sc  Sc53  1  0.69449496  0.69895007  0.48972282  1
  Sc  Sc54  1  0.08538005  0.50582824  0.49384536  1
  Sc  Sc55  1  0.70187286  0.09582720  0.50660448  1
  Sc  Sc56  1  0.09647469  0.90045818  0.70486426  1
  Sc  Sc57  1  0.50344490  0.10214897  0.89908710  1
  Sc  Sc58  1  0.09074026  0.90183084  0.09851520  1
  Sc  Sc59  1  0.49646410  0.88763640  0.29317149  1
  Sc  Sc60  1  0.30193576  0.30399931  0.90892719  1
  Sc  Sc61  1  0.50354037  0.69628172  0.50879235  1
  Sc  Sc62  1  0.49264375  0.50246672  0.30243411  1
  Sc  Sc63  1  0.89699071  0.09715028  0.89667237  1
  Sc  Sc64  1  0.89421591  0.09943560  0.09298835  1
  Sc  Sc65  1  0.28976569  0.08734487  0.29526331  1
  Sc  Sc66  1  0.51096973  0.69528401  0.30057987  1
  Sc  Sc67  1  0.70584243  0.29083099  0.29998103  1
  Sc  Sc68  1  0.30426530  0.09895112  0.89509850  1
  Sc  Sc69  1  0.89449706  0.50140894  0.30554142  1
  Sc  Sc70  1  0.30206167  0.89253874  0.89308826  1
  Sc  Sc71  1  0.50613295  0.10566177  0.50376420  1
  Sc  Sc72  1  0.10150886  0.30463132  0.08082015  1
  Sc  Sc73  1  0.49599550  0.30177506  0.09181154  1
  Sc  Sc74  1  0.50455344  0.88985889  0.89930597  1
  Sc  Sc75  1  0.89957804  0.69836804  0.30471791  1
  Sc  Sc76  1  0.29862152  0.29984817  0.49912935  1
  Sc  Sc77  1  0.70578336  0.10363146  0.90221565  1
  Sc  Sc78  1  0.29333933  0.31849807  0.30787314  1
  Sc  Sc79  1  0.28783408  0.10106190  0.50211026  1
  Sc  Sc80  1  0.10440197  0.09276333  0.69411715  1
  Sc  Sc81  1  0.30333650  0.70020822  0.88945840  1
  Sc  Sc82  1  0.30304769  0.69596633  0.09787072  1
  Sc  Sc83  1  0.10200834  0.49951926  0.90453569  1
  Sc  Sc84  1  0.29575855  0.09612243  0.09586484  1
  Sc  Sc85  1  0.90482794  0.29165831  0.89763018  1
  Sc  Sc86  1  0.69062635  0.69862458  0.10434633  1
  Sc  Sc87  1  0.70227169  0.89511972  0.90724222  1
  Sc  Sc88  1  0.90644579  0.50315772  0.10284948  1
  Sc  Sc89  1  0.69220980  0.69328341  0.70299847  1
  Sc  Sc90  1  0.50247426  0.70248436  0.09644650  1
  Sc  Sc91  1  0.49616889  0.10681488  0.70261122  1
  Sc  Sc92  1  0.69799122  0.70016799  0.89361349  1
  Sc  Sc93  1  0.69931122  0.29608728  0.50685316  1
  Sc  Sc94  1  0.90401856  0.89735530  0.49819887  1
  Sc  Sc95  1  0.89484105  0.10016661  0.70493530  1
  Sc  Sc96  1  0.30203631  0.50578709  0.70451791  1
  Sc  Sc97  1  0.91117495  0.69776022  0.50191110  1
  Sc  Sc98  1  0.50076368  0.50398367  0.50443850  1
  Sc  Sc99  1  0.31018629  0.29887209  0.69581224  1
  Nb  Nb100  1  0.69746949  0.70463211  0.29970141  1
  Nb  Nb101  1  0.49625211  0.70093375  0.69688182  1
  Nb  Nb102  1  0.88829798  0.50827944  0.50147242  1
  Nb  Nb103  1  0.10494992  0.30207985  0.49439555  1
  Nb  Nb104  1  0.69905892  0.49660018  0.89843118  1
  Nb  Nb105  1  0.69509568  0.89772761  0.50216450  1
  Nb  Nb106  1  0.10279734  0.30346929  0.30486949  1
  Nb  Nb107  1  0.10045368  0.30211159  0.89181957  1
  Nb  Nb108  1  0.70969661  0.50754040  0.70216134  1
  Nb  Nb109  1  0.30429653  0.89404296  0.49948650  1
  Nb  Nb110  1  0.09657077  0.30664289  0.70121567  1
  Nb  Nb111  1  0.89880140  0.30531090  0.10238897  1
  Nb  Nb112  1  0.69698804  0.90401688  0.68890378  1
  Nb  Nb113  1  0.30009172  0.30120044  0.10532659  1
  Nb  Nb114  1  0.29936716  0.69865260  0.70190901  1
  Nb  Nb115  1  0.69716135  0.89811907  0.10056418  1
  Nb  Nb116  1  0.10447332  0.70020784  0.90229363  1
  Nb  Nb117  1  0.29774167  0.89478698  0.30259031  1
  Nb  Nb118  1  0.89959561  0.10060468  0.30006329  1
  Nb  Nb119  1  0.10014211  0.70364083  0.50237009  1
  Nb  Nb120  1  0.70467209  0.50785699  0.50423707  1
  Nb  Nb121  1  0.50152777  0.49425246  0.90760417  1
  Nb  Nb122  1  0.70031034  0.89464236  0.30607009  1
  Nb  Nb123  1  0.89626189  0.70118483  0.09860686  1
  Nb  Nb124  1  0.70431765  0.30660970  0.89993973  1
  Nb  Nb125  1  0.60048765  -0.00956615  0.39935578  1
  Nb  Nb126  1  0.20244601  0.79425179  0.59816727  1
  Nb  Nb127  1  0.20111400  0.79993074  0.40389237  1
  Nb  Nb128  1  0.00178595  0.39181190  0.20065099  1
  Nb  Nb129  1  0.60678678  -0.00487652  0.79386275  1
  Nb  Nb130  1  0.79957445  0.40157032  -0.00315003  1
  Nb  Nb131  1  0.79341198  0.80334144  0.59909900  1
  Nb  Nb132  1  0.19301810  0.20831209  0.80043674  1
  Nb  Nb133  1  0.19767659  0.20969582  0.19994564  1
  Nb  Nb134  1  0.39574642  0.19330289  0.39258520  1
  Nb  Nb135  1  0.39192426  0.20249776  0.20259418  1
  Nb  Nb136  1  0.60389790  0.40023131  0.20438181  1
  Nb  Nb137  1  0.19410578  0.79657708  -0.00139240  1
  Nb  Nb138  1  0.60746190  -0.00785524  0.20295940  1
  Nb  Nb139  1  0.00121464  0.20503673  0.20090247  1
  Nb  Nb140  1  0.19717885  0.60249975  0.59964557  1
  Nb  Nb141  1  0.40312247  -0.00753064  0.00183983  1
  Nb  Nb142  1  0.79820086  0.59756345  -0.00069281  1
  Nb  Nb143  1  0.39828682  -0.00630993  0.59414652  1
  Nb  Nb144  1  0.79346565  0.80189057  0.20285038  1
  Nb  Nb145  1  0.40990683  0.40510120  0.80624841  1
  Nb  Nb146  1  0.40065536  -0.00521521  0.40249658  1
  Nb  Nb147  1  0.19236022  0.40320629  0.60009449  1
  Nb  Nb148  1  0.60482305  0.40429149  0.40123785  1
  Nb  Nb149  1  0.00563677  0.21069756  0.59668742  1
  Pd  Pd150  1  0.60824829  0.39249346  0.00928364  1
  Pd  Pd151  1  0.79160954  0.40093934  0.60208490  1
  Pd  Pd152  1  0.20466513  0.20193729  -0.00374296  1
  Pd  Pd153  1  0.00372167  0.40589596  0.59637341  1
  Pd  Pd154  1  0.59681950  0.41095649  0.79439525  1
  Pd  Pd155  1  0.19471712  0.79229816  0.19625270  1
  Pd  Pd156  1  -0.00153672  0.20716802  0.40052137  1
  Pd  Pd157  1  0.00114526  0.60813618  0.80717825  1
  Pd  Pd158  1  0.00247134  0.79813429  -0.00388228  1
  Pd  Pd159  1  0.81143724  0.20275463  0.59732453  1
  Pd  Pd160  1  0.41088673  0.59256606  0.79665340  1
  Pd  Pd161  1  0.00563645  -0.00648668  0.40001631  1
  Pd  Pd162  1  0.60708251  0.19101026  0.80010927  1
  Pd  Pd163  1  0.80388345  0.60874063  0.19731731  1
  Pd  Pd164  1  0.59831651  0.19957395  0.19187179  1
  Pd  Pd165  1  -0.00070534  0.40724012  0.39241911  1
  Pd  Pd166  1  0.79711845  0.20142924  0.40954067  1
  Pd  Pd167  1  0.80959470  0.40370165  0.80497154  1
  Pd  Pd168  1  0.39915757  0.60279119  -0.00050932  1
  Pd  Pd169  1  0.40263655  0.79519792  0.39386793  1
  Pd  Pd170  1  0.40506220  0.60466803  0.19617370  1
  Pd  Pd171  1  -0.00691979  0.40357102  0.80732626  1
  Pd  Pd172  1  0.19822635  0.00771478  0.80285380  1
  Pd  Pd173  1  0.40972316  0.39188510  0.20625170  1
  Pd  Pd174  1  0.60581808  0.60374362  -0.00393011  1
  Pd  Pd175  1  0.61086961  0.40624079  0.59718642  1
  Pd  Pd176  1  0.60158548  0.19927983  0.60409368  1
  Pd  Pd177  1  -0.01422976  0.80194215  0.20670164  1
  Pd  Pd178  1  0.40735990  0.60466595  0.39942409  1
  Pd  Pd179  1  0.20296069  -0.00745378  0.40395438  1
  Pd  Pd180  1  0.20232751  0.60750158  0.00265559  1
  Pd  Pd181  1  0.60528807  0.20453019  -0.00127824  1
  Pd  Pd182  1  0.19623675  0.21122174  0.60892756  1
  Pd  Pd183  1  0.78859592  0.40124983  0.39993496  1
  Pd  Pd184  1  0.59386761  0.59262895  0.80135481  1
  Pd  Pd185  1  0.21001656  -0.01377399  -0.00374768  1
  Pd  Pd186  1  -0.00691491  0.00906713  0.60428169  1
  Pd  Pd187  1  0.39548899  0.19280901  0.00227911  1
  Pd  Pd188  1  -0.00690316  0.00782158  0.19365478  1
  Pd  Pd189  1  0.20024663  0.60010231  0.41072838  1
  Pd  Pd190  1  0.80289291  0.79529704  0.40433913  1
  Pd  Pd191  1  0.78942697  0.80387443  0.79079318  1
  Pd  Pd192  1  0.81033578  -0.00652911  0.59481913  1
  Pd  Pd193  1  0.21385081  0.39483341  0.79451944  1
  Pd  Pd194  1  0.00565114  0.19178571  0.79016461  1
  Pd  Pd195  1  0.00503988  0.80665833  0.39533942  1
  Pd  Pd196  1  -0.00554127  0.20174888  0.00382218  1
  Pd  Pd197  1  0.40483142  0.00216877  0.20101049  1
  Pd  Pd198  1  0.41334299  -0.00632111  0.80202642  1
  Pd  Pd199  1  0.40333157  0.78887115  0.20076369  1
  Rh  Rh200  1  0.79131823  -0.00469224  0.80345694  1
  Rh  Rh201  1  0.79392072  0.00003264  0.41042596  1
  Rh  Rh202  1  0.39735014  0.40134426  -0.00414704  1
  Rh  Rh203  1  0.59576244  0.80034358  0.39878251  1
  Rh  Rh204  1  -0.00664716  0.00042313  0.00072992  1
  Rh  Rh205  1  0.39219232  0.40866678  0.61128068  1
  Rh  Rh206  1  0.19981515  0.60237308  0.18992481  1
  Rh  Rh207  1  0.80279604  0.60966124  0.40519872  1
  Rh  Rh208  1  0.79837413  -0.00200449  -0.00599583  1
  Rh  Rh209  1  0.20226946  0.39960025  -0.00299167  1
  Rh  Rh210  1  -0.00975658  0.61236891  -0.00448358  1
  Rh  Rh211  1  0.39688673  0.59739748  0.60652914  1
  Rh  Rh212  1  0.79761610  0.20170162  0.80259604  1
  Rh  Rh213  1  0.80973542  0.18796790  0.19733203  1
  Rh  Rh214  1  0.19444618  0.79318418  0.79955754  1
  Rh  Rh215  1  0.79700824  0.59906015  0.80753537  1
  Rh  Rh216  1  0.40922854  0.39428621  0.39638871  1
  Rh  Rh217  1  -0.00356552  0.79939319  0.60547887  1
  Rh  Rh218  1  0.39411165  0.21308132  0.80779871  1
  Rh  Rh219  1  0.20879986  0.20337785  0.38794184  1
  Rh  Rh220  1  0.40563087  0.79584419  0.79601227  1
  Rh  Rh221  1  0.00022244  0.00635642  0.79849124  1
  Rh  Rh222  1  0.60732220  0.60113856  0.60073741  1
  Rh  Rh223  1  0.60960783  0.78591243  0.60308901  1
  Rh  Rh224  1  -0.00744509  0.39531642  -0.00186929  1
  Rh  Rh225  1  0.00008896  0.79678167  0.80281742  1
  Rh  Rh226  1  0.20869527  -0.01019341  0.60275139  1
  Rh  Rh227  1  0.59733844  0.59484696  0.40393895  1
  Rh  Rh228  1  0.19743201  0.00095004  0.19613911  1
  Rh  Rh229  1  0.80141225  0.40485173  0.19686814  1
  Rh  Rh230  1  0.60006990  0.20309537  0.41247069  1
  Rh  Rh231  1  0.59041648  0.00561469  0.60040920  1
  Rh  Rh232  1  0.60563937  0.79135559  -0.00521366  1
  Rh  Rh233  1  0.19456798  0.41087305  0.41088881  1
  Rh  Rh234  1  0.79534133  -0.00230958  0.19655103  1
  Rh  Rh235  1  0.00228292  0.59870323  0.59980207  1
  Rh  Rh236  1  0.59392980  0.59387277  0.20080411  1
  Rh  Rh237  1  0.18804238  0.39459211  0.18941891  1
  Rh  Rh238  1  0.80397067  0.20791101  -0.00616316  1
  Rh  Rh239  1  0.39487813  0.18964693  0.58623531  1
  Rh  Rh240  1  0.59620775  -0.00350266  -0.00509998  1
  Rh  Rh241  1  0.19354024  0.60685689  0.79519818  1
  Rh  Rh242  1  0.38861586  0.80351046  -0.00108876  1
  Rh  Rh243  1  0.39536284  0.80070270  0.61110395  1
  Rh  Rh244  1  0.60260766  0.80360970  0.79586465  1
  Rh  Rh245  1  -0.00778314  0.59289140  0.20496427  1
  Rh  Rh246  1  0.60490994  0.80345988  0.20263814  1
  Rh  Rh247  1  0.79471736  0.61318540  0.59327333  1
  Rh  Rh248  1  0.79104369  0.78790935  0.01141967  1
  Rh  Rh249  1  -0.00539199  0.59645798  0.39838810  1
