# generated using pymatgen
data_ZrScNbPdRh
_symmetry_space_group_name_H-M   'P 1'
_cell_length_a   16.56111532
_cell_length_b   16.56303262
_cell_length_c   16.56101978
_cell_angle_alpha   90.00948066
_cell_angle_beta   90.01446673
_cell_angle_gamma   90.03675738
_symmetry_Int_Tables_number   1
_chemical_formula_structural   ZrScNbPdRh
_chemical_formula_sum   'Zr50 Sc50 Nb50 Pd50 Rh50'
_cell_volume   4542.72456350
_cell_formula_units_Z   50
loop_
 _symmetry_equiv_pos_site_id
 _symmetry_equiv_pos_as_xyz
  1  'x, y, z'
loop_
 _atom_site_type_symbol
 _atom_site_label
 _atom_site_symmetry_multiplicity
 _atom_site_fract_x
 _atom_site_fract_y
 _atom_site_fract_z
 _atom_site_occupancy
  Zr  Zr0  1  0.49836390  0.49683931  0.10016495  1
  Zr  Zr1  1  0.69725852  0.29749936  0.09998214  1
  Zr  Zr2  1  0.90277991  0.10435699  0.71033434  1
  Zr  Zr3  1  0.30731518  0.89239856  0.50413245  1
  Zr  Zr4  1  0.10834828  0.69119882  0.29564649  1
  Zr  Zr5  1  0.89368228  0.49749208  0.69332838  1
  Zr  Zr6  1  0.70011563  0.29776920  0.90035758  1
  Zr  Zr7  1  0.90081557  0.90842250  0.90577188  1
  Zr  Zr8  1  0.89806233  0.69894375  0.09982194  1
  Zr  Zr9  1  0.69759517  0.69527652  0.09851146  1
  Zr  Zr10  1  0.49082584  0.10831264  0.10197866  1
  Zr  Zr11  1  0.69792102  0.50152484  0.10903155  1
  Zr  Zr12  1  0.09977345  0.70924910  0.89931064  1
  Zr  Zr13  1  0.30065800  0.50064847  0.69890786  1
  Zr  Zr14  1  0.10275052  0.90213080  0.50353493  1
  Zr  Zr15  1  0.49301867  0.10022402  0.90158478  1
  Zr  Zr16  1  0.89536281  0.11321784  0.49709360  1
  Zr  Zr17  1  0.09977440  0.29058356  0.29549370  1
  Zr  Zr18  1  0.90527625  0.09726884  0.89910135  1
  Zr  Zr19  1  0.69689246  0.90825255  0.30396209  1
  Zr  Zr20  1  0.90583809  0.89438764  0.50411717  1
  Zr  Zr21  1  0.30285743  0.10201847  0.28717491  1
  Zr  Zr22  1  0.89761578  0.90745025  0.69991007  1
  Zr  Zr23  1  0.50506607  0.88705878  0.49512712  1
  Zr  Zr24  1  0.49631998  0.89207076  0.10440565  1
  Zr  Zr25  1  0.29827571  0.10099471  0.70818197  1
  Zr  Zr26  1  0.49010634  0.50075483  0.90199996  1
  Zr  Zr27  1  0.30357703  0.50447541  0.50529394  1
  Zr  Zr28  1  0.30751455  0.50358138  0.10162018  1
  Zr  Zr29  1  0.69489005  0.89335419  0.69161394  1
  Zr  Zr30  1  0.50683203  0.30098376  0.70637410  1
  Zr  Zr31  1  0.10442904  0.09555331  0.49485409  1
  Zr  Zr32  1  0.69484134  0.89746970  0.90756707  1
  Zr  Zr33  1  0.29687431  0.89581435  0.90312730  1
  Zr  Zr34  1  0.89894857  0.69622006  0.49726276  1
  Zr  Zr35  1  0.30156713  0.30386946  0.69808607  1
  Zr  Zr36  1  0.49704692  0.89784339  0.68879681  1
  Zr  Zr37  1  0.69973081  0.09010877  0.49892112  1
  Zr  Zr38  1  0.09303256  0.90142638  0.69344754  1
  Zr  Zr39  1  0.49555924  0.69395744  0.09833429  1
  Zr  Zr40  1  0.30508182  0.69357406  0.69059504  1
  Zr  Zr41  1  0.50070586  0.09378502  0.29614879  1
  Zr  Zr42  1  0.10021853  0.09883562  0.70428052  1
  Zr  Zr43  1  0.09925344  0.10304133  0.10905359  1
  Zr  Zr44  1  0.90653502  0.91151534  0.09688520  1
  Zr  Zr45  1  0.90299233  0.29955161  0.69288702  1
  Zr  Zr46  1  0.89684308  0.29739042  0.89774112  1
  Zr  Zr47  1  0.29876592  0.09311684  0.49998419  1
  Zr  Zr48  1  0.69790589  0.50007520  0.50157734  1
  Zr  Zr49  1  0.49511804  0.89116831  0.90660425  1
  Sc  Sc50  1  0.10106327  0.10074203  0.30072902  1
  Sc  Sc51  1  0.50695702  0.49891059  0.30074339  1
  Sc  Sc52  1  0.69963862  0.49675172  0.89483237  1
  Sc  Sc53  1  0.50551305  0.50483387  0.69796955  1
  Sc  Sc54  1  0.30139015  0.89277489  0.10263086  1
  Sc  Sc55  1  0.50331991  0.31868169  0.49350182  1
  Sc  Sc56  1  0.09649365  0.70495869  0.69458945  1
  Sc  Sc57  1  0.69447507  0.70092868  0.49890629  1
  Sc  Sc58  1  0.50236712  0.70578305  0.30175532  1
  Sc  Sc59  1  0.10248890  0.49382918  0.09921314  1
  Sc  Sc60  1  0.89414315  0.50216978  0.89468388  1
  Sc  Sc61  1  0.49929309  0.07310282  0.50305336  1
  Sc  Sc62  1  0.49452715  0.09717135  0.70597451  1
  Sc  Sc63  1  0.29238204  0.90115683  0.69608087  1
  Sc  Sc64  1  0.10078092  0.90485964  0.30058730  1
  Sc  Sc65  1  0.09977421  0.71216186  0.49944858  1
  Sc  Sc66  1  0.70810065  0.09539216  0.69700853  1
  Sc  Sc67  1  0.89599202  0.90003304  0.29991494  1
  Sc  Sc68  1  0.70663312  0.10459200  0.90485359  1
  Sc  Sc69  1  0.10697263  0.30110062  0.09702053  1
  Sc  Sc70  1  0.70228005  0.10409421  0.10656533  1
  Sc  Sc71  1  0.90075293  0.69018251  0.30113302  1
  Sc  Sc72  1  0.50334989  0.69684423  0.90560049  1
  Sc  Sc73  1  0.29972554  0.49242159  0.90292606  1
  Sc  Sc74  1  0.49848735  0.89853806  0.29955366  1
  Sc  Sc75  1  0.70180425  0.30477231  0.50277387  1
  Sc  Sc76  1  0.89148382  0.68944576  0.70149232  1
  Sc  Sc77  1  0.10137801  0.90097061  0.09722123  1
  Sc  Sc78  1  0.28892388  0.29991864  0.90678883  1
  Sc  Sc79  1  0.89483964  0.50481678  0.09973030  1
  Sc  Sc80  1  0.90246385  0.09883353  0.29495623  1
  Sc  Sc81  1  0.09930841  0.49823534  0.50624645  1
  Sc  Sc82  1  0.10478451  0.70968005  0.09643617  1
  Sc  Sc83  1  0.50680861  0.50264811  0.49458854  1
  Sc  Sc84  1  0.69915880  0.89845977  0.50221916  1
  Sc  Sc85  1  0.70338554  0.90121272  0.10700846  1
  Sc  Sc86  1  0.30414658  0.30193526  0.29504800  1
  Sc  Sc87  1  0.10377860  0.29780912  0.69916664  1
  Sc  Sc88  1  0.51171867  0.29984222  0.90411362  1
  Sc  Sc89  1  0.09907064  0.90051101  0.90658827  1
  Sc  Sc90  1  0.50315666  0.69402256  0.69728917  1
  Sc  Sc91  1  0.70226795  0.69569639  0.30063921  1
  Sc  Sc92  1  0.89828240  0.27899398  0.30678703  1
  Sc  Sc93  1  0.09742523  0.29311407  0.50040221  1
  Sc  Sc94  1  0.30358267  0.89106512  0.29397551  1
  Sc  Sc95  1  0.50350241  0.30723088  0.29434062  1
  Sc  Sc96  1  0.69847766  0.30934100  0.70396572  1
  Sc  Sc97  1  0.30104374  0.30830771  0.49766941  1
  Sc  Sc98  1  0.30107554  0.70077753  0.10948317  1
  Sc  Sc99  1  0.30514798  0.30093770  0.10076033  1
  Nb  Nb100  1  0.30158718  0.10821741  0.09584072  1
  Nb  Nb101  1  0.70478963  0.10984289  0.30561377  1
  Nb  Nb102  1  0.89956300  0.49499269  0.50110854  1
  Nb  Nb103  1  0.69924124  0.69166401  0.70296132  1
  Nb  Nb104  1  0.09989319  0.49866446  0.70373545  1
  Nb  Nb105  1  0.90220704  0.31013348  0.50314003  1
  Nb  Nb106  1  0.70090649  0.50864287  0.69702051  1
  Nb  Nb107  1  0.29793324  0.10010072  0.90382981  1
  Nb  Nb108  1  0.10374602  0.11405772  0.89859967  1
  Nb  Nb109  1  0.90079086  0.29744315  0.10197497  1
  Nb  Nb110  1  0.09769958  0.49996315  0.29729605  1
  Nb  Nb111  1  0.70306154  0.29559244  0.30004742  1
  Nb  Nb112  1  0.90738273  0.10013888  0.09695309  1
  Nb  Nb113  1  0.50155640  0.30537668  0.09836513  1
  Nb  Nb114  1  0.29979104  0.69748515  0.89696140  1
  Nb  Nb115  1  0.10299060  0.49532381  0.90005657  1
  Nb  Nb116  1  0.49321327  0.70324719  0.49242693  1
  Nb  Nb117  1  0.89932866  0.70105634  0.89881897  1
  Nb  Nb118  1  0.70118297  0.49357340  0.30249926  1
  Nb  Nb119  1  0.30387072  0.70166929  0.49619116  1
  Nb  Nb120  1  0.90252117  0.50266556  0.30130645  1
  Nb  Nb121  1  0.10072378  0.31049797  0.90571563  1
  Nb  Nb122  1  0.29593017  0.69250947  0.29697709  1
  Nb  Nb123  1  0.28703287  0.51567664  0.29473993  1
  Nb  Nb124  1  0.70045247  0.70391803  0.89958604  1
  Nb  Nb125  1  -0.00746076  0.39894712  0.20712689  1
  Nb  Nb126  1  0.19589132  0.59756868  0.80238612  1
  Nb  Nb127  1  0.39094742  0.60412310  0.39674695  1
  Nb  Nb128  1  -0.00462887  0.59350221  0.59988151  1
  Nb  Nb129  1  0.20633657  0.01438935  -0.00029463  1
  Nb  Nb130  1  0.00459681  0.60082891  -0.00927067  1
  Nb  Nb131  1  0.00641898  0.40296569  0.80175285  1
  Nb  Nb132  1  0.59751642  -0.00555586  0.80646001  1
  Nb  Nb133  1  0.80136589  0.79735993  -0.00330721  1
  Nb  Nb134  1  0.80371596  0.39522095  0.20825360  1
  Nb  Nb135  1  0.19849508  0.60114706  -0.00686555  1
  Nb  Nb136  1  0.40660243  0.20043865  0.59282948  1
  Nb  Nb137  1  -0.00118015  0.79857134  0.19929735  1
  Nb  Nb138  1  0.40875528  0.19604643  0.40455013  1
  Nb  Nb139  1  -0.00269305  0.40207581  0.39595355  1
  Nb  Nb140  1  0.59279658  0.00204142  0.00148786  1
  Nb  Nb141  1  0.79565603  0.79595970  0.80427699  1
  Nb  Nb142  1  0.19500827  0.40876616  0.39080203  1
  Nb  Nb143  1  0.59218061  0.19797033  0.59379965  1
  Nb  Nb144  1  0.59889633  0.19629152  0.40141702  1
  Nb  Nb145  1  0.40004002  0.39914828  0.79982370  1
  Nb  Nb146  1  0.00085352  0.20325764  -0.00150940  1
  Nb  Nb147  1  -0.01122136  0.80125602  0.80204516  1
  Nb  Nb148  1  0.80663371  0.40073043  0.39634007  1
  Nb  Nb149  1  0.39684397  0.79389520  0.79975310  1
  Pd  Pd150  1  0.78884410  -0.00470624  0.80182575  1
  Pd  Pd151  1  0.19976347  0.20925807  0.80139998  1
  Pd  Pd152  1  0.00452807  0.19510251  0.59758181  1
  Pd  Pd153  1  0.19587544  0.59759859  0.41245775  1
  Pd  Pd154  1  0.20213271  0.80440972  0.39571417  1
  Pd  Pd155  1  0.60943055  0.18684475  0.79334330  1
  Pd  Pd156  1  -0.00683693  0.40346269  0.00226314  1
  Pd  Pd157  1  0.39682104  -0.00246893  0.00962002  1
  Pd  Pd158  1  0.60280762  0.79712703  0.20215739  1
  Pd  Pd159  1  0.20409880  -0.00326893  0.19265844  1
  Pd  Pd160  1  0.00401413  0.60026695  0.79759574  1
  Pd  Pd161  1  0.60048316  0.59745607  0.80633473  1
  Pd  Pd162  1  0.19321058  0.39620878  0.59284539  1
  Pd  Pd163  1  0.60226352  0.59223844  -0.00594268  1
  Pd  Pd164  1  0.18883919  0.60627006  0.59886696  1
  Pd  Pd165  1  0.80037999  0.79185503  0.60490096  1
  Pd  Pd166  1  0.79510486  0.59520416  0.40137838  1
  Pd  Pd167  1  0.60144185  0.00312415  0.19518052  1
  Pd  Pd168  1  0.60290411  0.40601952  -0.00123365  1
  Pd  Pd169  1  0.00887896  0.59629476  0.40922317  1
  Pd  Pd170  1  0.39484414  -0.00338800  0.39261757  1
  Pd  Pd171  1  0.79665340  0.79975259  0.39718926  1
  Pd  Pd172  1  0.59694571  0.60523377  0.59260058  1
  Pd  Pd173  1  0.39574020  0.21174851  0.80596183  1
  Pd  Pd174  1  -0.00611630  0.00291531  0.39816409  1
  Pd  Pd175  1  0.80298252  0.39890202  0.79592519  1
  Pd  Pd176  1  -0.00613448  0.01268254  0.59507728  1
  Pd  Pd177  1  0.40106444  -0.01177390  0.79701992  1
  Pd  Pd178  1  0.80275194  0.00846293  0.19916890  1
  Pd  Pd179  1  0.79084666  0.20504941  0.60154048  1
  Pd  Pd180  1  0.21001300  -0.00769875  0.39401572  1
  Pd  Pd181  1  0.80068091  0.59996874  -0.00618166  1
  Pd  Pd182  1  0.79849102  0.40374681  0.00692887  1
  Pd  Pd183  1  0.59606247  0.60213495  0.20909025  1
  Pd  Pd184  1  0.38986525  0.41021531  0.38874943  1
  Pd  Pd185  1  0.40057366  0.21241743  -0.00709818  1
  Pd  Pd186  1  0.39909145  0.40651385  0.20695874  1
  Pd  Pd187  1  0.80466494  0.79952518  0.19846474  1
  Pd  Pd188  1  0.80586307  0.19545994  0.00452007  1
  Pd  Pd189  1  0.19991141  0.79564637  0.78965487  1
  Pd  Pd190  1  0.20741538  0.19976472  0.59682057  1
  Pd  Pd191  1  0.21164214  0.20753255  0.39839212  1
  Pd  Pd192  1  0.41154830  0.39994947  0.60559285  1
  Pd  Pd193  1  0.59571109  0.20283721  0.20459925  1
  Pd  Pd194  1  0.59486953  0.79916779  0.79439214  1
  Pd  Pd195  1  0.19806833  0.39805541  0.20022671  1
  Pd  Pd196  1  0.19281872  -0.00258619  0.80817421  1
  Pd  Pd197  1  0.80792059  -0.00248883  0.40298083  1
  Pd  Pd198  1  0.00519144  0.59967611  0.18683103  1
  Pd  Pd199  1  0.00174157  0.79798360  0.38761740  1
  Rh  Rh200  1  0.59714538  0.19356220  0.00518415  1
  Rh  Rh201  1  0.40449244  0.20775361  0.20419228  1
  Rh  Rh202  1  0.60317783  0.39995717  0.60504129  1
  Rh  Rh203  1  0.20655022  0.20335988  0.19662011  1
  Rh  Rh204  1  -0.01385766  0.78837234  0.60930232  1
  Rh  Rh205  1  0.20739572  0.40743435  0.00901413  1
  Rh  Rh206  1  0.40902399  0.59994607  0.20961295  1
  Rh  Rh207  1  0.59365786  0.60320971  0.39892380  1
  Rh  Rh208  1  0.59506875  0.41099189  0.79896136  1
  Rh  Rh209  1  0.20167437  0.40206861  0.79743249  1
  Rh  Rh210  1  -0.00995587  0.79513165  0.00335986  1
  Rh  Rh211  1  0.80448979  0.19930568  0.19423863  1
  Rh  Rh212  1  0.60610502  0.80085882  0.39677309  1
  Rh  Rh213  1  0.59752987  0.78839792  0.59641956  1
  Rh  Rh214  1  0.79199469  0.20686139  0.40935522  1
  Rh  Rh215  1  0.60125681  0.00172577  0.39478473  1
  Rh  Rh216  1  0.78950541  0.00019015  0.00969129  1
  Rh  Rh217  1  0.01724642  0.01606649  -0.00425086  1
  Rh  Rh218  1  0.79065741  0.60204743  0.80395085  1
  Rh  Rh219  1  0.39412468  0.78855631  -0.00265090  1
  Rh  Rh220  1  0.80777373  -0.00016478  0.59385018  1
  Rh  Rh221  1  0.40132435  0.39222557  -0.00462175  1
  Rh  Rh222  1  0.19510061  0.19860659  0.00510276  1
  Rh  Rh223  1  0.79544451  0.20381352  0.79461567  1
  Rh  Rh224  1  0.19204566  0.80033826  0.20358144  1
  Rh  Rh225  1  0.39034608  0.00515914  0.60817269  1
  Rh  Rh226  1  0.20941708  0.79949996  0.00516102  1
  Rh  Rh227  1  0.39341788  0.59829198  0.80280667  1
  Rh  Rh228  1  0.79681078  0.59443563  0.20685052  1
  Rh  Rh229  1  0.61145123  0.39368619  0.39618795  1
  Rh  Rh230  1  0.39124545  0.60450695  0.00036975  1
  Rh  Rh231  1  0.39479325  -0.00278629  0.19528647  1
  Rh  Rh232  1  0.39437810  0.79307645  0.39207070  1
  Rh  Rh233  1  0.00186808  0.20017124  0.40597547  1
  Rh  Rh234  1  0.00702987  0.40329410  0.60356850  1
  Rh  Rh235  1  0.20308631  0.79879738  0.59808428  1
  Rh  Rh236  1  -0.00300160  0.20366361  0.19296276  1
  Rh  Rh237  1  0.60618965  0.80189057  0.01429269  1
  Rh  Rh238  1  0.20060370  0.00025089  0.60095525  1
  Rh  Rh239  1  0.41068236  0.60079781  0.58734915  1
  Rh  Rh240  1  0.19241384  0.60018876  0.18374425  1
  Rh  Rh241  1  0.00683788  0.21395060  0.80645486  1
  Rh  Rh242  1  0.40097248  0.79265932  0.20409872  1
  Rh  Rh243  1  0.79994821  0.60125364  0.59243039  1
  Rh  Rh244  1  0.60557712  0.39577321  0.19928134  1
  Rh  Rh245  1  0.60178757  0.00639227  0.61217018  1
  Rh  Rh246  1  -0.00044120  -0.00576952  0.20513663  1
  Rh  Rh247  1  0.40189424  0.79406238  0.60483751  1
  Rh  Rh248  1  0.01118307  -0.00463504  0.80613428  1
  Rh  Rh249  1  0.79121524  0.40201873  0.59847430  1
