# generated using pymatgen
data_ZrScNbPdRh
_symmetry_space_group_name_H-M   'P 1'
_cell_length_a   16.55817539
_cell_length_b   16.56023021
_cell_length_c   16.56000972
_cell_angle_alpha   89.98745587
_cell_angle_beta   90.00833813
_cell_angle_gamma   89.98458822
_symmetry_Int_Tables_number   1
_chemical_formula_structural   ZrScNbPdRh
_chemical_formula_sum   'Zr50 Sc50 Nb50 Pd50 Rh50'
_cell_volume   4540.87351724
_cell_formula_units_Z   50
loop_
 _symmetry_equiv_pos_site_id
 _symmetry_equiv_pos_as_xyz
  1  'x, y, z'
loop_
 _atom_site_type_symbol
 _atom_site_label
 _atom_site_symmetry_multiplicity
 _atom_site_fract_x
 _atom_site_fract_y
 _atom_site_fract_z
 _atom_site_occupancy
  Zr  Zr0  1  0.69296194  0.90037250  0.30669258  1
  Zr  Zr1  1  0.10072978  0.29744200  0.70212713  1
  Zr  Zr2  1  0.10441374  0.50739480  0.50795582  1
  Zr  Zr3  1  0.70287598  0.89473713  0.10430838  1
  Zr  Zr4  1  0.49653043  0.10354811  0.70332269  1
  Zr  Zr5  1  0.69985102  0.30941293  0.90550861  1
  Zr  Zr6  1  0.50440630  0.10356137  0.89600368  1
  Zr  Zr7  1  0.30050563  0.49894469  0.90510878  1
  Zr  Zr8  1  0.09637466  0.10743538  0.10121908  1
  Zr  Zr9  1  0.90390663  0.49826385  0.89089336  1
  Zr  Zr10  1  0.70887135  0.10008243  0.10338884  1
  Zr  Zr11  1  0.30239592  0.71481621  0.30001609  1
  Zr  Zr12  1  0.90151253  0.10502211  0.70518728  1
  Zr  Zr13  1  0.09770815  0.10784560  0.70331011  1
  Zr  Zr14  1  0.49477765  0.89842310  0.29435893  1
  Zr  Zr15  1  0.50271354  0.89984575  0.89476858  1
  Zr  Zr16  1  0.90124669  0.09726503  0.10145892  1
  Zr  Zr17  1  0.29937379  0.29834174  0.09872228  1
  Zr  Zr18  1  0.30270256  0.49688437  0.30680057  1
  Zr  Zr19  1  0.49908196  0.69513931  0.50971685  1
  Zr  Zr20  1  0.69455522  0.69517570  0.69902311  1
  Zr  Zr21  1  0.30930108  0.69931778  0.69032076  1
  Zr  Zr22  1  0.70405473  0.10218863  0.88836948  1
  Zr  Zr23  1  0.28680384  0.50629434  0.69546034  1
  Zr  Zr24  1  0.70433902  0.50360555  0.90246229  1
  Zr  Zr25  1  0.90061771  0.89969669  0.10107965  1
  Zr  Zr26  1  0.68563290  0.49470596  0.09561068  1
  Zr  Zr27  1  0.28203291  0.89792765  0.49716982  1
  Zr  Zr28  1  0.89941061  0.69781145  0.10307593  1
  Zr  Zr29  1  0.29403705  0.69837060  0.09678655  1
  Zr  Zr30  1  0.71505835  0.90208915  0.50069432  1
  Zr  Zr31  1  0.10369277  0.89313680  0.31178765  1
  Zr  Zr32  1  0.30552664  0.89549338  0.10607741  1
  Zr  Zr33  1  0.90353878  0.50035688  0.30210379  1
  Zr  Zr34  1  0.50723910  0.50266657  0.30067413  1
  Zr  Zr35  1  0.69281226  0.50175433  0.30374766  1
  Zr  Zr36  1  0.89913048  0.90108698  0.68330027  1
  Zr  Zr37  1  0.30181699  0.29740845  0.70621836  1
  Zr  Zr38  1  0.49753827  0.70299737  0.89336655  1
  Zr  Zr39  1  0.70527041  0.29896777  0.31111472  1
  Zr  Zr40  1  0.29590261  0.50031586  0.09025345  1
  Zr  Zr41  1  0.10221918  0.30386520  0.10371236  1
  Zr  Zr42  1  0.08510987  0.90082869  0.49971823  1
  Zr  Zr43  1  0.29268093  0.29222851  0.29815390  1
  Zr  Zr44  1  0.70421024  0.69759285  0.09496126  1
  Zr  Zr45  1  0.90422841  0.30472946  0.69932964  1
  Zr  Zr46  1  0.70438289  0.09318405  0.30164600  1
  Zr  Zr47  1  0.49579666  0.10092209  0.09856051  1
  Zr  Zr48  1  0.29797755  0.09835891  0.68488547  1
  Zr  Zr49  1  0.49759361  0.49458523  0.91035497  1
  Sc  Sc50  1  0.50503169  0.70299125  0.30893504  1
  Sc  Sc51  1  0.70016079  0.90157149  0.70306540  1
  Sc  Sc52  1  0.71202098  0.09756468  0.49389151  1
  Sc  Sc53  1  0.09182139  0.70356304  0.49695678  1
  Sc  Sc54  1  0.30966938  0.11555339  0.91113227  1
  Sc  Sc55  1  0.30291623  0.49655493  0.50463087  1
  Sc  Sc56  1  0.50078780  0.90507464  0.10685637  1
  Sc  Sc57  1  0.49655530  0.09495458  0.29259708  1
  Sc  Sc58  1  0.09348941  0.49683432  0.29604684  1
  Sc  Sc59  1  0.10408688  0.09639534  0.50618843  1
  Sc  Sc60  1  0.09847449  0.90214060  0.69445221  1
  Sc  Sc61  1  0.09513004  0.69148191  0.30038726  1
  Sc  Sc62  1  0.70642514  0.29545500  0.70669580  1
  Sc  Sc63  1  0.49875800  0.89307493  0.69963272  1
  Sc  Sc64  1  0.89936073  0.09785800  0.29182906  1
  Sc  Sc65  1  0.69998251  0.50006369  0.70588622  1
  Sc  Sc66  1  0.29710271  0.69504831  0.88943069  1
  Sc  Sc67  1  0.29636787  0.89002065  0.90144312  1
  Sc  Sc68  1  0.70751788  0.30034070  0.50001065  1
  Sc  Sc69  1  0.90799141  0.50326518  0.50142287  1
  Sc  Sc70  1  0.89554674  0.49989911  0.10105016  1
  Sc  Sc71  1  0.89898191  0.69064311  0.30657784  1
  Sc  Sc72  1  0.70398357  0.09981618  0.70595262  1
  Sc  Sc73  1  0.50555063  0.89367424  0.49654390  1
  Sc  Sc74  1  0.50671575  0.69643006  0.10014115  1
  Sc  Sc75  1  0.09209463  0.50050862  0.69976758  1
  Sc  Sc76  1  0.89727397  0.69582952  0.89323123  1
  Sc  Sc77  1  0.10404572  0.30650335  0.50436392  1
  Sc  Sc78  1  0.49351334  0.30560887  0.30804854  1
  Sc  Sc79  1  0.90414355  0.88847667  0.88475910  1
  Sc  Sc80  1  0.09695936  0.10347808  0.29486736  1
  Sc  Sc81  1  0.30311856  0.29515162  0.48951520  1
  Sc  Sc82  1  0.29875215  0.89410076  0.69046361  1
  Sc  Sc83  1  0.50078736  0.49949978  0.49024192  1
  Sc  Sc84  1  0.50046380  0.30653467  0.09929488  1
  Sc  Sc85  1  0.10456854  0.88807436  0.09027165  1
  Sc  Sc86  1  0.89885658  0.29376160  0.09814809  1
  Sc  Sc87  1  0.90134068  0.90093904  0.30705850  1
  Sc  Sc88  1  0.90169255  0.30439696  0.90061778  1
  Sc  Sc89  1  0.69278919  0.50292336  0.50054658  1
  Sc  Sc90  1  0.69773868  0.70567774  0.49701142  1
  Sc  Sc91  1  0.10126210  0.89091269  0.89476073  1
  Sc  Sc92  1  0.49894337  0.70397176  0.69815802  1
  Sc  Sc93  1  0.10462342  0.68731867  0.70141315  1
  Sc  Sc94  1  0.90665924  0.70114188  0.70655590  1
  Sc  Sc95  1  0.89311733  0.30232947  0.50252218  1
  Sc  Sc96  1  0.09970725  0.70418700  0.89251423  1
  Sc  Sc97  1  0.50370698  0.51141112  0.70102130  1
  Sc  Sc98  1  0.70194531  0.69892236  0.30129237  1
  Sc  Sc99  1  0.30718582  0.10953514  0.10620918  1
  Nb  Nb100  1  0.30804843  0.30827170  0.90375698  1
  Nb  Nb101  1  0.48686056  0.10445463  0.50405044  1
  Nb  Nb102  1  0.30651658  0.09849483  0.49611655  1
  Nb  Nb103  1  0.90460711  0.09740672  0.89707619  1
  Nb  Nb104  1  0.09690111  0.10355897  0.89696274  1
  Nb  Nb105  1  0.89885940  0.09084852  0.50118717  1
  Nb  Nb106  1  0.89772756  0.70969532  0.50174903  1
  Nb  Nb107  1  0.30156243  0.69844172  0.50164481  1
  Nb  Nb108  1  0.09926190  0.49021445  0.90353174  1
  Nb  Nb109  1  0.90051775  0.89723107  0.50236644  1
  Nb  Nb110  1  0.09300303  0.29831584  0.29864762  1
  Nb  Nb111  1  0.10174683  0.30004195  0.90038515  1
  Nb  Nb112  1  0.69920565  0.70987289  0.89907288  1
  Nb  Nb113  1  0.49791127  0.29603538  0.70433626  1
  Nb  Nb114  1  0.90059927  0.50905369  0.70264325  1
  Nb  Nb115  1  0.29939492  0.90290828  0.29988401  1
  Nb  Nb116  1  0.90259220  0.30537094  0.30629478  1
  Nb  Nb117  1  0.70179753  0.30160702  0.09940563  1
  Nb  Nb118  1  0.49707728  0.50313447  0.10301577  1
  Nb  Nb119  1  0.49210035  0.29628326  0.88998232  1
  Nb  Nb120  1  0.29944461  0.10293624  0.30068071  1
  Nb  Nb121  1  0.49558305  0.29556199  0.50052653  1
  Nb  Nb122  1  0.09915498  0.69346092  0.10160568  1
  Nb  Nb123  1  0.69640644  0.89896625  0.90014283  1
  Nb  Nb124  1  0.10263223  0.50545012  0.09703238  1
  Nb  Nb125  1  0.39766914  0.40839940  0.19903213  1
  Nb  Nb126  1  -0.00386121  0.20509291  0.39854586  1
  Nb  Nb127  1  0.40708902  0.39384350  0.60384849  1
  Nb  Nb128  1  0.79460566  0.39602387  0.20411070  1
  Nb  Nb129  1  0.00775041  0.59562753  0.00190028  1
  Nb  Nb130  1  0.60392977  0.20153174  0.00117092  1
  Nb  Nb131  1  0.60601537  0.20370110  0.20084140  1
  Nb  Nb132  1  0.40110604  0.79694375  0.00130885  1
  Nb  Nb133  1  0.20316626  0.00828995  0.80528506  1
  Nb  Nb134  1  0.20449669  -0.00265769  0.19988766  1
  Nb  Nb135  1  0.60941898  0.00246265  -0.00387962  1
  Nb  Nb136  1  0.59391660  0.19509533  0.40512518  1
  Nb  Nb137  1  0.80549980  0.60282223  0.60340812  1
  Nb  Nb138  1  0.59724776  0.00995804  0.59550495  1
  Nb  Nb139  1  0.40043490  0.59658024  0.19871852  1
  Nb  Nb140  1  0.39156986  0.00116381  0.40083019  1
  Nb  Nb141  1  0.59454404  0.19939442  0.59632372  1
  Nb  Nb142  1  0.80305356  -0.00317826  -0.01086679  1
  Nb  Nb143  1  0.00076506  0.79441730  0.19801066  1
  Nb  Nb144  1  0.19886289  0.39620802  0.80851082  1
  Nb  Nb145  1  0.39208210  0.00156873  0.79917022  1
  Nb  Nb146  1  0.59172320  0.38960640  0.60240463  1
  Nb  Nb147  1  0.19665510  0.00641085  -0.00173695  1
  Nb  Nb148  1  0.20530829  0.60315590  0.40272085  1
  Nb  Nb149  1  0.00075079  0.00269584  -0.00812722  1
  Pd  Pd150  1  0.80631138  -0.00830452  0.79870735  1
  Pd  Pd151  1  0.20405326  0.59643031  0.21059696  1
  Pd  Pd152  1  0.59988197  0.60048433  0.80888837  1
  Pd  Pd153  1  0.59846991  0.39124801  0.20391536  1
  Pd  Pd154  1  0.18759776  0.19526648  0.40293722  1
  Pd  Pd155  1  0.59881937  0.39955211  0.79596475  1
  Pd  Pd156  1  -0.00237990  0.79381836  -0.00056949  1
  Pd  Pd157  1  0.20199559  0.80441186  0.78904284  1
  Pd  Pd158  1  0.79370753  0.41151036  0.60214061  1
  Pd  Pd159  1  0.79972797  0.19707283  -0.00835403  1
  Pd  Pd160  1  0.79903579  0.59830896  0.41226519  1
  Pd  Pd161  1  0.80138859  0.39950406  0.79647597  1
  Pd  Pd162  1  0.19962429  0.20083474  -0.00193675  1
  Pd  Pd163  1  -0.00168781  0.20089055  -0.00512661  1
  Pd  Pd164  1  -0.00072809  0.40295108  0.59965998  1
  Pd  Pd165  1  0.00576276  0.39791449  0.40875561  1
  Pd  Pd166  1  0.80297682  0.20825659  0.20731725  1
  Pd  Pd167  1  0.80682013  0.59710653  -0.00414855  1
  Pd  Pd168  1  0.20805373  0.19957623  0.80943879  1
  Pd  Pd169  1  0.79242768  0.58988561  0.19909700  1
  Pd  Pd170  1  0.18892138  0.79321473  0.59973508  1
  Pd  Pd171  1  -0.00373177  0.40229815  0.00794544  1
  Pd  Pd172  1  0.39608660  -0.00819177  -0.00780601  1
  Pd  Pd173  1  0.39722024  0.60415137  0.39784160  1
  Pd  Pd174  1  0.60654323  0.80980099  0.59980856  1
  Pd  Pd175  1  0.80049858  0.41224106  0.40334759  1
  Pd  Pd176  1  -0.00366961  0.19861307  0.58765667  1
  Pd  Pd177  1  0.59230088  0.80527986  0.00396658  1
  Pd  Pd178  1  0.18988214  0.80131974  0.20156984  1
  Pd  Pd179  1  0.80656688  0.80015026  0.21357340  1
  Pd  Pd180  1  0.01414917  -0.01471691  0.19403718  1
  Pd  Pd181  1  -0.00722879  0.39914968  0.19169806  1
  Pd  Pd182  1  0.79571149  0.19544433  0.60024918  1
  Pd  Pd183  1  0.20476345  0.20574979  0.58878732  1
  Pd  Pd184  1  0.00555715  0.79065763  0.60685512  1
  Pd  Pd185  1  0.59773133  0.60495590  -0.00683099  1
  Pd  Pd186  1  0.80631972  0.80323022  -0.00753985  1
  Pd  Pd187  1  0.58828868  0.00705005  0.40790870  1
  Pd  Pd188  1  0.59855126  0.79304877  0.20189364  1
  Pd  Pd189  1  0.40438584  -0.01422108  0.59622533  1
  Pd  Pd190  1  0.19300283  0.40609236  0.40037594  1
  Pd  Pd191  1  0.39984853  0.59445720  0.79777252  1
  Pd  Pd192  1  0.39544527  0.41317396  0.79075566  1
  Pd  Pd193  1  0.19181510  0.60726929  -0.01261665  1
  Pd  Pd194  1  0.00721630  -0.00692611  0.79926428  1
  Pd  Pd195  1  0.20179273  0.40473327  0.20245173  1
  Pd  Pd196  1  -0.00177756  0.01049868  0.39815378  1
  Pd  Pd197  1  0.79693380  0.79921506  0.79216629  1
  Pd  Pd198  1  0.39981501  0.80795075  0.40815855  1
  Pd  Pd199  1  0.19843580  0.00977631  0.39526390  1
  Rh  Rh200  1  0.40411996  0.61008786  0.00413120  1
  Rh  Rh201  1  0.20473786  0.79561515  -0.00188545  1
  Rh  Rh202  1  0.40278238  0.59119387  0.59825121  1
  Rh  Rh203  1  0.00456473  0.79882739  0.79045735  1
  Rh  Rh204  1  -0.00842930  0.79447098  0.39346067  1
  Rh  Rh205  1  0.40750133  0.21123610  0.20528993  1
  Rh  Rh206  1  0.79790332  -0.01147608  0.20333501  1
  Rh  Rh207  1  -0.00015888  0.60156958  0.19349796  1
  Rh  Rh208  1  0.60401887  0.59381525  0.59797428  1
  Rh  Rh209  1  0.19234134  0.58685482  0.80589973  1
  Rh  Rh210  1  0.39591197  0.80512907  0.80300179  1
  Rh  Rh211  1  0.81053782  0.19189531  0.40036639  1
  Rh  Rh212  1  0.19674262  0.19512201  0.20149255  1
  Rh  Rh213  1  0.00542159  0.59937089  0.40532968  1
  Rh  Rh214  1  0.20116052  0.60928882  0.59095139  1
  Rh  Rh215  1  0.59108449  0.39287210  -0.00325786  1
  Rh  Rh216  1  0.39936804  0.80286385  0.59282688  1
  Rh  Rh217  1  0.60550330  0.00582095  0.19246352  1
  Rh  Rh218  1  0.79813678  0.79100938  0.60306122  1
  Rh  Rh219  1  -0.00096615  0.00819374  0.60224801  1
  Rh  Rh220  1  0.39166437  0.19255351  0.79854402  1
  Rh  Rh221  1  0.80386414  0.40545578  0.00778545  1
  Rh  Rh222  1  0.80241175  0.80149646  0.39810581  1
  Rh  Rh223  1  -0.00956385  0.60567566  0.59860121  1
  Rh  Rh224  1  0.19402443  -0.00042352  0.60317861  1
  Rh  Rh225  1  0.40808475  0.78872406  0.19270017  1
  Rh  Rh226  1  0.19612626  0.39234908  -0.00282001  1
  Rh  Rh227  1  0.19680319  0.78984874  0.40439400  1
  Rh  Rh228  1  0.40525174  0.19214098  0.38894765  1
  Rh  Rh229  1  0.79511969  0.60501432  0.79727281  1
  Rh  Rh230  1  0.00567054  0.39781587  0.79478231  1
  Rh  Rh231  1  0.39008138  0.00378597  0.20756861  1
  Rh  Rh232  1  0.60486323  0.79893343  0.79500667  1
  Rh  Rh233  1  0.40517353  0.39543661  0.00562320  1
  Rh  Rh234  1  0.39800581  0.39847286  0.40138501  1
  Rh  Rh235  1  0.60079281  0.38923399  0.41291927  1
  Rh  Rh236  1  0.81041590  -0.00227889  0.39646762  1
  Rh  Rh237  1  0.59235514  -0.00678636  0.79311999  1
  Rh  Rh238  1  0.41113042  0.21195975  0.00219040  1
  Rh  Rh239  1  0.59972018  0.60639408  0.20076014  1
  Rh  Rh240  1  -0.00545691  0.20872720  0.80571221  1
  Rh  Rh241  1  0.20880812  0.39248259  0.60754387  1
  Rh  Rh242  1  0.39543539  0.20862916  0.60211055  1
  Rh  Rh243  1  0.60236726  0.60890239  0.40342569  1
  Rh  Rh244  1  0.80794781  0.20781981  0.80468901  1
  Rh  Rh245  1  0.60221397  0.79996923  0.40210742  1
  Rh  Rh246  1  -0.00684131  0.20946527  0.20736655  1
  Rh  Rh247  1  0.00623340  0.59788699  0.80879841  1
  Rh  Rh248  1  0.79706597  0.00717414  0.60416284  1
  Rh  Rh249  1  0.60623135  0.21051379  0.80147315  1
