# generated using pymatgen
data_ZrScNbPdRh
_symmetry_space_group_name_H-M   'P 1'
_cell_length_a   16.55483819
_cell_length_b   16.55791787
_cell_length_c   16.55549882
_cell_angle_alpha   89.99302466
_cell_angle_beta   89.98566310
_cell_angle_gamma   89.93666867
_symmetry_Int_Tables_number   1
_chemical_formula_structural   ZrScNbPdRh
_chemical_formula_sum   'Zr50 Sc50 Nb50 Pd50 Rh50'
_cell_volume   4538.08528245
_cell_formula_units_Z   50
loop_
 _symmetry_equiv_pos_site_id
 _symmetry_equiv_pos_as_xyz
  1  'x, y, z'
loop_
 _atom_site_type_symbol
 _atom_site_label
 _atom_site_symmetry_multiplicity
 _atom_site_fract_x
 _atom_site_fract_y
 _atom_site_fract_z
 _atom_site_occupancy
  Zr  Zr0  1  0.29056866  0.29564878  0.10067160  1
  Zr  Zr1  1  0.10135246  0.10042319  0.29923385  1
  Zr  Zr2  1  0.90146607  0.89141393  0.10276860  1
  Zr  Zr3  1  0.50341493  0.29550909  0.49870035  1
  Zr  Zr4  1  0.89966793  0.50506849  0.89451284  1
  Zr  Zr5  1  0.69838528  0.70688035  0.89931838  1
  Zr  Zr6  1  0.10385971  0.11180275  0.49964826  1
  Zr  Zr7  1  0.89396700  0.70843985  0.30383266  1
  Zr  Zr8  1  0.50360645  0.89611066  0.50662363  1
  Zr  Zr9  1  0.50396436  0.09052146  0.49471694  1
  Zr  Zr10  1  0.69281350  0.70233509  0.70260633  1
  Zr  Zr11  1  0.69716876  0.29965387  0.50020525  1
  Zr  Zr12  1  0.50780819  0.10107131  0.09698881  1
  Zr  Zr13  1  0.89983815  0.50586737  0.09511665  1
  Zr  Zr14  1  0.49777297  0.90653407  0.30925735  1
  Zr  Zr15  1  0.10389016  0.69767388  0.10065485  1
  Zr  Zr16  1  0.50334293  0.08677881  0.71003675  1
  Zr  Zr17  1  0.30839682  0.29440884  0.29613013  1
  Zr  Zr18  1  0.69827162  0.70047807  0.30077545  1
  Zr  Zr19  1  0.10071411  0.69133486  0.49867923  1
  Zr  Zr20  1  0.49548528  0.30731116  0.30373900  1
  Zr  Zr21  1  0.29536360  0.89986942  0.09913133  1
  Zr  Zr22  1  0.11450731  0.10096635  0.09618910  1
  Zr  Zr23  1  0.29418503  0.69953590  0.30037564  1
  Zr  Zr24  1  0.49718579  0.30237847  0.90831057  1
  Zr  Zr25  1  0.70378094  0.30218675  0.69933199  1
  Zr  Zr26  1  0.70154386  0.69019964  0.49915679  1
  Zr  Zr27  1  0.69135872  0.50823754  0.30871488  1
  Zr  Zr28  1  0.10160992  0.49714609  0.09964744  1
  Zr  Zr29  1  0.09964566  0.50016068  0.50690882  1
  Zr  Zr30  1  0.69632738  0.09858040  0.10283073  1
  Zr  Zr31  1  0.70578289  0.51012928  0.89709987  1
  Zr  Zr32  1  0.69464402  0.09246892  0.90444417  1
  Zr  Zr33  1  0.09860737  0.70347714  0.30639691  1
  Zr  Zr34  1  0.09766891  0.09241308  0.69717048  1
  Zr  Zr35  1  0.90610376  0.90641514  0.70526485  1
  Zr  Zr36  1  0.10305842  0.49694763  0.69157139  1
  Zr  Zr37  1  0.09986193  0.29978472  0.10230183  1
  Zr  Zr38  1  0.31123127  0.89996251  0.50070437  1
  Zr  Zr39  1  0.30078572  0.89696456  0.30141908  1
  Zr  Zr40  1  0.89984587  0.30670708  0.88062305  1
  Zr  Zr41  1  0.89538221  0.30105742  0.49753339  1
  Zr  Zr42  1  0.09791869  0.89940430  0.89676702  1
  Zr  Zr43  1  0.10196542  0.29759441  0.29681730  1
  Zr  Zr44  1  0.69061084  0.29142286  0.09860345  1
  Zr  Zr45  1  0.10350327  0.89804036  0.30104487  1
  Zr  Zr46  1  0.49887150  0.10922674  0.29922637  1
  Zr  Zr47  1  0.29039279  0.50531786  0.50853763  1
  Zr  Zr48  1  0.90464611  0.09734233  0.69172642  1
  Zr  Zr49  1  0.29313073  0.08917586  0.69804149  1
  Sc  Sc50  1  0.10388227  0.50743689  0.29359264  1
  Sc  Sc51  1  0.69366716  0.90130436  0.70087691  1
  Sc  Sc52  1  0.49238547  0.70640845  0.89685412  1
  Sc  Sc53  1  0.50215521  0.68973202  0.30278826  1
  Sc  Sc54  1  0.49995942  0.49882964  0.49232485  1
  Sc  Sc55  1  0.89641216  0.49872429  0.30322064  1
  Sc  Sc56  1  0.90387407  0.70170147  0.70037046  1
  Sc  Sc57  1  0.90202780  0.90752142  0.49560979  1
  Sc  Sc58  1  0.29839211  0.69882237  0.50324625  1
  Sc  Sc59  1  0.69840876  0.91340229  0.50437639  1
  Sc  Sc60  1  0.49313612  0.30042662  0.10552360  1
  Sc  Sc61  1  0.49986025  0.90551188  0.89651398  1
  Sc  Sc62  1  0.50385783  0.30265388  0.70054603  1
  Sc  Sc63  1  0.50195492  0.89461998  0.69996163  1
  Sc  Sc64  1  0.30406886  0.49534600  0.29945615  1
  Sc  Sc65  1  0.69525339  0.10328217  0.30277076  1
  Sc  Sc66  1  0.90291251  0.10311634  0.30634422  1
  Sc  Sc67  1  0.09826921  0.30290401  0.69778217  1
  Sc  Sc68  1  0.10623249  0.10001062  0.89354387  1
  Sc  Sc69  1  0.50097266  0.70569577  0.70117563  1
  Sc  Sc70  1  0.69053820  0.51420591  0.08944851  1
  Sc  Sc71  1  0.70124397  0.49647517  0.49743709  1
  Sc  Sc72  1  0.90209739  0.11055674  0.10782826  1
  Sc  Sc73  1  0.29400408  0.49428955  0.09576851  1
  Sc  Sc74  1  0.69986610  0.90009421  0.08919203  1
  Sc  Sc75  1  0.10017105  0.89202476  0.49662267  1
  Sc  Sc76  1  0.89753755  0.09260421  0.88411030  1
  Sc  Sc77  1  0.89718996  0.29510496  0.29603139  1
  Sc  Sc78  1  0.29989355  0.89714542  0.89816308  1
  Sc  Sc79  1  0.10363642  0.70993296  0.69634358  1
  Sc  Sc80  1  0.30393761  0.49703245  0.89805678  1
  Sc  Sc81  1  0.11187925  0.50016636  0.90230555  1
  Sc  Sc82  1  0.90332498  0.29760585  0.69460966  1
  Sc  Sc83  1  0.49507475  0.69812679  0.51124745  1
  Sc  Sc84  1  0.89602736  0.50636862  0.50284787  1
  Sc  Sc85  1  0.10828406  0.70065700  0.90283501  1
  Sc  Sc86  1  0.29402316  0.28825404  0.49690102  1
  Sc  Sc87  1  0.29564313  0.50072057  0.70685369  1
  Sc  Sc88  1  0.70389423  0.09290048  0.69482867  1
  Sc  Sc89  1  0.70065986  0.50866107  0.70002681  1
  Sc  Sc90  1  0.49822024  0.70454300  0.08719935  1
  Sc  Sc91  1  0.70814369  0.89928400  0.29923419  1
  Sc  Sc92  1  0.90671917  0.89477411  0.30586513  1
  Sc  Sc93  1  0.89338467  0.70123811  0.90083732  1
  Sc  Sc94  1  0.90118988  0.09809691  0.50040786  1
  Sc  Sc95  1  0.90102522  0.48924231  0.70309629  1
  Sc  Sc96  1  0.70099101  0.30027689  0.31085213  1
  Sc  Sc97  1  0.29331750  0.08857210  0.89981445  1
  Sc  Sc98  1  0.49394812  0.50360456  0.70740827  1
  Sc  Sc99  1  0.90485829  0.70256186  0.10119972  1
  Nb  Nb100  1  0.30138147  0.10219650  0.29841202  1
  Nb  Nb101  1  0.49936317  0.49982507  0.29284745  1
  Nb  Nb102  1  0.29113036  0.89467318  0.69961928  1
  Nb  Nb103  1  0.29782711  0.29821001  0.89607466  1
  Nb  Nb104  1  0.30064716  0.70064173  0.90538892  1
  Nb  Nb105  1  0.30234377  0.70694603  0.70952153  1
  Nb  Nb106  1  0.09847337  0.90230097  0.09981044  1
  Nb  Nb107  1  0.30686157  0.30270485  0.70448114  1
  Nb  Nb108  1  0.10017217  0.30357834  0.50175632  1
  Nb  Nb109  1  0.30486160  0.70276889  0.09137277  1
  Nb  Nb110  1  0.71453704  0.90145511  0.89586437  1
  Nb  Nb111  1  0.10378380  0.29872038  0.90390297  1
  Nb  Nb112  1  0.29871789  0.09737244  0.10219857  1
  Nb  Nb113  1  0.49914280  0.49355309  0.90651030  1
  Nb  Nb114  1  0.69986896  0.29942416  0.89895973  1
  Nb  Nb115  1  0.49422831  0.90049161  0.10578710  1
  Nb  Nb116  1  0.89350242  0.90368293  0.90156161  1
  Nb  Nb117  1  0.89949618  0.70430197  0.49752459  1
  Nb  Nb118  1  0.69479663  0.70237876  0.10324127  1
  Nb  Nb119  1  0.89933099  0.30182202  0.09913585  1
  Nb  Nb120  1  0.30111807  0.09891495  0.49929242  1
  Nb  Nb121  1  0.49489150  0.09910047  0.89814010  1
  Nb  Nb122  1  0.49824534  0.50270442  0.09795460  1
  Nb  Nb123  1  0.69862179  0.10266073  0.49834687  1
  Nb  Nb124  1  0.10560028  0.89857016  0.70456484  1
  Nb  Nb125  1  0.39553607  0.39301729  0.60095051  1
  Nb  Nb126  1  0.80658014  -0.00044035  0.19714660  1
  Nb  Nb127  1  0.39875830  0.19884215  0.80191041  1
  Nb  Nb128  1  0.79289277  0.60201938  0.19911088  1
  Nb  Nb129  1  0.19465498  0.39654795  0.40274182  1
  Nb  Nb130  1  -0.00120688  0.00034486  0.00225576  1
  Nb  Nb131  1  0.60038189  0.79944155  0.40084253  1
  Nb  Nb132  1  0.00617276  0.39849637  0.40341217  1
  Nb  Nb133  1  0.80456670  0.20548329  -0.00594048  1
  Nb  Nb134  1  0.39839647  0.00233571  0.19687747  1
  Nb  Nb135  1  0.00341902  -0.00283087  0.19455864  1
  Nb  Nb136  1  0.80244729  0.79874791  0.59684801  1
  Nb  Nb137  1  0.00522341  0.59807282  0.79911964  1
  Nb  Nb138  1  0.79105169  0.40526408  0.19144206  1
  Nb  Nb139  1  0.59780211  0.20076211  0.80670429  1
  Nb  Nb140  1  -0.00291541  0.39402744  -0.00331748  1
  Nb  Nb141  1  0.39888747  0.19518477  0.60585253  1
  Nb  Nb142  1  0.20719385  0.00585198  0.40233037  1
  Nb  Nb143  1  0.80066393  0.39425332  -0.00004668  1
  Nb  Nb144  1  0.39381457  0.19465452  -0.00455139  1
  Nb  Nb145  1  0.59619476  0.80082449  0.19980598  1
  Nb  Nb146  1  0.40210508  0.59967082  0.19163405  1
  Nb  Nb147  1  0.59940339  0.40933721  0.19966258  1
  Nb  Nb148  1  0.60031497  0.39991956  0.81009232  1
  Nb  Nb149  1  -0.00311715  0.20304399  -0.00595880  1
  Pd  Pd150  1  0.20322328  0.20587157  0.60980128  1
  Pd  Pd151  1  -0.00023847  0.80138090  -0.00700017  1
  Pd  Pd152  1  0.00656310  0.19740738  0.79903615  1
  Pd  Pd153  1  0.20172314  0.20056867  0.79440495  1
  Pd  Pd154  1  0.80065117  0.79359523  0.00488862  1
  Pd  Pd155  1  0.60331264  -0.00955142  0.20455865  1
  Pd  Pd156  1  0.80123890  0.80177311  0.78945626  1
  Pd  Pd157  1  0.40743655  0.78679976  0.40221258  1
  Pd  Pd158  1  0.79521995  0.20059529  0.20198063  1
  Pd  Pd159  1  0.19267254  -0.00884312  0.58958018  1
  Pd  Pd160  1  -0.00458745  0.80576218  0.59571017  1
  Pd  Pd161  1  0.39618114  0.59573595  0.60906272  1
  Pd  Pd162  1  0.79869339  0.00541759  0.39282183  1
  Pd  Pd163  1  0.59351723  0.60902840  -0.00955938  1
  Pd  Pd164  1  0.39707886  0.59895705  0.39651457  1
  Pd  Pd165  1  0.21016212  0.59876459  0.19489497  1
  Pd  Pd166  1  0.79214150  0.19046034  0.79953972  1
  Pd  Pd167  1  0.39936903  0.00042678  0.00353546  1
  Pd  Pd168  1  0.19663576  0.60595915  0.79802348  1
  Pd  Pd169  1  0.39977327  0.60166497  0.80337030  1
  Pd  Pd170  1  0.80072701  0.19598543  0.59493299  1
  Pd  Pd171  1  0.20414691  0.79838592  0.59494883  1
  Pd  Pd172  1  -0.00804721  0.60539496  0.20752632  1
  Pd  Pd173  1  -0.00510387  0.60095990  0.60837965  1
  Pd  Pd174  1  0.39973189  0.80765982  0.80037433  1
  Pd  Pd175  1  0.19710303  0.39738329  0.80022146  1
  Pd  Pd176  1  0.80066349  0.40471848  0.60009289  1
  Pd  Pd177  1  -0.00494313  0.59488605  0.39665199  1
  Pd  Pd178  1  0.59669980  -0.01082891  -0.00458060  1
  Pd  Pd179  1  -0.00047051  0.79270589  0.80615817  1
  Pd  Pd180  1  0.81237495  0.01144704  0.00763026  1
  Pd  Pd181  1  0.19793743  0.79681152  0.19593513  1
  Pd  Pd182  1  0.39641822  0.59680235  -0.00055074  1
  Pd  Pd183  1  0.59521082  0.80882986  -0.00213429  1
  Pd  Pd184  1  0.58884068  0.59785793  0.80767465  1
  Pd  Pd185  1  0.38896317  0.40183268  0.41233733  1
  Pd  Pd186  1  0.80564148  0.60351483  0.60676345  1
  Pd  Pd187  1  0.59514067  0.19074758  0.60940837  1
  Pd  Pd188  1  0.40285007  -0.00167470  0.60686217  1
  Pd  Pd189  1  0.79155449  0.80848601  0.41324180  1
  Pd  Pd190  1  -0.00817931  0.40151524  0.20360082  1
  Pd  Pd191  1  0.60619862  0.40344330  0.00244507  1
  Pd  Pd192  1  0.40734615  0.79445319  0.20025589  1
  Pd  Pd193  1  0.59235793  0.41046980  0.60736884  1
  Pd  Pd194  1  0.20086765  0.80232525  -0.00246865  1
  Pd  Pd195  1  0.00731965  0.59764154  -0.00990249  1
  Pd  Pd196  1  -0.00401940  0.20548182  0.40168312  1
  Pd  Pd197  1  0.59349996  0.59242728  0.59855403  1
  Pd  Pd198  1  0.00892014  -0.00614364  0.59084862  1
  Pd  Pd199  1  0.39097173  0.39461067  0.00570927  1
  Rh  Rh200  1  0.59936776  0.40074723  0.39528648  1
  Rh  Rh201  1  -0.00776098  0.39654408  0.59216079  1
  Rh  Rh202  1  0.20690853  0.61304370  0.61295908  1
  Rh  Rh203  1  0.60051443  0.00236598  0.60055976  1
  Rh  Rh204  1  0.59037347  0.60368753  0.41016298  1
  Rh  Rh205  1  0.80219856  -0.00464741  0.60091352  1
  Rh  Rh206  1  0.40704657  0.39690663  0.79755027  1
  Rh  Rh207  1  0.60668473  -0.00366106  0.80542579  1
  Rh  Rh208  1  0.39387928  0.79816961  0.60982963  1
  Rh  Rh209  1  0.20145777  0.19989322  0.20441070  1
  Rh  Rh210  1  0.20412685  0.39958314  0.20989729  1
  Rh  Rh211  1  0.61135911  0.79798891  0.59279155  1
  Rh  Rh212  1  0.60612835  -0.00290689  0.39751803  1
  Rh  Rh213  1  0.40143290  0.19437653  0.40935517  1
  Rh  Rh214  1  0.01516069  0.41022901  0.80552406  1
  Rh  Rh215  1  0.60150428  0.20057767  0.39981025  1
  Rh  Rh216  1  0.59764453  0.21414500  0.21171052  1
  Rh  Rh217  1  0.80675486  0.59790517  0.39578307  1
  Rh  Rh218  1  0.40290099  0.40908011  0.19121223  1
  Rh  Rh219  1  0.78936060  0.80145067  0.19212144  1
  Rh  Rh220  1  0.19514076  -0.00602494  -0.00449444  1
  Rh  Rh221  1  0.20260920  0.59320044  0.39674128  1
  Rh  Rh222  1  0.39149634  -0.00391785  0.79595757  1
  Rh  Rh223  1  0.20823008  0.60169347  0.00205253  1
  Rh  Rh224  1  0.20416399  0.19895583  -0.00732607  1
  Rh  Rh225  1  0.60270072  0.80652041  0.80810548  1
  Rh  Rh226  1  0.00079777  0.20259241  0.60002450  1
  Rh  Rh227  1  0.19907999  0.39752217  -0.00456564  1
  Rh  Rh228  1  0.80632175  0.40032177  0.39629245  1
  Rh  Rh229  1  0.00071646  0.79743951  0.40606634  1
  Rh  Rh230  1  0.79675940  -0.00071087  0.79236016  1
  Rh  Rh231  1  0.00957668  0.79963572  0.20208349  1
  Rh  Rh232  1  0.79853691  0.19529805  0.40405682  1
  Rh  Rh233  1  0.39861129  0.80661204  -0.00378829  1
  Rh  Rh234  1  0.40093680  0.19035444  0.18855229  1
  Rh  Rh235  1  0.79662869  0.60845084  0.00786425  1
  Rh  Rh236  1  0.59705883  0.19642415  -0.00716142  1
  Rh  Rh237  1  0.20265013  0.79828412  0.80269019  1
  Rh  Rh238  1  0.81012562  0.60426824  0.79218356  1
  Rh  Rh239  1  0.20325735  0.19981797  0.39386068  1
  Rh  Rh240  1  0.20427630  0.80330362  0.40680954  1
  Rh  Rh241  1  0.20282095  -0.00106897  0.20804061  1
  Rh  Rh242  1  0.00604245  0.19414806  0.19504183  1
  Rh  Rh243  1  0.21150737  0.38975863  0.59575530  1
  Rh  Rh244  1  0.39394506  0.00815724  0.39355664  1
  Rh  Rh245  1  0.78742421  0.40557693  0.79770137  1
  Rh  Rh246  1  0.59357469  0.60392369  0.19166185  1
  Rh  Rh247  1  0.19954251  -0.00797811  0.80069151  1
  Rh  Rh248  1  0.01122580  0.00106312  0.39638317  1
  Rh  Rh249  1  0.00386016  -0.00182774  0.80490550  1
