# generated using pymatgen
data_ZrScNbPdRh
_symmetry_space_group_name_H-M   'P 1'
_cell_length_a   16.55517841
_cell_length_b   16.55097719
_cell_length_c   16.55378817
_cell_angle_alpha   90.02721139
_cell_angle_beta   89.99621501
_cell_angle_gamma   89.99567858
_symmetry_Int_Tables_number   1
_chemical_formula_structural   ZrScNbPdRh
_chemical_formula_sum   'Zr50 Sc50 Nb50 Pd50 Rh50'
_cell_volume   4535.80993507
_cell_formula_units_Z   50
loop_
 _symmetry_equiv_pos_site_id
 _symmetry_equiv_pos_as_xyz
  1  'x, y, z'
loop_
 _atom_site_type_symbol
 _atom_site_label
 _atom_site_symmetry_multiplicity
 _atom_site_fract_x
 _atom_site_fract_y
 _atom_site_fract_z
 _atom_site_occupancy
  Zr  Zr0  1  0.09913623  0.69669217  0.50013242  1
  Zr  Zr1  1  0.90538714  0.70827661  0.10145490  1
  Zr  Zr2  1  0.90690503  0.90579208  0.69874522  1
  Zr  Zr3  1  0.29454590  0.69984067  0.50060262  1
  Zr  Zr4  1  0.29225681  0.29919857  0.10007394  1
  Zr  Zr5  1  0.50906523  0.09379469  0.09023653  1
  Zr  Zr6  1  0.10210673  0.50646390  0.49525278  1
  Zr  Zr7  1  0.88271280  0.10009234  0.10259945  1
  Zr  Zr8  1  0.50001786  0.10683244  0.70398089  1
  Zr  Zr9  1  0.89237017  0.29636211  0.30188902  1
  Zr  Zr10  1  0.29695120  0.90013724  0.69335699  1
  Zr  Zr11  1  0.69769829  0.49502068  0.10077042  1
  Zr  Zr12  1  0.70365637  0.49728498  0.50077164  1
  Zr  Zr13  1  0.09346265  0.28976893  0.30672780  1
  Zr  Zr14  1  0.49713428  0.50374816  0.09575660  1
  Zr  Zr15  1  0.70667153  0.70609612  0.10249562  1
  Zr  Zr16  1  0.10461915  0.49774100  0.29991004  1
  Zr  Zr17  1  0.88593377  0.30153182  0.50324259  1
  Zr  Zr18  1  0.50946232  0.69857008  0.29925929  1
  Zr  Zr19  1  0.49512228  0.30071378  0.69845993  1
  Zr  Zr20  1  0.10595608  0.10282291  0.89712323  1
  Zr  Zr21  1  0.70562654  0.90029500  0.69892703  1
  Zr  Zr22  1  0.29696415  0.89760053  0.50239218  1
  Zr  Zr23  1  0.29545537  0.09837537  0.30703472  1
  Zr  Zr24  1  0.89331531  0.90000363  0.89336608  1
  Zr  Zr25  1  0.70835149  0.91072918  0.09616900  1
  Zr  Zr26  1  0.09512599  0.09486697  0.70668054  1
  Zr  Zr27  1  0.30049527  0.30338779  0.69786174  1
  Zr  Zr28  1  0.51152735  0.10515512  0.50520363  1
  Zr  Zr29  1  0.09884327  0.69949534  0.89482424  1
  Zr  Zr30  1  0.31068650  0.70604732  0.28932892  1
  Zr  Zr31  1  0.51026846  0.68481849  0.70089927  1
  Zr  Zr32  1  0.29751180  0.69979446  0.69912754  1
  Zr  Zr33  1  0.70466529  0.89078911  0.30099896  1
  Zr  Zr34  1  0.50434248  0.29536439  0.09898884  1
  Zr  Zr35  1  0.50048330  0.10061429  0.30397627  1
  Zr  Zr36  1  0.89785656  0.30031400  0.89449197  1
  Zr  Zr37  1  0.50286356  0.91267701  0.90028190  1
  Zr  Zr38  1  0.49898818  0.89252766  0.29934182  1
  Zr  Zr39  1  0.09765569  0.10393332  0.48274925  1
  Zr  Zr40  1  0.90012034  0.10666598  0.71159792  1
  Zr  Zr41  1  0.30650978  0.49036482  0.70274742  1
  Zr  Zr42  1  0.70271679  0.29110443  0.09744449  1
  Zr  Zr43  1  0.69387168  0.49917383  0.30318696  1
  Zr  Zr44  1  0.70182555  0.08926809  0.30232173  1
  Zr  Zr45  1  0.49872741  0.29649774  0.30739521  1
  Zr  Zr46  1  0.29816187  0.49706542  0.49742745  1
  Zr  Zr47  1  0.89494385  0.89748650  0.50058194  1
  Zr  Zr48  1  0.29368145  0.29675573  0.89645146  1
  Zr  Zr49  1  0.69895257  0.70487957  0.50577937  1
  Sc  Sc50  1  0.50025124  0.89856827  0.09182671  1
  Sc  Sc51  1  0.08862424  0.69283467  0.30189178  1
  Sc  Sc52  1  0.29793657  0.30543579  0.51024277  1
  Sc  Sc53  1  0.09290849  0.88807821  0.09963929  1
  Sc  Sc54  1  0.09181575  0.10018224  0.10469276  1
  Sc  Sc55  1  0.29742603  0.50338468  0.30121929  1
  Sc  Sc56  1  0.90742013  0.50142248  0.89350364  1
  Sc  Sc57  1  0.89827077  0.89987858  0.30276262  1
  Sc  Sc58  1  0.89375956  0.29906755  0.70945082  1
  Sc  Sc59  1  0.70006160  0.51323112  0.70400673  1
  Sc  Sc60  1  0.30187246  0.70588155  0.09498970  1
  Sc  Sc61  1  0.09934081  0.89241801  0.89610557  1
  Sc  Sc62  1  0.48866492  0.69051950  0.90528206  1
  Sc  Sc63  1  0.50030956  0.50444538  0.30099025  1
  Sc  Sc64  1  0.90403303  0.49601103  0.29904046  1
  Sc  Sc65  1  0.10542068  0.50572666  0.70967613  1
  Sc  Sc66  1  0.48931934  0.69846955  0.09931264  1
  Sc  Sc67  1  0.30353477  0.30213517  0.30540816  1
  Sc  Sc68  1  0.09859153  0.70218614  0.69929466  1
  Sc  Sc69  1  0.10045530  0.30822140  0.89945736  1
  Sc  Sc70  1  0.91071576  0.70117163  0.49982135  1
  Sc  Sc71  1  0.71613163  0.69228059  0.88996035  1
  Sc  Sc72  1  0.89729019  0.50494669  0.50271721  1
  Sc  Sc73  1  0.90809195  0.09723693  0.30019763  1
  Sc  Sc74  1  0.09484767  0.70345813  0.09719062  1
  Sc  Sc75  1  0.29798720  0.10054982  0.70850450  1
  Sc  Sc76  1  0.50069168  0.49944989  0.49121008  1
  Sc  Sc77  1  0.30219173  0.70153133  0.90288984  1
  Sc  Sc78  1  0.09988012  0.30644554  0.09465900  1
  Sc  Sc79  1  0.49581419  0.29518306  0.50142987  1
  Sc  Sc80  1  0.50429894  0.69945513  0.49765167  1
  Sc  Sc81  1  0.50711855  0.91660315  0.69961768  1
  Sc  Sc82  1  0.10098427  0.89801721  0.70100596  1
  Sc  Sc83  1  0.51207306  0.29844753  0.89100711  1
  Sc  Sc84  1  0.29307916  0.50479532  0.10803347  1
  Sc  Sc85  1  0.90767197  0.69647567  0.69776546  1
  Sc  Sc86  1  0.89686310  0.29942156  0.10354469  1
  Sc  Sc87  1  0.90798938  0.69908823  0.89904907  1
  Sc  Sc88  1  0.69579843  0.10037003  0.69495326  1
  Sc  Sc89  1  0.30053036  0.89719296  0.90471474  1
  Sc  Sc90  1  0.29961399  0.10377659  0.09845678  1
  Sc  Sc91  1  0.30230791  0.50268469  0.89022038  1
  Sc  Sc92  1  0.29706894  0.10073416  0.50874235  1
  Sc  Sc93  1  0.50188704  0.89908287  0.50611308  1
  Sc  Sc94  1  0.09260061  0.90335624  0.50333329  1
  Sc  Sc95  1  0.89310562  0.09838038  0.49959877  1
  Sc  Sc96  1  0.69571801  0.10543462  0.90715562  1
  Sc  Sc97  1  0.70598732  0.29519499  0.70578329  1
  Sc  Sc98  1  0.49878000  0.50077270  0.88718249  1
  Sc  Sc99  1  0.09503901  0.49336048  0.10390495  1
  Nb  Nb100  1  0.69938895  0.10279112  0.10322463  1
  Nb  Nb101  1  0.89146157  0.70233260  0.30166252  1
  Nb  Nb102  1  0.70759934  0.90943582  0.50343255  1
  Nb  Nb103  1  0.10194610  0.91485276  0.30773691  1
  Nb  Nb104  1  0.69285817  0.69758957  0.69781178  1
  Nb  Nb105  1  0.70077774  0.29466110  0.49943123  1
  Nb  Nb106  1  0.70367965  0.70262931  0.29865819  1
  Nb  Nb107  1  0.69805397  0.89599898  0.89292649  1
  Nb  Nb108  1  0.09780556  0.30112544  0.50582305  1
  Nb  Nb109  1  0.90534176  0.49751881  0.69570665  1
  Nb  Nb110  1  0.70578062  0.30596646  0.90230229  1
  Nb  Nb111  1  0.29741304  0.10194159  0.90301402  1
  Nb  Nb112  1  0.10025945  0.50266714  0.90197061  1
  Nb  Nb113  1  0.29597317  0.89323481  0.10379786  1
  Nb  Nb114  1  0.10323166  0.30302450  0.69356189  1
  Nb  Nb115  1  0.49402121  0.09903624  0.89728786  1
  Nb  Nb116  1  0.69821579  0.10487476  0.50064287  1
  Nb  Nb117  1  0.29894915  0.89816523  0.29671350  1
  Nb  Nb118  1  0.70380499  0.49789400  0.89949610  1
  Nb  Nb119  1  0.89871063  0.49786600  0.09713023  1
  Nb  Nb120  1  0.90719523  0.10442741  0.89530291  1
  Nb  Nb121  1  0.49872591  0.49629208  0.69700467  1
  Nb  Nb122  1  0.09905133  0.09512911  0.30282998  1
  Nb  Nb123  1  0.89887807  0.90147749  0.09490722  1
  Nb  Nb124  1  0.70202790  0.30090481  0.30516802  1
  Nb  Nb125  1  -0.00559855  0.00163314  -0.00217853  1
  Nb  Nb126  1  0.60712736  0.79634716  -0.01062826  1
  Nb  Nb127  1  0.39954349  0.39396720  0.00032239  1
  Nb  Nb128  1  0.19425526  0.19388217  0.20706462  1
  Nb  Nb129  1  0.40083537  0.59515924  0.60181085  1
  Nb  Nb130  1  0.19335955  0.59867934  -0.00461147  1
  Nb  Nb131  1  -0.00570531  0.19535769  -0.00476921  1
  Nb  Nb132  1  0.60635676  0.19642676  0.20381705  1
  Nb  Nb133  1  0.79790611  0.60748311  0.39313250  1
  Nb  Nb134  1  0.39888750  -0.00317854  0.39789082  1
  Nb  Nb135  1  0.39340737  -0.00437150  0.20114032  1
  Nb  Nb136  1  0.00240486  0.20660678  0.60077739  1
  Nb  Nb137  1  0.80204740  0.60270717  0.20169495  1
  Nb  Nb138  1  0.79887037  0.40286491  -0.00365278  1
  Nb  Nb139  1  0.60924053  0.60119294  -0.00385000  1
  Nb  Nb140  1  0.60246126  0.39891353  0.60101525  1
  Nb  Nb141  1  0.19675671  -0.00212452  0.00593329  1
  Nb  Nb142  1  0.19908691  0.80489167  0.39222273  1
  Nb  Nb143  1  0.19900074  -0.00349463  0.20034245  1
  Nb  Nb144  1  0.00237541  0.39874061  0.60070650  1
  Nb  Nb145  1  0.00041979  0.39410348  0.40860478  1
  Nb  Nb146  1  0.60142226  0.79620580  0.80203653  1
  Nb  Nb147  1  0.40939305  0.80223121  0.79512338  1
  Nb  Nb148  1  0.40250210  0.39669626  0.19584085  1
  Nb  Nb149  1  0.40120014  0.19797843  -0.00935622  1
  Pd  Pd150  1  0.39021739  -0.00451442  0.79844721  1
  Pd  Pd151  1  0.40250190  0.00772471  0.59574209  1
  Pd  Pd152  1  0.60629614  0.19728678  0.80143002  1
  Pd  Pd153  1  0.39269277  0.19572116  0.41352782  1
  Pd  Pd154  1  0.80057029  0.40435282  0.19791862  1
  Pd  Pd155  1  0.79610168  0.40151035  0.61201059  1
  Pd  Pd156  1  0.41220465  0.79115644  0.60915951  1
  Pd  Pd157  1  0.39761088  0.80153827  0.40373077  1
  Pd  Pd158  1  0.60894542  0.40354483  0.79000861  1
  Pd  Pd159  1  0.60321864  0.60489026  0.19169177  1
  Pd  Pd160  1  0.00471053  0.59674483  0.00306089  1
  Pd  Pd161  1  0.00528501  0.80466571  0.39525276  1
  Pd  Pd162  1  0.59559184  -0.00220091  0.19912456  1
  Pd  Pd163  1  0.80155424  0.00931872  0.60317090  1
  Pd  Pd164  1  0.20801006  0.20863038  0.40272322  1
  Pd  Pd165  1  0.20854012  0.80213003  0.80163092  1
  Pd  Pd166  1  0.38825360  0.00102659  0.00623346  1
  Pd  Pd167  1  0.60528567  0.80513064  0.40807195  1
  Pd  Pd168  1  0.59633310  0.80739882  0.60693460  1
  Pd  Pd169  1  0.19648248  0.61033892  0.19413352  1
  Pd  Pd170  1  0.59659379  0.80180354  0.18674238  1
  Pd  Pd171  1  0.00525253  0.40016069  0.79406795  1
  Pd  Pd172  1  0.20724330  0.41345644  -0.00406874  1
  Pd  Pd173  1  0.19584501  0.19188528  0.60381569  1
  Pd  Pd174  1  0.39990660  0.19664520  0.19222510  1
  Pd  Pd175  1  0.80204863  0.59472998  0.00385511  1
  Pd  Pd176  1  0.59799533  -0.00904741  0.40701049  1
  Pd  Pd177  1  0.80019300  0.79809191  -0.00601901  1
  Pd  Pd178  1  0.80709410  0.79247237  0.60523507  1
  Pd  Pd179  1  0.39827063  0.60205941  0.40183868  1
  Pd  Pd180  1  0.18636787  0.79881813  0.20642395  1
  Pd  Pd181  1  0.79989853  0.00589331  -0.01197703  1
  Pd  Pd182  1  0.00039085  0.39486101  0.20432479  1
  Pd  Pd183  1  0.20229957  0.59342966  0.60750824  1
  Pd  Pd184  1  0.81081746  0.59777106  0.79337468  1
  Pd  Pd185  1  0.79973747  0.18968524  0.39678343  1
  Pd  Pd186  1  0.59481937  0.39216160  0.20558465  1
  Pd  Pd187  1  0.79107519  0.01079362  0.80458786  1
  Pd  Pd188  1  0.00056538  0.20240347  0.19236642  1
  Pd  Pd189  1  -0.00659870  0.59739518  0.19835620  1
  Pd  Pd190  1  -0.00096728  -0.00622140  0.19361697  1
  Pd  Pd191  1  0.59778711  0.40442642  -0.00773921  1
  Pd  Pd192  1  -0.00009806  0.80730595  0.21118192  1
  Pd  Pd193  1  0.19701793  0.39287267  0.39917273  1
  Pd  Pd194  1  0.59725131  0.39294629  0.40831449  1
  Pd  Pd195  1  -0.00007030  0.01082726  0.59420993  1
  Pd  Pd196  1  0.80431505  0.60762592  0.59747386  1
  Pd  Pd197  1  0.19058602  0.00463949  0.59734720  1
  Pd  Pd198  1  0.80181468  0.79174335  0.78867827  1
  Pd  Pd199  1  0.19571874  0.20429941  0.79352662  1
  Rh  Rh200  1  0.20330036  0.38993782  0.20885482  1
  Rh  Rh201  1  0.59673996  0.19879823  -0.00197517  1
  Rh  Rh202  1  -0.00387169  0.80099495  0.79597163  1
  Rh  Rh203  1  0.59466677  0.58749746  0.59175716  1
  Rh  Rh204  1  0.00936275  0.21005351  0.79938930  1
  Rh  Rh205  1  0.20684282  -0.00631817  0.40334905  1
  Rh  Rh206  1  0.80483467  0.20451222  -0.00750114  1
  Rh  Rh207  1  0.00379884  -0.00817324  0.80761078  1
  Rh  Rh208  1  0.00424845  0.59167987  0.60444181  1
  Rh  Rh209  1  -0.01023698  -0.00149991  0.40389817  1
  Rh  Rh210  1  0.40030919  0.40109670  0.39493488  1
  Rh  Rh211  1  0.39640925  0.60624687  0.79069039  1
  Rh  Rh212  1  -0.01149999  0.20482992  0.40969138  1
  Rh  Rh213  1  0.60842161  0.60585740  0.40411035  1
  Rh  Rh214  1  0.80262078  0.40810485  0.39525767  1
  Rh  Rh215  1  0.19341765  0.18909288  0.01036226  1
  Rh  Rh216  1  0.60615532  0.00134982  0.59621530  1
  Rh  Rh217  1  0.39699503  0.19667886  0.60343012  1
  Rh  Rh218  1  0.39765952  0.20200691  0.80432876  1
  Rh  Rh219  1  0.20082181  0.60231583  0.80660398  1
  Rh  Rh220  1  0.79801201  0.40903149  0.80153667  1
  Rh  Rh221  1  0.80415528  -0.00487204  0.20534963  1
  Rh  Rh222  1  0.60858735  0.20322682  0.39656877  1
  Rh  Rh223  1  0.40958751  0.40594380  0.59102098  1
  Rh  Rh224  1  -0.01159374  0.59133146  0.39730561  1
  Rh  Rh225  1  0.61072453  -0.00302360  -0.00598485  1
  Rh  Rh226  1  -0.00582194  0.80758130  -0.00782964  1
  Rh  Rh227  1  0.60349734  0.60258151  0.81172410  1
  Rh  Rh228  1  0.19852768  0.79632072  -0.00038228  1
  Rh  Rh229  1  0.20713594  0.61613448  0.38633528  1
  Rh  Rh230  1  -0.01119452  0.39647388  -0.00009265  1
  Rh  Rh231  1  0.38981822  0.58647122  0.00163287  1
  Rh  Rh232  1  0.60554613  0.20966184  0.60121469  1
  Rh  Rh233  1  0.79071489  0.19416633  0.80524566  1
  Rh  Rh234  1  0.80711825  0.80415486  0.19781666  1
  Rh  Rh235  1  0.79181559  0.19583698  0.21125836  1
  Rh  Rh236  1  0.40241982  0.39096605  0.80792284  1
  Rh  Rh237  1  0.20373539  -0.00740545  0.80869298  1
  Rh  Rh238  1  0.00199845  0.80061169  0.60212308  1
  Rh  Rh239  1  0.18912991  0.80229038  0.59133388  1
  Rh  Rh240  1  0.40792052  0.80469184  0.19252575  1
  Rh  Rh241  1  0.60606125  0.00368648  0.80208786  1
  Rh  Rh242  1  0.79781200  0.79663478  0.40823043  1
  Rh  Rh243  1  0.39937791  0.59380063  0.20075871  1
  Rh  Rh244  1  0.79991767  -0.00041826  0.40030875  1
  Rh  Rh245  1  0.80121185  0.19567654  0.60342314  1
  Rh  Rh246  1  0.19303549  0.40880519  0.60254246  1
  Rh  Rh247  1  0.00008929  0.59874768  0.79701737  1
  Rh  Rh248  1  0.19673237  0.40054812  0.79989238  1
  Rh  Rh249  1  0.40676235  0.80638558  -0.00642542  1
