# generated using pymatgen
data_ZrScNbPdRh
_symmetry_space_group_name_H-M   'P 1'
_cell_length_a   16.56098863
_cell_length_b   16.55511739
_cell_length_c   16.56581133
_cell_angle_alpha   89.96135614
_cell_angle_beta   90.01406429
_cell_angle_gamma   90.02624350
_symmetry_Int_Tables_number   1
_chemical_formula_structural   ZrScNbPdRh
_chemical_formula_sum   'Zr50 Sc50 Nb50 Pd50 Rh50'
_cell_volume   4541.83211797
_cell_formula_units_Z   50
loop_
 _symmetry_equiv_pos_site_id
 _symmetry_equiv_pos_as_xyz
  1  'x, y, z'
loop_
 _atom_site_type_symbol
 _atom_site_label
 _atom_site_symmetry_multiplicity
 _atom_site_fract_x
 _atom_site_fract_y
 _atom_site_fract_z
 _atom_site_occupancy
  Zr  Zr0  1  0.90546727  0.30696501  0.49675953  1
  Zr  Zr1  1  0.09710709  0.10416502  0.29339074  1
  Zr  Zr2  1  0.50215037  0.50103243  0.50247298  1
  Zr  Zr3  1  0.29707307  0.10649338  0.10759561  1
  Zr  Zr4  1  0.50203095  0.89429131  0.28747383  1
  Zr  Zr5  1  0.29499355  0.90347578  0.50106127  1
  Zr  Zr6  1  0.30073522  0.70131582  0.89499120  1
  Zr  Zr7  1  0.69550673  0.09698397  0.49735192  1
  Zr  Zr8  1  0.50253476  0.30318806  0.70224922  1
  Zr  Zr9  1  0.49141599  0.69375881  0.89619224  1
  Zr  Zr10  1  0.90494938  0.70278615  0.30832353  1
  Zr  Zr11  1  0.70956304  0.89810657  0.90195503  1
  Zr  Zr12  1  0.48513542  0.10628119  0.70560882  1
  Zr  Zr13  1  0.50796524  0.69636849  0.29987805  1
  Zr  Zr14  1  0.89662600  0.09138660  0.10339677  1
  Zr  Zr15  1  0.49774843  0.09916486  0.49803631  1
  Zr  Zr16  1  0.50174158  0.71112428  0.10609130  1
  Zr  Zr17  1  0.69391772  0.50543889  0.30373642  1
  Zr  Zr18  1  0.69781407  0.49323233  0.69619127  1
  Zr  Zr19  1  0.69577410  0.50322183  0.89481125  1
  Zr  Zr20  1  0.70926446  0.89092676  0.09726091  1
  Zr  Zr21  1  0.10401353  0.29798327  0.09826508  1
  Zr  Zr22  1  0.30725289  0.50480319  0.90892490  1
  Zr  Zr23  1  0.69734276  0.29850905  0.91661742  1
  Zr  Zr24  1  0.70467160  0.30239131  0.51272338  1
  Zr  Zr25  1  0.50219804  0.49210632  0.30507745  1
  Zr  Zr26  1  0.29823892  0.50521838  0.50111713  1
  Zr  Zr27  1  0.49621711  0.10735915  0.30267792  1
  Zr  Zr28  1  0.50962182  0.10362034  0.10865362  1
  Zr  Zr29  1  0.70072784  0.69204651  0.70392969  1
  Zr  Zr30  1  0.29752154  0.09823780  0.69631282  1
  Zr  Zr31  1  0.50447294  0.90245411  0.49733522  1
  Zr  Zr32  1  0.30479662  0.49473609  0.30175837  1
  Zr  Zr33  1  0.09501326  0.09828209  0.70528439  1
  Zr  Zr34  1  0.70545237  0.49982312  0.10121664  1
  Zr  Zr35  1  0.70175462  0.89929670  0.69619910  1
  Zr  Zr36  1  0.90410355  0.89991348  0.70130748  1
  Zr  Zr37  1  0.50743094  0.49891077  0.70967050  1
  Zr  Zr38  1  0.48987556  0.90082479  0.89870212  1
  Zr  Zr39  1  0.30629668  0.29223459  0.70149056  1
  Zr  Zr40  1  0.09540601  0.29298551  0.90103828  1
  Zr  Zr41  1  0.88619485  0.29917350  0.10115088  1
  Zr  Zr42  1  0.09414341  0.69881113  0.49067586  1
  Zr  Zr43  1  0.50216034  0.69630891  0.69856868  1
  Zr  Zr44  1  0.69757245  0.90571112  0.50711064  1
  Zr  Zr45  1  0.89865105  0.29246633  0.89901037  1
  Zr  Zr46  1  0.90570378  0.69555292  0.70099128  1
  Zr  Zr47  1  0.69821174  0.09999649  0.29492816  1
  Zr  Zr48  1  0.29437218  0.89604641  0.89390582  1
  Zr  Zr49  1  0.29469618  0.70206301  0.50368273  1
  Sc  Sc50  1  0.89851152  0.69896784  0.89866009  1
  Sc  Sc51  1  0.08720131  0.89803951  0.30954055  1
  Sc  Sc52  1  0.89907238  0.90336346  0.29322261  1
  Sc  Sc53  1  0.90358949  0.29889090  0.29891526  1
  Sc  Sc54  1  0.70265666  0.11215232  0.10067697  1
  Sc  Sc55  1  0.90118538  0.09929758  0.29713632  1
  Sc  Sc56  1  0.29174605  0.89682245  0.69706202  1
  Sc  Sc57  1  0.91123163  0.90808585  0.49650689  1
  Sc  Sc58  1  0.09313192  0.70182065  0.69547032  1
  Sc  Sc59  1  0.70461517  0.69391264  0.29570164  1
  Sc  Sc60  1  0.29471116  0.30282460  0.10740955  1
  Sc  Sc61  1  0.90594258  0.09479196  0.90065898  1
  Sc  Sc62  1  0.49897744  0.89710651  0.69232181  1
  Sc  Sc63  1  0.30316657  0.49351594  0.68633051  1
  Sc  Sc64  1  0.29745402  0.49569780  0.09522803  1
  Sc  Sc65  1  0.09473702  0.29745311  0.29605334  1
  Sc  Sc66  1  0.70682307  0.09412049  0.68355998  1
  Sc  Sc67  1  0.30241197  0.10809313  0.30523435  1
  Sc  Sc68  1  0.51415617  0.30020086  0.10106070  1
  Sc  Sc69  1  0.69212639  0.68994034  0.49854739  1
  Sc  Sc70  1  0.89841284  0.90373594  0.90166566  1
  Sc  Sc71  1  0.30240210  0.69897866  0.09190184  1
  Sc  Sc72  1  0.10127048  0.49787952  0.09745169  1
  Sc  Sc73  1  0.09845742  0.09847587  0.08942584  1
  Sc  Sc74  1  0.30063706  0.70354978  0.30507949  1
  Sc  Sc75  1  0.90558689  0.09639129  0.69692364  1
  Sc  Sc76  1  0.49189334  0.10110198  0.89824509  1
  Sc  Sc77  1  0.89107056  0.49670499  0.30690723  1
  Sc  Sc78  1  0.70315364  0.49236485  0.49597133  1
  Sc  Sc79  1  0.70072670  0.89871138  0.30122817  1
  Sc  Sc80  1  0.09505340  0.69751028  0.90070167  1
  Sc  Sc81  1  0.09855602  0.90129157  0.69875041  1
  Sc  Sc82  1  0.90055959  0.50891224  0.69479093  1
  Sc  Sc83  1  0.50226510  0.69739828  0.50750145  1
  Sc  Sc84  1  0.30163098  0.09736473  0.49711474  1
  Sc  Sc85  1  0.30232352  0.09071599  0.89497749  1
  Sc  Sc86  1  0.70172713  0.31140925  0.30198147  1
  Sc  Sc87  1  0.10193153  0.10218478  0.49269025  1
  Sc  Sc88  1  0.90042851  0.51327846  0.89738646  1
  Sc  Sc89  1  0.30142101  0.89703713  0.08834039  1
  Sc  Sc90  1  0.09558000  0.50552519  0.90729116  1
  Sc  Sc91  1  0.30283251  0.90157914  0.30278593  1
  Sc  Sc92  1  0.30162482  0.70477103  0.69754708  1
  Sc  Sc93  1  0.50495300  0.50221629  0.10191172  1
  Sc  Sc94  1  0.09742325  0.30198195  0.68308958  1
  Sc  Sc95  1  0.29988439  0.30753755  0.90987865  1
  Sc  Sc96  1  0.50525524  0.29574315  0.49713287  1
  Sc  Sc97  1  0.29479813  0.29490206  0.50587254  1
  Sc  Sc98  1  0.50204116  0.30812285  0.90116714  1
  Sc  Sc99  1  0.90163517  0.29308896  0.68668265  1
  Nb  Nb100  1  0.50424048  0.90281229  0.10118701  1
  Nb  Nb101  1  0.09422950  0.69873015  0.10400584  1
  Nb  Nb102  1  0.10394122  0.91313411  0.91157048  1
  Nb  Nb103  1  0.70312788  0.70180044  0.90477832  1
  Nb  Nb104  1  0.30690959  0.29932547  0.29803577  1
  Nb  Nb105  1  0.50330710  0.50367729  0.90326548  1
  Nb  Nb106  1  0.70388633  0.29909925  0.09522201  1
  Nb  Nb107  1  0.70883244  0.69818333  0.09351246  1
  Nb  Nb108  1  0.09593711  0.30898254  0.49489175  1
  Nb  Nb109  1  0.09947579  0.49166178  0.50795090  1
  Nb  Nb110  1  0.09744552  0.69867338  0.29923005  1
  Nb  Nb111  1  0.48644596  0.30110459  0.30153425  1
  Nb  Nb112  1  0.90236014  0.50605885  0.09740371  1
  Nb  Nb113  1  0.89063308  0.10754384  0.50082180  1
  Nb  Nb114  1  0.09961153  0.49806255  0.69829524  1
  Nb  Nb115  1  0.89970982  0.69224470  0.50086159  1
  Nb  Nb116  1  0.70073856  0.30200828  0.70309316  1
  Nb  Nb117  1  0.90259101  0.89732288  0.10078342  1
  Nb  Nb118  1  0.09818785  0.90298028  0.10001767  1
  Nb  Nb119  1  0.09595792  0.09670640  0.89757302  1
  Nb  Nb120  1  0.10263708  0.50386354  0.30033376  1
  Nb  Nb121  1  0.89564994  0.69992511  0.10241011  1
  Nb  Nb122  1  0.90036235  0.50216205  0.50183911  1
  Nb  Nb123  1  0.70055431  0.09794647  0.90378806  1
  Nb  Nb124  1  0.10719988  0.89866310  0.50304557  1
  Nb  Nb125  1  0.60276964  0.80052767  0.80536066  1
  Nb  Nb126  1  0.19023870  0.79862415  0.19736177  1
  Nb  Nb127  1  0.60346795  0.60816460  -0.00015571  1
  Nb  Nb128  1  0.79971095  0.19942313  0.40475214  1
  Nb  Nb129  1  0.19632097  0.60498249  0.20351855  1
  Nb  Nb130  1  0.19851642  0.59174476  0.79623854  1
  Nb  Nb131  1  0.00185402  0.80304383  0.01074153  1
  Nb  Nb132  1  0.79293465  0.20066513  0.79867416  1
  Nb  Nb133  1  -0.00048415  0.39976054  0.79904215  1
  Nb  Nb134  1  0.19560194  0.40072927  0.40026393  1
  Nb  Nb135  1  -0.00747761  0.39865908  0.00074449  1
  Nb  Nb136  1  0.19835931  -0.00611346  0.19750452  1
  Nb  Nb137  1  0.80408626  0.79697556  0.40995641  1
  Nb  Nb138  1  0.19517017  0.20232825  0.80121489  1
  Nb  Nb139  1  0.40472995  0.80229931  0.40303679  1
  Nb  Nb140  1  0.80609390  0.79470393  0.59396049  1
  Nb  Nb141  1  0.40098106  -0.00058900  0.19633233  1
  Nb  Nb142  1  0.39766173  0.60014625  0.20327348  1
  Nb  Nb143  1  0.60312252  0.00141919  0.80283484  1
  Nb  Nb144  1  0.00162772  0.60162994  0.20153879  1
  Nb  Nb145  1  0.60195590  -0.00288747  -0.00127477  1
  Nb  Nb146  1  0.19389802  0.40183704  0.79789287  1
  Nb  Nb147  1  0.60927809  0.19572160  0.80101271  1
  Nb  Nb148  1  0.80214490  0.39412032  0.79829910  1
  Nb  Nb149  1  0.40209065  0.19961740  0.00705469  1
  Pd  Pd150  1  0.79320529  -0.00327507  0.19772404  1
  Pd  Pd151  1  0.38902184  0.59173850  0.78883364  1
  Pd  Pd152  1  -0.00092983  0.00778556  0.40111711  1
  Pd  Pd153  1  0.79994073  0.40316692  0.20327424  1
  Pd  Pd154  1  0.19779398  0.00179168  0.79826025  1
  Pd  Pd155  1  0.00567591  0.19394902  0.58994585  1
  Pd  Pd156  1  0.19757523  0.40248950  0.20643282  1
  Pd  Pd157  1  0.19795788  0.60341160  0.00052503  1
  Pd  Pd158  1  0.40345305  0.60876286  0.39875843  1
  Pd  Pd159  1  0.40505947  0.39421605  0.59378371  1
  Pd  Pd160  1  0.60525399  0.21493464  0.21076991  1
  Pd  Pd161  1  0.40925061  0.39451288  0.00991837  1
  Pd  Pd162  1  -0.00775509  0.19953770  0.00848109  1
  Pd  Pd163  1  0.19378224  0.60600827  0.60632804  1
  Pd  Pd164  1  0.19593727  -0.00044980  0.39051332  1
  Pd  Pd165  1  0.59609318  -0.00176375  0.39035017  1
  Pd  Pd166  1  0.59725470  0.19511776  0.60904751  1
  Pd  Pd167  1  0.59673506  0.80078684  -0.00591827  1
  Pd  Pd168  1  0.60723725  0.21026211  0.39384216  1
  Pd  Pd169  1  -0.00367147  0.19874531  0.19108778  1
  Pd  Pd170  1  0.40367380  0.00775397  0.00958219  1
  Pd  Pd171  1  0.20015601  0.20998794  0.39496296  1
  Pd  Pd172  1  0.79454287  0.59938862  0.59430469  1
  Pd  Pd173  1  0.19836172  0.59566300  0.39805700  1
  Pd  Pd174  1  0.61601995  0.79579338  0.19905836  1
  Pd  Pd175  1  -0.00319280  0.40796447  0.19477757  1
  Pd  Pd176  1  -0.00123558  0.79930393  0.19907783  1
  Pd  Pd177  1  0.20139346  0.80510560  0.39354678  1
  Pd  Pd178  1  -0.00172963  0.80116964  0.59158678  1
  Pd  Pd179  1  0.80074796  0.79470136  0.79508354  1
  Pd  Pd180  1  0.39781624  -0.00314252  0.60212022  1
  Pd  Pd181  1  0.60211719  0.39628360  0.20045927  1
  Pd  Pd182  1  0.79962787  0.01100612  0.79533298  1
  Pd  Pd183  1  -0.00071289  0.58813877  0.39923603  1
  Pd  Pd184  1  0.20999050  0.19303989  -0.00988529  1
  Pd  Pd185  1  0.80433316  -0.00100049  0.39968131  1
  Pd  Pd186  1  0.80699517  0.41078039  -0.00798228  1
  Pd  Pd187  1  0.60469718  0.79561454  0.40232987  1
  Pd  Pd188  1  0.19216582  0.79497053  0.00237660  1
  Pd  Pd189  1  0.39922971  0.79949651  0.00016635  1
  Pd  Pd190  1  0.00687093  0.80719582  0.81338502  1
  Pd  Pd191  1  0.40398933  0.40225374  0.18975093  1
  Pd  Pd192  1  0.00400078  0.40746444  0.39334496  1
  Pd  Pd193  1  0.39960755  0.80122325  0.59553813  1
  Pd  Pd194  1  0.00421906  0.00613160  0.59307833  1
  Pd  Pd195  1  0.19373757  0.19557275  0.60051703  1
  Pd  Pd196  1  0.80776742  0.60014457  0.20471734  1
  Pd  Pd197  1  0.39279391  0.40424089  0.80282097  1
  Pd  Pd198  1  0.39296570  0.39116349  0.41296150  1
  Pd  Pd199  1  0.18771409  0.79331753  0.79779365  1
  Rh  Rh200  1  0.60003285  0.41123272  0.00395152  1
  Rh  Rh201  1  -0.00784518  0.19749578  0.40409789  1
  Rh  Rh202  1  0.81531056  0.79652575  -0.00004307  1
  Rh  Rh203  1  0.00728087  0.00106451  0.19768259  1
  Rh  Rh204  1  0.39921044  -0.01112774  0.78993239  1
  Rh  Rh205  1  0.80818147  0.40382759  0.60550302  1
  Rh  Rh206  1  0.20298312  0.00480144  0.00353488  1
  Rh  Rh207  1  0.79917694  0.59628587  0.80059383  1
  Rh  Rh208  1  0.40412324  0.80355712  0.79181787  1
  Rh  Rh209  1  0.79650075  0.20513247  0.21037997  1
  Rh  Rh210  1  -0.00456446  -0.00435118  0.00023306  1
  Rh  Rh211  1  0.79886055  0.60232517  0.40428613  1
  Rh  Rh212  1  0.38870987  0.80120018  0.20388235  1
  Rh  Rh213  1  0.20125519  0.39608860  0.59744499  1
  Rh  Rh214  1  -0.00509021  0.80318680  0.40718018  1
  Rh  Rh215  1  0.60626258  0.39156048  0.80657480  1
  Rh  Rh216  1  -0.00603073  0.60427129  0.00813287  1
  Rh  Rh217  1  0.79992461  0.19922746  0.59945200  1
  Rh  Rh218  1  0.40326988  0.59879189  0.60384656  1
  Rh  Rh219  1  0.60179335  0.59081686  0.59920102  1
  Rh  Rh220  1  0.39465447  0.20597163  0.40529938  1
  Rh  Rh221  1  0.18881507  0.40079273  -0.00553905  1
  Rh  Rh222  1  0.59085292  0.19136119  -0.00792895  1
  Rh  Rh223  1  0.79760985  0.00298604  0.00654816  1
  Rh  Rh224  1  0.00590442  0.59589340  0.59431295  1
  Rh  Rh225  1  0.00211868  -0.00736829  0.80547192  1
  Rh  Rh226  1  0.59530887  0.40010111  0.59702855  1
  Rh  Rh227  1  0.58559796  0.01085078  0.61049113  1
  Rh  Rh228  1  0.40214808  0.20060766  0.58981315  1
  Rh  Rh229  1  0.80142112  0.79720991  0.20759697  1
  Rh  Rh230  1  -0.00731193  0.40830007  0.60386623  1
  Rh  Rh231  1  0.79772111  0.60078731  -0.00285251  1
  Rh  Rh232  1  -0.00000540  0.20320953  0.79233847  1
  Rh  Rh233  1  0.39364088  0.21138292  0.81760090  1
  Rh  Rh234  1  0.60220019  0.60900017  0.80851908  1
  Rh  Rh235  1  0.60439869  -0.00470552  0.19271376  1
  Rh  Rh236  1  0.80194284  0.39587547  0.40384887  1
  Rh  Rh237  1  0.59866407  0.39499731  0.40222787  1
  Rh  Rh238  1  0.40200826  0.20289175  0.19625242  1
  Rh  Rh239  1  0.81239878  -0.00878845  0.59700344  1
  Rh  Rh240  1  0.19837553  0.19935016  0.20751173  1
  Rh  Rh241  1  0.41050262  0.60048688  0.01212629  1
  Rh  Rh242  1  0.00732094  0.59552799  0.79594893  1
  Rh  Rh243  1  0.19382434  0.00179013  0.59668394  1
  Rh  Rh244  1  0.59927897  0.59718233  0.40276430  1
  Rh  Rh245  1  0.59759895  0.60417740  0.19017259  1
  Rh  Rh246  1  0.80527167  0.18877179  -0.00252063  1
  Rh  Rh247  1  0.60991946  0.79340749  0.60635516  1
  Rh  Rh248  1  0.40766657  -0.00698290  0.38939974  1
  Rh  Rh249  1  0.19203247  0.79721996  0.59892810  1
