# generated using pymatgen
data_ZrScNbPdRh
_symmetry_space_group_name_H-M   'P 1'
_cell_length_a   16.55867869
_cell_length_b   16.55922704
_cell_length_c   16.55524497
_cell_angle_alpha   89.97059820
_cell_angle_beta   90.01745386
_cell_angle_gamma   90.04868196
_symmetry_Int_Tables_number   1
_chemical_formula_structural   ZrScNbPdRh
_chemical_formula_sum   'Zr50 Sc50 Nb50 Pd50 Rh50'
_cell_volume   4539.42784561
_cell_formula_units_Z   50
loop_
 _symmetry_equiv_pos_site_id
 _symmetry_equiv_pos_as_xyz
  1  'x, y, z'
loop_
 _atom_site_type_symbol
 _atom_site_label
 _atom_site_symmetry_multiplicity
 _atom_site_fract_x
 _atom_site_fract_y
 _atom_site_fract_z
 _atom_site_occupancy
  Zr  Zr0  1  0.10061901  0.70003285  0.50308264  1
  Zr  Zr1  1  0.29237081  0.90033288  0.70054442  1
  Zr  Zr2  1  0.10994582  0.29570515  0.29434244  1
  Zr  Zr3  1  0.30027865  0.69835928  0.50130645  1
  Zr  Zr4  1  0.09958301  0.49364708  0.70052095  1
  Zr  Zr5  1  0.89870144  0.29007871  0.30690377  1
  Zr  Zr6  1  0.70254982  0.10970061  0.10188250  1
  Zr  Zr7  1  0.49556894  0.10103121  0.49681173  1
  Zr  Zr8  1  0.50584707  0.29694434  0.70090953  1
  Zr  Zr9  1  0.69598495  0.49110974  0.10571792  1
  Zr  Zr10  1  0.29213497  0.90187143  0.90430737  1
  Zr  Zr11  1  0.90378505  0.90449449  0.49586774  1
  Zr  Zr12  1  0.29167202  0.30432627  0.10437004  1
  Zr  Zr13  1  0.49610911  0.09787126  0.10401273  1
  Zr  Zr14  1  0.69489086  0.90051112  0.29734227  1
  Zr  Zr15  1  0.50464273  0.69333572  0.10819624  1
  Zr  Zr16  1  0.29785417  0.70482426  0.90494673  1
  Zr  Zr17  1  0.50348891  0.49482469  0.69777119  1
  Zr  Zr18  1  0.30253756  0.29711726  0.90282263  1
  Zr  Zr19  1  0.50768929  0.70029994  0.70354784  1
  Zr  Zr20  1  0.10303187  0.69333463  0.29359813  1
  Zr  Zr21  1  0.30358591  0.09791510  0.69504395  1
  Zr  Zr22  1  0.89937373  0.69473194  0.89974845  1
  Zr  Zr23  1  0.89606916  0.49540972  0.09168245  1
  Zr  Zr24  1  0.70966620  0.49620833  0.49983179  1
  Zr  Zr25  1  0.69526796  0.70248346  0.09997180  1
  Zr  Zr26  1  0.30205161  0.70382846  0.69558539  1
  Zr  Zr27  1  0.70264590  0.89507854  0.69803202  1
  Zr  Zr28  1  0.90324433  0.09712107  0.10232394  1
  Zr  Zr29  1  0.89900071  0.49143078  0.50858943  1
  Zr  Zr30  1  0.10360565  0.09593111  0.69577308  1
  Zr  Zr31  1  0.30252919  0.09784760  0.49372312  1
  Zr  Zr32  1  0.70308333  0.30285740  0.49805827  1
  Zr  Zr33  1  0.30925622  0.49962865  0.91973189  1
  Zr  Zr34  1  0.70334366  0.69670063  0.89617360  1
  Zr  Zr35  1  0.90446817  0.10357913  0.48933313  1
  Zr  Zr36  1  0.50826598  0.69055232  0.90386754  1
  Zr  Zr37  1  0.90435412  0.49418932  0.70613338  1
  Zr  Zr38  1  0.69245998  0.30006563  0.90413903  1
  Zr  Zr39  1  0.10465291  0.70836075  0.91049637  1
  Zr  Zr40  1  0.69733519  0.10531877  0.69746528  1
  Zr  Zr41  1  0.49485918  0.10892879  0.90721447  1
  Zr  Zr42  1  0.89433298  0.90981128  0.10075689  1
  Zr  Zr43  1  0.89074836  0.90575214  0.29759894  1
  Zr  Zr44  1  0.50292861  0.10319049  0.69610726  1
  Zr  Zr45  1  0.69912341  0.89251483  0.49395506  1
  Zr  Zr46  1  0.69404340  0.48714323  0.30058375  1
  Zr  Zr47  1  0.70199421  0.70494435  0.69786113  1
  Zr  Zr48  1  0.90175314  0.90382960  0.91092499  1
  Zr  Zr49  1  0.49899593  0.50274753  0.29460322  1
  Sc  Sc50  1  0.50494792  0.28987187  0.09624174  1
  Sc  Sc51  1  0.10484782  0.89986337  0.68606333  1
  Sc  Sc52  1  0.89896917  0.10622989  0.90953238  1
  Sc  Sc53  1  0.89961547  0.50386402  0.31256040  1
  Sc  Sc54  1  0.09806757  0.08474304  0.48875541  1
  Sc  Sc55  1  0.30270228  0.90456222  0.49774326  1
  Sc  Sc56  1  0.89915438  0.30175148  0.50147606  1
  Sc  Sc57  1  0.89086840  0.69721778  0.70211120  1
  Sc  Sc58  1  0.48798504  0.70690624  0.49663400  1
  Sc  Sc59  1  0.49205971  0.30820919  0.49759234  1
  Sc  Sc60  1  0.90360612  0.69573887  0.09019874  1
  Sc  Sc61  1  0.89462145  0.49713927  0.90310898  1
  Sc  Sc62  1  0.70733380  0.10367765  0.29411637  1
  Sc  Sc63  1  0.90486032  0.30083772  0.90269524  1
  Sc  Sc64  1  0.09655545  0.30754356  0.10138166  1
  Sc  Sc65  1  0.30096707  0.29731700  0.70383107  1
  Sc  Sc66  1  0.69579617  0.10646704  0.50455309  1
  Sc  Sc67  1  0.10202044  0.50342960  0.30233383  1
  Sc  Sc68  1  0.29928926  0.50581222  0.30061642  1
  Sc  Sc69  1  0.30024621  0.69661924  0.29504941  1
  Sc  Sc70  1  0.50995935  0.90229287  0.69185768  1
  Sc  Sc71  1  0.30326106  0.10236068  0.90312101  1
  Sc  Sc72  1  0.88781659  0.69128062  0.50157555  1
  Sc  Sc73  1  0.10777702  0.70653357  0.69574479  1
  Sc  Sc74  1  0.70135839  0.10097871  0.90035670  1
  Sc  Sc75  1  0.70133495  0.48693007  0.70352859  1
  Sc  Sc76  1  0.89204886  0.29998067  0.09436790  1
  Sc  Sc77  1  0.29409020  0.10936437  0.30009052  1
  Sc  Sc78  1  0.50308465  0.90598438  0.90407845  1
  Sc  Sc79  1  0.30323448  0.30200666  0.48650658  1
  Sc  Sc80  1  0.10247999  0.30558414  0.70969658  1
  Sc  Sc81  1  0.29640507  0.91058808  0.09921321  1
  Sc  Sc82  1  0.29360011  0.90766340  0.29670839  1
  Sc  Sc83  1  0.89517352  0.11340764  0.70160339  1
  Sc  Sc84  1  0.69976806  0.70598891  0.29944832  1
  Sc  Sc85  1  0.09902322  0.30653101  0.49251244  1
  Sc  Sc86  1  0.89724393  0.30144362  0.70204826  1
  Sc  Sc87  1  0.89820148  0.88793610  0.69462242  1
  Sc  Sc88  1  0.70566496  0.89539198  0.90577586  1
  Sc  Sc89  1  0.10334887  0.90774736  0.09641866  1
  Sc  Sc90  1  0.69549827  0.49690010  0.90188277  1
  Sc  Sc91  1  0.09224830  0.10254991  0.90216219  1
  Sc  Sc92  1  0.29987847  0.49391567  0.69117142  1
  Sc  Sc93  1  0.30386489  0.10166779  0.10187839  1
  Sc  Sc94  1  0.08854793  0.49300119  0.89764925  1
  Sc  Sc95  1  0.50015797  0.30565985  0.30060047  1
  Sc  Sc96  1  0.10690255  0.49572687  0.50020287  1
  Sc  Sc97  1  0.49853001  0.69893121  0.30085365  1
  Sc  Sc98  1  0.29259048  0.69357680  0.10054537  1
  Sc  Sc99  1  0.10641363  0.50196524  0.10359411  1
  Nb  Nb100  1  0.30627228  0.49885521  0.10240699  1
  Nb  Nb101  1  0.31894262  0.49824532  0.49942886  1
  Nb  Nb102  1  0.09932480  0.29795977  0.90418569  1
  Nb  Nb103  1  0.50383855  0.90636484  0.30358250  1
  Nb  Nb104  1  0.29907296  0.30202486  0.29520318  1
  Nb  Nb105  1  0.50395046  0.90075693  0.10722014  1
  Nb  Nb106  1  0.49675648  0.49624291  0.49439657  1
  Nb  Nb107  1  0.69638977  0.90245380  0.10532761  1
  Nb  Nb108  1  0.49543321  0.30037725  0.90183256  1
  Nb  Nb109  1  0.49979768  0.09538272  0.30662324  1
  Nb  Nb110  1  0.08830145  0.09947075  0.29401971  1
  Nb  Nb111  1  0.09445518  0.10743798  0.10412053  1
  Nb  Nb112  1  0.50179444  0.49507564  0.90104748  1
  Nb  Nb113  1  0.49154247  0.50207918  0.09596006  1
  Nb  Nb114  1  0.09577855  0.89735937  0.49307759  1
  Nb  Nb115  1  0.90923574  0.09829180  0.29691035  1
  Nb  Nb116  1  0.10205326  0.90061271  0.89597422  1
  Nb  Nb117  1  0.69799291  0.29784831  0.11514708  1
  Nb  Nb118  1  0.69885174  0.69301084  0.50762480  1
  Nb  Nb119  1  0.09961294  0.89895274  0.29768153  1
  Nb  Nb120  1  0.69472891  0.29947291  0.28968108  1
  Nb  Nb121  1  0.70242824  0.28815363  0.69701865  1
  Nb  Nb122  1  0.50151314  0.91075524  0.47515636  1
  Nb  Nb123  1  0.90445773  0.69982220  0.29390665  1
  Nb  Nb124  1  0.10388130  0.70563501  0.10707522  1
  Nb  Nb125  1  0.60101373  0.59767077  0.59347347  1
  Nb  Nb126  1  0.00881178  0.19940366  0.59723959  1
  Nb  Nb127  1  0.59829298  0.20285564  0.39461445  1
  Nb  Nb128  1  -0.00030279  0.59438708  0.60300715  1
  Nb  Nb129  1  0.00038995  0.79772829  0.39226104  1
  Nb  Nb130  1  0.19631643  0.19669901  0.59484393  1
  Nb  Nb131  1  0.19357043  0.20356476  0.00269239  1
  Nb  Nb132  1  -0.00356957  0.40124719  0.20392117  1
  Nb  Nb133  1  0.40484229  0.80792830  0.19619519  1
  Nb  Nb134  1  0.40433437  0.80181820  0.00576167  1
  Nb  Nb135  1  0.39594680  0.40183151  0.19446242  1
  Nb  Nb136  1  0.60162798  -0.00029313  0.01152799  1
  Nb  Nb137  1  0.40125235  -0.00183609  0.79796479  1
  Nb  Nb138  1  0.40660181  0.40198213  0.80764842  1
  Nb  Nb139  1  0.40120764  0.80155747  0.80447725  1
  Nb  Nb140  1  0.80396361  -0.00167425  0.79574509  1
  Nb  Nb141  1  0.80125397  0.59913850  0.20021525  1
  Nb  Nb142  1  0.20625063  0.59877604  0.80364511  1
  Nb  Nb143  1  -0.00295160  -0.00620329  0.79988049  1
  Nb  Nb144  1  0.19156593  0.80251759  0.39753829  1
  Nb  Nb145  1  0.79940135  0.00098939  0.60090112  1
  Nb  Nb146  1  0.39977529  0.59766678  0.80364050  1
  Nb  Nb147  1  0.00445732  0.80518621  0.80666410  1
  Nb  Nb148  1  0.60072577  0.59604097  0.40943303  1
  Nb  Nb149  1  0.00217382  0.79936412  0.20087622  1
  Pd  Pd150  1  0.38834689  0.80543479  0.38693104  1
  Pd  Pd151  1  0.01206871  0.61289202  0.79366509  1
  Pd  Pd152  1  0.00860297  0.59515390  0.00333421  1
  Pd  Pd153  1  0.60496461  0.59142643  0.00364385  1
  Pd  Pd154  1  0.00405877  0.80512291  0.00668392  1
  Pd  Pd155  1  0.79725247  0.20584279  -0.00081862  1
  Pd  Pd156  1  0.20820901  0.40718154  0.39771675  1
  Pd  Pd157  1  0.20612877  0.59961788  0.40433610  1
  Pd  Pd158  1  0.39717958  -0.00157330  0.20782297  1
  Pd  Pd159  1  -0.01064372  0.00697533  0.60820409  1
  Pd  Pd160  1  0.79906863  0.39143850  0.80620655  1
  Pd  Pd161  1  0.20947344  0.40896506  0.81018290  1
  Pd  Pd162  1  0.59769961  0.78927324  0.40040038  1
  Pd  Pd163  1  -0.00176338  0.60252096  0.41065776  1
  Pd  Pd164  1  0.60282239  -0.00106315  0.80964431  1
  Pd  Pd165  1  0.79206130  0.19836522  0.39843373  1
  Pd  Pd166  1  -0.00485522  0.21174555  0.19362041  1
  Pd  Pd167  1  0.39318748  0.20979280  0.59425871  1
  Pd  Pd168  1  0.79084951  0.00944558  0.40370589  1
  Pd  Pd169  1  0.59617262  0.80622830  -0.00120882  1
  Pd  Pd170  1  0.60304478  0.39886855  0.59532153  1
  Pd  Pd171  1  0.80694731  0.79270891  0.19081977  1
  Pd  Pd172  1  0.59020752  0.79900058  0.58517697  1
  Pd  Pd173  1  0.19860069  0.00778430  0.80505238  1
  Pd  Pd174  1  0.00178946  0.19835276  0.79543078  1
  Pd  Pd175  1  0.59746490  0.80876294  0.80840956  1
  Pd  Pd176  1  0.00212393  0.39922909  0.39341814  1
  Pd  Pd177  1  -0.00608472  0.59524321  0.19213923  1
  Pd  Pd178  1  0.60428108  -0.00362554  0.58915908  1
  Pd  Pd179  1  0.19587547  0.01098156  0.20174527  1
  Pd  Pd180  1  0.19240829  0.39969788  -0.00222786  1
  Pd  Pd181  1  0.20808453  0.38906351  0.59270851  1
  Pd  Pd182  1  0.19819537  0.59190810  0.60249105  1
  Pd  Pd183  1  0.19827161  0.19413454  0.80283790  1
  Pd  Pd184  1  0.79981815  0.79739164  0.00530759  1
  Pd  Pd185  1  -0.00860113  0.78845159  0.59842070  1
  Pd  Pd186  1  0.19317084  0.19502686  0.40330829  1
  Pd  Pd187  1  0.40859679  0.59921336  0.60353143  1
  Pd  Pd188  1  0.81217685  0.40312331  0.20750238  1
  Pd  Pd189  1  0.80447436  0.79079897  0.40139021  1
  Pd  Pd190  1  0.59666466  0.39648933  0.00742914  1
  Pd  Pd191  1  0.40671864  0.81198284  0.60039506  1
  Pd  Pd192  1  0.79261417  0.60405056  0.39054587  1
  Pd  Pd193  1  0.60005677  0.19876077  0.80537665  1
  Pd  Pd194  1  0.19265427  0.01447283  -0.00016626  1
  Pd  Pd195  1  0.60437533  0.00888528  0.20079024  1
  Pd  Pd196  1  0.19157589  0.59400412  -0.00144877  1
  Pd  Pd197  1  0.40500701  -0.00886855  0.60089841  1
  Pd  Pd198  1  0.40335591  0.20652364  0.20528597  1
  Pd  Pd199  1  0.79206247  0.59184579  0.79697701  1
  Rh  Rh200  1  0.78844186  0.00363002  -0.00021329  1
  Rh  Rh201  1  0.00084199  0.40020401  0.00556671  1
  Rh  Rh202  1  0.19675523  -0.00301157  0.39449512  1
  Rh  Rh203  1  0.60019715  0.39675208  0.40288206  1
  Rh  Rh204  1  0.79095921  0.59638420  0.00613607  1
  Rh  Rh205  1  -0.00320911  0.39223561  0.80501192  1
  Rh  Rh206  1  0.39063961  0.20551097  0.00761806  1
  Rh  Rh207  1  0.00091304  -0.00588059  0.38605631  1
  Rh  Rh208  1  0.00515882  0.20295684  0.00520836  1
  Rh  Rh209  1  0.79039555  0.39358890  -0.00179281  1
  Rh  Rh210  1  0.79896163  0.59213660  0.61144859  1
  Rh  Rh211  1  0.39189196  0.00204768  0.39070650  1
  Rh  Rh212  1  0.39580762  0.60108703  0.19753583  1
  Rh  Rh213  1  0.20416140  0.80871991  0.58542526  1
  Rh  Rh214  1  0.19985642  0.40784411  0.20732126  1
  Rh  Rh215  1  0.61024695  0.59920783  0.20918000  1
  Rh  Rh216  1  0.00830006  0.20060212  0.40364113  1
  Rh  Rh217  1  0.80051674  0.39217558  0.39296685  1
  Rh  Rh218  1  0.79675035  0.00650040  0.19998050  1
  Rh  Rh219  1  0.80837830  0.19891298  0.20145988  1
  Rh  Rh220  1  0.00267674  0.39692451  0.60306731  1
  Rh  Rh221  1  0.59328562  0.80153988  0.20875775  1
  Rh  Rh222  1  0.40831825  0.39126566  0.00587820  1
  Rh  Rh223  1  0.40436886  0.60909500  0.00243960  1
  Rh  Rh224  1  0.80453507  0.80500339  0.58791606  1
  Rh  Rh225  1  0.40433153  0.59921170  0.39946001  1
  Rh  Rh226  1  0.40343641  0.19912299  0.79695213  1
  Rh  Rh227  1  0.39430216  0.40338166  0.38628874  1
  Rh  Rh228  1  0.79510739  0.19982323  0.80477945  1
  Rh  Rh229  1  0.60298660  0.19609362  0.00125319  1
  Rh  Rh230  1  0.58487707  0.39596477  0.19048122  1
  Rh  Rh231  1  0.80938856  0.19864868  0.59456316  1
  Rh  Rh232  1  0.20163987  0.00144897  0.58697472  1
  Rh  Rh233  1  0.19673263  0.19498102  0.19467990  1
  Rh  Rh234  1  0.20241988  0.80038372  0.20007119  1
  Rh  Rh235  1  0.20364642  0.59499492  0.19640545  1
  Rh  Rh236  1  0.40687524  0.20181212  0.39177966  1
  Rh  Rh237  1  0.59413281  0.21007999  0.58662306  1
  Rh  Rh238  1  0.60827434  0.01176921  0.39794216  1
  Rh  Rh239  1  0.19682329  0.79536257  0.79652197  1
  Rh  Rh240  1  0.60201138  0.59271671  0.79191856  1
  Rh  Rh241  1  0.79887181  0.39254494  0.60884744  1
  Rh  Rh242  1  0.00656950  0.00309998  -0.00209627  1
  Rh  Rh243  1  0.81060968  0.80498082  0.81066652  1
  Rh  Rh244  1  0.59210082  0.19677660  0.21003690  1
  Rh  Rh245  1  0.00398043  -0.00663604  0.19951670  1
  Rh  Rh246  1  0.59799348  0.39244791  0.80191329  1
  Rh  Rh247  1  0.20440010  0.80637936  0.01462778  1
  Rh  Rh248  1  0.40740109  -0.00502803  -0.00382302  1
  Rh  Rh249  1  0.39541693  0.39462295  0.60571107  1
