# generated using pymatgen
data_ZrScNbPdRh
_symmetry_space_group_name_H-M   'P 1'
_cell_length_a   16.56312330
_cell_length_b   16.55719736
_cell_length_c   16.55889337
_cell_angle_alpha   89.97712711
_cell_angle_beta   89.98228472
_cell_angle_gamma   89.99204127
_symmetry_Int_Tables_number   1
_chemical_formula_structural   ZrScNbPdRh
_chemical_formula_sum   'Zr50 Sc50 Nb50 Pd50 Rh50'
_cell_volume   4541.09210263
_cell_formula_units_Z   50
loop_
 _symmetry_equiv_pos_site_id
 _symmetry_equiv_pos_as_xyz
  1  'x, y, z'
loop_
 _atom_site_type_symbol
 _atom_site_label
 _atom_site_symmetry_multiplicity
 _atom_site_fract_x
 _atom_site_fract_y
 _atom_site_fract_z
 _atom_site_occupancy
  Zr  Zr0  1  0.09808482  0.48366312  0.49865443  1
  Zr  Zr1  1  0.29089136  0.90670447  0.50375802  1
  Zr  Zr2  1  0.89629137  0.70870526  0.50500085  1
  Zr  Zr3  1  0.90407196  0.30609556  0.51046870  1
  Zr  Zr4  1  0.69861795  0.90032670  0.90203040  1
  Zr  Zr5  1  0.30259897  0.10370837  0.30087240  1
  Zr  Zr6  1  0.89748909  0.29282912  0.29680031  1
  Zr  Zr7  1  0.70416024  0.29460386  0.08769651  1
  Zr  Zr8  1  0.70301461  0.28826680  0.89662468  1
  Zr  Zr9  1  0.08718095  0.30852677  0.89824430  1
  Zr  Zr10  1  0.69674031  0.29918090  0.30423286  1
  Zr  Zr11  1  0.09985988  0.50279061  0.30125986  1
  Zr  Zr12  1  0.09133090  0.09806966  0.89191467  1
  Zr  Zr13  1  0.09854150  0.69831648  0.10702534  1
  Zr  Zr14  1  0.90078068  0.90269129  0.90225859  1
  Zr  Zr15  1  0.69469813  0.90123257  0.10149468  1
  Zr  Zr16  1  0.70009546  0.50205770  0.89217638  1
  Zr  Zr17  1  0.70379379  0.50308940  0.10043212  1
  Zr  Zr18  1  0.50586721  0.10120273  0.30074215  1
  Zr  Zr19  1  0.70704960  0.09877884  0.29800937  1
  Zr  Zr20  1  0.50516839  0.30854022  0.69985874  1
  Zr  Zr21  1  0.48904537  0.69122191  0.70645602  1
  Zr  Zr22  1  0.10151260  0.69568253  0.88312675  1
  Zr  Zr23  1  0.90445876  0.70410394  0.29412075  1
  Zr  Zr24  1  0.29785500  0.69849713  0.30832385  1
  Zr  Zr25  1  0.90296073  0.70291785  0.89962805  1
  Zr  Zr26  1  0.69807750  0.10234681  0.70798440  1
  Zr  Zr27  1  0.30316511  0.49459728  0.09401214  1
  Zr  Zr28  1  0.90406384  0.49621587  0.89155816  1
  Zr  Zr29  1  0.70820503  0.49387585  0.50382185  1
  Zr  Zr30  1  0.29409289  0.09172110  0.10214129  1
  Zr  Zr31  1  0.50460218  0.90084930  0.70179776  1
  Zr  Zr32  1  0.29575346  0.10496628  0.89307144  1
  Zr  Zr33  1  0.49525396  0.69048040  0.90739728  1
  Zr  Zr34  1  0.49527904  0.30834027  0.10485986  1
  Zr  Zr35  1  0.89680088  0.10693253  0.89099286  1
  Zr  Zr36  1  0.70579608  0.89896329  0.51055254  1
  Zr  Zr37  1  0.49418707  0.48919174  0.30572485  1
  Zr  Zr38  1  0.28606423  0.10173848  0.69904531  1
  Zr  Zr39  1  0.29539826  0.10470232  0.49946849  1
  Zr  Zr40  1  0.11039261  0.90505629  0.10450988  1
  Zr  Zr41  1  0.09486139  0.90684735  0.69640748  1
  Zr  Zr42  1  0.90108772  0.49992391  0.30241826  1
  Zr  Zr43  1  0.49741121  0.50428678  0.09089963  1
  Zr  Zr44  1  0.90755093  0.91167916  0.30118696  1
  Zr  Zr45  1  0.29758441  0.30360196  0.09962443  1
  Zr  Zr46  1  0.90732925  0.10633076  0.11103417  1
  Zr  Zr47  1  0.49811620  0.88854505  0.10597826  1
  Zr  Zr48  1  0.50025641  0.70600935  0.29977207  1
  Zr  Zr49  1  0.90604669  0.69846854  0.70291526  1
  Sc  Sc50  1  0.70630614  0.69083749  0.70244909  1
  Sc  Sc51  1  0.31055230  0.30307451  0.30324100  1
  Sc  Sc52  1  0.90218309  0.10145755  0.69753686  1
  Sc  Sc53  1  0.09953215  0.31205683  0.30491044  1
  Sc  Sc54  1  0.10564276  0.49694265  0.70371812  1
  Sc  Sc55  1  0.70624518  0.70918878  0.10401268  1
  Sc  Sc56  1  0.89535108  0.09370478  0.50530401  1
  Sc  Sc57  1  0.69432349  0.70099412  0.90196677  1
  Sc  Sc58  1  0.30487288  0.49878014  0.49464999  1
  Sc  Sc59  1  0.10633722  0.09936951  0.50721692  1
  Sc  Sc60  1  0.70437672  0.70523166  0.50099872  1
  Sc  Sc61  1  0.09737428  0.89568748  0.30391869  1
  Sc  Sc62  1  0.10082584  0.29791813  0.50229163  1
  Sc  Sc63  1  0.09855060  0.70696692  0.49357676  1
  Sc  Sc64  1  0.69815179  0.49225401  0.70448295  1
  Sc  Sc65  1  0.90466909  0.90187433  0.50360669  1
  Sc  Sc66  1  0.29224910  0.88722434  0.90201540  1
  Sc  Sc67  1  0.90580266  0.50730777  0.10915312  1
  Sc  Sc68  1  0.70075301  0.29673156  0.50591230  1
  Sc  Sc69  1  0.10399192  0.49125516  0.10191511  1
  Sc  Sc70  1  0.90098754  0.29392990  0.70150998  1
  Sc  Sc71  1  0.30555774  0.70992118  0.08842481  1
  Sc  Sc72  1  0.29754267  0.89473842  0.70529776  1
  Sc  Sc73  1  0.49332265  0.70204959  0.50528858  1
  Sc  Sc74  1  0.29621687  0.69421941  0.70334265  1
  Sc  Sc75  1  0.70656813  0.49988632  0.30119577  1
  Sc  Sc76  1  0.90101164  0.89444713  0.10005576  1
  Sc  Sc77  1  0.89916965  0.70471815  0.10621116  1
  Sc  Sc78  1  0.50479938  0.30526892  0.49548296  1
  Sc  Sc79  1  0.50011053  0.30136815  0.89077979  1
  Sc  Sc80  1  0.09888944  0.70781358  0.30024345  1
  Sc  Sc81  1  0.70815113  0.70530609  0.29855529  1
  Sc  Sc82  1  0.69534330  0.89969788  0.29733560  1
  Sc  Sc83  1  0.51151667  0.10192778  0.49858876  1
  Sc  Sc84  1  0.30097980  0.30280543  0.70982184  1
  Sc  Sc85  1  0.09527264  0.89933618  0.89850367  1
  Sc  Sc86  1  0.51363926  0.89842555  0.50783920  1
  Sc  Sc87  1  0.50431937  0.09608781  0.10028936  1
  Sc  Sc88  1  0.29075108  0.90286823  0.28414673  1
  Sc  Sc89  1  0.09274412  0.08725113  0.29662180  1
  Sc  Sc90  1  0.89919186  0.90527235  0.68969349  1
  Sc  Sc91  1  0.69536667  0.90515956  0.70057571  1
  Sc  Sc92  1  0.89269258  0.49639517  0.69780537  1
  Sc  Sc93  1  0.70115363  0.10146281  0.50419713  1
  Sc  Sc94  1  0.30406762  0.69146998  0.50421431  1
  Sc  Sc95  1  0.29764310  0.69348616  0.89514226  1
  Sc  Sc96  1  0.30471004  0.49967523  0.69737987  1
  Sc  Sc97  1  0.29337656  0.29901563  0.49543729  1
  Sc  Sc98  1  0.51552395  0.10707881  0.89770117  1
  Sc  Sc99  1  0.50782551  0.88790639  0.89997596  1
  Nb  Nb100  1  0.50055054  0.49558365  0.70345074  1
  Nb  Nb101  1  0.50100208  0.90094127  0.29959404  1
  Nb  Nb102  1  0.89714441  0.29779166  0.90795692  1
  Nb  Nb103  1  0.09920958  0.69891079  0.69657354  1
  Nb  Nb104  1  0.50316199  0.29847103  0.29757557  1
  Nb  Nb105  1  0.50107073  0.50356261  0.88973835  1
  Nb  Nb106  1  0.49772781  0.50245354  0.50520631  1
  Nb  Nb107  1  0.09473724  0.29197847  0.09757394  1
  Nb  Nb108  1  0.09280310  0.90229960  0.50084429  1
  Nb  Nb109  1  0.90159748  0.09859396  0.30437092  1
  Nb  Nb110  1  0.30194532  0.50385506  0.30430100  1
  Nb  Nb111  1  0.29947320  0.30058391  0.90214871  1
  Nb  Nb112  1  0.29491344  0.49437463  0.89743285  1
  Nb  Nb113  1  0.69527835  0.10195841  0.09205567  1
  Nb  Nb114  1  0.70057028  0.10461029  0.90711956  1
  Nb  Nb115  1  0.09292967  0.29127126  0.68976939  1
  Nb  Nb116  1  0.90250176  0.49979412  0.50198956  1
  Nb  Nb117  1  0.10310489  0.50602874  0.89838501  1
  Nb  Nb118  1  0.30138970  0.90279977  0.09347387  1
  Nb  Nb119  1  0.49751777  0.69697625  0.09924867  1
  Nb  Nb120  1  0.70066677  0.29955197  0.69577148  1
  Nb  Nb121  1  0.49904472  0.09764631  0.70123281  1
  Nb  Nb122  1  0.09589927  0.10737094  0.69830708  1
  Nb  Nb123  1  0.10067913  0.10456321  0.09464964  1
  Nb  Nb124  1  0.90723520  0.29849535  0.09180849  1
  Nb  Nb125  1  -0.00665595  0.59776961  0.40634599  1
  Nb  Nb126  1  0.79589898  0.00989076  0.00166235  1
  Nb  Nb127  1  0.00391087  0.59845610  -0.00704643  1
  Nb  Nb128  1  0.40305106  -0.00491040  0.40065223  1
  Nb  Nb129  1  0.80263833  0.80236387  0.80213291  1
  Nb  Nb130  1  0.39980106  0.59986454  0.20034066  1
  Nb  Nb131  1  0.59421215  0.59141385  0.59888537  1
  Nb  Nb132  1  0.60073281  0.40471350  -0.00690175  1
  Nb  Nb133  1  0.40042882  0.00534931  0.60207029  1
  Nb  Nb134  1  -0.00651864  0.19500830  0.39807048  1
  Nb  Nb135  1  0.59746757  0.59696194  0.40367952  1
  Nb  Nb136  1  0.39765035  -0.00176156  -0.00494715  1
  Nb  Nb137  1  0.19224097  0.80090556  0.60044500  1
  Nb  Nb138  1  0.00150277  0.59733841  0.59536002  1
  Nb  Nb139  1  0.80798842  0.60048303  -0.00318633  1
  Nb  Nb140  1  0.21009342  0.59835763  0.20192797  1
  Nb  Nb141  1  0.39299011  0.19807177  -0.00294356  1
  Nb  Nb142  1  0.19416474  0.20120800  0.19443428  1
  Nb  Nb143  1  0.40205569  0.19545471  0.60498547  1
  Nb  Nb144  1  0.60201968  0.20302610  0.19956297  1
  Nb  Nb145  1  0.40041256  0.81328227  0.39770050  1
  Nb  Nb146  1  0.59298239  0.60144496  0.20293550  1
  Nb  Nb147  1  0.40279224  0.00272928  0.80128880  1
  Nb  Nb148  1  0.19597477  0.20375604  -0.00063773  1
  Nb  Nb149  1  0.80372931  0.39156136  0.19422272  1
  Pd  Pd150  1  0.19813371  0.60223152  0.00499053  1
  Pd  Pd151  1  0.40786455  0.39715974  -0.01406269  1
  Pd  Pd152  1  0.60166584  0.40403333  0.40648012  1
  Pd  Pd153  1  0.00986036  0.79531423  0.00375891  1
  Pd  Pd154  1  -0.00103358  0.39913408  0.78948622  1
  Pd  Pd155  1  0.40440295  -0.00176919  0.20017338  1
  Pd  Pd156  1  0.80056376  0.38929773  0.79629850  1
  Pd  Pd157  1  0.19274822  0.79399452  -0.00246604  1
  Pd  Pd158  1  0.79927317  0.59784021  0.60209317  1
  Pd  Pd159  1  0.18788078  0.21375910  0.80288740  1
  Pd  Pd160  1  0.79763783  -0.00442124  0.40511513  1
  Pd  Pd161  1  -0.00396643  0.39691711  0.19686118  1
  Pd  Pd162  1  0.20128172  0.00224765  -0.01088009  1
  Pd  Pd163  1  0.20112813  -0.00906814  0.80322189  1
  Pd  Pd164  1  0.60658401  0.79001786  0.79242537  1
  Pd  Pd165  1  0.60275262  -0.00336803  0.40256817  1
  Pd  Pd166  1  0.79807395  -0.00346963  0.80190635  1
  Pd  Pd167  1  0.20444029  0.39851388  0.20730520  1
  Pd  Pd168  1  0.60827317  0.40058300  0.19380969  1
  Pd  Pd169  1  0.60998194  0.60251672  0.00501886  1
  Pd  Pd170  1  0.79883730  0.60532334  0.40091053  1
  Pd  Pd171  1  0.01057825  0.20196502  0.21149862  1
  Pd  Pd172  1  0.19831065  -0.00051217  0.39302321  1
  Pd  Pd173  1  0.40817389  0.19886035  0.40962021  1
  Pd  Pd174  1  -0.00374020  0.81048221  0.79328870  1
  Pd  Pd175  1  0.80425741  0.20004304  0.41267700  1
  Pd  Pd176  1  0.19316357  0.60184015  0.59514712  1
  Pd  Pd177  1  0.20514297  0.80409485  0.40678086  1
  Pd  Pd178  1  0.60402001  0.78405001  0.60976276  1
  Pd  Pd179  1  0.79483135  0.20244464  0.19402193  1
  Pd  Pd180  1  0.39855273  0.80319895  0.80565904  1
  Pd  Pd181  1  0.19707580  0.39668984  0.79623171  1
  Pd  Pd182  1  -0.00796949  0.00318792  0.00525105  1
  Pd  Pd183  1  0.18570582  0.19948674  0.38641568  1
  Pd  Pd184  1  0.39081054  0.80709008  0.59558948  1
  Pd  Pd185  1  0.39532736  0.39187627  0.59490452  1
  Pd  Pd186  1  0.59830703  0.79564889  0.40380561  1
  Pd  Pd187  1  0.59425850  -0.00432563  -0.00356972  1
  Pd  Pd188  1  0.59597359  0.20039805  0.60338005  1
  Pd  Pd189  1  0.19269691  0.39567595  -0.00482268  1
  Pd  Pd190  1  0.80510435  0.81082071  0.39533743  1
  Pd  Pd191  1  0.80393084  0.39388135  0.39842294  1
  Pd  Pd192  1  -0.00157262  0.41005191  0.00493424  1
  Pd  Pd193  1  0.80019379  -0.00183318  0.19247161  1
  Pd  Pd194  1  0.20701459  0.39502413  0.60412473  1
  Pd  Pd195  1  0.40095097  0.19796099  0.19317892  1
  Pd  Pd196  1  0.39092386  0.79596293  0.20345103  1
  Pd  Pd197  1  0.40522515  0.19729690  0.79854131  1
  Pd  Pd198  1  0.80178034  0.40798296  0.00189414  1
  Pd  Pd199  1  0.19034740  0.59848143  0.40463589  1
  Rh  Rh200  1  -0.00591959  0.79890751  0.40010446  1
  Rh  Rh201  1  0.79995255  0.39630224  0.60557835  1
  Rh  Rh202  1  0.40337612  0.80536478  -0.00591728  1
  Rh  Rh203  1  0.00613783  0.79488388  0.59808014  1
  Rh  Rh204  1  0.40302239  0.59405024  0.60379557  1
  Rh  Rh205  1  0.60362358  0.40531085  0.59913293  1
  Rh  Rh206  1  0.80345776  0.81077461  0.20617196  1
  Rh  Rh207  1  0.20461424  0.79409855  0.19314759  1
  Rh  Rh208  1  0.80054784  0.60769268  0.80683147  1
  Rh  Rh209  1  0.60215978  0.79442147  0.19949824  1
  Rh  Rh210  1  0.79936315  0.19931520  0.60449121  1
  Rh  Rh211  1  0.00156215  0.80937957  0.19931557  1
  Rh  Rh212  1  0.00210092  0.00664412  0.40975464  1
  Rh  Rh213  1  0.39342857  0.40629921  0.20658189  1
  Rh  Rh214  1  -0.00655507  0.39575966  0.40130646  1
  Rh  Rh215  1  0.81325755  0.19151211  0.00479918  1
  Rh  Rh216  1  0.19622605  -0.00382944  0.60494398  1
  Rh  Rh217  1  0.60236009  0.20044709  0.39496054  1
  Rh  Rh218  1  0.39244155  0.59046541  0.80479810  1
  Rh  Rh219  1  0.59828211  0.79190800  0.00712567  1
  Rh  Rh220  1  0.60125869  0.00633030  0.20051643  1
  Rh  Rh221  1  -0.00317169  0.00108809  0.79236408  1
  Rh  Rh222  1  0.20434505  0.59319044  0.79511829  1
  Rh  Rh223  1  0.01091539  0.60114110  0.20400269  1
  Rh  Rh224  1  0.59781124  0.00357192  0.80538087  1
  Rh  Rh225  1  0.20471570  0.20993920  0.60482562  1
  Rh  Rh226  1  0.80049717  0.20369322  0.79464929  1
  Rh  Rh227  1  -0.00087359  0.19623250  -0.00804074  1
  Rh  Rh228  1  0.79607667  0.80310875  0.61308172  1
  Rh  Rh229  1  0.79698518  0.80213463  -0.00609818  1
  Rh  Rh230  1  0.40023609  0.39533584  0.40450505  1
  Rh  Rh231  1  0.19439624  0.00517573  0.20267927  1
  Rh  Rh232  1  0.79380939  0.59789428  0.19640494  1
  Rh  Rh233  1  0.20828182  0.40132896  0.39795792  1
  Rh  Rh234  1  0.39020048  0.59580020  -0.00509365  1
  Rh  Rh235  1  0.39686121  0.40583867  0.80398234  1
  Rh  Rh236  1  0.60025472  0.00529107  0.60092707  1
  Rh  Rh237  1  0.58445501  0.21107485  0.00796843  1
  Rh  Rh238  1  0.59806803  0.60087119  0.79011865  1
  Rh  Rh239  1  0.19455594  0.79913063  0.79023999  1
  Rh  Rh240  1  0.00374070  -0.00299141  0.19384377  1
  Rh  Rh241  1  0.00282571  0.58997303  0.79283242  1
  Rh  Rh242  1  0.60211158  0.20309512  0.79272405  1
  Rh  Rh243  1  -0.00074984  0.20629906  0.79890930  1
  Rh  Rh244  1  -0.00026682  0.19483553  0.59116311  1
  Rh  Rh245  1  0.79522435  0.00233526  0.60280674  1
  Rh  Rh246  1  0.60418892  0.39528988  0.80447921  1
  Rh  Rh247  1  0.00076732  0.40499136  0.60908298  1
  Rh  Rh248  1  0.00450908  0.00923122  0.59839696  1
  Rh  Rh249  1  0.40897981  0.60592182  0.39767297  1
