# generated using pymatgen
data_ZrScNbPdRh
_symmetry_space_group_name_H-M   'P 1'
_cell_length_a   16.55210307
_cell_length_b   16.55440231
_cell_length_c   16.55421577
_cell_angle_alpha   90.00037003
_cell_angle_beta   90.00444109
_cell_angle_gamma   90.00217224
_symmetry_Int_Tables_number   1
_chemical_formula_structural   ZrScNbPdRh
_chemical_formula_sum   'Zr50 Sc50 Nb50 Pd50 Rh50'
_cell_volume   4536.02351370
_cell_formula_units_Z   50
loop_
 _symmetry_equiv_pos_site_id
 _symmetry_equiv_pos_as_xyz
  1  'x, y, z'
loop_
 _atom_site_type_symbol
 _atom_site_label
 _atom_site_symmetry_multiplicity
 _atom_site_fract_x
 _atom_site_fract_y
 _atom_site_fract_z
 _atom_site_occupancy
  Zr  Zr0  1  0.49778002  0.90101041  0.89742439  1
  Zr  Zr1  1  0.09583355  0.09363808  0.09787389  1
  Zr  Zr2  1  0.69825901  0.69666683  0.70008695  1
  Zr  Zr3  1  0.30687920  0.70517517  0.09961488  1
  Zr  Zr4  1  0.69553830  0.90593822  0.10922812  1
  Zr  Zr5  1  0.09786589  0.30268372  0.29338577  1
  Zr  Zr6  1  0.68946646  0.89822438  0.69676962  1
  Zr  Zr7  1  0.09786255  0.90071703  0.89649796  1
  Zr  Zr8  1  0.69889430  0.70134952  0.10667900  1
  Zr  Zr9  1  0.70102825  0.50042007  0.68754456  1
  Zr  Zr10  1  0.30182065  0.30025559  0.90266616  1
  Zr  Zr11  1  0.30163361  0.89019367  0.89824554  1
  Zr  Zr12  1  0.29613509  0.51002221  0.69882629  1
  Zr  Zr13  1  0.90593250  0.09806991  0.69304976  1
  Zr  Zr14  1  0.29871819  0.69706145  0.89056838  1
  Zr  Zr15  1  0.70795546  0.30383668  0.49465552  1
  Zr  Zr16  1  0.50324751  0.10280928  0.09595751  1
  Zr  Zr17  1  0.49274194  0.89723874  0.10688846  1
  Zr  Zr18  1  0.30280746  0.69311383  0.49578041  1
  Zr  Zr19  1  0.09749007  0.50602610  0.69796762  1
  Zr  Zr20  1  0.88990274  0.29857479  0.30502234  1
  Zr  Zr21  1  0.10690556  0.90451388  0.30310828  1
  Zr  Zr22  1  0.29782688  0.50172185  0.49811077  1
  Zr  Zr23  1  0.09988250  0.29684150  0.50250465  1
  Zr  Zr24  1  0.10932034  0.49813440  0.29422072  1
  Zr  Zr25  1  0.89712245  0.29973930  0.69706841  1
  Zr  Zr26  1  0.49588510  0.89950313  0.69341021  1
  Zr  Zr27  1  0.50832849  0.10474250  0.69389492  1
  Zr  Zr28  1  0.30234780  0.90377970  0.29862037  1
  Zr  Zr29  1  0.70759053  0.91146688  0.30717963  1
  Zr  Zr30  1  0.68975475  0.09802633  0.89295133  1
  Zr  Zr31  1  0.29644519  0.50348524  0.89434855  1
  Zr  Zr32  1  0.70639653  0.69261233  0.30006849  1
  Zr  Zr33  1  0.09993508  0.09226360  0.89507084  1
  Zr  Zr34  1  0.70200061  0.09472150  0.69491858  1
  Zr  Zr35  1  0.29967394  0.29491945  0.49801504  1
  Zr  Zr36  1  0.89795244  0.29880857  0.89817098  1
  Zr  Zr37  1  0.09578860  0.29846986  0.70148602  1
  Zr  Zr38  1  0.89794785  0.08081567  0.89641260  1
  Zr  Zr39  1  0.10067155  0.49063738  0.10063976  1
  Zr  Zr40  1  0.70453504  0.49761407  0.31011886  1
  Zr  Zr41  1  0.89667448  0.29587205  0.10309895  1
  Zr  Zr42  1  0.30138796  0.09189506  0.69516860  1
  Zr  Zr43  1  0.69448445  0.29901256  0.09992538  1
  Zr  Zr44  1  0.48903632  0.70424789  0.90060240  1
  Zr  Zr45  1  0.11077265  0.90025964  0.10642014  1
  Zr  Zr46  1  0.90047136  0.50988385  0.29738703  1
  Zr  Zr47  1  0.90345788  0.70148189  0.09959532  1
  Zr  Zr48  1  0.69734943  0.90119465  0.49886915  1
  Zr  Zr49  1  0.70578826  0.90377344  0.89634595  1
  Sc  Sc50  1  0.29491434  0.50676703  0.10299615  1
  Sc  Sc51  1  0.10129400  0.30169182  0.10278110  1
  Sc  Sc52  1  0.70016114  0.10084020  0.10289086  1
  Sc  Sc53  1  0.49957568  0.30453323  0.91185375  1
  Sc  Sc54  1  0.09475012  0.49984440  0.90420820  1
  Sc  Sc55  1  0.09802589  0.89925002  0.50871798  1
  Sc  Sc56  1  0.29261011  0.30160938  0.09384724  1
  Sc  Sc57  1  0.90982494  0.70259302  0.49681746  1
  Sc  Sc58  1  0.70369984  0.49025936  0.90433449  1
  Sc  Sc59  1  0.10198324  0.90255104  0.69626674  1
  Sc  Sc60  1  0.69475348  0.29320248  0.68824673  1
  Sc  Sc61  1  0.49981026  0.69914031  0.29839792  1
  Sc  Sc62  1  0.29995992  0.10411208  0.09052090  1
  Sc  Sc63  1  0.09673708  0.70073252  0.50414873  1
  Sc  Sc64  1  0.10643778  0.50627597  0.50132077  1
  Sc  Sc65  1  0.50257454  0.70516038  0.70138600  1
  Sc  Sc66  1  0.90130398  0.91041439  0.09318433  1
  Sc  Sc67  1  0.50369986  0.90747401  0.30100990  1
  Sc  Sc68  1  0.50101254  0.51080848  0.29862242  1
  Sc  Sc69  1  0.90140990  0.89523794  0.49863681  1
  Sc  Sc70  1  0.10790314  0.69675670  0.10270493  1
  Sc  Sc71  1  0.90184614  0.48913304  0.89864752  1
  Sc  Sc72  1  0.70509916  0.50438998  0.10944611  1
  Sc  Sc73  1  0.50685224  0.28831452  0.50147977  1
  Sc  Sc74  1  0.69901785  0.29830683  0.90497740  1
  Sc  Sc75  1  0.10195583  0.09742049  0.29308122  1
  Sc  Sc76  1  0.69920249  0.09936751  0.29987956  1
  Sc  Sc77  1  0.09129962  0.30766455  0.90320137  1
  Sc  Sc78  1  0.30452072  0.09289049  0.50172620  1
  Sc  Sc79  1  0.50322203  0.09874140  0.30455087  1
  Sc  Sc80  1  0.90592471  0.89963242  0.69904296  1
  Sc  Sc81  1  0.10358368  0.69841594  0.30591653  1
  Sc  Sc82  1  0.50807809  0.28829423  0.31105452  1
  Sc  Sc83  1  0.48971753  0.49540936  0.90353748  1
  Sc  Sc84  1  0.29757284  0.30039975  0.69151697  1
  Sc  Sc85  1  0.89165378  0.09940691  0.29625699  1
  Sc  Sc86  1  0.70502870  0.71226739  0.89288342  1
  Sc  Sc87  1  0.50462631  0.90119750  0.49308474  1
  Sc  Sc88  1  0.89513157  0.50715080  0.50638724  1
  Sc  Sc89  1  0.50643621  0.51213787  0.50042349  1
  Sc  Sc90  1  0.29393517  0.29821127  0.29973809  1
  Sc  Sc91  1  0.89014105  0.50027119  0.69858874  1
  Sc  Sc92  1  0.10043347  0.70544908  0.89939333  1
  Sc  Sc93  1  0.30219905  0.09381160  0.90168644  1
  Sc  Sc94  1  0.30226749  0.68904698  0.29617088  1
  Sc  Sc95  1  0.49408066  0.50254431  0.70075209  1
  Sc  Sc96  1  0.30653922  0.09624338  0.31139858  1
  Sc  Sc97  1  0.90874717  0.50021534  0.10189302  1
  Sc  Sc98  1  0.29404019  0.90221784  0.69812447  1
  Sc  Sc99  1  0.10168354  0.70421087  0.69483992  1
  Nb  Nb100  1  0.69962835  0.50701273  0.50591298  1
  Nb  Nb101  1  0.09979263  0.09282139  0.69766687  1
  Nb  Nb102  1  0.90554730  0.70759924  0.30276896  1
  Nb  Nb103  1  0.30300429  0.50063251  0.30300164  1
  Nb  Nb104  1  0.09249385  0.09793205  0.50411788  1
  Nb  Nb105  1  0.50308722  0.69411516  0.10292210  1
  Nb  Nb106  1  0.90334427  0.29036130  0.50090382  1
  Nb  Nb107  1  0.50439096  0.29703237  0.70074387  1
  Nb  Nb108  1  0.49964096  0.30430804  0.10266163  1
  Nb  Nb109  1  0.90043448  0.89698235  0.31063864  1
  Nb  Nb110  1  0.89506142  0.69735254  0.69795103  1
  Nb  Nb111  1  0.90187746  0.09876408  0.09797621  1
  Nb  Nb112  1  0.29963666  0.90497148  0.49592058  1
  Nb  Nb113  1  0.29739674  0.69788920  0.70268568  1
  Nb  Nb114  1  0.49576096  0.10471550  0.89791544  1
  Nb  Nb115  1  0.70707725  0.09593267  0.50253268  1
  Nb  Nb116  1  0.90093044  0.89276759  0.89877918  1
  Nb  Nb117  1  0.90008784  0.10978802  0.49954341  1
  Nb  Nb118  1  0.50193239  0.70509237  0.50016346  1
  Nb  Nb119  1  0.49869285  0.09831251  0.49705711  1
  Nb  Nb120  1  0.50806902  0.49771424  0.10179864  1
  Nb  Nb121  1  0.68762083  0.69378813  0.50752705  1
  Nb  Nb122  1  0.69841216  0.30283670  0.29998003  1
  Nb  Nb123  1  0.29841876  0.89288663  0.10493889  1
  Nb  Nb124  1  0.89877690  0.71226272  0.89789263  1
  Nb  Nb125  1  -0.00287315  0.80407743  0.20710832  1
  Nb  Nb126  1  0.20042372  0.39820684  0.79826957  1
  Nb  Nb127  1  -0.00343968  0.39801120  0.40351726  1
  Nb  Nb128  1  0.40530586  0.39892775  0.20396428  1
  Nb  Nb129  1  0.40373568  0.20045997  0.79895078  1
  Nb  Nb130  1  0.60141504  0.60467653  -0.00048379  1
  Nb  Nb131  1  0.19271686  0.19451904  0.40528839  1
  Nb  Nb132  1  0.40037962  0.40221038  0.39954929  1
  Nb  Nb133  1  0.40106246  0.39883286  0.59443144  1
  Nb  Nb134  1  0.80233257  0.60811750  -0.00430026  1
  Nb  Nb135  1  -0.01237937  0.61001936  0.80077265  1
  Nb  Nb136  1  -0.00709491  0.19096985  0.00093879  1
  Nb  Nb137  1  0.79970478  0.19310491  0.79744198  1
  Nb  Nb138  1  -0.00245650  0.39549487  0.59434825  1
  Nb  Nb139  1  0.20765502  0.80527370  0.40265682  1
  Nb  Nb140  1  0.39551771  0.79808847  0.59136217  1
  Nb  Nb141  1  0.59545118  0.79806599  0.00497236  1
  Nb  Nb142  1  0.79365507  0.79299172  0.59872638  1
  Nb  Nb143  1  0.80878287  0.80405669  0.20856148  1
  Nb  Nb144  1  -0.00249711  0.00588205  0.40385682  1
  Nb  Nb145  1  0.60131542  0.59523269  0.80650621  1
  Nb  Nb146  1  0.59821104  0.39544184  0.20484530  1
  Nb  Nb147  1  0.20118106  0.19890728  0.79728455  1
  Nb  Nb148  1  0.59611901  0.39942323  0.79456997  1
  Nb  Nb149  1  0.40574420  0.20727196  0.19573319  1
  Pd  Pd150  1  0.79396731  0.79045617  0.40698460  1
  Pd  Pd151  1  0.19866185  0.39503603  0.39836925  1
  Pd  Pd152  1  0.20775466  0.79838019  0.59477576  1
  Pd  Pd153  1  -0.00143518  0.19341596  0.80549890  1
  Pd  Pd154  1  0.59225546  -0.00202024  0.79685148  1
  Pd  Pd155  1  0.60395738  0.80267983  0.20838287  1
  Pd  Pd156  1  0.79912694  0.59611727  0.81089050  1
  Pd  Pd157  1  -0.00251055  0.19885730  0.19767692  1
  Pd  Pd158  1  0.60384045  0.79810171  0.39231458  1
  Pd  Pd159  1  0.18689519  0.20159413  -0.00904811  1
  Pd  Pd160  1  0.80229561  0.18885398  -0.00816393  1
  Pd  Pd161  1  0.59158040  0.40467819  0.40051181  1
  Pd  Pd162  1  0.19726590  0.18907842  0.60000813  1
  Pd  Pd163  1  0.59738002  -0.00523182  0.00148444  1
  Pd  Pd164  1  0.00871287  0.60746819  0.20231355  1
  Pd  Pd165  1  0.80215806  0.40863673  0.00999205  1
  Pd  Pd166  1  0.79426470  0.80217508  0.00963980  1
  Pd  Pd167  1  0.61126587  0.19137959  0.40603360  1
  Pd  Pd168  1  0.39139966  0.40755341  0.01143317  1
  Pd  Pd169  1  0.00363434  0.19575083  0.38939397  1
  Pd  Pd170  1  0.20798783  -0.00614027  -0.00067582  1
  Pd  Pd171  1  0.39896780  0.39242523  0.78985139  1
  Pd  Pd172  1  0.40066456  0.79554258  0.20989637  1
  Pd  Pd173  1  0.80276902  0.60764147  0.41020526  1
  Pd  Pd174  1  -0.00640099  0.60209438  -0.01027920  1
  Pd  Pd175  1  0.78562954  0.38896568  0.79334467  1
  Pd  Pd176  1  0.19773004  0.60207275  -0.00237925  1
  Pd  Pd177  1  0.00464513  0.79808008  0.79180563  1
  Pd  Pd178  1  0.39736679  0.01226486  0.19708977  1
  Pd  Pd179  1  0.80768322  -0.01002781  0.59595324  1
  Pd  Pd180  1  0.21417858  0.01184997  0.19737192  1
  Pd  Pd181  1  0.00758800  0.80617191  0.00941669  1
  Pd  Pd182  1  0.19908383  0.79675336  -0.00147056  1
  Pd  Pd183  1  0.80183966  0.80939121  0.78721139  1
  Pd  Pd184  1  0.21064782  0.19193695  0.20455130  1
  Pd  Pd185  1  0.40225113  0.20245050  0.60257704  1
  Pd  Pd186  1  0.79294881  0.19581529  0.20277442  1
  Pd  Pd187  1  0.00645688  0.59261807  0.40066107  1
  Pd  Pd188  1  0.59746648  0.20143939  -0.00274841  1
  Pd  Pd189  1  0.40181686  0.00445081  0.79813431  1
  Pd  Pd190  1  0.80920060  0.40609947  0.40893843  1
  Pd  Pd191  1  0.79805085  0.40174481  0.19742277  1
  Pd  Pd192  1  0.39774594  0.80129084  0.39815947  1
  Pd  Pd193  1  0.40665676  0.60461868  0.60224887  1
  Pd  Pd194  1  -0.00810079  -0.00641147  0.20825227  1
  Pd  Pd195  1  0.59104600  0.40207645  0.59778247  1
  Pd  Pd196  1  0.39490528  -0.00477582  0.00381093  1
  Pd  Pd197  1  0.59798337  0.60292760  0.39769187  1
  Pd  Pd198  1  0.40270536  0.59345153  0.00685687  1
  Pd  Pd199  1  0.79388903  0.00266888  0.00308547  1
  Rh  Rh200  1  0.80497889  -0.00359801  0.19999253  1
  Rh  Rh201  1  0.40738101  -0.00130775  0.40350120  1
  Rh  Rh202  1  0.20020183  0.40848356  0.60803033  1
  Rh  Rh203  1  0.19825929  0.60574618  0.39906315  1
  Rh  Rh204  1  0.59650336  0.79940753  0.59520343  1
  Rh  Rh205  1  0.59684986  0.20380637  0.20112033  1
  Rh  Rh206  1  0.00287796  0.20124684  0.60432591  1
  Rh  Rh207  1  0.40425522  0.20148588  -0.00093722  1
  Rh  Rh208  1  0.80261051  0.61118271  0.59038830  1
  Rh  Rh209  1  0.19004958  0.00158022  0.40966534  1
  Rh  Rh210  1  0.19760858  0.00146653  0.59624921  1
  Rh  Rh211  1  0.18530099  0.59934562  0.80339503  1
  Rh  Rh212  1  0.19988822  0.80074587  0.79573086  1
  Rh  Rh213  1  0.00223896  -0.00438763  -0.00151804  1
  Rh  Rh214  1  0.40046507  0.59543598  0.19590087  1
  Rh  Rh215  1  0.80763337  0.60581362  0.19664792  1
  Rh  Rh216  1  0.00003250  -0.00929951  0.79556720  1
  Rh  Rh217  1  -0.00409963  0.38898815  0.00791427  1
  Rh  Rh218  1  0.19902643  0.79452523  0.20947106  1
  Rh  Rh219  1  0.19776811  0.60820039  0.59760314  1
  Rh  Rh220  1  0.59494364  0.00568475  0.59096478  1
  Rh  Rh221  1  0.21092025  0.40189668  0.19647094  1
  Rh  Rh222  1  0.79338268  0.19580414  0.39961335  1
  Rh  Rh223  1  0.40519192  -0.00833969  0.59216848  1
  Rh  Rh224  1  0.60144341  0.00696171  0.40472893  1
  Rh  Rh225  1  -0.00785918  0.39811859  0.20693011  1
  Rh  Rh226  1  0.20071700  0.40351642  -0.00557090  1
  Rh  Rh227  1  0.40586320  0.59635546  0.39871023  1
  Rh  Rh228  1  0.59558814  0.79752883  0.80923473  1
  Rh  Rh229  1  0.80492301  0.39661179  0.59234618  1
  Rh  Rh230  1  0.80196872  -0.00371142  0.79251031  1
  Rh  Rh231  1  0.20116350  0.59947379  0.19982844  1
  Rh  Rh232  1  0.59256221  0.60105001  0.60909620  1
  Rh  Rh233  1  0.40683577  0.60619395  0.79529154  1
  Rh  Rh234  1  0.60669004  0.19456719  0.58886769  1
  Rh  Rh235  1  0.39295560  0.80069143  0.78478577  1
  Rh  Rh236  1  0.40258982  0.80263811  0.00602607  1
  Rh  Rh237  1  0.59777552  0.21119610  0.80812257  1
  Rh  Rh238  1  0.60358522  0.40734600  0.00369813  1
  Rh  Rh239  1  0.00342247  0.41442942  0.79042969  1
  Rh  Rh240  1  0.01410362  0.80923337  0.39798426  1
  Rh  Rh241  1  0.20091835  0.00074408  0.79856286  1
  Rh  Rh242  1  -0.00330975  -0.00068761  0.59337916  1
  Rh  Rh243  1  -0.00857968  0.79695093  0.60380596  1
  Rh  Rh244  1  -0.00441302  0.59687714  0.60728724  1
  Rh  Rh245  1  0.79637437  0.19948229  0.60117021  1
  Rh  Rh246  1  0.60110242  0.59234895  0.20004058  1
  Rh  Rh247  1  0.80882760  0.00878313  0.40740975  1
  Rh  Rh248  1  0.59733625  0.00591821  0.20308730  1
  Rh  Rh249  1  0.39338300  0.20340304  0.39490962  1
