# generated using pymatgen
data_ZrScNbPdRh
_symmetry_space_group_name_H-M   'P 1'
_cell_length_a   16.55740115
_cell_length_b   16.56234362
_cell_length_c   16.55956834
_cell_angle_alpha   90.00780180
_cell_angle_beta   90.01521884
_cell_angle_gamma   90.02204641
_symmetry_Int_Tables_number   1
_chemical_formula_structural   ZrScNbPdRh
_chemical_formula_sum   'Zr50 Sc50 Nb50 Pd50 Rh50'
_cell_volume   4541.11940993
_cell_formula_units_Z   50
loop_
 _symmetry_equiv_pos_site_id
 _symmetry_equiv_pos_as_xyz
  1  'x, y, z'
loop_
 _atom_site_type_symbol
 _atom_site_label
 _atom_site_symmetry_multiplicity
 _atom_site_fract_x
 _atom_site_fract_y
 _atom_site_fract_z
 _atom_site_occupancy
  Zr  Zr0  1  0.70716902  0.70424037  0.08744689  1
  Zr  Zr1  1  0.30323836  0.69742364  0.09076386  1
  Zr  Zr2  1  0.11302308  0.89898146  0.49909702  1
  Zr  Zr3  1  0.90295289  0.91637634  0.89574936  1
  Zr  Zr4  1  0.89288557  0.89842479  0.69809485  1
  Zr  Zr5  1  0.30469430  0.89587174  0.50393938  1
  Zr  Zr6  1  0.50568571  0.09955372  0.90076180  1
  Zr  Zr7  1  0.30491917  0.10650835  0.89322124  1
  Zr  Zr8  1  0.50093882  0.89834590  0.10315142  1
  Zr  Zr9  1  0.49676390  0.69500457  0.69737055  1
  Zr  Zr10  1  0.10193659  0.09886511  0.50284379  1
  Zr  Zr11  1  0.69680481  0.90015521  0.50827295  1
  Zr  Zr12  1  0.49583454  0.30851492  0.69200887  1
  Zr  Zr13  1  0.30608129  0.49810256  0.09945129  1
  Zr  Zr14  1  0.29892157  0.70148719  0.69120392  1
  Zr  Zr15  1  0.29642644  0.50296920  0.90295531  1
  Zr  Zr16  1  0.69929000  0.29726519  0.50615735  1
  Zr  Zr17  1  0.69610992  0.30378430  0.10295589  1
  Zr  Zr18  1  0.69964716  0.88923322  0.89883260  1
  Zr  Zr19  1  0.89621266  0.89383361  0.10550452  1
  Zr  Zr20  1  0.29510107  0.30039608  0.70183940  1
  Zr  Zr21  1  0.89934858  0.09397221  0.70742611  1
  Zr  Zr22  1  0.10072905  0.10061985  0.10717696  1
  Zr  Zr23  1  0.70098538  0.70157857  0.49399116  1
  Zr  Zr24  1  0.50007461  0.89675967  0.89487548  1
  Zr  Zr25  1  0.70574651  0.70572764  0.71057589  1
  Zr  Zr26  1  0.49177755  0.29527504  0.29986643  1
  Zr  Zr27  1  0.50021906  0.90577211  0.29855310  1
  Zr  Zr28  1  0.50193504  0.51372730  0.29337151  1
  Zr  Zr29  1  0.09434231  0.90033000  0.09753720  1
  Zr  Zr30  1  0.10111114  0.49387185  0.69374435  1
  Zr  Zr31  1  0.29903062  0.49947198  0.30189427  1
  Zr  Zr32  1  0.90220926  0.69161849  0.69936345  1
  Zr  Zr33  1  0.09861427  0.29706008  0.11095295  1
  Zr  Zr34  1  0.29651336  0.30270680  0.10306436  1
  Zr  Zr35  1  0.29809304  0.90633453  0.10037080  1
  Zr  Zr36  1  0.90279064  0.50361883  0.29955805  1
  Zr  Zr37  1  0.10577657  0.69679795  0.90082383  1
  Zr  Zr38  1  0.69831663  0.50208564  0.49558719  1
  Zr  Zr39  1  0.70830915  0.09665975  0.90258452  1
  Zr  Zr40  1  0.10574512  0.10620670  0.69567890  1
  Zr  Zr41  1  0.90330803  0.50064400  0.70424130  1
  Zr  Zr42  1  0.49389107  0.29946603  0.50291361  1
  Zr  Zr43  1  0.30415952  0.89842393  0.89910615  1
  Zr  Zr44  1  0.89475650  0.29889110  0.50436159  1
  Zr  Zr45  1  0.49545471  0.29751464  0.10143754  1
  Zr  Zr46  1  0.90612589  0.70540857  0.10498154  1
  Zr  Zr47  1  0.09354707  0.69454413  0.30044664  1
  Zr  Zr48  1  0.49845383  0.50517886  0.89123030  1
  Zr  Zr49  1  0.51237436  0.70008542  0.90092658  1
  Sc  Sc50  1  0.29926151  0.09137918  0.50524780  1
  Sc  Sc51  1  0.29376154  0.09995970  0.10682116  1
  Sc  Sc52  1  0.89995454  0.30472961  0.10566963  1
  Sc  Sc53  1  0.69770557  0.50299285  0.69134884  1
  Sc  Sc54  1  0.29860855  0.30198066  0.88980707  1
  Sc  Sc55  1  0.30042939  0.30568189  0.29819302  1
  Sc  Sc56  1  0.89901183  0.30232640  0.69250660  1
  Sc  Sc57  1  0.30600781  0.10175519  0.29822251  1
  Sc  Sc58  1  0.30564871  0.69750628  0.50011566  1
  Sc  Sc59  1  0.09249184  0.08818805  0.90070666  1
  Sc  Sc60  1  0.70323994  0.10073967  0.50290894  1
  Sc  Sc61  1  0.29624750  0.49874438  0.50162126  1
  Sc  Sc62  1  0.30510435  0.90083325  0.30587206  1
  Sc  Sc63  1  0.70107613  0.90283051  0.30790899  1
  Sc  Sc64  1  0.89458240  0.10647114  0.50631590  1
  Sc  Sc65  1  0.10682724  0.50016834  0.50332653  1
  Sc  Sc66  1  0.69808513  0.51038078  0.10551872  1
  Sc  Sc67  1  0.50024985  0.69755413  0.49986615  1
  Sc  Sc68  1  0.89336971  0.10852742  0.30927883  1
  Sc  Sc69  1  0.31379282  0.70409622  0.89487386  1
  Sc  Sc70  1  0.09664185  0.29981613  0.51956931  1
  Sc  Sc71  1  0.10963720  0.49393821  0.09048126  1
  Sc  Sc72  1  0.11112494  0.69275371  0.49906246  1
  Sc  Sc73  1  0.10692880  0.49679248  0.30369723  1
  Sc  Sc74  1  0.69841306  0.10050606  0.69824512  1
  Sc  Sc75  1  0.89448501  0.50280723  0.10397346  1
  Sc  Sc76  1  0.50227261  0.70188405  0.10355401  1
  Sc  Sc77  1  0.90235148  0.70506588  0.30280724  1
  Sc  Sc78  1  0.09522847  0.48728283  0.89281070  1
  Sc  Sc79  1  0.69790550  0.50805832  0.29559699  1
  Sc  Sc80  1  0.49095210  0.29245499  0.89642323  1
  Sc  Sc81  1  0.88502713  0.69603962  0.89568264  1
  Sc  Sc82  1  0.69763611  0.52532905  0.90430381  1
  Sc  Sc83  1  0.49665614  0.09960349  0.69941673  1
  Sc  Sc84  1  0.10359027  0.89446388  0.30474118  1
  Sc  Sc85  1  0.70014667  0.29376845  0.69536871  1
  Sc  Sc86  1  0.88373058  0.09780014  0.09644869  1
  Sc  Sc87  1  0.70669956  0.89807269  0.09992694  1
  Sc  Sc88  1  0.88902815  0.89580814  0.49374622  1
  Sc  Sc89  1  0.09800239  0.90443263  0.90276327  1
  Sc  Sc90  1  0.90560024  0.29576568  0.29599649  1
  Sc  Sc91  1  0.49895672  0.89896613  0.50325258  1
  Sc  Sc92  1  0.70167705  0.27911282  0.89778502  1
  Sc  Sc93  1  0.49148449  0.10200090  0.50195955  1
  Sc  Sc94  1  0.50107008  0.70369328  0.30145535  1
  Sc  Sc95  1  0.90123281  0.50254425  0.51255516  1
  Sc  Sc96  1  0.31307720  0.69297338  0.30539122  1
  Sc  Sc97  1  0.11150299  0.89696268  0.69959583  1
  Sc  Sc98  1  0.69211214  0.09797138  0.09423615  1
  Sc  Sc99  1  0.31056365  0.89394527  0.69633534  1
  Nb  Nb100  1  0.50429581  0.49925099  0.09517880  1
  Nb  Nb101  1  0.30539360  0.29916421  0.49121839  1
  Nb  Nb102  1  0.89908253  0.49745026  0.89930264  1
  Nb  Nb103  1  0.09804038  0.70154965  0.09845436  1
  Nb  Nb104  1  0.89790442  0.30154785  0.89977658  1
  Nb  Nb105  1  0.30459617  0.49580387  0.70051607  1
  Nb  Nb106  1  0.50020633  0.10083648  0.29226814  1
  Nb  Nb107  1  0.09475084  0.29938133  0.89515436  1
  Nb  Nb108  1  0.49521277  0.09746014  0.10593832  1
  Nb  Nb109  1  0.89151580  0.10958795  0.89869816  1
  Nb  Nb110  1  0.29682722  0.09961157  0.70318097  1
  Nb  Nb111  1  0.68872022  0.69173086  0.30462827  1
  Nb  Nb112  1  0.09815207  0.29211638  0.29789490  1
  Nb  Nb113  1  0.69417700  0.10515121  0.30552233  1
  Nb  Nb114  1  0.10122343  0.30147467  0.70979969  1
  Nb  Nb115  1  0.50702848  0.89799796  0.69162744  1
  Nb  Nb116  1  0.90622061  0.69965509  0.50164716  1
  Nb  Nb117  1  0.69604471  0.89785636  0.69224268  1
  Nb  Nb118  1  0.10104803  0.69735799  0.69780294  1
  Nb  Nb119  1  0.69454639  0.30276860  0.30361808  1
  Nb  Nb120  1  0.90342146  0.90404315  0.29796771  1
  Nb  Nb121  1  0.09307900  0.11265659  0.29720580  1
  Nb  Nb122  1  0.50611737  0.49369171  0.51678872  1
  Nb  Nb123  1  0.69941929  0.70275894  0.90165306  1
  Nb  Nb124  1  0.49744786  0.49668844  0.69477862  1
  Nb  Nb125  1  0.59801821  0.39913390  0.39974397  1
  Nb  Nb126  1  0.40559728  0.00504858  0.00195790  1
  Nb  Nb127  1  0.79454273  0.40230318  -0.00894879  1
  Nb  Nb128  1  0.60128437  0.40252122  -0.00626755  1
  Nb  Nb129  1  -0.00182798  0.20271490  0.80386588  1
  Nb  Nb130  1  -0.00364565  0.20272852  -0.00508592  1
  Nb  Nb131  1  0.00008354  0.79715837  0.79340283  1
  Nb  Nb132  1  0.00209688  0.79627970  0.59906860  1
  Nb  Nb133  1  0.19909368  0.79211372  0.19575090  1
  Nb  Nb134  1  0.00128623  -0.00781633  0.59606772  1
  Nb  Nb135  1  0.19953891  0.79949165  0.00410123  1
  Nb  Nb136  1  0.19619127  0.20349152  0.39896204  1
  Nb  Nb137  1  0.20092793  0.59854175  0.79315818  1
  Nb  Nb138  1  -0.00181189  0.39482544  0.40177614  1
  Nb  Nb139  1  0.79942043  0.39855757  0.39723634  1
  Nb  Nb140  1  0.00067954  0.00178931  0.39946279  1
  Nb  Nb141  1  -0.00404128  0.00214487  0.20971105  1
  Nb  Nb142  1  0.20142551  0.60557876  0.19423576  1
  Nb  Nb143  1  0.79558610  0.40256846  0.80814487  1
  Nb  Nb144  1  0.59580340  0.20117716  0.39432396  1
  Nb  Nb145  1  0.78639046  0.20182141  0.20706245  1
  Nb  Nb146  1  0.19013962  0.20121091  -0.00426071  1
  Nb  Nb147  1  0.60336412  0.40269811  0.80368266  1
  Nb  Nb148  1  0.20733670  0.00334488  0.79700377  1
  Nb  Nb149  1  -0.00159707  0.59914569  -0.00198338  1
  Pd  Pd150  1  0.79814932  0.39754927  0.20418250  1
  Pd  Pd151  1  0.59627136  0.20309221  0.00221435  1
  Pd  Pd152  1  0.40057296  -0.00142152  0.79645330  1
  Pd  Pd153  1  0.40936404  0.41279916  0.40328760  1
  Pd  Pd154  1  0.41028128  0.60129391  0.00010138  1
  Pd  Pd155  1  -0.00666838  0.40095891  0.00468539  1
  Pd  Pd156  1  0.00459719  0.20361010  0.41102595  1
  Pd  Pd157  1  0.19007013  0.38803709  0.40680224  1
  Pd  Pd158  1  0.79766888  0.61174246  0.20485475  1
  Pd  Pd159  1  0.40380485  0.00285244  0.40145442  1
  Pd  Pd160  1  0.59585409  0.79963251  0.79222202  1
  Pd  Pd161  1  0.00705154  0.60140855  0.80709683  1
  Pd  Pd162  1  0.60911433  -0.00226587  0.19972217  1
  Pd  Pd163  1  0.21113935  0.20645469  0.59112470  1
  Pd  Pd164  1  0.20947553  0.78885462  0.39313818  1
  Pd  Pd165  1  0.60659753  -0.00087216  0.79537251  1
  Pd  Pd166  1  0.79566465  0.60280415  0.59904531  1
  Pd  Pd167  1  0.00105093  0.59002911  0.40946166  1
  Pd  Pd168  1  0.78638037  -0.00462695  0.79575503  1
  Pd  Pd169  1  0.19657317  0.01132010  0.38883442  1
  Pd  Pd170  1  0.00056180  0.80538653  0.40730483  1
  Pd  Pd171  1  0.00704610  0.40777133  0.20496019  1
  Pd  Pd172  1  0.40559524  0.39810147  -0.00804213  1
  Pd  Pd173  1  0.80274334  0.00364269  0.40267985  1
  Pd  Pd174  1  0.59368249  0.20538659  0.79250984  1
  Pd  Pd175  1  -0.01102138  0.01003972  0.01115776  1
  Pd  Pd176  1  0.59531845  0.40569517  0.20120960  1
  Pd  Pd177  1  -0.00371458  0.79313845  -0.01569175  1
  Pd  Pd178  1  0.40433240  0.40405282  0.20190435  1
  Pd  Pd179  1  0.80705008  0.59859553  0.39904839  1
  Pd  Pd180  1  0.59425707  0.00798809  0.40738761  1
  Pd  Pd181  1  0.39198061  0.19691850  0.60294248  1
  Pd  Pd182  1  0.19341569  -0.00506577  0.21322240  1
  Pd  Pd183  1  0.60096165  0.19657699  0.20065721  1
  Pd  Pd184  1  0.79081166  0.79381844  0.21505368  1
  Pd  Pd185  1  0.39330511  0.79923843  0.20368432  1
  Pd  Pd186  1  0.59438430  0.80278131  0.40191625  1
  Pd  Pd187  1  0.59595274  0.00876947  0.59671663  1
  Pd  Pd188  1  0.39019807  0.19513817  0.00728977  1
  Pd  Pd189  1  0.19790013  0.80085134  0.80470435  1
  Pd  Pd190  1  0.01078842  0.58756159  0.18967965  1
  Pd  Pd191  1  0.60996614  0.79844556  0.20206940  1
  Pd  Pd192  1  0.80319959  0.79361785  0.59665662  1
  Pd  Pd193  1  0.79718581  0.00917946  0.20752187  1
  Pd  Pd194  1  0.40648142  0.59147559  0.41209472  1
  Pd  Pd195  1  0.39447723  0.60053767  0.79465181  1
  Pd  Pd196  1  0.60533229  0.60834255  0.60244463  1
  Pd  Pd197  1  0.19954385  0.38896750  -0.00568459  1
  Pd  Pd198  1  0.79893455  0.79626600  0.39385589  1
  Pd  Pd199  1  0.59846258  -0.00640514  0.00187709  1
  Rh  Rh200  1  0.20478910  -0.00588826  0.61048581  1
  Rh  Rh201  1  0.00642769  0.80897576  0.20776112  1
  Rh  Rh202  1  0.80463233  0.80595174  0.80255960  1
  Rh  Rh203  1  0.59237064  0.59420816  0.40533182  1
  Rh  Rh204  1  0.60023409  0.79385428  0.60008730  1
  Rh  Rh205  1  0.39926028  0.59219658  0.59742176  1
  Rh  Rh206  1  0.40411570  0.39997789  0.79992081  1
  Rh  Rh207  1  0.19956526  0.79611346  0.59512244  1
  Rh  Rh208  1  0.60108685  0.60989841  0.19274688  1
  Rh  Rh209  1  0.80032455  0.19370149  0.60794963  1
  Rh  Rh210  1  0.01243079  -0.00050940  0.78643827  1
  Rh  Rh211  1  0.79088015  0.20749869  0.39558734  1
  Rh  Rh212  1  0.38769605  0.40175220  0.59577311  1
  Rh  Rh213  1  0.59880986  0.80167453  0.00448287  1
  Rh  Rh214  1  0.79683420  0.40366285  0.60186701  1
  Rh  Rh215  1  0.80156380  -0.00013245  0.59993686  1
  Rh  Rh216  1  0.41037372  0.79867717  0.79210887  1
  Rh  Rh217  1  0.40591069  0.20353798  0.78877220  1
  Rh  Rh218  1  0.39978978  0.00102407  0.19775098  1
  Rh  Rh219  1  0.79325790  0.59298071  0.79679299  1
  Rh  Rh220  1  0.80630793  0.20687985  0.79129564  1
  Rh  Rh221  1  0.40185417  0.80747663  0.00211670  1
  Rh  Rh222  1  0.18843433  0.19129043  0.80964509  1
  Rh  Rh223  1  0.39994505  -0.00189436  0.60607403  1
  Rh  Rh224  1  0.39384865  0.19794953  0.19715452  1
  Rh  Rh225  1  -0.00979601  0.39183820  0.79257297  1
  Rh  Rh226  1  0.40809183  0.79875821  0.59850586  1
  Rh  Rh227  1  0.60332403  0.59718969  0.79032767  1
  Rh  Rh228  1  0.19500485  0.60185193  -0.00406200  1
  Rh  Rh229  1  0.20804486  0.20399500  0.20491896  1
  Rh  Rh230  1  -0.01885570  0.18780824  0.18898926  1
  Rh  Rh231  1  0.59593774  0.19624684  0.59312348  1
  Rh  Rh232  1  0.21398243  0.00421195  -0.01281236  1
  Rh  Rh233  1  0.19679624  0.40513235  0.20282528  1
  Rh  Rh234  1  0.60727653  0.39664231  0.60365595  1
  Rh  Rh235  1  0.39604176  0.19347747  0.39827512  1
  Rh  Rh236  1  0.00079524  0.40081905  0.59955273  1
  Rh  Rh237  1  0.40564411  0.80387838  0.40137718  1
  Rh  Rh238  1  0.80963903  0.80502630  -0.00810366  1
  Rh  Rh239  1  0.20353582  0.60238965  0.39225516  1
  Rh  Rh240  1  0.20340632  0.40796614  0.79920385  1
  Rh  Rh241  1  0.20588598  0.59599437  0.60613209  1
  Rh  Rh242  1  -0.00490886  0.19455642  0.61188359  1
  Rh  Rh243  1  0.59684459  0.60125631  0.00681861  1
  Rh  Rh244  1  0.80352746  0.21089533  0.01275318  1
  Rh  Rh245  1  0.20551400  0.39355545  0.60039714  1
  Rh  Rh246  1  0.39852765  0.59919143  0.19262947  1
  Rh  Rh247  1  0.80932848  0.59844056  0.00382643  1
  Rh  Rh248  1  0.79863207  -0.00640962  -0.00250665  1
  Rh  Rh249  1  0.00696769  0.60504953  0.59304662  1
