# generated using pymatgen
data_ZrScNbPdRh
_symmetry_space_group_name_H-M   'P 1'
_cell_length_a   16.55631936
_cell_length_b   16.55388215
_cell_length_c   16.55334310
_cell_angle_alpha   90.01112582
_cell_angle_beta   89.99693259
_cell_angle_gamma   89.97718399
_symmetry_Int_Tables_number   1
_chemical_formula_structural   ZrScNbPdRh
_chemical_formula_sum   'Zr50 Sc50 Nb50 Pd50 Rh50'
_cell_volume   4536.79679781
_cell_formula_units_Z   50
loop_
 _symmetry_equiv_pos_site_id
 _symmetry_equiv_pos_as_xyz
  1  'x, y, z'
loop_
 _atom_site_type_symbol
 _atom_site_label
 _atom_site_symmetry_multiplicity
 _atom_site_fract_x
 _atom_site_fract_y
 _atom_site_fract_z
 _atom_site_occupancy
  Zr  Zr0  1  0.10312453  0.30274431  0.70572278  1
  Zr  Zr1  1  0.29721395  0.89955227  0.29669351  1
  Zr  Zr2  1  0.70848419  0.69512204  0.30155219  1
  Zr  Zr3  1  0.69324096  0.30618551  0.29225277  1
  Zr  Zr4  1  0.89732036  0.70192620  0.71335168  1
  Zr  Zr5  1  0.49847752  0.09858740  0.30313513  1
  Zr  Zr6  1  0.10649819  0.10310679  0.09966027  1
  Zr  Zr7  1  0.49750384  0.90300582  0.50129847  1
  Zr  Zr8  1  0.49523230  0.69498373  0.50751253  1
  Zr  Zr9  1  0.50912482  0.70193603  0.09142662  1
  Zr  Zr10  1  0.30030469  0.29779191  0.69938808  1
  Zr  Zr11  1  0.70125358  0.30222440  0.08947508  1
  Zr  Zr12  1  0.10790770  0.09225226  0.50041635  1
  Zr  Zr13  1  0.90077722  0.89707637  0.30722873  1
  Zr  Zr14  1  0.90689529  0.29954944  0.70688078  1
  Zr  Zr15  1  0.29981817  0.89719495  0.89741595  1
  Zr  Zr16  1  0.89771943  0.89419291  0.10964690  1
  Zr  Zr17  1  0.29259223  0.10634466  0.49695409  1
  Zr  Zr18  1  0.29780294  0.50667571  0.89948783  1
  Zr  Zr19  1  0.89871425  0.09466368  0.30262709  1
  Zr  Zr20  1  0.49776333  0.90241949  0.29301934  1
  Zr  Zr21  1  0.10358245  0.50255525  0.70257312  1
  Zr  Zr22  1  0.89788531  0.49837424  0.29219423  1
  Zr  Zr23  1  0.49878825  0.30877224  0.30161248  1
  Zr  Zr24  1  0.70913965  0.90061458  0.29351633  1
  Zr  Zr25  1  0.90359293  0.10225920  0.70328031  1
  Zr  Zr26  1  0.50136043  0.10841745  0.49693102  1
  Zr  Zr27  1  0.89444002  0.70522274  0.49390100  1
  Zr  Zr28  1  0.10510159  0.29159600  0.50034620  1
  Zr  Zr29  1  0.70118193  0.30361871  0.70096658  1
  Zr  Zr30  1  0.10586710  0.10700625  0.70091213  1
  Zr  Zr31  1  0.29718706  0.49087687  0.69775548  1
  Zr  Zr32  1  0.49936306  0.89995760  0.70724340  1
  Zr  Zr33  1  0.69387550  0.50599174  0.70544155  1
  Zr  Zr34  1  0.69561646  0.89372592  0.70170445  1
  Zr  Zr35  1  0.29809188  0.29782959  0.09822214  1
  Zr  Zr36  1  0.91002129  0.90253834  0.90123581  1
  Zr  Zr37  1  0.90494209  0.70594565  0.29234873  1
  Zr  Zr38  1  0.70683706  0.49588156  0.10154371  1
  Zr  Zr39  1  0.69182566  0.50786533  0.49422457  1
  Zr  Zr40  1  0.49693975  0.30193943  0.69113527  1
  Zr  Zr41  1  0.69896728  0.10491360  0.90344322  1
  Zr  Zr42  1  0.89397158  0.89643443  0.70044192  1
  Zr  Zr43  1  0.90276111  0.50069116  0.49751207  1
  Zr  Zr44  1  0.49328671  0.69513557  0.28341525  1
  Zr  Zr45  1  0.69407833  0.68935478  0.89560613  1
  Zr  Zr46  1  0.29083759  0.69950678  0.49831409  1
  Zr  Zr47  1  0.68426621  0.29872665  0.49948243  1
  Zr  Zr48  1  0.49790232  0.50668242  0.10836684  1
  Zr  Zr49  1  0.69488387  0.89764763  0.09804839  1
  Sc  Sc50  1  0.10465022  0.50201480  0.09575998  1
  Sc  Sc51  1  0.09957939  0.09811712  0.90648622  1
  Sc  Sc52  1  0.70451453  0.89910082  0.50527908  1
  Sc  Sc53  1  0.50148607  0.90160039  0.09451451  1
  Sc  Sc54  1  0.69839585  0.70139271  0.50070862  1
  Sc  Sc55  1  0.29950375  0.30041308  0.29583562  1
  Sc  Sc56  1  0.91110617  0.49708984  0.70706254  1
  Sc  Sc57  1  0.10733730  0.49710782  0.90008513  1
  Sc  Sc58  1  0.30402382  0.10497628  0.90536537  1
  Sc  Sc59  1  0.10140948  0.50355178  0.29590294  1
  Sc  Sc60  1  0.90985144  0.10710327  0.09133097  1
  Sc  Sc61  1  0.30882309  0.68388038  0.10119646  1
  Sc  Sc62  1  0.10435146  0.91079547  0.09578118  1
  Sc  Sc63  1  0.30067691  0.91183316  0.09640196  1
  Sc  Sc64  1  0.69758991  0.09904105  0.69635044  1
  Sc  Sc65  1  0.29785176  0.89465547  0.70616757  1
  Sc  Sc66  1  0.29485298  0.10058356  0.09676623  1
  Sc  Sc67  1  0.48940335  0.29496042  0.90522407  1
  Sc  Sc68  1  0.29461668  0.29745859  0.89801606  1
  Sc  Sc69  1  0.91692128  0.30571955  0.49325474  1
  Sc  Sc70  1  0.10207110  0.29695043  0.90141411  1
  Sc  Sc71  1  0.89788409  0.89835765  0.49371958  1
  Sc  Sc72  1  0.29518148  0.50334816  0.50699561  1
  Sc  Sc73  1  0.49864875  0.09148508  0.90380635  1
  Sc  Sc74  1  0.09898834  0.89962184  0.30686683  1
  Sc  Sc75  1  0.10293398  0.69748016  0.30198798  1
  Sc  Sc76  1  0.29965833  0.49634699  0.29011297  1
  Sc  Sc77  1  0.29405455  0.09665082  0.29614587  1
  Sc  Sc78  1  0.49994600  0.10146189  0.70336002  1
  Sc  Sc79  1  0.70294781  0.49888848  0.90722417  1
  Sc  Sc80  1  0.69589464  0.09656224  0.29905507  1
  Sc  Sc81  1  0.68306748  0.90115549  0.90075840  1
  Sc  Sc82  1  0.10295501  0.89276384  0.49638978  1
  Sc  Sc83  1  0.90054602  0.30189712  0.90263844  1
  Sc  Sc84  1  0.10744417  0.69633032  0.50007255  1
  Sc  Sc85  1  0.89764341  0.08947242  0.49626337  1
  Sc  Sc86  1  0.10162831  0.50130306  0.50576373  1
  Sc  Sc87  1  0.49305739  0.30535425  0.49537859  1
  Sc  Sc88  1  0.91100543  0.10685534  0.90125966  1
  Sc  Sc89  1  0.10114098  0.29674739  0.10084185  1
  Sc  Sc90  1  0.50873565  0.30591008  0.10281949  1
  Sc  Sc91  1  0.28748147  0.89757522  0.50333877  1
  Sc  Sc92  1  0.69478679  0.09811114  0.49760096  1
  Sc  Sc93  1  0.29887094  0.70244364  0.69815639  1
  Sc  Sc94  1  0.11124723  0.89992629  0.71262416  1
  Sc  Sc95  1  0.10577550  0.10461391  0.30361949  1
  Sc  Sc96  1  0.49139174  0.50581142  0.69206517  1
  Sc  Sc97  1  0.49391891  0.89605590  0.90327042  1
  Sc  Sc98  1  0.50171324  0.69890927  0.70096452  1
  Sc  Sc99  1  0.90441095  0.49794659  0.90809720  1
  Nb  Nb100  1  0.29529384  0.09717088  0.69542207  1
  Nb  Nb101  1  0.69819431  0.10297321  0.09455967  1
  Nb  Nb102  1  0.29679678  0.30313722  0.50144918  1
  Nb  Nb103  1  0.90507555  0.30149018  0.29782638  1
  Nb  Nb104  1  0.29747871  0.69805161  0.30296524  1
  Nb  Nb105  1  0.90284710  0.70357732  0.90496587  1
  Nb  Nb106  1  0.09150398  0.29823779  0.30756663  1
  Nb  Nb107  1  0.89895972  0.31059687  0.10748413  1
  Nb  Nb108  1  0.50088387  0.50952048  0.89679120  1
  Nb  Nb109  1  0.10616983  0.69815150  0.90002961  1
  Nb  Nb110  1  0.09877009  0.69659853  0.10029364  1
  Nb  Nb111  1  0.50405989  0.49693710  0.30333931  1
  Nb  Nb112  1  0.49889046  0.10389407  0.09527334  1
  Nb  Nb113  1  0.90784559  0.69475767  0.09879000  1
  Nb  Nb114  1  0.49627257  0.50478294  0.49552502  1
  Nb  Nb115  1  0.69897832  0.30356872  0.89818615  1
  Nb  Nb116  1  0.10467737  0.89659446  0.90784962  1
  Nb  Nb117  1  0.30171432  0.70296166  0.90051909  1
  Nb  Nb118  1  0.09740184  0.69861093  0.70276283  1
  Nb  Nb119  1  0.90304525  0.49703803  0.10200127  1
  Nb  Nb120  1  0.69983923  0.50044873  0.30273159  1
  Nb  Nb121  1  0.49218923  0.69341430  0.90223409  1
  Nb  Nb122  1  0.29726362  0.48911137  0.09735175  1
  Nb  Nb123  1  0.70370274  0.69821976  0.70004133  1
  Nb  Nb124  1  0.70340329  0.70018398  0.09253279  1
  Nb  Nb125  1  0.80451066  0.79449045  -0.00060124  1
  Nb  Nb126  1  0.19621355  0.39481713  0.40096149  1
  Nb  Nb127  1  0.79938337  0.40114086  0.59584390  1
  Nb  Nb128  1  0.60256743  0.20927649  0.80296930  1
  Nb  Nb129  1  0.20105490  0.79445444  0.19212814  1
  Nb  Nb130  1  0.39785327  0.40829352  0.00081458  1
  Nb  Nb131  1  0.00418651  0.79202757  -0.00050671  1
  Nb  Nb132  1  0.80245115  0.20981110  0.59314756  1
  Nb  Nb133  1  -0.00092969  0.00149026  0.20241756  1
  Nb  Nb134  1  0.79766632  0.39794084  0.39756322  1
  Nb  Nb135  1  0.39956946  0.59966453  0.39595355  1
  Nb  Nb136  1  0.00100452  0.79943750  0.60789172  1
  Nb  Nb137  1  0.40591063  0.19845224  0.19641398  1
  Nb  Nb138  1  0.00399616  -0.00666952  0.60471955  1
  Nb  Nb139  1  0.80031508  0.59868304  0.60573683  1
  Nb  Nb140  1  0.19828360  0.79132608  0.00076071  1
  Nb  Nb141  1  0.59451776  0.39922471  0.80533853  1
  Nb  Nb142  1  0.80124466  0.21009107  0.39583369  1
  Nb  Nb143  1  0.40038527  0.79505574  0.39627081  1
  Nb  Nb144  1  0.80359792  0.20633302  0.19850682  1
  Nb  Nb145  1  -0.00472623  0.60061259  0.39725240  1
  Nb  Nb146  1  0.79933798  -0.00100443  0.80599853  1
  Nb  Nb147  1  0.59225326  0.79948636  0.39392828  1
  Nb  Nb148  1  0.79868337  -0.00178849  -0.00091858  1
  Nb  Nb149  1  0.39310476  0.00465739  0.60113553  1
  Pd  Pd150  1  -0.00445587  0.18920856  0.40566471  1
  Pd  Pd151  1  0.60612211  0.79691402  0.20276950  1
  Pd  Pd152  1  0.39237427  0.80004190  0.00746600  1
  Pd  Pd153  1  0.20475061  0.60484808  0.79571740  1
  Pd  Pd154  1  0.00645933  0.59783502  -0.00368205  1
  Pd  Pd155  1  0.59800126  0.00494964  0.19267238  1
  Pd  Pd156  1  0.59188540  0.20124391  -0.00645559  1
  Pd  Pd157  1  0.40007264  0.00873114  0.19165698  1
  Pd  Pd158  1  0.80236582  0.60270950  0.19289023  1
  Pd  Pd159  1  0.59198167  0.79146032  0.80589274  1
  Pd  Pd160  1  0.40294640  0.19509083  0.80024292  1
  Pd  Pd161  1  0.39321942  0.80852961  0.59804179  1
  Pd  Pd162  1  0.59574429  0.40985783  0.60276397  1
  Pd  Pd163  1  0.79886124  0.40738150  0.80281654  1
  Pd  Pd164  1  0.00273720  0.00016779  0.79601532  1
  Pd  Pd165  1  0.79074144  0.80648703  0.81385782  1
  Pd  Pd166  1  0.01001970  0.80089973  0.80178150  1
  Pd  Pd167  1  0.39565268  0.60540948  0.79131227  1
  Pd  Pd168  1  0.80429863  0.60120396  0.00133928  1
  Pd  Pd169  1  0.39374721  0.20290629  0.39153605  1
  Pd  Pd170  1  0.00297632  0.39917054  0.60221312  1
  Pd  Pd171  1  0.80573592  0.01400403  0.18746592  1
  Pd  Pd172  1  0.38866240  -0.00608325  0.40816112  1
  Pd  Pd173  1  0.59051451  0.60987690  0.39465379  1
  Pd  Pd174  1  0.60072322  0.19568694  0.20046378  1
  Pd  Pd175  1  0.80313749  0.00605247  0.60428961  1
  Pd  Pd176  1  0.38979845  0.80148294  0.19163579  1
  Pd  Pd177  1  0.01509357  0.80726825  0.19550151  1
  Pd  Pd178  1  0.19052301  0.39220687  0.20536774  1
  Pd  Pd179  1  0.80753751  0.20184837  0.00310173  1
  Pd  Pd180  1  -0.00572823  0.19071552  0.59030649  1
  Pd  Pd181  1  0.00488247  0.39705966  0.00176171  1
  Pd  Pd182  1  0.39936284  0.59487880  0.00174098  1
  Pd  Pd183  1  0.59247946  0.00346562  0.60251798  1
  Pd  Pd184  1  0.38767384  0.41015881  0.40354137  1
  Pd  Pd185  1  0.80743500  0.59090979  0.80207227  1
  Pd  Pd186  1  0.20258105  0.60224684  0.19718698  1
  Pd  Pd187  1  0.60131107  0.79600030  0.59596872  1
  Pd  Pd188  1  0.60975973  0.59817768  0.19689387  1
  Pd  Pd189  1  0.00148712  0.59666579  0.81234275  1
  Pd  Pd190  1  0.39736405  0.19547980  0.59837046  1
  Pd  Pd191  1  -0.00504725  0.61078758  0.59546757  1
  Pd  Pd192  1  0.79656331  0.19415649  0.79701187  1
  Pd  Pd193  1  -0.00127826  0.19566958  0.19907239  1
  Pd  Pd194  1  0.01081418  0.40430276  0.19633571  1
  Pd  Pd195  1  0.20309237  0.00733178  0.80819447  1
  Pd  Pd196  1  0.40445499  0.40126675  0.80831756  1
  Pd  Pd197  1  0.39597926  0.00307665  0.79696152  1
  Pd  Pd198  1  0.60715064  -0.00897443  0.40002237  1
  Pd  Pd199  1  0.58978527  0.40740885  -0.00691517  1
  Rh  Rh200  1  0.00592937  0.41097574  0.39298649  1
  Rh  Rh201  1  0.19948625  -0.00541002  0.60364745  1
  Rh  Rh202  1  0.20369870  0.20468826  0.60409837  1
  Rh  Rh203  1  0.39358133  0.58988418  0.20459454  1
  Rh  Rh204  1  0.60418084  0.60273954  0.60356718  1
  Rh  Rh205  1  0.20277808  0.19568647  0.80206644  1
  Rh  Rh206  1  0.60070433  0.59633070  0.00129241  1
  Rh  Rh207  1  0.39319244  0.59817111  0.59719619  1
  Rh  Rh208  1  0.60023249  0.20067463  0.39355767  1
  Rh  Rh209  1  0.40078945  0.00148805  0.00062869  1
  Rh  Rh210  1  0.19950264  0.58759063  0.39792608  1
  Rh  Rh211  1  0.18886627  0.79775026  0.60907187  1
  Rh  Rh212  1  0.40411712  0.79314955  0.80155536  1
  Rh  Rh213  1  0.20103185  -0.00292414  0.39772843  1
  Rh  Rh214  1  0.00021589  0.59586018  0.20137902  1
  Rh  Rh215  1  0.20556280  -0.00203735  -0.00784382  1
  Rh  Rh216  1  0.60512440  0.00913849  0.79856712  1
  Rh  Rh217  1  0.20117779  0.39827687  0.80321726  1
  Rh  Rh218  1  0.80356658  0.79057909  0.60086987  1
  Rh  Rh219  1  0.60280577  0.79261198  -0.00850985  1
  Rh  Rh220  1  0.60043581  0.40334455  0.39971476  1
  Rh  Rh221  1  0.20525335  0.39829216  -0.00313958  1
  Rh  Rh222  1  0.79169651  0.00251950  0.40260993  1
  Rh  Rh223  1  0.18963132  -0.00597600  0.20463448  1
  Rh  Rh224  1  0.20104842  0.60277477  0.60892342  1
  Rh  Rh225  1  0.20269224  0.79933612  0.38943614  1
  Rh  Rh226  1  0.80606523  0.59363822  0.40262811  1
  Rh  Rh227  1  0.40157364  0.20627732  0.00982902  1
  Rh  Rh228  1  0.79779489  0.39760158  0.20232971  1
  Rh  Rh229  1  0.78826991  0.80507100  0.40081424  1
  Rh  Rh230  1  0.59956204  0.00295107  0.00421678  1
  Rh  Rh231  1  0.19674615  0.39447229  0.59509023  1
  Rh  Rh232  1  0.20319864  0.20430466  0.20407510  1
  Rh  Rh233  1  0.00115075  0.21144054  0.00287397  1
  Rh  Rh234  1  0.59325070  0.59909588  0.79833280  1
  Rh  Rh235  1  0.00712791  0.20248765  0.80710321  1
  Rh  Rh236  1  0.39915595  0.40297653  0.59126799  1
  Rh  Rh237  1  0.00548323  0.40120846  0.80636773  1
  Rh  Rh238  1  0.00715765  0.78913187  0.40885530  1
  Rh  Rh239  1  0.60053127  0.19516845  0.60625755  1
  Rh  Rh240  1  0.20197207  0.60233278  0.00165705  1
  Rh  Rh241  1  0.60074418  0.40954838  0.19860686  1
  Rh  Rh242  1  0.20420037  0.20908418  0.39227042  1
  Rh  Rh243  1  0.00588117  0.00029264  0.40169493  1
  Rh  Rh244  1  -0.00501017  -0.00671919  0.00955363  1
  Rh  Rh245  1  0.80686679  0.39876845  -0.00058802  1
  Rh  Rh246  1  0.40377882  0.39515940  0.19233976  1
  Rh  Rh247  1  0.20106943  0.79266189  0.80555256  1
  Rh  Rh248  1  0.19777975  0.19845557  -0.00241575  1
  Rh  Rh249  1  0.79596464  0.78821685  0.19216693  1
