# generated using pymatgen
data_ZrScNbPdRh
_symmetry_space_group_name_H-M   'P 1'
_cell_length_a   16.56205163
_cell_length_b   16.56370226
_cell_length_c   16.55845305
_cell_angle_alpha   90.00840200
_cell_angle_beta   89.99923506
_cell_angle_gamma   90.02720560
_symmetry_Int_Tables_number   1
_chemical_formula_structural   ZrScNbPdRh
_chemical_formula_sum   'Zr50 Sc50 Nb50 Pd50 Rh50'
_cell_volume   4542.46151624
_cell_formula_units_Z   50
loop_
 _symmetry_equiv_pos_site_id
 _symmetry_equiv_pos_as_xyz
  1  'x, y, z'
loop_
 _atom_site_type_symbol
 _atom_site_label
 _atom_site_symmetry_multiplicity
 _atom_site_fract_x
 _atom_site_fract_y
 _atom_site_fract_z
 _atom_site_occupancy
  Zr  Zr0  1  0.49518294  0.90037581  0.10569932  1
  Zr  Zr1  1  0.70278339  0.89848483  0.70434411  1
  Zr  Zr2  1  0.09495542  0.89775143  0.89902555  1
  Zr  Zr3  1  0.69975469  0.09898082  0.09874590  1
  Zr  Zr4  1  0.49876494  0.29550482  0.50882032  1
  Zr  Zr5  1  0.70483217  0.31109850  0.70823167  1
  Zr  Zr6  1  0.29749926  0.50455895  0.50058649  1
  Zr  Zr7  1  0.49826610  0.90632421  0.89893281  1
  Zr  Zr8  1  0.70081848  0.30123950  0.09785943  1
  Zr  Zr9  1  0.50295124  0.70723429  0.30313021  1
  Zr  Zr10  1  0.09288857  0.30238958  0.70349867  1
  Zr  Zr11  1  0.11096663  0.89547757  0.69947574  1
  Zr  Zr12  1  0.30128189  0.50540394  0.09529584  1
  Zr  Zr13  1  0.90667495  0.50298108  0.89707798  1
  Zr  Zr14  1  0.69722324  0.89888236  0.10221020  1
  Zr  Zr15  1  0.30377792  0.29308090  0.89560714  1
  Zr  Zr16  1  0.10586431  0.09766455  0.69928218  1
  Zr  Zr17  1  0.70542827  0.29536344  0.29841917  1
  Zr  Zr18  1  0.11036088  0.89143736  0.50284585  1
  Zr  Zr19  1  0.90027630  0.10707666  0.69879896  1
  Zr  Zr20  1  0.90032377  0.29587230  0.29784512  1
  Zr  Zr21  1  0.50669516  0.10717590  0.50435432  1
  Zr  Zr22  1  0.10585311  0.50445592  0.89389692  1
  Zr  Zr23  1  0.50033284  0.50748450  0.29433089  1
  Zr  Zr24  1  0.50439289  0.09856579  0.30726537  1
  Zr  Zr25  1  0.30805980  0.30393183  0.70183558  1
  Zr  Zr26  1  0.49441472  0.49706245  0.10308907  1
  Zr  Zr27  1  0.89552248  0.29643352  0.10220026  1
  Zr  Zr28  1  0.89657654  0.70345163  0.09608435  1
  Zr  Zr29  1  0.69331672  0.29843717  0.50046349  1
  Zr  Zr30  1  0.70014382  0.89981359  0.89459201  1
  Zr  Zr31  1  0.90413232  0.89963443  0.50209905  1
  Zr  Zr32  1  0.10502257  0.10786372  0.30033670  1
  Zr  Zr33  1  0.70347113  0.29446773  0.90377714  1
  Zr  Zr34  1  0.90021766  0.89649138  0.90120031  1
  Zr  Zr35  1  0.29363448  0.69011676  0.89984978  1
  Zr  Zr36  1  0.29529184  0.50401657  0.89319641  1
  Zr  Zr37  1  0.49857909  0.10093206  0.69761591  1
  Zr  Zr38  1  0.48983179  0.69719837  0.89180302  1
  Zr  Zr39  1  0.49645134  0.68737344  0.10601655  1
  Zr  Zr40  1  0.90035223  0.50205817  0.29721754  1
  Zr  Zr41  1  0.50184318  0.89769425  0.30493055  1
  Zr  Zr42  1  0.30307451  0.70203237  0.70488210  1
  Zr  Zr43  1  0.90257541  0.09406132  0.10113758  1
  Zr  Zr44  1  0.30799553  0.09551633  0.09823479  1
  Zr  Zr45  1  0.49932722  0.29757232  0.70132644  1
  Zr  Zr46  1  0.69697637  0.69415774  0.69063594  1
  Zr  Zr47  1  0.70360122  0.70907744  0.30336790  1
  Zr  Zr48  1  0.08876407  0.50525186  0.69475743  1
  Zr  Zr49  1  0.90091461  0.89680222  0.70191528  1
  Sc  Sc50  1  0.50355074  0.89826318  0.50202259  1
  Sc  Sc51  1  0.50203508  0.69580163  0.69918623  1
  Sc  Sc52  1  0.90403505  0.70332424  0.69352463  1
  Sc  Sc53  1  0.30393143  0.09289465  0.70266295  1
  Sc  Sc54  1  0.29853254  0.89680688  0.87697414  1
  Sc  Sc55  1  0.29914152  0.90831358  0.11376053  1
  Sc  Sc56  1  0.09952843  0.69657751  0.89131542  1
  Sc  Sc57  1  0.69840331  0.70231596  0.10521006  1
  Sc  Sc58  1  0.30394506  0.30444316  0.09883012  1
  Sc  Sc59  1  0.90573298  0.29632265  0.50291092  1
  Sc  Sc60  1  0.69235141  0.48903787  0.89595746  1
  Sc  Sc61  1  0.29487057  0.09885901  0.29833081  1
  Sc  Sc62  1  0.69793402  0.70642075  0.89146954  1
  Sc  Sc63  1  0.49872567  0.50220910  0.90381882  1
  Sc  Sc64  1  0.90192170  0.50042240  0.51169962  1
  Sc  Sc65  1  0.48918862  0.09488119  0.90270663  1
  Sc  Sc66  1  0.30298587  0.29922888  0.50027353  1
  Sc  Sc67  1  0.69251291  0.49957136  0.10045601  1
  Sc  Sc68  1  0.89302056  0.90138421  0.30903038  1
  Sc  Sc69  1  0.10050588  0.10114282  0.49259786  1
  Sc  Sc70  1  0.90145679  0.10241547  0.48909997  1
  Sc  Sc71  1  0.89594070  0.10349922  0.30196815  1
  Sc  Sc72  1  0.70091708  0.89968861  0.49966005  1
  Sc  Sc73  1  0.50221041  0.49691850  0.70312769  1
  Sc  Sc74  1  0.51010909  0.30310279  0.31166296  1
  Sc  Sc75  1  0.09265915  0.50383037  0.10003694  1
  Sc  Sc76  1  0.89662525  0.70341703  0.29873761  1
  Sc  Sc77  1  0.09200457  0.70662756  0.10464598  1
  Sc  Sc78  1  0.29684647  0.69262776  0.10064092  1
  Sc  Sc79  1  0.70546991  0.09314221  0.30393463  1
  Sc  Sc80  1  0.29892721  0.49632429  0.30076471  1
  Sc  Sc81  1  0.49460273  0.70221212  0.50449764  1
  Sc  Sc82  1  0.90044789  0.10647924  0.89967838  1
  Sc  Sc83  1  0.29938780  0.10292895  0.50277602  1
  Sc  Sc84  1  0.28810869  0.30095303  0.30171743  1
  Sc  Sc85  1  0.89452887  0.70431729  0.49560010  1
  Sc  Sc86  1  0.69874526  0.09193500  0.70303315  1
  Sc  Sc87  1  0.89784613  0.49922825  0.10245583  1
  Sc  Sc88  1  0.10985824  0.89591799  0.30103592  1
  Sc  Sc89  1  0.90708952  0.89115515  0.09064334  1
  Sc  Sc90  1  0.49339911  0.90506399  0.70148787  1
  Sc  Sc91  1  0.10018735  0.10838512  0.09474504  1
  Sc  Sc92  1  0.30541977  0.70373454  0.30846066  1
  Sc  Sc93  1  0.49633523  0.08642446  0.09011495  1
  Sc  Sc94  1  0.70679794  0.50342368  0.51433224  1
  Sc  Sc95  1  0.10059111  0.29811002  0.49242807  1
  Sc  Sc96  1  0.29975702  0.89844506  0.30291649  1
  Sc  Sc97  1  0.69946444  0.49889155  0.29501665  1
  Sc  Sc98  1  0.90315603  0.71148922  0.89589132  1
  Sc  Sc99  1  0.50166753  0.50182446  0.50798473  1
  Nb  Nb100  1  0.68849280  0.89638502  0.30328089  1
  Nb  Nb101  1  0.89197370  0.48654601  0.69620320  1
  Nb  Nb102  1  0.69530851  0.09682631  0.89984036  1
  Nb  Nb103  1  0.69622425  0.10771850  0.50339997  1
  Nb  Nb104  1  0.29326696  0.49486076  0.70446714  1
  Nb  Nb105  1  0.29862799  0.09726341  0.90206472  1
  Nb  Nb106  1  0.49658628  0.29719457  0.09532191  1
  Nb  Nb107  1  0.09894202  0.90483682  0.09714803  1
  Nb  Nb108  1  0.50048061  0.29549496  0.90135955  1
  Nb  Nb109  1  0.09828461  0.30185784  0.09959084  1
  Nb  Nb110  1  0.89705726  0.29941270  0.88946319  1
  Nb  Nb111  1  0.89711752  0.30455372  0.70255007  1
  Nb  Nb112  1  0.10796657  0.69677445  0.50200633  1
  Nb  Nb113  1  0.10337545  0.70170252  0.30560760  1
  Nb  Nb114  1  0.70968232  0.49855630  0.69989305  1
  Nb  Nb115  1  0.09948112  0.70683025  0.68990569  1
  Nb  Nb116  1  0.30062208  0.70594416  0.50054066  1
  Nb  Nb117  1  0.29554570  0.90516480  0.68955051  1
  Nb  Nb118  1  0.69792401  0.69610987  0.50011285  1
  Nb  Nb119  1  0.10512858  0.10038752  0.89995377  1
  Nb  Nb120  1  0.10224227  0.30585747  0.29549836  1
  Nb  Nb121  1  0.10236391  0.49948734  0.49843984  1
  Nb  Nb122  1  0.10334432  0.29279610  0.90200605  1
  Nb  Nb123  1  0.30394247  0.90046265  0.50883779  1
  Nb  Nb124  1  0.10496512  0.49528697  0.30503054  1
  Nb  Nb125  1  0.40191825  -0.00085168  0.40638798  1
  Nb  Nb126  1  0.00376742  0.40534004  0.39554460  1
  Nb  Nb127  1  0.79780675  0.20254117  0.60357422  1
  Nb  Nb128  1  0.79922393  0.60188306  -0.00809763  1
  Nb  Nb129  1  0.40976365  0.20278686  0.19876581  1
  Nb  Nb130  1  0.80547718  0.39946961  0.40104912  1
  Nb  Nb131  1  0.19675433  0.40263612  0.60234135  1
  Nb  Nb132  1  0.19195380  0.39465907  -0.00453038  1
  Nb  Nb133  1  0.79696679  -0.00122853  -0.00338558  1
  Nb  Nb134  1  0.39554432  0.80029572  -0.00169551  1
  Nb  Nb135  1  0.19105507  0.60086600  0.21077598  1
  Nb  Nb136  1  0.00565959  -0.00253763  0.19912261  1
  Nb  Nb137  1  0.58899979  0.79952506  0.00040058  1
  Nb  Nb138  1  0.19918082  0.20614972  0.60514729  1
  Nb  Nb139  1  0.01329062  0.59878488  0.40037191  1
  Nb  Nb140  1  0.40252480  0.40175960  0.40458206  1
  Nb  Nb141  1  0.59956657  0.20025944  0.80733084  1
  Nb  Nb142  1  0.80162927  0.59340641  0.79525630  1
  Nb  Nb143  1  0.60541985  0.60508695  0.40380268  1
  Nb  Nb144  1  0.00368229  0.38697826  -0.00545597  1
  Nb  Nb145  1  0.00537905  0.00295946  0.79890449  1
  Nb  Nb146  1  0.20173151  0.80655478  0.00031795  1
  Nb  Nb147  1  0.00231141  -0.00302042  0.60201691  1
  Nb  Nb148  1  0.59512863  0.19999757  0.19332898  1
  Nb  Nb149  1  0.19713226  -0.00151342  -0.00591146  1
  Pd  Pd150  1  0.60304105  0.41318834  0.40700928  1
  Pd  Pd151  1  0.20811780  0.20034042  0.00639549  1
  Pd  Pd152  1  0.19916970  0.40776567  0.18918675  1
  Pd  Pd153  1  0.60613513  0.59459480  0.79983931  1
  Pd  Pd154  1  0.00104033  0.19616380  0.59508335  1
  Pd  Pd155  1  0.00142880  0.79505711  0.39971452  1
  Pd  Pd156  1  0.79399521  0.59855076  0.19157979  1
  Pd  Pd157  1  -0.00553441  0.60704962  0.59211056  1
  Pd  Pd158  1  0.59743497  0.00538209  0.20232228  1
  Pd  Pd159  1  0.79337596  -0.00152983  0.40525744  1
  Pd  Pd160  1  0.40152836  0.38994189  0.21258854  1
  Pd  Pd161  1  0.59449288  0.39999764  -0.00038395  1
  Pd  Pd162  1  0.39959528  0.59640529  0.60758269  1
  Pd  Pd163  1  0.80662065  0.40829708  -0.00388598  1
  Pd  Pd164  1  0.20353332  0.79351627  0.19434135  1
  Pd  Pd165  1  0.59047342  0.19313507  -0.00063811  1
  Pd  Pd166  1  0.20410137  0.59969865  0.60573835  1
  Pd  Pd167  1  0.80829954  0.00546751  0.80661436  1
  Pd  Pd168  1  0.20878310  -0.00184521  0.40441689  1
  Pd  Pd169  1  0.40621926  0.59667093  0.40188762  1
  Pd  Pd170  1  0.80573427  0.00868953  0.59198219  1
  Pd  Pd171  1  0.00126577  0.19641605  0.80337886  1
  Pd  Pd172  1  0.60121757  -0.00571092  0.59905728  1
  Pd  Pd173  1  0.39382144  0.40087184  -0.00833672  1
  Pd  Pd174  1  0.00070843  0.40052813  0.19783778  1
  Pd  Pd175  1  -0.00222929  0.60412603  0.00035555  1
  Pd  Pd176  1  0.80494073  0.19345306  -0.00049017  1
  Pd  Pd177  1  0.80030941  0.59267020  0.40534469  1
  Pd  Pd178  1  0.40716990  0.40537755  0.80713421  1
  Pd  Pd179  1  0.40273170  0.80109599  0.60563621  1
  Pd  Pd180  1  0.80822173  -0.01019482  0.19612039  1
  Pd  Pd181  1  0.00587585  -0.00271326  0.39545151  1
  Pd  Pd182  1  0.00115136  0.19424939  0.20262244  1
  Pd  Pd183  1  0.00352175  0.60498311  0.20772972  1
  Pd  Pd184  1  -0.00723720  0.60696025  0.78995225  1
  Pd  Pd185  1  0.00206883  0.39920616  0.80547824  1
  Pd  Pd186  1  0.20840221  0.20126731  0.19139781  1
  Pd  Pd187  1  0.59346224  0.80106710  0.79755994  1
  Pd  Pd188  1  0.60071742  0.40512682  0.60372134  1
  Pd  Pd189  1  0.20589047  0.19798459  0.79253801  1
  Pd  Pd190  1  0.39407368  0.20255326  0.39257753  1
  Pd  Pd191  1  0.79776059  0.79695785  0.59791669  1
  Pd  Pd192  1  0.20300983  0.60525599  0.39617341  1
  Pd  Pd193  1  0.80472618  0.80904119  0.20243442  1
  Pd  Pd194  1  0.59732424  0.80329932  0.60015876  1
  Pd  Pd195  1  -0.00243885  0.80934777  0.20870015  1
  Pd  Pd196  1  0.39201712  0.79416436  0.19563418  1
  Pd  Pd197  1  0.59744651  0.39289130  0.19727003  1
  Pd  Pd198  1  0.60772227  0.60715623  -0.00512454  1
  Pd  Pd199  1  -0.00421126  0.20252069  -0.00343490  1
  Rh  Rh200  1  0.20745325  0.79883164  0.40445959  1
  Rh  Rh201  1  0.39531496  0.80989327  0.40858939  1
  Rh  Rh202  1  0.19941183  0.20412467  0.40448631  1
  Rh  Rh203  1  0.01087942  0.79110199  -0.00325238  1
  Rh  Rh204  1  0.79168112  0.19841729  0.79464309  1
  Rh  Rh205  1  0.19921933  0.00332201  0.80514310  1
  Rh  Rh206  1  0.60654945  0.60568380  0.20992430  1
  Rh  Rh207  1  0.60907783  0.19440234  0.39137207  1
  Rh  Rh208  1  0.39916873  0.59138206  0.79298337  1
  Rh  Rh209  1  0.39910609  0.19995949  0.00307550  1
  Rh  Rh210  1  0.79580133  0.20383391  0.41112552  1
  Rh  Rh211  1  0.38735597  0.60201844  0.20781193  1
  Rh  Rh212  1  0.60660620  -0.00727301  -0.00477136  1
  Rh  Rh213  1  0.79326386  0.19556401  0.19720922  1
  Rh  Rh214  1  0.40519706  0.19316187  0.80311760  1
  Rh  Rh215  1  0.20977094  0.79218554  0.60048849  1
  Rh  Rh216  1  0.59733677  0.79842683  0.19487335  1
  Rh  Rh217  1  0.40234371  0.00847887  0.21721016  1
  Rh  Rh218  1  0.80720627  0.60504303  0.60619825  1
  Rh  Rh219  1  0.39207465  0.40719683  0.59451139  1
  Rh  Rh220  1  0.39959917  0.80163709  0.79540546  1
  Rh  Rh221  1  0.00320802  0.80101617  0.59298484  1
  Rh  Rh222  1  0.80374521  0.40621690  0.80984955  1
  Rh  Rh223  1  0.00023708  0.00703038  -0.00195870  1
  Rh  Rh224  1  0.61311878  0.20215158  0.61769130  1
  Rh  Rh225  1  0.79825256  0.40281546  0.20321056  1
  Rh  Rh226  1  0.18914107  0.00680923  0.19166612  1
  Rh  Rh227  1  0.79854190  0.78920652  0.78944369  1
  Rh  Rh228  1  0.18982918  0.60192199  0.01289505  1
  Rh  Rh229  1  0.39697068  0.00107670  0.79691604  1
  Rh  Rh230  1  0.59360881  0.00803837  0.80090315  1
  Rh  Rh231  1  0.78538688  0.79753658  -0.00111919  1
  Rh  Rh232  1  0.00569177  0.20804623  0.39058945  1
  Rh  Rh233  1  0.38963837  0.19602935  0.60426901  1
  Rh  Rh234  1  0.60025496  0.00177988  0.40819915  1
  Rh  Rh235  1  0.19840236  0.79209382  0.79860721  1
  Rh  Rh236  1  0.40095047  0.00272827  0.59287988  1
  Rh  Rh237  1  0.00457290  0.80182994  0.79366537  1
  Rh  Rh238  1  0.59871582  0.59676573  0.59702291  1
  Rh  Rh239  1  0.38024130  -0.01618229  -0.00974790  1
  Rh  Rh240  1  0.59296496  0.39326748  0.80367939  1
  Rh  Rh241  1  0.19653882  0.00842791  0.59217479  1
  Rh  Rh242  1  0.19359185  0.60618208  0.78420067  1
  Rh  Rh243  1  0.79473785  0.80598732  0.40328331  1
  Rh  Rh244  1  0.60324116  0.79399175  0.40977283  1
  Rh  Rh245  1  0.00421150  0.39747667  0.59338879  1
  Rh  Rh246  1  0.20180296  0.39595919  0.40885657  1
  Rh  Rh247  1  0.80325867  0.38852435  0.59087077  1
  Rh  Rh248  1  0.40151412  0.60218454  -0.00319839  1
  Rh  Rh249  1  0.19372041  0.39905922  0.79886452  1
