# generated using pymatgen
data_ZrScNbPdRh
_symmetry_space_group_name_H-M   'P 1'
_cell_length_a   16.55648115
_cell_length_b   16.55859819
_cell_length_c   16.55853330
_cell_angle_alpha   90.00029174
_cell_angle_beta   89.96726308
_cell_angle_gamma   89.98346958
_symmetry_Int_Tables_number   1
_chemical_formula_structural   ZrScNbPdRh
_chemical_formula_sum   'Zr50 Sc50 Nb50 Pd50 Rh50'
_cell_volume   4539.55605728
_cell_formula_units_Z   50
loop_
 _symmetry_equiv_pos_site_id
 _symmetry_equiv_pos_as_xyz
  1  'x, y, z'
loop_
 _atom_site_type_symbol
 _atom_site_label
 _atom_site_symmetry_multiplicity
 _atom_site_fract_x
 _atom_site_fract_y
 _atom_site_fract_z
 _atom_site_occupancy
  Zr  Zr0  1  0.89948489  0.90486279  0.50153198  1
  Zr  Zr1  1  0.90436911  0.09521823  0.89778259  1
  Zr  Zr2  1  0.10612110  0.29557008  0.90032099  1
  Zr  Zr3  1  0.71262943  0.69748178  0.30067264  1
  Zr  Zr4  1  0.29565221  0.29563334  0.10103533  1
  Zr  Zr5  1  0.29725456  0.49939215  0.10547370  1
  Zr  Zr6  1  0.50403999  0.70253968  0.29669898  1
  Zr  Zr7  1  0.30803224  0.49370506  0.69266153  1
  Zr  Zr8  1  0.29828859  0.10479224  0.29624992  1
  Zr  Zr9  1  0.30429272  0.70254476  0.50426935  1
  Zr  Zr10  1  0.49437861  0.89910495  0.50097325  1
  Zr  Zr11  1  0.10376008  0.71620136  0.49909856  1
  Zr  Zr12  1  0.69281149  0.50100296  0.09283534  1
  Zr  Zr13  1  0.50412149  0.49417418  0.50660747  1
  Zr  Zr14  1  0.49908848  0.50155786  0.70576667  1
  Zr  Zr15  1  0.70025829  0.90696231  0.49872931  1
  Zr  Zr16  1  0.69476846  0.70889059  0.10381151  1
  Zr  Zr17  1  0.69723853  0.29433189  0.08675039  1
  Zr  Zr18  1  0.90432024  0.50114190  0.29684658  1
  Zr  Zr19  1  0.09459305  0.90510142  0.09634439  1
  Zr  Zr20  1  0.90802585  0.49342620  0.10091968  1
  Zr  Zr21  1  0.71137052  0.10817441  0.50484023  1
  Zr  Zr22  1  0.49508231  0.89787595  0.90369402  1
  Zr  Zr23  1  0.70208482  0.90222597  0.71449263  1
  Zr  Zr24  1  0.49431162  0.90159436  0.70666963  1
  Zr  Zr25  1  0.49726240  0.29132925  0.70431098  1
  Zr  Zr26  1  0.48998408  0.10185728  0.09372853  1
  Zr  Zr27  1  0.29983007  0.89580465  0.89434831  1
  Zr  Zr28  1  0.69254820  0.30495880  0.49697110  1
  Zr  Zr29  1  0.70254936  0.69663664  0.50302322  1
  Zr  Zr30  1  0.30234776  0.69297652  0.09102362  1
  Zr  Zr31  1  0.09760963  0.70782586  0.29639113  1
  Zr  Zr32  1  0.90112273  0.70145516  0.89731406  1
  Zr  Zr33  1  0.70027115  0.09924688  0.90167377  1
  Zr  Zr34  1  0.49589311  0.09970057  0.49554553  1
  Zr  Zr35  1  0.30339452  0.30009634  0.89885924  1
  Zr  Zr36  1  0.09388406  0.10138287  0.90086614  1
  Zr  Zr37  1  0.90119794  0.70387793  0.11356546  1
  Zr  Zr38  1  0.70317471  0.49486596  0.31257171  1
  Zr  Zr39  1  0.90163458  0.29714041  0.10166759  1
  Zr  Zr40  1  0.69531833  0.29064356  0.69189504  1
  Zr  Zr41  1  0.10666985  0.49386726  0.09886939  1
  Zr  Zr42  1  0.70642386  0.10115890  0.10037818  1
  Zr  Zr43  1  0.90022628  0.90079865  0.89172252  1
  Zr  Zr44  1  0.50371670  0.50433007  0.90221348  1
  Zr  Zr45  1  0.31161132  0.90033281  0.09062494  1
  Zr  Zr46  1  0.09589751  0.69984308  0.70559647  1
  Zr  Zr47  1  0.49883764  0.70537720  0.50583984  1
  Zr  Zr48  1  0.10107208  0.89577155  0.69835869  1
  Zr  Zr49  1  0.28873678  0.30909197  0.50614778  1
  Sc  Sc50  1  0.29704355  0.10166390  0.10110697  1
  Sc  Sc51  1  0.70059091  0.89912166  0.30346416  1
  Sc  Sc52  1  0.90358908  0.09794534  0.10108884  1
  Sc  Sc53  1  0.09894145  0.29719931  0.30212614  1
  Sc  Sc54  1  0.10293630  0.47863081  0.49930204  1
  Sc  Sc55  1  0.30431457  0.30299585  0.70984262  1
  Sc  Sc56  1  0.30282430  0.90212812  0.69851761  1
  Sc  Sc57  1  0.30364404  0.70054828  0.29297783  1
  Sc  Sc58  1  0.49905716  0.51249963  0.09767936  1
  Sc  Sc59  1  0.31090238  0.70290695  0.70463659  1
  Sc  Sc60  1  0.30233923  0.50248584  0.90250504  1
  Sc  Sc61  1  0.69567338  0.69551225  0.70456197  1
  Sc  Sc62  1  0.90086595  0.69847852  0.70661676  1
  Sc  Sc63  1  0.89940061  0.49613762  0.89333033  1
  Sc  Sc64  1  0.69580635  0.70391591  0.89629206  1
  Sc  Sc65  1  0.50048221  0.70157801  0.70491966  1
  Sc  Sc66  1  0.89960370  0.90265322  0.09981999  1
  Sc  Sc67  1  0.90763515  0.29676914  0.30031051  1
  Sc  Sc68  1  0.10293707  0.69916025  0.09419709  1
  Sc  Sc69  1  0.10236401  0.70726669  0.89783746  1
  Sc  Sc70  1  0.89810682  0.49720353  0.49497744  1
  Sc  Sc71  1  0.31142448  0.09645613  0.69944953  1
  Sc  Sc72  1  0.69972297  0.50173264  0.89823683  1
  Sc  Sc73  1  0.30137236  0.90638707  0.30009753  1
  Sc  Sc74  1  0.50622686  0.29342159  0.49521637  1
  Sc  Sc75  1  0.90440125  0.29386975  0.50126019  1
  Sc  Sc76  1  0.70074904  0.89909871  0.90407474  1
  Sc  Sc77  1  0.29933069  0.09337570  0.50280832  1
  Sc  Sc78  1  0.30037771  0.69999527  0.90026189  1
  Sc  Sc79  1  0.69790893  0.29409064  0.30894400  1
  Sc  Sc80  1  0.09809557  0.10079060  0.09737118  1
  Sc  Sc81  1  0.49425395  0.10222407  0.89480423  1
  Sc  Sc82  1  0.29628369  0.29714143  0.28956841  1
  Sc  Sc83  1  0.10107821  0.90336647  0.30035309  1
  Sc  Sc84  1  0.70705942  0.09904474  0.30605812  1
  Sc  Sc85  1  0.89907338  0.10233789  0.29373540  1
  Sc  Sc86  1  0.89820028  0.70076131  0.49580344  1
  Sc  Sc87  1  0.90259419  0.30396103  0.90439115  1
  Sc  Sc88  1  0.49889538  0.90131336  0.30440984  1
  Sc  Sc89  1  0.50048681  0.70293640  0.09795412  1
  Sc  Sc90  1  0.09978027  0.49442720  0.90065859  1
  Sc  Sc91  1  0.89558346  0.10078166  0.69926543  1
  Sc  Sc92  1  0.10027430  0.30169719  0.09778739  1
  Sc  Sc93  1  0.09002576  0.29857695  0.49875913  1
  Sc  Sc94  1  0.49727957  0.50158522  0.29017061  1
  Sc  Sc95  1  0.10539513  0.10333539  0.49930174  1
  Sc  Sc96  1  0.90289507  0.89763773  0.29429622  1
  Sc  Sc97  1  0.30201165  0.10326125  0.90530348  1
  Sc  Sc98  1  0.90257576  0.50195611  0.70489874  1
  Sc  Sc99  1  0.90469181  0.30367565  0.69667153  1
  Nb  Nb100  1  0.49822139  0.29491511  0.29997753  1
  Nb  Nb101  1  0.09832257  0.90453799  0.89575913  1
  Nb  Nb102  1  0.49978947  0.29821992  0.09918360  1
  Nb  Nb103  1  0.50328125  0.29794848  0.90721272  1
  Nb  Nb104  1  0.09808047  0.10120480  0.70447865  1
  Nb  Nb105  1  0.50585687  0.90055993  0.09991077  1
  Nb  Nb106  1  0.29788190  0.50073494  0.29820168  1
  Nb  Nb107  1  0.09705238  0.49679628  0.69616549  1
  Nb  Nb108  1  0.69576645  0.49724185  0.69496588  1
  Nb  Nb109  1  0.89938743  0.90065323  0.70357887  1
  Nb  Nb110  1  0.49639265  0.69207199  0.89551865  1
  Nb  Nb111  1  0.69442468  0.30048156  0.90100986  1
  Nb  Nb112  1  0.50107083  0.09792308  0.69529774  1
  Nb  Nb113  1  0.10047085  0.30267946  0.69691011  1
  Nb  Nb114  1  0.28752329  0.90243251  0.50828100  1
  Nb  Nb115  1  0.68492071  0.90261142  0.10112632  1
  Nb  Nb116  1  0.90180471  0.09686067  0.49861649  1
  Nb  Nb117  1  0.10151726  0.49667289  0.29817364  1
  Nb  Nb118  1  0.10009452  0.09965436  0.30032633  1
  Nb  Nb119  1  0.69625469  0.10285359  0.69972597  1
  Nb  Nb120  1  0.90321084  0.69459983  0.30000703  1
  Nb  Nb121  1  0.49554677  0.10867411  0.30193915  1
  Nb  Nb122  1  0.10602912  0.90451145  0.50513951  1
  Nb  Nb123  1  0.69714139  0.49841866  0.50291026  1
  Nb  Nb124  1  0.30190362  0.49994270  0.49989655  1
  Nb  Nb125  1  0.20316965  0.80519342  0.19057803  1
  Nb  Nb126  1  0.40572617  0.39559477  0.00434116  1
  Nb  Nb127  1  0.79327397  0.39656303  0.19818746  1
  Nb  Nb128  1  0.19808845  0.59508473  0.59765176  1
  Nb  Nb129  1  0.59275481  0.19764388  0.20071143  1
  Nb  Nb130  1  0.80553391  0.60507341  0.00456999  1
  Nb  Nb131  1  0.60236987  0.39379058  0.80132518  1
  Nb  Nb132  1  0.39799198  0.59396208  0.40166598  1
  Nb  Nb133  1  0.79199497  0.20235172  0.80165224  1
  Nb  Nb134  1  0.20021375  0.59433819  0.40147593  1
  Nb  Nb135  1  0.19514116  0.20218459  0.61034925  1
  Nb  Nb136  1  0.60059755  0.00511045  0.60532855  1
  Nb  Nb137  1  0.79095681  0.40391087  0.59884843  1
  Nb  Nb138  1  0.19286588  0.00087070  0.80020870  1
  Nb  Nb139  1  -0.00487779  0.59956031  0.00031831  1
  Nb  Nb140  1  0.00952376  0.60019863  0.39831255  1
  Nb  Nb141  1  0.59540930  0.00455892  0.19797172  1
  Nb  Nb142  1  0.39588905  0.40287283  0.39527070  1
  Nb  Nb143  1  0.59893907  0.59868603  0.40484392  1
  Nb  Nb144  1  0.19749381  0.59497548  0.78924580  1
  Nb  Nb145  1  0.01034074  0.59835459  0.59337915  1
  Nb  Nb146  1  0.00297553  -0.00100503  0.59923972  1
  Nb  Nb147  1  0.59856116  0.39064506  0.19747379  1
  Nb  Nb148  1  0.79970139  0.80583870  0.60501226  1
  Nb  Nb149  1  0.00200767  0.00314305  0.40647127  1
  Pd  Pd150  1  0.80538176  0.80261669  0.40319360  1
  Pd  Pd151  1  -0.00953755  0.20672742  0.79861919  1
  Pd  Pd152  1  0.80987094  0.19793332  -0.00825897  1
  Pd  Pd153  1  -0.00982193  0.79891333  0.60198829  1
  Pd  Pd154  1  0.79480489  0.59080423  0.19444100  1
  Pd  Pd155  1  0.38663700  0.21012047  0.40414686  1
  Pd  Pd156  1  0.39155287  0.80052817  0.39897534  1
  Pd  Pd157  1  0.21012379  0.80167969  0.39007156  1
  Pd  Pd158  1  0.19830796  0.80224583  0.00137236  1
  Pd  Pd159  1  0.80939818  0.39141384  0.40220986  1
  Pd  Pd160  1  -0.00466638  0.80562379  0.39722885  1
  Pd  Pd161  1  0.79444292  -0.00545575  0.20156822  1
  Pd  Pd162  1  0.59547508  0.00217655  0.80146275  1
  Pd  Pd163  1  0.00280837  0.19255853  0.60101425  1
  Pd  Pd164  1  0.59552922  0.00610804  -0.00030584  1
  Pd  Pd165  1  0.00599027  0.19822767  0.19857686  1
  Pd  Pd166  1  0.00335267  0.39583906  0.80133671  1
  Pd  Pd167  1  0.60792257  0.80874951  0.60880698  1
  Pd  Pd168  1  0.40511927  0.00063764  0.20212517  1
  Pd  Pd169  1  0.60620637  0.59525786  0.20759391  1
  Pd  Pd170  1  0.19956466  0.40598086  0.79766325  1
  Pd  Pd171  1  0.40877353  0.38783631  0.59378949  1
  Pd  Pd172  1  0.19902629  -0.00294563  0.19514624  1
  Pd  Pd173  1  0.20211753  0.00317704  -0.00626660  1
  Pd  Pd174  1  0.79861755  0.80024827  0.00323489  1
  Pd  Pd175  1  0.19696019  0.00263015  0.39952673  1
  Pd  Pd176  1  0.20877063  0.79371640  0.61123427  1
  Pd  Pd177  1  0.79738642  0.81056314  0.19924316  1
  Pd  Pd178  1  0.80269373  -0.00725276  0.00175336  1
  Pd  Pd179  1  0.60160322  0.00760068  0.39966480  1
  Pd  Pd180  1  0.19644123  0.60698086  0.20411674  1
  Pd  Pd181  1  0.40460685  0.39914956  0.19777569  1
  Pd  Pd182  1  0.39829619  0.80082945  0.19676134  1
  Pd  Pd183  1  0.39174272  -0.00226181  0.40200036  1
  Pd  Pd184  1  0.39136622  0.20410548  0.59619697  1
  Pd  Pd185  1  0.20743649  0.19125036  0.79491482  1
  Pd  Pd186  1  0.60445864  0.79540452  0.39745006  1
  Pd  Pd187  1  0.79904350  -0.00163892  0.60951163  1
  Pd  Pd188  1  0.80826920  0.20423069  0.39908799  1
  Pd  Pd189  1  0.80099421  0.40663454  0.00009201  1
  Pd  Pd190  1  -0.00157870  0.79799495  -0.00093465  1
  Pd  Pd191  1  0.01148785  0.59990218  0.19760316  1
  Pd  Pd192  1  0.20263819  0.39757875  0.39049023  1
  Pd  Pd193  1  0.59392109  0.79420595  -0.00750889  1
  Pd  Pd194  1  0.59530719  0.60346846  0.60143327  1
  Pd  Pd195  1  0.79165085  0.39187921  0.79160485  1
  Pd  Pd196  1  0.59918732  0.19914602  0.80534010  1
  Pd  Pd197  1  0.79373216  0.60023507  0.80403097  1
  Pd  Pd198  1  0.20162710  0.20198739  0.40636408  1
  Pd  Pd199  1  0.81049091  0.59791387  0.60055056  1
  Rh  Rh200  1  0.60715953  0.61129356  -0.00298954  1
  Rh  Rh201  1  0.39237279  0.59953743  0.80130010  1
  Rh  Rh202  1  0.41187847  0.39933482  0.81285471  1
  Rh  Rh203  1  0.19482776  0.00962649  0.60946842  1
  Rh  Rh204  1  -0.00481618  -0.00162923  -0.00020721  1
  Rh  Rh205  1  0.39727297  0.80808842  0.60235773  1
  Rh  Rh206  1  0.59836021  0.81051398  0.20672179  1
  Rh  Rh207  1  0.59199985  0.40209515  -0.00116840  1
  Rh  Rh208  1  0.00222068  0.00440825  0.20766730  1
  Rh  Rh209  1  0.40784604  0.79326286  -0.00362700  1
  Rh  Rh210  1  0.00405587  -0.00368636  0.79138708  1
  Rh  Rh211  1  0.00099912  0.39351402  0.20340781  1
  Rh  Rh212  1  0.40029534  0.60295409  0.59972184  1
  Rh  Rh213  1  0.80740078  0.20710125  0.60452249  1
  Rh  Rh214  1  0.80291329  0.60020579  0.40502812  1
  Rh  Rh215  1  0.60283088  0.59462560  0.79978433  1
  Rh  Rh216  1  0.00609582  0.80462388  0.19841446  1
  Rh  Rh217  1  -0.00051644  0.20246831  0.00176570  1
  Rh  Rh218  1  0.19726104  0.39670452  0.60755934  1
  Rh  Rh219  1  0.60273042  0.19121247  0.39711379  1
  Rh  Rh220  1  0.20202278  0.80171095  0.79888049  1
  Rh  Rh221  1  0.81094436  0.00179748  0.39230869  1
  Rh  Rh222  1  0.39872063  0.60484471  0.20146470  1
  Rh  Rh223  1  0.59421397  0.79865442  0.80549374  1
  Rh  Rh224  1  0.58559822  0.40825402  0.38901531  1
  Rh  Rh225  1  -0.01090620  0.40673019  0.59927521  1
  Rh  Rh226  1  0.39367633  0.00399122  0.80354310  1
  Rh  Rh227  1  0.20971899  0.39808035  -0.00132679  1
  Rh  Rh228  1  0.40304869  0.79700076  0.80401704  1
  Rh  Rh229  1  0.19798959  0.19912267  0.00110902  1
  Rh  Rh230  1  0.40032513  0.19793215  0.19876711  1
  Rh  Rh231  1  0.80010871  0.79503108  0.79494980  1
  Rh  Rh232  1  0.39955728  0.00042660  -0.00356859  1
  Rh  Rh233  1  -0.00206469  0.40340501  0.39693021  1
  Rh  Rh234  1  0.79194909  0.21038968  0.20033174  1
  Rh  Rh235  1  0.39709258  0.20587314  -0.00071401  1
  Rh  Rh236  1  0.40213596  0.19649429  0.80111133  1
  Rh  Rh237  1  0.59424599  0.18990117  0.59130112  1
  Rh  Rh238  1  0.40063679  0.59645653  -0.00138847  1
  Rh  Rh239  1  0.40391259  -0.00453484  0.59649242  1
  Rh  Rh240  1  0.00388908  0.40061008  -0.00394896  1
  Rh  Rh241  1  0.59597594  0.19048656  0.00152857  1
  Rh  Rh242  1  0.59919945  0.39637661  0.60870320  1
  Rh  Rh243  1  0.80035825  0.00944651  0.80011407  1
  Rh  Rh244  1  -0.00094430  0.80437095  0.80169608  1
  Rh  Rh245  1  0.19191398  0.19590018  0.19936272  1
  Rh  Rh246  1  0.19043913  0.59804712  -0.01472160  1
  Rh  Rh247  1  0.19530072  0.39550243  0.20326664  1
  Rh  Rh248  1  0.00067135  0.18885047  0.39702126  1
  Rh  Rh249  1  0.00826181  0.59671690  0.80451285  1
