# generated using pymatgen
data_ZrScNbPdRh
_symmetry_space_group_name_H-M   'P 1'
_cell_length_a   16.55724312
_cell_length_b   16.55889016
_cell_length_c   16.55713682
_cell_angle_alpha   89.97743707
_cell_angle_beta   90.01691940
_cell_angle_gamma   89.99081977
_symmetry_Int_Tables_number   1
_chemical_formula_structural   ZrScNbPdRh
_chemical_formula_sum   'Zr50 Sc50 Nb50 Pd50 Rh50'
_cell_volume   4539.46247720
_cell_formula_units_Z   50
loop_
 _symmetry_equiv_pos_site_id
 _symmetry_equiv_pos_as_xyz
  1  'x, y, z'
loop_
 _atom_site_type_symbol
 _atom_site_label
 _atom_site_symmetry_multiplicity
 _atom_site_fract_x
 _atom_site_fract_y
 _atom_site_fract_z
 _atom_site_occupancy
  Zr  Zr0  1  0.50331219  0.29639851  0.49399419  1
  Zr  Zr1  1  0.89191484  0.30190496  0.50244327  1
  Zr  Zr2  1  0.70036510  0.91344389  0.69688074  1
  Zr  Zr3  1  0.29791838  0.11444216  0.70443067  1
  Zr  Zr4  1  0.70239679  0.50292255  0.70299698  1
  Zr  Zr5  1  0.70022185  0.70378214  0.30073052  1
  Zr  Zr6  1  0.89214924  0.50062932  0.69742906  1
  Zr  Zr7  1  0.29696635  0.29522836  0.89665175  1
  Zr  Zr8  1  0.29472795  0.69605429  0.48526218  1
  Zr  Zr9  1  0.69600254  0.10358424  0.10534468  1
  Zr  Zr10  1  0.70221592  0.50701897  0.29664563  1
  Zr  Zr11  1  0.31134780  0.30150828  0.50788770  1
  Zr  Zr12  1  0.90073996  0.30043960  0.90107920  1
  Zr  Zr13  1  0.69971805  0.90043771  0.90504073  1
  Zr  Zr14  1  0.90328671  0.31083900  0.10138212  1
  Zr  Zr15  1  0.50321855  0.50121375  0.69973810  1
  Zr  Zr16  1  0.10702097  0.50943937  0.90191894  1
  Zr  Zr17  1  0.90286569  0.69969153  0.10258270  1
  Zr  Zr18  1  0.30007689  0.91426973  0.10369288  1
  Zr  Zr19  1  0.10967757  0.29678256  0.70608220  1
  Zr  Zr20  1  0.50352060  0.29761407  0.90235398  1
  Zr  Zr21  1  0.31437587  0.89370919  0.70615183  1
  Zr  Zr22  1  0.50030153  0.49866242  0.90587649  1
  Zr  Zr23  1  0.90174086  0.49848369  0.49571469  1
  Zr  Zr24  1  0.50006749  0.30920498  0.29986385  1
  Zr  Zr25  1  0.29860751  0.09425021  0.28137906  1
  Zr  Zr26  1  0.50809031  0.89840351  0.50416078  1
  Zr  Zr27  1  0.08874794  0.10270960  0.29955061  1
  Zr  Zr28  1  0.89712483  0.09482959  0.90230748  1
  Zr  Zr29  1  0.88528316  0.10368988  0.70300924  1
  Zr  Zr30  1  0.50436462  0.70148279  0.30276181  1
  Zr  Zr31  1  0.70013413  0.49523241  0.89688159  1
  Zr  Zr32  1  0.09656889  0.69946695  0.09531305  1
  Zr  Zr33  1  0.69156457  0.29581415  0.30134143  1
  Zr  Zr34  1  0.50406271  0.09421100  0.49235977  1
  Zr  Zr35  1  0.69928954  0.70416826  0.49327102  1
  Zr  Zr36  1  0.09860194  0.29772357  0.10203749  1
  Zr  Zr37  1  0.50509492  0.09211233  0.71014843  1
  Zr  Zr38  1  0.89786205  0.90196237  0.90201865  1
  Zr  Zr39  1  0.09981937  0.70214455  0.50125136  1
  Zr  Zr40  1  0.90581273  0.90099928  0.70537826  1
  Zr  Zr41  1  0.49838853  0.70401271  0.69544835  1
  Zr  Zr42  1  0.49160768  0.91006497  0.89015801  1
  Zr  Zr43  1  0.50728292  0.09971282  0.29613348  1
  Zr  Zr44  1  0.09334611  0.88934230  0.50282093  1
  Zr  Zr45  1  0.30083915  0.70193414  0.09983488  1
  Zr  Zr46  1  0.48655506  0.48985507  0.49051419  1
  Zr  Zr47  1  0.29784478  0.49639881  0.30559135  1
  Zr  Zr48  1  0.69878122  0.30140390  0.10210663  1
  Zr  Zr49  1  0.30258838  0.89745114  0.50023671  1
  Sc  Sc50  1  0.49087752  0.10280817  0.09997063  1
  Sc  Sc51  1  0.30341582  0.69287627  0.89379673  1
  Sc  Sc52  1  0.10106875  0.50184399  0.69591360  1
  Sc  Sc53  1  0.90224923  0.70273787  0.49084957  1
  Sc  Sc54  1  0.29955356  0.70350120  0.69981508  1
  Sc  Sc55  1  0.69460254  0.68724024  0.68627672  1
  Sc  Sc56  1  0.89604606  0.09969794  0.49121707  1
  Sc  Sc57  1  0.50780829  0.70270632  0.09783723  1
  Sc  Sc58  1  0.69599665  0.70556960  0.10875366  1
  Sc  Sc59  1  0.10214462  0.10604802  0.70583715  1
  Sc  Sc60  1  0.50388060  0.30403863  0.10022500  1
  Sc  Sc61  1  0.91362024  0.69342534  0.89582556  1
  Sc  Sc62  1  0.69914359  0.49003897  0.10260399  1
  Sc  Sc63  1  0.70203309  0.89472145  0.10822741  1
  Sc  Sc64  1  0.29947311  0.50540282  0.70490405  1
  Sc  Sc65  1  0.30409553  0.09825313  0.50376210  1
  Sc  Sc66  1  0.09916389  0.50036938  0.49342348  1
  Sc  Sc67  1  0.30488147  0.50689558  0.90379216  1
  Sc  Sc68  1  0.10167323  0.71030520  0.69972745  1
  Sc  Sc69  1  0.90028429  0.90189373  0.10365377  1
  Sc  Sc70  1  0.69087765  0.69606370  0.90616893  1
  Sc  Sc71  1  0.09283809  0.90326343  0.29887817  1
  Sc  Sc72  1  0.09672767  0.49257411  0.10137406  1
  Sc  Sc73  1  0.49809203  0.10697982  0.90136081  1
  Sc  Sc74  1  0.09036746  0.10321721  0.49389071  1
  Sc  Sc75  1  0.09427856  0.70235371  0.30479997  1
  Sc  Sc76  1  0.71429350  0.30073538  0.70460360  1
  Sc  Sc77  1  0.10085047  0.10312334  0.90934209  1
  Sc  Sc78  1  0.08849628  0.89562148  0.89436563  1
  Sc  Sc79  1  0.90551201  0.09582246  0.10920836  1
  Sc  Sc80  1  0.70541725  0.09724667  0.29771966  1
  Sc  Sc81  1  0.30704606  0.89182082  0.29564992  1
  Sc  Sc82  1  0.09503906  0.90046465  0.10223185  1
  Sc  Sc83  1  0.29485908  0.50263661  0.49310483  1
  Sc  Sc84  1  0.70497714  0.50599189  0.50219415  1
  Sc  Sc85  1  0.89762353  0.90854794  0.29829438  1
  Sc  Sc86  1  0.29709908  0.49405968  0.09462006  1
  Sc  Sc87  1  0.69557378  0.10343106  0.89414112  1
  Sc  Sc88  1  0.89597259  0.50176736  0.89376481  1
  Sc  Sc89  1  0.70769152  0.09547596  0.49810941  1
  Sc  Sc90  1  0.90239105  0.29442873  0.30013980  1
  Sc  Sc91  1  0.70425137  0.89921179  0.29928014  1
  Sc  Sc92  1  0.09027572  0.30555674  0.49767504  1
  Sc  Sc93  1  0.89533323  0.69174070  0.29687217  1
  Sc  Sc94  1  0.51162113  0.70193568  0.49853077  1
  Sc  Sc95  1  0.69563008  0.30701744  0.90775201  1
  Sc  Sc96  1  0.49750679  0.69316470  0.90505948  1
  Sc  Sc97  1  0.09615411  0.30571314  0.29397018  1
  Sc  Sc98  1  0.30604967  0.09513519  0.91274185  1
  Sc  Sc99  1  0.10149402  0.29693378  0.90679434  1
  Nb  Nb100  1  0.90649921  0.30478491  0.69752942  1
  Nb  Nb101  1  0.28945623  0.29062221  0.11002293  1
  Nb  Nb102  1  0.28805430  0.10002194  0.10176422  1
  Nb  Nb103  1  0.89861640  0.90497825  0.50496507  1
  Nb  Nb104  1  0.89195710  0.50168075  0.10656532  1
  Nb  Nb105  1  0.10499094  0.89873436  0.69500926  1
  Nb  Nb106  1  0.30221901  0.69411066  0.29694021  1
  Nb  Nb107  1  0.50091330  0.90280706  0.29730739  1
  Nb  Nb108  1  0.30297372  0.29791926  0.69975758  1
  Nb  Nb109  1  0.70122093  0.10331399  0.69737255  1
  Nb  Nb110  1  0.29542584  0.29753451  0.29393761  1
  Nb  Nb111  1  0.49274481  0.49936378  0.10102648  1
  Nb  Nb112  1  0.90348230  0.50469395  0.29559498  1
  Nb  Nb113  1  0.50294458  0.89737319  0.70039624  1
  Nb  Nb114  1  0.48801292  0.29642218  0.69291318  1
  Nb  Nb115  1  0.30357944  0.89929084  0.89997214  1
  Nb  Nb116  1  0.90705208  0.09663445  0.30336207  1
  Nb  Nb117  1  0.10262996  0.70002522  0.91020348  1
  Nb  Nb118  1  0.10164698  0.49831566  0.30097729  1
  Nb  Nb119  1  0.49675777  0.49908820  0.29507866  1
  Nb  Nb120  1  0.11541441  0.09884871  0.10746908  1
  Nb  Nb121  1  0.89279556  0.69499687  0.69782937  1
  Nb  Nb122  1  0.50346380  0.89644673  0.09688352  1
  Nb  Nb123  1  0.70946794  0.89789413  0.50012632  1
  Nb  Nb124  1  0.69579703  0.29368758  0.49906489  1
  Nb  Nb125  1  0.80505747  0.79395414  -0.00396853  1
  Nb  Nb126  1  0.59994689  0.80480651  0.79390435  1
  Nb  Nb127  1  0.59875044  0.39090831  0.59890368  1
  Nb  Nb128  1  -0.00823142  0.20187247  0.60503060  1
  Nb  Nb129  1  0.80214808  0.59983764  0.00647424  1
  Nb  Nb130  1  0.80266587  0.20106543  0.00484906  1
  Nb  Nb131  1  0.39503978  0.20007830  0.39035294  1
  Nb  Nb132  1  0.00045979  0.00082287  0.60376762  1
  Nb  Nb133  1  0.00174687  0.39843026  0.79602320  1
  Nb  Nb134  1  0.20289288  0.80176290  -0.00524962  1
  Nb  Nb135  1  0.19953100  0.00119057  0.40202632  1
  Nb  Nb136  1  0.20568734  0.39456520  0.60361089  1
  Nb  Nb137  1  0.19635710  -0.00447339  0.60288102  1
  Nb  Nb138  1  0.40085156  0.39347498  0.79680557  1
  Nb  Nb139  1  0.39654841  0.80814516  -0.00126742  1
  Nb  Nb140  1  0.20634275  0.19953043  0.39469922  1
  Nb  Nb141  1  0.59559543  -0.00256355  0.00305486  1
  Nb  Nb142  1  0.39988238  0.59751941  0.20393100  1
  Nb  Nb143  1  -0.00512608  0.60396731  0.60047169  1
  Nb  Nb144  1  0.79605819  0.79397834  0.79721050  1
  Nb  Nb145  1  0.80296310  0.80324598  0.60135141  1
  Nb  Nb146  1  0.20261904  0.59983783  0.20488216  1
  Nb  Nb147  1  0.20304755  -0.00754668  0.79799556  1
  Nb  Nb148  1  0.60457080  0.20107465  0.60264997  1
  Nb  Nb149  1  0.40079446  0.60049200  0.59446682  1
  Pd  Pd150  1  0.00714160  0.00228429  0.00679573  1
  Pd  Pd151  1  0.20281738  0.39697174  0.00002359  1
  Pd  Pd152  1  0.80741693  0.19863438  0.19886194  1
  Pd  Pd153  1  0.39440430  0.20591221  0.00914412  1
  Pd  Pd154  1  0.00073359  0.20082217  0.79932063  1
  Pd  Pd155  1  0.40553772  0.20419046  0.19742997  1
  Pd  Pd156  1  -0.01007893  0.80359420  0.39146219  1
  Pd  Pd157  1  0.59416886  0.38911416  0.79047805  1
  Pd  Pd158  1  0.40751139  0.79858934  0.40224761  1
  Pd  Pd159  1  -0.00516546  0.80103904  0.20639530  1
  Pd  Pd160  1  0.80151361  0.39642302  0.21244416  1
  Pd  Pd161  1  0.39424793  0.39059630  -0.00180968  1
  Pd  Pd162  1  0.00764622  0.59804460  0.79090684  1
  Pd  Pd163  1  0.19852979  0.80703130  0.38880680  1
  Pd  Pd164  1  0.18918844  0.20120620  0.58712298  1
  Pd  Pd165  1  -0.00660000  0.58852355  0.00208005  1
  Pd  Pd166  1  0.00893928  0.00832926  0.79587458  1
  Pd  Pd167  1  0.20246891  0.40554983  0.79872668  1
  Pd  Pd168  1  0.59848927  -0.00503176  0.19414148  1
  Pd  Pd169  1  0.79935524  0.19658101  0.39520030  1
  Pd  Pd170  1  0.40773331  0.79598926  0.19457975  1
  Pd  Pd171  1  0.39741065  0.00508751  0.60734245  1
  Pd  Pd172  1  0.20231726  0.38928706  0.40671786  1
  Pd  Pd173  1  0.39301164  0.00372361  0.39105941  1
  Pd  Pd174  1  0.39262412  0.40296067  0.19610880  1
  Pd  Pd175  1  -0.00150919  0.41064413  -0.00834723  1
  Pd  Pd176  1  0.19038252  -0.01014782  -0.01000173  1
  Pd  Pd177  1  0.80788173  0.80460369  0.40014033  1
  Pd  Pd178  1  0.59496515  0.59569209  0.19337680  1
  Pd  Pd179  1  0.19695802  0.60763736  0.79618773  1
  Pd  Pd180  1  0.19868559  0.80103248  0.80776103  1
  Pd  Pd181  1  0.59910905  0.60891257  0.80109707  1
  Pd  Pd182  1  0.20046600  0.59591371  0.59998538  1
  Pd  Pd183  1  0.60393348  0.00653260  0.59581460  1
  Pd  Pd184  1  0.60796478  0.59297828  0.01071744  1
  Pd  Pd185  1  0.79558662  0.20625970  0.81023190  1
  Pd  Pd186  1  0.39798033  0.78970209  0.58872659  1
  Pd  Pd187  1  0.79100571  0.00237515  0.00932626  1
  Pd  Pd188  1  0.59612481  0.59103320  0.40340074  1
  Pd  Pd189  1  0.79050625  0.39913016  0.59750965  1
  Pd  Pd190  1  -0.00406046  0.39877663  0.39084213  1
  Pd  Pd191  1  0.79580268  0.40143618  0.39326060  1
  Pd  Pd192  1  0.41077359  0.18631368  0.59460994  1
  Pd  Pd193  1  0.19468638  0.79836129  0.19886220  1
  Pd  Pd194  1  0.60381511  0.20901437  0.79190538  1
  Pd  Pd195  1  -0.00125791  0.79366413  0.79811716  1
  Pd  Pd196  1  0.00931880  0.59470963  0.20207844  1
  Pd  Pd197  1  0.61201386  -0.00556114  0.39799958  1
  Pd  Pd198  1  -0.00418298  0.19233386  0.01015599  1
  Pd  Pd199  1  0.60991492  0.40996950  0.40359254  1
  Rh  Rh200  1  0.79131306  0.60913916  0.81270993  1
  Rh  Rh201  1  0.60536228  -0.00163941  0.80629487  1
  Rh  Rh202  1  0.39570842  0.41317141  0.61121157  1
  Rh  Rh203  1  0.60061179  0.19117928  0.40047280  1
  Rh  Rh204  1  0.40418111  0.59570289  0.79194226  1
  Rh  Rh205  1  0.79536829  0.60149743  0.19566533  1
  Rh  Rh206  1  0.80976513  0.60839700  0.58586428  1
  Rh  Rh207  1  0.00133023  -0.00429687  0.40828404  1
  Rh  Rh208  1  0.21121981  0.80302380  0.59949007  1
  Rh  Rh209  1  0.00254316  0.00228682  0.19684540  1
  Rh  Rh210  1  0.00127323  0.59760770  0.40321721  1
  Rh  Rh211  1  0.01146268  0.40042580  0.60953441  1
  Rh  Rh212  1  0.80243172  0.40275952  -0.00156699  1
  Rh  Rh213  1  0.79993766  0.20114730  0.59757710  1
  Rh  Rh214  1  0.41086998  0.79004479  0.80831066  1
  Rh  Rh215  1  0.40129779  0.60677725  0.01186403  1
  Rh  Rh216  1  -0.01082690  0.79690785  0.60582649  1
  Rh  Rh217  1  -0.00042402  0.80336097  -0.00045978  1
  Rh  Rh218  1  0.38935226  0.01190443  0.79586749  1
  Rh  Rh219  1  0.20243978  0.60513226  0.00651817  1
  Rh  Rh220  1  0.59230347  0.81043085  -0.01181118  1
  Rh  Rh221  1  0.39023948  0.39106766  0.39085377  1
  Rh  Rh222  1  0.00067836  0.19855002  0.19549267  1
  Rh  Rh223  1  0.40782333  -0.00163399  0.19681958  1
  Rh  Rh224  1  0.80226197  0.00018842  0.39609864  1
  Rh  Rh225  1  0.59555735  0.40578383  0.00664766  1
  Rh  Rh226  1  0.80560226  -0.00050456  0.59804697  1
  Rh  Rh227  1  0.40078861  0.20131452  0.80616666  1
  Rh  Rh228  1  0.19260090  -0.00775606  0.20896206  1
  Rh  Rh229  1  0.61338225  0.80608620  0.60408677  1
  Rh  Rh230  1  0.59922592  0.81201377  0.39597452  1
  Rh  Rh231  1  0.20406675  0.20146887  0.00177770  1
  Rh  Rh232  1  0.59745388  0.80490826  0.21014827  1
  Rh  Rh233  1  0.18890962  0.60209607  0.39041487  1
  Rh  Rh234  1  0.40642521  0.60454854  0.39892791  1
  Rh  Rh235  1  0.60628903  0.19304427  0.00361438  1
  Rh  Rh236  1  0.59897642  0.40430685  0.19996251  1
  Rh  Rh237  1  0.59492245  0.20365928  0.19975298  1
  Rh  Rh238  1  0.19940881  0.40564701  0.19783057  1
  Rh  Rh239  1  0.20357245  0.18715902  0.81583035  1
  Rh  Rh240  1  0.80681009  0.39587688  0.80309839  1
  Rh  Rh241  1  0.80398498  0.79789792  0.19647933  1
  Rh  Rh242  1  0.79382515  0.00010439  0.80312417  1
  Rh  Rh243  1  0.80296564  0.00271326  0.20380773  1
  Rh  Rh244  1  0.40631989  -0.00257306  0.00821434  1
  Rh  Rh245  1  0.18980848  0.20247134  0.20732411  1
  Rh  Rh246  1  -0.00347005  0.40539146  0.20406057  1
  Rh  Rh247  1  -0.00026770  0.20660094  0.40458187  1
  Rh  Rh248  1  0.58825323  0.58453072  0.58762683  1
  Rh  Rh249  1  0.80275543  0.59824989  0.39763683  1
