# generated using pymatgen
data_ZrScNbPdRh
_symmetry_space_group_name_H-M   'P 1'
_cell_length_a   16.56040922
_cell_length_b   16.55770458
_cell_length_c   16.55701982
_cell_angle_alpha   90.00068032
_cell_angle_beta   89.99166987
_cell_angle_gamma   89.99868592
_symmetry_Int_Tables_number   1
_chemical_formula_structural   ZrScNbPdRh
_chemical_formula_sum   'Zr50 Sc50 Nb50 Pd50 Rh50'
_cell_volume   4539.97392006
_cell_formula_units_Z   50
loop_
 _symmetry_equiv_pos_site_id
 _symmetry_equiv_pos_as_xyz
  1  'x, y, z'
loop_
 _atom_site_type_symbol
 _atom_site_label
 _atom_site_symmetry_multiplicity
 _atom_site_fract_x
 _atom_site_fract_y
 _atom_site_fract_z
 _atom_site_occupancy
  Zr  Zr0  1  0.69973747  0.29326330  0.89523246  1
  Zr  Zr1  1  0.50370223  0.30310543  0.49792701  1
  Zr  Zr2  1  0.29776874  0.90011975  0.50215994  1
  Zr  Zr3  1  0.50233339  0.69575882  0.09763668  1
  Zr  Zr4  1  0.30013167  0.09395294  0.89578208  1
  Zr  Zr5  1  0.30334938  0.70635665  0.11094120  1
  Zr  Zr6  1  0.70741489  0.30500263  0.49535367  1
  Zr  Zr7  1  0.31396752  0.30450817  0.30474233  1
  Zr  Zr8  1  0.29810814  0.10069222  0.29905815  1
  Zr  Zr9  1  0.91129639  0.10055779  0.89933981  1
  Zr  Zr10  1  0.89866218  0.30021759  0.10530096  1
  Zr  Zr11  1  0.90617654  0.10010630  0.49339828  1
  Zr  Zr12  1  0.29535243  0.90162066  0.90129629  1
  Zr  Zr13  1  0.69704652  0.29675156  0.29766842  1
  Zr  Zr14  1  0.90019862  0.50337384  0.28702546  1
  Zr  Zr15  1  0.30181226  0.50899503  0.90358577  1
  Zr  Zr16  1  0.90532477  0.30419013  0.69678895  1
  Zr  Zr17  1  0.09677919  0.89403491  0.50297052  1
  Zr  Zr18  1  0.90668631  0.10143451  0.30007363  1
  Zr  Zr19  1  0.90617496  0.49320446  0.49706035  1
  Zr  Zr20  1  0.49581793  0.69916215  0.90698156  1
  Zr  Zr21  1  0.69839026  0.90005537  0.28944062  1
  Zr  Zr22  1  0.69534508  0.90098288  0.90922371  1
  Zr  Zr23  1  0.10171588  0.09662506  0.90825040  1
  Zr  Zr24  1  0.49624819  0.50950802  0.90355824  1
  Zr  Zr25  1  0.30878957  0.70490292  0.89719678  1
  Zr  Zr26  1  0.50060804  0.30131426  0.11190680  1
  Zr  Zr27  1  0.50422733  0.11085043  0.29921965  1
  Zr  Zr28  1  0.10393621  0.69101109  0.50282905  1
  Zr  Zr29  1  0.10068203  0.30446557  0.70098935  1
  Zr  Zr30  1  0.69693097  0.69738586  0.10122897  1
  Zr  Zr31  1  0.10134003  0.50105992  0.68055540  1
  Zr  Zr32  1  0.49925522  0.49717064  0.30022457  1
  Zr  Zr33  1  0.09570202  0.10577673  0.10907720  1
  Zr  Zr34  1  0.30538996  0.89280178  0.29061429  1
  Zr  Zr35  1  0.09020023  0.50466426  0.11034731  1
  Zr  Zr36  1  0.10159593  0.08817373  0.48689907  1
  Zr  Zr37  1  0.90663126  0.71034453  0.48664855  1
  Zr  Zr38  1  0.10017177  0.49556593  0.30566097  1
  Zr  Zr39  1  0.50743006  0.50800026  0.10429395  1
  Zr  Zr40  1  0.90013510  0.50675807  0.90248482  1
  Zr  Zr41  1  0.10068871  0.90336371  0.89894081  1
  Zr  Zr42  1  0.29046065  0.30210634  0.70113489  1
  Zr  Zr43  1  0.50112438  0.29146669  0.90656275  1
  Zr  Zr44  1  0.90104083  0.10601853  0.70162582  1
  Zr  Zr45  1  0.70232533  0.09733490  0.30395470  1
  Zr  Zr46  1  0.70370055  0.69908909  0.70584724  1
  Zr  Zr47  1  0.48606790  0.69941449  0.70911342  1
  Zr  Zr48  1  0.09830574  0.29947942  0.10034895  1
  Zr  Zr49  1  0.69681155  0.10916323  0.50477229  1
  Sc  Sc50  1  0.68641431  0.89417222  0.49583813  1
  Sc  Sc51  1  0.70558881  0.28635387  0.69627401  1
  Sc  Sc52  1  0.10640806  0.50994715  0.91771701  1
  Sc  Sc53  1  0.69508072  0.49817494  0.29388841  1
  Sc  Sc54  1  0.68529996  0.90303645  0.69733902  1
  Sc  Sc55  1  0.50460154  0.90070657  0.10443287  1
  Sc  Sc56  1  0.90299130  0.49557599  0.69906422  1
  Sc  Sc57  1  0.10499259  0.70738266  0.69356681  1
  Sc  Sc58  1  0.49515920  0.90483952  0.90173656  1
  Sc  Sc59  1  0.89538584  0.29892844  0.30528083  1
  Sc  Sc60  1  0.89766372  0.89765006  0.90305957  1
  Sc  Sc61  1  0.50377413  0.10767314  0.49547808  1
  Sc  Sc62  1  0.28342735  0.50243679  0.49234013  1
  Sc  Sc63  1  0.90498417  0.09609936  0.10282964  1
  Sc  Sc64  1  0.50568315  0.09425650  0.90136893  1
  Sc  Sc65  1  0.10592298  0.89730580  0.10688314  1
  Sc  Sc66  1  0.49932730  0.89240107  0.49850368  1
  Sc  Sc67  1  0.09797727  0.29181801  0.89876363  1
  Sc  Sc68  1  0.70657183  0.70065325  0.90747094  1
  Sc  Sc69  1  0.50929731  0.09358480  0.70125386  1
  Sc  Sc70  1  0.09916049  0.09727727  0.71163272  1
  Sc  Sc71  1  0.29366567  0.09451194  0.09886661  1
  Sc  Sc72  1  0.69726553  0.89467281  0.09914091  1
  Sc  Sc73  1  0.28718116  0.50600930  0.10463117  1
  Sc  Sc74  1  0.29483096  0.49488446  0.69195903  1
  Sc  Sc75  1  0.10666197  0.70288715  0.90601717  1
  Sc  Sc76  1  0.70138111  0.08294545  0.10275129  1
  Sc  Sc77  1  0.89238320  0.69865112  0.90308283  1
  Sc  Sc78  1  0.70337058  0.30453235  0.10485892  1
  Sc  Sc79  1  0.29506132  0.29635660  0.10602649  1
  Sc  Sc80  1  0.08779991  0.70403314  0.29700091  1
  Sc  Sc81  1  0.89998260  0.69362729  0.10727510  1
  Sc  Sc82  1  0.49471461  0.69590928  0.29670461  1
  Sc  Sc83  1  0.10235725  0.90073135  0.29840251  1
  Sc  Sc84  1  0.50005835  0.10078432  0.09498059  1
  Sc  Sc85  1  0.09929473  0.31514347  0.48788936  1
  Sc  Sc86  1  0.28741761  0.29898655  0.90190299  1
  Sc  Sc87  1  0.90209497  0.30179878  0.88944856  1
  Sc  Sc88  1  0.89011406  0.89806161  0.10933278  1
  Sc  Sc89  1  0.89670155  0.70070891  0.70991349  1
  Sc  Sc90  1  0.30121141  0.09135577  0.49820443  1
  Sc  Sc91  1  0.10545219  0.89494705  0.70230764  1
  Sc  Sc92  1  0.49266418  0.90259064  0.69954181  1
  Sc  Sc93  1  0.10175954  0.69588176  0.10389982  1
  Sc  Sc94  1  0.91095407  0.89905300  0.70453817  1
  Sc  Sc95  1  0.71172959  0.50535294  0.90133996  1
  Sc  Sc96  1  0.30248137  0.30589489  0.49461829  1
  Sc  Sc97  1  0.09553407  0.30049267  0.29293957  1
  Sc  Sc98  1  0.50510306  0.69831351  0.48932855  1
  Sc  Sc99  1  0.69921837  0.50019472  0.69110228  1
  Nb  Nb100  1  0.70474993  0.50050608  0.10101375  1
  Nb  Nb101  1  0.09730834  0.50282805  0.49618802  1
  Nb  Nb102  1  0.49908993  0.49670454  0.69562226  1
  Nb  Nb103  1  0.70387712  0.69741340  0.30034742  1
  Nb  Nb104  1  0.30420290  0.09772543  0.69735772  1
  Nb  Nb105  1  0.29839529  0.89718296  0.10393567  1
  Nb  Nb106  1  0.69424638  0.50900112  0.49604070  1
  Nb  Nb107  1  0.30337461  0.89684087  0.69829136  1
  Nb  Nb108  1  0.51747219  0.50220546  0.50896827  1
  Nb  Nb109  1  0.89365417  0.49955076  0.09780221  1
  Nb  Nb110  1  0.30271771  0.69969382  0.49906003  1
  Nb  Nb111  1  0.49305289  0.30579712  0.69653101  1
  Nb  Nb112  1  0.69841783  0.09978515  0.89373245  1
  Nb  Nb113  1  0.49784024  0.29987187  0.29979687  1
  Nb  Nb114  1  0.49977454  0.90405588  0.30079656  1
  Nb  Nb115  1  0.30935485  0.69944121  0.30808643  1
  Nb  Nb116  1  0.69762645  0.69580736  0.49826782  1
  Nb  Nb117  1  0.70140840  0.09781437  0.70243394  1
  Nb  Nb118  1  0.90219703  0.29720529  0.49642351  1
  Nb  Nb119  1  0.89756319  0.88279613  0.30447888  1
  Nb  Nb120  1  0.89975599  0.90107621  0.50059027  1
  Nb  Nb121  1  0.89221193  0.70830526  0.29583571  1
  Nb  Nb122  1  0.10085897  0.10291884  0.30153197  1
  Nb  Nb123  1  0.30267559  0.50648801  0.30109226  1
  Nb  Nb124  1  0.29965953  0.70587802  0.69745113  1
  Nb  Nb125  1  0.59969573  0.40290309  -0.00186563  1
  Nb  Nb126  1  0.40325854  0.40072067  0.00083462  1
  Nb  Nb127  1  0.00996789  0.59890027  0.80041746  1
  Nb  Nb128  1  0.40416253  -0.00364706  0.39172205  1
  Nb  Nb129  1  0.40119252  0.59702257  0.59471576  1
  Nb  Nb130  1  0.40362371  0.39781235  0.80206794  1
  Nb  Nb131  1  0.00708037  0.20226113  0.59134983  1
  Nb  Nb132  1  0.39633803  0.20174285  0.60602123  1
  Nb  Nb133  1  0.79999501  -0.00351601  0.59815324  1
  Nb  Nb134  1  0.79872998  0.80198112  0.59414097  1
  Nb  Nb135  1  0.79894362  0.60589854  0.58728123  1
  Nb  Nb136  1  0.79426041  0.00617715  0.79667308  1
  Nb  Nb137  1  0.79891005  0.19362908  -0.00577364  1
  Nb  Nb138  1  0.19798961  0.19722862  0.39828651  1
  Nb  Nb139  1  0.79658995  0.60405591  0.39936632  1
  Nb  Nb140  1  0.59530434  0.59799295  0.79897213  1
  Nb  Nb141  1  0.39835043  0.20207260  0.79394977  1
  Nb  Nb142  1  0.59536548  0.79393369  0.80486884  1
  Nb  Nb143  1  0.19786111  0.19679894  0.59478925  1
  Nb  Nb144  1  0.20753897  0.79336697  0.40085915  1
  Nb  Nb145  1  0.80391076  -0.00789385  0.40441905  1
  Nb  Nb146  1  -0.00036658  0.79915920  0.00497144  1
  Nb  Nb147  1  -0.00527923  0.40430125  0.00581827  1
  Nb  Nb148  1  0.59312668  0.40202756  0.79943693  1
  Nb  Nb149  1  0.20227266  0.60464123  0.79414974  1
  Pd  Pd150  1  0.61146253  0.39051567  0.60622940  1
  Pd  Pd151  1  0.39919951  -0.00492522  0.00625120  1
  Pd  Pd152  1  0.40467249  0.79300226  0.59327207  1
  Pd  Pd153  1  0.20246914  0.19548910  0.00215587  1
  Pd  Pd154  1  0.19929387  0.60805820  0.21314722  1
  Pd  Pd155  1  0.40329796  0.81006858  0.00764464  1
  Pd  Pd156  1  0.01441504  0.41325140  0.81262321  1
  Pd  Pd157  1  0.40564396  0.00567951  0.19872820  1
  Pd  Pd158  1  -0.00477638  -0.01291998  0.38841644  1
  Pd  Pd159  1  0.40713870  0.58920320  0.41066408  1
  Pd  Pd160  1  0.39348238  0.41030588  0.19152098  1
  Pd  Pd161  1  0.19343392  0.00287737  0.60791042  1
  Pd  Pd162  1  0.41071736  0.00650835  0.59191631  1
  Pd  Pd163  1  0.79995713  0.39052830  -0.00334554  1
  Pd  Pd164  1  0.39617674  0.19363501  0.19338816  1
  Pd  Pd165  1  0.59627832  0.79119711  0.60754243  1
  Pd  Pd166  1  0.59525609  0.79428721  0.20480357  1
  Pd  Pd167  1  0.19708083  0.60752824  0.38991556  1
  Pd  Pd168  1  0.19601325  0.79932457  0.00640221  1
  Pd  Pd169  1  0.00200633  0.00404237  0.60758894  1
  Pd  Pd170  1  0.79043206  0.40352445  0.79281112  1
  Pd  Pd171  1  0.61219481  0.19870668  0.01169131  1
  Pd  Pd172  1  0.80396315  0.00405206  -0.00540844  1
  Pd  Pd173  1  -0.00609022  0.79417400  0.60499720  1
  Pd  Pd174  1  0.19535348  0.41468989  0.80820945  1
  Pd  Pd175  1  0.20263925  -0.00307634  0.79234581  1
  Pd  Pd176  1  0.19704476  0.39960917  0.00302819  1
  Pd  Pd177  1  0.59876729  0.00113358  0.40262351  1
  Pd  Pd178  1  0.39317417  0.40484116  0.59323882  1
  Pd  Pd179  1  0.78818755  0.80312319  0.40449936  1
  Pd  Pd180  1  0.59672247  0.61187165  0.60881107  1
  Pd  Pd181  1  0.79740746  0.40534197  0.59842113  1
  Pd  Pd182  1  0.19737392  -0.00005124  0.20038079  1
  Pd  Pd183  1  -0.00009619  -0.01242954  0.01038859  1
  Pd  Pd184  1  0.40445009  0.41454901  0.41198975  1
  Pd  Pd185  1  0.59827901  0.00123080  0.59331446  1
  Pd  Pd186  1  0.00277039  0.79127630  0.81090928  1
  Pd  Pd187  1  0.80014369  0.40904463  0.39353579  1
  Pd  Pd188  1  0.20530536  0.39798086  0.20689748  1
  Pd  Pd189  1  0.60062839  0.39912536  0.39551659  1
  Pd  Pd190  1  0.59722979  0.79469989  0.38816869  1
  Pd  Pd191  1  -0.00613719  0.60015601  0.39153684  1
  Pd  Pd192  1  -0.01194536  0.60814391  0.60653181  1
  Pd  Pd193  1  0.60794250  0.19307504  0.19183852  1
  Pd  Pd194  1  0.79818652  0.19168375  0.19167258  1
  Pd  Pd195  1  0.79089088  0.81697947  0.79348620  1
  Pd  Pd196  1  0.38977021  0.20292233  -0.00234100  1
  Pd  Pd197  1  0.59149882  0.20319095  0.79006229  1
  Pd  Pd198  1  -0.00262770  -0.01013969  0.20408257  1
  Pd  Pd199  1  0.80845301  0.19696922  0.59493772  1
  Rh  Rh200  1  0.20947622  0.61397025  -0.00268377  1
  Rh  Rh201  1  0.60247374  0.39952000  0.19761526  1
  Rh  Rh202  1  0.39841084  0.00254586  0.79693166  1
  Rh  Rh203  1  0.80768365  -0.00226507  0.21357628  1
  Rh  Rh204  1  0.61333585  0.59379225  -0.00641609  1
  Rh  Rh205  1  0.79883741  0.19437790  0.40070239  1
  Rh  Rh206  1  0.39785881  0.80678207  0.40054928  1
  Rh  Rh207  1  0.80379985  0.59014937  0.78858601  1
  Rh  Rh208  1  -0.00550384  0.60277489  -0.00130446  1
  Rh  Rh209  1  0.38915788  0.59717751  0.01763218  1
  Rh  Rh210  1  0.20909923  -0.00559108  0.38966088  1
  Rh  Rh211  1  -0.00537562  0.40078633  0.39341326  1
  Rh  Rh212  1  0.39118110  0.58740098  0.78356168  1
  Rh  Rh213  1  0.60368573  -0.00896933  0.80421340  1
  Rh  Rh214  1  -0.00263061  -0.00439982  0.80133718  1
  Rh  Rh215  1  0.39888952  0.81449664  0.80186467  1
  Rh  Rh216  1  0.20166252  0.39703614  0.39097251  1
  Rh  Rh217  1  0.00899044  0.20798923  0.40174690  1
  Rh  Rh218  1  0.80795312  0.79613138  0.00883164  1
  Rh  Rh219  1  0.21008522  0.60368099  0.60325309  1
  Rh  Rh220  1  0.79521747  0.79537067  0.19443752  1
  Rh  Rh221  1  0.20356091  0.80034814  0.59479779  1
  Rh  Rh222  1  -0.00332619  0.60389799  0.20315661  1
  Rh  Rh223  1  0.79722631  0.40192808  0.20418607  1
  Rh  Rh224  1  0.19670040  0.39505176  0.58739348  1
  Rh  Rh225  1  0.60157532  0.60015486  0.39059370  1
  Rh  Rh226  1  -0.00213527  0.20280346  0.20456588  1
  Rh  Rh227  1  0.80547453  0.19397809  0.80606974  1
  Rh  Rh228  1  0.60216476  0.20923540  0.39987973  1
  Rh  Rh229  1  0.20650045  0.79810898  0.79731834  1
  Rh  Rh230  1  0.80015385  0.60526342  0.01016498  1
  Rh  Rh231  1  0.79566813  0.60049074  0.20176417  1
  Rh  Rh232  1  0.20315651  0.19061161  0.79653773  1
  Rh  Rh233  1  0.39673489  0.59668892  0.20063467  1
  Rh  Rh234  1  -0.00888467  0.21131602  0.00112898  1
  Rh  Rh235  1  0.59390500  0.00229310  0.19930916  1
  Rh  Rh236  1  0.59487505  0.80100868  -0.00388380  1
  Rh  Rh237  1  0.00158879  0.39322268  0.59140826  1
  Rh  Rh238  1  0.20166652  0.20317313  0.20794678  1
  Rh  Rh239  1  0.59906121  0.00075368  0.00124704  1
  Rh  Rh240  1  -0.00527156  0.39749731  0.19816873  1
  Rh  Rh241  1  0.00594481  0.20306660  0.79345314  1
  Rh  Rh242  1  0.59314192  0.20493151  0.60471195  1
  Rh  Rh243  1  0.20168998  0.79303028  0.20963689  1
  Rh  Rh244  1  0.40922411  0.79872426  0.19819521  1
  Rh  Rh245  1  -0.00272004  0.80088382  0.19433840  1
  Rh  Rh246  1  0.39331604  0.19225328  0.40798992  1
  Rh  Rh247  1  0.60393630  0.60232230  0.20572659  1
  Rh  Rh248  1  0.01114226  0.80420040  0.39773739  1
  Rh  Rh249  1  0.19695168  -0.00136466  0.00908421  1
