# generated using pymatgen
data_ZrScNbPdRh
_symmetry_space_group_name_H-M   'P 1'
_cell_length_a   16.56636440
_cell_length_b   16.56753213
_cell_length_c   16.56205032
_cell_angle_alpha   90.00257705
_cell_angle_beta   90.06330052
_cell_angle_gamma   89.97384424
_symmetry_Int_Tables_number   1
_chemical_formula_structural   ZrScNbPdRh
_chemical_formula_sum   'Zr50 Sc50 Nb50 Pd50 Rh50'
_cell_volume   4545.67959071
_cell_formula_units_Z   50
loop_
 _symmetry_equiv_pos_site_id
 _symmetry_equiv_pos_as_xyz
  1  'x, y, z'
loop_
 _atom_site_type_symbol
 _atom_site_label
 _atom_site_symmetry_multiplicity
 _atom_site_fract_x
 _atom_site_fract_y
 _atom_site_fract_z
 _atom_site_occupancy
  Zr  Zr0  1  0.50703887  0.29413092  0.30785096  1
  Zr  Zr1  1  0.90335283  0.89831835  0.09671803  1
  Zr  Zr2  1  0.29698421  0.49249640  0.89578301  1
  Zr  Zr3  1  0.49511080  0.90906238  0.10066338  1
  Zr  Zr4  1  0.49908903  0.10257609  0.90775457  1
  Zr  Zr5  1  0.30128708  0.29466936  0.90945978  1
  Zr  Zr6  1  0.30282965  0.90183636  0.09583972  1
  Zr  Zr7  1  0.09158528  0.08772245  0.50068102  1
  Zr  Zr8  1  0.29536411  0.49580274  0.50793261  1
  Zr  Zr9  1  0.70511300  0.29925175  0.90132794  1
  Zr  Zr10  1  0.30715438  0.29940096  0.50608745  1
  Zr  Zr11  1  0.50053174  0.49737779  0.70406727  1
  Zr  Zr12  1  0.50734036  0.09739781  0.71015009  1
  Zr  Zr13  1  0.89671981  0.49938881  0.09628100  1
  Zr  Zr14  1  0.10340151  0.70265084  0.09878098  1
  Zr  Zr15  1  0.69949483  0.50135617  0.09317933  1
  Zr  Zr16  1  0.51447861  0.70370682  0.49730874  1
  Zr  Zr17  1  0.10530306  0.30191977  0.09497961  1
  Zr  Zr18  1  0.89883846  0.70588027  0.69679796  1
  Zr  Zr19  1  0.70183337  0.29301540  0.30004805  1
  Zr  Zr20  1  0.90650830  0.49786828  0.49955020  1
  Zr  Zr21  1  0.90666052  0.09725477  0.69537250  1
  Zr  Zr22  1  0.69409474  0.10343949  0.29171494  1
  Zr  Zr23  1  0.90736004  0.69659191  0.10057486  1
  Zr  Zr24  1  0.30213141  0.90184114  0.49805921  1
  Zr  Zr25  1  0.90063947  0.10025318  0.30427398  1
  Zr  Zr26  1  0.29352451  0.68538462  0.69728491  1
  Zr  Zr27  1  0.49896657  0.69140787  0.29768827  1
  Zr  Zr28  1  0.30237153  0.09819086  0.49842918  1
  Zr  Zr29  1  0.29570518  0.30195077  0.69846857  1
  Zr  Zr30  1  0.70790904  0.29819310  0.09680878  1
  Zr  Zr31  1  0.69728869  0.51281322  0.29975283  1
  Zr  Zr32  1  0.29471812  0.69738538  0.29545748  1
  Zr  Zr33  1  0.89659163  0.10650923  0.50455774  1
  Zr  Zr34  1  0.30016072  0.50586509  0.30350929  1
  Zr  Zr35  1  0.70783209  0.09305149  0.70448535  1
  Zr  Zr36  1  0.11384171  0.09870633  0.29862716  1
  Zr  Zr37  1  0.69935788  0.10295894  0.90492299  1
  Zr  Zr38  1  0.69560423  0.88209365  0.49628053  1
  Zr  Zr39  1  0.90007920  0.31000341  0.08900018  1
  Zr  Zr40  1  0.30114741  0.70364901  0.89777043  1
  Zr  Zr41  1  0.70794795  0.69711830  0.50193438  1
  Zr  Zr42  1  0.10895384  0.50181689  0.70565143  1
  Zr  Zr43  1  0.50153894  0.10434809  0.50125830  1
  Zr  Zr44  1  0.50015577  0.69374645  0.70522468  1
  Zr  Zr45  1  0.30232625  0.49864960  0.69726534  1
  Zr  Zr46  1  0.09843224  0.29200305  0.70083805  1
  Zr  Zr47  1  0.70353488  0.29661287  0.49802206  1
  Zr  Zr48  1  0.49768149  0.50326279  0.10215225  1
  Zr  Zr49  1  0.90250339  0.29733982  0.69881865  1
  Sc  Sc50  1  0.90975043  0.89996919  0.50123773  1
  Sc  Sc51  1  0.29636397  0.90096017  0.30012519  1
  Sc  Sc52  1  0.30118629  0.30256492  0.09300756  1
  Sc  Sc53  1  0.29197153  0.69342334  0.49156253  1
  Sc  Sc54  1  0.91406909  0.70814542  0.89310261  1
  Sc  Sc55  1  0.50234094  0.90086689  0.71086913  1
  Sc  Sc56  1  0.49535843  0.50214533  0.30001198  1
  Sc  Sc57  1  0.89931739  0.30413574  0.29379210  1
  Sc  Sc58  1  0.70240766  0.50215633  0.50320183  1
  Sc  Sc59  1  0.08976685  0.69036046  0.69787767  1
  Sc  Sc60  1  0.09971274  0.10304807  0.70664465  1
  Sc  Sc61  1  0.70358720  0.11143199  0.50070458  1
  Sc  Sc62  1  0.69039591  0.69542722  0.10218719  1
  Sc  Sc63  1  0.29952299  0.28723542  0.30633657  1
  Sc  Sc64  1  0.50090767  0.70275513  0.89554930  1
  Sc  Sc65  1  0.30425911  0.90052519  0.90316058  1
  Sc  Sc66  1  0.68324964  0.70378070  0.89807088  1
  Sc  Sc67  1  0.49294182  0.90277956  0.49783546  1
  Sc  Sc68  1  0.69063592  0.49980659  0.89015962  1
  Sc  Sc69  1  0.50108781  0.28971424  0.70388068  1
  Sc  Sc70  1  0.49817394  0.89927082  0.90285783  1
  Sc  Sc71  1  0.90191952  0.50587896  0.29192261  1
  Sc  Sc72  1  0.50111426  0.70053133  0.09510119  1
  Sc  Sc73  1  0.90442045  0.49913890  0.69818135  1
  Sc  Sc74  1  0.49383499  0.49616512  0.49694590  1
  Sc  Sc75  1  0.10743481  0.30385435  0.89694221  1
  Sc  Sc76  1  0.90489174  0.90250915  0.90203897  1
  Sc  Sc77  1  0.09798883  0.90173122  0.90017547  1
  Sc  Sc78  1  0.70059095  0.49645060  0.70087548  1
  Sc  Sc79  1  0.29460549  0.10293037  0.70467804  1
  Sc  Sc80  1  0.70479924  0.29964110  0.70791235  1
  Sc  Sc81  1  0.89314358  0.89492245  0.30157159  1
  Sc  Sc82  1  0.69513346  0.90042884  0.89291752  1
  Sc  Sc83  1  0.29895227  0.70909598  0.09967635  1
  Sc  Sc84  1  0.89396926  0.08933778  0.08934997  1
  Sc  Sc85  1  0.69582710  0.10013055  0.09925147  1
  Sc  Sc86  1  0.09016824  0.50970621  0.30140600  1
  Sc  Sc87  1  0.09593439  0.91487173  0.69596093  1
  Sc  Sc88  1  0.48748532  0.90613415  0.29910699  1
  Sc  Sc89  1  0.30008977  0.91314439  0.70170390  1
  Sc  Sc90  1  0.90113173  0.09528372  0.89855550  1
  Sc  Sc91  1  0.90930605  0.49257121  0.89952925  1
  Sc  Sc92  1  0.10614807  0.89871593  0.09386611  1
  Sc  Sc93  1  0.08615309  0.50240199  0.10017359  1
  Sc  Sc94  1  0.88736592  0.69960738  0.30254372  1
  Sc  Sc95  1  0.70482200  0.90953340  0.10430100  1
  Sc  Sc96  1  0.09660486  0.70392361  0.89674203  1
  Sc  Sc97  1  0.48924263  0.29414880  0.09971094  1
  Sc  Sc98  1  0.30320564  0.49247176  0.10295099  1
  Sc  Sc99  1  0.30516732  0.10525336  0.10287059  1
  Nb  Nb100  1  0.10284759  0.10267336  0.89960520  1
  Nb  Nb101  1  0.09274395  0.70390340  0.49832074  1
  Nb  Nb102  1  0.90111436  0.30247000  0.50230168  1
  Nb  Nb103  1  0.50125685  0.09813350  0.28843654  1
  Nb  Nb104  1  0.70105598  0.89498054  0.30375124  1
  Nb  Nb105  1  0.10672446  0.50013095  0.89714415  1
  Nb  Nb106  1  0.50276848  0.50063028  0.89589274  1
  Nb  Nb107  1  0.09509829  0.90298668  0.30964965  1
  Nb  Nb108  1  0.29368114  0.10202379  0.90237255  1
  Nb  Nb109  1  0.50445354  0.29912184  0.50200503  1
  Nb  Nb110  1  0.88659612  0.90258233  0.69895148  1
  Nb  Nb111  1  0.69193508  0.71069126  0.31458320  1
  Nb  Nb112  1  0.08954617  0.30400600  0.49691256  1
  Nb  Nb113  1  0.30230656  0.09469025  0.30005746  1
  Nb  Nb114  1  0.90724938  0.69803345  0.50994058  1
  Nb  Nb115  1  0.70687507  0.89362839  0.69703818  1
  Nb  Nb116  1  0.70107340  0.70958791  0.69708607  1
  Nb  Nb117  1  0.50103021  0.30174442  0.89983556  1
  Nb  Nb118  1  0.90123198  0.29637519  0.90349638  1
  Nb  Nb119  1  0.10017288  0.29766940  0.30141413  1
  Nb  Nb120  1  0.10070877  0.89261858  0.49130160  1
  Nb  Nb121  1  0.50195232  0.09455832  0.11077251  1
  Nb  Nb122  1  0.09311424  0.50223893  0.49837371  1
  Nb  Nb123  1  0.10206992  0.09874842  0.09996626  1
  Nb  Nb124  1  0.10584759  0.70929771  0.30435827  1
  Nb  Nb125  1  0.19589008  0.80042193  0.59629312  1
  Nb  Nb126  1  0.39258783  0.79522244  0.60247952  1
  Nb  Nb127  1  0.80031614  0.79346102  0.00028751  1
  Nb  Nb128  1  0.60743539  -0.00346282  0.59924682  1
  Nb  Nb129  1  0.60353076  0.00106955  0.39821516  1
  Nb  Nb130  1  0.00790708  0.80247016  0.20711561  1
  Nb  Nb131  1  0.20157409  0.59701106  -0.00390087  1
  Nb  Nb132  1  0.00456557  0.19804839  -0.00056637  1
  Nb  Nb133  1  0.19024008  0.39820767  0.40154849  1
  Nb  Nb134  1  0.19564758  0.39784183  0.21075107  1
  Nb  Nb135  1  0.00777779  -0.00112973  0.20307758  1
  Nb  Nb136  1  0.60091928  0.39818544  0.19657380  1
  Nb  Nb137  1  0.59673755  0.39206371  0.59714568  1
  Nb  Nb138  1  0.00535001  0.19611838  0.19534929  1
  Nb  Nb139  1  0.80058519  0.60541004  -0.01012008  1
  Nb  Nb140  1  0.20035959  0.00951605  -0.00171252  1
  Nb  Nb141  1  0.40258812  0.39656067  0.80405635  1
  Nb  Nb142  1  0.80451533  0.39954956  0.40193970  1
  Nb  Nb143  1  0.59453377  0.39844559  -0.00041162  1
  Nb  Nb144  1  0.39738627  0.59562445  -0.00599284  1
  Nb  Nb145  1  0.79977672  0.60903523  0.80092470  1
  Nb  Nb146  1  0.20002115  0.80109581  0.78862927  1
  Nb  Nb147  1  0.00292097  0.20532004  0.39755964  1
  Nb  Nb148  1  0.60219966  0.80424987  0.20890602  1
  Nb  Nb149  1  0.79167477  -0.00221065  0.39980894  1
  Pd  Pd150  1  0.19791446  -0.00140401  0.59856307  1
  Pd  Pd151  1  0.39790269  0.79239046  0.40354239  1
  Pd  Pd152  1  0.80767829  0.19477929  0.80048372  1
  Pd  Pd153  1  0.39816726  0.00303291  0.80789891  1
  Pd  Pd154  1  0.40416086  0.19388554  0.39766688  1
  Pd  Pd155  1  0.59418258  0.20557905  0.00704255  1
  Pd  Pd156  1  0.80496676  0.00191226  0.20526373  1
  Pd  Pd157  1  0.79741283  0.79590502  0.81108749  1
  Pd  Pd158  1  0.40595589  0.60592739  0.58928438  1
  Pd  Pd159  1  -0.00188344  -0.00074734  0.80014727  1
  Pd  Pd160  1  0.00483271  0.80914938  0.60725455  1
  Pd  Pd161  1  0.80627537  0.59640130  0.40381113  1
  Pd  Pd162  1  0.00393335  0.39735648  0.80151467  1
  Pd  Pd163  1  0.81143317  0.19440182  0.18807053  1
  Pd  Pd164  1  0.20432378  -0.00267033  0.40048166  1
  Pd  Pd165  1  0.60790853  0.19949146  0.60911517  1
  Pd  Pd166  1  0.39721108  0.20204147  0.20169282  1
  Pd  Pd167  1  0.39197310  0.80279795  0.79159730  1
  Pd  Pd168  1  0.39496016  0.20162240  0.80278696  1
  Pd  Pd169  1  0.40157376  0.60262981  0.40819857  1
  Pd  Pd170  1  0.60296291  -0.00423552  -0.00006975  1
  Pd  Pd171  1  0.79392786  0.40534142  0.20894027  1
  Pd  Pd172  1  0.80530038  0.40849807  0.80296383  1
  Pd  Pd173  1  0.40954287  -0.00254553  0.60718083  1
  Pd  Pd174  1  0.20539452  0.20558065  0.19499786  1
  Pd  Pd175  1  0.40129721  0.19525039  0.60707556  1
  Pd  Pd176  1  0.79325384  0.60876344  0.19490571  1
  Pd  Pd177  1  0.39777436  0.39090421  0.21186565  1
  Pd  Pd178  1  0.19551203  0.81169632  0.20440254  1
  Pd  Pd179  1  0.58841805  0.80742281  0.60882755  1
  Pd  Pd180  1  0.60135862  0.59076333  0.60243142  1
  Pd  Pd181  1  -0.00508830  0.61071966  0.39520161  1
  Pd  Pd182  1  0.80217160  -0.00335467  0.80793109  1
  Pd  Pd183  1  0.40646915  0.79669376  0.19841497  1
  Pd  Pd184  1  0.00710376  0.81209158  0.78775270  1
  Pd  Pd185  1  0.39216686  0.39646998  0.39657229  1
  Pd  Pd186  1  0.79427783  -0.00750088  0.58657918  1
  Pd  Pd187  1  0.19319587  0.19474242  0.59235848  1
  Pd  Pd188  1  0.60493032  0.81019521  0.01086695  1
  Pd  Pd189  1  -0.01039782  0.79277108  0.39416656  1
  Pd  Pd190  1  0.19737449  0.59096140  0.19007287  1
  Pd  Pd191  1  0.79428389  0.79188128  0.19287790  1
  Pd  Pd192  1  0.00586364  0.40339077  0.60745755  1
  Pd  Pd193  1  0.00145067  0.59913072  -0.01056481  1
  Pd  Pd194  1  0.19523505  0.20305140  0.41266720  1
  Pd  Pd195  1  0.80175959  0.59675497  0.60886647  1
  Pd  Pd196  1  0.18765056  0.39845852  0.59494562  1
  Pd  Pd197  1  0.00432366  0.39625642  0.20295589  1
  Pd  Pd198  1  0.19197176  0.59429014  0.40381175  1
  Pd  Pd199  1  0.60746792  0.40689641  0.40085879  1
  Rh  Rh200  1  0.20502185  0.39247451  0.79859029  1
  Rh  Rh201  1  0.39549706  0.00897340  -0.00037953  1
  Rh  Rh202  1  0.60026626  -0.00852687  0.20649293  1
  Rh  Rh203  1  -0.00434794  0.39699382  0.39586178  1
  Rh  Rh204  1  0.39431380  0.60733350  0.18797950  1
  Rh  Rh205  1  0.58311190  0.81057938  0.38983569  1
  Rh  Rh206  1  0.20283318  0.80111488  0.40300978  1
  Rh  Rh207  1  0.20216914  0.20286636  0.80200167  1
  Rh  Rh208  1  -0.00314746  -0.00482914  0.60020443  1
  Rh  Rh209  1  0.19112986  0.41366832  0.01126192  1
  Rh  Rh210  1  0.40536990  0.01130867  0.39379438  1
  Rh  Rh211  1  0.59511475  0.18918973  0.39808613  1
  Rh  Rh212  1  0.60598215  0.19846375  0.80409497  1
  Rh  Rh213  1  0.01054227  0.00507572  0.00274878  1
  Rh  Rh214  1  0.59803008  0.59377279  0.40465661  1
  Rh  Rh215  1  0.00222361  0.59532656  0.60037868  1
  Rh  Rh216  1  0.60950223  0.60614768  0.79199081  1
  Rh  Rh217  1  0.39974087  0.59079172  0.80740866  1
  Rh  Rh218  1  0.19952683  0.80175289  -0.01480866  1
  Rh  Rh219  1  0.40449038  0.19266227  0.00274543  1
  Rh  Rh220  1  -0.00244298  0.20180868  0.80942182  1
  Rh  Rh221  1  0.41253510  0.39262239  0.60950394  1
  Rh  Rh222  1  0.38984101  0.00289450  0.20052140  1
  Rh  Rh223  1  0.59583297  0.59237198  -0.00452914  1
  Rh  Rh224  1  0.19379640  0.60980006  0.80892125  1
  Rh  Rh225  1  0.80898917  0.80156805  0.59337932  1
  Rh  Rh226  1  0.80991595  0.80059333  0.41030831  1
  Rh  Rh227  1  0.79180848  -0.00801707  -0.00762779  1
  Rh  Rh228  1  0.00661066  0.39366474  -0.00947340  1
  Rh  Rh229  1  0.60534515  -0.00252919  0.79681599  1
  Rh  Rh230  1  0.40560517  0.79365923  0.00040125  1
  Rh  Rh231  1  0.19659937  0.19381653  0.00050805  1
  Rh  Rh232  1  0.20041048  -0.00372560  0.81038055  1
  Rh  Rh233  1  0.59578290  0.20864317  0.19119310  1
  Rh  Rh234  1  0.79411702  0.39579887  0.59405197  1
  Rh  Rh235  1  -0.00462431  0.59358290  0.80034277  1
  Rh  Rh236  1  0.00494819  0.61686598  0.21003170  1
  Rh  Rh237  1  -0.00698044  0.00382082  0.39633252  1
  Rh  Rh238  1  0.20232203  -0.00499057  0.19373031  1
  Rh  Rh239  1  0.59246346  0.39054883  0.79722369  1
  Rh  Rh240  1  0.60153866  0.60468137  0.20541330  1
  Rh  Rh241  1  0.81034945  0.19471083  -0.00002347  1
  Rh  Rh242  1  0.81108183  0.20540317  0.39880212  1
  Rh  Rh243  1  0.00445244  0.19891009  0.59439910  1
  Rh  Rh244  1  0.18626522  0.60373589  0.58911828  1
  Rh  Rh245  1  0.79256455  0.41270305  -0.01455465  1
  Rh  Rh246  1  0.40893128  0.40620668  -0.00870545  1
  Rh  Rh247  1  0.80052534  0.20638221  0.60928242  1
  Rh  Rh248  1  -0.00113724  0.80162034  0.00648886  1
  Rh  Rh249  1  0.59997348  0.80094804  0.79421414  1
