# generated using pymatgen
data_ZrScNbPdRh
_symmetry_space_group_name_H-M   'P 1'
_cell_length_a   16.55740170
_cell_length_b   16.55403298
_cell_length_c   16.55736665
_cell_angle_alpha   89.97912018
_cell_angle_beta   90.01617676
_cell_angle_gamma   90.00790340
_symmetry_Int_Tables_number   1
_chemical_formula_structural   ZrScNbPdRh
_chemical_formula_sum   'Zr50 Sc50 Nb50 Pd50 Rh50'
_cell_volume   4538.23746851
_cell_formula_units_Z   50
loop_
 _symmetry_equiv_pos_site_id
 _symmetry_equiv_pos_as_xyz
  1  'x, y, z'
loop_
 _atom_site_type_symbol
 _atom_site_label
 _atom_site_symmetry_multiplicity
 _atom_site_fract_x
 _atom_site_fract_y
 _atom_site_fract_z
 _atom_site_occupancy
  Zr  Zr0  1  0.90653730  0.69560959  0.09489720  1
  Zr  Zr1  1  0.29590646  0.49884366  0.29975508  1
  Zr  Zr2  1  0.89323071  0.90349981  0.69405467  1
  Zr  Zr3  1  0.10005580  0.70100654  0.49884074  1
  Zr  Zr4  1  0.10638989  0.90021466  0.50739739  1
  Zr  Zr5  1  0.49598130  0.89509114  0.50014279  1
  Zr  Zr6  1  0.50788743  0.49785487  0.09239359  1
  Zr  Zr7  1  0.69895623  0.29791130  0.70227312  1
  Zr  Zr8  1  0.89342054  0.49845400  0.90397592  1
  Zr  Zr9  1  0.09652571  0.10205013  0.30979270  1
  Zr  Zr10  1  0.30169304  0.70053201  0.90536465  1
  Zr  Zr11  1  0.10155140  0.50624899  0.10477228  1
  Zr  Zr12  1  0.90121055  0.69455228  0.69621175  1
  Zr  Zr13  1  0.89734812  0.70155817  0.49930053  1
  Zr  Zr14  1  0.89953240  0.10261863  0.30171542  1
  Zr  Zr15  1  0.09761734  0.29674805  0.70578002  1
  Zr  Zr16  1  0.50246455  0.09916179  0.29660811  1
  Zr  Zr17  1  0.89473596  0.50374675  0.50032254  1
  Zr  Zr18  1  0.90241945  0.29970657  0.70483579  1
  Zr  Zr19  1  0.49625471  0.29318291  0.30150819  1
  Zr  Zr20  1  0.28625327  0.29191942  0.09841841  1
  Zr  Zr21  1  0.90073713  0.29504365  0.90324857  1
  Zr  Zr22  1  0.70547737  0.09264413  0.70611093  1
  Zr  Zr23  1  0.30855962  0.30124927  0.49768253  1
  Zr  Zr24  1  0.69897803  0.70154182  0.69942834  1
  Zr  Zr25  1  0.89778701  0.30285713  0.50351811  1
  Zr  Zr26  1  0.69628678  0.91125064  0.29310025  1
  Zr  Zr27  1  0.70474415  0.49499127  0.49315320  1
  Zr  Zr28  1  0.49409342  0.70458794  0.29976726  1
  Zr  Zr29  1  0.90414748  0.90762658  0.89551681  1
  Zr  Zr30  1  0.69339324  0.89936945  0.89292199  1
  Zr  Zr31  1  0.29857418  0.09548298  0.70202564  1
  Zr  Zr32  1  0.10247821  0.70136620  0.69255056  1
  Zr  Zr33  1  0.49841946  0.30953677  0.69571321  1
  Zr  Zr34  1  0.70445505  0.49457659  0.09154492  1
  Zr  Zr35  1  0.29469640  0.10349630  0.30582055  1
  Zr  Zr36  1  0.30419984  0.89286583  0.29665250  1
  Zr  Zr37  1  0.49635321  0.48490775  0.50427482  1
  Zr  Zr38  1  0.90132208  0.70535756  0.30325406  1
  Zr  Zr39  1  0.50565915  0.69912228  0.49698416  1
  Zr  Zr40  1  0.49864527  0.49704784  0.70857559  1
  Zr  Zr41  1  0.49442304  0.10646772  0.90605428  1
  Zr  Zr42  1  0.29599314  0.50345575  0.89581115  1
  Zr  Zr43  1  0.50115408  0.50383009  0.89525743  1
  Zr  Zr44  1  0.70471453  0.29943321  0.89973984  1
  Zr  Zr45  1  0.49795902  0.90481858  0.10226385  1
  Zr  Zr46  1  0.70114267  0.30667215  0.49725323  1
  Zr  Zr47  1  0.70806562  0.69084434  0.50517143  1
  Zr  Zr48  1  0.90367626  0.09874272  0.70945017  1
  Zr  Zr49  1  0.90578087  0.10690558  0.49095188  1
  Sc  Sc50  1  0.29583198  0.70524597  0.10099553  1
  Sc  Sc51  1  0.10747059  0.09988495  0.49491818  1
  Sc  Sc52  1  0.50524372  0.69559109  0.70937460  1
  Sc  Sc53  1  0.49955205  0.29487212  0.50241892  1
  Sc  Sc54  1  0.29943644  0.29887678  0.70396476  1
  Sc  Sc55  1  0.90163650  0.69003573  0.90100105  1
  Sc  Sc56  1  0.29521905  0.69078264  0.49638115  1
  Sc  Sc57  1  0.29467330  0.90285080  0.69841631  1
  Sc  Sc58  1  0.89628386  0.49861038  0.29846964  1
  Sc  Sc59  1  0.29310565  0.49681336  0.49602697  1
  Sc  Sc60  1  0.29248207  0.69599279  0.70732293  1
  Sc  Sc61  1  0.29912606  0.10143807  0.50681223  1
  Sc  Sc62  1  0.09697641  0.10743017  0.08634861  1
  Sc  Sc63  1  0.10592647  0.49748129  0.70694205  1
  Sc  Sc64  1  0.30003273  0.89355205  0.09508767  1
  Sc  Sc65  1  0.69610897  0.30598167  0.10527430  1
  Sc  Sc66  1  0.10364440  0.29857537  0.50677887  1
  Sc  Sc67  1  0.68840125  0.10724553  0.10694114  1
  Sc  Sc68  1  0.29445019  0.29618795  0.30210290  1
  Sc  Sc69  1  0.49960174  0.70114191  0.89737233  1
  Sc  Sc70  1  0.70682844  0.11114123  0.49919373  1
  Sc  Sc71  1  0.10155783  0.69983272  0.29471963  1
  Sc  Sc72  1  0.49749031  0.89598484  0.29619137  1
  Sc  Sc73  1  0.10421867  0.90720480  0.90625117  1
  Sc  Sc74  1  0.89822997  0.29719067  0.10334631  1
  Sc  Sc75  1  0.70434224  0.88897251  0.50660375  1
  Sc  Sc76  1  0.29539106  0.89987970  0.90728712  1
  Sc  Sc77  1  0.10583335  0.69253291  0.89646881  1
  Sc  Sc78  1  0.10135932  0.90046396  0.30216006  1
  Sc  Sc79  1  0.50343541  0.89695322  0.70880094  1
  Sc  Sc80  1  0.90134993  0.29609110  0.29814306  1
  Sc  Sc81  1  0.49145953  0.49841412  0.29807085  1
  Sc  Sc82  1  0.10741100  0.29362355  0.90084083  1
  Sc  Sc83  1  0.91309919  0.89324270  0.08691338  1
  Sc  Sc84  1  0.10103921  0.29909098  0.29356087  1
  Sc  Sc85  1  0.49546904  0.69850524  0.08804609  1
  Sc  Sc86  1  0.10556905  0.10293075  0.70789988  1
  Sc  Sc87  1  0.30360643  0.69602226  0.29490036  1
  Sc  Sc88  1  0.69888833  0.11174339  0.29946545  1
  Sc  Sc89  1  0.69668817  0.50058260  0.70458341  1
  Sc  Sc90  1  0.89884984  0.89514525  0.49341108  1
  Sc  Sc91  1  0.90270793  0.49635375  0.71006204  1
  Sc  Sc92  1  0.49415547  0.10739888  0.69421002  1
  Sc  Sc93  1  0.29982579  0.49646177  0.70195187  1
  Sc  Sc94  1  0.50021022  0.29876109  0.89135269  1
  Sc  Sc95  1  0.49430400  0.10701209  0.10505528  1
  Sc  Sc96  1  0.28955548  0.50673864  0.10009358  1
  Sc  Sc97  1  0.10581598  0.50203149  0.29744097  1
  Sc  Sc98  1  0.70514195  0.70081506  0.30548450  1
  Sc  Sc99  1  0.10863147  0.89912108  0.69783539  1
  Nb  Nb100  1  0.49402051  0.30112486  0.09917181  1
  Nb  Nb101  1  0.30497749  0.29318860  0.90486896  1
  Nb  Nb102  1  0.49443609  0.09592864  0.50287040  1
  Nb  Nb103  1  0.90384494  0.09908620  0.09490412  1
  Nb  Nb104  1  0.09697805  0.09965299  0.89819161  1
  Nb  Nb105  1  0.09933515  0.50153478  0.90079641  1
  Nb  Nb106  1  0.90866971  0.09908242  0.91022183  1
  Nb  Nb107  1  0.49717814  0.89978733  0.89914080  1
  Nb  Nb108  1  0.10424400  0.70838041  0.10207776  1
  Nb  Nb109  1  0.89569520  0.90610850  0.29334195  1
  Nb  Nb110  1  0.29066946  0.10432691  0.90762908  1
  Nb  Nb111  1  0.89767954  0.49858512  0.09730433  1
  Nb  Nb112  1  0.69979570  0.69792484  0.90505436  1
  Nb  Nb113  1  0.10311160  0.50639219  0.49932873  1
  Nb  Nb114  1  0.10673312  0.89672698  0.10149663  1
  Nb  Nb115  1  0.70291591  0.31010443  0.30043023  1
  Nb  Nb116  1  0.70272825  0.49566564  0.29440513  1
  Nb  Nb117  1  0.09725312  0.30945817  0.09793993  1
  Nb  Nb118  1  0.29643570  0.09634518  0.09251841  1
  Nb  Nb119  1  0.29906132  0.90562463  0.50586675  1
  Nb  Nb120  1  0.70102066  0.10003498  0.90319725  1
  Nb  Nb121  1  0.70272671  0.70242489  0.09254989  1
  Nb  Nb122  1  0.70062824  0.90052493  0.09336651  1
  Nb  Nb123  1  0.70215146  0.90334480  0.70417680  1
  Nb  Nb124  1  0.69993367  0.49933656  0.90209915  1
  Nb  Nb125  1  0.00399233  0.40401716  0.00420335  1
  Nb  Nb126  1  0.60234975  0.59385110  0.39490343  1
  Nb  Nb127  1  0.00234740  0.40445298  0.40683843  1
  Nb  Nb128  1  0.79723121  0.60311818  0.19269768  1
  Nb  Nb129  1  0.00427663  0.59623078  0.59574290  1
  Nb  Nb130  1  0.00008702  0.00007594  0.19526007  1
  Nb  Nb131  1  -0.00142944  0.00153351  0.59831852  1
  Nb  Nb132  1  0.39777451  0.79371957  0.59924926  1
  Nb  Nb133  1  0.79899822  0.80137656  0.80071230  1
  Nb  Nb134  1  0.60136707  -0.00052848  0.59862259  1
  Nb  Nb135  1  0.20356865  0.80268128  0.40361841  1
  Nb  Nb136  1  0.60854877  0.79535278  0.19146126  1
  Nb  Nb137  1  -0.00339934  0.79983144  0.79647115  1
  Nb  Nb138  1  0.40120194  -0.00019690  0.40421102  1
  Nb  Nb139  1  0.80677965  -0.00173095  0.18944874  1
  Nb  Nb140  1  0.19576631  0.00198220  0.19313068  1
  Nb  Nb141  1  0.60728795  0.60275472  0.19951685  1
  Nb  Nb142  1  0.39619103  0.39467251  0.18986676  1
  Nb  Nb143  1  0.39862581  0.00173628  0.80894771  1
  Nb  Nb144  1  0.79679851  0.00580699  0.00060122  1
  Nb  Nb145  1  0.40282697  0.60014999  0.60089973  1
  Nb  Nb146  1  0.39568154  0.39484431  0.00091117  1
  Nb  Nb147  1  0.79950631  0.80310784  0.19144981  1
  Nb  Nb148  1  0.59504309  0.00222494  0.40866257  1
  Nb  Nb149  1  0.60075667  -0.00091520  -0.00421333  1
  Pd  Pd150  1  0.00380320  0.39840813  0.81256796  1
  Pd  Pd151  1  0.60054697  0.19835653  0.40311226  1
  Pd  Pd152  1  0.00798392  0.59687001  -0.00121969  1
  Pd  Pd153  1  0.59425486  0.39025531  -0.01008811  1
  Pd  Pd154  1  0.19848753  0.40236545  -0.00441364  1
  Pd  Pd155  1  0.01105096  0.79447541  -0.01373167  1
  Pd  Pd156  1  0.80596003  0.80411431  -0.00653520  1
  Pd  Pd157  1  0.01117241  -0.00573769  0.79209457  1
  Pd  Pd158  1  0.59535169  0.80534160  0.60763288  1
  Pd  Pd159  1  0.59469373  0.58921348  0.59446975  1
  Pd  Pd160  1  0.40460514  0.59542755  0.18980319  1
  Pd  Pd161  1  0.18923955  0.19105190  0.19612048  1
  Pd  Pd162  1  0.20210502  0.40095443  0.60170135  1
  Pd  Pd163  1  0.20329921  0.19955031  0.60119997  1
  Pd  Pd164  1  0.40140970  -0.00148407  -0.00292560  1
  Pd  Pd165  1  0.79072035  0.00130111  0.40104727  1
  Pd  Pd166  1  0.59188700  0.40174948  0.20506096  1
  Pd  Pd167  1  0.79728447  0.40547626  0.61191671  1
  Pd  Pd168  1  0.39451200  0.59426722  0.00248177  1
  Pd  Pd169  1  0.00622263  0.40878410  0.59803286  1
  Pd  Pd170  1  0.60935136  0.80136366  0.39266511  1
  Pd  Pd171  1  0.80401549  0.19451222  0.80443695  1
  Pd  Pd172  1  0.20300813  0.39405715  0.80478026  1
  Pd  Pd173  1  0.39313980  0.80567653  0.79585346  1
  Pd  Pd174  1  0.59185600  0.80301965  -0.00005623  1
  Pd  Pd175  1  0.79439126  0.60269700  0.80077896  1
  Pd  Pd176  1  0.59844149  0.19519508  0.79679470  1
  Pd  Pd177  1  0.79511619  0.19685029  0.00959660  1
  Pd  Pd178  1  0.00433040  0.19126204  0.60013917  1
  Pd  Pd179  1  0.80340649  0.19889746  0.60311106  1
  Pd  Pd180  1  0.19448006  0.80435780  0.80709723  1
  Pd  Pd181  1  0.59807235  0.20267163  0.00342584  1
  Pd  Pd182  1  0.80041407  0.00361932  0.58672860  1
  Pd  Pd183  1  0.00195820  0.59423559  0.39813347  1
  Pd  Pd184  1  0.00037642  -0.00846057  0.40146491  1
  Pd  Pd185  1  -0.00472423  0.59850364  0.20378261  1
  Pd  Pd186  1  0.79713009  0.19852556  0.19662557  1
  Pd  Pd187  1  0.39548202  0.19708875  0.79705524  1
  Pd  Pd188  1  0.00663819  0.80730432  0.39680733  1
  Pd  Pd189  1  0.39263215  0.20183218  0.19666513  1
  Pd  Pd190  1  0.19108816  0.39407266  0.39832773  1
  Pd  Pd191  1  0.00521945  0.19472753  0.19571758  1
  Pd  Pd192  1  0.58844870  0.00995161  0.79875427  1
  Pd  Pd193  1  0.38883127  0.00445496  0.20319092  1
  Pd  Pd194  1  0.60104634  0.19470716  0.59868757  1
  Pd  Pd195  1  0.59319472  0.40189114  0.39161161  1
  Pd  Pd196  1  0.79412436  0.80656339  0.39322652  1
  Pd  Pd197  1  0.40299135  0.59350042  0.40743111  1
  Pd  Pd198  1  -0.00188995  0.80628556  0.20228865  1
  Pd  Pd199  1  -0.00393103  0.40320005  0.20246392  1
  Rh  Rh200  1  0.19052581  0.00808937  0.60289232  1
  Rh  Rh201  1  0.80485468  0.40247273  0.19966176  1
  Rh  Rh202  1  0.39207524  0.40253046  0.60315247  1
  Rh  Rh203  1  0.40026960  0.80167794  -0.00230900  1
  Rh  Rh204  1  0.00530565  0.21547092  0.40413265  1
  Rh  Rh205  1  0.60089558  0.21322165  0.20107485  1
  Rh  Rh206  1  0.60620390  0.39996130  0.80405702  1
  Rh  Rh207  1  0.00883664  0.60404390  0.79117462  1
  Rh  Rh208  1  0.39849445  0.20477824  0.00479002  1
  Rh  Rh209  1  0.38652022  0.80508948  0.41025308  1
  Rh  Rh210  1  0.21336986  0.79472294  0.59260682  1
  Rh  Rh211  1  0.60608457  0.60225179  0.81050625  1
  Rh  Rh212  1  0.39834616  0.19154311  0.40426972  1
  Rh  Rh213  1  0.60210816  -0.00096395  0.19514178  1
  Rh  Rh214  1  0.39739398  0.20609309  0.60134715  1
  Rh  Rh215  1  0.60618525  0.40012789  0.60353427  1
  Rh  Rh216  1  0.19825973  0.80373732  0.20589565  1
  Rh  Rh217  1  0.40840122  0.79355740  0.18833795  1
  Rh  Rh218  1  0.40891738  -0.01187567  0.60666345  1
  Rh  Rh219  1  0.20127963  0.59502608  0.60255702  1
  Rh  Rh220  1  0.19901635  0.60723934  0.39199295  1
  Rh  Rh221  1  0.80511402  0.59190600  0.60843676  1
  Rh  Rh222  1  0.00145490  0.19928995  0.80686816  1
  Rh  Rh223  1  0.20564314  0.39910994  0.20119915  1
  Rh  Rh224  1  0.19568277  0.60724518  0.00337490  1
  Rh  Rh225  1  0.80623506  0.39350071  0.00131198  1
  Rh  Rh226  1  0.80061653  0.00260497  0.81179802  1
  Rh  Rh227  1  0.79714185  0.59974510  0.00138991  1
  Rh  Rh228  1  0.39680053  0.60249467  0.79447610  1
  Rh  Rh229  1  0.19593042  0.00257402  0.00466496  1
  Rh  Rh230  1  0.39702197  0.39726217  0.38978897  1
  Rh  Rh231  1  0.19949673  0.60875748  0.19994199  1
  Rh  Rh232  1  0.19589352  0.79549554  -0.00243600  1
  Rh  Rh233  1  0.19815008  0.59733624  0.80051423  1
  Rh  Rh234  1  0.79656489  0.39891453  0.80112859  1
  Rh  Rh235  1  0.20429880  0.19915402  0.80503109  1
  Rh  Rh236  1  0.19273394  0.19946990  -0.00242766  1
  Rh  Rh237  1  0.21165946  -0.00856220  0.39348229  1
  Rh  Rh238  1  -0.00772094  0.80180487  0.60525385  1
  Rh  Rh239  1  0.60555408  0.60136096  -0.00303459  1
  Rh  Rh240  1  0.60603849  0.79282739  0.80184775  1
  Rh  Rh241  1  0.79764252  0.21065448  0.39447212  1
  Rh  Rh242  1  0.81007550  0.39571037  0.39211405  1
  Rh  Rh243  1  0.79475437  0.59674356  0.38927615  1
  Rh  Rh244  1  0.80037670  0.79904774  0.60575542  1
  Rh  Rh245  1  0.00328651  0.00060671  0.00479197  1
  Rh  Rh246  1  0.19883031  0.20721061  0.40535947  1
  Rh  Rh247  1  0.00461832  0.21039401  -0.00044067  1
  Rh  Rh248  1  0.39291998  0.39653954  0.81049073  1
  Rh  Rh249  1  0.20665297  0.00242084  0.80798975  1
