# generated using pymatgen
data_ZrScNbPdRh
_symmetry_space_group_name_H-M   'P 1'
_cell_length_a   16.56254188
_cell_length_b   16.56080777
_cell_length_c   16.56052722
_cell_angle_alpha   89.99717157
_cell_angle_beta   90.01244453
_cell_angle_gamma   90.03703271
_symmetry_Int_Tables_number   1
_chemical_formula_structural   ZrScNbPdRh
_chemical_formula_sum   'Zr50 Sc50 Nb50 Pd50 Rh50'
_cell_volume   4542.37058619
_cell_formula_units_Z   50
loop_
 _symmetry_equiv_pos_site_id
 _symmetry_equiv_pos_as_xyz
  1  'x, y, z'
loop_
 _atom_site_type_symbol
 _atom_site_label
 _atom_site_symmetry_multiplicity
 _atom_site_fract_x
 _atom_site_fract_y
 _atom_site_fract_z
 _atom_site_occupancy
  Zr  Zr0  1  0.50364493  0.90609926  0.30316395  1
  Zr  Zr1  1  0.69876663  0.10277199  0.08769636  1
  Zr  Zr2  1  0.30789566  0.50644701  0.09602518  1
  Zr  Zr3  1  0.90776702  0.90147810  0.29938194  1
  Zr  Zr4  1  0.89279915  0.69815090  0.09690308  1
  Zr  Zr5  1  0.90045574  0.70557223  0.69744834  1
  Zr  Zr6  1  0.90553383  0.10014357  0.71386723  1
  Zr  Zr7  1  0.09482663  0.70130061  0.50364884  1
  Zr  Zr8  1  0.10530226  0.30271618  0.90408253  1
  Zr  Zr9  1  0.08988730  0.89546301  0.49722478  1
  Zr  Zr10  1  0.88197871  0.49118179  0.69989256  1
  Zr  Zr11  1  0.30005560  0.10214880  0.11129476  1
  Zr  Zr12  1  0.29788640  0.69486962  0.30008375  1
  Zr  Zr13  1  0.89403411  0.69299017  0.28720019  1
  Zr  Zr14  1  0.89433131  0.89485168  0.49798748  1
  Zr  Zr15  1  0.10051436  0.90489035  0.11137256  1
  Zr  Zr16  1  0.70826408  0.09459581  0.89461975  1
  Zr  Zr17  1  0.50613081  0.09885185  0.49477830  1
  Zr  Zr18  1  0.29502779  0.30519992  0.69473982  1
  Zr  Zr19  1  0.09480131  0.69577800  0.30073150  1
  Zr  Zr20  1  0.09761352  0.49729902  0.49306382  1
  Zr  Zr21  1  0.69496803  0.28563911  0.90674571  1
  Zr  Zr22  1  0.30075889  0.70291611  0.70324152  1
  Zr  Zr23  1  0.30097779  0.90394090  0.70490162  1
  Zr  Zr24  1  0.29790192  0.50153871  0.30479574  1
  Zr  Zr25  1  0.49787431  0.70022444  0.89463619  1
  Zr  Zr26  1  0.50257978  0.90087082  0.50519744  1
  Zr  Zr27  1  0.09084261  0.09965897  0.90071059  1
  Zr  Zr28  1  0.30039816  0.89855730  0.09494660  1
  Zr  Zr29  1  0.70181081  0.29678141  0.29901025  1
  Zr  Zr30  1  0.29495350  0.89697349  0.28522053  1
  Zr  Zr31  1  0.70022675  0.69932651  0.50608170  1
  Zr  Zr32  1  0.10194553  0.50313030  0.30289527  1
  Zr  Zr33  1  0.71141647  0.50546112  0.89679709  1
  Zr  Zr34  1  0.29548417  0.29697692  0.09378977  1
  Zr  Zr35  1  0.89076114  0.09563980  0.49491736  1
  Zr  Zr36  1  0.29196661  0.50208386  0.89401639  1
  Zr  Zr37  1  0.70445833  0.30630441  0.70482062  1
  Zr  Zr38  1  0.10838748  0.50235118  0.70665419  1
  Zr  Zr39  1  0.49300308  0.10736144  0.29518804  1
  Zr  Zr40  1  0.49796968  0.50531598  0.69705472  1
  Zr  Zr41  1  0.49346175  0.69035649  0.09089020  1
  Zr  Zr42  1  0.50264173  0.49512641  0.30503762  1
  Zr  Zr43  1  0.09902154  0.10189252  0.50564914  1
  Zr  Zr44  1  0.70131523  0.90093395  0.90243957  1
  Zr  Zr45  1  0.90380851  0.50162902  0.29908483  1
  Zr  Zr46  1  0.50072548  0.70207802  0.69604665  1
  Zr  Zr47  1  0.30916198  0.28443205  0.30052341  1
  Zr  Zr48  1  0.29648773  0.09856671  0.70172194  1
  Zr  Zr49  1  0.29988774  0.70667983  0.09506936  1
  Sc  Sc50  1  0.09834859  0.29783150  0.08833017  1
  Sc  Sc51  1  0.88904350  0.70084360  0.89775560  1
  Sc  Sc52  1  0.49700995  0.70617238  0.50375365  1
  Sc  Sc53  1  0.89918121  0.29358440  0.10290188  1
  Sc  Sc54  1  0.90097523  0.69767452  0.50610709  1
  Sc  Sc55  1  0.89861857  0.49889647  0.10162223  1
  Sc  Sc56  1  0.09968698  0.49461428  0.89868577  1
  Sc  Sc57  1  0.51792822  0.09893120  0.89964544  1
  Sc  Sc58  1  0.70878484  0.49439778  0.29297390  1
  Sc  Sc59  1  0.88919425  0.29615541  0.29573286  1
  Sc  Sc60  1  0.09922186  0.70404837  0.09942891  1
  Sc  Sc61  1  0.69668204  0.90259327  0.49953638  1
  Sc  Sc62  1  0.10200736  0.09989602  0.70941802  1
  Sc  Sc63  1  0.90413087  0.89238851  0.09343664  1
  Sc  Sc64  1  0.10505020  0.89826327  0.70621176  1
  Sc  Sc65  1  0.69936725  0.09955711  0.49291564  1
  Sc  Sc66  1  0.10144461  0.49586937  0.09077117  1
  Sc  Sc67  1  0.10648582  0.30327113  0.31368907  1
  Sc  Sc68  1  0.49602917  0.50247128  0.91626429  1
  Sc  Sc69  1  0.09827748  0.70701179  0.70217939  1
  Sc  Sc70  1  0.09360431  0.09261643  0.29013733  1
  Sc  Sc71  1  0.10812873  0.69855849  0.89215396  1
  Sc  Sc72  1  0.69992907  0.89963152  0.69820667  1
  Sc  Sc73  1  0.68713589  0.89298971  0.28945017  1
  Sc  Sc74  1  0.50097961  0.90150893  0.89457538  1
  Sc  Sc75  1  0.90474166  0.10370757  0.09910986  1
  Sc  Sc76  1  0.50194466  0.49736712  0.50402571  1
  Sc  Sc77  1  0.09633829  0.29792672  0.70116843  1
  Sc  Sc78  1  0.29746264  0.10845036  0.50551833  1
  Sc  Sc79  1  0.30370943  0.50137819  0.69744312  1
  Sc  Sc80  1  0.69363952  0.10034334  0.29959242  1
  Sc  Sc81  1  0.29815975  0.89595966  0.51388564  1
  Sc  Sc82  1  0.49920919  0.90537409  0.10075529  1
  Sc  Sc83  1  0.50360251  0.09150904  0.69872551  1
  Sc  Sc84  1  0.90076025  0.49886468  0.89402341  1
  Sc  Sc85  1  0.30034849  0.49548027  0.49792185  1
  Sc  Sc86  1  0.30310590  0.89621696  0.89941998  1
  Sc  Sc87  1  0.09817045  0.90231836  0.89932802  1
  Sc  Sc88  1  0.90323382  0.90495605  0.89944600  1
  Sc  Sc89  1  0.49672761  0.70643032  0.30487342  1
  Sc  Sc90  1  0.29743361  0.30014296  0.50216907  1
  Sc  Sc91  1  0.69460999  0.29315557  0.49969710  1
  Sc  Sc92  1  0.50181863  0.30110810  0.68625243  1
  Sc  Sc93  1  0.90696432  0.30645655  0.51507136  1
  Sc  Sc94  1  0.49922268  0.29835950  0.49232927  1
  Sc  Sc95  1  0.09374409  0.10539551  0.09881279  1
  Sc  Sc96  1  0.70322218  0.70314170  0.69854894  1
  Sc  Sc97  1  0.89033019  0.10406285  0.29675937  1
  Sc  Sc98  1  0.29398317  0.09882263  0.89914068  1
  Sc  Sc99  1  0.10624462  0.30426451  0.50876049  1
  Nb  Nb100  1  0.50057245  0.89859274  0.69764374  1
  Nb  Nb101  1  0.70136033  0.69664091  0.29137792  1
  Nb  Nb102  1  0.50278069  0.49589762  0.10122204  1
  Nb  Nb103  1  0.50286499  0.30926968  0.09130769  1
  Nb  Nb104  1  0.90481536  0.30324356  0.90184282  1
  Nb  Nb105  1  0.70284933  0.30249303  0.10216909  1
  Nb  Nb106  1  0.89487490  0.49925402  0.50426434  1
  Nb  Nb107  1  0.29564200  0.70479239  0.50096971  1
  Nb  Nb108  1  0.70371988  0.10432782  0.70850814  1
  Nb  Nb109  1  0.30129512  0.30101609  0.90219803  1
  Nb  Nb110  1  0.89752312  0.30156265  0.70526131  1
  Nb  Nb111  1  0.49850730  0.30258582  0.90223050  1
  Nb  Nb112  1  0.90201621  0.89850228  0.69414788  1
  Nb  Nb113  1  0.70873578  0.50670165  0.51392364  1
  Nb  Nb114  1  0.49973393  0.10458499  0.09958417  1
  Nb  Nb115  1  0.69691429  0.50150278  0.69952139  1
  Nb  Nb116  1  0.09953837  0.89700716  0.30100614  1
  Nb  Nb117  1  0.29964181  0.09813259  0.30185869  1
  Nb  Nb118  1  0.30505990  0.69917804  0.90016596  1
  Nb  Nb119  1  0.70759113  0.70190763  0.10189703  1
  Nb  Nb120  1  0.70102162  0.89503703  0.10151286  1
  Nb  Nb121  1  0.69899510  0.49694047  0.09734495  1
  Nb  Nb122  1  0.70346612  0.69886382  0.90650755  1
  Nb  Nb123  1  0.50244989  0.29913280  0.29743415  1
  Nb  Nb124  1  0.90430940  0.10173727  0.90477225  1
  Nb  Nb125  1  0.60342655  0.59803531  0.19581541  1
  Nb  Nb126  1  0.20104357  -0.00453705  0.39506520  1
  Nb  Nb127  1  0.19885846  0.60412927  0.59636319  1
  Nb  Nb128  1  0.61001548  0.59929430  0.39686815  1
  Nb  Nb129  1  0.60419566  0.59719115  0.80093032  1
  Nb  Nb130  1  0.80177080  0.19737451  0.61224317  1
  Nb  Nb131  1  -0.00345025  0.60137148  -0.00278950  1
  Nb  Nb132  1  0.79372453  -0.00583666  0.19158815  1
  Nb  Nb133  1  0.20569491  0.39924233  0.20118756  1
  Nb  Nb134  1  0.19986667  0.00063766  0.00687440  1
  Nb  Nb135  1  0.39051589  0.00100384  0.39731082  1
  Nb  Nb136  1  0.19656182  0.80314183  0.39728354  1
  Nb  Nb137  1  -0.00590702  -0.00180913  0.60266939  1
  Nb  Nb138  1  0.40193663  0.20735969  0.80486749  1
  Nb  Nb139  1  -0.00272799  0.19900271  0.40544133  1
  Nb  Nb140  1  0.40447628  0.39439537  0.80510843  1
  Nb  Nb141  1  0.79531502  0.39465105  0.00268136  1
  Nb  Nb142  1  0.80171598  0.40668527  0.41208031  1
  Nb  Nb143  1  0.59492183  0.20957008  0.19055704  1
  Nb  Nb144  1  0.40577225  0.20330269  -0.00278072  1
  Nb  Nb145  1  0.79630506  0.79252889  0.39092375  1
  Nb  Nb146  1  0.00703094  0.40014614  0.20305738  1
  Nb  Nb147  1  0.40442603  0.39686615  0.19726650  1
  Nb  Nb148  1  0.60780792  0.79431036  0.00267358  1
  Nb  Nb149  1  0.59771051  0.40424030  0.80311561  1
  Pd  Pd150  1  0.38927828  0.80963622  0.40356232  1
  Pd  Pd151  1  0.00659986  0.21099543  0.21085603  1
  Pd  Pd152  1  0.00410722  0.00925607  0.40081896  1
  Pd  Pd153  1  0.40853282  0.79931537  0.19672942  1
  Pd  Pd154  1  0.79723985  0.59972614  0.40126767  1
  Pd  Pd155  1  -0.00174253  0.79735460  0.19830506  1
  Pd  Pd156  1  0.00224118  0.39959533  0.79553278  1
  Pd  Pd157  1  0.40305910  -0.00263394  0.20180050  1
  Pd  Pd158  1  0.40213419  0.19743484  0.60336679  1
  Pd  Pd159  1  0.39809443  0.00929393  -0.00596750  1
  Pd  Pd160  1  0.59687636  -0.00898296  0.00197610  1
  Pd  Pd161  1  0.80377846  -0.00808682  0.79761583  1
  Pd  Pd162  1  0.60675766  0.60285339  0.00088683  1
  Pd  Pd163  1  0.40849008  0.60201035  0.40897723  1
  Pd  Pd164  1  0.79887031  0.00551126  0.60781494  1
  Pd  Pd165  1  -0.00228088  0.80179548  0.80560916  1
  Pd  Pd166  1  0.78616341  -0.01374891  0.38334589  1
  Pd  Pd167  1  0.59006729  0.78903860  0.18988313  1
  Pd  Pd168  1  0.60920372  0.40388901  -0.00887822  1
  Pd  Pd169  1  0.60768492  0.19385339  0.60418067  1
  Pd  Pd170  1  0.00133825  0.59020299  0.60840113  1
  Pd  Pd171  1  0.19240903  0.19087988  0.39860345  1
  Pd  Pd172  1  0.58978096  0.20530857  0.79083380  1
  Pd  Pd173  1  0.00359111  0.40839966  0.60990059  1
  Pd  Pd174  1  0.60246884  0.40030121  0.59758215  1
  Pd  Pd175  1  0.19326612  0.60206485  -0.00178887  1
  Pd  Pd176  1  -0.00571414  0.19321995  0.60104734  1
  Pd  Pd177  1  0.80068617  0.80483585  0.79969689  1
  Pd  Pd178  1  0.19217415  -0.00303874  0.59713873  1
  Pd  Pd179  1  0.40027190  0.80378097  0.79857371  1
  Pd  Pd180  1  -0.00409180  0.60204867  0.80353467  1
  Pd  Pd181  1  0.80737180  0.20435143  0.80426378  1
  Pd  Pd182  1  0.19513562  0.59801175  0.19042375  1
  Pd  Pd183  1  0.80972880  -0.00254361  0.00545532  1
  Pd  Pd184  1  0.19534666  0.80651619  -0.00692876  1
  Pd  Pd185  1  0.60634435  0.79374540  0.40183138  1
  Pd  Pd186  1  0.00249233  0.79068064  -0.00964088  1
  Pd  Pd187  1  -0.01003091  0.60385087  0.40483726  1
  Pd  Pd188  1  0.60902003  0.00381187  0.60512205  1
  Pd  Pd189  1  0.20162200  0.20266657  0.80120126  1
  Pd  Pd190  1  0.39715630  0.39383828  0.39837289  1
  Pd  Pd191  1  0.18720422  0.20512017  0.20426268  1
  Pd  Pd192  1  0.60626146  0.79653618  0.80299970  1
  Pd  Pd193  1  -0.01101680  0.38930809  0.39597653  1
  Pd  Pd194  1  0.40539453  0.00930681  0.80697397  1
  Pd  Pd195  1  0.39195942  0.60133548  0.59028165  1
  Pd  Pd196  1  0.61345230  0.40738017  0.40809859  1
  Pd  Pd197  1  0.39936728  0.00417209  0.59386467  1
  Pd  Pd198  1  0.59902643  0.40014000  0.20032375  1
  Pd  Pd199  1  0.40962349  0.59582499  0.20539207  1
  Rh  Rh200  1  0.40507248  0.59240834  0.80644897  1
  Rh  Rh201  1  0.80567167  0.59192070  0.00445506  1
  Rh  Rh202  1  -0.00402786  0.20370122  -0.00485807  1
  Rh  Rh203  1  0.19800796  0.79438599  0.59981503  1
  Rh  Rh204  1  -0.01159990  -0.00024866  0.19525430  1
  Rh  Rh205  1  0.20391864  0.60595396  0.79411388  1
  Rh  Rh206  1  0.79455024  0.39061087  0.81273304  1
  Rh  Rh207  1  0.40062262  0.80247932  0.60522349  1
  Rh  Rh208  1  0.79226658  0.38976117  0.59426757  1
  Rh  Rh209  1  0.00498086  0.00087096  0.00437663  1
  Rh  Rh210  1  0.40236031  0.19455145  0.40832817  1
  Rh  Rh211  1  0.20479803  0.39514988  0.79909622  1
  Rh  Rh212  1  0.21014910  0.39471213  0.39669241  1
  Rh  Rh213  1  0.19645345  0.41051969  0.59827035  1
  Rh  Rh214  1  0.79682521  0.80206061  0.59299534  1
  Rh  Rh215  1  0.79675831  0.60812401  0.79179430  1
  Rh  Rh216  1  0.19824031  0.20093293  0.60806586  1
  Rh  Rh217  1  -0.00133431  -0.00745400  0.79493188  1
  Rh  Rh218  1  0.20410020  0.18875133  -0.00351575  1
  Rh  Rh219  1  0.39250146  0.39994609  0.00007999  1
  Rh  Rh220  1  0.00003078  0.20856555  0.80769141  1
  Rh  Rh221  1  0.59918933  0.80330637  0.60271727  1
  Rh  Rh222  1  0.60282638  -0.00393396  0.79364968  1
  Rh  Rh223  1  -0.01209772  0.40372618  0.00574717  1
  Rh  Rh224  1  0.60544771  0.01235557  0.19126432  1
  Rh  Rh225  1  0.80979212  0.20524911  -0.00242788  1
  Rh  Rh226  1  0.00154108  0.80818737  0.60664964  1
  Rh  Rh227  1  0.40897729  0.21022904  0.18786294  1
  Rh  Rh228  1  0.59933235  0.60289092  0.59925590  1
  Rh  Rh229  1  0.79664588  0.80421502  -0.00287858  1
  Rh  Rh230  1  0.40041389  0.39831543  0.60244872  1
  Rh  Rh231  1  0.59718201  0.00112850  0.39717082  1
  Rh  Rh232  1  -0.00734096  0.78838309  0.39193628  1
  Rh  Rh233  1  0.39428517  0.59966395  -0.00694180  1
  Rh  Rh234  1  0.78798236  0.18746368  0.19294987  1
  Rh  Rh235  1  0.80467430  0.60506693  0.60861641  1
  Rh  Rh236  1  0.80813113  0.40130868  0.19646844  1
  Rh  Rh237  1  0.81166320  0.21588162  0.41745358  1
  Rh  Rh238  1  0.19555168  0.78898262  0.20480439  1
  Rh  Rh239  1  0.80435097  0.81008565  0.20534865  1
  Rh  Rh240  1  0.00837116  0.59092192  0.18647483  1
  Rh  Rh241  1  0.79257798  0.59114623  0.19157443  1
  Rh  Rh242  1  0.40919048  0.80152585  -0.00309896  1
  Rh  Rh243  1  0.19920573  -0.00294841  0.81111553  1
  Rh  Rh244  1  0.20583839  0.80154341  0.80413857  1
  Rh  Rh245  1  0.59332138  0.20092106  0.00601749  1
  Rh  Rh246  1  0.20612039  0.40502039  0.00308621  1
  Rh  Rh247  1  0.20014005  0.60894442  0.41179447  1
  Rh  Rh248  1  0.19742343  0.00521602  0.19883919  1
  Rh  Rh249  1  0.59614737  0.19961637  0.39035703  1
