# generated using pymatgen
data_ZrScNbPdRh
_symmetry_space_group_name_H-M   'P 1'
_cell_length_a   16.55596964
_cell_length_b   16.55227418
_cell_length_c   16.55738368
_cell_angle_alpha   90.02023202
_cell_angle_beta   90.01373676
_cell_angle_gamma   90.01806552
_symmetry_Int_Tables_number   1
_chemical_formula_structural   ZrScNbPdRh
_chemical_formula_sum   'Zr50 Sc50 Nb50 Pd50 Rh50'
_cell_volume   4537.36737920
_cell_formula_units_Z   50
loop_
 _symmetry_equiv_pos_site_id
 _symmetry_equiv_pos_as_xyz
  1  'x, y, z'
loop_
 _atom_site_type_symbol
 _atom_site_label
 _atom_site_symmetry_multiplicity
 _atom_site_fract_x
 _atom_site_fract_y
 _atom_site_fract_z
 _atom_site_occupancy
  Zr  Zr0  1  0.90650862  0.31361177  0.70038393  1
  Zr  Zr1  1  0.49968374  0.30234530  0.29667375  1
  Zr  Zr2  1  0.29727501  0.30187724  0.30117357  1
  Zr  Zr3  1  0.90987829  0.09948939  0.89844783  1
  Zr  Zr4  1  0.70253103  0.30744957  0.09534072  1
  Zr  Zr5  1  0.09537214  0.29242772  0.29431914  1
  Zr  Zr6  1  0.89181168  0.49955617  0.89576404  1
  Zr  Zr7  1  0.30596390  0.50588593  0.69815294  1
  Zr  Zr8  1  0.30336313  0.89969240  0.49575499  1
  Zr  Zr9  1  0.50187306  0.29554640  0.69787762  1
  Zr  Zr10  1  0.90001509  0.29062864  0.11377189  1
  Zr  Zr11  1  0.28867188  0.49554564  0.09925455  1
  Zr  Zr12  1  0.70276467  0.70378085  0.69935180  1
  Zr  Zr13  1  0.90050793  0.10269378  0.28975723  1
  Zr  Zr14  1  0.30390185  0.29766799  0.10054694  1
  Zr  Zr15  1  0.70755236  0.90120437  0.29634724  1
  Zr  Zr16  1  0.50119407  0.10284529  0.10885932  1
  Zr  Zr17  1  0.50150790  0.49869127  0.30234739  1
  Zr  Zr18  1  0.90084061  0.69450293  0.90200709  1
  Zr  Zr19  1  0.30510281  0.70251734  0.70383166  1
  Zr  Zr20  1  0.70656733  0.31043085  0.30339959  1
  Zr  Zr21  1  0.50238477  0.89518733  0.70771867  1
  Zr  Zr22  1  0.30223837  0.70502078  0.10179015  1
  Zr  Zr23  1  0.69776637  0.10270144  0.50068545  1
  Zr  Zr24  1  0.50056699  0.50574861  0.70025319  1
  Zr  Zr25  1  0.30412695  0.49803168  0.30136025  1
  Zr  Zr26  1  0.08695036  0.69644699  0.49951985  1
  Zr  Zr27  1  0.49979775  0.69925713  0.29859883  1
  Zr  Zr28  1  0.29398030  0.70919813  0.90754636  1
  Zr  Zr29  1  0.51530919  0.10072205  0.90724618  1
  Zr  Zr30  1  0.50602438  0.10349984  0.49331439  1
  Zr  Zr31  1  0.90866005  0.69673631  0.69820371  1
  Zr  Zr32  1  0.49932548  0.30109166  0.09895658  1
  Zr  Zr33  1  0.30587847  0.10042178  0.29588055  1
  Zr  Zr34  1  0.50850917  0.49958951  0.10548666  1
  Zr  Zr35  1  0.30598563  0.70051393  0.30133865  1
  Zr  Zr36  1  0.69611764  0.10242923  0.09201509  1
  Zr  Zr37  1  0.70909637  0.10944680  0.89202501  1
  Zr  Zr38  1  0.70085427  0.89860267  0.69306418  1
  Zr  Zr39  1  0.88955382  0.10052000  0.70323944  1
  Zr  Zr40  1  0.09920530  0.09785408  0.50181907  1
  Zr  Zr41  1  0.10666749  0.68902748  0.08434495  1
  Zr  Zr42  1  0.89598543  0.70429985  0.30471079  1
  Zr  Zr43  1  0.30241091  0.29550310  0.70706580  1
  Zr  Zr44  1  0.50646132  0.09720758  0.70144414  1
  Zr  Zr45  1  0.09426411  0.69684442  0.30540671  1
  Zr  Zr46  1  0.69684937  0.29907889  0.90137562  1
  Zr  Zr47  1  0.10426248  0.30207391  0.10854719  1
  Zr  Zr48  1  0.89065030  0.89532060  0.10043103  1
  Zr  Zr49  1  0.30092506  0.69574496  0.49386983  1
  Sc  Sc50  1  0.89658176  0.29568122  0.50938210  1
  Sc  Sc51  1  0.90660471  0.90338933  0.69288875  1
  Sc  Sc52  1  0.50591075  0.69445177  0.70154802  1
  Sc  Sc53  1  0.89388144  0.49933190  0.08955880  1
  Sc  Sc54  1  0.30362988  0.90895840  0.29470805  1
  Sc  Sc55  1  0.69071093  0.89937550  0.90670590  1
  Sc  Sc56  1  0.89548687  0.69996535  0.50007504  1
  Sc  Sc57  1  0.90490885  0.09715019  0.50589434  1
  Sc  Sc58  1  0.30537449  0.29743982  0.90563529  1
  Sc  Sc59  1  0.10954528  0.09771844  0.29840388  1
  Sc  Sc60  1  0.50326813  0.89664024  0.29106896  1
  Sc  Sc61  1  0.69768638  0.69021861  0.90113560  1
  Sc  Sc62  1  0.08112341  0.49975451  0.69671796  1
  Sc  Sc63  1  0.09682340  0.10343054  0.71524698  1
  Sc  Sc64  1  0.10615010  0.90520565  0.89808810  1
  Sc  Sc65  1  0.30090818  0.09483979  0.10794390  1
  Sc  Sc66  1  0.89164613  0.29926124  0.90204956  1
  Sc  Sc67  1  0.69107360  0.70305063  0.09336968  1
  Sc  Sc68  1  0.70534033  0.28937107  0.69486954  1
  Sc  Sc69  1  0.30927234  0.09932049  0.70612744  1
  Sc  Sc70  1  0.10050106  0.50879000  0.91229092  1
  Sc  Sc71  1  0.49448112  0.29937072  0.90850167  1
  Sc  Sc72  1  0.70017559  0.89848927  0.50104245  1
  Sc  Sc73  1  0.10602484  0.49585498  0.29589345  1
  Sc  Sc74  1  0.30009505  0.50179131  0.48684238  1
  Sc  Sc75  1  0.70158227  0.50672682  0.69967793  1
  Sc  Sc76  1  0.69262791  0.69850851  0.30653723  1
  Sc  Sc77  1  0.69726696  0.29927354  0.50321527  1
  Sc  Sc78  1  0.88224628  0.49475673  0.30753887  1
  Sc  Sc79  1  0.08543297  0.90451226  0.49716856  1
  Sc  Sc80  1  0.30888377  0.09849850  0.49263140  1
  Sc  Sc81  1  0.89523772  0.50380186  0.50476320  1
  Sc  Sc82  1  0.50368127  0.89994980  0.50044690  1
  Sc  Sc83  1  0.30350235  0.89781248  0.10008831  1
  Sc  Sc84  1  0.69141645  0.89836845  0.10367866  1
  Sc  Sc85  1  0.50469038  0.70536409  0.90003539  1
  Sc  Sc86  1  0.30728469  0.49506087  0.90330837  1
  Sc  Sc87  1  0.50469234  0.50297393  0.90401628  1
  Sc  Sc88  1  0.68973692  0.09414495  0.29914939  1
  Sc  Sc89  1  0.70073981  0.50108152  0.90668199  1
  Sc  Sc90  1  0.69100316  0.50447304  0.29904856  1
  Sc  Sc91  1  0.50594150  0.29724602  0.49665623  1
  Sc  Sc92  1  0.69670961  0.70452182  0.50163737  1
  Sc  Sc93  1  0.30577786  0.89706350  0.89814450  1
  Sc  Sc94  1  0.89915548  0.89918759  0.49799483  1
  Sc  Sc95  1  0.30139184  0.09612224  0.89579077  1
  Sc  Sc96  1  0.09506369  0.29490088  0.49906868  1
  Sc  Sc97  1  0.69935741  0.50292087  0.49304991  1
  Sc  Sc98  1  0.30727307  0.90369490  0.71084878  1
  Sc  Sc99  1  0.09666550  0.29154305  0.89073011  1
  Nb  Nb100  1  0.49860450  0.90163223  0.90309443  1
  Nb  Nb101  1  0.49914784  0.10346002  0.29775993  1
  Nb  Nb102  1  0.90204178  0.89862170  0.29525759  1
  Nb  Nb103  1  0.50272416  0.89328351  0.09654573  1
  Nb  Nb104  1  0.89935094  0.69908479  0.09712175  1
  Nb  Nb105  1  0.89561073  0.50318336  0.70428297  1
  Nb  Nb106  1  0.49532423  0.69991896  0.49591349  1
  Nb  Nb107  1  0.10127019  0.89578900  0.69106276  1
  Nb  Nb108  1  0.10070821  0.50316063  0.49507904  1
  Nb  Nb109  1  0.29922301  0.30559621  0.50306023  1
  Nb  Nb110  1  0.09800050  0.70385034  0.69954269  1
  Nb  Nb111  1  0.70089857  0.10274167  0.70153461  1
  Nb  Nb112  1  0.09674354  0.09331324  0.09469830  1
  Nb  Nb113  1  0.49711137  0.50575025  0.50371090  1
  Nb  Nb114  1  0.09379526  0.89740856  0.29713684  1
  Nb  Nb115  1  0.10132204  0.09997323  0.90772775  1
  Nb  Nb116  1  0.10213572  0.90147619  0.10068850  1
  Nb  Nb117  1  0.10059156  0.70237837  0.89806238  1
  Nb  Nb118  1  0.09784317  0.49640824  0.09877149  1
  Nb  Nb119  1  0.10639986  0.30409495  0.69829924  1
  Nb  Nb120  1  0.69587362  0.50339712  0.09580779  1
  Nb  Nb121  1  0.49840790  0.70880446  0.10535634  1
  Nb  Nb122  1  0.89757313  0.89811753  0.89997740  1
  Nb  Nb123  1  0.90282449  0.09981393  0.09461492  1
  Nb  Nb124  1  0.89951797  0.29904367  0.30120133  1
  Nb  Nb125  1  -0.00399989  0.39551935  0.39753878  1
  Nb  Nb126  1  -0.00112346  -0.00523324  0.19413011  1
  Nb  Nb127  1  0.19305389  0.19068008  0.00082854  1
  Nb  Nb128  1  0.19337688  0.60054460  0.60225600  1
  Nb  Nb129  1  0.80224024  0.20013245  0.39527218  1
  Nb  Nb130  1  0.00123060  0.79922702  -0.00055945  1
  Nb  Nb131  1  0.19849908  -0.00075840  0.60321339  1
  Nb  Nb132  1  0.19854897  0.80069713  0.59787105  1
  Nb  Nb133  1  -0.00641443  0.60077453  0.19338743  1
  Nb  Nb134  1  0.59885917  0.39717351  0.79666655  1
  Nb  Nb135  1  0.20325650  0.20114377  0.60305823  1
  Nb  Nb136  1  0.19427040  0.80323057  0.39771681  1
  Nb  Nb137  1  0.19039916  0.80159912  0.20280713  1
  Nb  Nb138  1  0.39888706  0.79557410  0.59815903  1
  Nb  Nb139  1  0.00163176  0.39851788  0.00560315  1
  Nb  Nb140  1  0.80535468  0.80108130  0.80123845  1
  Nb  Nb141  1  0.39771373  0.40069005  0.59594878  1
  Nb  Nb142  1  0.19482938  0.60315969  0.79649109  1
  Nb  Nb143  1  0.19753595  0.40517960  0.79287253  1
  Nb  Nb144  1  0.00001664  0.79792323  0.19356192  1
  Nb  Nb145  1  0.19992049  0.40140767  0.60007603  1
  Nb  Nb146  1  0.79951221  0.60411182  0.19248323  1
  Nb  Nb147  1  0.40231630  0.60736733  0.01034050  1
  Nb  Nb148  1  0.80550054  0.00318838  -0.00168101  1
  Nb  Nb149  1  0.41178478  -0.00354951  0.00216141  1
  Pd  Pd150  1  0.80521766  0.00672277  0.40245012  1
  Pd  Pd151  1  -0.00468190  -0.01030089  0.00156829  1
  Pd  Pd152  1  0.78784545  0.19445920  0.20496200  1
  Pd  Pd153  1  0.18867772  0.39516814  0.40260059  1
  Pd  Pd154  1  0.60336700  0.60521659  0.59576077  1
  Pd  Pd155  1  0.19400786  0.60354380  0.20425001  1
  Pd  Pd156  1  0.59749595  0.40167137  0.40566348  1
  Pd  Pd157  1  -0.00504419  0.20465764  0.79544964  1
  Pd  Pd158  1  0.78823768  0.39768648  0.79428557  1
  Pd  Pd159  1  0.79643042  0.80127914  -0.00771858  1
  Pd  Pd160  1  -0.00131568  0.80779814  0.80507073  1
  Pd  Pd161  1  0.40763885  0.19410201  0.81044721  1
  Pd  Pd162  1  0.79896282  0.41150364  0.19372736  1
  Pd  Pd163  1  0.60789238  0.20726680  0.20366635  1
  Pd  Pd164  1  0.79958325  0.00057089  0.59451833  1
  Pd  Pd165  1  0.00687737  0.40616650  0.81216880  1
  Pd  Pd166  1  0.20506920  0.19997925  0.40673293  1
  Pd  Pd167  1  0.59649874  -0.00707977  0.39483636  1
  Pd  Pd168  1  0.60815806  0.79744569  0.80479261  1
  Pd  Pd169  1  0.79348959  0.40554497  0.59941380  1
  Pd  Pd170  1  0.40410866  0.39996932  0.79851926  1
  Pd  Pd171  1  0.00354311  0.21100049  0.00345495  1
  Pd  Pd172  1  0.19822700  0.00046589  0.79577478  1
  Pd  Pd173  1  0.41233745  -0.00474675  0.39184909  1
  Pd  Pd174  1  0.79709062  0.80103993  0.40438659  1
  Pd  Pd175  1  0.21333834  -0.00056985  0.00100928  1
  Pd  Pd176  1  0.40213229  0.59445470  0.19520965  1
  Pd  Pd177  1  0.79910649  0.60079716  0.59864014  1
  Pd  Pd178  1  0.59995457  -0.00028600  0.59943676  1
  Pd  Pd179  1  0.59833013  0.40236442  0.60348913  1
  Pd  Pd180  1  0.79932363  0.00601558  0.19212816  1
  Pd  Pd181  1  0.19114064  0.38885009  -0.01312003  1
  Pd  Pd182  1  0.60822470  -0.00123077  0.80124980  1
  Pd  Pd183  1  -0.00912095  0.41350688  0.20265198  1
  Pd  Pd184  1  -0.00579857  0.00368608  0.39065993  1
  Pd  Pd185  1  0.39800472  -0.00580814  0.60272336  1
  Pd  Pd186  1  0.00423162  0.19662829  0.61149820  1
  Pd  Pd187  1  0.00570183  -0.00711098  0.79709323  1
  Pd  Pd188  1  0.79325187  0.78938467  0.19961958  1
  Pd  Pd189  1  0.39733155  0.20212318  0.59261967  1
  Pd  Pd190  1  0.40026294  0.20649279  0.39998396  1
  Pd  Pd191  1  0.59991372  0.80493625  0.39965463  1
  Pd  Pd192  1  0.19707364  -0.00549918  0.40339856  1
  Pd  Pd193  1  0.00239656  0.40513272  0.58915366  1
  Pd  Pd194  1  0.39790878  0.60742739  0.81749905  1
  Pd  Pd195  1  -0.00881129  0.58453564  0.39208399  1
  Pd  Pd196  1  0.79356203  -0.01053915  0.80595205  1
  Pd  Pd197  1  0.19747564  0.80101939  0.79631195  1
  Pd  Pd198  1  0.00548923  0.59461119  0.80472598  1
  Pd  Pd199  1  -0.00742980  0.20026371  0.40054132  1
  Rh  Rh200  1  0.39933255  0.80432340  0.39920987  1
  Rh  Rh201  1  0.80537505  0.39707653  0.00369499  1
  Rh  Rh202  1  0.39946570  0.20399955  0.20343720  1
  Rh  Rh203  1  0.60761889  0.20366777  0.39148943  1
  Rh  Rh204  1  0.80600849  0.19522098  0.00021066  1
  Rh  Rh205  1  0.59604406  -0.00192756  0.19949851  1
  Rh  Rh206  1  0.80604109  0.80063773  0.60588099  1
  Rh  Rh207  1  0.79394154  0.60049158  0.00543766  1
  Rh  Rh208  1  0.79446213  0.60417540  0.39487814  1
  Rh  Rh209  1  0.80755285  0.20816923  0.79501907  1
  Rh  Rh210  1  0.41063500  0.00435905  0.81097937  1
  Rh  Rh211  1  0.60377427  0.79781463  0.20227390  1
  Rh  Rh212  1  -0.00453620  0.59669710  0.00001321  1
  Rh  Rh213  1  0.20219251  0.20261039  0.80499126  1
  Rh  Rh214  1  0.39629080  0.40082036  0.19821035  1
  Rh  Rh215  1  0.60117554  -0.00374088  0.00584493  1
  Rh  Rh216  1  0.40986787  -0.00484848  0.19408485  1
  Rh  Rh217  1  0.20216152  0.39988330  0.20516335  1
  Rh  Rh218  1  0.40672073  0.80133619  -0.00177387  1
  Rh  Rh219  1  0.39504781  0.80649290  0.20433786  1
  Rh  Rh220  1  0.38979833  0.18576723  0.00308128  1
  Rh  Rh221  1  0.40532987  0.41193061  0.00866274  1
  Rh  Rh222  1  0.19360912  0.80993781  0.00252031  1
  Rh  Rh223  1  0.60110250  0.19394582  0.60164946  1
  Rh  Rh224  1  0.19817402  0.60340710  0.39998873  1
  Rh  Rh225  1  0.40646060  0.79607941  0.79851058  1
  Rh  Rh226  1  0.60300973  0.59132850  0.80200387  1
  Rh  Rh227  1  0.59861677  0.20654801  0.79820802  1
  Rh  Rh228  1  0.79953359  0.19456964  0.59577654  1
  Rh  Rh229  1  0.60028842  0.20782625  0.00370762  1
  Rh  Rh230  1  0.60613437  0.60616720  0.19745797  1
  Rh  Rh231  1  0.59694768  0.79685697  -0.00187595  1
  Rh  Rh232  1  0.19477936  -0.00337465  0.19890257  1
  Rh  Rh233  1  0.40846023  0.39918075  0.40759153  1
  Rh  Rh234  1  0.79872789  0.60610117  0.79709152  1
  Rh  Rh235  1  0.21239930  0.59533748  -0.00992577  1
  Rh  Rh236  1  0.59858403  0.39988064  -0.00699279  1
  Rh  Rh237  1  -0.00084750  0.79996283  0.59487864  1
  Rh  Rh238  1  0.80703404  0.38982581  0.41245822  1
  Rh  Rh239  1  0.59451385  0.60022233  0.40645988  1
  Rh  Rh240  1  0.59055467  0.60422359  0.00463898  1
  Rh  Rh241  1  0.40702124  0.59514153  0.39794488  1
  Rh  Rh242  1  -0.00349787  0.80505423  0.39990906  1
  Rh  Rh243  1  0.60594855  0.39807998  0.19921891  1
  Rh  Rh244  1  0.39687607  0.60103500  0.58992949  1
  Rh  Rh245  1  0.58855095  0.79530180  0.59661478  1
  Rh  Rh246  1  0.00647536  0.00813007  0.60993144  1
  Rh  Rh247  1  -0.00245258  0.59562657  0.59906949  1
  Rh  Rh248  1  0.19895617  0.19217109  0.19239673  1
  Rh  Rh249  1  0.00852372  0.18660384  0.19819642  1
