# generated using pymatgen
data_ZrScNbPdRh
_symmetry_space_group_name_H-M   'P 1'
_cell_length_a   16.56187047
_cell_length_b   16.55555492
_cell_length_c   16.56160820
_cell_angle_alpha   90.01469551
_cell_angle_beta   89.97977276
_cell_angle_gamma   89.99003915
_symmetry_Int_Tables_number   1
_chemical_formula_structural   ZrScNbPdRh
_chemical_formula_sum   'Zr50 Sc50 Nb50 Pd50 Rh50'
_cell_volume   4541.04268593
_cell_formula_units_Z   50
loop_
 _symmetry_equiv_pos_site_id
 _symmetry_equiv_pos_as_xyz
  1  'x, y, z'
loop_
 _atom_site_type_symbol
 _atom_site_label
 _atom_site_symmetry_multiplicity
 _atom_site_fract_x
 _atom_site_fract_y
 _atom_site_fract_z
 _atom_site_occupancy
  Zr  Zr0  1  0.29850529  0.09352325  0.70650125  1
  Zr  Zr1  1  0.29083995  0.50655816  0.89475058  1
  Zr  Zr2  1  0.30066588  0.70333721  0.89903472  1
  Zr  Zr3  1  0.49578619  0.29950330  0.29912004  1
  Zr  Zr4  1  0.10160290  0.49823469  0.69717806  1
  Zr  Zr5  1  0.30276396  0.10002874  0.10270702  1
  Zr  Zr6  1  0.89387415  0.09597063  0.50033647  1
  Zr  Zr7  1  0.70614624  0.09932978  0.29191138  1
  Zr  Zr8  1  0.50490314  0.69952009  0.29848339  1
  Zr  Zr9  1  0.70348064  0.90045165  0.09349144  1
  Zr  Zr10  1  0.51687797  0.90098415  0.50189607  1
  Zr  Zr11  1  0.91104499  0.89583871  0.10062602  1
  Zr  Zr12  1  0.09014822  0.09043884  0.09301121  1
  Zr  Zr13  1  0.50058062  0.69486484  0.49922065  1
  Zr  Zr14  1  0.50391880  0.89692652  0.90014328  1
  Zr  Zr15  1  0.90738065  0.50333807  0.10268737  1
  Zr  Zr16  1  0.89640152  0.50408276  0.90103074  1
  Zr  Zr17  1  0.10658512  0.50338397  0.50441311  1
  Zr  Zr18  1  0.30674909  0.11068331  0.30026702  1
  Zr  Zr19  1  0.49778514  0.91006776  0.30780231  1
  Zr  Zr20  1  0.90261031  0.10015619  0.10411817  1
  Zr  Zr21  1  0.29776409  0.30578150  0.48806867  1
  Zr  Zr22  1  0.29689360  0.89921192  0.30589986  1
  Zr  Zr23  1  0.69268994  0.70275169  0.11409900  1
  Zr  Zr24  1  0.49831331  0.50639355  0.10352931  1
  Zr  Zr25  1  0.69843086  0.30225676  0.51275326  1
  Zr  Zr26  1  0.50345219  0.09734279  0.50364331  1
  Zr  Zr27  1  0.88668111  0.90096127  0.89754758  1
  Zr  Zr28  1  0.49627737  0.49960332  0.69294894  1
  Zr  Zr29  1  0.89741388  0.50007777  0.69531623  1
  Zr  Zr30  1  0.68866863  0.49832636  0.49461204  1
  Zr  Zr31  1  0.50627710  0.70201791  0.69860925  1
  Zr  Zr32  1  0.09788169  0.10110536  0.49965948  1
  Zr  Zr33  1  0.69281591  0.30884994  0.30146554  1
  Zr  Zr34  1  0.90866512  0.30245529  0.29361531  1
  Zr  Zr35  1  0.69633770  0.29302180  0.89538819  1
  Zr  Zr36  1  0.70753381  0.90307279  0.70244357  1
  Zr  Zr37  1  0.29978595  0.69624963  0.48825812  1
  Zr  Zr38  1  0.90734351  0.29616822  0.10094182  1
  Zr  Zr39  1  0.70989791  0.90322591  0.50308247  1
  Zr  Zr40  1  0.30399515  0.90713459  0.88884917  1
  Zr  Zr41  1  0.29514283  0.09395828  0.89721242  1
  Zr  Zr42  1  0.29733415  0.29814122  0.11210449  1
  Zr  Zr43  1  0.50689961  0.30007509  0.69715699  1
  Zr  Zr44  1  0.10919023  0.69182451  0.89524679  1
  Zr  Zr45  1  0.28899357  0.71238974  0.70412667  1
  Zr  Zr46  1  0.10781956  0.30203707  0.30301577  1
  Zr  Zr47  1  0.69831078  0.89912374  0.89592540  1
  Zr  Zr48  1  0.30424801  0.90428517  0.09104627  1
  Zr  Zr49  1  0.69486160  0.70965339  0.49485927  1
  Sc  Sc50  1  0.10357268  0.30051955  0.50592923  1
  Sc  Sc51  1  0.51295401  0.49606210  0.30682393  1
  Sc  Sc52  1  0.09904337  0.91264580  0.90877897  1
  Sc  Sc53  1  0.30038275  0.31052229  0.89275608  1
  Sc  Sc54  1  0.09505156  0.29952842  0.10701026  1
  Sc  Sc55  1  0.10015894  0.29615537  0.89166328  1
  Sc  Sc56  1  0.09243182  0.69915507  0.30904464  1
  Sc  Sc57  1  0.69752946  0.08803893  0.50543741  1
  Sc  Sc58  1  0.89420487  0.70062536  0.90776164  1
  Sc  Sc59  1  0.10430006  0.10829987  0.70147874  1
  Sc  Sc60  1  0.90314037  0.70388298  0.50457331  1
  Sc  Sc61  1  0.10403766  0.49429256  0.89823168  1
  Sc  Sc62  1  0.09018114  0.49657449  0.30816837  1
  Sc  Sc63  1  0.09502413  0.89576693  0.49361916  1
  Sc  Sc64  1  0.70273109  0.69066639  0.89732360  1
  Sc  Sc65  1  0.49690889  0.10624379  0.69661560  1
  Sc  Sc66  1  0.09642900  0.90115808  0.30872556  1
  Sc  Sc67  1  0.09610291  0.10324606  0.89540706  1
  Sc  Sc68  1  0.49655339  0.30272121  0.89242604  1
  Sc  Sc69  1  0.70201511  0.70144634  0.70212562  1
  Sc  Sc70  1  0.11025453  0.89284013  0.68840266  1
  Sc  Sc71  1  0.69949898  0.09666590  0.09960570  1
  Sc  Sc72  1  0.89221098  0.70030848  0.69369406  1
  Sc  Sc73  1  0.29579178  0.49485866  0.69396299  1
  Sc  Sc74  1  0.30073862  0.29568005  0.70015361  1
  Sc  Sc75  1  0.69398292  0.50887477  0.10224045  1
  Sc  Sc76  1  0.49932779  0.49502617  0.89115211  1
  Sc  Sc77  1  0.69831987  0.50308620  0.69970227  1
  Sc  Sc78  1  0.70235179  0.89294838  0.30793233  1
  Sc  Sc79  1  0.91144054  0.29247980  0.88976302  1
  Sc  Sc80  1  0.29642517  0.10753084  0.50098307  1
  Sc  Sc81  1  0.10206688  0.49957038  0.09244505  1
  Sc  Sc82  1  0.51109827  0.89930974  0.70665673  1
  Sc  Sc83  1  0.90837110  0.50365333  0.50419193  1
  Sc  Sc84  1  0.09614893  0.09497192  0.30329598  1
  Sc  Sc85  1  0.50407642  0.09793643  0.10945543  1
  Sc  Sc86  1  0.09901032  0.70179367  0.68992897  1
  Sc  Sc87  1  0.89281258  0.11369691  0.70054319  1
  Sc  Sc88  1  0.09702407  0.29985187  0.70036494  1
  Sc  Sc89  1  0.29813423  0.49909189  0.08944858  1
  Sc  Sc90  1  0.09752814  0.70004109  0.50151458  1
  Sc  Sc91  1  0.70380688  0.09341060  0.89521137  1
  Sc  Sc92  1  0.31087583  0.68724442  0.09262263  1
  Sc  Sc93  1  0.08502378  0.70191184  0.10188939  1
  Sc  Sc94  1  0.50274271  0.09827335  0.89897753  1
  Sc  Sc95  1  0.50926839  0.89887750  0.09410063  1
  Sc  Sc96  1  0.49672167  0.30285940  0.50779008  1
  Sc  Sc97  1  0.90241822  0.09370248  0.29376513  1
  Sc  Sc98  1  0.69456042  0.29100701  0.10848908  1
  Sc  Sc99  1  0.28499359  0.89966468  0.49477438  1
  Nb  Nb100  1  0.29904977  0.30446168  0.30145360  1
  Nb  Nb101  1  0.70637117  0.49520044  0.90224132  1
  Nb  Nb102  1  0.90318125  0.90360915  0.31401699  1
  Nb  Nb103  1  0.89608797  0.90319960  0.50588763  1
  Nb  Nb104  1  0.70055675  0.69340814  0.30207816  1
  Nb  Nb105  1  0.30756652  0.49797813  0.49422401  1
  Nb  Nb106  1  0.89791889  0.70170090  0.11118335  1
  Nb  Nb107  1  0.70847736  0.29481435  0.69903133  1
  Nb  Nb108  1  0.70008761  0.49734342  0.30275433  1
  Nb  Nb109  1  0.89643743  0.89603129  0.69756889  1
  Nb  Nb110  1  0.29828816  0.49478168  0.30919898  1
  Nb  Nb111  1  0.50087183  0.09867477  0.30817048  1
  Nb  Nb112  1  0.30149529  0.90228175  0.69779145  1
  Nb  Nb113  1  0.49842939  0.30521195  0.10051738  1
  Nb  Nb114  1  0.70098374  0.10694979  0.69978670  1
  Nb  Nb115  1  0.89708794  0.69560355  0.28898537  1
  Nb  Nb116  1  0.89946387  0.49970155  0.30249785  1
  Nb  Nb117  1  0.89413284  0.29551351  0.51062280  1
  Nb  Nb118  1  0.49831412  0.70380499  0.89867009  1
  Nb  Nb119  1  0.88882706  0.29969098  0.68954267  1
  Nb  Nb120  1  0.50150711  0.69812897  0.10162416  1
  Nb  Nb121  1  0.90551789  0.10187773  0.89941047  1
  Nb  Nb122  1  0.49270096  0.49926628  0.50426726  1
  Nb  Nb123  1  0.10346092  0.89983781  0.10134909  1
  Nb  Nb124  1  0.30124808  0.70080255  0.29867289  1
  Nb  Nb125  1  0.20032779  -0.00611279  0.19703045  1
  Nb  Nb126  1  -0.00161731  0.60310092  0.79741379  1
  Nb  Nb127  1  -0.00658542  -0.00304257  0.60413034  1
  Nb  Nb128  1  0.20519390  0.19842536  0.00243111  1
  Nb  Nb129  1  0.20555243  0.60400930  0.20709747  1
  Nb  Nb130  1  0.80535084  0.40088506  0.39927823  1
  Nb  Nb131  1  0.20108382  0.80202015  0.00513139  1
  Nb  Nb132  1  0.79984726  0.59857110  0.39039089  1
  Nb  Nb133  1  0.39528386  0.40029565  0.20585624  1
  Nb  Nb134  1  -0.00323886  0.80285660  0.79872784  1
  Nb  Nb135  1  0.60212914  0.19745737  0.39882982  1
  Nb  Nb136  1  0.79691965  0.39520035  -0.00010617  1
  Nb  Nb137  1  0.79906688  0.20660921  0.39960594  1
  Nb  Nb138  1  0.79866681  0.39465920  0.79909877  1
  Nb  Nb139  1  0.60436874  0.39931524  -0.00092552  1
  Nb  Nb140  1  0.39997088  0.79548591  0.19872780  1
  Nb  Nb141  1  0.39823510  0.60764214  0.79721507  1
  Nb  Nb142  1  0.39686480  -0.00861421  0.60178517  1
  Nb  Nb143  1  -0.00821748  0.20411538  0.40560931  1
  Nb  Nb144  1  0.20469337  0.79718100  0.19667478  1
  Nb  Nb145  1  0.39822533  0.80546820  0.59812953  1
  Nb  Nb146  1  -0.00752688  -0.00476508  0.79123525  1
  Nb  Nb147  1  0.80580755  0.20167801  -0.00240345  1
  Nb  Nb148  1  0.39792240  0.20419987  0.00488015  1
  Nb  Nb149  1  0.80075273  0.40506593  0.20147981  1
  Pd  Pd150  1  0.19542196  0.59722120  0.39482325  1
  Pd  Pd151  1  0.79795666  0.60300087  0.01299379  1
  Pd  Pd152  1  0.40715634  0.59254042  0.39170309  1
  Pd  Pd153  1  0.60597031  0.60118253  0.59846513  1
  Pd  Pd154  1  0.01126264  0.59508549  0.20423306  1
  Pd  Pd155  1  0.00490860  0.79918336  -0.00984914  1
  Pd  Pd156  1  0.19677366  0.00113573  0.59824929  1
  Pd  Pd157  1  0.41253300  0.00837674  -0.00073208  1
  Pd  Pd158  1  0.38894196  0.61003792  0.60740049  1
  Pd  Pd159  1  0.59908945  0.00743821  0.79637834  1
  Pd  Pd160  1  0.60654018  0.78936280  -0.00506250  1
  Pd  Pd161  1  0.00443981  0.80456514  0.21042258  1
  Pd  Pd162  1  0.60749240  0.40198749  0.79760894  1
  Pd  Pd163  1  0.80393997  0.00872044  0.00121674  1
  Pd  Pd164  1  0.79392139  0.78875771  0.00495533  1
  Pd  Pd165  1  0.40314890  0.39778265  0.00233391  1
  Pd  Pd166  1  0.81096244  0.79127720  0.39742683  1
  Pd  Pd167  1  0.39990372  0.79801869  0.00471374  1
  Pd  Pd168  1  0.80453031  -0.01398896  0.20179350  1
  Pd  Pd169  1  0.40545929  0.80357273  0.40414911  1
  Pd  Pd170  1  0.40930717  0.59527525  -0.01323435  1
  Pd  Pd171  1  0.40533010  0.80118046  0.79232333  1
  Pd  Pd172  1  0.19464937  0.38730855  -0.00176822  1
  Pd  Pd173  1  0.39109956  0.00136579  0.41425481  1
  Pd  Pd174  1  -0.00662614  0.40343440  0.79607209  1
  Pd  Pd175  1  0.40713394  0.20248492  0.40778100  1
  Pd  Pd176  1  0.20466140  0.20482079  0.60127629  1
  Pd  Pd177  1  0.00166651  0.39549513  0.59723235  1
  Pd  Pd178  1  0.00074065  0.39483162  -0.00657175  1
  Pd  Pd179  1  -0.00842493  0.79515948  0.40128083  1
  Pd  Pd180  1  0.39230180  0.39322708  0.60190059  1
  Pd  Pd181  1  0.80224678  0.80730584  0.20532620  1
  Pd  Pd182  1  0.39914434  -0.00629066  0.20002562  1
  Pd  Pd183  1  0.59696627  0.20192505  0.00079675  1
  Pd  Pd184  1  0.59765829  0.19392080  0.79752216  1
  Pd  Pd185  1  0.00202428  0.60467802  -0.00604708  1
  Pd  Pd186  1  0.18831864  0.18829731  0.19864531  1
  Pd  Pd187  1  0.60326016  -0.00712314  0.20371517  1
  Pd  Pd188  1  0.59410402  0.19614055  0.20507255  1
  Pd  Pd189  1  0.59627001  0.59931099  0.80457910  1
  Pd  Pd190  1  0.59416186  0.59742913  -0.00864229  1
  Pd  Pd191  1  0.39632031  0.59368665  0.20857776  1
  Pd  Pd192  1  0.20036764  0.41424581  0.20072060  1
  Pd  Pd193  1  0.59462225  0.80955076  0.20662783  1
  Pd  Pd194  1  -0.00283307  0.39408264  0.41356912  1
  Pd  Pd195  1  0.39906236  0.19976025  0.80606774  1
  Pd  Pd196  1  0.20792476  0.60238807  0.59914384  1
  Pd  Pd197  1  0.79368616  0.59973237  0.58748664  1
  Pd  Pd198  1  0.79706803  0.59335274  0.19949383  1
  Pd  Pd199  1  0.18697628  0.81388023  0.80937016  1
  Rh  Rh200  1  0.00467670  0.20148521  -0.00218748  1
  Rh  Rh201  1  0.19786381  0.59523931  0.78913100  1
  Rh  Rh202  1  0.59994270  0.60034819  0.40059080  1
  Rh  Rh203  1  0.61283235  0.00732275  0.39166010  1
  Rh  Rh204  1  0.79561252  0.41016773  0.60061652  1
  Rh  Rh205  1  0.00359662  -0.00975893  0.20469781  1
  Rh  Rh206  1  0.20634000  0.79628888  0.58677861  1
  Rh  Rh207  1  0.40895760  0.20566912  0.19805110  1
  Rh  Rh208  1  0.39511924  0.19492218  0.59892222  1
  Rh  Rh209  1  0.59830460  0.79996301  0.39523766  1
  Rh  Rh210  1  0.80362801  0.00503597  0.61126209  1
  Rh  Rh211  1  0.80595856  0.59496641  0.79722884  1
  Rh  Rh212  1  0.20369466  0.00960206  0.39117160  1
  Rh  Rh213  1  0.80005533  0.00327742  0.39449558  1
  Rh  Rh214  1  0.80239790  0.20276404  0.80665008  1
  Rh  Rh215  1  -0.00191665  0.80716248  0.60296243  1
  Rh  Rh216  1  -0.00464429  0.00408482  0.40876744  1
  Rh  Rh217  1  0.59389438  0.39279076  0.41194056  1
  Rh  Rh218  1  0.59910731  0.59764270  0.20644084  1
  Rh  Rh219  1  0.00255355  0.40791555  0.19756230  1
  Rh  Rh220  1  0.60386504  0.19632615  0.59863951  1
  Rh  Rh221  1  0.19160397  0.61207489  0.01534756  1
  Rh  Rh222  1  0.60127551  0.00172937  -0.00067973  1
  Rh  Rh223  1  0.18592122  -0.00349586  0.79347437  1
  Rh  Rh224  1  0.39576237  0.41004456  0.79190271  1
  Rh  Rh225  1  0.20309497  0.20194741  0.80637313  1
  Rh  Rh226  1  0.19965088  0.00292391  0.00258465  1
  Rh  Rh227  1  0.19548030  0.40547460  0.40392808  1
  Rh  Rh228  1  0.41033515  -0.00142826  0.79214836  1
  Rh  Rh229  1  -0.00051908  0.19629842  0.59825028  1
  Rh  Rh230  1  0.80553309  0.00968213  0.79409591  1
  Rh  Rh231  1  -0.00966702  -0.00341924  -0.00767674  1
  Rh  Rh232  1  0.60025886  0.40341222  0.60495201  1
  Rh  Rh233  1  0.40694896  0.40487968  0.39682593  1
  Rh  Rh234  1  0.19300327  0.19858180  0.39721086  1
  Rh  Rh235  1  0.00638483  0.19369386  0.21003124  1
  Rh  Rh236  1  0.79580545  0.79746713  0.59884685  1
  Rh  Rh237  1  -0.00175805  0.19611577  0.78853832  1
  Rh  Rh238  1  0.79067904  0.19053648  0.59242762  1
  Rh  Rh239  1  0.80265567  0.79211547  0.79926010  1
  Rh  Rh240  1  0.19378269  0.79307685  0.39601952  1
  Rh  Rh241  1  0.80429923  0.20776436  0.19724539  1
  Rh  Rh242  1  0.60817575  0.79458100  0.80536637  1
  Rh  Rh243  1  -0.01061945  0.60523768  0.40176949  1
  Rh  Rh244  1  0.19890205  0.39827011  0.79574882  1
  Rh  Rh245  1  0.60290376  0.80317643  0.60337024  1
  Rh  Rh246  1  0.00101417  0.60290075  0.60505964  1
  Rh  Rh247  1  0.20591564  0.39737651  0.59471319  1
  Rh  Rh248  1  0.59837551  0.40703825  0.18764045  1
  Rh  Rh249  1  0.59792979  0.00159178  0.61279960  1
