# generated using pymatgen
data_ZrScNbPdRh
_symmetry_space_group_name_H-M   'P 1'
_cell_length_a   16.56413883
_cell_length_b   16.55477262
_cell_length_c   16.55972559
_cell_angle_alpha   90.03472805
_cell_angle_beta   90.01120752
_cell_angle_gamma   90.00712786
_symmetry_Int_Tables_number   1
_chemical_formula_structural   ZrScNbPdRh
_chemical_formula_sum   'Zr50 Sc50 Nb50 Pd50 Rh50'
_cell_volume   4540.93333758
_cell_formula_units_Z   50
loop_
 _symmetry_equiv_pos_site_id
 _symmetry_equiv_pos_as_xyz
  1  'x, y, z'
loop_
 _atom_site_type_symbol
 _atom_site_label
 _atom_site_symmetry_multiplicity
 _atom_site_fract_x
 _atom_site_fract_y
 _atom_site_fract_z
 _atom_site_occupancy
  Zr  Zr0  1  0.09724200  0.69838464  0.09575565  1
  Zr  Zr1  1  0.09607118  0.09691337  0.69354993  1
  Zr  Zr2  1  0.49035961  0.89763695  0.49413528  1
  Zr  Zr3  1  0.89516198  0.31350339  0.30142626  1
  Zr  Zr4  1  0.90630176  0.89614923  0.50072131  1
  Zr  Zr5  1  0.10317787  0.89738919  0.30114149  1
  Zr  Zr6  1  0.50260765  0.09283493  0.89779746  1
  Zr  Zr7  1  0.50219729  0.70560415  0.30709110  1
  Zr  Zr8  1  0.70281268  0.49572351  0.69868656  1
  Zr  Zr9  1  0.30200780  0.50329602  0.89662453  1
  Zr  Zr10  1  0.09302359  0.50173594  0.10100443  1
  Zr  Zr11  1  0.50247198  0.10080224  0.51010407  1
  Zr  Zr12  1  0.50257560  0.89797922  0.70926159  1
  Zr  Zr13  1  0.69735656  0.49863656  0.51246630  1
  Zr  Zr14  1  0.30329158  0.30427180  0.90116761  1
  Zr  Zr15  1  0.09897128  0.30140843  0.10426361  1
  Zr  Zr16  1  0.70073520  0.69778678  0.08585810  1
  Zr  Zr17  1  0.50478250  0.90151665  0.30387854  1
  Zr  Zr18  1  0.10193219  0.89268836  0.10317762  1
  Zr  Zr19  1  0.10114093  0.90839315  0.51542080  1
  Zr  Zr20  1  0.28883451  0.70175697  0.10448783  1
  Zr  Zr21  1  0.09972303  0.11022313  0.30543141  1
  Zr  Zr22  1  0.89918372  0.49977275  0.10955259  1
  Zr  Zr23  1  0.69818735  0.70272669  0.89414105  1
  Zr  Zr24  1  0.09880197  0.50571582  0.89703974  1
  Zr  Zr25  1  0.29673570  0.50096220  0.49945447  1
  Zr  Zr26  1  0.49438775  0.49759640  0.69769929  1
  Zr  Zr27  1  0.09276181  0.50596612  0.69479496  1
  Zr  Zr28  1  0.70390569  0.69421956  0.70016031  1
  Zr  Zr29  1  0.50663675  0.10287523  0.70454441  1
  Zr  Zr30  1  0.90113959  0.69326965  0.10340168  1
  Zr  Zr31  1  0.50560486  0.29464260  0.90440782  1
  Zr  Zr32  1  0.90697109  0.29442105  0.09925456  1
  Zr  Zr33  1  0.30475842  0.69926125  0.50292464  1
  Zr  Zr34  1  0.09491161  0.70408272  0.70344940  1
  Zr  Zr35  1  0.50440221  0.70053014  0.49800259  1
  Zr  Zr36  1  0.09199937  0.29706395  0.49568870  1
  Zr  Zr37  1  0.69685805  0.50388112  0.09623369  1
  Zr  Zr38  1  0.89725052  0.90894098  0.08895095  1
  Zr  Zr39  1  0.71120047  0.09559886  0.11692381  1
  Zr  Zr40  1  0.90309152  0.49364497  0.88769722  1
  Zr  Zr41  1  0.29420360  0.89462181  0.68928910  1
  Zr  Zr42  1  0.71007131  0.48909033  0.29240593  1
  Zr  Zr43  1  0.30942758  0.89306358  0.89789001  1
  Zr  Zr44  1  0.09719757  0.10498226  0.89134912  1
  Zr  Zr45  1  0.09375178  0.10475113  0.10315871  1
  Zr  Zr46  1  0.50289460  0.49359449  0.09752380  1
  Zr  Zr47  1  0.90261759  0.09799769  0.90283502  1
  Zr  Zr48  1  0.09106803  0.89018019  0.89762254  1
  Zr  Zr49  1  0.10747066  0.70239882  0.28346349  1
  Sc  Sc50  1  0.09979960  0.50028506  0.30173271  1
  Sc  Sc51  1  0.30189649  0.30136708  0.48550183  1
  Sc  Sc52  1  0.49539820  0.29860718  0.29211579  1
  Sc  Sc53  1  0.90982428  0.09266816  0.49677013  1
  Sc  Sc54  1  0.68311405  0.30320282  0.10579155  1
  Sc  Sc55  1  0.48827947  0.49803422  0.29303456  1
  Sc  Sc56  1  0.90860175  0.89717886  0.70553092  1
  Sc  Sc57  1  0.90115859  0.90431853  0.30801837  1
  Sc  Sc58  1  0.70409841  0.90700300  0.50220903  1
  Sc  Sc59  1  0.30352322  0.69733039  0.70279922  1
  Sc  Sc60  1  0.69390671  0.10516805  0.88796028  1
  Sc  Sc61  1  0.90227408  0.29668491  0.88711642  1
  Sc  Sc62  1  0.70057681  0.50351759  0.90134620  1
  Sc  Sc63  1  0.69906839  0.71394493  0.30933453  1
  Sc  Sc64  1  0.69545202  0.30202741  0.50550176  1
  Sc  Sc65  1  0.90495930  0.30419775  0.50265703  1
  Sc  Sc66  1  0.70737123  0.30101666  0.70319454  1
  Sc  Sc67  1  0.50012009  0.69028338  0.08689299  1
  Sc  Sc68  1  0.90506989  0.30479196  0.69762527  1
  Sc  Sc69  1  0.30396412  0.10712367  0.10848640  1
  Sc  Sc70  1  0.69261034  0.08946666  0.69725482  1
  Sc  Sc71  1  0.49481085  0.30349290  0.09888316  1
  Sc  Sc72  1  0.90710633  0.70545323  0.30343397  1
  Sc  Sc73  1  0.30827314  0.50393894  0.69570798  1
  Sc  Sc74  1  0.09080159  0.30041145  0.89619096  1
  Sc  Sc75  1  0.49044068  0.50302932  0.90672704  1
  Sc  Sc76  1  0.30154040  0.89859980  0.09916428  1
  Sc  Sc77  1  0.90244253  0.10070808  0.10537512  1
  Sc  Sc78  1  0.70563805  0.91160098  0.30207503  1
  Sc  Sc79  1  0.50026922  0.30028380  0.50936931  1
  Sc  Sc80  1  0.30020767  0.30532758  0.10408528  1
  Sc  Sc81  1  0.31510074  0.90754743  0.30694544  1
  Sc  Sc82  1  0.50100405  0.09688392  0.09790932  1
  Sc  Sc83  1  0.90112847  0.09518750  0.70594397  1
  Sc  Sc84  1  0.70110199  0.89949461  0.70762255  1
  Sc  Sc85  1  0.30426788  0.49859172  0.10124951  1
  Sc  Sc86  1  0.30474574  0.09855112  0.69808385  1
  Sc  Sc87  1  0.09971536  0.50056456  0.49634144  1
  Sc  Sc88  1  0.31134505  0.29992384  0.70275446  1
  Sc  Sc89  1  0.30687733  0.10116924  0.89660940  1
  Sc  Sc90  1  0.49244035  0.10276008  0.29538125  1
  Sc  Sc91  1  0.89777499  0.49841935  0.69897155  1
  Sc  Sc92  1  0.30045838  0.68747193  0.29821099  1
  Sc  Sc93  1  0.10511794  0.30461208  0.30370886  1
  Sc  Sc94  1  0.49182698  0.70545907  0.89718088  1
  Sc  Sc95  1  0.90868221  0.49569252  0.50227017  1
  Sc  Sc96  1  0.49535153  0.49482104  0.51008523  1
  Sc  Sc97  1  0.09432359  0.69352305  0.50530521  1
  Sc  Sc98  1  0.89691663  0.70208313  0.88965279  1
  Sc  Sc99  1  0.69911233  0.89398916  0.90418591  1
  Nb  Nb100  1  0.89861917  0.70168553  0.50169375  1
  Nb  Nb101  1  0.29575183  0.48898849  0.30532798  1
  Nb  Nb102  1  0.88244688  0.10125909  0.29481961  1
  Nb  Nb103  1  0.89797913  0.50204277  0.29991869  1
  Nb  Nb104  1  0.30008716  0.90299420  0.49850346  1
  Nb  Nb105  1  0.50308048  0.69829242  0.70198786  1
  Nb  Nb106  1  0.29726321  0.69458476  0.90101704  1
  Nb  Nb107  1  0.10044817  0.90065597  0.70101939  1
  Nb  Nb108  1  0.69789428  0.89886034  0.09729070  1
  Nb  Nb109  1  0.50184841  0.89959636  0.90574149  1
  Nb  Nb110  1  0.70171878  0.10615077  0.30365107  1
  Nb  Nb111  1  0.89890219  0.90244044  0.89476785  1
  Nb  Nb112  1  0.10531969  0.69459267  0.89800444  1
  Nb  Nb113  1  0.50707269  0.90016222  0.09305295  1
  Nb  Nb114  1  0.69603998  0.29507843  0.30064491  1
  Nb  Nb115  1  0.69884215  0.09986524  0.50220937  1
  Nb  Nb116  1  0.10347276  0.10420698  0.50184738  1
  Nb  Nb117  1  0.09997034  0.29565409  0.69602824  1
  Nb  Nb118  1  0.29686796  0.29399254  0.29644142  1
  Nb  Nb119  1  0.30069656  0.09631707  0.49803604  1
  Nb  Nb120  1  0.29779915  0.10996001  0.30333787  1
  Nb  Nb121  1  0.49984760  0.30649759  0.70360859  1
  Nb  Nb122  1  0.69902328  0.69689615  0.50211551  1
  Nb  Nb123  1  0.69948243  0.30074281  0.90179903  1
  Nb  Nb124  1  0.89976579  0.69819092  0.69761634  1
  Nb  Nb125  1  0.79880976  0.39291630  -0.00165407  1
  Nb  Nb126  1  0.60231306  0.01226218  0.40282716  1
  Nb  Nb127  1  0.20423867  0.80636835  0.40626604  1
  Nb  Nb128  1  0.59675750  0.39979412  0.80209447  1
  Nb  Nb129  1  0.19670242  0.19830606  -0.00072125  1
  Nb  Nb130  1  0.80130535  0.79271130  0.59934158  1
  Nb  Nb131  1  0.60353286  0.79608545  0.60025673  1
  Nb  Nb132  1  0.19683368  0.00310520  -0.00150428  1
  Nb  Nb133  1  0.19881104  0.20080885  0.59485686  1
  Nb  Nb134  1  0.60211069  0.40104588  0.39462543  1
  Nb  Nb135  1  0.80045257  0.19256327  0.59423370  1
  Nb  Nb136  1  0.79947762  0.59962334  0.40448945  1
  Nb  Nb137  1  0.19734276  0.39278410  0.60328917  1
  Nb  Nb138  1  0.41127855  0.80089632  0.19623059  1
  Nb  Nb139  1  0.79299815  0.19851701  0.40036900  1
  Nb  Nb140  1  0.19602448  -0.00729348  0.79986179  1
  Nb  Nb141  1  0.59575166  0.59740189  0.79535739  1
  Nb  Nb142  1  0.20051263  0.00454041  0.20518140  1
  Nb  Nb143  1  0.79524545  0.80547388  0.19083614  1
  Nb  Nb144  1  0.60350540  0.60528050  0.20624000  1
  Nb  Nb145  1  0.20313862  0.00505935  0.40390526  1
  Nb  Nb146  1  0.60156250  0.80318229  0.18961383  1
  Nb  Nb147  1  0.60696039  0.59006751  0.39851406  1
  Nb  Nb148  1  0.79541523  0.20525408  -0.00011700  1
  Nb  Nb149  1  0.19758464  0.39976981  0.79281951  1
  Pd  Pd150  1  0.39228459  0.20469204  0.59717266  1
  Pd  Pd151  1  0.00461506  0.00503031  0.39527626  1
  Pd  Pd152  1  0.79825858  0.80047069  0.40350104  1
  Pd  Pd153  1  0.40371234  -0.00120890  0.60643716  1
  Pd  Pd154  1  0.20338671  0.79977447  0.80202253  1
  Pd  Pd155  1  0.39710544  -0.00344537  0.19489973  1
  Pd  Pd156  1  -0.00839028  0.79094136  -0.00561127  1
  Pd  Pd157  1  0.60008953  -0.00045896  0.20624492  1
  Pd  Pd158  1  0.19585381  0.39585808  -0.00717363  1
  Pd  Pd159  1  0.40069542  0.79455527  0.00578114  1
  Pd  Pd160  1  -0.01476305  0.20122151  0.39487068  1
  Pd  Pd161  1  0.59693493  0.20402418  0.40081439  1
  Pd  Pd162  1  -0.00344647  0.60084751  0.39477452  1
  Pd  Pd163  1  0.39355400  0.00324298  0.00582932  1
  Pd  Pd164  1  0.20364946  0.59542864  0.79037724  1
  Pd  Pd165  1  0.60911011  0.20619933  0.61025131  1
  Pd  Pd166  1  0.39507734  -0.00414282  0.79454176  1
  Pd  Pd167  1  0.81122244  0.59826497  0.59562001  1
  Pd  Pd168  1  0.80044341  0.19779937  0.79479575  1
  Pd  Pd169  1  0.19578805  0.79058319  0.59462201  1
  Pd  Pd170  1  0.80800839  0.80017059  -0.00163890  1
  Pd  Pd171  1  0.79335676  0.61630149  0.21463729  1
  Pd  Pd172  1  0.20086029  0.80305113  -0.00627930  1
  Pd  Pd173  1  0.19584751  0.60685840  0.39892947  1
  Pd  Pd174  1  0.40674729  0.59234002  0.40327079  1
  Pd  Pd175  1  0.60875517  0.18950485  0.00917750  1
  Pd  Pd176  1  -0.00821037  0.60394571  -0.00943372  1
  Pd  Pd177  1  0.20059706  0.40333912  0.20227989  1
  Pd  Pd178  1  -0.01377165  0.80755996  0.19698534  1
  Pd  Pd179  1  0.40401979  0.60444854  0.19510826  1
  Pd  Pd180  1  -0.00031972  -0.00196123  0.20743680  1
  Pd  Pd181  1  0.61079184  0.00757755  -0.00264166  1
  Pd  Pd182  1  0.79645300  0.38914181  0.18620946  1
  Pd  Pd183  1  0.59193845  0.19695814  0.19664216  1
  Pd  Pd184  1  0.79493558  0.40001521  0.41186741  1
  Pd  Pd185  1  -0.00493313  0.20563777  0.21474394  1
  Pd  Pd186  1  0.40728753  0.39704182  0.39761723  1
  Pd  Pd187  1  0.78955927  0.01053139  -0.00830226  1
  Pd  Pd188  1  0.39447362  0.19898383  0.00397971  1
  Pd  Pd189  1  0.40749498  0.20050701  0.40168542  1
  Pd  Pd190  1  0.00694087  0.00091367  -0.00240032  1
  Pd  Pd191  1  0.40703800  0.79713555  0.60490508  1
  Pd  Pd192  1  0.40446929  0.19970385  0.80073106  1
  Pd  Pd193  1  -0.00625551  0.39778983  -0.00391339  1
  Pd  Pd194  1  0.20354595  0.59474956  0.00575570  1
  Pd  Pd195  1  0.80842744  -0.00168362  0.60151803  1
  Pd  Pd196  1  0.20370839  0.20170380  0.79621606  1
  Pd  Pd197  1  0.79633305  -0.00340258  0.80416627  1
  Pd  Pd198  1  0.81028836  0.59217267  -0.01069072  1
  Pd  Pd199  1  0.01388850  0.79570257  0.40482306  1
  Rh  Rh200  1  0.00463038  -0.00287350  0.80083043  1
  Rh  Rh201  1  0.39735821  0.79693241  0.79853559  1
  Rh  Rh202  1  -0.00525611  0.00132636  0.60349388  1
  Rh  Rh203  1  0.79770044  0.59687785  0.79952208  1
  Rh  Rh204  1  0.59424363  0.40577316  0.20777269  1
  Rh  Rh205  1  0.20117724  0.20024763  0.19408909  1
  Rh  Rh206  1  0.40387781  0.01363954  0.40299324  1
  Rh  Rh207  1  0.59940663  0.20923817  0.79253467  1
  Rh  Rh208  1  0.59132701  0.60478697  0.60133117  1
  Rh  Rh209  1  0.80567741  0.80562671  0.79366758  1
  Rh  Rh210  1  0.39907422  0.39923158  0.00049079  1
  Rh  Rh211  1  0.20033955  0.59572904  0.60214006  1
  Rh  Rh212  1  -0.00237497  0.20005398  -0.00555928  1
  Rh  Rh213  1  0.79939416  0.21038261  0.19991613  1
  Rh  Rh214  1  0.39974123  0.20394716  0.19869505  1
  Rh  Rh215  1  0.00947867  0.39910185  0.79219843  1
  Rh  Rh216  1  0.19920325  0.39828993  0.40328853  1
  Rh  Rh217  1  0.00240454  0.40328693  0.20697612  1
  Rh  Rh218  1  0.60334733  0.40460049  -0.00934771  1
  Rh  Rh219  1  -0.00227716  0.79514820  0.80135740  1
  Rh  Rh220  1  -0.00379659  0.19500863  0.60185146  1
  Rh  Rh221  1  0.40344261  0.60476182  0.59797249  1
  Rh  Rh222  1  0.39084311  0.60406368  0.00191934  1
  Rh  Rh223  1  0.59382801  -0.01264115  0.59345494  1
  Rh  Rh224  1  0.20537742  0.00871268  0.60222758  1
  Rh  Rh225  1  0.59493866  0.79895872  -0.00329791  1
  Rh  Rh226  1  0.79623989  0.00867850  0.40325323  1
  Rh  Rh227  1  0.39239099  0.39753496  0.20380563  1
  Rh  Rh228  1  0.79266434  0.40019296  0.80528918  1
  Rh  Rh229  1  -0.00497058  0.79707330  0.60438161  1
  Rh  Rh230  1  0.59650511  0.79622579  0.80038326  1
  Rh  Rh231  1  0.22048397  0.81353681  0.21588776  1
  Rh  Rh232  1  -0.00248047  0.60644064  0.79980683  1
  Rh  Rh233  1  0.59500682  0.59920800  -0.00975132  1
  Rh  Rh234  1  0.20336585  0.19896135  0.40634373  1
  Rh  Rh235  1  0.38861186  0.39325807  0.59640327  1
  Rh  Rh236  1  0.40415366  0.60610687  0.80153149  1
  Rh  Rh237  1  0.00176368  0.40547022  0.39538345  1
  Rh  Rh238  1  0.80611119  0.39057381  0.59804012  1
  Rh  Rh239  1  0.00596100  0.40220177  0.60020482  1
  Rh  Rh240  1  0.59876675  0.39306349  0.60639025  1
  Rh  Rh241  1  -0.00555005  0.19992798  0.79188565  1
  Rh  Rh242  1  0.40208537  0.39991984  0.80465327  1
  Rh  Rh243  1  0.80519261  -0.01081657  0.20240134  1
  Rh  Rh244  1  -0.00440852  0.60130873  0.59994749  1
  Rh  Rh245  1  0.19964051  0.58659116  0.19712504  1
  Rh  Rh246  1  0.38631268  0.79124678  0.39265721  1
  Rh  Rh247  1  0.60131944  -0.00993045  0.80903569  1
  Rh  Rh248  1  0.00101531  0.59782957  0.20775646  1
  Rh  Rh249  1  0.61018981  0.81424017  0.40839314  1
