# generated using pymatgen
data_ZrScNbPdRh
_symmetry_space_group_name_H-M   'P 1'
_cell_length_a   16.55341244
_cell_length_b   16.55823705
_cell_length_c   16.55627651
_cell_angle_alpha   89.99208085
_cell_angle_beta   89.96651885
_cell_angle_gamma   89.99926556
_symmetry_Int_Tables_number   1
_chemical_formula_structural   ZrScNbPdRh
_chemical_formula_sum   'Zr50 Sc50 Nb50 Pd50 Rh50'
_cell_volume   4537.99720724
_cell_formula_units_Z   50
loop_
 _symmetry_equiv_pos_site_id
 _symmetry_equiv_pos_as_xyz
  1  'x, y, z'
loop_
 _atom_site_type_symbol
 _atom_site_label
 _atom_site_symmetry_multiplicity
 _atom_site_fract_x
 _atom_site_fract_y
 _atom_site_fract_z
 _atom_site_occupancy
  Zr  Zr0  1  0.50538208  0.69830617  0.10419016  1
  Zr  Zr1  1  0.30494665  0.50506226  0.30146575  1
  Zr  Zr2  1  0.69851484  0.09173435  0.50444573  1
  Zr  Zr3  1  0.89644869  0.89660727  0.70212313  1
  Zr  Zr4  1  0.90111327  0.70840137  0.70553762  1
  Zr  Zr5  1  0.89387781  0.90363591  0.28869456  1
  Zr  Zr6  1  0.08973569  0.30277920  0.09936442  1
  Zr  Zr7  1  0.50613970  0.69129660  0.90057385  1
  Zr  Zr8  1  0.09807165  0.69778146  0.89441726  1
  Zr  Zr9  1  0.30576372  0.69952158  0.50057085  1
  Zr  Zr10  1  0.50284590  0.49764262  0.09078724  1
  Zr  Zr11  1  0.10893586  0.70525025  0.28872941  1
  Zr  Zr12  1  0.30479272  0.29392439  0.09622019  1
  Zr  Zr13  1  0.30159163  0.70157232  0.90040810  1
  Zr  Zr14  1  0.69983287  0.89722104  0.09756878  1
  Zr  Zr15  1  0.49199957  0.50275892  0.50744902  1
  Zr  Zr16  1  0.10588946  0.71233993  0.50062569  1
  Zr  Zr17  1  0.30822921  0.10388259  0.30027220  1
  Zr  Zr18  1  0.89725434  0.09814831  0.50384060  1
  Zr  Zr19  1  0.69768063  0.89512024  0.50622457  1
  Zr  Zr20  1  0.89631556  0.69347759  0.29865701  1
  Zr  Zr21  1  0.90761145  0.29844828  0.50456192  1
  Zr  Zr22  1  0.88619286  0.10383741  0.29715275  1
  Zr  Zr23  1  0.89976006  0.49926181  0.49511325  1
  Zr  Zr24  1  0.10299767  0.30822083  0.49664793  1
  Zr  Zr25  1  0.50643675  0.29600360  0.08802252  1
  Zr  Zr26  1  0.50070279  0.49259980  0.70516190  1
  Zr  Zr27  1  0.30502768  0.50528604  0.10352748  1
  Zr  Zr28  1  0.09687887  0.90223130  0.10572704  1
  Zr  Zr29  1  0.08999269  0.50054738  0.10515663  1
  Zr  Zr30  1  0.09946999  0.88882643  0.69143215  1
  Zr  Zr31  1  0.30726591  0.90765924  0.89964344  1
  Zr  Zr32  1  0.69811361  0.69638347  0.09150580  1
  Zr  Zr33  1  0.89491608  0.69570534  0.09967350  1
  Zr  Zr34  1  0.90052083  0.69558383  0.89738236  1
  Zr  Zr35  1  0.11489914  0.49634872  0.69865087  1
  Zr  Zr36  1  0.70528798  0.49987960  0.50774346  1
  Zr  Zr37  1  0.09472746  0.29756039  0.29865307  1
  Zr  Zr38  1  0.10128108  0.30564379  0.70058760  1
  Zr  Zr39  1  0.10045878  0.10961150  0.49712697  1
  Zr  Zr40  1  0.68891282  0.69960010  0.50377352  1
  Zr  Zr41  1  0.29846759  0.30168877  0.89799316  1
  Zr  Zr42  1  0.89655110  0.30072109  0.89664791  1
  Zr  Zr43  1  0.09378076  0.49747899  0.89423643  1
  Zr  Zr44  1  0.10587207  0.90429024  0.49542161  1
  Zr  Zr45  1  0.90036014  0.29456108  0.70493651  1
  Zr  Zr46  1  0.89817412  0.49455458  0.09620059  1
  Zr  Zr47  1  0.50585141  0.10042096  0.89736374  1
  Zr  Zr48  1  0.10105203  0.90396550  0.29681166  1
  Zr  Zr49  1  0.69840589  0.89428959  0.70155405  1
  Sc  Sc50  1  0.29091925  0.90648559  0.30762318  1
  Sc  Sc51  1  0.49652199  0.10316027  0.50818511  1
  Sc  Sc52  1  0.29459267  0.30970779  0.70300627  1
  Sc  Sc53  1  0.31509033  0.50009328  0.89257104  1
  Sc  Sc54  1  0.31016212  0.30580711  0.49310453  1
  Sc  Sc55  1  0.69889551  0.70079173  0.89561640  1
  Sc  Sc56  1  0.29871869  0.29369823  0.30515916  1
  Sc  Sc57  1  0.89635886  0.90477000  0.10124497  1
  Sc  Sc58  1  0.69526539  0.29069297  0.50891163  1
  Sc  Sc59  1  0.69833466  0.49581530  0.29449307  1
  Sc  Sc60  1  0.10288590  0.11335976  0.70194008  1
  Sc  Sc61  1  0.10359693  0.10416389  0.29608413  1
  Sc  Sc62  1  0.69662911  0.50210262  0.69927212  1
  Sc  Sc63  1  0.31197323  0.09969038  0.69034874  1
  Sc  Sc64  1  0.89343054  0.49696271  0.90048543  1
  Sc  Sc65  1  0.50858204  0.69492129  0.30310330  1
  Sc  Sc66  1  0.69795975  0.09414418  0.71043692  1
  Sc  Sc67  1  0.30509373  0.09982739  0.49778128  1
  Sc  Sc68  1  0.89577540  0.09010838  0.10016674  1
  Sc  Sc69  1  0.69725266  0.30205804  0.69904319  1
  Sc  Sc70  1  0.50019348  0.90577317  0.70369156  1
  Sc  Sc71  1  0.69971320  0.10686067  0.10205424  1
  Sc  Sc72  1  0.29344291  0.69959269  0.11252678  1
  Sc  Sc73  1  0.88746439  0.90170489  0.50714432  1
  Sc  Sc74  1  0.69820493  0.29812282  0.10945146  1
  Sc  Sc75  1  0.50176422  0.09661869  0.69335351  1
  Sc  Sc76  1  0.10345754  0.90758754  0.91518408  1
  Sc  Sc77  1  0.68814093  0.91180916  0.30041479  1
  Sc  Sc78  1  0.29292427  0.90980430  0.09569539  1
  Sc  Sc79  1  0.10429453  0.30023302  0.88924568  1
  Sc  Sc80  1  0.88887376  0.69170362  0.49646692  1
  Sc  Sc81  1  0.49919737  0.89968072  0.88993725  1
  Sc  Sc82  1  0.09972601  0.09339395  0.09920111  1
  Sc  Sc83  1  0.89388618  0.30701382  0.10420662  1
  Sc  Sc84  1  0.89696429  0.90394362  0.90541382  1
  Sc  Sc85  1  0.10703670  0.10266860  0.90223932  1
  Sc  Sc86  1  0.50280650  0.50404585  0.29600589  1
  Sc  Sc87  1  0.29082875  0.90417968  0.50372398  1
  Sc  Sc88  1  0.88926694  0.48780409  0.69994910  1
  Sc  Sc89  1  0.09921361  0.69797271  0.70539213  1
  Sc  Sc90  1  0.30228067  0.10322229  0.90198729  1
  Sc  Sc91  1  0.70007203  0.49493303  0.09795244  1
  Sc  Sc92  1  0.89880656  0.50263718  0.29554171  1
  Sc  Sc93  1  0.51125642  0.90457823  0.50041865  1
  Sc  Sc94  1  0.50640513  0.28594790  0.30072760  1
  Sc  Sc95  1  0.50975352  0.69766830  0.70266830  1
  Sc  Sc96  1  0.09196671  0.50225168  0.30193639  1
  Sc  Sc97  1  0.69498102  0.69027405  0.29977696  1
  Sc  Sc98  1  0.69373317  0.28376885  0.90448952  1
  Sc  Sc99  1  0.30092903  0.69181960  0.70213480  1
  Nb  Nb100  1  0.49602015  0.31237237  0.89141691  1
  Nb  Nb101  1  0.69204520  0.11540682  0.29990078  1
  Nb  Nb102  1  0.10300296  0.50222662  0.50034494  1
  Nb  Nb103  1  0.89148186  0.29964557  0.29830410  1
  Nb  Nb104  1  0.50317569  0.29727053  0.69292771  1
  Nb  Nb105  1  0.70323099  0.09360401  0.90518567  1
  Nb  Nb106  1  0.49037511  0.09453633  0.10003121  1
  Nb  Nb107  1  0.70185225  0.29013285  0.30039734  1
  Nb  Nb108  1  0.69846424  0.70348372  0.69740900  1
  Nb  Nb109  1  0.50053533  0.90178327  0.10304138  1
  Nb  Nb110  1  0.30383072  0.70058586  0.29795527  1
  Nb  Nb111  1  0.50490011  0.49179925  0.90002737  1
  Nb  Nb112  1  0.90260719  0.10153924  0.70413741  1
  Nb  Nb113  1  0.50377747  0.08965425  0.29361813  1
  Nb  Nb114  1  0.50249329  0.70495210  0.50227029  1
  Nb  Nb115  1  0.49779615  0.90256221  0.29734182  1
  Nb  Nb116  1  0.29841224  0.50513828  0.50579822  1
  Nb  Nb117  1  0.69603674  0.91020773  0.90046981  1
  Nb  Nb118  1  0.30451892  0.90178786  0.69990267  1
  Nb  Nb119  1  0.10223159  0.70126259  0.09989571  1
  Nb  Nb120  1  0.50611002  0.30022444  0.51462432  1
  Nb  Nb121  1  0.69253876  0.50651054  0.89878090  1
  Nb  Nb122  1  0.89365799  0.10038215  0.90017899  1
  Nb  Nb123  1  0.31219317  0.10158209  0.09332388  1
  Nb  Nb124  1  0.30134960  0.50386458  0.69069404  1
  Nb  Nb125  1  0.59739733  -0.00002394  0.00252021  1
  Nb  Nb126  1  0.80499811  0.19382400  0.60746825  1
  Nb  Nb127  1  0.20056563  -0.00436924  0.79256080  1
  Nb  Nb128  1  -0.00725138  0.80514965  0.39537967  1
  Nb  Nb129  1  0.40315345  0.80653794  0.20417054  1
  Nb  Nb130  1  0.79541205  0.79970921  0.39649707  1
  Nb  Nb131  1  0.40526819  0.80220165  0.00862912  1
  Nb  Nb132  1  0.40042754  0.39541863  0.19690484  1
  Nb  Nb133  1  0.20106532  0.20930273  0.59608105  1
  Nb  Nb134  1  0.40295755  0.79848602  0.59600568  1
  Nb  Nb135  1  0.00251493  0.79437369  0.00518829  1
  Nb  Nb136  1  0.60131227  0.39281595  0.40562550  1
  Nb  Nb137  1  0.40584715  0.80107945  0.39833573  1
  Nb  Nb138  1  0.19645998  0.59684247  0.00164023  1
  Nb  Nb139  1  0.40960262  0.21018854  0.79653288  1
  Nb  Nb140  1  0.20430684  0.80864959  0.80132017  1
  Nb  Nb141  1  -0.00405562  -0.00207111  0.40099211  1
  Nb  Nb142  1  0.20096438  0.40624744  0.00379688  1
  Nb  Nb143  1  0.00156903  0.00220838  0.79735266  1
  Nb  Nb144  1  0.20468936  0.59970613  0.40365192  1
  Nb  Nb145  1  0.20342724  0.39921024  0.19757256  1
  Nb  Nb146  1  0.00014150  0.00343875  0.60316914  1
  Nb  Nb147  1  0.79446568  0.38974947  0.39738871  1
  Nb  Nb148  1  0.00301928  0.59583984  0.59653994  1
  Nb  Nb149  1  -0.00741505  0.19819992  -0.00433828  1
  Pd  Pd150  1  0.40008764  0.79465425  0.79481566  1
  Pd  Pd151  1  -0.00944634  0.19431380  0.19146111  1
  Pd  Pd152  1  -0.00402523  0.19424740  0.39216463  1
  Pd  Pd153  1  -0.00852546  0.58713707  0.78492383  1
  Pd  Pd154  1  0.80423580  0.19989052  0.00745124  1
  Pd  Pd155  1  0.00192137  0.19449250  0.80966913  1
  Pd  Pd156  1  0.60149516  0.79870760  0.20833013  1
  Pd  Pd157  1  0.80405349  -0.00066329  0.79888577  1
  Pd  Pd158  1  0.19494206  0.60822976  0.59798108  1
  Pd  Pd159  1  0.78852622  0.39641554  -0.00496348  1
  Pd  Pd160  1  0.40335535  -0.00597817  0.40709850  1
  Pd  Pd161  1  0.78565912  0.39478121  0.80727670  1
  Pd  Pd162  1  0.59872278  0.19925705  0.79561383  1
  Pd  Pd163  1  0.79419267  0.59174116  0.19609702  1
  Pd  Pd164  1  0.80655081  0.60523950  0.61033779  1
  Pd  Pd165  1  0.80435094  0.80087933  -0.00700115  1
  Pd  Pd166  1  0.40191680  0.60531738  0.39849449  1
  Pd  Pd167  1  0.78503895  0.79812903  0.20764237  1
  Pd  Pd168  1  -0.00394867  0.79641106  0.19658827  1
  Pd  Pd169  1  0.01070489  0.61137840  0.40507017  1
  Pd  Pd170  1  0.19124452  0.20181658  0.00625115  1
  Pd  Pd171  1  0.40774121  0.20388991  0.20112379  1
  Pd  Pd172  1  -0.00734427  0.40109851  0.39287945  1
  Pd  Pd173  1  0.79606932  0.59915462  0.79606735  1
  Pd  Pd174  1  0.61151866  0.39599131  -0.00608813  1
  Pd  Pd175  1  0.59590810  0.00711973  0.40189817  1
  Pd  Pd176  1  0.59260444  0.19680001  0.40859346  1
  Pd  Pd177  1  0.39479673  0.39636121  0.60464780  1
  Pd  Pd178  1  0.79741550  0.20390159  0.41223969  1
  Pd  Pd179  1  0.40580301  0.59836726  0.79525880  1
  Pd  Pd180  1  0.19506546  0.01316141  0.60610762  1
  Pd  Pd181  1  0.20196700  0.79590204  -0.00038852  1
  Pd  Pd182  1  0.20283862  0.40789728  0.39506832  1
  Pd  Pd183  1  0.20095118  0.19986099  0.19344747  1
  Pd  Pd184  1  0.60468717  0.00759145  0.19177245  1
  Pd  Pd185  1  0.41111728  0.19927148  0.40378917  1
  Pd  Pd186  1  0.60142520  0.58727819  0.40568113  1
  Pd  Pd187  1  0.60875253  0.39633318  0.80078258  1
  Pd  Pd188  1  0.59322133  0.39416129  0.20839378  1
  Pd  Pd189  1  0.79677300  -0.00494973  0.39431310  1
  Pd  Pd190  1  0.00087994  0.40916795  0.60585867  1
  Pd  Pd191  1  0.41400005  0.39474084  0.39149518  1
  Pd  Pd192  1  0.38978090  -0.00691407  0.20068738  1
  Pd  Pd193  1  0.39628966  0.60801608  0.00374533  1
  Pd  Pd194  1  0.00150127  0.60306423  0.00237132  1
  Pd  Pd195  1  0.40820077  0.20178189  -0.01262931  1
  Pd  Pd196  1  0.59379660  0.80769494  -0.00988393  1
  Pd  Pd197  1  0.20842273  0.00989555  0.19755372  1
  Pd  Pd198  1  0.79310423  0.80259162  0.81076391  1
  Pd  Pd199  1  -0.01257629  0.79666611  0.58659881  1
  Rh  Rh200  1  0.60208812  -0.00105418  0.60503643  1
  Rh  Rh201  1  0.20951452  0.41345463  0.80774101  1
  Rh  Rh202  1  0.00313712  0.19921959  0.60408122  1
  Rh  Rh203  1  0.21022587  0.80954867  0.19935972  1
  Rh  Rh204  1  -0.00254421  0.00856258  0.20864397  1
  Rh  Rh205  1  0.20590434  0.79268549  0.39231322  1
  Rh  Rh206  1  0.60256701  0.59747372  0.79832729  1
  Rh  Rh207  1  0.59538298  0.59801614  0.60377563  1
  Rh  Rh208  1  0.79249578  0.00011353  0.00403370  1
  Rh  Rh209  1  0.59178273  0.19311977  0.19438896  1
  Rh  Rh210  1  0.78647782  0.00584974  0.20087608  1
  Rh  Rh211  1  0.41037710  0.60258797  0.20077455  1
  Rh  Rh212  1  -0.00465880  0.00355045  -0.00693908  1
  Rh  Rh213  1  0.39647167  0.39914702  0.00286287  1
  Rh  Rh214  1  0.39377260  0.21152288  0.60482566  1
  Rh  Rh215  1  0.40810827  0.60461782  0.60737582  1
  Rh  Rh216  1  -0.00309416  0.39927846  0.20973194  1
  Rh  Rh217  1  0.19676913  0.01284356  0.39649836  1
  Rh  Rh218  1  0.21779106  0.18859854  0.78705311  1
  Rh  Rh219  1  0.59109839  0.80321375  0.60969260  1
  Rh  Rh220  1  0.80062235  0.00592341  0.61327792  1
  Rh  Rh221  1  0.20523708  0.01298515  -0.00013551  1
  Rh  Rh222  1  0.40827580  -0.00498723  -0.00142614  1
  Rh  Rh223  1  0.40392173  -0.01385844  0.59423502  1
  Rh  Rh224  1  0.60029939  -0.00039050  0.80415401  1
  Rh  Rh225  1  0.60369669  0.59500618  0.19227619  1
  Rh  Rh226  1  0.79855480  0.39994831  0.20681996  1
  Rh  Rh227  1  0.79879082  0.38601887  0.59333244  1
  Rh  Rh228  1  0.79874640  0.78969721  0.59359098  1
  Rh  Rh229  1  0.79478219  0.59431059  -0.00575587  1
  Rh  Rh230  1  0.20706698  0.59955858  0.80684908  1
  Rh  Rh231  1  0.80070770  0.20081619  0.19442031  1
  Rh  Rh232  1  0.21554605  0.79381886  0.61344157  1
  Rh  Rh233  1  0.60837526  0.19159100  0.60605465  1
  Rh  Rh234  1  0.60265941  0.59534204  -0.00212550  1
  Rh  Rh235  1  0.39855734  0.39879442  0.79127306  1
  Rh  Rh236  1  -0.00249523  0.60399782  0.19738292  1
  Rh  Rh237  1  0.78985366  0.59458336  0.39560980  1
  Rh  Rh238  1  0.20906813  0.39642551  0.58985849  1
  Rh  Rh239  1  0.79287067  0.19748812  0.79722483  1
  Rh  Rh240  1  0.00331884  0.38905801  -0.01197408  1
  Rh  Rh241  1  0.20633078  0.19967130  0.40564062  1
  Rh  Rh242  1  0.19284183  0.59128160  0.20325517  1
  Rh  Rh243  1  0.59679055  0.18987143  0.00337217  1
  Rh  Rh244  1  0.60085961  0.80164896  0.39539014  1
  Rh  Rh245  1  -0.00316930  0.40274578  0.79660771  1
  Rh  Rh246  1  0.01231991  0.81624176  0.81729945  1
  Rh  Rh247  1  0.39777563  0.01329837  0.79856645  1
  Rh  Rh248  1  0.60329571  0.80010731  0.80058499  1
  Rh  Rh249  1  0.60063158  0.40548099  0.59706103  1
