# generated using pymatgen
data_ZrScNbPdRh
_symmetry_space_group_name_H-M   'P 1'
_cell_length_a   16.55814732
_cell_length_b   16.55624979
_cell_length_c   16.56132465
_cell_angle_alpha   90.03308874
_cell_angle_beta   90.02437786
_cell_angle_gamma   89.97021403
_symmetry_Int_Tables_number   1
_chemical_formula_structural   ZrScNbPdRh
_chemical_formula_sum   'Zr50 Sc50 Nb50 Pd50 Rh50'
_cell_volume   4540.13339023
_cell_formula_units_Z   50
loop_
 _symmetry_equiv_pos_site_id
 _symmetry_equiv_pos_as_xyz
  1  'x, y, z'
loop_
 _atom_site_type_symbol
 _atom_site_label
 _atom_site_symmetry_multiplicity
 _atom_site_fract_x
 _atom_site_fract_y
 _atom_site_fract_z
 _atom_site_occupancy
  Zr  Zr0  1  0.70609183  0.30407199  0.10704144  1
  Zr  Zr1  1  0.89594805  0.90715965  0.89922955  1
  Zr  Zr2  1  0.09506213  0.29674842  0.10443678  1
  Zr  Zr3  1  0.90626424  0.50941682  0.68939812  1
  Zr  Zr4  1  0.71137869  0.29968733  0.90573211  1
  Zr  Zr5  1  0.90449322  0.70894348  0.30708173  1
  Zr  Zr6  1  0.70230754  0.71039770  0.90101469  1
  Zr  Zr7  1  0.10271688  0.30758791  0.29816295  1
  Zr  Zr8  1  0.09440373  0.49715229  0.10998610  1
  Zr  Zr9  1  0.29661979  0.30133916  0.89082651  1
  Zr  Zr10  1  0.50279772  0.30275195  0.10651243  1
  Zr  Zr11  1  0.50755198  0.50052387  0.30605664  1
  Zr  Zr12  1  0.69808142  0.31282894  0.30633073  1
  Zr  Zr13  1  0.30068700  0.30322068  0.09949508  1
  Zr  Zr14  1  0.51400605  0.68488575  0.69437620  1
  Zr  Zr15  1  0.70668948  0.69495803  0.29555715  1
  Zr  Zr16  1  0.49104498  0.09584058  0.69173451  1
  Zr  Zr17  1  0.10509580  0.10275284  0.50163226  1
  Zr  Zr18  1  0.49859637  0.28652604  0.49945641  1
  Zr  Zr19  1  0.09959185  0.50866341  0.70412319  1
  Zr  Zr20  1  0.28574978  0.50276274  0.30231581  1
  Zr  Zr21  1  0.50135125  0.50434553  0.88364657  1
  Zr  Zr22  1  0.50393545  0.30294046  0.29950957  1
  Zr  Zr23  1  0.10393878  0.29809860  0.49344957  1
  Zr  Zr24  1  0.90362230  0.10236299  0.89297080  1
  Zr  Zr25  1  0.30490840  0.88529229  0.88507422  1
  Zr  Zr26  1  0.69029660  0.50792114  0.70253145  1
  Zr  Zr27  1  0.29599939  0.09826470  0.29343638  1
  Zr  Zr28  1  0.90716856  0.70937948  0.89738519  1
  Zr  Zr29  1  0.89443505  0.10743722  0.49366762  1
  Zr  Zr30  1  0.29683638  0.50845066  0.10155181  1
  Zr  Zr31  1  0.49438271  0.50338891  0.51504589  1
  Zr  Zr32  1  0.69605187  0.70560756  0.50833183  1
  Zr  Zr33  1  0.10249743  0.50446217  0.89867714  1
  Zr  Zr34  1  0.29376015  0.09687612  0.10072622  1
  Zr  Zr35  1  0.29935024  0.50374516  0.89459356  1
  Zr  Zr36  1  0.70486313  0.29282419  0.69986358  1
  Zr  Zr37  1  0.09619861  0.09461790  0.89553914  1
  Zr  Zr38  1  0.89630522  0.30474015  0.09128258  1
  Zr  Zr39  1  0.29431605  0.70035203  0.50110507  1
  Zr  Zr40  1  0.70482708  0.09752029  0.10880230  1
  Zr  Zr41  1  0.50174181  0.09949895  0.88842272  1
  Zr  Zr42  1  0.70089870  0.50404709  0.30046994  1
  Zr  Zr43  1  0.30394462  0.10792614  0.50922154  1
  Zr  Zr44  1  0.70526325  0.89943875  0.29886362  1
  Zr  Zr45  1  0.71314653  0.50219952  0.10531182  1
  Zr  Zr46  1  0.49546347  0.89936231  0.10249008  1
  Zr  Zr47  1  0.29036613  0.10078816  0.89710807  1
  Zr  Zr48  1  0.90319362  0.29107761  0.69809795  1
  Zr  Zr49  1  0.30271115  0.90042292  0.29742134  1
  Sc  Sc50  1  0.89676155  0.51261758  0.30018954  1
  Sc  Sc51  1  0.49728742  0.10105940  0.11574669  1
  Sc  Sc52  1  0.50667599  0.89789705  0.50276321  1
  Sc  Sc53  1  0.49269386  0.29730026  0.70472416  1
  Sc  Sc54  1  0.48779288  0.70516755  0.89570126  1
  Sc  Sc55  1  0.28900934  0.70919149  0.71247600  1
  Sc  Sc56  1  0.50251236  0.69932960  0.30321830  1
  Sc  Sc57  1  0.29951543  0.69472836  0.29691473  1
  Sc  Sc58  1  0.50081308  0.89978910  0.30143144  1
  Sc  Sc59  1  0.49137072  0.49927153  0.10693379  1
  Sc  Sc60  1  0.50871060  0.10379051  0.30282588  1
  Sc  Sc61  1  0.10218994  0.50999667  0.50693365  1
  Sc  Sc62  1  0.90237321  0.70489635  0.69203890  1
  Sc  Sc63  1  0.09789332  0.28788670  0.90221480  1
  Sc  Sc64  1  0.71134106  0.89851859  0.09420503  1
  Sc  Sc65  1  0.49455141  0.30384933  0.89282810  1
  Sc  Sc66  1  0.89953839  0.29756567  0.49466563  1
  Sc  Sc67  1  0.69606352  0.09822850  0.70351682  1
  Sc  Sc68  1  0.90348545  0.28819260  0.29936872  1
  Sc  Sc69  1  0.89233722  0.90063500  0.30067512  1
  Sc  Sc70  1  0.30035950  0.89687070  0.50460052  1
  Sc  Sc71  1  0.89793173  0.88821514  0.49456224  1
  Sc  Sc72  1  0.69779238  0.89500770  0.69852298  1
  Sc  Sc73  1  0.69903054  0.50195757  0.89925999  1
  Sc  Sc74  1  0.90129638  0.89971620  0.09559372  1
  Sc  Sc75  1  0.29414724  0.29800899  0.50715102  1
  Sc  Sc76  1  0.90379465  0.50589402  0.90925341  1
  Sc  Sc77  1  0.10193541  0.69775401  0.89375287  1
  Sc  Sc78  1  0.89106189  0.69939758  0.09681315  1
  Sc  Sc79  1  0.09718126  0.11305383  0.29051551  1
  Sc  Sc80  1  0.49951212  0.90341503  0.70237636  1
  Sc  Sc81  1  0.29935257  0.90265121  0.10446546  1
  Sc  Sc82  1  0.90074866  0.09524413  0.70724017  1
  Sc  Sc83  1  0.50311160  0.89496652  0.89258764  1
  Sc  Sc84  1  0.10358903  0.09427437  0.09799049  1
  Sc  Sc85  1  0.29983660  0.48985195  0.70273051  1
  Sc  Sc86  1  0.70349203  0.90340755  0.89491614  1
  Sc  Sc87  1  0.09353519  0.89745398  0.50845329  1
  Sc  Sc88  1  0.70890190  0.09442371  0.89399910  1
  Sc  Sc89  1  0.29432930  0.49640677  0.51009263  1
  Sc  Sc90  1  0.09001630  0.89550889  0.90882515  1
  Sc  Sc91  1  0.09494485  0.90643116  0.29840600  1
  Sc  Sc92  1  0.90656024  0.90071693  0.69655071  1
  Sc  Sc93  1  0.10763138  0.30181858  0.70094339  1
  Sc  Sc94  1  0.70315304  0.50258171  0.48812346  1
  Sc  Sc95  1  0.89681803  0.10253018  0.10912167  1
  Sc  Sc96  1  0.10528797  0.69553499  0.08689514  1
  Sc  Sc97  1  0.89936467  0.70003204  0.50413767  1
  Sc  Sc98  1  0.69775289  0.89771562  0.49572128  1
  Sc  Sc99  1  0.28935912  0.30061688  0.30451028  1
  Nb  Nb100  1  0.89996082  0.49592162  0.50243266  1
  Nb  Nb101  1  0.90155519  0.29765678  0.89440058  1
  Nb  Nb102  1  0.10152607  0.50586239  0.30117133  1
  Nb  Nb103  1  0.09887539  0.89583196  0.10402987  1
  Nb  Nb104  1  0.50157712  0.49545329  0.69782768  1
  Nb  Nb105  1  0.49852269  0.09710586  0.50147883  1
  Nb  Nb106  1  0.49935230  0.70238328  0.09588252  1
  Nb  Nb107  1  0.29438216  0.09436348  0.69857821  1
  Nb  Nb108  1  0.10091701  0.69078546  0.30437710  1
  Nb  Nb109  1  0.69841742  0.10342071  0.50165640  1
  Nb  Nb110  1  0.70365362  0.29769950  0.50556395  1
  Nb  Nb111  1  0.09420202  0.70168352  0.69103956  1
  Nb  Nb112  1  0.89958762  0.49719118  0.09866977  1
  Nb  Nb113  1  0.30179527  0.29377057  0.70080033  1
  Nb  Nb114  1  0.89817290  0.09836933  0.30244800  1
  Nb  Nb115  1  0.69930846  0.70048387  0.09901309  1
  Nb  Nb116  1  0.10600584  0.89988976  0.69397881  1
  Nb  Nb117  1  0.09849711  0.08928632  0.69852106  1
  Nb  Nb118  1  0.71831051  0.08896975  0.30402208  1
  Nb  Nb119  1  0.49822264  0.69923010  0.50335362  1
  Nb  Nb120  1  0.30441265  0.69741333  0.09338125  1
  Nb  Nb121  1  0.29351534  0.69381137  0.90968532  1
  Nb  Nb122  1  0.09870767  0.70720375  0.49692846  1
  Nb  Nb123  1  0.30071570  0.89852661  0.69492535  1
  Nb  Nb124  1  0.70607687  0.69743684  0.69475690  1
  Nb  Nb125  1  -0.00142869  0.00762106  0.39943453  1
  Nb  Nb126  1  0.79659788  0.00528182  0.59178741  1
  Nb  Nb127  1  0.80842454  0.40454144  0.79534055  1
  Nb  Nb128  1  0.59829666  0.60477449  0.00492999  1
  Nb  Nb129  1  0.60297092  0.79373628  0.19104211  1
  Nb  Nb130  1  0.59479113  0.00577800  0.00133324  1
  Nb  Nb131  1  0.19968801  0.00020515  0.40053767  1
  Nb  Nb132  1  0.00275391  0.40926452  0.39840345  1
  Nb  Nb133  1  0.40174821  0.00361223  -0.00471980  1
  Nb  Nb134  1  0.19483847  0.79470851  0.19995188  1
  Nb  Nb135  1  0.19892256  0.40140538  0.00009650  1
  Nb  Nb136  1  0.60079856  0.40198556  0.00260244  1
  Nb  Nb137  1  0.80079863  0.60385992  0.79581303  1
  Nb  Nb138  1  -0.00479960  0.39868626  0.80075169  1
  Nb  Nb139  1  0.40118435  0.79527914  0.60411135  1
  Nb  Nb140  1  0.40005186  0.59753946  0.40763424  1
  Nb  Nb141  1  0.19349288  0.79999999  0.39541020  1
  Nb  Nb142  1  0.59756888  0.19968350  0.00261598  1
  Nb  Nb143  1  0.40233704  0.19533850  -0.00160475  1
  Nb  Nb144  1  0.60286102  0.39607252  0.60115434  1
  Nb  Nb145  1  0.00899776  0.79622419  0.19955970  1
  Nb  Nb146  1  0.40001422  0.40296013  0.40447832  1
  Nb  Nb147  1  0.79714834  0.39962436  0.59891762  1
  Nb  Nb148  1  0.00627381  0.19336595  0.60131717  1
  Nb  Nb149  1  0.39942159  0.00615436  0.40669910  1
  Pd  Pd150  1  0.39403063  0.80711686  0.00051160  1
  Pd  Pd151  1  -0.00104295  0.60439081  0.00460993  1
  Pd  Pd152  1  0.38669156  0.60783612  0.60863309  1
  Pd  Pd153  1  0.19360437  -0.01258408  0.80290525  1
  Pd  Pd154  1  0.79117445  0.20591568  0.39409553  1
  Pd  Pd155  1  -0.00513255  0.00574503  0.00634371  1
  Pd  Pd156  1  0.20381436  -0.00477447  0.59399109  1
  Pd  Pd157  1  -0.01157392  0.40213106  0.21151153  1
  Pd  Pd158  1  0.00692676  0.80608111  0.79319680  1
  Pd  Pd159  1  0.80430829  0.79958528  0.79066319  1
  Pd  Pd160  1  0.39496549  0.20235705  0.20232260  1
  Pd  Pd161  1  0.39696375  0.79951876  0.40805246  1
  Pd  Pd162  1  -0.01206881  0.00344392  0.59109210  1
  Pd  Pd163  1  0.80314202  0.60747543  0.40716924  1
  Pd  Pd164  1  0.79942145  0.19031714  0.00016272  1
  Pd  Pd165  1  0.40138080  0.39917334  -0.00644673  1
  Pd  Pd166  1  -0.00485862  0.60948025  0.19411905  1
  Pd  Pd167  1  0.18694655  0.80158265  0.80050202  1
  Pd  Pd168  1  0.59718095  0.00381383  0.40189199  1
  Pd  Pd169  1  0.20585400  -0.01513079  -0.00661744  1
  Pd  Pd170  1  0.59675108  0.19994639  0.60502491  1
  Pd  Pd171  1  0.60598306  0.39009306  0.79970684  1
  Pd  Pd172  1  0.20356203  0.60541597  0.60909752  1
  Pd  Pd173  1  0.60395783  -0.00926487  0.19774242  1
  Pd  Pd174  1  -0.00376519  0.19122831  0.00591985  1
  Pd  Pd175  1  0.79677856  0.60148259  -0.00809141  1
  Pd  Pd176  1  0.61313542  0.19851055  0.20754781  1
  Pd  Pd177  1  0.60362015  0.20368467  0.80477081  1
  Pd  Pd178  1  0.60211612  0.79550023  0.39246991  1
  Pd  Pd179  1  0.60668662  -0.00347277  0.59871506  1
  Pd  Pd180  1  0.19688420  0.39862511  0.60353826  1
  Pd  Pd181  1  0.40288042  0.60405397  0.20900708  1
  Pd  Pd182  1  0.39884476  0.79087005  0.20070801  1
  Pd  Pd183  1  0.39274089  0.20136621  0.39437109  1
  Pd  Pd184  1  0.19412908  0.19636694  0.79158673  1
  Pd  Pd185  1  0.81285108  0.39974695  0.21289035  1
  Pd  Pd186  1  0.59777249  0.79624657  0.79318205  1
  Pd  Pd187  1  0.40850753  0.59704608  -0.00382144  1
  Pd  Pd188  1  0.39555347  -0.00081594  0.80027273  1
  Pd  Pd189  1  0.60039924  0.80490399  0.00265165  1
  Pd  Pd190  1  0.61046846  0.19378570  0.39470217  1
  Pd  Pd191  1  0.59282775  0.40132378  0.41557683  1
  Pd  Pd192  1  -0.00083741  0.39122318  0.59703349  1
  Pd  Pd193  1  0.59616776  0.60097283  0.19296950  1
  Pd  Pd194  1  0.39157178  0.60591006  0.78907243  1
  Pd  Pd195  1  -0.00402140  -0.00256097  0.20408819  1
  Pd  Pd196  1  -0.00137234  0.59572989  0.40920964  1
  Pd  Pd197  1  0.39072729  0.40195385  0.21465867  1
  Pd  Pd198  1  0.00547174  0.39858406  -0.00852491  1
  Pd  Pd199  1  0.20471107  0.80450201  0.00409031  1
  Rh  Rh200  1  0.80073139  -0.00547087  0.78663186  1
  Rh  Rh201  1  0.60801493  0.61224911  0.81277721  1
  Rh  Rh202  1  0.19649008  0.40894510  0.40775010  1
  Rh  Rh203  1  0.60942650  0.59302415  0.59007075  1
  Rh  Rh204  1  0.00825740  0.20151514  0.79182691  1
  Rh  Rh205  1  0.39827438  0.20123111  0.60789056  1
  Rh  Rh206  1  0.60186981  -0.00322769  0.80275494  1
  Rh  Rh207  1  0.20529834  0.20844742  0.00391877  1
  Rh  Rh208  1  0.39793852  -0.00831710  0.59546305  1
  Rh  Rh209  1  0.19831830  0.20316774  0.19512498  1
  Rh  Rh210  1  0.59433882  0.80160615  0.60485286  1
  Rh  Rh211  1  0.40522782  0.00295946  0.20732344  1
  Rh  Rh212  1  0.00091430  0.79921337  0.60108946  1
  Rh  Rh213  1  0.20214101  0.60321549  0.40570227  1
  Rh  Rh214  1  0.20097302  0.60535837  0.79668749  1
  Rh  Rh215  1  0.80502448  -0.00219989  0.40895867  1
  Rh  Rh216  1  0.59476728  0.60562308  0.40780387  1
  Rh  Rh217  1  0.80933935  0.60384343  0.19822149  1
  Rh  Rh218  1  0.19734687  0.19889637  0.61173354  1
  Rh  Rh219  1  0.20128360  0.40143116  0.19363213  1
  Rh  Rh220  1  0.80545086  0.19398135  0.60216397  1
  Rh  Rh221  1  0.80151129  0.40784962  -0.00730508  1
  Rh  Rh222  1  -0.00368861  0.19956874  0.19484721  1
  Rh  Rh223  1  0.39877965  0.40150387  0.79323435  1
  Rh  Rh224  1  0.81085375  0.39816472  0.40321034  1
  Rh  Rh225  1  0.19275189  0.39829802  0.80415779  1
  Rh  Rh226  1  0.19836741  0.59414000  0.00103010  1
  Rh  Rh227  1  0.19941170  0.79983156  0.59758398  1
  Rh  Rh228  1  0.79342781  0.79493153  0.40238125  1
  Rh  Rh229  1  0.80786513  -0.00546706  0.19781358  1
  Rh  Rh230  1  0.80169310  0.79888277  0.19766128  1
  Rh  Rh231  1  0.40525497  0.79287014  0.78679995  1
  Rh  Rh232  1  0.80054454  0.19813260  0.80032353  1
  Rh  Rh233  1  0.80407414  0.80376937  -0.00144831  1
  Rh  Rh234  1  0.00701180  -0.00949824  0.79821326  1
  Rh  Rh235  1  0.39130433  0.19354932  0.79768690  1
  Rh  Rh236  1  0.20329871  0.19316878  0.39623822  1
  Rh  Rh237  1  0.00502244  0.19985002  0.40203824  1
  Rh  Rh238  1  0.19342089  -0.00565044  0.20344240  1
  Rh  Rh239  1  0.79560834  0.59467795  0.59911438  1
  Rh  Rh240  1  0.19656039  0.60853720  0.19237173  1
  Rh  Rh241  1  0.00338071  0.60962584  0.59116948  1
  Rh  Rh242  1  0.60437697  0.41120654  0.19283641  1
  Rh  Rh243  1  -0.00278313  0.79624117  0.00730076  1
  Rh  Rh244  1  0.79831059  0.00341880  -0.00089387  1
  Rh  Rh245  1  0.79698985  0.20333188  0.20894563  1
  Rh  Rh246  1  -0.00551805  0.60013623  0.79788217  1
  Rh  Rh247  1  0.79867680  0.81054233  0.60089031  1
  Rh  Rh248  1  0.00885602  0.80778327  0.39222174  1
  Rh  Rh249  1  0.40465636  0.38824593  0.59989524  1
