# generated using pymatgen
data_ZrScNbPdRh
_symmetry_space_group_name_H-M   'P 1'
_cell_length_a   16.55347698
_cell_length_b   16.55194046
_cell_length_c   16.55666650
_cell_angle_alpha   90.00432432
_cell_angle_beta   89.98195268
_cell_angle_gamma   90.01843114
_symmetry_Int_Tables_number   1
_chemical_formula_structural   ZrScNbPdRh
_chemical_formula_sum   'Zr50 Sc50 Nb50 Pd50 Rh50'
_cell_volume   4536.39643283
_cell_formula_units_Z   50
loop_
 _symmetry_equiv_pos_site_id
 _symmetry_equiv_pos_as_xyz
  1  'x, y, z'
loop_
 _atom_site_type_symbol
 _atom_site_label
 _atom_site_symmetry_multiplicity
 _atom_site_fract_x
 _atom_site_fract_y
 _atom_site_fract_z
 _atom_site_occupancy
  Zr  Zr0  1  0.50503152  0.89790981  0.69875016  1
  Zr  Zr1  1  0.69991904  0.70411006  0.30465123  1
  Zr  Zr2  1  0.09928561  0.49903606  0.30860797  1
  Zr  Zr3  1  0.50382934  0.50478355  0.69952320  1
  Zr  Zr4  1  0.29862562  0.09887449  0.50662724  1
  Zr  Zr5  1  0.49894319  0.10010764  0.69458617  1
  Zr  Zr6  1  0.90429519  0.29318048  0.88978696  1
  Zr  Zr7  1  0.09075133  0.09656591  0.30195283  1
  Zr  Zr8  1  0.89872115  0.91232308  0.89932924  1
  Zr  Zr9  1  0.49966084  0.49377345  0.50296904  1
  Zr  Zr10  1  0.10279011  0.30810683  0.89734946  1
  Zr  Zr11  1  0.70870450  0.69947520  0.49568191  1
  Zr  Zr12  1  0.49418894  0.11028391  0.89343906  1
  Zr  Zr13  1  0.89094971  0.50207617  0.89777263  1
  Zr  Zr14  1  0.50101208  0.30100210  0.29997773  1
  Zr  Zr15  1  0.90877889  0.49686348  0.28931914  1
  Zr  Zr16  1  0.69764746  0.89725405  0.09914815  1
  Zr  Zr17  1  0.09239848  0.90425574  0.69372243  1
  Zr  Zr18  1  0.90668373  0.09386240  0.70294760  1
  Zr  Zr19  1  0.70072001  0.29316350  0.10264486  1
  Zr  Zr20  1  0.90230240  0.70751118  0.49960753  1
  Zr  Zr21  1  0.29093708  0.90008664  0.49491821  1
  Zr  Zr22  1  0.70101695  0.49468671  0.49897644  1
  Zr  Zr23  1  0.69945941  0.49922338  0.30338516  1
  Zr  Zr24  1  0.69712123  0.10126357  0.49422446  1
  Zr  Zr25  1  0.50318642  0.09931705  0.50726990  1
  Zr  Zr26  1  0.90470199  0.49017059  0.49971102  1
  Zr  Zr27  1  0.30290905  0.89556341  0.30092856  1
  Zr  Zr28  1  0.09772295  0.50061207  0.89492799  1
  Zr  Zr29  1  0.30429240  0.50279091  0.69866483  1
  Zr  Zr30  1  0.89801076  0.69554901  0.89381994  1
  Zr  Zr31  1  0.89814618  0.09578671  0.29988926  1
  Zr  Zr32  1  0.89988619  0.70044623  0.69652606  1
  Zr  Zr33  1  0.49844733  0.89319625  0.29600992  1
  Zr  Zr34  1  0.10527770  0.49965922  0.70426791  1
  Zr  Zr35  1  0.29055196  0.89990954  0.89491362  1
  Zr  Zr36  1  0.29453727  0.10119645  0.89734380  1
  Zr  Zr37  1  0.48932139  0.30708965  0.09301738  1
  Zr  Zr38  1  0.89800854  0.89810394  0.69855906  1
  Zr  Zr39  1  0.69822048  0.10113584  0.29757603  1
  Zr  Zr40  1  0.29135789  0.10960016  0.09218640  1
  Zr  Zr41  1  0.50761888  0.69897846  0.90628594  1
  Zr  Zr42  1  0.69785587  0.89639510  0.90407107  1
  Zr  Zr43  1  0.90232814  0.09899795  0.09683072  1
  Zr  Zr44  1  0.10018287  0.49805685  0.11392086  1
  Zr  Zr45  1  0.10358452  0.09105815  0.50572659  1
  Zr  Zr46  1  0.49803715  0.89293569  0.89626200  1
  Zr  Zr47  1  0.29544387  0.10174811  0.69831668  1
  Zr  Zr48  1  0.50483582  0.29488038  0.70239174  1
  Zr  Zr49  1  0.49163360  0.90162756  0.50571993  1
  Sc  Sc50  1  0.69692204  0.29475160  0.30323966  1
  Sc  Sc51  1  0.10904220  0.29388421  0.10264339  1
  Sc  Sc52  1  0.49974826  0.29466689  0.49641281  1
  Sc  Sc53  1  0.29516275  0.70414681  0.88832852  1
  Sc  Sc54  1  0.70632154  0.10111674  0.10744186  1
  Sc  Sc55  1  0.09361282  0.31209473  0.49791147  1
  Sc  Sc56  1  0.29281082  0.70561963  0.50149132  1
  Sc  Sc57  1  0.09726904  0.10088763  0.89920205  1
  Sc  Sc58  1  0.90517725  0.49614570  0.70149959  1
  Sc  Sc59  1  0.50842231  0.09945551  0.30413292  1
  Sc  Sc60  1  0.29978981  0.09440707  0.30290818  1
  Sc  Sc61  1  0.89464224  0.29722861  0.10171345  1
  Sc  Sc62  1  0.49114715  0.70264986  0.70385146  1
  Sc  Sc63  1  0.10371424  0.69369461  0.30464162  1
  Sc  Sc64  1  0.29916570  0.30588671  0.30092634  1
  Sc  Sc65  1  0.30173859  0.70316281  0.30098774  1
  Sc  Sc66  1  0.10621905  0.09978680  0.70032870  1
  Sc  Sc67  1  0.89923885  0.10346920  0.90328434  1
  Sc  Sc68  1  0.50642466  0.09930868  0.11201093  1
  Sc  Sc69  1  0.89668249  0.90119303  0.51031780  1
  Sc  Sc70  1  0.50527713  0.50982835  0.89939666  1
  Sc  Sc71  1  0.30476547  0.29454555  0.91235665  1
  Sc  Sc72  1  0.71707586  0.50092877  0.09522684  1
  Sc  Sc73  1  0.30101994  0.29320488  0.69711986  1
  Sc  Sc74  1  0.50013770  0.89552002  0.11275376  1
  Sc  Sc75  1  0.51233965  0.70016343  0.50958406  1
  Sc  Sc76  1  0.90289473  0.90368348  0.09568367  1
  Sc  Sc77  1  0.09727864  0.30085915  0.70536881  1
  Sc  Sc78  1  0.49458203  0.49503468  0.29956990  1
  Sc  Sc79  1  0.70791576  0.30252738  0.89379728  1
  Sc  Sc80  1  0.90340156  0.29574865  0.30422262  1
  Sc  Sc81  1  0.70029159  0.50005833  0.70929916  1
  Sc  Sc82  1  0.09978896  0.50551518  0.49754896  1
  Sc  Sc83  1  0.29720676  0.88444610  0.70085332  1
  Sc  Sc84  1  0.08892434  0.89828095  0.08966979  1
  Sc  Sc85  1  0.09838145  0.89835347  0.89404452  1
  Sc  Sc86  1  0.29994958  0.50538526  0.50206494  1
  Sc  Sc87  1  0.28971149  0.49677608  0.89518365  1
  Sc  Sc88  1  0.68988654  0.69471722  0.69624415  1
  Sc  Sc89  1  0.10332619  0.69705638  0.50104918  1
  Sc  Sc90  1  0.09917221  0.30724676  0.29643861  1
  Sc  Sc91  1  0.29516699  0.50444664  0.29689060  1
  Sc  Sc92  1  0.70013266  0.90057090  0.30236707  1
  Sc  Sc93  1  0.68978562  0.09474806  0.69629012  1
  Sc  Sc94  1  0.09629482  0.69854504  0.70176760  1
  Sc  Sc95  1  0.90128769  0.69436385  0.30455864  1
  Sc  Sc96  1  0.70601814  0.89574576  0.50226335  1
  Sc  Sc97  1  0.70245726  0.30066016  0.70257816  1
  Sc  Sc98  1  0.49819827  0.69808964  0.09877825  1
  Sc  Sc99  1  0.30733847  0.29752363  0.50642938  1
  Nb  Nb100  1  0.70133457  0.09786237  0.90853412  1
  Nb  Nb101  1  0.90559403  0.50014321  0.10118922  1
  Nb  Nb102  1  0.09894108  0.09951190  0.10164671  1
  Nb  Nb103  1  0.29499269  0.69605241  0.69945189  1
  Nb  Nb104  1  0.69796082  0.70423744  0.09401897  1
  Nb  Nb105  1  0.50431728  0.70385280  0.29731202  1
  Nb  Nb106  1  0.49850845  0.50340200  0.09874668  1
  Nb  Nb107  1  0.30003134  0.90061240  0.10075850  1
  Nb  Nb108  1  0.90160808  0.69787255  0.10151582  1
  Nb  Nb109  1  0.09823662  0.70326295  0.09464157  1
  Nb  Nb110  1  0.10096637  0.90317215  0.29900878  1
  Nb  Nb111  1  0.31189377  0.50115022  0.10142094  1
  Nb  Nb112  1  0.90153662  0.29796214  0.69475771  1
  Nb  Nb113  1  0.89609095  0.30570679  0.50975952  1
  Nb  Nb114  1  0.09846250  0.69594856  0.90351682  1
  Nb  Nb115  1  0.50158185  0.30200183  0.89772378  1
  Nb  Nb116  1  0.10315493  0.90081555  0.49313607  1
  Nb  Nb117  1  0.70324018  0.30519437  0.50218391  1
  Nb  Nb118  1  0.30410985  0.30172337  0.09812209  1
  Nb  Nb119  1  0.69728231  0.50899749  0.89740348  1
  Nb  Nb120  1  0.69835355  0.69419139  0.90858304  1
  Nb  Nb121  1  0.90873552  0.89959591  0.29328927  1
  Nb  Nb122  1  0.29810267  0.69947394  0.10079653  1
  Nb  Nb123  1  0.70351047  0.89903008  0.70406041  1
  Nb  Nb124  1  0.90057438  0.10751020  0.49858532  1
  Nb  Nb125  1  0.59793621  0.40632303  0.18916030  1
  Nb  Nb126  1  0.19618908  0.19765228  0.40418393  1
  Nb  Nb127  1  0.59885184  0.20230876  -0.00341605  1
  Nb  Nb128  1  0.80552412  0.79445128  0.19543749  1
  Nb  Nb129  1  0.19454898  -0.00434059  0.19551386  1
  Nb  Nb130  1  0.00096793  0.60003202  0.00576069  1
  Nb  Nb131  1  0.40667821  0.39595411  0.80196289  1
  Nb  Nb132  1  0.59619531  0.00405615  -0.00375354  1
  Nb  Nb133  1  0.60107535  0.59855363  0.19648399  1
  Nb  Nb134  1  0.40731492  0.60588325  0.39930908  1
  Nb  Nb135  1  0.60133449  0.40235064  -0.00264695  1
  Nb  Nb136  1  0.40007107  -0.00264449  -0.00074907  1
  Nb  Nb137  1  0.19740950  0.80245090  0.19189880  1
  Nb  Nb138  1  0.80481204  0.20233968  0.59532415  1
  Nb  Nb139  1  0.39551782  0.20524401  0.19675711  1
  Nb  Nb140  1  -0.00687058  0.20161095  0.59608292  1
  Nb  Nb141  1  -0.00338515  0.40628897  0.00332262  1
  Nb  Nb142  1  0.19756898  0.60371796  0.00808369  1
  Nb  Nb143  1  0.39774831  -0.00091689  0.80126922  1
  Nb  Nb144  1  0.20112149  0.40331511  0.60492339  1
  Nb  Nb145  1  0.60113561  0.39805901  0.59997806  1
  Nb  Nb146  1  0.00433627  0.80962546  0.39774220  1
  Nb  Nb147  1  0.79280694  0.79977699  0.80269260  1
  Nb  Nb148  1  0.80147005  0.59624790  0.59656221  1
  Nb  Nb149  1  0.39080454  0.80268249  0.00375230  1
  Pd  Pd150  1  0.39749575  0.59734481  0.80853312  1
  Pd  Pd151  1  0.20502733  0.19524390  0.21107437  1
  Pd  Pd152  1  0.80263171  0.40141812  0.79553564  1
  Pd  Pd153  1  0.39761239  0.61127002  0.59044109  1
  Pd  Pd154  1  0.80057515  -0.00793537  0.19873173  1
  Pd  Pd155  1  0.40611509  0.60516241  0.20701700  1
  Pd  Pd156  1  0.79740265  0.39462734  0.20505024  1
  Pd  Pd157  1  0.00209013  0.79453081  0.20568352  1
  Pd  Pd158  1  0.59681158  0.80704546  0.40676687  1
  Pd  Pd159  1  0.20790822  0.39587459  0.41041859  1
  Pd  Pd160  1  0.19990347  0.20734665  0.80435099  1
  Pd  Pd161  1  0.80872697  0.79910073  -0.00002321  1
  Pd  Pd162  1  0.20917277  0.39966046  0.19692858  1
  Pd  Pd163  1  0.00660695  0.20691634  0.40687811  1
  Pd  Pd164  1  0.60584921  0.80326077  0.59963486  1
  Pd  Pd165  1  0.20223946  0.79670842  0.00003284  1
  Pd  Pd166  1  -0.00318778  0.80117282  0.80288473  1
  Pd  Pd167  1  0.60655956  0.79133240  0.79831851  1
  Pd  Pd168  1  0.20061040  0.60568756  0.19940047  1
  Pd  Pd169  1  0.40490315  0.00507516  0.39784264  1
  Pd  Pd170  1  0.80619234  -0.00636522  0.40089871  1
  Pd  Pd171  1  0.00511266  0.20876293  0.00138114  1
  Pd  Pd172  1  0.19816158  0.40750069  0.00944240  1
  Pd  Pd173  1  0.19283083  0.79754380  0.60347328  1
  Pd  Pd174  1  0.59145908  0.59810968  0.39506069  1
  Pd  Pd175  1  0.79546929  0.00802792  0.59909384  1
  Pd  Pd176  1  0.81034442  0.59240508  0.40329585  1
  Pd  Pd177  1  0.59743609  -0.00897994  0.40134022  1
  Pd  Pd178  1  0.38857174  -0.00892768  0.61031970  1
  Pd  Pd179  1  -0.00346633  0.20389965  0.19768310  1
  Pd  Pd180  1  0.00391423  0.60889242  0.20126035  1
  Pd  Pd181  1  0.80188211  0.39447663  -0.00389495  1
  Pd  Pd182  1  0.40668739  0.78968744  0.40921245  1
  Pd  Pd183  1  0.80519105  0.39622142  0.38966949  1
  Pd  Pd184  1  0.59592751  0.00233724  0.80456002  1
  Pd  Pd185  1  0.39133996  0.40795533  0.39861860  1
  Pd  Pd186  1  0.79868244  0.20528263  0.40155263  1
  Pd  Pd187  1  -0.00848597  0.79699883  -0.00838759  1
  Pd  Pd188  1  0.39339196  0.00972667  0.19507733  1
  Pd  Pd189  1  0.79513536  0.18925442  0.79157941  1
  Pd  Pd190  1  -0.00902593  -0.00667863  0.40837008  1
  Pd  Pd191  1  0.61169221  0.19932312  0.80471959  1
  Pd  Pd192  1  0.19417149  -0.00081258  0.00345623  1
  Pd  Pd193  1  0.40224488  0.41352596  -0.01260900  1
  Pd  Pd194  1  0.38806806  0.60454821  -0.00948417  1
  Pd  Pd195  1  -0.00258375  0.59610902  0.59864725  1
  Pd  Pd196  1  0.79455425  0.60651928  0.19858914  1
  Pd  Pd197  1  0.39458751  0.19477169  0.39428010  1
  Pd  Pd198  1  0.80435224  0.60276451  0.00353300  1
  Pd  Pd199  1  0.79434668  0.00285857  0.80034550  1
  Rh  Rh200  1  0.60759330  -0.00932667  0.59511305  1
  Rh  Rh201  1  0.18781772  0.79524001  0.79362599  1
  Rh  Rh202  1  0.40487085  0.20001092  0.59953841  1
  Rh  Rh203  1  0.19123795  0.20414261  -0.00498308  1
  Rh  Rh204  1  0.81449284  0.80923629  0.38693322  1
  Rh  Rh205  1  0.00261550  0.19556759  0.79269294  1
  Rh  Rh206  1  0.00795412  0.80389241  0.58795826  1
  Rh  Rh207  1  0.60517084  -0.00288322  0.19963834  1
  Rh  Rh208  1  0.40883654  0.19017208  0.01029079  1
  Rh  Rh209  1  0.59560805  0.40423516  0.80232976  1
  Rh  Rh210  1  -0.00246961  0.38978667  0.19397003  1
  Rh  Rh211  1  0.58806386  0.80581976  0.00811771  1
  Rh  Rh212  1  -0.00428522  0.39937244  0.39532631  1
  Rh  Rh213  1  0.79483107  0.00460681  0.00493001  1
  Rh  Rh214  1  0.60919173  0.59070763  0.01085892  1
  Rh  Rh215  1  0.00460491  0.00485794  -0.00303474  1
  Rh  Rh216  1  0.40392851  0.39366866  0.61076137  1
  Rh  Rh217  1  -0.00147656  0.60442743  0.40380088  1
  Rh  Rh218  1  0.00389275  0.00268586  0.80357646  1
  Rh  Rh219  1  0.60132014  0.20239208  0.40390983  1
  Rh  Rh220  1  0.79109465  0.40152407  0.60889018  1
  Rh  Rh221  1  0.19741657  0.60735694  0.80224143  1
  Rh  Rh222  1  0.60944961  0.58944520  0.59877277  1
  Rh  Rh223  1  0.60906669  0.20904032  0.59449330  1
  Rh  Rh224  1  0.39803653  0.39864387  0.20094188  1
  Rh  Rh225  1  0.60818030  0.79229700  0.19835878  1
  Rh  Rh226  1  0.00498529  0.00077206  0.19059700  1
  Rh  Rh227  1  0.20393747  -0.01143379  0.60539315  1
  Rh  Rh228  1  0.21045223  0.60166751  0.40075063  1
  Rh  Rh229  1  0.19128329  0.79947442  0.39138248  1
  Rh  Rh230  1  0.39626634  0.79599408  0.59927858  1
  Rh  Rh231  1  0.39399123  0.20235908  0.79520536  1
  Rh  Rh232  1  0.39772780  0.79868372  0.80169885  1
  Rh  Rh233  1  0.01027419  0.39748229  0.60739529  1
  Rh  Rh234  1  0.20163491  -0.00296245  0.79128634  1
  Rh  Rh235  1  0.21643063  0.39190069  0.79181146  1
  Rh  Rh236  1  0.79173451  0.79195398  0.61232321  1
  Rh  Rh237  1  0.00203798  0.59834678  0.80197222  1
  Rh  Rh238  1  0.59982682  0.39434575  0.40170018  1
  Rh  Rh239  1  0.58974496  0.21104649  0.19418839  1
  Rh  Rh240  1  0.80652840  0.19700665  0.20741563  1
  Rh  Rh241  1  0.79171327  0.60880802  0.79113842  1
  Rh  Rh242  1  0.20043030  0.00526487  0.39249881  1
  Rh  Rh243  1  -0.00104502  0.00252598  0.59567197  1
  Rh  Rh244  1  -0.00772592  0.40145530  0.80289608  1
  Rh  Rh245  1  0.18492847  0.21396065  0.58797108  1
  Rh  Rh246  1  0.79639117  0.20002837  -0.00164668  1
  Rh  Rh247  1  0.60125080  0.60637479  0.80172547  1
  Rh  Rh248  1  0.20015909  0.59680440  0.60302537  1
  Rh  Rh249  1  0.39334205  0.79161600  0.19517392  1
