# generated using pymatgen
data_ZrScNbPdRh
_symmetry_space_group_name_H-M   'P 1'
_cell_length_a   16.56350343
_cell_length_b   16.56056550
_cell_length_c   16.56246808
_cell_angle_alpha   89.99871025
_cell_angle_beta   90.00833439
_cell_angle_gamma   89.97723314
_symmetry_Int_Tables_number   1
_chemical_formula_structural   ZrScNbPdRh
_chemical_formula_sum   'Zr50 Sc50 Nb50 Pd50 Rh50'
_cell_volume   4543.10087383
_cell_formula_units_Z   50
loop_
 _symmetry_equiv_pos_site_id
 _symmetry_equiv_pos_as_xyz
  1  'x, y, z'
loop_
 _atom_site_type_symbol
 _atom_site_label
 _atom_site_symmetry_multiplicity
 _atom_site_fract_x
 _atom_site_fract_y
 _atom_site_fract_z
 _atom_site_occupancy
  Zr  Zr0  1  0.69711412  0.30093042  0.69827527  1
  Zr  Zr1  1  0.90034895  0.50161833  0.30921036  1
  Zr  Zr2  1  0.09674628  0.29829174  0.69720706  1
  Zr  Zr3  1  0.30268026  0.50578180  0.70123465  1
  Zr  Zr4  1  0.89451252  0.50350716  0.49935112  1
  Zr  Zr5  1  0.09763924  0.50784541  0.89561819  1
  Zr  Zr6  1  0.30988955  0.90563283  0.89463962  1
  Zr  Zr7  1  0.69983063  0.90034275  0.09496837  1
  Zr  Zr8  1  0.69439350  0.30463335  0.50073081  1
  Zr  Zr9  1  0.89813659  0.09578557  0.49454421  1
  Zr  Zr10  1  0.09133175  0.50320318  0.50095846  1
  Zr  Zr11  1  0.09772400  0.09892246  0.90019700  1
  Zr  Zr12  1  0.69883919  0.69342420  0.09885000  1
  Zr  Zr13  1  0.10641032  0.89444010  0.50499842  1
  Zr  Zr14  1  0.31110791  0.50161891  0.31032657  1
  Zr  Zr15  1  0.69309052  0.49853814  0.69183728  1
  Zr  Zr16  1  0.90276944  0.69050170  0.49932789  1
  Zr  Zr17  1  0.09947992  0.69760344  0.50382966  1
  Zr  Zr18  1  0.10050938  0.70533848  0.09358028  1
  Zr  Zr19  1  0.89866035  0.70170966  0.09816619  1
  Zr  Zr20  1  0.69955149  0.50748420  0.09887184  1
  Zr  Zr21  1  0.10593143  0.89297206  0.89627868  1
  Zr  Zr22  1  0.29834242  0.50487343  0.11032823  1
  Zr  Zr23  1  0.68995573  0.89743554  0.50138521  1
  Zr  Zr24  1  0.69824512  0.10705331  0.31010966  1
  Zr  Zr25  1  0.89395719  0.89278908  0.50203216  1
  Zr  Zr26  1  0.69854214  0.50688561  0.30512872  1
  Zr  Zr27  1  0.69634818  0.09447000  0.49923344  1
  Zr  Zr28  1  0.30373854  0.70281530  0.10595031  1
  Zr  Zr29  1  0.09617821  0.10456233  0.09989054  1
  Zr  Zr30  1  0.90317075  0.90040570  0.29704917  1
  Zr  Zr31  1  0.70564845  0.90288902  0.90035868  1
  Zr  Zr32  1  0.49594091  0.50672521  0.09755423  1
  Zr  Zr33  1  0.28952080  0.70937288  0.89941400  1
  Zr  Zr34  1  0.49732361  0.69801217  0.10270638  1
  Zr  Zr35  1  0.10746580  0.29768477  0.49765482  1
  Zr  Zr36  1  0.90101155  0.50043872  0.68968291  1
  Zr  Zr37  1  0.10069516  0.09622466  0.29663882  1
  Zr  Zr38  1  0.30207679  0.30802614  0.70372353  1
  Zr  Zr39  1  0.69952949  0.49932800  0.90231456  1
  Zr  Zr40  1  0.10101445  0.89907256  0.29662395  1
  Zr  Zr41  1  0.90157508  0.09862083  0.29449936  1
  Zr  Zr42  1  0.90254184  0.10095899  0.09140519  1
  Zr  Zr43  1  0.10257817  0.29725538  0.29524453  1
  Zr  Zr44  1  0.69324268  0.69494124  0.69391621  1
  Zr  Zr45  1  0.10231837  0.49055444  0.10299786  1
  Zr  Zr46  1  0.09946727  0.30305713  0.10294706  1
  Zr  Zr47  1  0.49648716  0.30191269  0.31034882  1
  Zr  Zr48  1  0.70460709  0.69804885  0.90517160  1
  Zr  Zr49  1  0.90657705  0.29996302  0.10270157  1
  Sc  Sc50  1  0.50150798  0.30304224  0.69345965  1
  Sc  Sc51  1  0.71494162  0.89934006  0.69654019  1
  Sc  Sc52  1  0.69628592  0.69941529  0.49825196  1
  Sc  Sc53  1  0.70037754  0.10159262  0.70523572  1
  Sc  Sc54  1  0.49762902  0.10174098  0.69784384  1
  Sc  Sc55  1  0.29287598  0.88538000  0.29546092  1
  Sc  Sc56  1  0.28963770  0.31161760  0.09421348  1
  Sc  Sc57  1  0.49913930  0.09283406  0.09663312  1
  Sc  Sc58  1  0.50378066  0.89266101  0.30273305  1
  Sc  Sc59  1  0.90701732  0.90820344  0.88336363  1
  Sc  Sc60  1  0.30128133  0.89794799  0.69519729  1
  Sc  Sc61  1  0.70869870  0.30846084  0.10499305  1
  Sc  Sc62  1  0.10010709  0.89063553  0.70120213  1
  Sc  Sc63  1  0.49189829  0.08787719  0.90041852  1
  Sc  Sc64  1  0.09705959  0.70403175  0.89279107  1
  Sc  Sc65  1  0.71085125  0.10211223  0.89771951  1
  Sc  Sc66  1  0.29892721  0.10464519  0.50853948  1
  Sc  Sc67  1  0.11015866  0.49589867  0.30165292  1
  Sc  Sc68  1  0.49626801  0.70022796  0.90750298  1
  Sc  Sc69  1  0.49918494  0.89431492  0.08889659  1
  Sc  Sc70  1  0.11417680  0.30081861  0.90191095  1
  Sc  Sc71  1  0.89915508  0.49260494  0.09547589  1
  Sc  Sc72  1  0.71166653  0.09555792  0.09362062  1
  Sc  Sc73  1  0.89861901  0.30023294  0.69875418  1
  Sc  Sc74  1  0.50327174  0.30915060  0.89907447  1
  Sc  Sc75  1  0.30278771  0.09667943  0.69478807  1
  Sc  Sc76  1  0.89710341  0.30480310  0.29565628  1
  Sc  Sc77  1  0.89024283  0.70101287  0.30316390  1
  Sc  Sc78  1  0.28764322  0.09077159  0.09732684  1
  Sc  Sc79  1  0.91138132  0.69794260  0.89573735  1
  Sc  Sc80  1  0.30689569  0.29902909  0.50056446  1
  Sc  Sc81  1  0.50356155  0.10052764  0.50283104  1
  Sc  Sc82  1  0.29295901  0.69388784  0.50252887  1
  Sc  Sc83  1  0.48990066  0.89331759  0.69105359  1
  Sc  Sc84  1  0.70519104  0.89400675  0.30905418  1
  Sc  Sc85  1  0.50288312  0.09983962  0.31147028  1
  Sc  Sc86  1  0.70043091  0.30081167  0.89025302  1
  Sc  Sc87  1  0.49814680  0.68663160  0.30689649  1
  Sc  Sc88  1  0.90446416  0.70669788  0.69500453  1
  Sc  Sc89  1  0.29556796  0.30192525  0.31162932  1
  Sc  Sc90  1  0.10053423  0.90459152  0.10186666  1
  Sc  Sc91  1  0.29989249  0.69652534  0.70113695  1
  Sc  Sc92  1  0.70500701  0.30480803  0.30570241  1
  Sc  Sc93  1  0.29790733  0.49228912  0.89177266  1
  Sc  Sc94  1  0.29574139  0.69615719  0.29507677  1
  Sc  Sc95  1  0.90585472  0.31298144  0.50483838  1
  Sc  Sc96  1  0.29265595  0.10221351  0.30049296  1
  Sc  Sc97  1  0.49881203  0.69442219  0.69442897  1
  Sc  Sc98  1  0.49325593  0.31197326  0.09719694  1
  Sc  Sc99  1  0.90414836  0.10254539  0.71404921  1
  Nb  Nb100  1  0.30003187  0.89617782  0.50246641  1
  Nb  Nb101  1  0.10413978  0.50338948  0.70433473  1
  Nb  Nb102  1  0.10216968  0.70208365  0.29957363  1
  Nb  Nb103  1  0.89894554  0.49952447  0.89549855  1
  Nb  Nb104  1  0.49871050  0.50715242  0.70037437  1
  Nb  Nb105  1  0.49937234  0.50029092  0.30462211  1
  Nb  Nb106  1  0.89452641  0.90362158  0.10250495  1
  Nb  Nb107  1  0.29669405  0.49927075  0.50140617  1
  Nb  Nb108  1  0.70172266  0.50277504  0.50361389  1
  Nb  Nb109  1  0.49673668  0.29780732  0.49897848  1
  Nb  Nb110  1  0.50455203  0.89881213  0.89544821  1
  Nb  Nb111  1  0.29772696  0.29516162  0.89837162  1
  Nb  Nb112  1  0.50405961  0.70675260  0.50607589  1
  Nb  Nb113  1  0.90698054  0.90298645  0.69721915  1
  Nb  Nb114  1  0.89678984  0.30025420  0.89552880  1
  Nb  Nb115  1  0.50285831  0.50284354  0.89842627  1
  Nb  Nb116  1  0.89953161  0.10584470  0.89927519  1
  Nb  Nb117  1  0.30077020  0.89365545  0.10716561  1
  Nb  Nb118  1  0.10093530  0.09748707  0.69476343  1
  Nb  Nb119  1  0.10042471  0.69138667  0.70405338  1
  Nb  Nb120  1  0.69784315  0.69593936  0.29584342  1
  Nb  Nb121  1  0.29636080  0.10300089  0.89912227  1
  Nb  Nb122  1  0.49440179  0.50837824  0.48772258  1
  Nb  Nb123  1  0.49834391  0.89309076  0.49956661  1
  Nb  Nb124  1  0.10334838  0.09921821  0.50552503  1
  Nb  Nb125  1  0.60038046  0.80439525  0.80222987  1
  Nb  Nb126  1  0.59532532  0.20167017  0.00464506  1
  Nb  Nb127  1  0.80619483  0.80507180  0.00013638  1
  Nb  Nb128  1  0.19940118  0.60031497  0.00156941  1
  Nb  Nb129  1  0.59500689  0.40612975  0.20620941  1
  Nb  Nb130  1  0.00495854  0.19507999  0.40114759  1
  Nb  Nb131  1  0.40231283  0.19713397  0.19445963  1
  Nb  Nb132  1  0.20166608  0.40838475  0.60120556  1
  Nb  Nb133  1  0.39510985  0.20060091  -0.00187028  1
  Nb  Nb134  1  0.59989964  -0.00127576  0.20197491  1
  Nb  Nb135  1  0.59520875  0.20192919  0.19590105  1
  Nb  Nb136  1  0.00381471  0.60212479  0.20277280  1
  Nb  Nb137  1  -0.00174850  0.40363409  0.80267220  1
  Nb  Nb138  1  0.79796093  0.19972470  0.59656560  1
  Nb  Nb139  1  0.00162127  0.00004890  0.60318958  1
  Nb  Nb140  1  0.39404721  0.20123073  0.80758106  1
  Nb  Nb141  1  0.00392958  0.79782852  0.40011599  1
  Nb  Nb142  1  0.39413707  -0.01079919  0.40320879  1
  Nb  Nb143  1  0.40091504  -0.00321677  0.20438781  1
  Nb  Nb144  1  0.39918433  0.79968954  0.40919600  1
  Nb  Nb145  1  0.19939228  0.00439749  0.79881263  1
  Nb  Nb146  1  0.20277943  -0.00492036  0.40766822  1
  Nb  Nb147  1  0.80078901  0.59450483  0.79783594  1
  Nb  Nb148  1  0.59739008  -0.00974680  0.80106615  1
  Nb  Nb149  1  0.60341774  0.79555568  0.19960030  1
  Pd  Pd150  1  0.40837729  0.39778023  0.80129173  1
  Pd  Pd151  1  0.00358494  0.39178502  0.39459315  1
  Pd  Pd152  1  0.19921385  0.59865873  0.39863417  1
  Pd  Pd153  1  0.79901518  0.39542879  -0.00221815  1
  Pd  Pd154  1  0.20336344  0.19274504  0.79057683  1
  Pd  Pd155  1  0.60244638  0.19699745  0.59834463  1
  Pd  Pd156  1  0.39311433  0.40120706  -0.00691146  1
  Pd  Pd157  1  0.79160218  0.00249912  0.20680940  1
  Pd  Pd158  1  0.60000291  0.40341398  0.40052132  1
  Pd  Pd159  1  0.60033893  0.60650653  0.80602860  1
  Pd  Pd160  1  0.40707803  0.79344077  0.79526956  1
  Pd  Pd161  1  0.20363490  0.79194018  0.60927560  1
  Pd  Pd162  1  0.40251517  0.00159624  0.59371385  1
  Pd  Pd163  1  -0.00811242  0.81262803  -0.00381019  1
  Pd  Pd164  1  0.20854326  0.20704962  0.60465898  1
  Pd  Pd165  1  0.40181616  0.40571289  0.59438062  1
  Pd  Pd166  1  0.39584088  0.18877615  0.39906509  1
  Pd  Pd167  1  0.59609882  -0.00610919  0.61145165  1
  Pd  Pd168  1  0.81056742  0.59380517  0.20015883  1
  Pd  Pd169  1  0.60425762  0.39608290  0.00637848  1
  Pd  Pd170  1  0.79345669  0.21102396  -0.00226146  1
  Pd  Pd171  1  0.39439486  0.00010637  0.00722568  1
  Pd  Pd172  1  0.38792483  0.59575887  -0.01042297  1
  Pd  Pd173  1  0.58851228  0.18877049  0.81193110  1
  Pd  Pd174  1  0.00376034  0.20985273  -0.00982566  1
  Pd  Pd175  1  0.79378029  0.19875560  0.19781619  1
  Pd  Pd176  1  0.00125937  0.39387552  -0.01144904  1
  Pd  Pd177  1  0.80803138  0.01046283  0.60975691  1
  Pd  Pd178  1  -0.00281970  -0.00747015  -0.00167001  1
  Pd  Pd179  1  -0.01002559  0.19288673  0.59384276  1
  Pd  Pd180  1  0.00222927  0.59529677  0.00720851  1
  Pd  Pd181  1  0.80336620  0.40434402  0.79298067  1
  Pd  Pd182  1  0.59254512  0.40485711  0.79611706  1
  Pd  Pd183  1  0.40025457  0.60513456  0.80815732  1
  Pd  Pd184  1  0.00313899  0.20792672  0.80629020  1
  Pd  Pd185  1  0.59629237  0.79076860  0.39250677  1
  Pd  Pd186  1  0.20187677  -0.00873528  -0.00451606  1
  Pd  Pd187  1  0.39694142  0.80283765  -0.00110012  1
  Pd  Pd188  1  0.21105660  0.20391090  0.19351808  1
  Pd  Pd189  1  0.60311327  0.00974577  -0.00351931  1
  Pd  Pd190  1  0.40189576  0.60264398  0.59320458  1
  Pd  Pd191  1  0.00799113  -0.00419518  0.40925172  1
  Pd  Pd192  1  0.58454186  0.40814915  0.59175811  1
  Pd  Pd193  1  0.79640559  -0.00546932  0.39595898  1
  Pd  Pd194  1  -0.00000520  0.79531090  0.20295308  1
  Pd  Pd195  1  0.81127423  0.21282143  0.40849622  1
  Pd  Pd196  1  0.79300541  0.80069855  0.19710458  1
  Pd  Pd197  1  0.79721556  0.79253005  0.59674361  1
  Pd  Pd198  1  0.80218963  0.79218152  0.80198292  1
  Pd  Pd199  1  0.39864308  0.39419708  0.20513998  1
  Rh  Rh200  1  0.19717522  0.59476975  0.60265066  1
  Rh  Rh201  1  -0.00274867  0.00177635  0.18954288  1
  Rh  Rh202  1  0.60570343  0.79500608  -0.00158817  1
  Rh  Rh203  1  0.19291884  0.39938426  0.79457243  1
  Rh  Rh204  1  0.81309639  0.60518499  -0.00932493  1
  Rh  Rh205  1  0.79695160  0.60315234  0.60272120  1
  Rh  Rh206  1  0.59160587  0.59169096  0.58996240  1
  Rh  Rh207  1  0.40032502  0.39918261  0.40925299  1
  Rh  Rh208  1  0.20279864  0.60450653  0.80600325  1
  Rh  Rh209  1  0.79869485  0.40230972  0.40490711  1
  Rh  Rh210  1  0.39597922  0.60978357  0.40769908  1
  Rh  Rh211  1  0.41105716  0.80207461  0.20751511  1
  Rh  Rh212  1  0.19937684  0.79965759  0.39946968  1
  Rh  Rh213  1  0.19575504  -0.00174356  0.60235058  1
  Rh  Rh214  1  0.59259534  0.59761673  0.20333216  1
  Rh  Rh215  1  0.79942310  0.00446684  0.79770735  1
  Rh  Rh216  1  0.21043661  0.39818910  0.21142893  1
  Rh  Rh217  1  0.19517530  0.79843291  0.19306990  1
  Rh  Rh218  1  -0.00820618  0.59642062  0.79034676  1
  Rh  Rh219  1  0.20778480  -0.00521867  0.20740593  1
  Rh  Rh220  1  0.39467325  0.79005918  0.59438279  1
  Rh  Rh221  1  0.01027091  0.00247646  0.79394576  1
  Rh  Rh222  1  0.39860464  0.00493889  0.79491785  1
  Rh  Rh223  1  0.00305548  0.60124430  0.60637258  1
  Rh  Rh224  1  0.01023465  0.40526572  0.60774762  1
  Rh  Rh225  1  0.59294880  0.59911312  -0.00558262  1
  Rh  Rh226  1  0.00178841  0.80147325  0.59849255  1
  Rh  Rh227  1  0.40350600  0.60009294  0.20718089  1
  Rh  Rh228  1  0.80217604  0.79415316  0.40343361  1
  Rh  Rh229  1  0.60267640  0.60195919  0.40714512  1
  Rh  Rh230  1  0.81595057  -0.00507536  -0.01081818  1
  Rh  Rh231  1  0.40396893  0.20378762  0.60646171  1
  Rh  Rh232  1  -0.00374523  0.19904691  0.20559726  1
  Rh  Rh233  1  0.19021840  0.60421869  0.19363768  1
  Rh  Rh234  1  0.59465299  -0.00399835  0.39856680  1
  Rh  Rh235  1  0.20180804  0.80433317  0.79132111  1
  Rh  Rh236  1  0.00106387  0.79757906  0.79265808  1
  Rh  Rh237  1  0.79540369  0.40920470  0.20298446  1
  Rh  Rh238  1  0.19544489  0.18965766  0.40348791  1
  Rh  Rh239  1  0.59742628  0.20488512  0.40196166  1
  Rh  Rh240  1  0.20232936  0.40439278  0.40820843  1
  Rh  Rh241  1  0.20555277  0.80268662  0.00600504  1
  Rh  Rh242  1  -0.00417398  0.40992266  0.20775685  1
  Rh  Rh243  1  0.20253315  0.20000426  0.00751141  1
  Rh  Rh244  1  0.78940901  0.60400315  0.40416214  1
  Rh  Rh245  1  0.00540425  0.60771425  0.38866794  1
  Rh  Rh246  1  0.20192784  0.40972277  -0.00612230  1
  Rh  Rh247  1  0.80329514  0.20217010  0.79423420  1
  Rh  Rh248  1  0.60141680  0.80573429  0.60958299  1
  Rh  Rh249  1  0.79538001  0.39403227  0.59789913  1
