# generated using pymatgen
data_ZrScNbPdRh
_symmetry_space_group_name_H-M   'P 1'
_cell_length_a   16.56385836
_cell_length_b   16.56102075
_cell_length_c   16.56168703
_cell_angle_alpha   89.97670190
_cell_angle_beta   90.03458956
_cell_angle_gamma   89.97176896
_symmetry_Int_Tables_number   1
_chemical_formula_structural   ZrScNbPdRh
_chemical_formula_sum   'Zr50 Sc50 Nb50 Pd50 Rh50'
_cell_volume   4543.10751817
_cell_formula_units_Z   50
loop_
 _symmetry_equiv_pos_site_id
 _symmetry_equiv_pos_as_xyz
  1  'x, y, z'
loop_
 _atom_site_type_symbol
 _atom_site_label
 _atom_site_symmetry_multiplicity
 _atom_site_fract_x
 _atom_site_fract_y
 _atom_site_fract_z
 _atom_site_occupancy
  Zr  Zr0  1  0.29659925  0.70315615  0.49547933  1
  Zr  Zr1  1  0.49784471  0.31320211  0.30126838  1
  Zr  Zr2  1  0.10291600  0.90176702  0.69448528  1
  Zr  Zr3  1  0.29084175  0.89808035  0.29756180  1
  Zr  Zr4  1  0.09457484  0.49386214  0.49502175  1
  Zr  Zr5  1  0.89801164  0.29823478  0.29137542  1
  Zr  Zr6  1  0.10450836  0.10358610  0.69227162  1
  Zr  Zr7  1  0.71144193  0.10124677  0.09852874  1
  Zr  Zr8  1  0.50270191  0.69765415  0.89863984  1
  Zr  Zr9  1  0.10877758  0.90436751  0.49565215  1
  Zr  Zr10  1  0.30481672  0.49564881  0.30576918  1
  Zr  Zr11  1  0.10633867  0.90833500  0.10362795  1
  Zr  Zr12  1  0.89926097  0.09946598  0.30224887  1
  Zr  Zr13  1  0.69773402  0.90351370  0.89700189  1
  Zr  Zr14  1  0.90518659  0.29583145  0.89765128  1
  Zr  Zr15  1  0.29175776  0.10248470  0.09327646  1
  Zr  Zr16  1  0.70342685  0.29624899  0.10054359  1
  Zr  Zr17  1  0.49972494  0.49580678  0.89013343  1
  Zr  Zr18  1  0.90330196  0.90683125  0.89766166  1
  Zr  Zr19  1  0.69952816  0.69652690  0.09931872  1
  Zr  Zr20  1  0.91044395  0.50132480  0.89167777  1
  Zr  Zr21  1  0.09149135  0.09494370  0.30124699  1
  Zr  Zr22  1  0.70775003  0.50193561  0.49532760  1
  Zr  Zr23  1  0.50030871  0.50736112  0.69690949  1
  Zr  Zr24  1  0.50438110  0.70282461  0.70295047  1
  Zr  Zr25  1  0.70217447  0.31109070  0.29690459  1
  Zr  Zr26  1  0.89604140  0.70030774  0.10317710  1
  Zr  Zr27  1  0.09611980  0.49949113  0.29261037  1
  Zr  Zr28  1  0.50223720  0.89959931  0.70799342  1
  Zr  Zr29  1  0.49919464  0.89735108  0.89775236  1
  Zr  Zr30  1  0.29349732  0.70586853  0.69642315  1
  Zr  Zr31  1  0.09464455  0.09982507  0.90086624  1
  Zr  Zr32  1  0.30018654  0.29956916  0.30295842  1
  Zr  Zr33  1  0.70292127  0.89456059  0.50321316  1
  Zr  Zr34  1  0.10385847  0.29782511  0.30237344  1
  Zr  Zr35  1  0.50015196  0.50011867  0.28971286  1
  Zr  Zr36  1  0.09834477  0.69380293  0.89332469  1
  Zr  Zr37  1  0.10072023  0.10175258  0.49871949  1
  Zr  Zr38  1  0.90317397  0.10069182  0.90659550  1
  Zr  Zr39  1  0.29661049  0.69602388  0.29620584  1
  Zr  Zr40  1  0.30410572  0.48803192  0.70772247  1
  Zr  Zr41  1  0.89106973  0.69534628  0.49328175  1
  Zr  Zr42  1  0.29335757  0.89795227  0.09942682  1
  Zr  Zr43  1  0.49875713  0.29707051  0.70566438  1
  Zr  Zr44  1  0.50710148  0.90526911  0.30394898  1
  Zr  Zr45  1  0.10218716  0.69891228  0.49683935  1
  Zr  Zr46  1  0.70065750  0.10103520  0.70066032  1
  Zr  Zr47  1  0.90895801  0.10168174  0.70513819  1
  Zr  Zr48  1  0.69527318  0.29736491  0.89903328  1
  Zr  Zr49  1  0.09879577  0.29833074  0.50894087  1
  Sc  Sc50  1  0.29549020  0.70531302  0.10240218  1
  Sc  Sc51  1  0.89409016  0.91132659  0.10142551  1
  Sc  Sc52  1  0.50203101  0.89232915  0.10481569  1
  Sc  Sc53  1  0.29355662  0.49799144  0.10284356  1
  Sc  Sc54  1  0.10149490  0.49496803  0.10019789  1
  Sc  Sc55  1  0.30196725  0.09962080  0.50405063  1
  Sc  Sc56  1  0.29573399  0.29676886  0.89605050  1
  Sc  Sc57  1  0.29598974  0.29635760  0.69887820  1
  Sc  Sc58  1  0.69528787  0.50239073  0.90298934  1
  Sc  Sc59  1  0.49764733  0.69163883  0.51001404  1
  Sc  Sc60  1  0.70086490  0.70799806  0.30946405  1
  Sc  Sc61  1  0.89263582  0.90577774  0.49876084  1
  Sc  Sc62  1  0.29431363  0.89350812  0.90535558  1
  Sc  Sc63  1  0.50572239  0.10563258  0.08713288  1
  Sc  Sc64  1  0.50348747  0.69277382  0.11092005  1
  Sc  Sc65  1  0.10436172  0.30291216  0.89985992  1
  Sc  Sc66  1  0.70476546  0.69197267  0.90463803  1
  Sc  Sc67  1  0.49922282  0.10309357  0.89682217  1
  Sc  Sc68  1  0.70271844  0.09966406  0.90303472  1
  Sc  Sc69  1  0.89441834  0.90681486  0.69367472  1
  Sc  Sc70  1  0.68761739  0.49964763  0.10322133  1
  Sc  Sc71  1  0.29860549  0.10900616  0.90008152  1
  Sc  Sc72  1  0.10148388  0.90437201  0.90719994  1
  Sc  Sc73  1  0.30738487  0.10454563  0.69729697  1
  Sc  Sc74  1  0.29185290  0.70084567  0.90244209  1
  Sc  Sc75  1  0.49674988  0.29863460  0.50153546  1
  Sc  Sc76  1  0.69365557  0.29455146  0.69869821  1
  Sc  Sc77  1  0.09739323  0.49358027  0.71091561  1
  Sc  Sc78  1  0.29855219  0.90559790  0.49922314  1
  Sc  Sc79  1  0.89413327  0.68761801  0.70266546  1
  Sc  Sc80  1  0.10577416  0.49548757  0.90241800  1
  Sc  Sc81  1  0.90314289  0.49965093  0.30782946  1
  Sc  Sc82  1  0.09681103  0.29713680  0.10205342  1
  Sc  Sc83  1  0.70506624  0.09927834  0.49404924  1
  Sc  Sc84  1  0.91328885  0.49690644  0.10698011  1
  Sc  Sc85  1  0.10324508  0.69223832  0.30067570  1
  Sc  Sc86  1  0.89669986  0.69153268  0.90330982  1
  Sc  Sc87  1  0.70519562  0.90188904  0.10212239  1
  Sc  Sc88  1  0.29690926  0.10360643  0.31247810  1
  Sc  Sc89  1  0.49238161  0.09823110  0.49747212  1
  Sc  Sc90  1  0.89900651  0.69696724  0.30350545  1
  Sc  Sc91  1  0.70047349  0.90705854  0.30470880  1
  Sc  Sc92  1  0.29218751  0.29437861  0.09137284  1
  Sc  Sc93  1  0.70301515  0.70157939  0.50407618  1
  Sc  Sc94  1  0.10373400  0.69036983  0.10614294  1
  Sc  Sc95  1  0.49601912  0.91005827  0.49574727  1
  Sc  Sc96  1  0.29733926  0.30089913  0.50218459  1
  Sc  Sc97  1  0.10600283  0.30234768  0.69988859  1
  Sc  Sc98  1  0.70072973  0.30806556  0.49112450  1
  Sc  Sc99  1  0.30440654  0.90217235  0.69359362  1
  Nb  Nb100  1  0.09527864  0.90457199  0.30041381  1
  Nb  Nb101  1  0.69668904  0.89318343  0.69785375  1
  Nb  Nb102  1  0.89725316  0.49470935  0.69396834  1
  Nb  Nb103  1  0.50224821  0.09574115  0.30112824  1
  Nb  Nb104  1  0.49950466  0.69904462  0.30086809  1
  Nb  Nb105  1  0.90536729  0.30792878  0.69485164  1
  Nb  Nb106  1  0.49934282  0.10079889  0.68970653  1
  Nb  Nb107  1  0.09893438  0.69846398  0.69675253  1
  Nb  Nb108  1  0.69326858  0.10253591  0.29854129  1
  Nb  Nb109  1  0.49925810  0.49782031  0.09701269  1
  Nb  Nb110  1  0.90924813  0.90344873  0.30118914  1
  Nb  Nb111  1  0.69595487  0.70752136  0.69201248  1
  Nb  Nb112  1  0.70358462  0.50990579  0.69093693  1
  Nb  Nb113  1  0.89827126  0.49702413  0.50708375  1
  Nb  Nb114  1  0.50216234  0.29941342  0.09659938  1
  Nb  Nb115  1  0.69550517  0.49617513  0.30226095  1
  Nb  Nb116  1  0.30384735  0.50080106  0.50766793  1
  Nb  Nb117  1  0.90487805  0.11021648  0.50186181  1
  Nb  Nb118  1  0.30324951  0.49227457  0.90330461  1
  Nb  Nb119  1  0.90585489  0.11262265  0.10179837  1
  Nb  Nb120  1  0.89657569  0.29033308  0.10027701  1
  Nb  Nb121  1  0.50000810  0.29818817  0.90819560  1
  Nb  Nb122  1  0.09280844  0.09812835  0.09515145  1
  Nb  Nb123  1  0.49824159  0.49839227  0.49903614  1
  Nb  Nb124  1  0.90176212  0.30857682  0.50546883  1
  Nb  Nb125  1  0.60151465  0.00065237  0.60656595  1
  Nb  Nb126  1  0.80607242  0.39594550  -0.00332567  1
  Nb  Nb127  1  0.79634322  0.80044186  0.79418462  1
  Nb  Nb128  1  0.59852974  0.19799926  0.38923577  1
  Nb  Nb129  1  -0.00300568  0.79774269  0.79710038  1
  Nb  Nb130  1  0.39693590  -0.00302376  0.00462514  1
  Nb  Nb131  1  0.59613784  0.20004229  0.20398858  1
  Nb  Nb132  1  0.80161122  0.40319651  0.79460262  1
  Nb  Nb133  1  -0.00034984  0.79940585  0.00357658  1
  Nb  Nb134  1  0.79367864  0.59662381  0.20483438  1
  Nb  Nb135  1  0.00068499  0.80689905  0.20303578  1
  Nb  Nb136  1  0.40650286  0.19743236  0.20045765  1
  Nb  Nb137  1  0.00236462  0.80586225  0.39834318  1
  Nb  Nb138  1  0.40170243  0.59071540  -0.00131973  1
  Nb  Nb139  1  -0.00045417  0.79303012  0.59880892  1
  Nb  Nb140  1  0.59828799  0.40986902  0.59991185  1
  Nb  Nb141  1  0.59573620  0.59461478  0.39823738  1
  Nb  Nb142  1  0.81132548  0.20411616  0.59632165  1
  Nb  Nb143  1  0.40087547  0.00725344  0.19826484  1
  Nb  Nb144  1  0.19797689  0.59438218  0.60185876  1
  Nb  Nb145  1  0.40573731  0.39956198  -0.00162383  1
  Nb  Nb146  1  0.40200296  0.79561946  0.39310154  1
  Nb  Nb147  1  -0.00001383  0.59613475  0.60001298  1
  Nb  Nb148  1  0.60211270  0.79748825  -0.00206877  1
  Nb  Nb149  1  0.19824531  0.00401452  0.79792702  1
  Pd  Pd150  1  0.80351691  0.58074305  0.01186783  1
  Pd  Pd151  1  0.39127273  0.60172898  0.60543868  1
  Pd  Pd152  1  0.40051814  0.20095634  0.80114235  1
  Pd  Pd153  1  0.20143103  0.58920689  0.40291041  1
  Pd  Pd154  1  0.60772755  0.79896219  0.19901203  1
  Pd  Pd155  1  0.80046340  0.80413366  -0.00847124  1
  Pd  Pd156  1  0.58824205  0.80675636  0.59045921  1
  Pd  Pd157  1  0.79366162  0.59879228  0.79660436  1
  Pd  Pd158  1  -0.00275870  -0.00510617  0.59294455  1
  Pd  Pd159  1  0.39002296  0.60802469  0.80429114  1
  Pd  Pd160  1  0.39320345  0.59924149  0.19118151  1
  Pd  Pd161  1  0.20283091  0.40028293  0.40509707  1
  Pd  Pd162  1  0.20464348  0.59871318  0.00192897  1
  Pd  Pd163  1  0.60735596  0.20053171  0.58488417  1
  Pd  Pd164  1  0.40697069  0.79410929  0.00463068  1
  Pd  Pd165  1  0.59580944  0.19350239  0.80398923  1
  Pd  Pd166  1  0.79900204  -0.00264806  0.79778527  1
  Pd  Pd167  1  0.39037574  0.39101507  0.18610773  1
  Pd  Pd168  1  0.20469159  0.59264952  0.79563123  1
  Pd  Pd169  1  0.40499481  0.39283286  0.60006358  1
  Pd  Pd170  1  0.40476863  0.80627728  0.59108329  1
  Pd  Pd171  1  -0.00466708  0.39368368  0.39607998  1
  Pd  Pd172  1  0.19374098  0.80939075  0.80119182  1
  Pd  Pd173  1  0.40612173  0.60210069  0.40081241  1
  Pd  Pd174  1  0.39030603  0.00221008  0.80778224  1
  Pd  Pd175  1  0.40431028  0.20244540  0.39869776  1
  Pd  Pd176  1  0.39059258  0.79658114  0.80258892  1
  Pd  Pd177  1  0.59429588  -0.00667769  0.00510256  1
  Pd  Pd178  1  0.20136989  0.39741447  0.19641188  1
  Pd  Pd179  1  -0.00147976  0.39366019  0.00310139  1
  Pd  Pd180  1  0.80363581  0.41203342  0.19147623  1
  Pd  Pd181  1  0.80284240  0.20661099  0.79243830  1
  Pd  Pd182  1  0.61027112  0.60317406  0.79709562  1
  Pd  Pd183  1  0.79593061  0.00946292  0.59934394  1
  Pd  Pd184  1  0.60220108  0.39991196  0.00104357  1
  Pd  Pd185  1  0.40271436  0.80489703  0.20605203  1
  Pd  Pd186  1  0.80020263  0.00090339  0.39888966  1
  Pd  Pd187  1  0.79696087  0.20598397  0.40198662  1
  Pd  Pd188  1  0.80271123  0.79869392  0.20953284  1
  Pd  Pd189  1  0.00832544  0.20803927  0.79563887  1
  Pd  Pd190  1  0.00378576  0.60256223  0.00410216  1
  Pd  Pd191  1  -0.00204387  0.20791734  0.40001589  1
  Pd  Pd192  1  0.59642944  0.00576936  0.18879320  1
  Pd  Pd193  1  0.59116952  0.79137891  0.40997965  1
  Pd  Pd194  1  0.80337836  0.00392507  0.20404871  1
  Pd  Pd195  1  0.19926454  0.19455060  0.20188769  1
  Pd  Pd196  1  0.59839327  0.00869198  0.79598208  1
  Pd  Pd197  1  0.60839602  0.40356278  0.78976679  1
  Pd  Pd198  1  0.20416363  0.01222501  0.20664128  1
  Pd  Pd199  1  0.78803509  0.39201225  0.60543844  1
  Rh  Rh200  1  0.00469405  0.19864685  0.20039586  1
  Rh  Rh201  1  0.80267923  0.60452393  0.59972258  1
  Rh  Rh202  1  0.80155279  0.20257876  -0.00605840  1
  Rh  Rh203  1  0.18600174  0.79548291  0.20288810  1
  Rh  Rh204  1  -0.00173929  0.39745672  0.79759322  1
  Rh  Rh205  1  0.00524176  0.20432191  0.00270428  1
  Rh  Rh206  1  0.60816944  0.60349805  0.21176651  1
  Rh  Rh207  1  0.20084380  0.00584709  0.39852425  1
  Rh  Rh208  1  -0.00358609  0.20563061  0.60344074  1
  Rh  Rh209  1  0.39658427  0.40182638  0.40897164  1
  Rh  Rh210  1  0.00907447  -0.00741347  0.79523929  1
  Rh  Rh211  1  -0.00214541  0.60256626  0.40460033  1
  Rh  Rh212  1  0.39914739  0.20360183  0.59951181  1
  Rh  Rh213  1  0.20873142  0.00560908  0.60604831  1
  Rh  Rh214  1  0.60554279  0.19755107  0.00117475  1
  Rh  Rh215  1  0.18595006  0.79144982  0.00327480  1
  Rh  Rh216  1  0.20346257  0.59289111  0.20180854  1
  Rh  Rh217  1  0.19991226  0.40761002  0.60108273  1
  Rh  Rh218  1  0.60603515  0.59654801  0.59223846  1
  Rh  Rh219  1  0.20584650  0.00715809  -0.01193832  1
  Rh  Rh220  1  0.60559787  0.00725320  0.41315171  1
  Rh  Rh221  1  0.58998536  0.60464046  0.00115375  1
  Rh  Rh222  1  -0.00788520  0.60681940  0.20421857  1
  Rh  Rh223  1  0.79231598  0.59402620  0.39163202  1
  Rh  Rh224  1  0.20512375  0.39761769  -0.00074759  1
  Rh  Rh225  1  0.00685725  0.40556064  0.60504848  1
  Rh  Rh226  1  0.80930432  0.79411782  0.60853315  1
  Rh  Rh227  1  0.81079780  0.40082997  0.39722595  1
  Rh  Rh228  1  0.20496721  0.20087410  0.59749433  1
  Rh  Rh229  1  0.80493348  0.00578525  0.00123962  1
  Rh  Rh230  1  -0.00501988  -0.00302290  0.00893946  1
  Rh  Rh231  1  0.00035795  0.60099778  0.79259632  1
  Rh  Rh232  1  0.61250351  0.79024641  0.80914029  1
  Rh  Rh233  1  0.80711837  0.81081838  0.39530381  1
  Rh  Rh234  1  0.40671720  -0.00083352  0.60287288  1
  Rh  Rh235  1  -0.00415215  0.00240866  0.19266300  1
  Rh  Rh236  1  0.19652633  0.19920880  0.40568666  1
  Rh  Rh237  1  0.59370135  0.40317398  0.40823638  1
  Rh  Rh238  1  0.19786819  0.79823797  0.59726280  1
  Rh  Rh239  1  0.20241208  0.39732497  0.80364298  1
  Rh  Rh240  1  0.19588793  0.19333445  0.79818556  1
  Rh  Rh241  1  -0.00349513  -0.00207442  0.40944655  1
  Rh  Rh242  1  0.40027530  0.20271537  0.00186393  1
  Rh  Rh243  1  0.39996370  0.38755782  0.80657213  1
  Rh  Rh244  1  -0.00005395  0.39324334  0.20107059  1
  Rh  Rh245  1  0.18865792  0.20097706  -0.00293312  1
  Rh  Rh246  1  0.79580873  0.19379204  0.20710691  1
  Rh  Rh247  1  0.20000220  0.80258030  0.39362424  1
  Rh  Rh248  1  0.59982735  0.39537083  0.19238348  1
  Rh  Rh249  1  0.39287421  -0.00884875  0.38983203  1
