# generated using pymatgen
data_ZrScNbPdRh
_symmetry_space_group_name_H-M   'P 1'
_cell_length_a   16.56477236
_cell_length_b   16.55554643
_cell_length_c   16.56172758
_cell_angle_alpha   89.95998025
_cell_angle_beta   89.96904246
_cell_angle_gamma   89.99570330
_symmetry_Int_Tables_number   1
_chemical_formula_structural   ZrScNbPdRh
_chemical_formula_sum   'Zr50 Sc50 Nb50 Pd50 Rh50'
_cell_volume   4541.86747110
_cell_formula_units_Z   50
loop_
 _symmetry_equiv_pos_site_id
 _symmetry_equiv_pos_as_xyz
  1  'x, y, z'
loop_
 _atom_site_type_symbol
 _atom_site_label
 _atom_site_symmetry_multiplicity
 _atom_site_fract_x
 _atom_site_fract_y
 _atom_site_fract_z
 _atom_site_occupancy
  Zr  Zr0  1  0.70070277  0.30078244  0.50032423  1
  Zr  Zr1  1  0.90216849  0.30031091  0.30930608  1
  Zr  Zr2  1  0.69708255  0.10945303  0.49176680  1
  Zr  Zr3  1  0.10041234  0.11062121  0.30389811  1
  Zr  Zr4  1  0.70573977  0.89533769  0.49373826  1
  Zr  Zr5  1  0.29205929  0.49350182  0.88521689  1
  Zr  Zr6  1  0.30774178  0.10177079  0.90233584  1
  Zr  Zr7  1  0.50049425  0.09140556  0.09853120  1
  Zr  Zr8  1  0.49821221  0.69597512  0.50387807  1
  Zr  Zr9  1  0.69820934  0.10221075  0.89119754  1
  Zr  Zr10  1  0.30296535  0.70627758  0.90398067  1
  Zr  Zr11  1  0.29569245  0.69968828  0.69787598  1
  Zr  Zr12  1  0.90187032  0.89731895  0.89582677  1
  Zr  Zr13  1  0.49555636  0.50118235  0.50159617  1
  Zr  Zr14  1  0.30423358  0.90687310  0.30378555  1
  Zr  Zr15  1  0.70455504  0.90173687  0.70579050  1
  Zr  Zr16  1  0.89640477  0.90205189  0.49064963  1
  Zr  Zr17  1  0.09841593  0.90329753  0.70863282  1
  Zr  Zr18  1  0.90680135  0.49711157  0.29945016  1
  Zr  Zr19  1  0.69039416  0.50308742  0.70348717  1
  Zr  Zr20  1  0.29752186  0.48742553  0.30799021  1
  Zr  Zr21  1  0.29740071  0.31549426  0.69553298  1
  Zr  Zr22  1  0.69614698  0.10519629  0.70340332  1
  Zr  Zr23  1  0.89523355  0.30219644  0.89958429  1
  Zr  Zr24  1  0.49960247  0.49855352  0.69473220  1
  Zr  Zr25  1  0.30001790  0.10129836  0.69328607  1
  Zr  Zr26  1  0.69977411  0.29921396  0.90282897  1
  Zr  Zr27  1  0.29689661  0.89938879  0.70190328  1
  Zr  Zr28  1  0.69644827  0.29826940  0.31369639  1
  Zr  Zr29  1  0.89814155  0.70127659  0.09150180  1
  Zr  Zr30  1  0.49392740  0.90113628  0.69761606  1
  Zr  Zr31  1  0.49167723  0.69757994  0.09119860  1
  Zr  Zr32  1  0.89198540  0.69413516  0.50670346  1
  Zr  Zr33  1  0.29119895  0.29866526  0.30206594  1
  Zr  Zr34  1  0.49996882  0.50259317  0.09781272  1
  Zr  Zr35  1  0.70623053  0.90066201  0.29415549  1
  Zr  Zr36  1  0.50336034  0.90200991  0.29280785  1
  Zr  Zr37  1  0.49982689  0.70265388  0.90616142  1
  Zr  Zr38  1  0.69949200  0.69155797  0.29850467  1
  Zr  Zr39  1  0.69934721  0.30233677  0.70510350  1
  Zr  Zr40  1  0.10626459  0.69672075  0.30287756  1
  Zr  Zr41  1  0.09714233  0.90516775  0.49626540  1
  Zr  Zr42  1  0.50322250  0.09836041  0.90500289  1
  Zr  Zr43  1  0.11659349  0.49618198  0.70383487  1
  Zr  Zr44  1  0.71050285  0.69570945  0.70063316  1
  Zr  Zr45  1  0.89897414  0.69546981  0.89557433  1
  Zr  Zr46  1  0.89840062  0.10398618  0.90604526  1
  Zr  Zr47  1  0.50485585  0.89917785  0.09042246  1
  Zr  Zr48  1  0.08930187  0.30859464  0.89527325  1
  Zr  Zr49  1  0.30549707  0.49956567  0.10630437  1
  Sc  Sc50  1  0.50337786  0.30003791  0.69483784  1
  Sc  Sc51  1  0.49005563  0.89520567  0.49427040  1
  Sc  Sc52  1  0.09349964  0.09693583  0.10646979  1
  Sc  Sc53  1  0.31329299  0.30009681  0.90013427  1
  Sc  Sc54  1  0.50459028  0.68891898  0.69589422  1
  Sc  Sc55  1  0.90058977  0.10347015  0.71109522  1
  Sc  Sc56  1  0.89832176  0.09464380  0.29839076  1
  Sc  Sc57  1  0.30039335  0.69723761  0.49743961  1
  Sc  Sc58  1  0.09556888  0.29895056  0.11185033  1
  Sc  Sc59  1  0.30095585  0.90829057  0.10956702  1
  Sc  Sc60  1  0.10295722  0.49674173  0.49737617  1
  Sc  Sc61  1  0.50206366  0.10585912  0.70315014  1
  Sc  Sc62  1  0.69692917  0.89535362  0.10121585  1
  Sc  Sc63  1  0.49257608  0.10200385  0.30140060  1
  Sc  Sc64  1  0.49051390  0.30351723  0.30764531  1
  Sc  Sc65  1  0.69826750  0.49941794  0.49644835  1
  Sc  Sc66  1  0.89391194  0.68914694  0.29468635  1
  Sc  Sc67  1  0.70497602  0.69901762  0.90156764  1
  Sc  Sc68  1  0.10027896  0.10280124  0.69531580  1
  Sc  Sc69  1  0.08754391  0.09508642  0.89612979  1
  Sc  Sc70  1  0.90714547  0.30573196  0.69738708  1
  Sc  Sc71  1  0.30553841  0.10716377  0.29886668  1
  Sc  Sc72  1  0.50036085  0.69489866  0.30798345  1
  Sc  Sc73  1  0.49282313  0.11129373  0.49950508  1
  Sc  Sc74  1  0.70093830  0.69208637  0.49514007  1
  Sc  Sc75  1  0.09495903  0.90004494  0.89752671  1
  Sc  Sc76  1  0.69993900  0.09120820  0.10438725  1
  Sc  Sc77  1  0.89831993  0.29993339  0.09597033  1
  Sc  Sc78  1  0.70307891  0.69537847  0.09793017  1
  Sc  Sc79  1  0.70754521  0.09938968  0.29577862  1
  Sc  Sc80  1  0.09297238  0.69923530  0.89788215  1
  Sc  Sc81  1  0.90165255  0.09955466  0.10491820  1
  Sc  Sc82  1  0.89839547  0.50368219  0.09932302  1
  Sc  Sc83  1  0.09430339  0.69160532  0.70551964  1
  Sc  Sc84  1  0.11219330  0.90545092  0.29351939  1
  Sc  Sc85  1  0.30715100  0.90138798  0.50625309  1
  Sc  Sc86  1  0.90020573  0.49717356  0.50063355  1
  Sc  Sc87  1  0.49810275  0.49935313  0.30566698  1
  Sc  Sc88  1  0.29564872  0.29947408  0.50001891  1
  Sc  Sc89  1  0.90228489  0.90187766  0.09841140  1
  Sc  Sc90  1  0.30539667  0.30264941  0.10351975  1
  Sc  Sc91  1  0.69690826  0.89976470  0.90289202  1
  Sc  Sc92  1  0.69991919  0.49532545  0.89772990  1
  Sc  Sc93  1  0.49594476  0.30319743  0.08688453  1
  Sc  Sc94  1  0.30833714  0.10136033  0.10338081  1
  Sc  Sc95  1  0.91058808  0.10185254  0.48572862  1
  Sc  Sc96  1  0.10338965  0.69141255  0.49856494  1
  Sc  Sc97  1  0.30711851  0.89838598  0.89297550  1
  Sc  Sc98  1  0.89871946  0.50848696  0.69725169  1
  Sc  Sc99  1  0.08609599  0.49545887  0.10519255  1
  Nb  Nb100  1  0.09190266  0.28713355  0.50414233  1
  Nb  Nb101  1  0.10004519  0.31347400  0.30939120  1
  Nb  Nb102  1  0.10194668  0.29531038  0.69094826  1
  Nb  Nb103  1  0.69791728  0.30663715  0.10195196  1
  Nb  Nb104  1  0.50417593  0.50051424  0.89317952  1
  Nb  Nb105  1  0.09679786  0.50014575  0.90145134  1
  Nb  Nb106  1  0.50268760  0.89829622  0.90346554  1
  Nb  Nb107  1  0.10181575  0.10721373  0.50264115  1
  Nb  Nb108  1  0.90388891  0.29772635  0.50382601  1
  Nb  Nb109  1  0.92043522  0.49449691  0.90461592  1
  Nb  Nb110  1  0.29738864  0.49542898  0.51821162  1
  Nb  Nb111  1  0.30212592  0.49931922  0.69043649  1
  Nb  Nb112  1  0.90208855  0.90083417  0.30298474  1
  Nb  Nb113  1  0.89456510  0.70342430  0.69864026  1
  Nb  Nb114  1  0.70131988  0.50257298  0.29727543  1
  Nb  Nb115  1  0.29274475  0.70415948  0.29474962  1
  Nb  Nb116  1  0.29454114  0.10446643  0.49775302  1
  Nb  Nb117  1  0.69826579  0.49823684  0.10727284  1
  Nb  Nb118  1  0.29891784  0.69723855  0.10090601  1
  Nb  Nb119  1  0.51234447  0.29764980  0.49327182  1
  Nb  Nb120  1  0.10609909  0.70579150  0.10551982  1
  Nb  Nb121  1  0.10569320  0.90351356  0.10108421  1
  Nb  Nb122  1  0.89603674  0.89322260  0.69532390  1
  Nb  Nb123  1  0.50408393  0.29930644  0.90079396  1
  Nb  Nb124  1  0.09716961  0.49026960  0.30132355  1
  Nb  Nb125  1  0.60179566  0.20973108  0.19711194  1
  Nb  Nb126  1  0.80128271  0.00518287  0.59801320  1
  Nb  Nb127  1  0.19722338  0.59889166  0.00600214  1
  Nb  Nb128  1  0.80474466  0.20001421  0.59658891  1
  Nb  Nb129  1  0.00518779  0.80018750  0.20214979  1
  Nb  Nb130  1  0.19775530  0.00014816  0.00174369  1
  Nb  Nb131  1  0.79151510  0.40100175  0.20224279  1
  Nb  Nb132  1  0.39528461  0.79276852  0.19850121  1
  Nb  Nb133  1  0.20221230  0.01100634  0.40604522  1
  Nb  Nb134  1  0.20017164  0.20538072  0.80062276  1
  Nb  Nb135  1  0.60421720  0.39937716  0.19965301  1
  Nb  Nb136  1  0.80229522  0.00084269  -0.00445743  1
  Nb  Nb137  1  0.39858167  0.59360320  0.79866109  1
  Nb  Nb138  1  0.19956221  0.59832279  0.20161462  1
  Nb  Nb139  1  0.19978098  0.80110524  0.00805947  1
  Nb  Nb140  1  0.19198676  0.80285049  0.60362548  1
  Nb  Nb141  1  0.60392317  -0.00230640  0.59381985  1
  Nb  Nb142  1  0.19761729  0.20115494  -0.00550821  1
  Nb  Nb143  1  0.59732061  0.80048445  0.79736026  1
  Nb  Nb144  1  0.19497943  0.40171688  -0.00284960  1
  Nb  Nb145  1  0.60442872  0.80326824  0.60219956  1
  Nb  Nb146  1  -0.00189754  0.79975225  0.39479261  1
  Nb  Nb147  1  -0.00354533  0.80083414  0.59862902  1
  Nb  Nb148  1  -0.00668328  -0.00340334  0.60083692  1
  Nb  Nb149  1  0.59948997  -0.00131351  0.40138319  1
  Pd  Pd150  1  0.38860331  0.59727895  0.40025200  1
  Pd  Pd151  1  0.39658384  0.60188791  0.21293833  1
  Pd  Pd152  1  -0.00304451  0.60179585  0.40139396  1
  Pd  Pd153  1  0.80784670  0.80033670  0.19803589  1
  Pd  Pd154  1  0.41000336  0.20928446  0.19602030  1
  Pd  Pd155  1  0.59894165  0.40482531  -0.00045455  1
  Pd  Pd156  1  0.80595646  -0.00029048  0.80155292  1
  Pd  Pd157  1  0.40965636  0.78974647  0.79174472  1
  Pd  Pd158  1  0.80308889  0.40791440  0.00427981  1
  Pd  Pd159  1  0.80185028  0.40611573  0.39980606  1
  Pd  Pd160  1  0.00336074  0.20147938  0.79523097  1
  Pd  Pd161  1  0.79927671  0.58830048  -0.00531379  1
  Pd  Pd162  1  0.20646725  0.58975913  0.39873654  1
  Pd  Pd163  1  0.39101482  0.58722371  -0.01201178  1
  Pd  Pd164  1  0.59860226  0.80175893  0.40355779  1
  Pd  Pd165  1  0.59189387  0.78643250  0.19465837  1
  Pd  Pd166  1  0.59378975  0.60035089  0.20052379  1
  Pd  Pd167  1  0.79650419  0.20636192  0.19848860  1
  Pd  Pd168  1  0.19543209  0.40383424  0.19196704  1
  Pd  Pd169  1  0.20098563  0.19742238  0.19083586  1
  Pd  Pd170  1  0.39561480  0.40634925  -0.00505936  1
  Pd  Pd171  1  0.60561351  0.19565251  0.00727212  1
  Pd  Pd172  1  0.00049593  -0.00549478  0.20566892  1
  Pd  Pd173  1  -0.00173309  0.79514101  0.79443905  1
  Pd  Pd174  1  0.00470072  0.59866041  0.60286156  1
  Pd  Pd175  1  0.00729782  0.60302557  0.00371361  1
  Pd  Pd176  1  0.80497727  0.78848872  0.39109679  1
  Pd  Pd177  1  0.19392282  -0.00232578  0.59609529  1
  Pd  Pd178  1  0.79238998  0.19215733  0.00965163  1
  Pd  Pd179  1  0.00669794  0.20149425  0.00572674  1
  Pd  Pd180  1  0.40533320  0.00381297  0.80056480  1
  Pd  Pd181  1  0.39694047  0.39593024  0.41071199  1
  Pd  Pd182  1  0.00635281  0.80359861  0.00577769  1
  Pd  Pd183  1  0.80625079  0.40708349  0.79875515  1
  Pd  Pd184  1  -0.00370522  0.20590133  0.20712592  1
  Pd  Pd185  1  0.60868036  0.59708561  -0.00414361  1
  Pd  Pd186  1  0.00632704  0.40783637  0.60104049  1
  Pd  Pd187  1  0.20032108  0.80809650  0.40854714  1
  Pd  Pd188  1  -0.00040156  0.40774109  0.78563718  1
  Pd  Pd189  1  0.80631918  0.58900871  0.80728776  1
  Pd  Pd190  1  0.00450525  0.60575379  0.19875004  1
  Pd  Pd191  1  0.39687418  0.79556527  0.39377527  1
  Pd  Pd192  1  0.40992673  0.40040606  0.79753955  1
  Pd  Pd193  1  0.79933645  0.39936174  0.60207671  1
  Pd  Pd194  1  0.39859873  0.20863548  0.59739860  1
  Pd  Pd195  1  0.20018217  0.00962528  0.80928709  1
  Pd  Pd196  1  0.59952031  0.40028165  0.59568172  1
  Pd  Pd197  1  0.20187566  0.60824046  0.80630223  1
  Pd  Pd198  1  0.40732956  0.00668466  0.59395374  1
  Pd  Pd199  1  0.39967126  0.20467657  0.79479181  1
  Rh  Rh200  1  -0.00825063  0.19076505  0.60175243  1
  Rh  Rh201  1  0.79535266  0.59174991  0.59999962  1
  Rh  Rh202  1  0.79637307  0.79803542  0.80622135  1
  Rh  Rh203  1  0.39888668  0.20014387  0.00243183  1
  Rh  Rh204  1  0.79939855  0.80752779  -0.00130528  1
  Rh  Rh205  1  0.39855118  0.79216000  0.60232844  1
  Rh  Rh206  1  0.59614366  0.40686645  0.39766815  1
  Rh  Rh207  1  0.59330035  0.20716528  0.80270075  1
  Rh  Rh208  1  0.20493689  0.20354944  0.60538934  1
  Rh  Rh209  1  0.19795768  0.20163866  0.40185395  1
  Rh  Rh210  1  0.39603625  0.20554514  0.40474134  1
  Rh  Rh211  1  0.00154030  0.39566360  0.00759875  1
  Rh  Rh212  1  0.80075683  0.59381236  0.19589939  1
  Rh  Rh213  1  0.80422979  -0.00709282  0.19218772  1
  Rh  Rh214  1  0.79348398  0.00584306  0.39804439  1
  Rh  Rh215  1  0.58954302  -0.00809871  0.79873231  1
  Rh  Rh216  1  0.60693364  0.60363630  0.59456075  1
  Rh  Rh217  1  -0.00503915  0.59529787  0.79728116  1
  Rh  Rh218  1  0.00083922  0.20326832  0.39488594  1
  Rh  Rh219  1  0.60511817  0.19898680  0.60081503  1
  Rh  Rh220  1  0.39406506  -0.00532070  -0.00202062  1
  Rh  Rh221  1  0.60007586  0.59543137  0.40025232  1
  Rh  Rh222  1  0.79804092  0.80086677  0.59820367  1
  Rh  Rh223  1  0.38975031  0.81323338  0.01035970  1
  Rh  Rh224  1  0.19583986  0.39702230  0.41152212  1
  Rh  Rh225  1  0.41168704  0.39793584  0.20135870  1
  Rh  Rh226  1  0.59851377  0.01126415  0.21018281  1
  Rh  Rh227  1  0.39788784  0.00713158  0.40471422  1
  Rh  Rh228  1  0.20259940  0.01337073  0.20214562  1
  Rh  Rh229  1  -0.01071898  0.39379751  0.20030956  1
  Rh  Rh230  1  0.80190545  0.59362087  0.39977751  1
  Rh  Rh231  1  0.81017453  0.19807932  0.40483695  1
  Rh  Rh232  1  0.40861689  0.39171318  0.59117005  1
  Rh  Rh233  1  0.40391722  -0.00514952  0.19999179  1
  Rh  Rh234  1  0.19870665  0.60488582  0.59795906  1
  Rh  Rh235  1  -0.00639228  0.00024777  0.79373236  1
  Rh  Rh236  1  0.59608397  0.39419194  0.80376797  1
  Rh  Rh237  1  0.00433842  0.39656073  0.41216630  1
  Rh  Rh238  1  0.39469121  0.60230491  0.60349620  1
  Rh  Rh239  1  0.19530359  0.38958064  0.80297598  1
  Rh  Rh240  1  -0.00203200  -0.00170369  0.00101311  1
  Rh  Rh241  1  0.18974729  0.39416738  0.59225800  1
  Rh  Rh242  1  0.60653440  0.79580904  -0.00474116  1
  Rh  Rh243  1  0.59099526  0.19176456  0.38784832  1
  Rh  Rh244  1  0.59372362  0.60637636  0.80714134  1
  Rh  Rh245  1  0.61020809  0.00223176  -0.00482192  1
  Rh  Rh246  1  0.19466730  0.79787108  0.80268560  1
  Rh  Rh247  1  0.80618000  0.21238653  0.79306621  1
  Rh  Rh248  1  0.20436198  0.79965730  0.19603901  1
  Rh  Rh249  1  0.01187077  -0.00019529  0.39453065  1
