# generated using pymatgen
data_ZrScNbPdRh
_symmetry_space_group_name_H-M   'P 1'
_cell_length_a   16.54939098
_cell_length_b   16.55137898
_cell_length_c   16.55313905
_cell_angle_alpha   89.98887629
_cell_angle_beta   89.98297257
_cell_angle_gamma   89.99740094
_symmetry_Int_Tables_number   1
_chemical_formula_structural   ZrScNbPdRh
_chemical_formula_sum   'Zr50 Sc50 Nb50 Pd50 Rh50'
_cell_volume   4534.15679818
_cell_formula_units_Z   50
loop_
 _symmetry_equiv_pos_site_id
 _symmetry_equiv_pos_as_xyz
  1  'x, y, z'
loop_
 _atom_site_type_symbol
 _atom_site_label
 _atom_site_symmetry_multiplicity
 _atom_site_fract_x
 _atom_site_fract_y
 _atom_site_fract_z
 _atom_site_occupancy
  Zr  Zr0  1  0.89434697  0.90157835  0.90171465  1
  Zr  Zr1  1  0.30146443  0.29315298  0.30061926  1
  Zr  Zr2  1  0.50577004  0.29802904  0.10069646  1
  Zr  Zr3  1  0.70368231  0.70015511  0.29823222  1
  Zr  Zr4  1  0.30545525  0.10689539  0.89678260  1
  Zr  Zr5  1  0.89646471  0.49909417  0.09975198  1
  Zr  Zr6  1  0.30358372  0.70099811  0.49120877  1
  Zr  Zr7  1  0.09830670  0.69449245  0.50732745  1
  Zr  Zr8  1  0.30172748  0.69265248  0.70813590  1
  Zr  Zr9  1  0.29669154  0.88911755  0.30483124  1
  Zr  Zr10  1  0.28457722  0.10153314  0.10311982  1
  Zr  Zr11  1  0.90004091  0.90402316  0.09971948  1
  Zr  Zr12  1  0.49997095  0.89741592  0.70947063  1
  Zr  Zr13  1  0.70325835  0.91721378  0.30032341  1
  Zr  Zr14  1  0.29669192  0.10345220  0.49938816  1
  Zr  Zr15  1  0.09885478  0.91438761  0.69720365  1
  Zr  Zr16  1  0.49782926  0.70543886  0.09717128  1
  Zr  Zr17  1  0.11047631  0.69419324  0.09012283  1
  Zr  Zr18  1  0.91249909  0.10327501  0.70566473  1
  Zr  Zr19  1  0.50331116  0.10960590  0.50369305  1
  Zr  Zr20  1  0.90674517  0.49351457  0.89763413  1
  Zr  Zr21  1  0.28906264  0.09976264  0.69918135  1
  Zr  Zr22  1  0.50575922  0.69520841  0.50134566  1
  Zr  Zr23  1  0.29963718  0.29925035  0.09171614  1
  Zr  Zr24  1  0.90587187  0.29937647  0.88846757  1
  Zr  Zr25  1  0.29918255  0.29783271  0.49957033  1
  Zr  Zr26  1  0.69224321  0.50444916  0.09612742  1
  Zr  Zr27  1  0.49662325  0.49822177  0.70662319  1
  Zr  Zr28  1  0.51552481  0.10324206  0.30031544  1
  Zr  Zr29  1  0.29186454  0.50801147  0.10078266  1
  Zr  Zr30  1  0.10419926  0.70488319  0.29626863  1
  Zr  Zr31  1  0.10068365  0.28834836  0.09786241  1
  Zr  Zr32  1  0.70386041  0.90486241  0.71119151  1
  Zr  Zr33  1  0.09927631  0.49433653  0.08958320  1
  Zr  Zr34  1  0.10433918  0.50969437  0.69579248  1
  Zr  Zr35  1  0.09989053  0.10173762  0.69659875  1
  Zr  Zr36  1  0.30110444  0.10338988  0.30054024  1
  Zr  Zr37  1  0.09095954  0.90080367  0.30267880  1
  Zr  Zr38  1  0.89969015  0.48650205  0.70263608  1
  Zr  Zr39  1  0.90238489  0.70716186  0.30182950  1
  Zr  Zr40  1  0.69614730  0.69971110  0.90210891  1
  Zr  Zr41  1  0.70277730  0.10413364  0.10502139  1
  Zr  Zr42  1  0.70327530  0.10179656  0.49185215  1
  Zr  Zr43  1  0.69460091  0.70048085  0.09921768  1
  Zr  Zr44  1  0.89054727  0.70417648  0.49781103  1
  Zr  Zr45  1  0.48171189  0.30243802  0.90858753  1
  Zr  Zr46  1  0.90323674  0.30009290  0.50360339  1
  Zr  Zr47  1  0.70437115  0.69636886  0.49876602  1
  Zr  Zr48  1  0.49782094  0.49884330  0.09536889  1
  Zr  Zr49  1  0.49685271  0.29789085  0.29690361  1
  Sc  Sc50  1  0.89976783  0.68796615  0.69937859  1
  Sc  Sc51  1  0.49720050  0.50372070  0.28790961  1
  Sc  Sc52  1  0.29748978  0.49175671  0.89314401  1
  Sc  Sc53  1  0.10172092  0.30187192  0.49939760  1
  Sc  Sc54  1  0.29299964  0.30353216  0.70107738  1
  Sc  Sc55  1  0.50170539  0.69114014  0.70657726  1
  Sc  Sc56  1  0.49750821  0.49298411  0.50927440  1
  Sc  Sc57  1  0.89889156  0.70686737  0.09938222  1
  Sc  Sc58  1  0.30571276  0.90075673  0.90333453  1
  Sc  Sc59  1  0.29941169  0.49447676  0.50804550  1
  Sc  Sc60  1  0.69964373  0.49488608  0.69672555  1
  Sc  Sc61  1  0.89895636  0.49133838  0.50158716  1
  Sc  Sc62  1  0.09682697  0.91100226  0.49463838  1
  Sc  Sc63  1  0.71201333  0.49802197  0.28591291  1
  Sc  Sc64  1  0.50053523  0.30126345  0.68840877  1
  Sc  Sc65  1  0.70548779  0.88558407  0.49887833  1
  Sc  Sc66  1  0.09650533  0.09685913  0.29668691  1
  Sc  Sc67  1  0.70060432  0.69452381  0.69415533  1
  Sc  Sc68  1  0.70743233  0.49630757  0.50642188  1
  Sc  Sc69  1  0.10427305  0.49225844  0.30484692  1
  Sc  Sc70  1  0.09563382  0.91263363  0.09989874  1
  Sc  Sc71  1  0.49800708  0.10123398  0.70440681  1
  Sc  Sc72  1  0.51013942  0.88951714  0.49333677  1
  Sc  Sc73  1  0.90863886  0.29307791  0.08868898  1
  Sc  Sc74  1  0.29858325  0.49490297  0.70259961  1
  Sc  Sc75  1  0.49509569  0.50101834  0.89844201  1
  Sc  Sc76  1  0.69682855  0.09818153  0.71187734  1
  Sc  Sc77  1  0.90337852  0.90458849  0.30022422  1
  Sc  Sc78  1  0.90488858  0.10070098  0.49325397  1
  Sc  Sc79  1  0.90043566  0.10509824  0.89918989  1
  Sc  Sc80  1  0.49040501  0.70076971  0.29739334  1
  Sc  Sc81  1  0.69451755  0.30275948  0.50959428  1
  Sc  Sc82  1  0.70490156  0.09119278  0.90271081  1
  Sc  Sc83  1  0.09496316  0.90295852  0.91132966  1
  Sc  Sc84  1  0.89504844  0.29694874  0.30978950  1
  Sc  Sc85  1  0.71132414  0.29144961  0.90061588  1
  Sc  Sc86  1  0.90428337  0.70071634  0.90496794  1
  Sc  Sc87  1  0.90175564  0.90793419  0.70646658  1
  Sc  Sc88  1  0.49685582  0.90402056  0.91063202  1
  Sc  Sc89  1  0.29992755  0.89795358  0.09406220  1
  Sc  Sc90  1  0.10030945  0.50192714  0.89379791  1
  Sc  Sc91  1  0.49658298  0.30041408  0.50172200  1
  Sc  Sc92  1  0.29980696  0.90706972  0.70751010  1
  Sc  Sc93  1  0.49104890  0.70553360  0.89498943  1
  Sc  Sc94  1  0.09933884  0.10074442  0.89708750  1
  Sc  Sc95  1  0.09739959  0.10228389  0.50353215  1
  Sc  Sc96  1  0.30592130  0.50225051  0.29568596  1
  Sc  Sc97  1  0.90538664  0.10046919  0.10309490  1
  Sc  Sc98  1  0.09782645  0.29849255  0.69911460  1
  Sc  Sc99  1  0.09904933  0.29466818  0.30986894  1
  Nb  Nb100  1  0.29486193  0.69724716  0.10394017  1
  Nb  Nb101  1  0.10137825  0.69704446  0.89402891  1
  Nb  Nb102  1  0.90665443  0.49733130  0.29977745  1
  Nb  Nb103  1  0.10132803  0.69618292  0.70040476  1
  Nb  Nb104  1  0.70398566  0.90033549  0.89849462  1
  Nb  Nb105  1  0.50179272  0.90287958  0.09946282  1
  Nb  Nb106  1  0.70063473  0.30546238  0.10276801  1
  Nb  Nb107  1  0.29432130  0.69581691  0.28998840  1
  Nb  Nb108  1  0.69822253  0.90164603  0.08856701  1
  Nb  Nb109  1  0.69798994  0.50072463  0.89965877  1
  Nb  Nb110  1  0.90327109  0.89871493  0.49905289  1
  Nb  Nb111  1  0.50350803  0.10568373  0.90098851  1
  Nb  Nb112  1  0.10226566  0.50069006  0.49844913  1
  Nb  Nb113  1  0.87741341  0.09580982  0.30298214  1
  Nb  Nb114  1  0.89376085  0.29717410  0.70454159  1
  Nb  Nb115  1  0.69723144  0.29179345  0.29049889  1
  Nb  Nb116  1  0.30166809  0.90028113  0.50236348  1
  Nb  Nb117  1  0.29505659  0.30585217  0.89753970  1
  Nb  Nb118  1  0.71289272  0.10872959  0.30083802  1
  Nb  Nb119  1  0.09789032  0.10158022  0.10196397  1
  Nb  Nb120  1  0.29516605  0.70315011  0.90593739  1
  Nb  Nb121  1  0.09877142  0.31166103  0.90447908  1
  Nb  Nb122  1  0.70204751  0.29871843  0.70383353  1
  Nb  Nb123  1  0.50006474  0.90499175  0.29487599  1
  Nb  Nb124  1  0.50538002  0.09638757  0.09346776  1
  Nb  Nb125  1  0.60281339  0.39256233  0.80293908  1
  Nb  Nb126  1  0.00385515  0.80051670  0.60473339  1
  Nb  Nb127  1  0.19907468  0.60140249  0.40043984  1
  Nb  Nb128  1  0.79779759  0.59183945  0.80600063  1
  Nb  Nb129  1  0.79568364  0.40118107  -0.00002461  1
  Nb  Nb130  1  0.20045885  0.80117464  0.60470329  1
  Nb  Nb131  1  0.00229832  0.59507781  0.20322899  1
  Nb  Nb132  1  0.80196422  0.19827266  0.60737615  1
  Nb  Nb133  1  0.79945914  0.00364843  0.59902121  1
  Nb  Nb134  1  0.19425987  0.79623477  0.79981724  1
  Nb  Nb135  1  0.60184399  -0.00151810  0.60028029  1
  Nb  Nb136  1  0.60651563  0.80478446  0.80658774  1
  Nb  Nb137  1  0.00195797  0.59663070  0.39882475  1
  Nb  Nb138  1  0.00123010  0.39979805  0.20148491  1
  Nb  Nb139  1  0.40695271  -0.00118941  0.20026626  1
  Nb  Nb140  1  0.59438149  0.20494620  0.80726213  1
  Nb  Nb141  1  0.40371532  -0.00508403  0.59254835  1
  Nb  Nb142  1  0.60347802  0.40219388  0.39152502  1
  Nb  Nb143  1  0.60362855  0.59412452  0.39844557  1
  Nb  Nb144  1  0.40412180  -0.00337814  0.39858779  1
  Nb  Nb145  1  0.59858934  0.81345251  0.19630141  1
  Nb  Nb146  1  0.39573007  0.80190176  0.59976597  1
  Nb  Nb147  1  0.00850453  0.79574077  0.79608834  1
  Nb  Nb148  1  0.38899177  0.60680349  0.00223710  1
  Nb  Nb149  1  0.19634093  0.39419221  0.19669848  1
  Pd  Pd150  1  0.39660883  0.60197433  0.60067605  1
  Pd  Pd151  1  0.19871914  -0.00698094  0.81369309  1
  Pd  Pd152  1  0.81022441  0.38873641  0.19416140  1
  Pd  Pd153  1  0.60567800  0.20405667  -0.00533468  1
  Pd  Pd154  1  -0.01114996  0.59821298  0.59369444  1
  Pd  Pd155  1  0.79277378  0.81085118  0.20065992  1
  Pd  Pd156  1  0.40295854  0.00409934  0.79971456  1
  Pd  Pd157  1  0.80317085  0.59775974  -0.00438516  1
  Pd  Pd158  1  0.19356447  0.20880843  0.80561906  1
  Pd  Pd159  1  0.60589643  0.39089388  -0.01011859  1
  Pd  Pd160  1  0.60347998  0.00291870  0.19494936  1
  Pd  Pd161  1  -0.00158322  0.19310952  0.39523538  1
  Pd  Pd162  1  -0.00411507  0.00959906  -0.00197397  1
  Pd  Pd163  1  0.20123429  0.00360644  0.39979679  1
  Pd  Pd164  1  0.20762750  0.40418659  0.39632454  1
  Pd  Pd165  1  0.39519769  0.00933567  0.00643911  1
  Pd  Pd166  1  0.58512602  0.60413801  -0.00948777  1
  Pd  Pd167  1  -0.00201493  0.60376702  0.00247197  1
  Pd  Pd168  1  0.60298534  0.59001918  0.59648743  1
  Pd  Pd169  1  0.59908937  -0.00173250  0.40790548  1
  Pd  Pd170  1  0.80138009  0.58911238  0.39812742  1
  Pd  Pd171  1  0.80843294  0.60440996  0.19779956  1
  Pd  Pd172  1  0.00856520  0.79653989  0.18710239  1
  Pd  Pd173  1  0.40249440  0.20738624  0.79123119  1
  Pd  Pd174  1  0.60576464  0.21369750  0.40223993  1
  Pd  Pd175  1  0.80999767  0.80778541  0.61155234  1
  Pd  Pd176  1  -0.00715478  0.19942679  0.21086634  1
  Pd  Pd177  1  0.19690496  0.80646707  -0.00222571  1
  Pd  Pd178  1  0.79156164  0.39607702  0.39858979  1
  Pd  Pd179  1  0.40626750  0.40591605  0.40000857  1
  Pd  Pd180  1  0.80409509  0.78656741  0.79600208  1
  Pd  Pd181  1  0.39217095  0.39877023  0.19391052  1
  Pd  Pd182  1  0.40187544  0.59128395  0.39923843  1
  Pd  Pd183  1  0.39772256  0.19094582  0.00906734  1
  Pd  Pd184  1  0.80026294  0.79945943  0.00053632  1
  Pd  Pd185  1  0.59649560  0.80242104  0.61163188  1
  Pd  Pd186  1  0.80226476  0.20088461  0.00298691  1
  Pd  Pd187  1  0.00693841  0.39664965  0.60295431  1
  Pd  Pd188  1  0.60401083  0.00097537  -0.00553570  1
  Pd  Pd189  1  0.20238094  -0.00744696  0.20303512  1
  Pd  Pd190  1  0.39337837  0.19844276  0.60829399  1
  Pd  Pd191  1  0.81016702  0.20987367  0.19342713  1
  Pd  Pd192  1  0.40009118  0.80497384  0.19542629  1
  Pd  Pd193  1  0.40527199  0.19006534  0.19096275  1
  Pd  Pd194  1  0.19421392  0.81062514  0.18994664  1
  Pd  Pd195  1  0.19489794  0.19786552  -0.01231806  1
  Pd  Pd196  1  0.60085636  0.40247646  0.20501978  1
  Pd  Pd197  1  0.40584813  0.80145622  0.40021109  1
  Pd  Pd198  1  0.60022051  0.79247295  0.38697584  1
  Pd  Pd199  1  0.19152449  0.79802819  0.40859622  1
  Rh  Rh200  1  0.80019796  -0.00109665  0.19157050  1
  Rh  Rh201  1  0.59877937  0.80536307  -0.00344899  1
  Rh  Rh202  1  0.80818912  0.00750225  0.80123646  1
  Rh  Rh203  1  0.79539289  0.21227529  0.40888158  1
  Rh  Rh204  1  0.20541966  0.59536265  -0.01329928  1
  Rh  Rh205  1  0.19297768  0.39937695  0.79723129  1
  Rh  Rh206  1  0.20249528  0.39959597  -0.00143408  1
  Rh  Rh207  1  0.40369042  0.39407994  0.79531959  1
  Rh  Rh208  1  0.39472875  0.39482903  0.60342919  1
  Rh  Rh209  1  -0.00704951  0.00889260  0.20538102  1
  Rh  Rh210  1  0.59924686  0.40149540  0.60351509  1
  Rh  Rh211  1  0.39557929  0.79582809  0.00436560  1
  Rh  Rh212  1  0.79149958  0.40427806  0.80733113  1
  Rh  Rh213  1  -0.00101033  0.40365666  0.40029062  1
  Rh  Rh214  1  0.59232885  0.00028566  0.80649171  1
  Rh  Rh215  1  0.20205262  0.00639505  -0.00221883  1
  Rh  Rh216  1  0.80188847  0.00287165  0.00306310  1
  Rh  Rh217  1  -0.00412017  0.20420966  0.60120926  1
  Rh  Rh218  1  0.61135114  0.19157157  0.61223584  1
  Rh  Rh219  1  0.79505818  0.19335380  0.79564058  1
  Rh  Rh220  1  -0.00607602  0.00647241  0.39504230  1
  Rh  Rh221  1  0.19263978  0.59093852  0.21049615  1
  Rh  Rh222  1  0.19623779  0.20464152  0.59775416  1
  Rh  Rh223  1  0.19472497  0.19543249  0.40124259  1
  Rh  Rh224  1  0.40173515  0.60522649  0.19094383  1
  Rh  Rh225  1  0.20451791  0.59998801  0.80392708  1
  Rh  Rh226  1  0.19624342  0.40056387  0.60139015  1
  Rh  Rh227  1  0.60246210  0.19758589  0.19527195  1
  Rh  Rh228  1  0.59781495  0.61004241  0.20695460  1
  Rh  Rh229  1  -0.00122243  -0.00557834  0.81023120  1
  Rh  Rh230  1  0.60566876  0.59916900  0.80156381  1
  Rh  Rh231  1  0.39015575  0.41096991  0.00328794  1
  Rh  Rh232  1  0.20607553  -0.00059096  0.59391377  1
  Rh  Rh233  1  -0.00783602  0.60278972  0.80106003  1
  Rh  Rh234  1  0.80333097  -0.00702695  0.41044467  1
  Rh  Rh235  1  0.00660245  0.19548086  -0.00776460  1
  Rh  Rh236  1  0.00065677  0.79717064  0.41144907  1
  Rh  Rh237  1  -0.00965942  -0.00195018  0.59270452  1
  Rh  Rh238  1  0.00506645  0.79682263  -0.00217521  1
  Rh  Rh239  1  0.20911648  0.60054984  0.59425958  1
  Rh  Rh240  1  -0.00433444  0.39630093  0.00165951  1
  Rh  Rh241  1  0.19379646  0.20437743  0.20685674  1
  Rh  Rh242  1  0.80127001  0.80892724  0.39066691  1
  Rh  Rh243  1  0.39726468  0.79831340  0.79824384  1
  Rh  Rh244  1  0.39325666  0.59798716  0.81136765  1
  Rh  Rh245  1  0.01098016  0.39884131  0.79212187  1
  Rh  Rh246  1  0.80020467  0.39002076  0.60187418  1
  Rh  Rh247  1  0.80325292  0.59123346  0.60759688  1
  Rh  Rh248  1  0.00920000  0.20564953  0.80276689  1
  Rh  Rh249  1  0.40436345  0.19550301  0.39899419  1
