# generated using pymatgen
data_ZrScNbPdRh
_symmetry_space_group_name_H-M   'P 1'
_cell_length_a   16.56030438
_cell_length_b   16.56181190
_cell_length_c   16.56161348
_cell_angle_alpha   89.98063402
_cell_angle_beta   89.97817081
_cell_angle_gamma   89.93337896
_symmetry_Int_Tables_number   1
_chemical_formula_structural   ZrScNbPdRh
_chemical_formula_sum   'Zr50 Sc50 Nb50 Pd50 Rh50'
_cell_volume   4542.32764837
_cell_formula_units_Z   50
loop_
 _symmetry_equiv_pos_site_id
 _symmetry_equiv_pos_as_xyz
  1  'x, y, z'
loop_
 _atom_site_type_symbol
 _atom_site_label
 _atom_site_symmetry_multiplicity
 _atom_site_fract_x
 _atom_site_fract_y
 _atom_site_fract_z
 _atom_site_occupancy
  Zr  Zr0  1  0.10621847  0.29931411  0.08862553  1
  Zr  Zr1  1  0.90625430  0.29827782  0.89951539  1
  Zr  Zr2  1  0.89721837  0.10012811  0.90426470  1
  Zr  Zr3  1  0.49579045  0.70442680  0.50749667  1
  Zr  Zr4  1  0.89924696  0.90164606  0.30087186  1
  Zr  Zr5  1  0.50155929  0.10162150  0.51203508  1
  Zr  Zr6  1  0.29937189  0.50110843  0.49624946  1
  Zr  Zr7  1  0.70126984  0.49790622  0.50157180  1
  Zr  Zr8  1  0.50197081  0.30773807  0.49793363  1
  Zr  Zr9  1  0.89801623  0.10216255  0.49762701  1
  Zr  Zr10  1  0.29698678  0.70446782  0.91535841  1
  Zr  Zr11  1  0.70531917  0.50429987  0.09622952  1
  Zr  Zr12  1  0.09502332  0.69460492  0.68856077  1
  Zr  Zr13  1  0.50103858  0.90062890  0.50245282  1
  Zr  Zr14  1  0.49831467  0.70145989  0.69603310  1
  Zr  Zr15  1  0.70257541  0.09693907  0.50412068  1
  Zr  Zr16  1  0.90058628  0.48637765  0.50649403  1
  Zr  Zr17  1  0.90567837  0.51230815  0.70083145  1
  Zr  Zr18  1  0.29192138  0.29644563  0.69642650  1
  Zr  Zr19  1  0.30071785  0.50575095  0.29816566  1
  Zr  Zr20  1  0.10718106  0.29435323  0.30083291  1
  Zr  Zr21  1  0.89860813  0.30150342  0.30865423  1
  Zr  Zr22  1  0.70372924  0.70582963  0.50184234  1
  Zr  Zr23  1  0.70442449  0.30111629  0.50735124  1
  Zr  Zr24  1  0.70086848  0.09174279  0.29606537  1
  Zr  Zr25  1  0.89540880  0.49971184  0.30286737  1
  Zr  Zr26  1  0.29792837  0.10126236  0.70232671  1
  Zr  Zr27  1  0.49965334  0.50348673  0.50221467  1
  Zr  Zr28  1  0.10070934  0.89819727  0.90055018  1
  Zr  Zr29  1  0.69834907  0.31329447  0.30014839  1
  Zr  Zr30  1  0.49737951  0.90783635  0.70012620  1
  Zr  Zr31  1  0.49522322  0.09295436  0.89974781  1
  Zr  Zr32  1  0.49492476  0.09434473  0.29531857  1
  Zr  Zr33  1  0.69240966  0.30231004  0.89112919  1
  Zr  Zr34  1  0.90292941  0.89123015  0.70361195  1
  Zr  Zr35  1  0.29050165  0.88406820  0.09879119  1
  Zr  Zr36  1  0.90274335  0.09847695  0.30530547  1
  Zr  Zr37  1  0.09913775  0.10958949  0.90049323  1
  Zr  Zr38  1  0.29777590  0.10268035  0.29597038  1
  Zr  Zr39  1  0.29189697  0.49591152  0.69760712  1
  Zr  Zr40  1  0.49553374  0.69769109  0.10024696  1
  Zr  Zr41  1  0.70821418  0.50133245  0.69863175  1
  Zr  Zr42  1  0.90399149  0.50393594  0.08848596  1
  Zr  Zr43  1  0.08652890  0.10032086  0.49389974  1
  Zr  Zr44  1  0.30244976  0.29951950  0.09367695  1
  Zr  Zr45  1  0.49546888  0.50422474  0.70335050  1
  Zr  Zr46  1  0.71060577  0.70166080  0.30216398  1
  Zr  Zr47  1  0.30102312  0.50209388  0.09997512  1
  Zr  Zr48  1  0.49708159  0.90401123  0.29705328  1
  Zr  Zr49  1  0.70537394  0.09674740  0.10183278  1
  Sc  Sc50  1  0.70491337  0.70315354  0.90992602  1
  Sc  Sc51  1  0.89808463  0.09929731  0.09815992  1
  Sc  Sc52  1  0.89660138  0.90751851  0.09826518  1
  Sc  Sc53  1  0.29422171  0.29944801  0.50484535  1
  Sc  Sc54  1  0.30327346  0.10619512  0.09655526  1
  Sc  Sc55  1  0.70228645  0.29562967  0.70263832  1
  Sc  Sc56  1  0.50061717  0.89658410  0.10281817  1
  Sc  Sc57  1  0.69177563  0.10704366  0.70440470  1
  Sc  Sc58  1  0.09997125  0.30207635  0.89751917  1
  Sc  Sc59  1  0.71614643  0.70032174  0.69547012  1
  Sc  Sc60  1  0.09624826  0.89278782  0.69686576  1
  Sc  Sc61  1  0.11168680  0.70747482  0.10052971  1
  Sc  Sc62  1  0.10122060  0.49852659  0.70118276  1
  Sc  Sc63  1  0.69896742  0.70259764  0.09136975  1
  Sc  Sc64  1  0.51108067  0.29654171  0.70664250  1
  Sc  Sc65  1  0.09813682  0.50329682  0.50556613  1
  Sc  Sc66  1  0.49985672  0.49970524  0.09362074  1
  Sc  Sc67  1  0.29450413  0.49676719  0.89423398  1
  Sc  Sc68  1  0.89753096  0.69318027  0.89665282  1
  Sc  Sc69  1  0.29240795  0.70131261  0.30099253  1
  Sc  Sc70  1  0.90228404  0.69982898  0.49935586  1
  Sc  Sc71  1  0.70586016  0.90104954  0.70022375  1
  Sc  Sc72  1  0.09423157  0.29918431  0.50615729  1
  Sc  Sc73  1  0.50249152  0.49283625  0.89914917  1
  Sc  Sc74  1  0.29434955  0.30198954  0.90264864  1
  Sc  Sc75  1  0.90490054  0.70209209  0.30520373  1
  Sc  Sc76  1  0.89932439  0.29782300  0.09513987  1
  Sc  Sc77  1  0.70464634  0.90187076  0.90332288  1
  Sc  Sc78  1  0.49471216  0.30507276  0.90179403  1
  Sc  Sc79  1  0.30500346  0.90753446  0.90039759  1
  Sc  Sc80  1  0.10482100  0.49973681  0.09200651  1
  Sc  Sc81  1  0.09701703  0.68975615  0.90369005  1
  Sc  Sc82  1  0.09317965  0.89436296  0.49864441  1
  Sc  Sc83  1  0.50483903  0.69570988  0.91254518  1
  Sc  Sc84  1  0.30064531  0.68874305  0.69326817  1
  Sc  Sc85  1  0.30181291  0.10978000  0.50853189  1
  Sc  Sc86  1  0.09550894  0.89858378  0.11014349  1
  Sc  Sc87  1  0.69932786  0.09831357  0.89275461  1
  Sc  Sc88  1  0.48973420  0.09303072  0.09910916  1
  Sc  Sc89  1  0.09798347  0.89040449  0.29581834  1
  Sc  Sc90  1  0.89967937  0.29994774  0.69501734  1
  Sc  Sc91  1  0.29589900  0.69790107  0.49769988  1
  Sc  Sc92  1  0.50344256  0.90674437  0.90392951  1
  Sc  Sc93  1  0.50029246  0.48942941  0.30932691  1
  Sc  Sc94  1  0.89321310  0.10379089  0.69767087  1
  Sc  Sc95  1  0.69736989  0.89924041  0.09658749  1
  Sc  Sc96  1  0.70322779  0.30777606  0.09980512  1
  Sc  Sc97  1  0.29990725  0.90234703  0.69981200  1
  Sc  Sc98  1  0.29999233  0.88891256  0.49623577  1
  Sc  Sc99  1  0.48970845  0.70415381  0.29006116  1
  Nb  Nb100  1  0.09913380  0.10193487  0.10012044  1
  Nb  Nb101  1  0.69818040  0.90018643  0.29693866  1
  Nb  Nb102  1  0.30026418  0.09750847  0.90081996  1
  Nb  Nb103  1  0.90224126  0.70240464  0.09798409  1
  Nb  Nb104  1  0.31064464  0.69529552  0.10832862  1
  Nb  Nb105  1  0.08523891  0.49714600  0.90030366  1
  Nb  Nb106  1  0.70081289  0.50315579  0.29765224  1
  Nb  Nb107  1  0.09604359  0.69783041  0.30569893  1
  Nb  Nb108  1  0.10010717  0.09864439  0.29986867  1
  Nb  Nb109  1  0.49997077  0.30019885  0.30113290  1
  Nb  Nb110  1  0.70412736  0.50492321  0.90088631  1
  Nb  Nb111  1  0.90141112  0.89962707  0.90051582  1
  Nb  Nb112  1  0.29640388  0.90038489  0.30204296  1
  Nb  Nb113  1  0.90795910  0.50290055  0.89772009  1
  Nb  Nb114  1  0.90301160  0.69552750  0.70130280  1
  Nb  Nb115  1  0.10044260  0.50163548  0.29826387  1
  Nb  Nb116  1  0.10639438  0.70029169  0.48869135  1
  Nb  Nb117  1  0.30295746  0.30019161  0.29863532  1
  Nb  Nb118  1  0.70653797  0.90082488  0.49106413  1
  Nb  Nb119  1  0.89391809  0.91368481  0.49859354  1
  Nb  Nb120  1  0.10430243  0.10138095  0.70288077  1
  Nb  Nb121  1  0.11162599  0.29124196  0.70315650  1
  Nb  Nb122  1  0.49730486  0.10067901  0.70150397  1
  Nb  Nb123  1  0.49369296  0.29418571  0.10000362  1
  Nb  Nb124  1  0.89600635  0.29643021  0.50025692  1
  Nb  Nb125  1  0.00534679  0.40111867  0.20246763  1
  Nb  Nb126  1  0.80225300  0.80078684  0.20029670  1
  Nb  Nb127  1  0.20368126  0.79390199  0.80144438  1
  Nb  Nb128  1  0.19538153  0.00460900  0.00201262  1
  Nb  Nb129  1  0.40499124  0.20415314  0.39605637  1
  Nb  Nb130  1  0.80693269  0.40895819  0.80601603  1
  Nb  Nb131  1  0.00445497  0.59951072  0.20169275  1
  Nb  Nb132  1  0.39717126  0.19241182  0.79835093  1
  Nb  Nb133  1  0.60319172  0.60581830  0.39647337  1
  Nb  Nb134  1  0.00661431  0.20016252  0.20229336  1
  Nb  Nb135  1  0.60355590  0.80261057  0.39853376  1
  Nb  Nb136  1  0.19230478  0.00379280  0.59616565  1
  Nb  Nb137  1  0.59724971  0.79543831  0.79853869  1
  Nb  Nb138  1  0.19928743  0.40217285  0.39350531  1
  Nb  Nb139  1  0.59741631  0.20004356  0.39478446  1
  Nb  Nb140  1  0.60616793  0.60297224  0.80057932  1
  Nb  Nb141  1  0.59485475  0.20398140  0.19932106  1
  Nb  Nb142  1  -0.00088206  0.00016038  0.80195452  1
  Nb  Nb143  1  0.40018127  0.39202690  0.20195739  1
  Nb  Nb144  1  -0.00480807  0.80162459  -0.00132460  1
  Nb  Nb145  1  0.60496562  0.59620386  0.20647639  1
  Nb  Nb146  1  0.40108695  0.79641910  0.80116593  1
  Nb  Nb147  1  0.59509172  0.20091375  0.00650071  1
  Nb  Nb148  1  0.19840953  0.00162359  0.39778886  1
  Nb  Nb149  1  0.39956896  0.40115192  0.60257867  1
  Pd  Pd150  1  0.59926231  0.39724639  0.00264270  1
  Pd  Pd151  1  0.00838662  0.39725109  0.39914718  1
  Pd  Pd152  1  0.39936118  0.59000300  -0.00802091  1
  Pd  Pd153  1  0.59167363  0.40383111  0.19268161  1
  Pd  Pd154  1  0.20433463  0.19913364  0.40716299  1
  Pd  Pd155  1  0.60665223  0.79218009  0.20224994  1
  Pd  Pd156  1  0.40239186  0.79639748  0.39592095  1
  Pd  Pd157  1  0.38706662  -0.00452364  0.59326940  1
  Pd  Pd158  1  0.39538521  0.38894891  0.79352476  1
  Pd  Pd159  1  0.00035362  0.59489186  0.40242001  1
  Pd  Pd160  1  0.00013772  0.20041649  0.60608371  1
  Pd  Pd161  1  0.79016655  0.19971859  0.39769349  1
  Pd  Pd162  1  0.20322677  -0.00157862  0.19808659  1
  Pd  Pd163  1  0.81079144  0.80410436  0.59527876  1
  Pd  Pd164  1  0.19462918  0.60222325  0.80279190  1
  Pd  Pd165  1  0.60700471  0.80792050  0.60248293  1
  Pd  Pd166  1  0.38877235  0.00693981  0.40984375  1
  Pd  Pd167  1  0.81035903  0.40050809  0.19487497  1
  Pd  Pd168  1  0.00215778  0.00094071  0.60985815  1
  Pd  Pd169  1  0.80380075  0.60713827  0.19467487  1
  Pd  Pd170  1  0.00587468  0.39502927  0.60910977  1
  Pd  Pd171  1  0.60631416  0.60331401  0.60324641  1
  Pd  Pd172  1  0.80211882  0.20514503  0.20135459  1
  Pd  Pd173  1  0.79532015  0.79468685  0.80600397  1
  Pd  Pd174  1  -0.00561937  0.80497299  0.40678189  1
  Pd  Pd175  1  0.79831762  0.00170819  0.60799862  1
  Pd  Pd176  1  0.38821379  -0.00923813  0.19039623  1
  Pd  Pd177  1  0.20227337  0.40092073  0.20073055  1
  Pd  Pd178  1  -0.00079540  0.00622161  0.20060484  1
  Pd  Pd179  1  0.19403887  0.60711969  0.19885058  1
  Pd  Pd180  1  0.80289308  0.39896756  -0.00933065  1
  Pd  Pd181  1  0.60041093  -0.00097351  0.40125152  1
  Pd  Pd182  1  0.00372670  -0.00395760  -0.00138858  1
  Pd  Pd183  1  0.00608974  0.79340370  0.80661988  1
  Pd  Pd184  1  0.59716883  0.39920033  0.60998471  1
  Pd  Pd185  1  0.60948879  -0.00424684  0.60614033  1
  Pd  Pd186  1  0.19871423  0.59558902  -0.00000311  1
  Pd  Pd187  1  -0.00656354  0.79720792  0.59009752  1
  Pd  Pd188  1  0.80156736  0.59559059  0.40824400  1
  Pd  Pd189  1  0.40745046  0.80679718  -0.00341813  1
  Pd  Pd190  1  0.20409294  0.80284822  0.60373531  1
  Pd  Pd191  1  0.00092195  0.39609973  0.79028148  1
  Pd  Pd192  1  0.78957136  0.20179423  -0.00505723  1
  Pd  Pd193  1  0.80422019  0.00167943  0.79677709  1
  Pd  Pd194  1  0.40672658  0.60890654  0.39595263  1
  Pd  Pd195  1  0.19379990  -0.00676254  0.79827737  1
  Pd  Pd196  1  0.60217477  0.00490835  0.00427862  1
  Pd  Pd197  1  0.40485899  0.60704575  0.81191293  1
  Pd  Pd198  1  -0.00297679  0.19637145  0.79183758  1
  Pd  Pd199  1  0.19928166  0.19849974  0.19299671  1
  Rh  Rh200  1  0.80483606  0.60176867  -0.00413365  1
  Rh  Rh201  1  0.60328533  0.59580378  0.00072420  1
  Rh  Rh202  1  0.19573722  0.60189072  0.59332269  1
  Rh  Rh203  1  -0.00580972  0.78966203  0.19348799  1
  Rh  Rh204  1  0.00041699  0.60377052  0.59142605  1
  Rh  Rh205  1  0.00584532  0.60479757  0.79791006  1
  Rh  Rh206  1  0.79778677  0.00023777  -0.00240758  1
  Rh  Rh207  1  -0.00159214  0.20579412  0.39601765  1
  Rh  Rh208  1  0.19462537  0.59557686  0.40083101  1
  Rh  Rh209  1  0.79951711  0.19899180  0.60030499  1
  Rh  Rh210  1  0.20723915  0.20189716  0.80735616  1
  Rh  Rh211  1  0.81000907  0.60171618  0.59346521  1
  Rh  Rh212  1  0.39582646  0.40288270  0.00494087  1
  Rh  Rh213  1  0.19852575  0.39958359  0.59492546  1
  Rh  Rh214  1  0.41102634  0.58794798  0.20222968  1
  Rh  Rh215  1  0.79782730  0.59970897  0.80525107  1
  Rh  Rh216  1  0.40237350  0.20378422  0.20539216  1
  Rh  Rh217  1  0.00194889  0.39823609  0.00364640  1
  Rh  Rh218  1  0.80414193  0.39743304  0.60895326  1
  Rh  Rh219  1  0.60144628  -0.00627704  0.79583176  1
  Rh  Rh220  1  0.80226804  0.80928861  0.39658735  1
  Rh  Rh221  1  0.20153830  0.79311249  0.20695060  1
  Rh  Rh222  1  0.38720210  0.39120897  0.40257745  1
  Rh  Rh223  1  0.20350684  0.19294332  -0.00393316  1
  Rh  Rh224  1  0.00742628  -0.00983709  0.39348048  1
  Rh  Rh225  1  0.79907911  0.00007463  0.39689814  1
  Rh  Rh226  1  0.19737281  0.40808525  -0.01050437  1
  Rh  Rh227  1  0.58839525  0.19255549  0.81164015  1
  Rh  Rh228  1  0.39197181  0.80469420  0.20329994  1
  Rh  Rh229  1  0.60060853  0.20041785  0.59682567  1
  Rh  Rh230  1  0.60810200  0.40379506  0.40173269  1
  Rh  Rh231  1  0.18646448  0.19100978  0.59369580  1
  Rh  Rh232  1  0.81032634  0.80349893  0.00571650  1
  Rh  Rh233  1  0.41140688  0.21347768  0.60542243  1
  Rh  Rh234  1  0.61057686  0.41380319  0.79782573  1
  Rh  Rh235  1  0.59684207  0.80424105  -0.00681288  1
  Rh  Rh236  1  0.80336863  0.20909249  0.80247552  1
  Rh  Rh237  1  0.40414142  0.19913113  -0.01309377  1
  Rh  Rh238  1  0.19686135  0.80495259  0.39624640  1
  Rh  Rh239  1  0.40042717  -0.00027582  0.79864587  1
  Rh  Rh240  1  0.59898036  0.00347363  0.19303754  1
  Rh  Rh241  1  0.39318336  0.59293151  0.59674772  1
  Rh  Rh242  1  0.79611398  0.40181013  0.40402700  1
  Rh  Rh243  1  0.00312411  0.60867687  0.00747981  1
  Rh  Rh244  1  0.18935571  0.40031157  0.80292468  1
  Rh  Rh245  1  0.39150587  0.80081616  0.60715740  1
  Rh  Rh246  1  0.79989963  -0.00838848  0.19906619  1
  Rh  Rh247  1  -0.00147028  0.20131253  0.00836137  1
  Rh  Rh248  1  0.19183160  0.80511746  -0.00467063  1
  Rh  Rh249  1  0.38771458  -0.00631655  0.00834036  1
