# generated using pymatgen
data_ZrScNbPdRh
_symmetry_space_group_name_H-M   'P 1'
_cell_length_a   16.55384968
_cell_length_b   16.55450073
_cell_length_c   16.54967515
_cell_angle_alpha   89.98018822
_cell_angle_beta   90.00938490
_cell_angle_gamma   90.03761067
_symmetry_Int_Tables_number   1
_chemical_formula_structural   ZrScNbPdRh
_chemical_formula_sum   'Zr50 Sc50 Nb50 Pd50 Rh50'
_cell_volume   4535.28352722
_cell_formula_units_Z   50
loop_
 _symmetry_equiv_pos_site_id
 _symmetry_equiv_pos_as_xyz
  1  'x, y, z'
loop_
 _atom_site_type_symbol
 _atom_site_label
 _atom_site_symmetry_multiplicity
 _atom_site_fract_x
 _atom_site_fract_y
 _atom_site_fract_z
 _atom_site_occupancy
  Zr  Zr0  1  0.10453488  0.49646003  0.70137395  1
  Zr  Zr1  1  0.69833187  0.69870216  0.70294946  1
  Zr  Zr2  1  0.71030896  0.29492688  0.69427320  1
  Zr  Zr3  1  0.30411376  0.89708437  0.90096399  1
  Zr  Zr4  1  0.09796761  0.70129248  0.89703014  1
  Zr  Zr5  1  0.09788098  0.30390609  0.69371416  1
  Zr  Zr6  1  0.30824347  0.10711365  0.09512632  1
  Zr  Zr7  1  0.10572837  0.50187525  0.30336078  1
  Zr  Zr8  1  0.49175310  0.29662966  0.09305213  1
  Zr  Zr9  1  0.70185373  0.09718782  0.69547934  1
  Zr  Zr10  1  0.09197467  0.10802514  0.69281527  1
  Zr  Zr11  1  0.89765739  0.08831203  0.10620568  1
  Zr  Zr12  1  0.51040658  0.49826245  0.10209695  1
  Zr  Zr13  1  0.09786158  0.69698547  0.29540127  1
  Zr  Zr14  1  0.09051542  0.90499867  0.09987939  1
  Zr  Zr15  1  0.50607052  0.50608339  0.30035744  1
  Zr  Zr16  1  0.89955384  0.68463473  0.49867870  1
  Zr  Zr17  1  0.49941620  0.89486456  0.90444657  1
  Zr  Zr18  1  0.30282740  0.29916605  0.29906515  1
  Zr  Zr19  1  0.30413835  0.48764665  0.09587299  1
  Zr  Zr20  1  0.49796661  0.90200859  0.09971706  1
  Zr  Zr21  1  0.90033422  0.30385836  0.70443611  1
  Zr  Zr22  1  0.30557268  0.10223039  0.30277880  1
  Zr  Zr23  1  0.09776722  0.70124588  0.71119109  1
  Zr  Zr24  1  0.70724227  0.30850611  0.89827594  1
  Zr  Zr25  1  0.50111877  0.30332996  0.89658929  1
  Zr  Zr26  1  0.70111769  0.10063507  0.29715406  1
  Zr  Zr27  1  0.89272962  0.89921222  0.49537695  1
  Zr  Zr28  1  0.89276757  0.30483681  0.10852340  1
  Zr  Zr29  1  0.30912957  0.70244165  0.29838405  1
  Zr  Zr30  1  0.09899623  0.09963455  0.90184239  1
  Zr  Zr31  1  0.90712069  0.50024715  0.68937070  1
  Zr  Zr32  1  0.50995494  0.49634436  0.49796470  1
  Zr  Zr33  1  0.69551498  0.90272784  0.68882856  1
  Zr  Zr34  1  0.89284475  0.10574458  0.69462747  1
  Zr  Zr35  1  0.51088916  0.10230050  0.09707811  1
  Zr  Zr36  1  0.30545021  0.29441597  0.90411137  1
  Zr  Zr37  1  0.31142977  0.89697242  0.10192145  1
  Zr  Zr38  1  0.50959235  0.69505171  0.90007760  1
  Zr  Zr39  1  0.09336561  0.90740742  0.49847218  1
  Zr  Zr40  1  0.50076551  0.09863327  0.69563405  1
  Zr  Zr41  1  0.69943201  0.70223377  0.10471781  1
  Zr  Zr42  1  0.89900789  0.70142362  0.10118987  1
  Zr  Zr43  1  0.69752906  0.31063134  0.09709780  1
  Zr  Zr44  1  0.10107178  0.69037399  0.09494622  1
  Zr  Zr45  1  0.10549267  0.30258042  0.09832787  1
  Zr  Zr46  1  0.70292395  0.90159553  0.31344405  1
  Zr  Zr47  1  0.49643078  0.90251474  0.70321228  1
  Zr  Zr48  1  0.09222166  0.90238983  0.30355336  1
  Zr  Zr49  1  0.49771495  0.11219213  0.50011565  1
  Sc  Sc50  1  0.31075103  0.10457135  0.69835720  1
  Sc  Sc51  1  0.10590640  0.30077448  0.50208767  1
  Sc  Sc52  1  0.49892386  0.69797419  0.30126428  1
  Sc  Sc53  1  0.89746781  0.70486491  0.30277344  1
  Sc  Sc54  1  0.09525357  0.09602196  0.31516338  1
  Sc  Sc55  1  0.49709495  0.09894854  0.89866304  1
  Sc  Sc56  1  0.29882370  0.69450458  0.09556002  1
  Sc  Sc57  1  0.29669526  0.10459188  0.50081617  1
  Sc  Sc58  1  0.49621452  0.70054923  0.49527316  1
  Sc  Sc59  1  0.30366918  0.50189424  0.29213691  1
  Sc  Sc60  1  0.28932229  0.48950736  0.49639490  1
  Sc  Sc61  1  0.69250895  0.49881627  0.89856682  1
  Sc  Sc62  1  0.88482667  0.90308218  0.70181809  1
  Sc  Sc63  1  0.89868258  0.69265855  0.70897203  1
  Sc  Sc64  1  0.90012715  0.49830261  0.10310272  1
  Sc  Sc65  1  0.70714388  0.69873905  0.30255610  1
  Sc  Sc66  1  0.90442252  0.10273591  0.49914279  1
  Sc  Sc67  1  0.29565759  0.29422757  0.50219600  1
  Sc  Sc68  1  0.70394242  0.70734945  0.49737638  1
  Sc  Sc69  1  0.09081937  0.49572340  0.50293886  1
  Sc  Sc70  1  0.69623515  0.70138844  0.90232866  1
  Sc  Sc71  1  0.69596123  0.09488942  0.90670717  1
  Sc  Sc72  1  0.49672974  0.29581715  0.69735252  1
  Sc  Sc73  1  0.29971412  0.70959098  0.70260064  1
  Sc  Sc74  1  0.29602078  0.30039702  0.70301144  1
  Sc  Sc75  1  0.69396394  0.10024233  0.50453512  1
  Sc  Sc76  1  0.50462402  0.70303905  0.09440831  1
  Sc  Sc77  1  0.70492699  0.90587692  0.09477910  1
  Sc  Sc78  1  0.69470724  0.30139110  0.50138881  1
  Sc  Sc79  1  0.09230387  0.70149010  0.50160270  1
  Sc  Sc80  1  0.10363713  0.51226426  0.90018903  1
  Sc  Sc81  1  0.10605509  0.29848710  0.88856858  1
  Sc  Sc82  1  0.29243357  0.70033463  0.90235709  1
  Sc  Sc83  1  0.30738895  0.89451984  0.69802367  1
  Sc  Sc84  1  0.30022263  0.49175901  0.88799972  1
  Sc  Sc85  1  0.90077673  0.49859431  0.31063169  1
  Sc  Sc86  1  0.70056958  0.90295242  0.89868992  1
  Sc  Sc87  1  0.70886827  0.29595227  0.29886245  1
  Sc  Sc88  1  0.49656027  0.70565089  0.70852975  1
  Sc  Sc89  1  0.89262237  0.89893020  0.89955075  1
  Sc  Sc90  1  0.89406706  0.09419717  0.89769808  1
  Sc  Sc91  1  0.70608499  0.49236573  0.70219051  1
  Sc  Sc92  1  0.70537927  0.49602016  0.49303163  1
  Sc  Sc93  1  0.89383037  0.89961882  0.10750461  1
  Sc  Sc94  1  0.50516294  0.09919346  0.29698576  1
  Sc  Sc95  1  0.89769603  0.49979385  0.89618433  1
  Sc  Sc96  1  0.09816118  0.30712945  0.30595083  1
  Sc  Sc97  1  0.10557211  0.50528566  0.10235221  1
  Sc  Sc98  1  0.50428591  0.28693551  0.30244705  1
  Sc  Sc99  1  0.50635093  0.89770754  0.50602160  1
  Nb  Nb100  1  0.89392897  0.10623334  0.29755079  1
  Nb  Nb101  1  0.70196548  0.10496836  0.09652512  1
  Nb  Nb102  1  0.69150153  0.50743085  0.28710233  1
  Nb  Nb103  1  0.30554176  0.90055104  0.29505335  1
  Nb  Nb104  1  0.49300860  0.89991044  0.29207861  1
  Nb  Nb105  1  0.09582578  0.09829640  0.10206819  1
  Nb  Nb106  1  0.10018185  0.89482180  0.89385440  1
  Nb  Nb107  1  0.10167355  0.09589989  0.50639945  1
  Nb  Nb108  1  0.29895621  0.89333307  0.50160017  1
  Nb  Nb109  1  0.49363491  0.50394706  0.70777841  1
  Nb  Nb110  1  0.30400219  0.29890518  0.09832135  1
  Nb  Nb111  1  0.89992866  0.28780327  0.30329846  1
  Nb  Nb112  1  0.29764548  0.09740878  0.89438310  1
  Nb  Nb113  1  0.49802830  0.50123163  0.89032589  1
  Nb  Nb114  1  0.89807316  0.30257583  0.90578204  1
  Nb  Nb115  1  0.70007585  0.50477996  0.10467005  1
  Nb  Nb116  1  0.30003822  0.49934005  0.69776075  1
  Nb  Nb117  1  0.89969715  0.50001811  0.50147159  1
  Nb  Nb118  1  0.89680671  0.91174148  0.29987510  1
  Nb  Nb119  1  0.90622402  0.69436755  0.90334663  1
  Nb  Nb120  1  0.30057181  0.70313561  0.50310624  1
  Nb  Nb121  1  0.70154728  0.89943639  0.50341291  1
  Nb  Nb122  1  0.50056345  0.30119510  0.49957098  1
  Nb  Nb123  1  0.89122703  0.31077902  0.49277663  1
  Nb  Nb124  1  0.09852370  0.89400087  0.70511127  1
  Nb  Nb125  1  0.39727107  0.59468244  0.60103092  1
  Nb  Nb126  1  -0.00513309  0.20318878  0.00547736  1
  Nb  Nb127  1  0.40746369  0.39648707  0.40456014  1
  Nb  Nb128  1  0.20585476  0.80165966  0.39843508  1
  Nb  Nb129  1  0.40328048  0.40610404  0.59928712  1
  Nb  Nb130  1  0.20437573  0.60235215  0.59868109  1
  Nb  Nb131  1  0.00049707  0.79758403  -0.00556882  1
  Nb  Nb132  1  0.80229629  0.20264530  0.00569297  1
  Nb  Nb133  1  0.20313410  0.60865190  0.40390148  1
  Nb  Nb134  1  -0.00097775  0.39433242  -0.00118284  1
  Nb  Nb135  1  0.59965386  0.80769962  0.20500714  1
  Nb  Nb136  1  0.20190050  0.00197193  0.19764366  1
  Nb  Nb137  1  0.00553954  -0.00438053  0.79510056  1
  Nb  Nb138  1  -0.00084840  0.19908118  0.20200516  1
  Nb  Nb139  1  0.19981243  0.00064457  -0.00053963  1
  Nb  Nb140  1  0.20068681  0.80647397  0.20340153  1
  Nb  Nb141  1  0.19709012  -0.00189204  0.79776386  1
  Nb  Nb142  1  0.19395292  -0.00353716  0.60241530  1
  Nb  Nb143  1  0.40787965  0.58897180  -0.00741226  1
  Nb  Nb144  1  0.39898565  -0.00855287  0.39929609  1
  Nb  Nb145  1  0.79673550  0.59904083  0.00494827  1
  Nb  Nb146  1  0.59404918  0.59569309  0.60548808  1
  Nb  Nb147  1  0.60450347  0.20084647  0.79819355  1
  Nb  Nb148  1  0.19649006  0.19597545  0.19643251  1
  Nb  Nb149  1  -0.00286547  0.80306272  0.60729444  1
  Pd  Pd150  1  0.39341624  -0.00051226  0.59112375  1
  Pd  Pd151  1  0.59676594  0.40500902  -0.00371867  1
  Pd  Pd152  1  -0.00732845  0.21257706  0.58645811  1
  Pd  Pd153  1  0.20974156  -0.00478415  0.40218497  1
  Pd  Pd154  1  0.20298421  0.19449409  0.79132638  1
  Pd  Pd155  1  0.59979172  0.39439775  0.78899351  1
  Pd  Pd156  1  0.20109694  0.39508986  0.20308304  1
  Pd  Pd157  1  0.19390519  0.20161577  0.39692413  1
  Pd  Pd158  1  0.19382541  0.80654463  0.00815793  1
  Pd  Pd159  1  0.60933346  0.60845872  0.40600605  1
  Pd  Pd160  1  -0.00058883  0.39837055  0.40401542  1
  Pd  Pd161  1  0.59718924  0.40259607  0.61000781  1
  Pd  Pd162  1  0.59415126  0.79026738  0.59960733  1
  Pd  Pd163  1  0.39042106  0.60879070  0.80198219  1
  Pd  Pd164  1  -0.00748653  0.19478692  0.80798930  1
  Pd  Pd165  1  0.19132918  0.79987092  0.59592042  1
  Pd  Pd166  1  0.60373135  0.39242324  0.38852140  1
  Pd  Pd167  1  0.80107117  0.01194358  0.40641851  1
  Pd  Pd168  1  0.78758945  0.59725723  0.59724221  1
  Pd  Pd169  1  0.60398817  0.80530991  0.80056888  1
  Pd  Pd170  1  0.59613807  0.79907154  0.39519233  1
  Pd  Pd171  1  0.00296605  0.40617885  0.80916946  1
  Pd  Pd172  1  0.79214545  0.19616356  0.40990002  1
  Pd  Pd173  1  0.41093211  0.39494451  0.20949130  1
  Pd  Pd174  1  -0.00004100  0.39918792  0.20051759  1
  Pd  Pd175  1  0.00345791  0.20167757  0.40418444  1
  Pd  Pd176  1  0.60010013  0.00404788  0.80332706  1
  Pd  Pd177  1  -0.00731628  0.59353603  0.20427235  1
  Pd  Pd178  1  0.79588715  0.59610788  0.80956006  1
  Pd  Pd179  1  -0.00041198  0.79969573  0.19562208  1
  Pd  Pd180  1  0.39156107  0.58763220  0.40974955  1
  Pd  Pd181  1  0.60785566  -0.00552068  0.19785876  1
  Pd  Pd182  1  0.80813843  0.79238888  0.60018001  1
  Pd  Pd183  1  0.79902271  0.79663297  0.80327037  1
  Pd  Pd184  1  0.79269917  0.40439710  0.39079355  1
  Pd  Pd185  1  0.19619980  0.19608998  0.00248610  1
  Pd  Pd186  1  0.40069899  0.00691698  -0.00371690  1
  Pd  Pd187  1  -0.00409983  0.79729484  0.40429049  1
  Pd  Pd188  1  0.60520349  0.20616601  0.19782602  1
  Pd  Pd189  1  0.80262845  0.79473120  -0.00525112  1
  Pd  Pd190  1  0.59595458  0.38990119  0.20730097  1
  Pd  Pd191  1  0.19377823  0.40377412  -0.01062013  1
  Pd  Pd192  1  0.79426401  0.19367713  0.81079419  1
  Pd  Pd193  1  0.58989593  0.00086348  0.40533841  1
  Pd  Pd194  1  0.40457708  0.60300596  0.18615661  1
  Pd  Pd195  1  0.40286972  0.80685009  0.40372142  1
  Pd  Pd196  1  0.80080219  0.40749671  0.21328257  1
  Pd  Pd197  1  -0.00462275  -0.00747631  0.60757340  1
  Pd  Pd198  1  0.80686103  0.59635631  0.20195235  1
  Pd  Pd199  1  -0.00357545  -0.00518140  -0.00999976  1
  Rh  Rh200  1  0.40500729  0.79101960  0.19405510  1
  Rh  Rh201  1  0.40436228  0.40441163  -0.00705379  1
  Rh  Rh202  1  0.80378369  0.40866925  0.00027307  1
  Rh  Rh203  1  0.40560927  0.20021501  0.80230077  1
  Rh  Rh204  1  0.79956142  0.00213418  0.79876688  1
  Rh  Rh205  1  0.59800149  0.61268947  0.20091324  1
  Rh  Rh206  1  0.00414324  0.59718922  0.39849459  1
  Rh  Rh207  1  0.59901948  -0.00197002  0.00075858  1
  Rh  Rh208  1  0.39560595  -0.00101175  0.80031471  1
  Rh  Rh209  1  0.60265156  0.59193393  -0.00002438  1
  Rh  Rh210  1  0.40145499  0.01270756  0.20461481  1
  Rh  Rh211  1  0.20671081  0.60461268  0.20372133  1
  Rh  Rh212  1  0.80555764  0.20548241  0.58938253  1
  Rh  Rh213  1  -0.00539432  0.39340193  0.59105062  1
  Rh  Rh214  1  0.79652888  0.59373682  0.39752316  1
  Rh  Rh215  1  -0.00890059  0.59644669  0.00205588  1
  Rh  Rh216  1  0.20083474  0.19300637  0.60228416  1
  Rh  Rh217  1  -0.00044022  0.59325664  0.79829423  1
  Rh  Rh218  1  0.40383647  0.19589211  -0.00728157  1
  Rh  Rh219  1  0.40779980  0.79458494  0.59963967  1
  Rh  Rh220  1  0.39773033  0.21050068  0.59795619  1
  Rh  Rh221  1  0.79312927  0.81096742  0.20999071  1
  Rh  Rh222  1  0.40006546  0.19947968  0.19827425  1
  Rh  Rh223  1  0.80533093  0.79992206  0.40028487  1
  Rh  Rh224  1  0.20371642  0.40303613  0.60332347  1
  Rh  Rh225  1  0.60600560  0.59681483  0.79243396  1
  Rh  Rh226  1  -0.01098785  0.00740817  0.39921770  1
  Rh  Rh227  1  0.59740411  -0.00035754  0.59411648  1
  Rh  Rh228  1  0.80596623  0.40528801  0.79772168  1
  Rh  Rh229  1  0.00837540  0.60665913  0.60548678  1
  Rh  Rh230  1  -0.01571721  0.80593110  0.80169890  1
  Rh  Rh231  1  0.80435723  0.40015343  0.59668229  1
  Rh  Rh232  1  0.40395511  0.78306799  -0.00448902  1
  Rh  Rh233  1  0.60808756  0.20421394  -0.00827499  1
  Rh  Rh234  1  0.79781968  0.00266562  0.59230153  1
  Rh  Rh235  1  0.79211252  -0.00168345  0.20397596  1
  Rh  Rh236  1  0.21662904  0.58799466  -0.00229530  1
  Rh  Rh237  1  0.00015243  0.00862038  0.21512120  1
  Rh  Rh238  1  0.39996112  0.79686750  0.80749401  1
  Rh  Rh239  1  0.60342190  0.80830693  0.00688063  1
  Rh  Rh240  1  0.79995785  0.19717587  0.19344667  1
  Rh  Rh241  1  0.20958042  0.80506861  0.80002718  1
  Rh  Rh242  1  0.20506385  0.60191732  0.79321975  1
  Rh  Rh243  1  0.20015928  0.39788956  0.80042399  1
  Rh  Rh244  1  0.79915483  0.00518541  0.00066412  1
  Rh  Rh245  1  0.40074363  0.20106006  0.40339189  1
  Rh  Rh246  1  0.39747589  0.39340475  0.79390827  1
  Rh  Rh247  1  0.60506150  0.20038190  0.40134933  1
  Rh  Rh248  1  0.59960963  0.20292116  0.60535500  1
  Rh  Rh249  1  0.20584621  0.40318675  0.39386924  1
