# generated using pymatgen
data_ZrScNbPdRh
_symmetry_space_group_name_H-M   'P 1'
_cell_length_a   16.54938973
_cell_length_b   16.55201279
_cell_length_c   16.55381386
_cell_angle_alpha   90.00257003
_cell_angle_beta   89.98934078
_cell_angle_gamma   90.02574972
_symmetry_Int_Tables_number   1
_chemical_formula_structural   ZrScNbPdRh
_chemical_formula_sum   'Zr50 Sc50 Nb50 Pd50 Rh50'
_cell_volume   4534.51468419
_cell_formula_units_Z   50
loop_
 _symmetry_equiv_pos_site_id
 _symmetry_equiv_pos_as_xyz
  1  'x, y, z'
loop_
 _atom_site_type_symbol
 _atom_site_label
 _atom_site_symmetry_multiplicity
 _atom_site_fract_x
 _atom_site_fract_y
 _atom_site_fract_z
 _atom_site_occupancy
  Zr  Zr0  1  0.50201923  0.30379866  0.89798980  1
  Zr  Zr1  1  0.70058264  0.89688413  0.68595506  1
  Zr  Zr2  1  0.30828154  0.49150162  0.29949571  1
  Zr  Zr3  1  0.29973876  0.70337506  0.50384489  1
  Zr  Zr4  1  0.89479074  0.70779355  0.70596726  1
  Zr  Zr5  1  0.30318389  0.10303324  0.10170177  1
  Zr  Zr6  1  0.89829622  0.90567482  0.29671004  1
  Zr  Zr7  1  0.89872328  0.09767082  0.88920576  1
  Zr  Zr8  1  0.89394161  0.89932682  0.89617664  1
  Zr  Zr9  1  0.69963454  0.90220314  0.09537633  1
  Zr  Zr10  1  0.89930409  0.50037609  0.71678762  1
  Zr  Zr11  1  0.69631639  0.69462955  0.30839248  1
  Zr  Zr12  1  0.09840518  0.49926675  0.30811300  1
  Zr  Zr13  1  0.50423764  0.29911765  0.50399470  1
  Zr  Zr14  1  0.29955417  0.29813894  0.90233765  1
  Zr  Zr15  1  0.10422177  0.28919771  0.89279171  1
  Zr  Zr16  1  0.49405601  0.09926015  0.29489141  1
  Zr  Zr17  1  0.69860993  0.29388226  0.09794906  1
  Zr  Zr18  1  0.68352621  0.49033433  0.10986230  1
  Zr  Zr19  1  0.49420077  0.69834844  0.69224815  1
  Zr  Zr20  1  0.10158856  0.91013036  0.89966447  1
  Zr  Zr21  1  0.70349565  0.89679428  0.30385515  1
  Zr  Zr22  1  0.11073064  0.69900543  0.10271519  1
  Zr  Zr23  1  0.29534166  0.10574329  0.90224752  1
  Zr  Zr24  1  0.89835957  0.69059193  0.89061435  1
  Zr  Zr25  1  0.09878555  0.69655389  0.29659641  1
  Zr  Zr26  1  0.90541716  0.49471210  0.09636157  1
  Zr  Zr27  1  0.49869338  0.50311836  0.71311364  1
  Zr  Zr28  1  0.09536054  0.10102971  0.30165423  1
  Zr  Zr29  1  0.30664109  0.30163949  0.49953644  1
  Zr  Zr30  1  0.50913441  0.89748397  0.50594767  1
  Zr  Zr31  1  0.10337355  0.89917107  0.70336639  1
  Zr  Zr32  1  0.29664858  0.10841331  0.29571610  1
  Zr  Zr33  1  0.89748800  0.49554990  0.30625090  1
  Zr  Zr34  1  0.09661364  0.91202751  0.09622152  1
  Zr  Zr35  1  0.29956696  0.90153277  0.89155102  1
  Zr  Zr36  1  0.90803323  0.69863005  0.10587495  1
  Zr  Zr37  1  0.09411311  0.29908925  0.09073238  1
  Zr  Zr38  1  0.51270674  0.50051606  0.29288663  1
  Zr  Zr39  1  0.69926234  0.09901131  0.09303479  1
  Zr  Zr40  1  0.70272703  0.09926117  0.30207298  1
  Zr  Zr41  1  0.30076251  0.29898747  0.10175661  1
  Zr  Zr42  1  0.10353350  0.48762793  0.69213131  1
  Zr  Zr43  1  0.90334928  0.09921992  0.50326237  1
  Zr  Zr44  1  0.09821430  0.29363975  0.29293380  1
  Zr  Zr45  1  0.10138297  0.69955139  0.69975364  1
  Zr  Zr46  1  0.90338602  0.30559537  0.89832366  1
  Zr  Zr47  1  0.70034670  0.70005732  0.70042434  1
  Zr  Zr48  1  0.29329428  0.09847366  0.49578433  1
  Zr  Zr49  1  0.49593137  0.69536668  0.89571072  1
  Sc  Sc50  1  0.08918917  0.49330980  0.89919766  1
  Sc  Sc51  1  0.49958987  0.09844236  0.89389622  1
  Sc  Sc52  1  0.88861658  0.30174830  0.49963679  1
  Sc  Sc53  1  0.30183579  0.29374050  0.30303983  1
  Sc  Sc54  1  0.69995736  0.49551672  0.70162015  1
  Sc  Sc55  1  0.29796223  0.30359259  0.71108372  1
  Sc  Sc56  1  0.69413803  0.70108454  0.09920564  1
  Sc  Sc57  1  0.09556583  0.09220020  0.49849785  1
  Sc  Sc58  1  0.69603666  0.70302024  0.89584063  1
  Sc  Sc59  1  0.90197903  0.49265829  0.49575247  1
  Sc  Sc60  1  0.49319421  0.89630233  0.29830821  1
  Sc  Sc61  1  0.10306696  0.50725478  0.09704307  1
  Sc  Sc62  1  0.49621782  0.10697544  0.09984026  1
  Sc  Sc63  1  0.50673734  0.70160657  0.30510145  1
  Sc  Sc64  1  0.50800267  0.09417151  0.69974355  1
  Sc  Sc65  1  0.69067266  0.90416978  0.90764340  1
  Sc  Sc66  1  0.89633987  0.69546961  0.49336319  1
  Sc  Sc67  1  0.10264147  0.90321682  0.30304130  1
  Sc  Sc68  1  0.70910268  0.49780434  0.49978949  1
  Sc  Sc69  1  0.70252960  0.29656093  0.69554718  1
  Sc  Sc70  1  0.69212695  0.70738229  0.50138706  1
  Sc  Sc71  1  0.69861295  0.10446349  0.50379905  1
  Sc  Sc72  1  0.10057176  0.70256595  0.89616991  1
  Sc  Sc73  1  0.30133884  0.48794257  0.50519900  1
  Sc  Sc74  1  0.69965488  0.29073898  0.89604443  1
  Sc  Sc75  1  0.49701034  0.49732397  0.51112094  1
  Sc  Sc76  1  0.69820455  0.09956662  0.89900608  1
  Sc  Sc77  1  0.30730109  0.08726962  0.70464876  1
  Sc  Sc78  1  0.09959656  0.90778919  0.49621129  1
  Sc  Sc79  1  0.10574205  0.70096105  0.49641624  1
  Sc  Sc80  1  0.49932055  0.90139090  0.90283581  1
  Sc  Sc81  1  0.51140245  0.09870518  0.50243612  1
  Sc  Sc82  1  0.89126144  0.30307657  0.70366609  1
  Sc  Sc83  1  0.69577776  0.49706115  0.89181057  1
  Sc  Sc84  1  0.30259333  0.70161552  0.90343688  1
  Sc  Sc85  1  0.29520668  0.71511150  0.29631538  1
  Sc  Sc86  1  0.49701505  0.90268466  0.09316836  1
  Sc  Sc87  1  0.29191600  0.89968221  0.50022137  1
  Sc  Sc88  1  0.30803145  0.50506200  0.89744951  1
  Sc  Sc89  1  0.50439691  0.30014716  0.70196265  1
  Sc  Sc90  1  0.90454218  0.09522786  0.09499434  1
  Sc  Sc91  1  0.71438430  0.29439315  0.29732392  1
  Sc  Sc92  1  0.09352078  0.09524076  0.71348151  1
  Sc  Sc93  1  0.89436291  0.90783030  0.69926946  1
  Sc  Sc94  1  0.10032442  0.31815285  0.50583560  1
  Sc  Sc95  1  0.30694819  0.49547852  0.69709712  1
  Sc  Sc96  1  0.89887828  0.90647298  0.10527012  1
  Sc  Sc97  1  0.49165528  0.30228880  0.29878752  1
  Sc  Sc98  1  0.30303178  0.89449788  0.09878847  1
  Sc  Sc99  1  0.89325754  0.90705642  0.50628377  1
  Nb  Nb100  1  0.90453777  0.29407828  0.29258122  1
  Nb  Nb101  1  0.69772042  0.50251777  0.30365227  1
  Nb  Nb102  1  0.49910324  0.49928680  0.10351452  1
  Nb  Nb103  1  0.10170994  0.29699557  0.70109262  1
  Nb  Nb104  1  0.89259974  0.09833689  0.69310584  1
  Nb  Nb105  1  0.90105376  0.69965873  0.29967563  1
  Nb  Nb106  1  0.09894490  0.09667854  0.91018697  1
  Nb  Nb107  1  0.29739966  0.70883537  0.70291124  1
  Nb  Nb108  1  0.30688130  0.88963659  0.70287948  1
  Nb  Nb109  1  0.50191116  0.69646863  0.49463187  1
  Nb  Nb110  1  0.49891348  0.50341656  0.90093739  1
  Nb  Nb111  1  0.89765151  0.30512846  0.10557555  1
  Nb  Nb112  1  0.69940579  0.30342189  0.50441095  1
  Nb  Nb113  1  0.69755953  0.90010150  0.50152477  1
  Nb  Nb114  1  0.50976691  0.31819953  0.10216046  1
  Nb  Nb115  1  0.09946262  0.50481945  0.49987367  1
  Nb  Nb116  1  0.30071553  0.50591392  0.10078127  1
  Nb  Nb117  1  0.49290419  0.90170838  0.70124423  1
  Nb  Nb118  1  0.49816751  0.69976563  0.09557595  1
  Nb  Nb119  1  0.10321665  0.09759752  0.09277656  1
  Nb  Nb120  1  0.30054078  0.90781143  0.30017262  1
  Nb  Nb121  1  0.29897729  0.68928299  0.10022925  1
  Nb  Nb122  1  0.70543356  0.10696290  0.69833296  1
  Nb  Nb123  1  0.89547956  0.49910899  0.90083022  1
  Nb  Nb124  1  0.90660128  0.10621844  0.30829411  1
  Nb  Nb125  1  0.79608391  0.59456618  0.00394218  1
  Nb  Nb126  1  0.00243844  0.20211451  0.60683795  1
  Nb  Nb127  1  0.60202541  -0.00184174  0.20059171  1
  Nb  Nb128  1  0.20033229  0.40113307  0.19693792  1
  Nb  Nb129  1  0.80691996  0.60153387  0.60454677  1
  Nb  Nb130  1  0.20231507  0.00644544  0.19790848  1
  Nb  Nb131  1  -0.00177372  0.79697539  0.59740728  1
  Nb  Nb132  1  -0.00245801  0.80083214  0.00028340  1
  Nb  Nb133  1  0.80641293  0.79337910  0.00126998  1
  Nb  Nb134  1  0.20679784  0.59597513  0.40038491  1
  Nb  Nb135  1  0.40706882  0.40726308  0.00492613  1
  Nb  Nb136  1  -0.00083662  0.59928028  0.60025117  1
  Nb  Nb137  1  0.39542739  0.19724075  0.59950686  1
  Nb  Nb138  1  0.39964586  0.60196886  0.39915943  1
  Nb  Nb139  1  0.39694081  -0.00080201  0.39956771  1
  Nb  Nb140  1  0.59984910  0.80330068  0.19724097  1
  Nb  Nb141  1  0.19727016  0.20085609  0.60678115  1
  Nb  Nb142  1  0.60886900  0.39749435  0.40069850  1
  Nb  Nb143  1  -0.00559458  0.79789545  0.39735852  1
  Nb  Nb144  1  0.40130086  0.60337466  0.19700504  1
  Nb  Nb145  1  0.20186019  0.60167602  0.79187208  1
  Nb  Nb146  1  0.80075438  0.40114623  0.00291054  1
  Nb  Nb147  1  0.59376346  0.59447964  0.00113651  1
  Nb  Nb148  1  0.79850298  0.59729899  0.20271010  1
  Nb  Nb149  1  0.59217073  0.80343583  0.78933528  1
  Pd  Pd150  1  -0.00560579  0.19942587  0.79328469  1
  Pd  Pd151  1  0.80909282  0.20370112  -0.00202941  1
  Pd  Pd152  1  0.79373526  0.79061850  0.19573577  1
  Pd  Pd153  1  -0.01104829  0.39840392  0.60360919  1
  Pd  Pd154  1  0.19759025  0.59503065  -0.01452141  1
  Pd  Pd155  1  0.00913337  0.40604347  0.19924623  1
  Pd  Pd156  1  0.79836554  0.59926718  0.40379709  1
  Pd  Pd157  1  0.60309336  0.20901206  0.39506784  1
  Pd  Pd158  1  0.59163301  0.19735952  -0.00464435  1
  Pd  Pd159  1  0.39993729  0.00288385  0.59171306  1
  Pd  Pd160  1  0.60821853  0.59413684  0.59563921  1
  Pd  Pd161  1  0.40731497  0.19145724  0.40829216  1
  Pd  Pd162  1  0.20256176  0.59561009  0.59968489  1
  Pd  Pd163  1  0.59383439  -0.00545881  0.39308512  1
  Pd  Pd164  1  0.39649637  0.79937523  -0.00158208  1
  Pd  Pd165  1  0.40260184  0.19765582  0.79067074  1
  Pd  Pd166  1  0.00236113  0.60604837  -0.00521668  1
  Pd  Pd167  1  0.19320817  0.80718330  0.59526354  1
  Pd  Pd168  1  0.00500107  0.21185485  0.41597976  1
  Pd  Pd169  1  0.80065904  0.20096443  0.40409439  1
  Pd  Pd170  1  0.41051041  0.20979159  0.00362090  1
  Pd  Pd171  1  0.81021076  0.18942886  0.19563887  1
  Pd  Pd172  1  0.00646107  0.80768553  0.20128741  1
  Pd  Pd173  1  0.80432966  0.80130178  0.40685932  1
  Pd  Pd174  1  0.80092954  0.00369593  0.40701643  1
  Pd  Pd175  1  0.00117655  0.80656191  0.80013881  1
  Pd  Pd176  1  0.20274756  0.00465341  0.79642887  1
  Pd  Pd177  1  -0.00355615  0.59035144  0.20273902  1
  Pd  Pd178  1  0.39870793  0.00097243  -0.00462285  1
  Pd  Pd179  1  0.79676033  0.40342566  0.20097984  1
  Pd  Pd180  1  0.39385102  0.59964864  0.59770536  1
  Pd  Pd181  1  0.19813995  0.81157357  0.19846978  1
  Pd  Pd182  1  0.19773486  0.00409602  0.60939528  1
  Pd  Pd183  1  -0.00470856  0.19207589  0.19057073  1
  Pd  Pd184  1  0.40105985  0.80192169  0.40401203  1
  Pd  Pd185  1  0.60497397  0.39445275  0.79893825  1
  Pd  Pd186  1  0.19748701  0.80190095  -0.00214032  1
  Pd  Pd187  1  -0.00704907  0.19888606  -0.00146695  1
  Pd  Pd188  1  0.59696017  0.20057407  0.20465581  1
  Pd  Pd189  1  0.20138028  0.39867721  0.39612829  1
  Pd  Pd190  1  0.78726693  -0.00263734  0.79818972  1
  Pd  Pd191  1  0.60334160  0.40534475  0.59977429  1
  Pd  Pd192  1  0.40158375  0.80305865  0.59345171  1
  Pd  Pd193  1  -0.00477932  0.38907542  0.40033108  1
  Pd  Pd194  1  0.20194840  0.40924016  0.80660591  1
  Pd  Pd195  1  0.79932160  0.01038197  0.19978245  1
  Pd  Pd196  1  0.40461758  0.79518996  0.19684372  1
  Pd  Pd197  1  0.60413365  -0.00558469  0.79516557  1
  Pd  Pd198  1  0.18583364  0.20763369  0.41416793  1
  Pd  Pd199  1  0.20525975  0.40792879  -0.00011723  1
  Rh  Rh200  1  -0.00696976  -0.00230524  -0.00764647  1
  Rh  Rh201  1  0.80343192  -0.00285773  -0.00401957  1
  Rh  Rh202  1  0.59149044  0.00993928  0.00600538  1
  Rh  Rh203  1  0.19415251  0.20221726  0.19029004  1
  Rh  Rh204  1  0.60113870  0.60617679  0.80268202  1
  Rh  Rh205  1  0.38891053  0.60384674  0.79260507  1
  Rh  Rh206  1  0.20238164  0.79569561  0.80453917  1
  Rh  Rh207  1  0.20776553  0.39166666  0.60145684  1
  Rh  Rh208  1  0.59312646  0.58766270  0.41312858  1
  Rh  Rh209  1  0.80646868  0.79489827  0.59114127  1
  Rh  Rh210  1  0.60041254  0.79037801  -0.00333978  1
  Rh  Rh211  1  0.80136937  0.40678490  0.60324321  1
  Rh  Rh212  1  0.39832097  -0.00132555  0.20359838  1
  Rh  Rh213  1  0.59896093  0.61235437  0.19314760  1
  Rh  Rh214  1  0.79303826  0.39472641  0.80845723  1
  Rh  Rh215  1  -0.00411276  0.00029357  0.79951178  1
  Rh  Rh216  1  0.78274646  0.81115583  0.80863734  1
  Rh  Rh217  1  0.40769398  0.21162224  0.19311866  1
  Rh  Rh218  1  -0.00280223  0.39619997  -0.00276217  1
  Rh  Rh219  1  0.40168708  -0.00224402  0.80294796  1
  Rh  Rh220  1  0.40516992  0.80044497  0.80225815  1
  Rh  Rh221  1  0.40085372  0.39952094  0.80696084  1
  Rh  Rh222  1  0.20020025  0.19064876  0.79620534  1
  Rh  Rh223  1  0.60541650  0.00171022  0.60411739  1
  Rh  Rh224  1  0.41805060  0.41000732  0.40124837  1
  Rh  Rh225  1  0.21022983  0.59165726  0.21092471  1
  Rh  Rh226  1  0.00428707  0.00696613  0.20500847  1
  Rh  Rh227  1  0.59850968  0.80627935  0.39683333  1
  Rh  Rh228  1  0.79073597  0.00611132  0.59557617  1
  Rh  Rh229  1  0.78943486  0.59552803  0.80037806  1
  Rh  Rh230  1  0.00324868  0.39623419  0.80022431  1
  Rh  Rh231  1  0.60175325  0.40462581  -0.00993891  1
  Rh  Rh232  1  0.19731095  0.19793834  0.00267879  1
  Rh  Rh233  1  0.40390898  0.59719877  0.00636747  1
  Rh  Rh234  1  0.21140052  0.00159173  0.00552515  1
  Rh  Rh235  1  0.80380855  0.20009616  0.59947002  1
  Rh  Rh236  1  0.00173309  -0.00067359  0.60713125  1
  Rh  Rh237  1  0.39289907  0.39995099  0.19314948  1
  Rh  Rh238  1  0.01348540  0.59080553  0.79317557  1
  Rh  Rh239  1  0.60943244  0.38450512  0.21734090  1
  Rh  Rh240  1  0.00692098  0.60732101  0.40656673  1
  Rh  Rh241  1  0.79988985  0.19890311  0.79793901  1
  Rh  Rh242  1  -0.00671365  -0.00757221  0.39719206  1
  Rh  Rh243  1  0.59901524  0.19839062  0.60478110  1
  Rh  Rh244  1  0.59466042  0.79782226  0.60269092  1
  Rh  Rh245  1  0.79755785  0.39252764  0.39443038  1
  Rh  Rh246  1  0.19384658  0.79833117  0.39672304  1
  Rh  Rh247  1  0.60264328  0.19717966  0.79538087  1
  Rh  Rh248  1  0.40188538  0.38774329  0.61027294  1
  Rh  Rh249  1  0.20437987  0.00210278  0.38988771  1
