# generated using pymatgen
data_ZrScNbPdRh
_symmetry_space_group_name_H-M   'P 1'
_cell_length_a   16.55855829
_cell_length_b   16.56120108
_cell_length_c   16.56124460
_cell_angle_alpha   89.98462907
_cell_angle_beta   89.99478291
_cell_angle_gamma   89.98434665
_symmetry_Int_Tables_number   1
_chemical_formula_structural   ZrScNbPdRh
_chemical_formula_sum   'Zr50 Sc50 Nb50 Pd50 Rh50'
_cell_volume   4541.58335297
_cell_formula_units_Z   50
loop_
 _symmetry_equiv_pos_site_id
 _symmetry_equiv_pos_as_xyz
  1  'x, y, z'
loop_
 _atom_site_type_symbol
 _atom_site_label
 _atom_site_symmetry_multiplicity
 _atom_site_fract_x
 _atom_site_fract_y
 _atom_site_fract_z
 _atom_site_occupancy
  Zr  Zr0  1  0.70701148  0.90104557  0.09655087  1
  Zr  Zr1  1  0.69826114  0.69635675  0.09537922  1
  Zr  Zr2  1  0.89791389  0.70199672  0.30384105  1
  Zr  Zr3  1  0.69857205  0.10358688  0.09727599  1
  Zr  Zr4  1  0.69458469  0.28940485  0.49946950  1
  Zr  Zr5  1  0.29383079  0.70228474  0.09241764  1
  Zr  Zr6  1  0.70565241  0.90719508  0.69752189  1
  Zr  Zr7  1  0.50349628  0.11188759  0.50147763  1
  Zr  Zr8  1  0.69809386  0.90248865  0.49641974  1
  Zr  Zr9  1  0.10358353  0.90876392  0.50009321  1
  Zr  Zr10  1  0.50420617  0.49493906  0.69856157  1
  Zr  Zr11  1  0.10043764  0.29963516  0.10842463  1
  Zr  Zr12  1  0.89776694  0.30144355  0.29966913  1
  Zr  Zr13  1  0.50866714  0.91121554  0.10288625  1
  Zr  Zr14  1  0.09065266  0.10139297  0.09397577  1
  Zr  Zr15  1  0.50392760  0.69191325  0.70128516  1
  Zr  Zr16  1  0.09946520  0.89711679  0.29693046  1
  Zr  Zr17  1  0.70269122  0.49311062  0.50137895  1
  Zr  Zr18  1  0.50938692  0.50012737  0.50223809  1
  Zr  Zr19  1  0.89278193  0.49785929  0.49900184  1
  Zr  Zr20  1  0.08936668  0.68593729  0.69884923  1
  Zr  Zr21  1  0.89469907  0.89592533  0.29959698  1
  Zr  Zr22  1  0.50490335  0.69833036  0.48838680  1
  Zr  Zr23  1  0.69855012  0.49369638  0.70033391  1
  Zr  Zr24  1  0.90285790  0.69715879  0.88763459  1
  Zr  Zr25  1  0.30512914  0.68808337  0.90628963  1
  Zr  Zr26  1  0.10624791  0.10866957  0.30032795  1
  Zr  Zr27  1  0.89956196  0.88967447  0.50720910  1
  Zr  Zr28  1  0.89842238  0.49057759  0.29967268  1
  Zr  Zr29  1  0.29791135  0.49735341  0.29749046  1
  Zr  Zr30  1  0.10421860  0.29585090  0.89640424  1
  Zr  Zr31  1  0.30270199  0.89015185  0.90019320  1
  Zr  Zr32  1  0.30677201  0.10741254  0.89310673  1
  Zr  Zr33  1  0.09649429  0.10204383  0.70619076  1
  Zr  Zr34  1  0.30265388  0.09531704  0.49342644  1
  Zr  Zr35  1  0.89528401  0.29938696  0.90027544  1
  Zr  Zr36  1  0.09901650  0.30848685  0.30398844  1
  Zr  Zr37  1  0.89141275  0.09471920  0.70275465  1
  Zr  Zr38  1  0.30521231  0.90591070  0.30401659  1
  Zr  Zr39  1  0.09913619  0.28980122  0.69746167  1
  Zr  Zr40  1  0.29964452  0.50275155  0.70327483  1
  Zr  Zr41  1  0.10564644  0.10615030  0.50460116  1
  Zr  Zr42  1  0.50906760  0.30346539  0.29567457  1
  Zr  Zr43  1  0.89949878  0.49719347  0.90369631  1
  Zr  Zr44  1  0.50494027  0.11138909  0.09221601  1
  Zr  Zr45  1  0.50222101  0.89996371  0.90333527  1
  Zr  Zr46  1  0.89814116  0.89372159  0.70175029  1
  Zr  Zr47  1  0.30390831  0.10685707  0.10262609  1
  Zr  Zr48  1  0.50534028  0.89323220  0.30026654  1
  Zr  Zr49  1  0.89143045  0.90204992  0.90184292  1
  Sc  Sc50  1  0.70245165  0.69852034  0.69977670  1
  Sc  Sc51  1  0.50507562  0.28009783  0.89568480  1
  Sc  Sc52  1  0.88949022  0.30567752  0.49915327  1
  Sc  Sc53  1  0.69832231  0.70087792  0.90449964  1
  Sc  Sc54  1  0.69949331  0.29909220  0.70528324  1
  Sc  Sc55  1  0.70569024  0.30135193  0.89432991  1
  Sc  Sc56  1  0.69512113  0.09630969  0.50033205  1
  Sc  Sc57  1  0.70099992  0.10481409  0.69333255  1
  Sc  Sc58  1  0.70262327  0.89833947  0.90630754  1
  Sc  Sc59  1  0.10679578  0.69430455  0.90217817  1
  Sc  Sc60  1  0.50038569  0.91365475  0.49077589  1
  Sc  Sc61  1  0.29946338  0.50102714  0.09629093  1
  Sc  Sc62  1  0.90067354  0.51502755  0.70192537  1
  Sc  Sc63  1  0.90071025  0.10043933  0.90656002  1
  Sc  Sc64  1  0.30432394  0.30157972  0.10877217  1
  Sc  Sc65  1  0.31131277  0.70030905  0.30122759  1
  Sc  Sc66  1  0.08909481  0.70852896  0.28934500  1
  Sc  Sc67  1  0.90661149  0.69292150  0.10410595  1
  Sc  Sc68  1  0.50136523  0.09451065  0.30266750  1
  Sc  Sc69  1  0.49962291  0.70058934  0.90289438  1
  Sc  Sc70  1  0.09765369  0.49458485  0.29967650  1
  Sc  Sc71  1  0.30078138  0.10612529  0.30451236  1
  Sc  Sc72  1  0.89669401  0.10403628  0.09130669  1
  Sc  Sc73  1  0.49589136  0.50146051  0.10500747  1
  Sc  Sc74  1  0.10216225  0.50211005  0.49290080  1
  Sc  Sc75  1  0.29438635  0.69694127  0.71070419  1
  Sc  Sc76  1  0.89751587  0.30227674  0.09864504  1
  Sc  Sc77  1  0.28959377  0.30128613  0.29782775  1
  Sc  Sc78  1  0.29032639  0.50627594  0.49437089  1
  Sc  Sc79  1  0.70086129  0.90492102  0.29776215  1
  Sc  Sc80  1  0.88403804  0.10224053  0.50051698  1
  Sc  Sc81  1  0.70244019  0.29842346  0.29422305  1
  Sc  Sc82  1  0.09558820  0.90720165  0.89532027  1
  Sc  Sc83  1  0.70009994  0.71444018  0.30440801  1
  Sc  Sc84  1  0.88942443  0.29547834  0.69904042  1
  Sc  Sc85  1  0.49481194  0.90151260  0.70364197  1
  Sc  Sc86  1  0.30377572  0.89013596  0.10335821  1
  Sc  Sc87  1  0.70602671  0.69814624  0.49903305  1
  Sc  Sc88  1  0.29969657  0.90372014  0.70530206  1
  Sc  Sc89  1  0.09071254  0.90334803  0.69837388  1
  Sc  Sc90  1  0.10851288  0.49644331  0.90436055  1
  Sc  Sc91  1  0.30308884  0.29296085  0.70125029  1
  Sc  Sc92  1  0.09810320  0.69168520  0.50620547  1
  Sc  Sc93  1  0.30370998  0.10058384  0.69724764  1
  Sc  Sc94  1  0.09017140  0.50145341  0.09981933  1
  Sc  Sc95  1  0.49348502  0.69924183  0.09488802  1
  Sc  Sc96  1  0.10095507  0.88957028  0.10260825  1
  Sc  Sc97  1  0.50312188  0.51194891  0.90008977  1
  Sc  Sc98  1  0.70485646  0.50179106  0.90114512  1
  Sc  Sc99  1  0.70458899  0.10731086  0.89963612  1
  Nb  Nb100  1  0.09975836  0.30271498  0.49813714  1
  Nb  Nb101  1  0.49362954  0.29965144  0.50431952  1
  Nb  Nb102  1  0.69599193  0.48878201  0.29462197  1
  Nb  Nb103  1  0.49778708  0.29408872  0.69358030  1
  Nb  Nb104  1  0.30437052  0.29959629  0.49875376  1
  Nb  Nb105  1  0.50594985  0.29663546  0.09796765  1
  Nb  Nb106  1  0.89798138  0.09913435  0.30408065  1
  Nb  Nb107  1  0.09926606  0.49723646  0.69339410  1
  Nb  Nb108  1  0.89936465  0.69913855  0.50639687  1
  Nb  Nb109  1  0.49945968  0.11196370  0.70697191  1
  Nb  Nb110  1  0.50132542  0.50378452  0.30431242  1
  Nb  Nb111  1  0.89606985  0.49968907  0.10367104  1
  Nb  Nb112  1  0.50355910  0.10033757  0.90080990  1
  Nb  Nb113  1  0.10042281  0.70038563  0.10386030  1
  Nb  Nb114  1  0.30464192  0.49439886  0.90122328  1
  Nb  Nb115  1  0.50544433  0.69281966  0.30144115  1
  Nb  Nb116  1  0.71564818  0.10089857  0.31207071  1
  Nb  Nb117  1  0.68866095  0.30165965  0.10491816  1
  Nb  Nb118  1  0.30000087  0.90150592  0.50085295  1
  Nb  Nb119  1  0.69818415  0.49730129  0.10166335  1
  Nb  Nb120  1  0.29986829  0.30297421  0.90040265  1
  Nb  Nb121  1  0.90569476  0.70739779  0.68612225  1
  Nb  Nb122  1  0.29764354  0.70031327  0.50145722  1
  Nb  Nb123  1  0.89915130  0.90441924  0.09164371  1
  Nb  Nb124  1  0.10112321  0.10277885  0.90421369  1
  Nb  Nb125  1  0.20167878  0.19942989  -0.00349279  1
  Nb  Nb126  1  0.59385248  0.80120292  0.59727027  1
  Nb  Nb127  1  -0.00293204  0.79839351  0.00007628  1
  Nb  Nb128  1  -0.00990377  0.60177234  0.39966242  1
  Nb  Nb129  1  0.39943312  0.60416177  0.59626120  1
  Nb  Nb130  1  0.40525444  0.39254138  -0.00668335  1
  Nb  Nb131  1  -0.00205856  0.20025773  0.40112854  1
  Nb  Nb132  1  0.39708801  0.79660478  0.59351199  1
  Nb  Nb133  1  -0.00353566  0.00639757  0.39625985  1
  Nb  Nb134  1  0.59663591  0.39614517  0.00537380  1
  Nb  Nb135  1  0.19704805  0.00216174  0.19606752  1
  Nb  Nb136  1  0.00329585  0.40076716  0.79330779  1
  Nb  Nb137  1  -0.00358515  0.00010600  0.20189197  1
  Nb  Nb138  1  0.59629314  0.00755417  0.80183350  1
  Nb  Nb139  1  0.20468367  0.79899205  0.59690281  1
  Nb  Nb140  1  0.20507664  0.80064005  0.40716252  1
  Nb  Nb141  1  0.40016232  0.00440663  -0.00113624  1
  Nb  Nb142  1  0.20410510  0.00431183  0.00072619  1
  Nb  Nb143  1  0.40140213  0.39661290  0.80520660  1
  Nb  Nb144  1  0.19665804  0.39537934  0.59825134  1
  Nb  Nb145  1  0.40635441  0.39958068  0.40354726  1
  Nb  Nb146  1  0.00422239  0.39976568  0.60307206  1
  Nb  Nb147  1  0.79346172  0.59086081  0.20160456  1
  Nb  Nb148  1  0.60136030  0.59761328  0.20770509  1
  Nb  Nb149  1  0.19631616  0.60671403  0.19634647  1
  Pd  Pd150  1  0.79061838  0.39531025  0.00587371  1
  Pd  Pd151  1  0.20558460  0.39490732  0.00980497  1
  Pd  Pd152  1  0.20023336  0.00199781  0.80130044  1
  Pd  Pd153  1  0.80446263  0.00605076  0.19463651  1
  Pd  Pd154  1  0.00815597  0.79596182  0.41090025  1
  Pd  Pd155  1  0.61733930  0.59902642  0.39383658  1
  Pd  Pd156  1  0.40380837  0.39848393  0.20101626  1
  Pd  Pd157  1  0.40351795  0.20341477  0.20961876  1
  Pd  Pd158  1  0.60531639  0.80770831  0.79375301  1
  Pd  Pd159  1  0.80175705  0.20020022  0.19465185  1
  Pd  Pd160  1  0.40128992  0.79257778  0.79504540  1
  Pd  Pd161  1  0.59045797  -0.00074530  0.60870219  1
  Pd  Pd162  1  0.40166382  0.20896999  0.39214194  1
  Pd  Pd163  1  0.21041808  0.20291072  0.59641967  1
  Pd  Pd164  1  0.19599335  0.59449793  0.80429951  1
  Pd  Pd165  1  0.00744978  0.79845393  0.80481473  1
  Pd  Pd166  1  0.40063288  0.80279286  0.40353277  1
  Pd  Pd167  1  0.59729315  0.79218094  0.19553750  1
  Pd  Pd168  1  0.59676948  0.79878687  0.00443513  1
  Pd  Pd169  1  -0.00839417  0.00794177  0.59346084  1
  Pd  Pd170  1  0.79657651  0.59781326  0.39127864  1
  Pd  Pd171  1  -0.00672263  0.00403818  0.80524271  1
  Pd  Pd172  1  0.18941653  0.80603464  -0.00720869  1
  Pd  Pd173  1  0.19056061  0.79970321  0.79316955  1
  Pd  Pd174  1  0.60766587  0.60019306  0.80575734  1
  Pd  Pd175  1  -0.00879099  0.19717206  0.20385737  1
  Pd  Pd176  1  0.20095206  0.39856985  0.79137581  1
  Pd  Pd177  1  0.60467040  0.18844897  0.21171859  1
  Pd  Pd178  1  0.80285799  0.79301477  0.19041555  1
  Pd  Pd179  1  -0.00996485  0.20042561  0.80346101  1
  Pd  Pd180  1  0.38978216  0.40687240  0.59823280  1
  Pd  Pd181  1  0.80415760  0.60220368  0.00392982  1
  Pd  Pd182  1  0.40488232  0.79572315  0.19790499  1
  Pd  Pd183  1  0.39748925  0.00329890  0.19658797  1
  Pd  Pd184  1  0.60471684  0.38871047  0.60146654  1
  Pd  Pd185  1  0.18743159  0.61460973  0.38397884  1
  Pd  Pd186  1  0.00082271  0.39661442  -0.00305920  1
  Pd  Pd187  1  -0.01397010  0.20418878  0.59057232  1
  Pd  Pd188  1  0.39795839  0.60320464  0.19607133  1
  Pd  Pd189  1  0.60885813  0.00942253  0.20706353  1
  Pd  Pd190  1  0.79702567  0.60140805  0.60487482  1
  Pd  Pd191  1  0.60057310  0.39365001  0.40176401  1
  Pd  Pd192  1  0.79363167  0.79555211  0.79890789  1
  Pd  Pd193  1  0.20209342  -0.00291090  0.61138218  1
  Pd  Pd194  1  0.39872975  0.59222743  0.40475491  1
  Pd  Pd195  1  0.40495544  0.00167233  0.80368030  1
  Pd  Pd196  1  0.00262685  0.60385414  -0.00245725  1
  Pd  Pd197  1  0.79720910  0.60285959  0.79606487  1
  Pd  Pd198  1  0.40666671  -0.00002550  0.60055039  1
  Pd  Pd199  1  0.59059861  0.39486235  0.81220075  1
  Rh  Rh200  1  0.39727111  0.19386201  0.59950082  1
  Rh  Rh201  1  0.80277668  0.40192157  0.60867563  1
  Rh  Rh202  1  0.80939982  0.40678707  0.79569869  1
  Rh  Rh203  1  0.00302186  0.21000276  -0.00330435  1
  Rh  Rh204  1  0.60105646  0.60676857  0.59666126  1
  Rh  Rh205  1  0.60213524  0.19747979  0.39507624  1
  Rh  Rh206  1  0.80337299  -0.00211114  0.59700051  1
  Rh  Rh207  1  0.19720608  0.41317472  0.19431808  1
  Rh  Rh208  1  -0.00224867  0.40153003  0.19433842  1
  Rh  Rh209  1  0.40313373  0.59532539  0.79787799  1
  Rh  Rh210  1  0.61113069  0.20771886  -0.00582213  1
  Rh  Rh211  1  0.21064201  0.79592010  0.21108188  1
  Rh  Rh212  1  0.60461673  0.00752348  0.39250214  1
  Rh  Rh213  1  0.01182811  0.79843460  0.59825605  1
  Rh  Rh214  1  0.78988421  0.79726128  0.60050223  1
  Rh  Rh215  1  0.80106586  0.19559143  0.80001468  1
  Rh  Rh216  1  0.78797378  0.39314589  0.39829771  1
  Rh  Rh217  1  0.59923533  0.20224172  0.60442733  1
  Rh  Rh218  1  0.20638928  0.59942446  0.60527387  1
  Rh  Rh219  1  0.79538584  0.20690287  0.00366331  1
  Rh  Rh220  1  0.20086065  0.19712130  0.19391853  1
  Rh  Rh221  1  0.59331930  0.40769130  0.19362246  1
  Rh  Rh222  1  0.80214644  0.20538869  0.40117868  1
  Rh  Rh223  1  0.40368701  0.00310236  0.39966512  1
  Rh  Rh224  1  0.39497183  0.20321266  -0.00068474  1
  Rh  Rh225  1  -0.00218139  0.59283736  0.20791830  1
  Rh  Rh226  1  0.00529536  0.58786302  0.80795580  1
  Rh  Rh227  1  -0.00241029  0.40072353  0.41045209  1
  Rh  Rh228  1  -0.01289946  0.80793410  0.18631433  1
  Rh  Rh229  1  0.79321322  0.00673505  -0.00160015  1
  Rh  Rh230  1  0.59897500  0.59309014  0.00668467  1
  Rh  Rh231  1  0.79751121  0.80373409  0.40668943  1
  Rh  Rh232  1  0.60600532  0.19666908  0.79549904  1
  Rh  Rh233  1  0.19781759  0.59440139  0.00736649  1
  Rh  Rh234  1  0.79431176  0.20086471  0.59924543  1
  Rh  Rh235  1  0.60172086  0.00398131  -0.00765134  1
  Rh  Rh236  1  0.19795529  0.20754114  0.40575478  1
  Rh  Rh237  1  0.40706990  0.80838430  0.00334564  1
  Rh  Rh238  1  -0.00586615  0.59102398  0.58838099  1
  Rh  Rh239  1  0.80109640  0.39889476  0.19335666  1
  Rh  Rh240  1  0.19700367  -0.00464126  0.39118562  1
  Rh  Rh241  1  0.79290200  0.00354258  0.80530040  1
  Rh  Rh242  1  0.80342850  -0.00706031  0.40487680  1
  Rh  Rh243  1  0.40056310  0.20704233  0.79693046  1
  Rh  Rh244  1  0.40088605  0.59106634  0.00058260  1
  Rh  Rh245  1  0.00670984  -0.01050845  0.00391764  1
  Rh  Rh246  1  0.20971593  0.39413294  0.40659186  1
  Rh  Rh247  1  0.20263334  0.19541432  0.80228445  1
  Rh  Rh248  1  0.60142649  0.80339343  0.40317089  1
  Rh  Rh249  1  0.81158325  0.79004320  0.00132359  1
