# generated using pymatgen
data_ZrScNbPdRh
_symmetry_space_group_name_H-M   'P 1'
_cell_length_a   16.55422297
_cell_length_b   16.55819629
_cell_length_c   16.55399278
_cell_angle_alpha   89.99044778
_cell_angle_beta   90.00558354
_cell_angle_gamma   90.06163882
_symmetry_Int_Tables_number   1
_chemical_formula_structural   ZrScNbPdRh
_chemical_formula_sum   'Zr50 Sc50 Nb50 Pd50 Rh50'
_cell_volume   4537.58035656
_cell_formula_units_Z   50
loop_
 _symmetry_equiv_pos_site_id
 _symmetry_equiv_pos_as_xyz
  1  'x, y, z'
loop_
 _atom_site_type_symbol
 _atom_site_label
 _atom_site_symmetry_multiplicity
 _atom_site_fract_x
 _atom_site_fract_y
 _atom_site_fract_z
 _atom_site_occupancy
  Zr  Zr0  1  0.49087910  0.89839701  0.69736511  1
  Zr  Zr1  1  0.90558914  0.29702808  0.70048688  1
  Zr  Zr2  1  0.29847547  0.69926017  0.90613366  1
  Zr  Zr3  1  0.49112150  0.30628081  0.29335051  1
  Zr  Zr4  1  0.69690555  0.49751902  0.50058715  1
  Zr  Zr5  1  0.50101842  0.49571058  0.10499663  1
  Zr  Zr6  1  0.49680943  0.90734399  0.31168376  1
  Zr  Zr7  1  0.10293019  0.69555049  0.30417147  1
  Zr  Zr8  1  0.50087941  0.29828339  0.50018112  1
  Zr  Zr9  1  0.89660652  0.90408546  0.70482593  1
  Zr  Zr10  1  0.10353934  0.08882415  0.30296415  1
  Zr  Zr11  1  0.29763069  0.50470415  0.10118257  1
  Zr  Zr12  1  0.90046760  0.50419449  0.89657575  1
  Zr  Zr13  1  0.49696870  0.49990371  0.29750199  1
  Zr  Zr14  1  0.10306377  0.70082863  0.09744143  1
  Zr  Zr15  1  0.09768232  0.30203280  0.10279858  1
  Zr  Zr16  1  0.90617172  0.70141265  0.90912753  1
  Zr  Zr17  1  0.09664646  0.70396650  0.90520343  1
  Zr  Zr18  1  0.90194374  0.30015038  0.49997920  1
  Zr  Zr19  1  0.28605345  0.70023257  0.50125663  1
  Zr  Zr20  1  0.90936626  0.30054108  0.90333117  1
  Zr  Zr21  1  0.28956741  0.10237511  0.90386135  1
  Zr  Zr22  1  0.70362075  0.50586155  0.29974691  1
  Zr  Zr23  1  0.09877860  0.70343613  0.49839988  1
  Zr  Zr24  1  0.71201765  0.71034595  0.10348112  1
  Zr  Zr25  1  0.70152930  0.30471255  0.70099032  1
  Zr  Zr26  1  0.09828676  0.29824762  0.69449742  1
  Zr  Zr27  1  0.10194201  0.51000415  0.49888560  1
  Zr  Zr28  1  0.10362007  0.70151934  0.68737140  1
  Zr  Zr29  1  0.89826865  0.29667123  0.09504776  1
  Zr  Zr30  1  0.29841354  0.49181217  0.70080400  1
  Zr  Zr31  1  0.70725669  0.09284244  0.08793087  1
  Zr  Zr32  1  0.29662833  0.29422552  0.10550116  1
  Zr  Zr33  1  0.10512839  0.50635473  0.89582902  1
  Zr  Zr34  1  0.90211153  0.69970104  0.50532649  1
  Zr  Zr35  1  0.49796114  0.09941049  0.69795861  1
  Zr  Zr36  1  0.89656900  0.69324274  0.29205238  1
  Zr  Zr37  1  0.70304112  0.70815681  0.69067803  1
  Zr  Zr38  1  0.69738593  0.28995566  0.49780949  1
  Zr  Zr39  1  0.50449397  0.70429125  0.69244817  1
  Zr  Zr40  1  0.89629764  0.09245868  0.30480816  1
  Zr  Zr41  1  0.09574769  0.09822164  0.50609096  1
  Zr  Zr42  1  0.89928998  0.50171796  0.30153355  1
  Zr  Zr43  1  0.50122716  0.50229642  0.90518268  1
  Zr  Zr44  1  0.70188523  0.90136582  0.09092198  1
  Zr  Zr45  1  0.70170338  0.50397036  0.70431309  1
  Zr  Zr46  1  0.30094494  0.09737041  0.29555682  1
  Zr  Zr47  1  0.50023295  0.29633555  0.70786548  1
  Zr  Zr48  1  0.51017417  0.09574638  0.49351877  1
  Zr  Zr49  1  0.50502553  0.10210318  0.89281763  1
  Sc  Sc50  1  0.30109967  0.89987217  0.90323325  1
  Sc  Sc51  1  0.50351637  0.89877906  0.08960486  1
  Sc  Sc52  1  0.30019667  0.49129300  0.50156310  1
  Sc  Sc53  1  0.10291353  0.09409458  0.90135614  1
  Sc  Sc54  1  0.10766001  0.90141000  0.09407338  1
  Sc  Sc55  1  0.89330943  0.90305985  0.10156188  1
  Sc  Sc56  1  0.70303921  0.89127113  0.49542905  1
  Sc  Sc57  1  0.90630090  0.90293113  0.49680633  1
  Sc  Sc58  1  0.90431518  0.09389006  0.90156845  1
  Sc  Sc59  1  0.29734243  0.30425244  0.50741450  1
  Sc  Sc60  1  0.68891381  0.70145593  0.50096648  1
  Sc  Sc61  1  0.89814256  0.31016943  0.30259431  1
  Sc  Sc62  1  0.49106928  0.09480448  0.09835805  1
  Sc  Sc63  1  0.89766617  0.90599809  0.30173119  1
  Sc  Sc64  1  0.50247539  0.70019945  0.09215390  1
  Sc  Sc65  1  0.71336474  0.70000826  0.90764050  1
  Sc  Sc66  1  0.09251329  0.50096203  0.29585829  1
  Sc  Sc67  1  0.50069131  0.49084475  0.49732973  1
  Sc  Sc68  1  0.70644700  0.89684317  0.29601142  1
  Sc  Sc69  1  0.70864764  0.50213971  0.89972714  1
  Sc  Sc70  1  0.29601181  0.90717389  0.30605881  1
  Sc  Sc71  1  0.89640260  0.49430038  0.70801393  1
  Sc  Sc72  1  0.90320690  0.49754050  0.49342136  1
  Sc  Sc73  1  0.71102484  0.30369523  0.90772868  1
  Sc  Sc74  1  0.69927240  0.09773924  0.31733545  1
  Sc  Sc75  1  0.49374549  0.89650876  0.90289465  1
  Sc  Sc76  1  0.29827756  0.49807882  0.29663385  1
  Sc  Sc77  1  0.90279218  0.09187844  0.09456838  1
  Sc  Sc78  1  0.69586106  0.49842368  0.09956411  1
  Sc  Sc79  1  0.90805228  0.89729775  0.89674177  1
  Sc  Sc80  1  0.29250075  0.69748065  0.29656193  1
  Sc  Sc81  1  0.70163109  0.70223489  0.29825298  1
  Sc  Sc82  1  0.09250787  0.90591051  0.69891252  1
  Sc  Sc83  1  0.50528445  0.70442506  0.29944935  1
  Sc  Sc84  1  0.09576262  0.09724768  0.70159291  1
  Sc  Sc85  1  0.29867903  0.90265523  0.69835187  1
  Sc  Sc86  1  0.29051839  0.09251048  0.50081965  1
  Sc  Sc87  1  0.10385238  0.50075952  0.69879777  1
  Sc  Sc88  1  0.29530756  0.09044394  0.70115711  1
  Sc  Sc89  1  0.89997205  0.70836699  0.70740872  1
  Sc  Sc90  1  0.29202194  0.70163576  0.09895731  1
  Sc  Sc91  1  0.10046801  0.49942416  0.10753156  1
  Sc  Sc92  1  0.29751947  0.30228735  0.29747261  1
  Sc  Sc93  1  0.70420098  0.30061352  0.30650958  1
  Sc  Sc94  1  0.90374162  0.50108221  0.11019754  1
  Sc  Sc95  1  0.50135752  0.09805504  0.30414058  1
  Sc  Sc96  1  0.50482210  0.49156624  0.69895312  1
  Sc  Sc97  1  0.69120966  0.09530898  0.71243107  1
  Sc  Sc98  1  0.29885661  0.70769102  0.69832011  1
  Sc  Sc99  1  0.29864060  0.30603705  0.70449875  1
  Nb  Nb100  1  0.70168070  0.91170132  0.89692116  1
  Nb  Nb101  1  0.90353318  0.70738859  0.10031015  1
  Nb  Nb102  1  0.89453827  0.10007275  0.49898219  1
  Nb  Nb103  1  0.90350838  0.09717275  0.69605855  1
  Nb  Nb104  1  0.49138731  0.29849543  0.89994168  1
  Nb  Nb105  1  0.10735703  0.29638501  0.90083278  1
  Nb  Nb106  1  0.70228622  0.89835694  0.69821437  1
  Nb  Nb107  1  0.10473591  0.89892426  0.49316064  1
  Nb  Nb108  1  0.09463552  0.29955952  0.30113835  1
  Nb  Nb109  1  0.30016647  0.49633985  0.89573588  1
  Nb  Nb110  1  0.09148353  0.89753664  0.30725776  1
  Nb  Nb111  1  0.09952342  0.89645745  0.89662329  1
  Nb  Nb112  1  0.11301922  0.10200553  0.09948168  1
  Nb  Nb113  1  0.70007806  0.29313291  0.09822883  1
  Nb  Nb114  1  0.70338409  0.09439127  0.90137298  1
  Nb  Nb115  1  0.49450749  0.70489964  0.89384510  1
  Nb  Nb116  1  0.29974177  0.30340627  0.89652656  1
  Nb  Nb117  1  0.70033342  0.10128613  0.50089675  1
  Nb  Nb118  1  0.30521444  0.90194471  0.50175197  1
  Nb  Nb119  1  0.49241064  0.89889291  0.49950918  1
  Nb  Nb120  1  0.49581403  0.70282606  0.50176720  1
  Nb  Nb121  1  0.28912456  0.09369076  0.09832515  1
  Nb  Nb122  1  0.30623422  0.90196284  0.09705178  1
  Nb  Nb123  1  0.50093027  0.30122632  0.09701372  1
  Nb  Nb124  1  0.09709961  0.29981567  0.49932102  1
  Nb  Nb125  1  0.60333518  -0.00573808  0.59701141  1
  Nb  Nb126  1  0.39825850  0.20020546  0.40456073  1
  Nb  Nb127  1  0.00313202  0.19941425  0.39859837  1
  Nb  Nb128  1  0.40307676  0.60142420  0.59818150  1
  Nb  Nb129  1  0.39656439  0.80761894  0.19709305  1
  Nb  Nb130  1  0.59693560  0.61100873  0.80291961  1
  Nb  Nb131  1  0.79920788  0.19702299  0.19720212  1
  Nb  Nb132  1  0.79726647  0.60034192  0.60161011  1
  Nb  Nb133  1  0.79564496  0.00368099  0.60201632  1
  Nb  Nb134  1  0.00035740  0.19459630  0.20392654  1
  Nb  Nb135  1  0.60457265  0.80227947  0.79989707  1
  Nb  Nb136  1  0.19400556  0.80126456  0.80291824  1
  Nb  Nb137  1  0.60386727  0.00369964  0.19692822  1
  Nb  Nb138  1  0.40287794  0.19651695  0.59791979  1
  Nb  Nb139  1  0.60396598  0.19896281  0.19188583  1
  Nb  Nb140  1  0.40145622  0.60419269  0.40687771  1
  Nb  Nb141  1  0.18832080  0.39390040  0.39994996  1
  Nb  Nb142  1  0.00340488  0.80205680  0.20113064  1
  Nb  Nb143  1  0.79957791  0.19072116  0.60382920  1
  Nb  Nb144  1  0.39732433  0.20454500  -0.00154357  1
  Nb  Nb145  1  0.80505908  0.19479809  0.79842455  1
  Nb  Nb146  1  0.59574861  0.20293007  0.00047531  1
  Nb  Nb147  1  0.40297117  0.60094636  0.79864518  1
  Nb  Nb148  1  0.39686344  0.39544780  -0.00263309  1
  Nb  Nb149  1  0.20451115  0.39667886  -0.00765816  1
  Pd  Pd150  1  0.59828283  0.39819230  0.60030099  1
  Pd  Pd151  1  0.00742893  0.40069150  0.80080324  1
  Pd  Pd152  1  0.59946579  0.39547202  -0.00619497  1
  Pd  Pd153  1  0.60654249  0.60965485  -0.00271450  1
  Pd  Pd154  1  0.40392088  0.19395895  0.19851684  1
  Pd  Pd155  1  0.60940393  0.39377814  0.20507196  1
  Pd  Pd156  1  0.39817561  0.59847094  -0.00091628  1
  Pd  Pd157  1  0.20532362  0.80701401  0.39749250  1
  Pd  Pd158  1  0.00767267  0.19096506  0.00449876  1
  Pd  Pd159  1  0.59219568  0.60170832  0.40178712  1
  Pd  Pd160  1  0.80388139  0.40857770  0.00494000  1
  Pd  Pd161  1  0.60181219  0.39689734  0.39284333  1
  Pd  Pd162  1  0.20728563  0.60936411  0.79317018  1
  Pd  Pd163  1  0.79633465  0.80110132  0.80941199  1
  Pd  Pd164  1  0.80544382  0.59402663  0.01106883  1
  Pd  Pd165  1  0.39109008  0.79704647  0.59639324  1
  Pd  Pd166  1  -0.01228044  0.59259501  0.60843973  1
  Pd  Pd167  1  0.20181010  0.20511285  0.40013509  1
  Pd  Pd168  1  0.39145747  0.79274974  0.39177410  1
  Pd  Pd169  1  0.61366215  0.20869437  0.81103060  1
  Pd  Pd170  1  0.40564593  -0.00603656  0.19787703  1
  Pd  Pd171  1  0.80252318  0.40106081  0.59587287  1
  Pd  Pd172  1  0.39950685  0.00691378  -0.00620591  1
  Pd  Pd173  1  0.19968195  0.19980732  0.79194504  1
  Pd  Pd174  1  0.38737462  0.19545870  0.79637526  1
  Pd  Pd175  1  0.39461671  -0.00052773  0.80673362  1
  Pd  Pd176  1  0.19380954  0.19954436  0.20707933  1
  Pd  Pd177  1  0.79779833  0.60539917  0.40997522  1
  Pd  Pd178  1  0.59456914  -0.01172359  0.79650355  1
  Pd  Pd179  1  0.59188829  0.81060191  0.20131834  1
  Pd  Pd180  1  0.79625927  0.39498505  0.19687779  1
  Pd  Pd181  1  0.00092341  0.19175005  0.80533021  1
  Pd  Pd182  1  0.00585738  -0.00451921  0.00291865  1
  Pd  Pd183  1  -0.00941131  0.79583660  0.39294420  1
  Pd  Pd184  1  0.00201582  0.40947287  0.59951527  1
  Pd  Pd185  1  0.60471397  0.79701310  -0.01243681  1
  Pd  Pd186  1  -0.00099979  0.60584469  0.79162909  1
  Pd  Pd187  1  0.40176445  0.61288534  0.20499811  1
  Pd  Pd188  1  0.20029307  0.80983922  0.20274094  1
  Pd  Pd189  1  0.20768577  0.19986843  0.60601356  1
  Pd  Pd190  1  0.00477435  -0.00270890  0.19242305  1
  Pd  Pd191  1  0.59997248  0.80236760  0.39861010  1
  Pd  Pd192  1  0.60403486  0.60727649  0.19428714  1
  Pd  Pd193  1  0.80506188  0.79642300  0.40027644  1
  Pd  Pd194  1  0.19762615  -0.01125907  0.19983359  1
  Pd  Pd195  1  0.00807722  0.40957561  -0.00049499  1
  Pd  Pd196  1  0.60383506  0.40290164  0.81189075  1
  Pd  Pd197  1  0.19439920  -0.00700911  0.60113550  1
  Pd  Pd198  1  0.00041203  0.59223521  0.00882926  1
  Pd  Pd199  1  -0.00121368  0.80986012  0.60082257  1
  Rh  Rh200  1  0.39314131  0.79690691  0.80094026  1
  Rh  Rh201  1  0.39220716  0.00889167  0.40709899  1
  Rh  Rh202  1  0.00197213  0.00381578  0.40705605  1
  Rh  Rh203  1  0.59521391  0.81349352  0.59755392  1
  Rh  Rh204  1  0.40551882  0.00592721  0.59160204  1
  Rh  Rh205  1  0.20231628  0.80753801  -0.00642105  1
  Rh  Rh206  1  0.60861271  -0.01184503  0.40227424  1
  Rh  Rh207  1  0.59412850  0.00606119  -0.00111519  1
  Rh  Rh208  1  -0.00413724  -0.00299083  0.59502708  1
  Rh  Rh209  1  0.80552987  0.80931477  -0.00532164  1
  Rh  Rh210  1  0.20714395  0.58624316  0.39773528  1
  Rh  Rh211  1  0.19898461  -0.00455590  0.40335329  1
  Rh  Rh212  1  0.39358018  0.40290243  0.19190607  1
  Rh  Rh213  1  0.78963824  0.00816762  0.20507174  1
  Rh  Rh214  1  0.20976885  0.59367953  0.60277382  1
  Rh  Rh215  1  0.59909993  0.59311508  0.60010345  1
  Rh  Rh216  1  0.79602422  -0.00634986  0.40806166  1
  Rh  Rh217  1  0.80397315  0.00522160  0.79934043  1
  Rh  Rh218  1  0.79630716  0.40255211  0.40305153  1
  Rh  Rh219  1  0.19807847  0.59155458  0.00170758  1
  Rh  Rh220  1  -0.00493072  0.19586687  0.59262776  1
  Rh  Rh221  1  0.58903601  0.20984052  0.38528206  1
  Rh  Rh222  1  0.00239118  0.60980870  0.19714172  1
  Rh  Rh223  1  0.19673865  -0.00947556  0.80291774  1
  Rh  Rh224  1  0.19134346  0.39903708  0.59490337  1
  Rh  Rh225  1  0.20097042  0.20526382  -0.00003823  1
  Rh  Rh226  1  0.80601371  0.39051968  0.80647350  1
  Rh  Rh227  1  -0.00137462  0.60305324  0.39802108  1
  Rh  Rh228  1  0.60223012  0.19191055  0.60650275  1
  Rh  Rh229  1  0.81060301  -0.00732474  -0.01257217  1
  Rh  Rh230  1  0.19604561  0.59697272  0.20156581  1
  Rh  Rh231  1  0.79514718  0.60008292  0.19330484  1
  Rh  Rh232  1  0.40594980  0.39557764  0.60604774  1
  Rh  Rh233  1  0.00474918  0.39893268  0.39963817  1
  Rh  Rh234  1  0.38746764  0.40035807  0.39689319  1
  Rh  Rh235  1  0.40591487  0.40798813  0.80276155  1
  Rh  Rh236  1  0.39607526  0.79590645  0.00885239  1
  Rh  Rh237  1  0.00187361  0.00267099  0.80145795  1
  Rh  Rh238  1  0.00867072  0.79673159  0.79718524  1
  Rh  Rh239  1  -0.00183484  0.80832452  0.01107780  1
  Rh  Rh240  1  0.79925487  0.19512137  -0.00471789  1
  Rh  Rh241  1  0.19951169  -0.00501550  -0.00157844  1
  Rh  Rh242  1  0.80991681  0.80281160  0.20194701  1
  Rh  Rh243  1  -0.00358335  0.39318872  0.20239559  1
  Rh  Rh244  1  0.80907550  0.20271453  0.40037822  1
  Rh  Rh245  1  0.80717587  0.80244500  0.59367728  1
  Rh  Rh246  1  0.79648030  0.60852789  0.79272875  1
  Rh  Rh247  1  0.19721010  0.40026470  0.20336700  1
  Rh  Rh248  1  0.19766951  0.81298953  0.60300024  1
  Rh  Rh249  1  0.19064203  0.39601167  0.80241789  1
