# generated using pymatgen
data_ZrScNbPdRh
_symmetry_space_group_name_H-M   'P 1'
_cell_length_a   16.55358026
_cell_length_b   16.55396401
_cell_length_c   16.55590267
_cell_angle_alpha   90.00944977
_cell_angle_beta   89.98773920
_cell_angle_gamma   90.01662459
_symmetry_Int_Tables_number   1
_chemical_formula_structural   ZrScNbPdRh
_chemical_formula_sum   'Zr50 Sc50 Nb50 Pd50 Rh50'
_cell_volume   4536.77014056
_cell_formula_units_Z   50
loop_
 _symmetry_equiv_pos_site_id
 _symmetry_equiv_pos_as_xyz
  1  'x, y, z'
loop_
 _atom_site_type_symbol
 _atom_site_label
 _atom_site_symmetry_multiplicity
 _atom_site_fract_x
 _atom_site_fract_y
 _atom_site_fract_z
 _atom_site_occupancy
  Zr  Zr0  1  0.69212429  0.89637357  0.30651948  1
  Zr  Zr1  1  0.89093574  0.10129225  0.09884940  1
  Zr  Zr2  1  0.09960163  0.89268302  0.10149095  1
  Zr  Zr3  1  0.11016691  0.30388760  0.49734702  1
  Zr  Zr4  1  0.90517401  0.69676000  0.30314849  1
  Zr  Zr5  1  0.29908692  0.50813924  0.09066082  1
  Zr  Zr6  1  0.49187275  0.68345180  0.69429393  1
  Zr  Zr7  1  0.30180248  0.10172584  0.50828197  1
  Zr  Zr8  1  0.50123659  0.09457411  0.09294911  1
  Zr  Zr9  1  0.89505249  0.30543285  0.90270471  1
  Zr  Zr10  1  0.29918331  0.49887243  0.49263850  1
  Zr  Zr11  1  0.90305516  0.69967987  0.09859548  1
  Zr  Zr12  1  0.30500023  0.50521316  0.70349378  1
  Zr  Zr13  1  0.70366135  0.48693323  0.90101223  1
  Zr  Zr14  1  0.30054645  0.29349305  0.70146782  1
  Zr  Zr15  1  0.90417827  0.30427122  0.48910841  1
  Zr  Zr16  1  0.90578350  0.09009406  0.70512251  1
  Zr  Zr17  1  0.50469294  0.29853104  0.70431504  1
  Zr  Zr18  1  0.70177839  0.10829328  0.91277546  1
  Zr  Zr19  1  0.30617155  0.50399786  0.90343156  1
  Zr  Zr20  1  0.69948416  0.09769662  0.29769772  1
  Zr  Zr21  1  0.11075234  0.30594035  0.69429755  1
  Zr  Zr22  1  0.10328188  0.89865001  0.50469561  1
  Zr  Zr23  1  0.50484379  0.10129626  0.50352333  1
  Zr  Zr24  1  0.29915816  0.89456775  0.10249801  1
  Zr  Zr25  1  0.49314385  0.30046983  0.10143957  1
  Zr  Zr26  1  0.89339758  0.10426345  0.29777367  1
  Zr  Zr27  1  0.10288725  0.10339705  0.50057628  1
  Zr  Zr28  1  0.50070924  0.90052005  0.90579200  1
  Zr  Zr29  1  0.89017971  0.89738635  0.69913898  1
  Zr  Zr30  1  0.09785832  0.50212143  0.50413740  1
  Zr  Zr31  1  0.10263512  0.30217904  0.09920522  1
  Zr  Zr32  1  0.50162572  0.89494531  0.29152593  1
  Zr  Zr33  1  0.30362480  0.90002445  0.29848073  1
  Zr  Zr34  1  0.09588435  0.69387751  0.29891978  1
  Zr  Zr35  1  0.50372081  0.09840543  0.29685492  1
  Zr  Zr36  1  0.09968277  0.69625089  0.69524358  1
  Zr  Zr37  1  0.89751441  0.70181882  0.90178847  1
  Zr  Zr38  1  0.69175229  0.49390625  0.29857419  1
  Zr  Zr39  1  0.69591518  0.30080279  0.08915770  1
  Zr  Zr40  1  0.90485799  0.69560097  0.70397987  1
  Zr  Zr41  1  0.69828739  0.70607928  0.49838269  1
  Zr  Zr42  1  0.90892403  0.49572895  0.30056226  1
  Zr  Zr43  1  0.70118551  0.69624108  0.90177775  1
  Zr  Zr44  1  0.09758559  0.30561075  0.30076297  1
  Zr  Zr45  1  0.89103657  0.89422544  0.50403176  1
  Zr  Zr46  1  0.70269608  0.10176145  0.10458549  1
  Zr  Zr47  1  0.09640559  0.90670043  0.70579070  1
  Zr  Zr48  1  0.69442582  0.69457357  0.09233399  1
  Zr  Zr49  1  0.89945654  0.30074169  0.29786545  1
  Sc  Sc50  1  0.50312830  0.70260637  0.91016522  1
  Sc  Sc51  1  0.89800645  0.10242835  0.90165338  1
  Sc  Sc52  1  0.09844615  0.70296461  0.10388535  1
  Sc  Sc53  1  0.30038238  0.69684855  0.30714126  1
  Sc  Sc54  1  0.29992185  0.50352334  0.30017565  1
  Sc  Sc55  1  0.49610209  0.50528554  0.10075095  1
  Sc  Sc56  1  0.69505264  0.90559519  0.10696149  1
  Sc  Sc57  1  0.68797897  0.70326626  0.30613054  1
  Sc  Sc58  1  0.90438789  0.30338663  0.09687572  1
  Sc  Sc59  1  0.90737284  0.09791867  0.49100035  1
  Sc  Sc60  1  0.10572799  0.29622281  0.91139938  1
  Sc  Sc61  1  0.69427822  0.49895135  0.09740223  1
  Sc  Sc62  1  0.89436160  0.30672683  0.69898951  1
  Sc  Sc63  1  0.90193028  0.69972008  0.50651074  1
  Sc  Sc64  1  0.28864178  0.89972722  0.89768786  1
  Sc  Sc65  1  0.10295314  0.09910113  0.90006146  1
  Sc  Sc66  1  0.29945695  0.30793522  0.29794948  1
  Sc  Sc67  1  0.49850022  0.91155176  0.71012437  1
  Sc  Sc68  1  0.70673100  0.09857767  0.70619225  1
  Sc  Sc69  1  0.51298989  0.29550825  0.50400172  1
  Sc  Sc70  1  0.29856169  0.89759234  0.50311852  1
  Sc  Sc71  1  0.89865631  0.89923620  0.30260025  1
  Sc  Sc72  1  0.69568135  0.89188999  0.88980117  1
  Sc  Sc73  1  0.89943120  0.89282204  0.10051279  1
  Sc  Sc74  1  0.29147006  0.69480320  0.69829034  1
  Sc  Sc75  1  0.48930238  0.10319981  0.69985713  1
  Sc  Sc76  1  0.29870575  0.10304033  0.89674789  1
  Sc  Sc77  1  0.29141698  0.90494457  0.70027925  1
  Sc  Sc78  1  0.10619926  0.09989544  0.30961141  1
  Sc  Sc79  1  0.29669470  0.69899238  0.50005108  1
  Sc  Sc80  1  0.70245429  0.30878110  0.70183080  1
  Sc  Sc81  1  0.10850145  0.11149133  0.09102897  1
  Sc  Sc82  1  0.70407221  0.29935487  0.30204656  1
  Sc  Sc83  1  0.09961871  0.50479211  0.30066971  1
  Sc  Sc84  1  0.10358643  0.89777988  0.89742740  1
  Sc  Sc85  1  0.49920362  0.49474932  0.30225186  1
  Sc  Sc86  1  0.11323572  0.50255606  0.90343430  1
  Sc  Sc87  1  0.30325129  0.10424623  0.10423286  1
  Sc  Sc88  1  0.89913806  0.49481468  0.09577627  1
  Sc  Sc89  1  0.49530941  0.90216087  0.49516545  1
  Sc  Sc90  1  0.49553897  0.09570146  0.89873337  1
  Sc  Sc91  1  0.90200097  0.89641111  0.89577728  1
  Sc  Sc92  1  0.10869009  0.89657401  0.29568434  1
  Sc  Sc93  1  0.90637947  0.49830626  0.69391252  1
  Sc  Sc94  1  0.69998352  0.70530245  0.70451939  1
  Sc  Sc95  1  0.10270304  0.50163052  0.10278583  1
  Sc  Sc96  1  0.49809741  0.70552437  0.30011740  1
  Sc  Sc97  1  0.29948586  0.29999096  0.09898496  1
  Sc  Sc98  1  0.49511894  0.30295450  0.90569020  1
  Sc  Sc99  1  0.49702778  0.69543117  0.49564657  1
  Nb  Nb100  1  0.69216925  0.49837123  0.50336091  1
  Nb  Nb101  1  0.90171933  0.50219537  0.89656953  1
  Nb  Nb102  1  0.30202078  0.30638899  0.90245438  1
  Nb  Nb103  1  0.49840022  0.71099546  0.09683631  1
  Nb  Nb104  1  0.10322363  0.69803684  0.50222134  1
  Nb  Nb105  1  0.49689811  0.30142758  0.29219533  1
  Nb  Nb106  1  0.29817733  0.10333810  0.70094287  1
  Nb  Nb107  1  0.10276646  0.10350073  0.70186256  1
  Nb  Nb108  1  0.09774498  0.70036317  0.89522702  1
  Nb  Nb109  1  0.49571451  0.49690019  0.88738038  1
  Nb  Nb110  1  0.70073668  0.89664284  0.50336656  1
  Nb  Nb111  1  0.29516069  0.69570297  0.89933763  1
  Nb  Nb112  1  0.89756007  0.50123029  0.49709394  1
  Nb  Nb113  1  0.29857421  0.30610535  0.50185152  1
  Nb  Nb114  1  0.30746761  0.10135499  0.30063119  1
  Nb  Nb115  1  0.70092615  0.89909594  0.69471290  1
  Nb  Nb116  1  0.10058694  0.50247318  0.69875051  1
  Nb  Nb117  1  0.50166833  0.49896066  0.69619541  1
  Nb  Nb118  1  0.50497138  0.50430868  0.51497339  1
  Nb  Nb119  1  0.70450348  0.29092204  0.50286371  1
  Nb  Nb120  1  0.69178634  0.10527565  0.49503595  1
  Nb  Nb121  1  0.31010424  0.69124798  0.08347283  1
  Nb  Nb122  1  0.69478756  0.49835933  0.69912141  1
  Nb  Nb123  1  0.49883769  0.88780709  0.09959401  1
  Nb  Nb124  1  0.69828995  0.30040664  0.89752660  1
  Nb  Nb125  1  0.59660647  0.80669203  0.60408813  1
  Nb  Nb126  1  0.60050821  0.58954201  0.79810414  1
  Nb  Nb127  1  0.39890544  0.00722092  0.39601172  1
  Nb  Nb128  1  0.79738729  0.59162986  0.79775088  1
  Nb  Nb129  1  0.79677114  0.79089983  0.20259017  1
  Nb  Nb130  1  0.79735519  0.59246572  0.40274912  1
  Nb  Nb131  1  0.39547648  0.79445756  0.79998929  1
  Nb  Nb132  1  0.60398234  0.20449003  0.80699446  1
  Nb  Nb133  1  0.00042304  0.19738756  0.20007966  1
  Nb  Nb134  1  0.80172947  0.19873443  0.59267727  1
  Nb  Nb135  1  0.60807897  -0.00244715  0.59894576  1
  Nb  Nb136  1  0.79375385  0.59187895  0.59819957  1
  Nb  Nb137  1  0.59617217  0.20285742  0.19602717  1
  Nb  Nb138  1  0.40327751  0.80042565  0.60836366  1
  Nb  Nb139  1  0.00624383  0.79729985  0.40518202  1
  Nb  Nb140  1  0.00102200  -0.00110881  0.00627273  1
  Nb  Nb141  1  0.39921643  0.20225324  0.39790613  1
  Nb  Nb142  1  0.40338789  0.40306882  0.59813678  1
  Nb  Nb143  1  0.00369695  0.20602963  0.79461877  1
  Nb  Nb144  1  0.00121318  0.20090762  0.60388665  1
  Nb  Nb145  1  0.78882254  -0.00058816  0.40612854  1
  Nb  Nb146  1  0.00106273  0.00662752  0.19472638  1
  Nb  Nb147  1  0.00044869  0.60424190  -0.00883183  1
  Nb  Nb148  1  0.00741008  0.40181915  0.80038320  1
  Nb  Nb149  1  0.79843900  0.60145436  0.20548061  1
  Pd  Pd150  1  0.21064711  0.20439274  0.39571303  1
  Pd  Pd151  1  0.80115176  0.20361003  0.79326721  1
  Pd  Pd152  1  0.00248433  0.80066357  0.59917147  1
  Pd  Pd153  1  0.00001691  0.39566321  0.60172878  1
  Pd  Pd154  1  0.79626259  0.40272093  0.19329732  1
  Pd  Pd155  1  0.79452676  -0.00320053  0.81039756  1
  Pd  Pd156  1  0.20488251  0.40666549  0.19954950  1
  Pd  Pd157  1  0.40631054  0.59705411  0.40033235  1
  Pd  Pd158  1  0.19733771  0.20043546  0.80700658  1
  Pd  Pd159  1  0.39284803  0.40806871  0.19497732  1
  Pd  Pd160  1  0.59637585  0.39394372  0.40438283  1
  Pd  Pd161  1  0.59688757  0.60407436  0.20142543  1
  Pd  Pd162  1  0.19825952  0.79276475  -0.00000833  1
  Pd  Pd163  1  0.60479747  0.01098977  0.79757435  1
  Pd  Pd164  1  0.19791430  0.79630181  0.40002332  1
  Pd  Pd165  1  0.39161105  0.78636768  0.19926835  1
  Pd  Pd166  1  0.00729627  0.40994692  -0.00684469  1
  Pd  Pd167  1  0.59574578  0.21066366  0.38887347  1
  Pd  Pd168  1  0.58694381  0.79053906  0.79258680  1
  Pd  Pd169  1  0.39823346  0.39473503  0.79475891  1
  Pd  Pd170  1  -0.00132877  -0.00884378  0.39416470  1
  Pd  Pd171  1  0.59667150  0.59752640  0.39961112  1
  Pd  Pd172  1  0.79125253  0.80852514  0.00567684  1
  Pd  Pd173  1  0.79793824  0.40027659  0.59483141  1
  Pd  Pd174  1  0.00020302  0.00278196  0.59659077  1
  Pd  Pd175  1  0.79263889  0.40484167  0.40269669  1
  Pd  Pd176  1  0.19492828  0.00881532  0.19610838  1
  Pd  Pd177  1  0.60562855  -0.00590166  0.00049794  1
  Pd  Pd178  1  0.19845202  0.00228452  0.00358595  1
  Pd  Pd179  1  0.40010958  0.20963000  0.59444181  1
  Pd  Pd180  1  0.19775055  0.19807208  0.20595613  1
  Pd  Pd181  1  0.20395535  0.60574411  0.19613754  1
  Pd  Pd182  1  0.38912280  -0.00481366  0.80270277  1
  Pd  Pd183  1  0.19932772  0.40169697  0.80455374  1
  Pd  Pd184  1  0.60016447  0.39437704  0.59982445  1
  Pd  Pd185  1  0.21120439  0.78505630  0.19820519  1
  Pd  Pd186  1  0.39585763  0.19845228  -0.00549096  1
  Pd  Pd187  1  0.00125915  0.80335641  0.79979464  1
  Pd  Pd188  1  0.39088555  0.80369364  -0.01057021  1
  Pd  Pd189  1  0.38937128  -0.00520706  -0.00014599  1
  Pd  Pd190  1  0.79482066  0.01273892  0.59126337  1
  Pd  Pd191  1  0.20034074  0.00216970  0.60427816  1
  Pd  Pd192  1  0.19727635  0.59989208  0.80066547  1
  Pd  Pd193  1  0.41150578  0.39281769  0.40927357  1
  Pd  Pd194  1  0.80265899  -0.01213209  -0.00617457  1
  Pd  Pd195  1  0.40428252  0.60446415  0.20242041  1
  Pd  Pd196  1  0.58873306  0.40513249  -0.00128038  1
  Pd  Pd197  1  0.59120325  0.58977095  -0.00790935  1
  Pd  Pd198  1  0.20761931  -0.00184470  0.40105967  1
  Pd  Pd199  1  0.40188724  -0.00157285  0.19670057  1
  Rh  Rh200  1  0.19759926  0.40542583  0.39529313  1
  Rh  Rh201  1  0.40298244  -0.00458665  0.59755487  1
  Rh  Rh202  1  0.00704935  0.40453078  0.40175656  1
  Rh  Rh203  1  0.40520377  0.60899354  0.81135561  1
  Rh  Rh204  1  0.80027619  0.19289912  0.40647869  1
  Rh  Rh205  1  0.61455855  0.19234525  0.61670863  1
  Rh  Rh206  1  -0.00326560  0.59751948  0.59636662  1
  Rh  Rh207  1  0.61005437  0.60883220  0.60494259  1
  Rh  Rh208  1  0.20201711  0.79362418  0.79654474  1
  Rh  Rh209  1  0.80267536  -0.01356235  0.21199552  1
  Rh  Rh210  1  0.41073097  0.60024910  -0.00636787  1
  Rh  Rh211  1  0.39757646  0.80697917  0.40558722  1
  Rh  Rh212  1  0.20025488  0.00704609  0.79666332  1
  Rh  Rh213  1  0.80802542  0.40595566  0.79868061  1
  Rh  Rh214  1  0.20599348  0.39863282  0.00243250  1
  Rh  Rh215  1  0.20305653  0.79945983  0.60499805  1
  Rh  Rh216  1  0.21271233  0.41043252  0.60180038  1
  Rh  Rh217  1  0.00795962  0.80036928  -0.00783647  1
  Rh  Rh218  1  0.40329156  0.20176356  0.80598472  1
  Rh  Rh219  1  0.80868948  0.59231443  -0.00009962  1
  Rh  Rh220  1  0.60575697  0.79307762  0.19190024  1
  Rh  Rh221  1  0.19888785  0.19700295  0.60028751  1
  Rh  Rh222  1  0.00372518  0.39645973  0.19679414  1
  Rh  Rh223  1  0.00435254  0.20432007  0.39823431  1
  Rh  Rh224  1  -0.00135191  0.60518009  0.41186688  1
  Rh  Rh225  1  0.40391628  0.20187394  0.20464800  1
  Rh  Rh226  1  0.40044707  0.40513703  0.00167316  1
  Rh  Rh227  1  0.80366798  0.20879005  0.00265048  1
  Rh  Rh228  1  0.00380398  0.00673484  0.81177064  1
  Rh  Rh229  1  -0.00498732  0.19151621  -0.00086665  1
  Rh  Rh230  1  0.80657631  0.79951651  0.39399133  1
  Rh  Rh231  1  0.18963419  0.61053943  0.00193305  1
  Rh  Rh232  1  0.59853380  -0.00777071  0.40765782  1
  Rh  Rh233  1  0.80016866  0.39986610  0.00193032  1
  Rh  Rh234  1  0.00130621  0.59094136  0.80438523  1
  Rh  Rh235  1  0.59293948  0.00192910  0.19205070  1
  Rh  Rh236  1  0.79714398  0.21330039  0.19194707  1
  Rh  Rh237  1  0.39027786  0.59735686  0.59034391  1
  Rh  Rh238  1  0.20149770  0.59584791  0.59696843  1
  Rh  Rh239  1  0.80051646  0.79561406  0.79644005  1
  Rh  Rh240  1  -0.00452103  0.80994625  0.21129886  1
  Rh  Rh241  1  0.59337040  0.20223533  -0.00175860  1
  Rh  Rh242  1  0.21200317  0.20311713  -0.00447425  1
  Rh  Rh243  1  0.58837996  0.80280637  0.41023648  1
  Rh  Rh244  1  0.79482594  0.78881347  0.60675464  1
  Rh  Rh245  1  0.59823996  0.39268842  0.19842996  1
  Rh  Rh246  1  0.59720957  0.39759646  0.80224301  1
  Rh  Rh247  1  0.60484845  0.80754478  0.00430344  1
  Rh  Rh248  1  -0.00639112  0.59036694  0.18616586  1
  Rh  Rh249  1  0.19545371  0.59827711  0.40111854  1
