# generated using pymatgen
data_ZrScNbPdRh
_symmetry_space_group_name_H-M   'P 1'
_cell_length_a   16.55909443
_cell_length_b   16.55861357
_cell_length_c   16.56174665
_cell_angle_alpha   90.02658477
_cell_angle_beta   90.00864941
_cell_angle_gamma   90.02253569
_symmetry_Int_Tables_number   1
_chemical_formula_structural   ZrScNbPdRh
_chemical_formula_sum   'Zr50 Sc50 Nb50 Pd50 Rh50'
_cell_volume   4541.15792457
_cell_formula_units_Z   50
loop_
 _symmetry_equiv_pos_site_id
 _symmetry_equiv_pos_as_xyz
  1  'x, y, z'
loop_
 _atom_site_type_symbol
 _atom_site_label
 _atom_site_symmetry_multiplicity
 _atom_site_fract_x
 _atom_site_fract_y
 _atom_site_fract_z
 _atom_site_occupancy
  Zr  Zr0  1  0.09717757  0.90491347  0.49181461  1
  Zr  Zr1  1  0.50100516  0.68856074  0.50405979  1
  Zr  Zr2  1  0.70169193  0.50173881  0.09805235  1
  Zr  Zr3  1  0.29511501  0.70310263  0.69367287  1
  Zr  Zr4  1  0.49907467  0.69759149  0.70868324  1
  Zr  Zr5  1  0.10292733  0.69679638  0.70366702  1
  Zr  Zr6  1  0.30316900  0.89877220  0.70611862  1
  Zr  Zr7  1  0.10027387  0.89676436  0.09098430  1
  Zr  Zr8  1  0.89420157  0.90384024  0.30327762  1
  Zr  Zr9  1  0.89714068  0.29825286  0.89290096  1
  Zr  Zr10  1  0.50622037  0.10479998  0.10098587  1
  Zr  Zr11  1  0.69781273  0.69470730  0.70103154  1
  Zr  Zr12  1  0.30408932  0.50041762  0.50035530  1
  Zr  Zr13  1  0.90137029  0.90320150  0.90154662  1
  Zr  Zr14  1  0.10810272  0.49879149  0.29175838  1
  Zr  Zr15  1  0.69651816  0.70237419  0.10248106  1
  Zr  Zr16  1  0.50385813  0.09716793  0.49869506  1
  Zr  Zr17  1  0.89574385  0.09719509  0.29741931  1
  Zr  Zr18  1  0.48668738  0.90477617  0.09567702  1
  Zr  Zr19  1  0.50550519  0.10317495  0.69672231  1
  Zr  Zr20  1  0.50386090  0.70940583  0.10105814  1
  Zr  Zr21  1  0.10046833  0.29270871  0.49708629  1
  Zr  Zr22  1  0.48961979  0.30508961  0.89793888  1
  Zr  Zr23  1  0.89041262  0.70799466  0.30761929  1
  Zr  Zr24  1  0.70145577  0.90224698  0.89603868  1
  Zr  Zr25  1  0.30452210  0.49615004  0.30449474  1
  Zr  Zr26  1  0.69436338  0.49738978  0.49482411  1
  Zr  Zr27  1  0.29740805  0.50827897  0.10030391  1
  Zr  Zr28  1  0.49965827  0.49260246  0.50477347  1
  Zr  Zr29  1  0.69882860  0.09914991  0.70099942  1
  Zr  Zr30  1  0.29064830  0.50087473  0.69701669  1
  Zr  Zr31  1  0.09662586  0.50000486  0.69809564  1
  Zr  Zr32  1  0.70421174  0.49858287  0.89629176  1
  Zr  Zr33  1  0.89479468  0.69427274  0.68039070  1
  Zr  Zr34  1  0.30490970  0.29173775  0.71905151  1
  Zr  Zr35  1  0.89968126  0.90365090  0.70210448  1
  Zr  Zr36  1  0.68836744  0.09896872  0.49487016  1
  Zr  Zr37  1  0.89936573  0.50242329  0.30253549  1
  Zr  Zr38  1  0.90568893  0.90675275  0.09979907  1
  Zr  Zr39  1  0.70760579  0.69988625  0.50068849  1
  Zr  Zr40  1  0.69987213  0.30107207  0.90161517  1
  Zr  Zr41  1  0.69040950  0.69762190  0.90158008  1
  Zr  Zr42  1  0.69755016  0.70423595  0.29110503  1
  Zr  Zr43  1  0.10227474  0.30427221  0.10224272  1
  Zr  Zr44  1  0.29294303  0.89742790  0.50526099  1
  Zr  Zr45  1  0.10212789  0.69698576  0.90079001  1
  Zr  Zr46  1  0.91562263  0.09792008  0.49857570  1
  Zr  Zr47  1  0.10213581  0.50150048  0.90072648  1
  Zr  Zr48  1  0.30171043  0.30289707  0.08584648  1
  Zr  Zr49  1  0.50670154  0.49722970  0.70206389  1
  Sc  Sc50  1  0.89372963  0.69684598  0.09906661  1
  Sc  Sc51  1  0.29682426  0.70263285  0.29751060  1
  Sc  Sc52  1  0.10002691  0.09855241  0.30474070  1
  Sc  Sc53  1  0.10914592  0.71129703  0.30504750  1
  Sc  Sc54  1  0.89585768  0.09683004  0.88692858  1
  Sc  Sc55  1  0.30215458  0.30258742  0.48749567  1
  Sc  Sc56  1  0.10273312  0.09373664  0.49614610  1
  Sc  Sc57  1  0.90032452  0.69392115  0.90375679  1
  Sc  Sc58  1  0.30083364  0.70728422  0.09240016  1
  Sc  Sc59  1  0.10565668  0.29721895  0.29695018  1
  Sc  Sc60  1  0.11091610  0.69730312  0.09422004  1
  Sc  Sc61  1  0.10400185  0.50234239  0.09799784  1
  Sc  Sc62  1  0.49959212  0.30752125  0.70105728  1
  Sc  Sc63  1  0.30074296  0.10288403  0.30041659  1
  Sc  Sc64  1  0.29952220  0.89949062  0.30082353  1
  Sc  Sc65  1  0.49638574  0.90441394  0.29316361  1
  Sc  Sc66  1  0.49550905  0.49297968  0.09540787  1
  Sc  Sc67  1  0.09942673  0.71207749  0.50741709  1
  Sc  Sc68  1  0.90137452  0.30121130  0.11348553  1
  Sc  Sc69  1  0.90541851  0.29410481  0.70201931  1
  Sc  Sc70  1  0.29762271  0.29738848  0.30190843  1
  Sc  Sc71  1  0.89695269  0.09473846  0.10878449  1
  Sc  Sc72  1  0.30207019  0.49865808  0.90788534  1
  Sc  Sc73  1  0.49263059  0.10314279  0.30240658  1
  Sc  Sc74  1  0.50059478  0.29888075  0.09792586  1
  Sc  Sc75  1  0.30107911  0.69634567  0.89905255  1
  Sc  Sc76  1  0.10660047  0.49385648  0.51193441  1
  Sc  Sc77  1  0.09397223  0.89284384  0.89821635  1
  Sc  Sc78  1  0.68984231  0.30087372  0.10298185  1
  Sc  Sc79  1  0.90406910  0.29356238  0.49430344  1
  Sc  Sc80  1  0.69879731  0.09596419  0.90356900  1
  Sc  Sc81  1  0.89781868  0.51222016  0.50610208  1
  Sc  Sc82  1  0.90359873  0.29421646  0.30063070  1
  Sc  Sc83  1  0.50664480  0.29674851  0.50114487  1
  Sc  Sc84  1  0.70485473  0.29421843  0.30822087  1
  Sc  Sc85  1  0.31319095  0.10350011  0.09731817  1
  Sc  Sc86  1  0.90282469  0.50518280  0.09368634  1
  Sc  Sc87  1  0.49294930  0.30140380  0.30015452  1
  Sc  Sc88  1  0.29439314  0.09195981  0.71328092  1
  Sc  Sc89  1  0.10182362  0.10037678  0.89712863  1
  Sc  Sc90  1  0.69427949  0.30431618  0.70560997  1
  Sc  Sc91  1  0.69944840  0.89958933  0.10434708  1
  Sc  Sc92  1  0.09023370  0.09127450  0.68707147  1
  Sc  Sc93  1  0.10490092  0.89926538  0.69624755  1
  Sc  Sc94  1  0.29531760  0.09447934  0.48969501  1
  Sc  Sc95  1  0.08682342  0.09118116  0.10212888  1
  Sc  Sc96  1  0.69968458  0.89879761  0.70615368  1
  Sc  Sc97  1  0.09844207  0.30612962  0.70255517  1
  Sc  Sc98  1  0.50542905  0.50004689  0.30858795  1
  Sc  Sc99  1  0.49997737  0.09573331  0.90852647  1
  Nb  Nb100  1  0.29224172  0.28306458  0.90481911  1
  Nb  Nb101  1  0.89567448  0.10074098  0.69155154  1
  Nb  Nb102  1  0.70178246  0.29790471  0.50629916  1
  Nb  Nb103  1  0.70618022  0.09281032  0.29652286  1
  Nb  Nb104  1  0.10516510  0.29907966  0.90549604  1
  Nb  Nb105  1  0.70202230  0.50027402  0.69869854  1
  Nb  Nb106  1  0.49924843  0.69346642  0.90427594  1
  Nb  Nb107  1  0.49715388  0.89981598  0.69987131  1
  Nb  Nb108  1  0.30140586  0.90208933  0.09311730  1
  Nb  Nb109  1  0.70654241  0.50232195  0.30208197  1
  Nb  Nb110  1  0.49784252  0.51052046  0.89826689  1
  Nb  Nb111  1  0.89701340  0.50126169  0.69916186  1
  Nb  Nb112  1  0.30075144  0.11096222  0.90003615  1
  Nb  Nb113  1  0.50335144  0.70559082  0.29838168  1
  Nb  Nb114  1  0.50479940  0.90450502  0.50002242  1
  Nb  Nb115  1  0.10013471  0.89908404  0.29860863  1
  Nb  Nb116  1  0.29856458  0.69981469  0.50057937  1
  Nb  Nb117  1  0.90269037  0.70649433  0.49613928  1
  Nb  Nb118  1  0.70362645  0.90472740  0.30411152  1
  Nb  Nb119  1  0.31020062  0.90837748  0.90654884  1
  Nb  Nb120  1  0.69983064  0.10746763  0.10417611  1
  Nb  Nb121  1  0.89541954  0.89235359  0.49387172  1
  Nb  Nb122  1  0.69388938  0.90882331  0.49431617  1
  Nb  Nb123  1  0.89949086  0.49950226  0.90159938  1
  Nb  Nb124  1  0.49412065  0.89371774  0.89872965  1
  Nb  Nb125  1  -0.00429568  0.20541349  -0.00370405  1
  Nb  Nb126  1  0.00563622  0.60383525  0.40087730  1
  Nb  Nb127  1  0.40440944  -0.00219785  0.60147911  1
  Nb  Nb128  1  0.00391761  0.40805392  0.39791313  1
  Nb  Nb129  1  0.59790031  0.80483126  0.40161861  1
  Nb  Nb130  1  0.40694599  0.79615552  0.40634239  1
  Nb  Nb131  1  0.79524836  0.40620223  0.20627614  1
  Nb  Nb132  1  0.59476334  0.80571502  0.59643403  1
  Nb  Nb133  1  0.40569583  0.60611824  0.20200662  1
  Nb  Nb134  1  0.20279175  -0.00644757  0.19142444  1
  Nb  Nb135  1  0.00289113  0.60857255  0.20796514  1
  Nb  Nb136  1  0.39458303  0.19303242  0.60116255  1
  Nb  Nb137  1  0.20871994  -0.00117365  -0.00210420  1
  Nb  Nb138  1  0.00068236  0.80007198  0.20182213  1
  Nb  Nb139  1  0.20674586  0.19835924  0.60163193  1
  Nb  Nb140  1  -0.00672382  0.59282049  0.79583230  1
  Nb  Nb141  1  0.80052744  0.00082642  0.59237377  1
  Nb  Nb142  1  0.80172165  0.19999155  0.00478499  1
  Nb  Nb143  1  0.79686501  0.80207096  -0.00247834  1
  Nb  Nb144  1  0.20007853  0.60084595  0.40556121  1
  Nb  Nb145  1  0.79663948  0.19781780  0.59855165  1
  Nb  Nb146  1  0.59721229  0.20234681  0.80509220  1
  Nb  Nb147  1  0.00038009  0.39435715  -0.00601484  1
  Nb  Nb148  1  0.60522625  0.00667117  0.20082179  1
  Nb  Nb149  1  0.79803913  0.39816098  0.60073401  1
  Pd  Pd150  1  -0.00721723  0.78894369  0.00641321  1
  Pd  Pd151  1  0.59758028  0.20222338  0.39128939  1
  Pd  Pd152  1  0.39738057  0.79484664  0.80710696  1
  Pd  Pd153  1  0.79103113  0.81210245  0.59648022  1
  Pd  Pd154  1  0.40577185  0.80333013  0.59512241  1
  Pd  Pd155  1  0.59161783  0.58946150  0.19872074  1
  Pd  Pd156  1  0.80903267  0.39893359  0.40384793  1
  Pd  Pd157  1  0.59362961  0.00243877  0.80347683  1
  Pd  Pd158  1  0.39285342  0.38727022  0.60012181  1
  Pd  Pd159  1  0.39176431  0.59584858  0.79633881  1
  Pd  Pd160  1  0.60072303  0.19846699  0.21154036  1
  Pd  Pd161  1  0.40761116  0.00690078  0.80119959  1
  Pd  Pd162  1  0.20585028  0.39980675  0.80798676  1
  Pd  Pd163  1  0.59470717  0.80210827  0.79810834  1
  Pd  Pd164  1  0.80474682  0.60391908  0.80254804  1
  Pd  Pd165  1  0.80874384  0.39209572  0.01207630  1
  Pd  Pd166  1  0.39578246  0.60716305  0.39253611  1
  Pd  Pd167  1  0.39620788  0.20539780  0.19949954  1
  Pd  Pd168  1  0.20188606  0.18791634  0.19288047  1
  Pd  Pd169  1  0.79990699  0.00392758  0.00457939  1
  Pd  Pd170  1  0.60543436  0.40165676  0.20973331  1
  Pd  Pd171  1  0.39232318  0.40850389  0.80644218  1
  Pd  Pd172  1  0.21093110  0.39590297  0.19721993  1
  Pd  Pd173  1  0.18432440  0.19338526  0.78976484  1
  Pd  Pd174  1  0.00232197  0.19621612  0.19896433  1
  Pd  Pd175  1  0.39487405  0.79844652  0.20550843  1
  Pd  Pd176  1  0.60483272  0.60599043  0.39586292  1
  Pd  Pd177  1  0.80115595  0.19188992  0.40598876  1
  Pd  Pd178  1  0.80234277  0.39807475  0.79019261  1
  Pd  Pd179  1  0.20599115  0.80530683  0.80767003  1
  Pd  Pd180  1  0.19894656  0.80447067  0.19572851  1
  Pd  Pd181  1  0.39956645  0.59676680  0.60916644  1
  Pd  Pd182  1  0.00424721  0.00247092  0.79908060  1
  Pd  Pd183  1  0.20996898  0.38335300  0.60110846  1
  Pd  Pd184  1  0.39864861  0.40330866  0.19938276  1
  Pd  Pd185  1  0.80630151  0.59638966  0.19716250  1
  Pd  Pd186  1  0.19355624  -0.00457781  0.80795221  1
  Pd  Pd187  1  0.59377499  0.40427204  -0.00600537  1
  Pd  Pd188  1  0.00732601  0.19445724  0.79874403  1
  Pd  Pd189  1  0.80696701  0.79066600  0.80512683  1
  Pd  Pd190  1  0.00348104  0.80635822  0.60291669  1
  Pd  Pd191  1  0.39712256  -0.00654780  0.40179265  1
  Pd  Pd192  1  0.60113130  0.81019014  -0.00162308  1
  Pd  Pd193  1  -0.00153875  0.40375264  0.80441456  1
  Pd  Pd194  1  -0.01144909  0.39668910  0.59146968  1
  Pd  Pd195  1  0.59950074  0.39087317  0.39528367  1
  Pd  Pd196  1  0.18885378  0.18556053  0.01225237  1
  Pd  Pd197  1  -0.00963976  0.78823655  0.79442090  1
  Pd  Pd198  1  0.59558652  0.59350160  0.00512945  1
  Pd  Pd199  1  0.60051178  -0.00646905  0.00707626  1
  Rh  Rh200  1  0.40536483  0.60595021  0.00765533  1
  Rh  Rh201  1  0.20674457  0.79913870  0.40380261  1
  Rh  Rh202  1  0.40772782  0.39695922  0.40209357  1
  Rh  Rh203  1  0.80029783  0.00289620  0.79272255  1
  Rh  Rh204  1  0.59514157  -0.00176449  0.38284740  1
  Rh  Rh205  1  0.59860398  0.40293466  0.80691368  1
  Rh  Rh206  1  0.20752203  0.80664806  -0.01078275  1
  Rh  Rh207  1  0.78871419  0.80255667  0.40334217  1
  Rh  Rh208  1  0.40123552  0.20074122  0.40717758  1
  Rh  Rh209  1  0.00147688  0.79941081  0.39454440  1
  Rh  Rh210  1  0.00707859  0.20452141  0.39126833  1
  Rh  Rh211  1  0.00312180  0.01135451  -0.01256582  1
  Rh  Rh212  1  0.40950124  0.19257169  0.80073307  1
  Rh  Rh213  1  -0.00799985  -0.01198856  0.59513706  1
  Rh  Rh214  1  0.19585158  0.80295661  0.60071009  1
  Rh  Rh215  1  0.20337765  0.60208463  -0.00170954  1
  Rh  Rh216  1  0.00504975  0.20539435  0.60274689  1
  Rh  Rh217  1  0.60239565  -0.01116175  0.60892423  1
  Rh  Rh218  1  0.00301486  0.59471996  -0.00021644  1
  Rh  Rh219  1  0.79322594  0.20887659  0.19640230  1
  Rh  Rh220  1  0.21013068  0.00566460  0.60202520  1
  Rh  Rh221  1  -0.00184654  -0.00387797  0.39539196  1
  Rh  Rh222  1  0.19675549  0.60527605  0.59232748  1
  Rh  Rh223  1  0.20495425  0.60476949  0.20431066  1
  Rh  Rh224  1  0.39776806  0.00305144  0.19912445  1
  Rh  Rh225  1  0.39856526  0.00756580  -0.00326792  1
  Rh  Rh226  1  0.80510764  0.00659609  0.40896790  1
  Rh  Rh227  1  0.20077005  -0.00344571  0.38639501  1
  Rh  Rh228  1  0.80119363  0.60377561  0.40470896  1
  Rh  Rh229  1  0.60486429  0.20270948  -0.00683031  1
  Rh  Rh230  1  0.60100517  0.59352193  0.80109055  1
  Rh  Rh231  1  -0.00901858  0.41345586  0.19935311  1
  Rh  Rh232  1  0.39765421  0.39976312  -0.00553275  1
  Rh  Rh233  1  0.79119252  0.59137700  0.59470886  1
  Rh  Rh234  1  0.59897461  0.21181101  0.60946598  1
  Rh  Rh235  1  0.19887750  0.19673650  0.40459249  1
  Rh  Rh236  1  0.78960915  0.19658592  0.79909519  1
  Rh  Rh237  1  0.60338461  0.60002149  0.60357525  1
  Rh  Rh238  1  0.79382236  0.60649059  -0.00434174  1
  Rh  Rh239  1  0.79319848  -0.00373165  0.19561744  1
  Rh  Rh240  1  0.60065619  0.81658558  0.20796456  1
  Rh  Rh241  1  0.40731658  0.20066850  -0.00181503  1
  Rh  Rh242  1  0.19321734  0.40664130  0.40015331  1
  Rh  Rh243  1  0.00661435  -0.00637707  0.20956159  1
  Rh  Rh244  1  0.00499288  0.60274110  0.59858648  1
  Rh  Rh245  1  0.80563343  0.80905990  0.19082510  1
  Rh  Rh246  1  0.19961428  0.59625321  0.80158804  1
  Rh  Rh247  1  0.40027086  0.79350141  -0.00870262  1
  Rh  Rh248  1  0.19833584  0.40052860  -0.00352897  1
  Rh  Rh249  1  0.60761577  0.39965647  0.60005342  1
