# generated using pymatgen
data_ZrScNbPdRh
_symmetry_space_group_name_H-M   'P 1'
_cell_length_a   16.55918243
_cell_length_b   16.56191356
_cell_length_c   16.55750365
_cell_angle_alpha   90.03783273
_cell_angle_beta   90.01852444
_cell_angle_gamma   90.01882347
_symmetry_Int_Tables_number   1
_chemical_formula_structural   ZrScNbPdRh
_chemical_formula_sum   'Zr50 Sc50 Nb50 Pd50 Rh50'
_cell_volume   4540.92284572
_cell_formula_units_Z   50
loop_
 _symmetry_equiv_pos_site_id
 _symmetry_equiv_pos_as_xyz
  1  'x, y, z'
loop_
 _atom_site_type_symbol
 _atom_site_label
 _atom_site_symmetry_multiplicity
 _atom_site_fract_x
 _atom_site_fract_y
 _atom_site_fract_z
 _atom_site_occupancy
  Zr  Zr0  1  0.50280807  0.49324300  0.90651308  1
  Zr  Zr1  1  0.70638592  0.89825595  0.30069436  1
  Zr  Zr2  1  0.30563849  0.70403995  0.10505642  1
  Zr  Zr3  1  0.50030884  0.10125173  0.49239077  1
  Zr  Zr4  1  0.09369884  0.70165892  0.70164835  1
  Zr  Zr5  1  0.70038536  0.10250016  0.50752452  1
  Zr  Zr6  1  0.70642531  0.70626805  0.89818383  1
  Zr  Zr7  1  0.09632377  0.49197847  0.70653419  1
  Zr  Zr8  1  0.69727393  0.69031308  0.49490865  1
  Zr  Zr9  1  0.30271830  0.29139998  0.69730618  1
  Zr  Zr10  1  0.90069493  0.70291918  0.70455292  1
  Zr  Zr11  1  0.31138607  0.48734157  0.50071344  1
  Zr  Zr12  1  0.70286765  0.10478927  0.30710337  1
  Zr  Zr13  1  0.49720841  0.69197865  0.30819838  1
  Zr  Zr14  1  0.69322601  0.90695388  0.09842690  1
  Zr  Zr15  1  0.90641101  0.90928751  0.30843620  1
  Zr  Zr16  1  0.10101671  0.30555177  0.08763335  1
  Zr  Zr17  1  0.90622341  0.11652670  0.10250601  1
  Zr  Zr18  1  0.10324471  0.49784170  0.29314372  1
  Zr  Zr19  1  0.29936541  0.89437188  0.29193058  1
  Zr  Zr20  1  0.09941715  0.69809271  0.89497669  1
  Zr  Zr21  1  0.08992643  0.90001312  0.49518460  1
  Zr  Zr22  1  0.30452450  0.69977680  0.69872539  1
  Zr  Zr23  1  0.30080857  0.09975969  0.10903424  1
  Zr  Zr24  1  0.08937227  0.09177843  0.29018065  1
  Zr  Zr25  1  0.70880094  0.10069954  0.69992085  1
  Zr  Zr26  1  0.70643426  0.71212317  0.10676404  1
  Zr  Zr27  1  0.29484181  0.89464486  0.49720038  1
  Zr  Zr28  1  0.70474306  0.50411399  0.09894214  1
  Zr  Zr29  1  0.49402663  0.69404491  0.69203426  1
  Zr  Zr30  1  0.49447319  0.90463398  0.10236180  1
  Zr  Zr31  1  0.49999027  0.70661477  0.10269544  1
  Zr  Zr32  1  0.10162425  0.10580275  0.09002185  1
  Zr  Zr33  1  0.90583038  0.50370135  0.09736660  1
  Zr  Zr34  1  0.30169799  0.90510997  0.90026694  1
  Zr  Zr35  1  0.49812454  0.49295682  0.30167348  1
  Zr  Zr36  1  0.90198555  0.90046319  0.50185199  1
  Zr  Zr37  1  0.29851188  0.50510243  0.90704359  1
  Zr  Zr38  1  0.50094412  0.49575293  0.69513097  1
  Zr  Zr39  1  0.90289955  0.28809558  0.29970671  1
  Zr  Zr40  1  0.30529869  0.70214553  0.30343044  1
  Zr  Zr41  1  0.49743021  0.49343789  0.10829208  1
  Zr  Zr42  1  0.49553773  0.89456119  0.69510757  1
  Zr  Zr43  1  0.30911206  0.69974615  0.49970845  1
  Zr  Zr44  1  0.29072351  0.49762975  0.10863392  1
  Zr  Zr45  1  0.90212149  0.70436418  0.89099195  1
  Zr  Zr46  1  0.09684173  0.90768499  0.69421585  1
  Zr  Zr47  1  0.50194303  0.09699360  0.10150051  1
  Zr  Zr48  1  0.89846360  0.50505367  0.90052942  1
  Zr  Zr49  1  0.89584894  0.50305570  0.70205745  1
  Sc  Sc50  1  0.89550992  0.71033379  0.49909307  1
  Sc  Sc51  1  0.69870142  0.29420534  0.69754870  1
  Sc  Sc52  1  0.69519147  0.50055800  0.30775794  1
  Sc  Sc53  1  0.09722544  0.91468152  0.89569704  1
  Sc  Sc54  1  0.89593976  0.29840658  0.70154817  1
  Sc  Sc55  1  0.68735302  0.30126093  0.89788270  1
  Sc  Sc56  1  0.10273039  0.70700252  0.30193026  1
  Sc  Sc57  1  0.30193837  0.28943456  0.30624584  1
  Sc  Sc58  1  0.89065634  0.70010540  0.29544810  1
  Sc  Sc59  1  0.89420561  0.89863431  0.69550755  1
  Sc  Sc60  1  0.50572615  0.29645430  0.70579048  1
  Sc  Sc61  1  0.50662256  0.10969969  0.90162892  1
  Sc  Sc62  1  0.90300930  0.30047457  0.49918126  1
  Sc  Sc63  1  0.29506466  0.10463198  0.89850055  1
  Sc  Sc64  1  0.90245677  0.10127148  0.89294491  1
  Sc  Sc65  1  0.70196492  0.69792579  0.30096200  1
  Sc  Sc66  1  0.70214711  0.09904961  0.90178581  1
  Sc  Sc67  1  0.69784474  0.49793975  0.68962421  1
  Sc  Sc68  1  0.50466708  0.50219379  0.50067740  1
  Sc  Sc69  1  0.10141955  0.49626306  0.90569443  1
  Sc  Sc70  1  0.70648791  0.30171502  0.08851355  1
  Sc  Sc71  1  0.09997048  0.30139094  0.89537205  1
  Sc  Sc72  1  0.10245289  0.09626494  0.50653378  1
  Sc  Sc73  1  0.09050177  0.47736808  0.49128845  1
  Sc  Sc74  1  0.88973301  0.90065698  0.09632030  1
  Sc  Sc75  1  0.50110995  0.90370043  0.30203924  1
  Sc  Sc76  1  0.10398860  0.91554516  0.10398726  1
  Sc  Sc77  1  0.69775920  0.49261500  0.90434912  1
  Sc  Sc78  1  0.71301517  0.69460499  0.69684397  1
  Sc  Sc79  1  0.49924677  0.89950114  0.91178199  1
  Sc  Sc80  1  0.29904774  0.29426127  0.09905566  1
  Sc  Sc81  1  0.29690553  0.89687337  0.69603035  1
  Sc  Sc82  1  0.28919695  0.10230784  0.70025931  1
  Sc  Sc83  1  0.90182047  0.29935078  0.91040391  1
  Sc  Sc84  1  0.89482892  0.09426268  0.49830940  1
  Sc  Sc85  1  0.48709874  0.09866457  0.29954433  1
  Sc  Sc86  1  0.10074552  0.29746487  0.31692789  1
  Sc  Sc87  1  0.09962934  0.68795739  0.10593770  1
  Sc  Sc88  1  0.51092553  0.11068533  0.69131060  1
  Sc  Sc89  1  0.89589919  0.69413148  0.10421667  1
  Sc  Sc90  1  0.70645568  0.90443491  0.49659187  1
  Sc  Sc91  1  0.48324468  0.30503779  0.50507624  1
  Sc  Sc92  1  0.09843226  0.71442923  0.49493591  1
  Sc  Sc93  1  0.50495687  0.90167687  0.49037479  1
  Sc  Sc94  1  0.30234464  0.50053596  0.70231639  1
  Sc  Sc95  1  0.89609531  0.90055427  0.89510704  1
  Sc  Sc96  1  0.70944802  0.90340951  0.90584138  1
  Sc  Sc97  1  0.89132425  0.48856994  0.50170230  1
  Sc  Sc98  1  0.30007211  0.11263923  0.49572803  1
  Sc  Sc99  1  0.70231448  0.30863666  0.30441171  1
  Nb  Nb100  1  0.09897601  0.29435579  0.69962284  1
  Nb  Nb101  1  0.09435102  0.10230567  0.71122925  1
  Nb  Nb102  1  0.89950542  0.10006967  0.29634350  1
  Nb  Nb103  1  0.09532117  0.90027971  0.30279255  1
  Nb  Nb104  1  0.30756593  0.89768868  0.09541481  1
  Nb  Nb105  1  0.49845531  0.29694909  0.10213733  1
  Nb  Nb106  1  0.50073616  0.69808710  0.50199565  1
  Nb  Nb107  1  0.49633421  0.69699301  0.89928393  1
  Nb  Nb108  1  0.30283937  0.70171720  0.90179279  1
  Nb  Nb109  1  0.29606591  0.10183887  0.30255038  1
  Nb  Nb110  1  0.30417382  0.50535097  0.30276051  1
  Nb  Nb111  1  0.50046367  0.30387191  0.90534618  1
  Nb  Nb112  1  0.69711158  0.49067899  0.49926712  1
  Nb  Nb113  1  0.10592898  0.29161322  0.50530388  1
  Nb  Nb114  1  0.90628593  0.50293971  0.29351510  1
  Nb  Nb115  1  0.30835228  0.30251217  0.90022826  1
  Nb  Nb116  1  0.90382018  0.30466126  0.09838416  1
  Nb  Nb117  1  0.70560927  0.31072174  0.49746499  1
  Nb  Nb118  1  0.69814694  0.09798970  0.10232520  1
  Nb  Nb119  1  0.50569046  0.29901084  0.29391468  1
  Nb  Nb120  1  0.10091074  0.49498304  0.10385410  1
  Nb  Nb121  1  0.89686356  0.10384266  0.69683233  1
  Nb  Nb122  1  0.69909692  0.89890586  0.69926288  1
  Nb  Nb123  1  0.09570956  0.09928675  0.88890037  1
  Nb  Nb124  1  0.28943548  0.29210160  0.50255570  1
  Nb  Nb125  1  0.19718809  -0.00179145  0.39102111  1
  Nb  Nb126  1  0.60191713  0.79530040  0.60044710  1
  Nb  Nb127  1  0.19203855  0.59124202  0.59100964  1
  Nb  Nb128  1  0.00075383  0.80683819  0.19831365  1
  Nb  Nb129  1  0.40675852  0.00332581  0.79297619  1
  Nb  Nb130  1  0.19769682  0.39158436  0.60041774  1
  Nb  Nb131  1  0.20208460  0.79874742  0.80575606  1
  Nb  Nb132  1  0.40017817  0.00257508  0.59969436  1
  Nb  Nb133  1  0.59699666  0.60689336  -0.00019676  1
  Nb  Nb134  1  0.81158492  0.40096916  0.19680868  1
  Nb  Nb135  1  0.00384944  0.19719655  0.60920498  1
  Nb  Nb136  1  0.59914010  0.20376414  0.19908466  1
  Nb  Nb137  1  0.59683973  0.60439734  0.80416138  1
  Nb  Nb138  1  0.20163154  0.80107401  -0.00102896  1
  Nb  Nb139  1  0.40199987  0.39416715  0.80892385  1
  Nb  Nb140  1  0.59873864  0.79817072  0.79638084  1
  Nb  Nb141  1  0.00436419  0.59708026  0.59328980  1
  Nb  Nb142  1  0.00093827  0.39947798  0.19612631  1
  Nb  Nb143  1  0.00648757  0.80069556  0.00309764  1
  Nb  Nb144  1  0.80110837  0.01252748  0.20065517  1
  Nb  Nb145  1  0.19953531  0.59326406  0.40529228  1
  Nb  Nb146  1  0.59735186  0.20899405  0.39819046  1
  Nb  Nb147  1  0.00081770  0.59645410  0.40128381  1
  Nb  Nb148  1  0.59977995  -0.00685588  0.79468641  1
  Nb  Nb149  1  0.79789410  0.40129345  0.80102741  1
  Pd  Pd150  1  0.00268317  0.18929703  0.41212301  1
  Pd  Pd151  1  0.80729742  0.59857534  0.59005702  1
  Pd  Pd152  1  0.19100478  0.80268794  0.19034303  1
  Pd  Pd153  1  0.20631135  0.40048072  0.40144916  1
  Pd  Pd154  1  0.59502059  0.80100913  0.20946442  1
  Pd  Pd155  1  0.38800300  -0.00226437  0.40278428  1
  Pd  Pd156  1  0.40369045  0.59940647  0.00960128  1
  Pd  Pd157  1  0.01355702  0.21149527  0.19798096  1
  Pd  Pd158  1  0.20535532  -0.00114671  0.20255039  1
  Pd  Pd159  1  -0.00000751  0.39379954  0.60222733  1
  Pd  Pd160  1  0.79889723  0.20934726  0.80766113  1
  Pd  Pd161  1  0.59833628  0.39163597  0.59757010  1
  Pd  Pd162  1  0.19197854  0.20637697  0.20520740  1
  Pd  Pd163  1  0.79012184  0.20626762  0.19647383  1
  Pd  Pd164  1  0.00414640  0.60454185  -0.00076704  1
  Pd  Pd165  1  0.60038026  0.79898460  -0.00530317  1
  Pd  Pd166  1  -0.00975094  0.39334521  0.80546442  1
  Pd  Pd167  1  0.79558568  0.60677374  -0.00271459  1
  Pd  Pd168  1  0.39867123  0.19578704  0.00179587  1
  Pd  Pd169  1  0.59593258  -0.00697735  0.59998185  1
  Pd  Pd170  1  -0.00712534  -0.00104036  0.00203840  1
  Pd  Pd171  1  0.19862753  0.60410841  0.00453829  1
  Pd  Pd172  1  0.60287945  0.79845175  0.40308888  1
  Pd  Pd173  1  0.20201763  0.00106520  -0.00161825  1
  Pd  Pd174  1  0.60345115  0.60230284  0.19858101  1
  Pd  Pd175  1  0.39359412  0.39826667  0.00577421  1
  Pd  Pd176  1  0.80648313  0.59302411  0.40165676  1
  Pd  Pd177  1  0.20937672  0.39467814  0.79891618  1
  Pd  Pd178  1  0.19854880  0.20438493  0.80651938  1
  Pd  Pd179  1  0.40094241  0.01332585  -0.00771524  1
  Pd  Pd180  1  0.60251522  0.00731066  0.21081113  1
  Pd  Pd181  1  0.20209320  0.60529695  0.20826731  1
  Pd  Pd182  1  0.38846100  0.39109588  0.20522481  1
  Pd  Pd183  1  0.80867595  0.40403521  0.38901957  1
  Pd  Pd184  1  0.80766926  0.01240810  0.00524613  1
  Pd  Pd185  1  0.40442833  0.59094140  0.80138981  1
  Pd  Pd186  1  0.20060370  0.38651720  0.20765835  1
  Pd  Pd187  1  0.19824767  0.20192592  -0.01090202  1
  Pd  Pd188  1  0.40070847  0.80514893  0.80704199  1
  Pd  Pd189  1  0.60241471  0.20112237  0.00622153  1
  Pd  Pd190  1  0.39996672  0.38996876  0.39357952  1
  Pd  Pd191  1  0.79735955  0.20277421  0.40826105  1
  Pd  Pd192  1  0.61380580  0.39262951  0.19351139  1
  Pd  Pd193  1  0.19578359  0.79352201  0.60444589  1
  Pd  Pd194  1  -0.01285228  -0.00304210  0.79263181  1
  Pd  Pd195  1  0.79858204  0.19881666  -0.00528028  1
  Pd  Pd196  1  0.40665498  0.19705676  0.79856492  1
  Pd  Pd197  1  0.59977033  0.21348637  0.58684038  1
  Pd  Pd198  1  0.20649422  0.00621097  0.59274166  1
  Pd  Pd199  1  0.20055188  0.60210260  0.79511248  1
  Rh  Rh200  1  0.59814931  0.59383245  0.40185990  1
  Rh  Rh201  1  0.60153439  0.00063017  -0.00885534  1
  Rh  Rh202  1  0.00199201  0.59306123  0.79610105  1
  Rh  Rh203  1  0.00616403  0.19721476  -0.01139101  1
  Rh  Rh204  1  0.60433154  0.60370286  0.60116002  1
  Rh  Rh205  1  0.00219826  0.40515989  0.00037083  1
  Rh  Rh206  1  0.59776573  0.40119967  0.01027173  1
  Rh  Rh207  1  0.79268166  0.59148638  0.20629102  1
  Rh  Rh208  1  0.80122836  0.39777530  -0.00378046  1
  Rh  Rh209  1  0.60466072  0.19263956  0.80318614  1
  Rh  Rh210  1  -0.00835905  0.40000527  0.38985926  1
  Rh  Rh211  1  0.80727518  0.81255044  0.20247327  1
  Rh  Rh212  1  0.40837391  0.80351425  0.20533473  1
  Rh  Rh213  1  0.39997249  0.59520452  0.40518235  1
  Rh  Rh214  1  0.19235541  0.19725771  0.60567051  1
  Rh  Rh215  1  0.39988930  0.19427576  0.59991394  1
  Rh  Rh216  1  0.39566319  0.79692706  -0.00200163  1
  Rh  Rh217  1  0.80877632  0.20553198  0.59328503  1
  Rh  Rh218  1  0.80221039  -0.00201476  0.60228965  1
  Rh  Rh219  1  0.00428475  0.60414519  0.20819471  1
  Rh  Rh220  1  0.40438846  0.20547964  0.39830410  1
  Rh  Rh221  1  -0.00903663  0.79020946  0.38767644  1
  Rh  Rh222  1  0.00392823  0.01008892  0.40579671  1
  Rh  Rh223  1  -0.00540103  0.00847900  0.60470674  1
  Rh  Rh224  1  0.81226079  0.79539008  0.00075732  1
  Rh  Rh225  1  0.79287740  0.80131331  0.59721055  1
  Rh  Rh226  1  0.39433294  -0.00126136  0.20205948  1
  Rh  Rh227  1  0.79645257  -0.00148032  0.79433129  1
  Rh  Rh228  1  0.20085583  0.80202392  0.39752611  1
  Rh  Rh229  1  0.79593660  0.39362586  0.60709343  1
  Rh  Rh230  1  0.60462104  0.00919273  0.39779235  1
  Rh  Rh231  1  0.40056518  0.59798151  0.19919163  1
  Rh  Rh232  1  -0.00448501  0.79561710  0.60362450  1
  Rh  Rh233  1  -0.01319185  -0.00595444  0.18973401  1
  Rh  Rh234  1  0.79954540  0.00245741  0.39797010  1
  Rh  Rh235  1  0.40448061  0.19942329  0.20096175  1
  Rh  Rh236  1  0.20658864  -0.00346641  0.79645085  1
  Rh  Rh237  1  0.20567567  0.39935072  -0.00307870  1
  Rh  Rh238  1  0.39460724  0.59336121  0.59448715  1
  Rh  Rh239  1  -0.00402593  0.20284830  0.79899435  1
  Rh  Rh240  1  0.40781799  0.80865081  0.58441433  1
  Rh  Rh241  1  0.78769927  0.58748801  0.80360446  1
  Rh  Rh242  1  0.59332940  0.39551132  0.40902213  1
  Rh  Rh243  1  0.39343794  0.39467886  0.61220340  1
  Rh  Rh244  1  0.79547440  0.80742999  0.79716824  1
  Rh  Rh245  1  0.80013500  0.80136549  0.40014613  1
  Rh  Rh246  1  0.59965434  0.40478458  0.79645092  1
  Rh  Rh247  1  0.00778759  0.81278774  0.80383643  1
  Rh  Rh248  1  0.40623618  0.80284499  0.39948788  1
  Rh  Rh249  1  0.19159936  0.18602026  0.39532415  1
