# generated using pymatgen
data_ZrScNbPdRh
_symmetry_space_group_name_H-M   'P 1'
_cell_length_a   16.55555932
_cell_length_b   16.55568308
_cell_length_c   16.55367692
_cell_angle_alpha   89.98627404
_cell_angle_beta   89.96903879
_cell_angle_gamma   90.02080876
_symmetry_Int_Tables_number   1
_chemical_formula_structural   ZrScNbPdRh
_chemical_formula_sum   'Zr50 Sc50 Nb50 Pd50 Rh50'
_cell_volume   4537.17292925
_cell_formula_units_Z   50
loop_
 _symmetry_equiv_pos_site_id
 _symmetry_equiv_pos_as_xyz
  1  'x, y, z'
loop_
 _atom_site_type_symbol
 _atom_site_label
 _atom_site_symmetry_multiplicity
 _atom_site_fract_x
 _atom_site_fract_y
 _atom_site_fract_z
 _atom_site_occupancy
  Zr  Zr0  1  0.10085665  0.90737593  0.89858374  1
  Zr  Zr1  1  0.49646153  0.70013193  0.90031709  1
  Zr  Zr2  1  0.69656553  0.89314564  0.30155632  1
  Zr  Zr3  1  0.90693375  0.10051703  0.89540369  1
  Zr  Zr4  1  0.30114477  0.30094248  0.29110332  1
  Zr  Zr5  1  0.49553911  0.10143077  0.69944020  1
  Zr  Zr6  1  0.29058692  0.09917142  0.10325282  1
  Zr  Zr7  1  0.50072603  0.49858551  0.90678570  1
  Zr  Zr8  1  0.30437309  0.50246999  0.69927173  1
  Zr  Zr9  1  0.70238019  0.71064029  0.50452354  1
  Zr  Zr10  1  0.70567314  0.49409184  0.69020068  1
  Zr  Zr11  1  0.10113838  0.29736987  0.30527873  1
  Zr  Zr12  1  0.30469457  0.09830312  0.89754160  1
  Zr  Zr13  1  0.89538029  0.29693030  0.89577183  1
  Zr  Zr14  1  0.69829304  0.89367593  0.68661394  1
  Zr  Zr15  1  0.90560702  0.29668167  0.69317445  1
  Zr  Zr16  1  0.10648000  0.09985283  0.90183477  1
  Zr  Zr17  1  0.89661752  0.29244012  0.49075271  1
  Zr  Zr18  1  0.29518047  0.69512165  0.50438807  1
  Zr  Zr19  1  0.30858087  0.70047222  0.90134828  1
  Zr  Zr20  1  0.69617577  0.90861715  0.10551411  1
  Zr  Zr21  1  0.69791663  0.70558342  0.11048068  1
  Zr  Zr22  1  0.91586978  0.70317039  0.10339174  1
  Zr  Zr23  1  0.30489648  0.30096841  0.50498826  1
  Zr  Zr24  1  0.49815558  0.10795900  0.10473915  1
  Zr  Zr25  1  0.70065507  0.49504242  0.90362354  1
  Zr  Zr26  1  0.29778190  0.09496870  0.30150962  1
  Zr  Zr27  1  0.90222117  0.49455621  0.90165977  1
  Zr  Zr28  1  0.49306241  0.50210227  0.69633196  1
  Zr  Zr29  1  0.69310584  0.09760481  0.10080688  1
  Zr  Zr30  1  0.10161085  0.70079775  0.49331936  1
  Zr  Zr31  1  0.10099708  0.09836128  0.50068673  1
  Zr  Zr32  1  0.09950685  0.30021723  0.89516775  1
  Zr  Zr33  1  0.30114361  0.69942681  0.29351224  1
  Zr  Zr34  1  0.09962091  0.51132683  0.10158115  1
  Zr  Zr35  1  0.88561833  0.09912057  0.10382540  1
  Zr  Zr36  1  0.49868252  0.70205947  0.70330190  1
  Zr  Zr37  1  0.90089676  0.50039222  0.10420770  1
  Zr  Zr38  1  0.69568496  0.10430252  0.50014047  1
  Zr  Zr39  1  0.30861850  0.50015684  0.50415027  1
  Zr  Zr40  1  0.09616078  0.70416658  0.68326935  1
  Zr  Zr41  1  0.10439459  0.09559995  0.30086590  1
  Zr  Zr42  1  0.50619104  0.49673732  0.30144483  1
  Zr  Zr43  1  0.29671268  0.90947063  0.90315247  1
  Zr  Zr44  1  0.10203782  0.29537094  0.69501142  1
  Zr  Zr45  1  0.89452839  0.29512124  0.09667776  1
  Zr  Zr46  1  0.29353556  0.50200704  0.10004866  1
  Zr  Zr47  1  0.90356028  0.89875868  0.30522275  1
  Zr  Zr48  1  0.69479234  0.70102160  0.30614801  1
  Zr  Zr49  1  0.50623865  0.90100858  0.70093697  1
  Sc  Sc50  1  0.89638597  0.10069840  0.49589926  1
  Sc  Sc51  1  0.50070592  0.90922351  0.49644975  1
  Sc  Sc52  1  0.50784691  0.48773850  0.49899185  1
  Sc  Sc53  1  0.29374569  0.49584046  0.30209471  1
  Sc  Sc54  1  0.10340651  0.89808971  0.30569740  1
  Sc  Sc55  1  0.89886606  0.50069885  0.30042752  1
  Sc  Sc56  1  0.09930839  0.50523924  0.49717098  1
  Sc  Sc57  1  0.50275188  0.70438483  0.29323406  1
  Sc  Sc58  1  0.70043386  0.09743691  0.28895923  1
  Sc  Sc59  1  0.09812930  0.69714895  0.91662633  1
  Sc  Sc60  1  0.09908518  0.89644195  0.49716718  1
  Sc  Sc61  1  0.49120277  0.30109004  0.90758022  1
  Sc  Sc62  1  0.29946522  0.49430616  0.89780840  1
  Sc  Sc63  1  0.89595365  0.10943477  0.69840794  1
  Sc  Sc64  1  0.49529555  0.90657235  0.89712210  1
  Sc  Sc65  1  0.69749651  0.70393126  0.90380163  1
  Sc  Sc66  1  0.89576815  0.89843303  0.49518631  1
  Sc  Sc67  1  0.50409539  0.29334021  0.69133829  1
  Sc  Sc68  1  0.69217500  0.90542957  0.90759880  1
  Sc  Sc69  1  0.90263758  0.49662196  0.69180456  1
  Sc  Sc70  1  0.89433923  0.10243115  0.30921247  1
  Sc  Sc71  1  0.50101870  0.09901597  0.89130699  1
  Sc  Sc72  1  0.09823623  0.48918031  0.69822812  1
  Sc  Sc73  1  0.70058741  0.29878661  0.10367417  1
  Sc  Sc74  1  0.69167357  0.09726564  0.89607135  1
  Sc  Sc75  1  0.10844862  0.49195467  0.90719513  1
  Sc  Sc76  1  0.29823949  0.91349880  0.69895817  1
  Sc  Sc77  1  0.89381863  0.89253635  0.09781469  1
  Sc  Sc78  1  0.69348520  0.10063354  0.69993225  1
  Sc  Sc79  1  0.50368236  0.69839922  0.49405305  1
  Sc  Sc80  1  0.70338647  0.29117637  0.69629151  1
  Sc  Sc81  1  0.69499156  0.49688576  0.10206272  1
  Sc  Sc82  1  0.10378509  0.90656244  0.69932401  1
  Sc  Sc83  1  0.09178155  0.29804861  0.50455373  1
  Sc  Sc84  1  0.29860007  0.90557472  0.49345052  1
  Sc  Sc85  1  0.70165618  0.30009111  0.29986078  1
  Sc  Sc86  1  0.30362640  0.09359904  0.50777632  1
  Sc  Sc87  1  0.91204138  0.70137316  0.50761838  1
  Sc  Sc88  1  0.30048327  0.30661577  0.90813896  1
  Sc  Sc89  1  0.10319047  0.50591488  0.30115937  1
  Sc  Sc90  1  0.49678455  0.90877586  0.10537236  1
  Sc  Sc91  1  0.30230863  0.30703586  0.69528367  1
  Sc  Sc92  1  0.69627072  0.50029601  0.29844425  1
  Sc  Sc93  1  0.11416789  0.29455792  0.09417990  1
  Sc  Sc94  1  0.09586509  0.88875195  0.10931207  1
  Sc  Sc95  1  0.90040894  0.49706228  0.50141786  1
  Sc  Sc96  1  0.30345032  0.90209025  0.29800245  1
  Sc  Sc97  1  0.09674846  0.70219264  0.29618145  1
  Sc  Sc98  1  0.50549156  0.09666445  0.29907162  1
  Sc  Sc99  1  0.09806642  0.10050736  0.69986349  1
  Nb  Nb100  1  0.09931021  0.09763347  0.10258933  1
  Nb  Nb101  1  0.49777871  0.11010706  0.49823508  1
  Nb  Nb102  1  0.50934490  0.29513516  0.49498152  1
  Nb  Nb103  1  0.49116319  0.30081947  0.10371785  1
  Nb  Nb104  1  0.69172448  0.30191873  0.89945043  1
  Nb  Nb105  1  0.49302715  0.69382221  0.09683341  1
  Nb  Nb106  1  0.29476899  0.90046576  0.10168651  1
  Nb  Nb107  1  0.50278273  0.49643252  0.09490992  1
  Nb  Nb108  1  0.90509535  0.89694687  0.90007758  1
  Nb  Nb109  1  0.31307734  0.29447074  0.10141024  1
  Nb  Nb110  1  0.69632903  0.50067691  0.49518063  1
  Nb  Nb111  1  0.70094643  0.70139348  0.69919825  1
  Nb  Nb112  1  0.90026136  0.70491022  0.90347500  1
  Nb  Nb113  1  0.29784022  0.70092480  0.10140361  1
  Nb  Nb114  1  0.29821219  0.10695420  0.69647739  1
  Nb  Nb115  1  0.49727044  0.90091582  0.30211294  1
  Nb  Nb116  1  0.90516411  0.29634065  0.29895275  1
  Nb  Nb117  1  0.90538322  0.89998813  0.70315150  1
  Nb  Nb118  1  0.90220122  0.70025117  0.70154774  1
  Nb  Nb119  1  0.68696483  0.30917584  0.50286769  1
  Nb  Nb120  1  0.10785546  0.69906258  0.10566817  1
  Nb  Nb121  1  0.30452210  0.69440968  0.69935212  1
  Nb  Nb122  1  0.49618955  0.29700326  0.29390343  1
  Nb  Nb123  1  0.70089934  0.89907895  0.50037097  1
  Nb  Nb124  1  0.89638084  0.70197368  0.30308947  1
  Nb  Nb125  1  -0.00035798  0.60604886  0.80064033  1
  Nb  Nb126  1  0.20640428  0.79869592  0.00503558  1
  Nb  Nb127  1  0.19685256  0.60775286  0.79628184  1
  Nb  Nb128  1  0.60731479  0.59744595  0.79561854  1
  Nb  Nb129  1  0.60116605  0.40089703  0.80040889  1
  Nb  Nb130  1  0.00013128  0.19857649  0.19981183  1
  Nb  Nb131  1  -0.00072690  0.00104624  0.00552519  1
  Nb  Nb132  1  -0.00202156  0.00526144  0.19744725  1
  Nb  Nb133  1  0.79509867  0.60489756  0.40367822  1
  Nb  Nb134  1  0.20806643  0.20139908  0.40261571  1
  Nb  Nb135  1  0.20534615  0.20057880  0.79759951  1
  Nb  Nb136  1  -0.00609360  -0.00176493  0.60167769  1
  Nb  Nb137  1  0.60717441  0.60125282  0.60181988  1
  Nb  Nb138  1  0.59533814  0.20413072  0.00298793  1
  Nb  Nb139  1  0.40429789  0.20251594  0.39987979  1
  Nb  Nb140  1  0.40138409  0.59759106  0.39843895  1
  Nb  Nb141  1  0.80345211  0.60708464  0.80004929  1
  Nb  Nb142  1  0.19957144  0.79174159  0.80146456  1
  Nb  Nb143  1  0.80521476  0.60530690  -0.00095834  1
  Nb  Nb144  1  0.59007371  0.79617848  0.00929675  1
  Nb  Nb145  1  0.80549903  -0.01053326  0.79718342  1
  Nb  Nb146  1  -0.00005886  0.79639442  0.80153541  1
  Nb  Nb147  1  0.80531973  0.80016513  0.79866080  1
  Nb  Nb148  1  0.39746651  0.79722871  0.60245791  1
  Nb  Nb149  1  0.00029898  0.39163835  0.20072984  1
  Pd  Pd150  1  0.39025710  0.81196778  0.79193142  1
  Pd  Pd151  1  0.00094348  0.40612019  0.39725977  1
  Pd  Pd152  1  0.80381521  0.39819311  0.20494250  1
  Pd  Pd153  1  0.39476717  0.20948353  0.79944313  1
  Pd  Pd154  1  0.20556504  0.79972494  0.39373736  1
  Pd  Pd155  1  0.19671049  0.40521413  0.59380867  1
  Pd  Pd156  1  -0.00017828  0.40337989  0.79764466  1
  Pd  Pd157  1  0.60077550  0.20130810  0.38862143  1
  Pd  Pd158  1  0.81150933  0.80103900  0.60011062  1
  Pd  Pd159  1  0.60665524  0.80186670  0.80989909  1
  Pd  Pd160  1  0.79106750  -0.00085860  0.39818806  1
  Pd  Pd161  1  -0.00822546  0.60063173  0.39630724  1
  Pd  Pd162  1  0.59571718  0.00590826  0.59586719  1
  Pd  Pd163  1  0.39387574  0.59181912  0.00053547  1
  Pd  Pd164  1  0.20943156  0.81074060  0.60473245  1
  Pd  Pd165  1  0.79807910  0.39837849  0.79507052  1
  Pd  Pd166  1  0.00002131  0.19560979  0.00598391  1
  Pd  Pd167  1  0.79670885  0.40537827  0.39792080  1
  Pd  Pd168  1  0.40297718  -0.00431380  0.59890214  1
  Pd  Pd169  1  0.39974892  0.79555282  0.40641792  1
  Pd  Pd170  1  0.40394646  0.80333438  0.19467494  1
  Pd  Pd171  1  0.59195090  0.80606501  0.40445094  1
  Pd  Pd172  1  -0.00229875  0.59794817  -0.00319565  1
  Pd  Pd173  1  0.40638367  0.39363355  0.79787862  1
  Pd  Pd174  1  0.40524620  0.39815433  0.39944808  1
  Pd  Pd175  1  0.79046881  0.79890388  -0.00119931  1
  Pd  Pd176  1  0.00666487  0.39440756  0.00948387  1
  Pd  Pd177  1  0.78774282  0.20188198  0.39835610  1
  Pd  Pd178  1  0.80066653  0.60282948  0.59489997  1
  Pd  Pd179  1  0.80356714  -0.00066135  -0.00989176  1
  Pd  Pd180  1  0.39986032  0.00269762  0.20269413  1
  Pd  Pd181  1  0.19640637  0.39664336  0.40903746  1
  Pd  Pd182  1  0.19328637  0.59037024  0.60477653  1
  Pd  Pd183  1  0.59904895  0.39330650  0.19868051  1
  Pd  Pd184  1  0.40402836  0.00604985  0.00406831  1
  Pd  Pd185  1  0.40266740  0.59181358  0.20507371  1
  Pd  Pd186  1  0.80328985  0.80172548  0.20296626  1
  Pd  Pd187  1  0.60312422  0.00139693  0.39892792  1
  Pd  Pd188  1  0.19237128  0.39824275  0.19395686  1
  Pd  Pd189  1  0.40051397  0.41193522  0.19614627  1
  Pd  Pd190  1  0.60794407  0.60609253  0.00092689  1
  Pd  Pd191  1  0.78603813  0.19667675  -0.00934186  1
  Pd  Pd192  1  0.80544111  0.00278274  0.60450187  1
  Pd  Pd193  1  0.40197791  0.80867465  0.00941814  1
  Pd  Pd194  1  0.20791739  0.20161125  -0.00536791  1
  Pd  Pd195  1  0.80232470  0.39049875  0.59076210  1
  Pd  Pd196  1  0.59531932  0.59918198  0.19685252  1
  Pd  Pd197  1  0.79616203  0.40148856  0.00568480  1
  Pd  Pd198  1  0.80091040  0.60249866  0.20155008  1
  Pd  Pd199  1  0.79198086  0.19263261  0.80303687  1
  Rh  Rh200  1  0.00680479  0.19402178  0.39673414  1
  Rh  Rh201  1  0.60352578  0.39360643  0.39163528  1
  Rh  Rh202  1  0.00235207  0.59263766  0.60322648  1
  Rh  Rh203  1  -0.00000372  -0.00126734  0.40281542  1
  Rh  Rh204  1  0.59857725  0.40170845  0.60551188  1
  Rh  Rh205  1  0.20408068  0.01033214  0.79119353  1
  Rh  Rh206  1  0.20721585  0.60661739  -0.00540803  1
  Rh  Rh207  1  0.60049457  0.59785700  0.40586397  1
  Rh  Rh208  1  0.20796183  0.60275426  0.39537768  1
  Rh  Rh209  1  0.20472479  0.39707846  0.00700576  1
  Rh  Rh210  1  0.00810884  0.20163907  0.79686717  1
  Rh  Rh211  1  -0.00592642  0.19124689  0.59601306  1
  Rh  Rh212  1  -0.00021464  0.79630287  0.40008427  1
  Rh  Rh213  1  0.20186378  0.00195743  0.40439171  1
  Rh  Rh214  1  0.80661631  -0.00708327  0.20798058  1
  Rh  Rh215  1  -0.00317032  0.39740593  0.59155819  1
  Rh  Rh216  1  0.01197034  0.80663963  -0.00141761  1
  Rh  Rh217  1  0.40261969  0.20211983  0.59461286  1
  Rh  Rh218  1  0.40475487  0.00689134  0.39717503  1
  Rh  Rh219  1  -0.00215920  0.80242245  0.20742005  1
  Rh  Rh220  1  0.20369971  0.19885764  0.59981348  1
  Rh  Rh221  1  0.40156494  0.19486824  0.00113223  1
  Rh  Rh222  1  0.19199926  0.00114556  0.59907610  1
  Rh  Rh223  1  0.80500053  0.79406058  0.40445272  1
  Rh  Rh224  1  0.19920482  0.20198779  0.20272424  1
  Rh  Rh225  1  0.39618060  0.40510392  0.00958444  1
  Rh  Rh226  1  0.20503135  0.80113693  0.19956558  1
  Rh  Rh227  1  0.41068006  0.39202374  0.59795601  1
  Rh  Rh228  1  0.19895736  0.60321377  0.20441450  1
  Rh  Rh229  1  0.59892470  0.20624135  0.19611952  1
  Rh  Rh230  1  0.19245067  -0.01002652  0.19812246  1
  Rh  Rh231  1  0.39921571  0.00088403  0.79310650  1
  Rh  Rh232  1  0.80215972  0.20220888  0.20673341  1
  Rh  Rh233  1  -0.00440977  0.00098418  0.79808396  1
  Rh  Rh234  1  0.58776564  0.80381065  0.19404218  1
  Rh  Rh235  1  0.59463502  0.38910209  0.00290169  1
  Rh  Rh236  1  0.58894827  0.79790590  0.59183656  1
  Rh  Rh237  1  0.79396806  0.20236002  0.59142823  1
  Rh  Rh238  1  0.59470529  0.20980016  0.80780132  1
  Rh  Rh239  1  0.39855098  0.59337183  0.80709833  1
  Rh  Rh240  1  0.60272047  0.19792508  0.59931532  1
  Rh  Rh241  1  0.39846977  0.19314475  0.20734022  1
  Rh  Rh242  1  0.41135371  0.60736735  0.58760502  1
  Rh  Rh243  1  0.59128579  0.00365044  0.00142406  1
  Rh  Rh244  1  0.60748556  -0.00567138  0.79452892  1
  Rh  Rh245  1  0.19025168  -0.00956111  0.01431084  1
  Rh  Rh246  1  -0.00068092  0.81143130  0.59964716  1
  Rh  Rh247  1  0.00144714  0.59869903  0.20703562  1
  Rh  Rh248  1  0.59592016  -0.00572569  0.20890512  1
  Rh  Rh249  1  0.20146124  0.39758110  0.79810257  1
