# generated using pymatgen
data_ZrScNbPdRh
_symmetry_space_group_name_H-M   'P 1'
_cell_length_a   16.55819040
_cell_length_b   16.55863709
_cell_length_c   16.56208698
_cell_angle_alpha   89.97659055
_cell_angle_beta   89.99842248
_cell_angle_gamma   90.03086737
_symmetry_Int_Tables_number   1
_chemical_formula_structural   ZrScNbPdRh
_chemical_formula_sum   'Zr50 Sc50 Nb50 Pd50 Rh50'
_cell_volume   4541.00962135
_cell_formula_units_Z   50
loop_
 _symmetry_equiv_pos_site_id
 _symmetry_equiv_pos_as_xyz
  1  'x, y, z'
loop_
 _atom_site_type_symbol
 _atom_site_label
 _atom_site_symmetry_multiplicity
 _atom_site_fract_x
 _atom_site_fract_y
 _atom_site_fract_z
 _atom_site_occupancy
  Zr  Zr0  1  0.28864971  0.09308931  0.10916894  1
  Zr  Zr1  1  0.49660429  0.29846913  0.49878883  1
  Zr  Zr2  1  0.90118288  0.29635024  0.70816634  1
  Zr  Zr3  1  0.29946675  0.10079237  0.89451610  1
  Zr  Zr4  1  0.09902557  0.70161735  0.69962814  1
  Zr  Zr5  1  0.89361660  0.89311151  0.49722310  1
  Zr  Zr6  1  0.70276727  0.91029902  0.49616159  1
  Zr  Zr7  1  0.10752761  0.69523629  0.89668111  1
  Zr  Zr8  1  0.68887180  0.29878206  0.49460822  1
  Zr  Zr9  1  0.49822390  0.29436115  0.30176164  1
  Zr  Zr10  1  0.70592533  0.30187355  0.70749747  1
  Zr  Zr11  1  0.90197717  0.49971965  0.69984384  1
  Zr  Zr12  1  0.30055963  0.30354022  0.49591639  1
  Zr  Zr13  1  0.50565023  0.70260490  0.29185188  1
  Zr  Zr14  1  0.09553275  0.30183096  0.69483754  1
  Zr  Zr15  1  0.50651063  0.90505949  0.49657913  1
  Zr  Zr16  1  0.09828194  0.10608211  0.49680160  1
  Zr  Zr17  1  0.68938112  0.50076181  0.70352500  1
  Zr  Zr18  1  0.89963138  0.30303272  0.10424961  1
  Zr  Zr19  1  0.29249710  0.50433863  0.10092390  1
  Zr  Zr20  1  0.51129169  0.89327075  0.69942534  1
  Zr  Zr21  1  0.70303543  0.90257757  0.69907678  1
  Zr  Zr22  1  0.30494601  0.89844112  0.49515744  1
  Zr  Zr23  1  0.89458266  0.09080519  0.49498874  1
  Zr  Zr24  1  0.29773580  0.69801846  0.50371972  1
  Zr  Zr25  1  0.29919561  0.29621934  0.89135832  1
  Zr  Zr26  1  0.29735306  0.90790512  0.70745217  1
  Zr  Zr27  1  0.69966751  0.70651570  0.10065358  1
  Zr  Zr28  1  0.30985061  0.69696812  0.09559371  1
  Zr  Zr29  1  0.69547124  0.70429591  0.70496220  1
  Zr  Zr30  1  0.49424144  0.70304598  0.50958475  1
  Zr  Zr31  1  0.69279738  0.89948719  0.90076239  1
  Zr  Zr32  1  0.89910484  0.69146779  0.49592640  1
  Zr  Zr33  1  0.90413614  0.89950697  0.70000012  1
  Zr  Zr34  1  0.89985110  0.70411586  0.10223432  1
  Zr  Zr35  1  0.49856664  0.09949211  0.90482563  1
  Zr  Zr36  1  0.28982391  0.69936078  0.29012390  1
  Zr  Zr37  1  0.89851257  0.29788546  0.29234204  1
  Zr  Zr38  1  0.30150993  0.49929080  0.50351895  1
  Zr  Zr39  1  0.49682745  0.89784648  0.10355177  1
  Zr  Zr40  1  0.10512532  0.90389068  0.88914022  1
  Zr  Zr41  1  0.69906651  0.69798155  0.29689233  1
  Zr  Zr42  1  0.69348733  0.09791958  0.49955970  1
  Zr  Zr43  1  0.30193858  0.28738195  0.30699689  1
  Zr  Zr44  1  0.90590489  0.49845522  0.90481712  1
  Zr  Zr45  1  0.50294228  0.69302619  0.70594774  1
  Zr  Zr46  1  0.10379808  0.09860524  0.90582848  1
  Zr  Zr47  1  0.69657729  0.69703785  0.90681615  1
  Zr  Zr48  1  0.69592863  0.09725045  0.29929837  1
  Zr  Zr49  1  0.09798662  0.50614818  0.70404692  1
  Sc  Sc50  1  0.09492774  0.50377119  0.90539157  1
  Sc  Sc51  1  0.49757648  0.69512017  0.90936657  1
  Sc  Sc52  1  0.90430803  0.89831677  0.11252574  1
  Sc  Sc53  1  0.30422066  0.91532101  0.90482231  1
  Sc  Sc54  1  0.89980268  0.09672421  0.28879069  1
  Sc  Sc55  1  0.89756413  0.49380456  0.31011194  1
  Sc  Sc56  1  0.50546064  0.49428403  0.29420330  1
  Sc  Sc57  1  0.69433251  0.09801132  0.90602756  1
  Sc  Sc58  1  0.91095137  0.29580656  0.50438731  1
  Sc  Sc59  1  0.29350393  0.50933040  0.90307844  1
  Sc  Sc60  1  0.70628739  0.10097243  0.68978778  1
  Sc  Sc61  1  0.50513982  0.49679198  0.89437626  1
  Sc  Sc62  1  0.09911130  0.69028002  0.49323713  1
  Sc  Sc63  1  0.30025472  0.29863463  0.69489219  1
  Sc  Sc64  1  0.50827359  0.29827429  0.10229713  1
  Sc  Sc65  1  0.09538471  0.89631504  0.48738805  1
  Sc  Sc66  1  0.29321375  0.30150613  0.11562407  1
  Sc  Sc67  1  0.69109290  0.49890207  0.09880123  1
  Sc  Sc68  1  0.10574284  0.29845182  0.50138916  1
  Sc  Sc69  1  0.09732331  0.30205307  0.30631250  1
  Sc  Sc70  1  0.09233565  0.30371674  0.10335658  1
  Sc  Sc71  1  0.50604679  0.30338900  0.90343971  1
  Sc  Sc72  1  0.90146139  0.69504807  0.91347285  1
  Sc  Sc73  1  0.50218924  0.69437089  0.10295308  1
  Sc  Sc74  1  0.30390405  0.50092167  0.69980775  1
  Sc  Sc75  1  0.90137706  0.89705657  0.30207929  1
  Sc  Sc76  1  0.90837134  0.10244533  0.89450444  1
  Sc  Sc77  1  0.89814210  0.69915910  0.68466856  1
  Sc  Sc78  1  0.10673671  0.10993143  0.69914404  1
  Sc  Sc79  1  0.50374837  0.10757920  0.69630531  1
  Sc  Sc80  1  0.49903300  0.09738312  0.29843308  1
  Sc  Sc81  1  0.49773221  0.50112499  0.09932830  1
  Sc  Sc82  1  0.70254251  0.49141400  0.30694558  1
  Sc  Sc83  1  0.09867332  0.50015544  0.50104355  1
  Sc  Sc84  1  0.09985926  0.50099986  0.30956243  1
  Sc  Sc85  1  0.71530764  0.70045543  0.50042723  1
  Sc  Sc86  1  0.89736763  0.70630173  0.30412273  1
  Sc  Sc87  1  0.90577677  0.90710649  0.89343205  1
  Sc  Sc88  1  0.29961124  0.11121736  0.70675206  1
  Sc  Sc89  1  0.69808929  0.30097612  0.29233398  1
  Sc  Sc90  1  0.29822544  0.48911663  0.29954646  1
  Sc  Sc91  1  0.30045870  0.69144471  0.70354253  1
  Sc  Sc92  1  0.09691329  0.10321917  0.29341039  1
  Sc  Sc93  1  0.69527629  0.10355113  0.11070889  1
  Sc  Sc94  1  0.09878281  0.49757833  0.09235743  1
  Sc  Sc95  1  0.50625399  0.10576940  0.10506848  1
  Sc  Sc96  1  0.49303689  0.30546938  0.69929054  1
  Sc  Sc97  1  0.30241235  0.11150398  0.49075794  1
  Sc  Sc98  1  0.11142775  0.69700696  0.10842922  1
  Sc  Sc99  1  0.69417734  0.89743455  0.29784753  1
  Nb  Nb100  1  0.09670819  0.69816395  0.29717752  1
  Nb  Nb101  1  0.70263337  0.89825078  0.09894895  1
  Nb  Nb102  1  0.90151725  0.10387761  0.10028798  1
  Nb  Nb103  1  0.69953389  0.29536735  0.09035779  1
  Nb  Nb104  1  0.29810716  0.09825972  0.29828792  1
  Nb  Nb105  1  0.10732926  0.88593487  0.28930807  1
  Nb  Nb106  1  0.09287301  0.30080148  0.89904907  1
  Nb  Nb107  1  0.50897322  0.10263146  0.50068569  1
  Nb  Nb108  1  0.10093639  0.89779282  0.69696496  1
  Nb  Nb109  1  0.50128289  0.90530608  0.89809235  1
  Nb  Nb110  1  0.90478040  0.50390055  0.09710857  1
  Nb  Nb111  1  0.50558786  0.49933292  0.50814937  1
  Nb  Nb112  1  0.49972831  0.50401650  0.69378380  1
  Nb  Nb113  1  0.09115541  0.09534109  0.09683589  1
  Nb  Nb114  1  0.70073457  0.30557979  0.89989609  1
  Nb  Nb115  1  0.49621825  0.89703029  0.29929603  1
  Nb  Nb116  1  0.29463393  0.89905803  0.10823525  1
  Nb  Nb117  1  0.69949836  0.48915776  0.89492341  1
  Nb  Nb118  1  0.10774812  0.90594677  0.09839359  1
  Nb  Nb119  1  0.89988914  0.09923263  0.69040985  1
  Nb  Nb120  1  0.30245525  0.90455531  0.28908084  1
  Nb  Nb121  1  0.89602370  0.30256706  0.89632353  1
  Nb  Nb122  1  0.70199498  0.49753954  0.49902572  1
  Nb  Nb123  1  0.30104733  0.70201333  0.90435694  1
  Nb  Nb124  1  0.88660637  0.51078057  0.50222206  1
  Nb  Nb125  1  0.19781948  0.80553496  0.60175450  1
  Nb  Nb126  1  0.59728728  0.59566725  0.40827822  1
  Nb  Nb127  1  0.39075977  0.20281397  0.00437749  1
  Nb  Nb128  1  0.80337798  0.00507974  0.00868886  1
  Nb  Nb129  1  0.80513651  0.59635365  0.19572435  1
  Nb  Nb130  1  0.20506108  0.80631412  0.00144015  1
  Nb  Nb131  1  0.01451585  0.80566178  0.00330590  1
  Nb  Nb132  1  0.20428457  -0.00299385  0.38964728  1
  Nb  Nb133  1  0.79871885  0.19750455  0.39809540  1
  Nb  Nb134  1  0.39963102  0.80076094  0.38822580  1
  Nb  Nb135  1  0.79818851  0.40419070  0.59711974  1
  Nb  Nb136  1  0.00455140  -0.00132662  0.60008556  1
  Nb  Nb137  1  0.79515517  0.59900042  0.80481683  1
  Nb  Nb138  1  0.40578644  0.60297874  0.40100507  1
  Nb  Nb139  1  0.40002798  0.00217691  0.59623881  1
  Nb  Nb140  1  0.79809612  0.79547708  0.80341966  1
  Nb  Nb141  1  0.80214226  0.20254601  0.00062930  1
  Nb  Nb142  1  0.60638965  0.20583796  0.80259697  1
  Nb  Nb143  1  0.79883004  0.39634466  -0.00210385  1
  Nb  Nb144  1  0.40343937  0.80341339  0.80782214  1
  Nb  Nb145  1  0.39342067  0.39558427  0.00121646  1
  Nb  Nb146  1  0.19616542  0.19927045  0.00201287  1
  Nb  Nb147  1  -0.00402830  0.59974801  0.20234839  1
  Nb  Nb148  1  0.20037567  -0.00261089  0.59292647  1
  Nb  Nb149  1  0.19340234  0.39803140  0.80171991  1
  Pd  Pd150  1  0.40181406  0.39703848  0.19359711  1
  Pd  Pd151  1  0.79471633  0.40808270  0.19025927  1
  Pd  Pd152  1  0.00490024  0.41100951  0.20406893  1
  Pd  Pd153  1  0.20387514  0.80181772  0.39990694  1
  Pd  Pd154  1  -0.01040403  0.78970614  0.80787848  1
  Pd  Pd155  1  0.79779979  0.00299871  0.80589608  1
  Pd  Pd156  1  0.80576629  0.38605250  0.40926364  1
  Pd  Pd157  1  -0.00585039  0.40658897  0.59273457  1
  Pd  Pd158  1  0.00719400  0.80116168  0.59014092  1
  Pd  Pd159  1  0.00081885  0.79432461  0.39877064  1
  Pd  Pd160  1  0.39829674  0.19494192  0.59781434  1
  Pd  Pd161  1  0.59730218  0.59145380  -0.00165472  1
  Pd  Pd162  1  -0.00305563  0.40313910  0.40973336  1
  Pd  Pd163  1  0.81317269  0.81573661  -0.00525549  1
  Pd  Pd164  1  -0.00782969  -0.00748303  0.00327409  1
  Pd  Pd165  1  0.20127918  0.40311916  0.60658199  1
  Pd  Pd166  1  0.18854752  0.20138980  0.19777140  1
  Pd  Pd167  1  0.60488327  0.00143544  0.01194652  1
  Pd  Pd168  1  0.21266671  0.79967549  0.80187639  1
  Pd  Pd169  1  0.39822257  0.80705615  -0.00480445  1
  Pd  Pd170  1  0.80126131  0.20877729  0.59006131  1
  Pd  Pd171  1  0.60910342  0.60661803  0.59244835  1
  Pd  Pd172  1  0.59987093  0.79312973  0.40561646  1
  Pd  Pd173  1  -0.01183883  0.61073449  0.79910709  1
  Pd  Pd174  1  0.60179990  0.39349195  0.60512495  1
  Pd  Pd175  1  0.40640319  0.00618039  0.19550836  1
  Pd  Pd176  1  0.39992429  0.00355575  0.40164354  1
  Pd  Pd177  1  0.40054797  0.60143997  0.80757468  1
  Pd  Pd178  1  0.79759564  -0.00454590  0.19780371  1
  Pd  Pd179  1  0.79242684  0.58827542  0.00195698  1
  Pd  Pd180  1  0.60266176  0.39743082  0.19685160  1
  Pd  Pd181  1  0.58976159  0.80097145  0.00141715  1
  Pd  Pd182  1  0.18980499  0.40191703  0.20633970  1
  Pd  Pd183  1  -0.00123691  0.20551582  0.00208332  1
  Pd  Pd184  1  0.39249778  0.80627098  0.61219215  1
  Pd  Pd185  1  0.79436370  0.18563736  0.80836255  1
  Pd  Pd186  1  0.39891857  0.00690374  0.01187087  1
  Pd  Pd187  1  0.41126721  0.00063243  0.78873196  1
  Pd  Pd188  1  0.61143626  0.79731934  0.58902987  1
  Pd  Pd189  1  -0.00764601  0.19871110  0.39348130  1
  Pd  Pd190  1  0.40017430  0.59290779  0.20748486  1
  Pd  Pd191  1  0.20678274  0.59481327  0.39626497  1
  Pd  Pd192  1  0.39533425  0.40538415  0.80411198  1
  Pd  Pd193  1  0.60209742  0.01314074  0.79280893  1
  Pd  Pd194  1  0.20165195  0.39044520  -0.00677861  1
  Pd  Pd195  1  0.00712077  -0.00305056  0.39193772  1
  Pd  Pd196  1  0.00810105  0.01177802  0.78768190  1
  Pd  Pd197  1  0.00526820  -0.00503003  0.20413333  1
  Pd  Pd198  1  0.00335058  0.19467520  0.79772217  1
  Pd  Pd199  1  0.40654855  0.40945183  0.40086896  1
  Rh  Rh200  1  0.19431540  0.00747856  0.79203666  1
  Rh  Rh201  1  0.19684561  0.60547126  0.60362369  1
  Rh  Rh202  1  0.79243423  0.59195680  0.61206918  1
  Rh  Rh203  1  0.00402097  0.59717159  0.59372185  1
  Rh  Rh204  1  0.00266597  0.20067506  0.19791565  1
  Rh  Rh205  1  -0.00148580  0.19186511  0.60122731  1
  Rh  Rh206  1  0.60043670  0.19971477  -0.00556953  1
  Rh  Rh207  1  0.59655236  -0.00869298  0.20044114  1
  Rh  Rh208  1  0.79722655  0.80581924  0.60491316  1
  Rh  Rh209  1  0.39963725  0.79814448  0.20076991  1
  Rh  Rh210  1  0.40775415  0.19150721  0.39847255  1
  Rh  Rh211  1  0.00586325  0.40008871  0.80466398  1
  Rh  Rh212  1  0.20151836  0.79769463  0.19227862  1
  Rh  Rh213  1  0.19677811  0.19603427  0.39588239  1
  Rh  Rh214  1  0.20302495  0.59411212  0.79979878  1
  Rh  Rh215  1  0.79869695  0.00266212  0.38881169  1
  Rh  Rh216  1  0.60148750  0.80651180  0.19263253  1
  Rh  Rh217  1  0.59070678  0.39450998  0.79525142  1
  Rh  Rh218  1  0.79586036  0.80363359  0.39667058  1
  Rh  Rh219  1  0.40132212  0.58895500  -0.00189497  1
  Rh  Rh220  1  0.39907981  0.59380497  0.59890143  1
  Rh  Rh221  1  0.59596134  0.00048775  0.39184519  1
  Rh  Rh222  1  0.80843634  -0.00529443  0.60147057  1
  Rh  Rh223  1  0.79542539  0.79803483  0.20473133  1
  Rh  Rh224  1  0.19975758  0.60813040  0.00135183  1
  Rh  Rh225  1  0.80721149  0.40909891  0.80035591  1
  Rh  Rh226  1  0.39990727  0.19643696  0.19743416  1
  Rh  Rh227  1  0.59754287  0.40163665  0.00123444  1
  Rh  Rh228  1  0.59411770  0.00387771  0.60455774  1
  Rh  Rh229  1  0.18941642  0.20957244  0.80389532  1
  Rh  Rh230  1  0.19905777  0.39613098  0.40107257  1
  Rh  Rh231  1  0.79743547  0.19938649  0.19955836  1
  Rh  Rh232  1  0.59884458  0.20726623  0.60867024  1
  Rh  Rh233  1  -0.00602038  0.59809460  0.39441769  1
  Rh  Rh234  1  0.20242579  0.00090383  0.00146723  1
  Rh  Rh235  1  0.41582946  0.20151199  0.80727762  1
  Rh  Rh236  1  0.19106316  0.58840864  0.20406115  1
  Rh  Rh237  1  0.60034897  0.20493957  0.20391776  1
  Rh  Rh238  1  0.59221652  0.40510655  0.39966481  1
  Rh  Rh239  1  0.79365018  0.59941453  0.38916217  1
  Rh  Rh240  1  0.20604720  0.19938808  0.59467927  1
  Rh  Rh241  1  0.59494935  0.79508501  0.81458408  1
  Rh  Rh242  1  -0.00631839  0.39292898  -0.00261773  1
  Rh  Rh243  1  0.01072845  0.61251682  0.01278259  1
  Rh  Rh244  1  0.60054946  0.59785091  0.80687666  1
  Rh  Rh245  1  0.18930301  0.00087132  0.20765932  1
  Rh  Rh246  1  0.40022959  0.40382411  0.59900506  1
  Rh  Rh247  1  0.00845606  0.79553850  0.19606565  1
  Rh  Rh248  1  0.60048664  0.19705548  0.39416882  1
  Rh  Rh249  1  0.60931505  0.59346718  0.20698105  1
