# generated using pymatgen
data_ZrScNbPdRh
_symmetry_space_group_name_H-M   'P 1'
_cell_length_a   16.56273209
_cell_length_b   16.56322925
_cell_length_c   16.56161294
_cell_angle_alpha   90.00275567
_cell_angle_beta   89.99714785
_cell_angle_gamma   89.97439198
_symmetry_Int_Tables_number   1
_chemical_formula_structural   ZrScNbPdRh
_chemical_formula_sum   'Zr50 Sc50 Nb50 Pd50 Rh50'
_cell_volume   4543.38537946
_cell_formula_units_Z   50
loop_
 _symmetry_equiv_pos_site_id
 _symmetry_equiv_pos_as_xyz
  1  'x, y, z'
loop_
 _atom_site_type_symbol
 _atom_site_label
 _atom_site_symmetry_multiplicity
 _atom_site_fract_x
 _atom_site_fract_y
 _atom_site_fract_z
 _atom_site_occupancy
  Zr  Zr0  1  0.10455920  0.10660471  0.30310433  1
  Zr  Zr1  1  0.30113890  0.91334360  0.30862125  1
  Zr  Zr2  1  0.10798687  0.10259518  0.50055131  1
  Zr  Zr3  1  0.10444239  0.09697214  0.70399091  1
  Zr  Zr4  1  0.70511923  0.10188058  0.69894493  1
  Zr  Zr5  1  0.50880229  0.30180528  0.69779287  1
  Zr  Zr6  1  0.30539693  0.29376617  0.69659030  1
  Zr  Zr7  1  0.09790927  0.90194233  0.30302343  1
  Zr  Zr8  1  0.30694827  0.70314065  0.69133464  1
  Zr  Zr9  1  0.69009444  0.29250744  0.28876703  1
  Zr  Zr10  1  0.90941442  0.29799548  0.09292778  1
  Zr  Zr11  1  0.69910628  0.69869907  0.09547396  1
  Zr  Zr12  1  0.09391818  0.11425282  0.10271124  1
  Zr  Zr13  1  0.08995249  0.49666848  0.50120275  1
  Zr  Zr14  1  0.70144902  0.09998157  0.09961103  1
  Zr  Zr15  1  0.69352909  0.09785150  0.49963940  1
  Zr  Zr16  1  0.29826867  0.10432837  0.30793342  1
  Zr  Zr17  1  0.70053298  0.09883852  0.89804914  1
  Zr  Zr18  1  0.49535536  0.90627033  0.69474824  1
  Zr  Zr19  1  0.50937737  0.70165782  0.90139823  1
  Zr  Zr20  1  0.89179784  0.09357402  0.50372807  1
  Zr  Zr21  1  0.70327371  0.69472948  0.70146625  1
  Zr  Zr22  1  0.29766566  0.51563969  0.09847840  1
  Zr  Zr23  1  0.49822189  0.69619753  0.30480546  1
  Zr  Zr24  1  0.08777408  0.30194889  0.90590245  1
  Zr  Zr25  1  0.30288770  0.50342981  0.90209021  1
  Zr  Zr26  1  0.29847703  0.10279574  0.88582028  1
  Zr  Zr27  1  0.49673241  0.50018664  0.70051886  1
  Zr  Zr28  1  0.90353986  0.89557765  0.90448932  1
  Zr  Zr29  1  0.50026652  0.10883397  0.31064844  1
  Zr  Zr30  1  0.70717429  0.29480698  0.09725361  1
  Zr  Zr31  1  0.29821130  0.49421143  0.49429073  1
  Zr  Zr32  1  0.69527729  0.90010348  0.29817754  1
  Zr  Zr33  1  0.89986451  0.89659177  0.29299246  1
  Zr  Zr34  1  0.70149469  0.29369398  0.70055868  1
  Zr  Zr35  1  0.90287827  0.49484447  0.69378300  1
  Zr  Zr36  1  0.88895425  0.49642321  0.10371526  1
  Zr  Zr37  1  0.69972565  0.90665191  0.49976459  1
  Zr  Zr38  1  0.71098090  0.49944485  0.49652680  1
  Zr  Zr39  1  0.70059225  0.09811006  0.29739375  1
  Zr  Zr40  1  0.89997047  0.49941105  0.89153258  1
  Zr  Zr41  1  0.09327088  0.50226652  0.90072138  1
  Zr  Zr42  1  0.70160184  0.90062292  0.10346676  1
  Zr  Zr43  1  0.30606437  0.09141384  0.69567428  1
  Zr  Zr44  1  0.30179597  0.10005424  0.49423200  1
  Zr  Zr45  1  0.08566729  0.50405534  0.70027092  1
  Zr  Zr46  1  0.30074797  0.90700362  0.09916513  1
  Zr  Zr47  1  0.50724437  0.29803440  0.90305997  1
  Zr  Zr48  1  0.50784467  0.89999101  0.09834192  1
  Zr  Zr49  1  0.29969967  0.30124339  0.30361924  1
  Sc  Sc50  1  0.29676097  0.90628000  0.89833240  1
  Sc  Sc51  1  0.90226688  0.69343232  0.29871629  1
  Sc  Sc52  1  0.09021560  0.30145246  0.69962678  1
  Sc  Sc53  1  0.09406003  0.89568891  0.09369524  1
  Sc  Sc54  1  0.30922487  0.69425942  0.30560537  1
  Sc  Sc55  1  0.09570421  0.70718221  0.90464577  1
  Sc  Sc56  1  0.49215905  0.49879004  0.10716746  1
  Sc  Sc57  1  0.91337274  0.90501908  0.69583102  1
  Sc  Sc58  1  0.10809644  0.69859575  0.09436361  1
  Sc  Sc59  1  0.70274429  0.29229115  0.89772754  1
  Sc  Sc60  1  0.08497437  0.70773284  0.50745894  1
  Sc  Sc61  1  0.50699575  0.69736290  0.10370436  1
  Sc  Sc62  1  0.29916823  0.10161664  0.11600126  1
  Sc  Sc63  1  0.50369937  0.30065772  0.11143374  1
  Sc  Sc64  1  0.29973059  0.50104161  0.29551193  1
  Sc  Sc65  1  0.50340710  0.09560082  0.09540272  1
  Sc  Sc66  1  0.29646514  0.29279412  0.49956806  1
  Sc  Sc67  1  0.09771984  0.50135311  0.29870307  1
  Sc  Sc68  1  0.09007431  0.69691401  0.29908451  1
  Sc  Sc69  1  0.90458448  0.09928853  0.29317833  1
  Sc  Sc70  1  0.69233572  0.69883959  0.29468473  1
  Sc  Sc71  1  0.09699596  0.50109588  0.10613852  1
  Sc  Sc72  1  0.89665178  0.09896859  0.10031231  1
  Sc  Sc73  1  0.50731315  0.69597999  0.69660061  1
  Sc  Sc74  1  0.69457111  0.50022902  0.69682911  1
  Sc  Sc75  1  0.30531815  0.30781867  0.11233615  1
  Sc  Sc76  1  0.09490126  0.89877100  0.90043782  1
  Sc  Sc77  1  0.70178491  0.69650421  0.51294694  1
  Sc  Sc78  1  0.50010193  0.70165603  0.49571342  1
  Sc  Sc79  1  0.50801626  0.50496096  0.50467695  1
  Sc  Sc80  1  0.50801261  0.90875189  0.89834684  1
  Sc  Sc81  1  0.89566668  0.89769190  0.09881264  1
  Sc  Sc82  1  0.69808333  0.69374429  0.89901895  1
  Sc  Sc83  1  0.50150104  0.09732926  0.50216931  1
  Sc  Sc84  1  0.69552984  0.29804919  0.50736176  1
  Sc  Sc85  1  0.90355958  0.09202775  0.89350672  1
  Sc  Sc86  1  0.90082926  0.29401717  0.29503505  1
  Sc  Sc87  1  0.89275859  0.30613272  0.50295459  1
  Sc  Sc88  1  0.70396551  0.50227262  0.89735622  1
  Sc  Sc89  1  0.28940316  0.69889144  0.91450266  1
  Sc  Sc90  1  0.10303771  0.29839429  0.49623660  1
  Sc  Sc91  1  0.89687595  0.30513609  0.89891308  1
  Sc  Sc92  1  0.49802843  0.50134446  0.89900173  1
  Sc  Sc93  1  0.50591603  0.29358775  0.50276363  1
  Sc  Sc94  1  0.69268356  0.89953088  0.69806737  1
  Sc  Sc95  1  0.69973602  0.90270312  0.90111550  1
  Sc  Sc96  1  0.30688852  0.90051621  0.50862446  1
  Sc  Sc97  1  0.50789026  0.09815767  0.89791472  1
  Sc  Sc98  1  0.30621951  0.30314282  0.89432118  1
  Sc  Sc99  1  0.31218986  0.70684631  0.49768718  1
  Nb  Nb100  1  0.70123086  0.49225838  0.10552548  1
  Nb  Nb101  1  0.09788350  0.30262328  0.10090074  1
  Nb  Nb102  1  0.90535838  0.69090579  0.70156080  1
  Nb  Nb103  1  0.30250609  0.89718057  0.69995587  1
  Nb  Nb104  1  0.90307997  0.89406584  0.49905388  1
  Nb  Nb105  1  0.89608862  0.69918260  0.89729331  1
  Nb  Nb106  1  0.50418072  0.09603456  0.70214355  1
  Nb  Nb107  1  0.70324992  0.49481236  0.29245636  1
  Nb  Nb108  1  0.50003875  0.30502851  0.29966025  1
  Nb  Nb109  1  0.89817835  0.50501805  0.49317371  1
  Nb  Nb110  1  0.89353421  0.69495988  0.50372921  1
  Nb  Nb111  1  0.09433628  0.89591924  0.50710497  1
  Nb  Nb112  1  0.10746066  0.88873467  0.68470458  1
  Nb  Nb113  1  0.50111171  0.89991366  0.49262807  1
  Nb  Nb114  1  0.30151263  0.50118126  0.70045822  1
  Nb  Nb115  1  0.10008895  0.30258625  0.29634250  1
  Nb  Nb116  1  0.89567681  0.70045899  0.09016117  1
  Nb  Nb117  1  0.10375295  0.10569175  0.90098974  1
  Nb  Nb118  1  0.89501802  0.29256696  0.69750395  1
  Nb  Nb119  1  0.89818791  0.10556682  0.69974772  1
  Nb  Nb120  1  0.89348816  0.50247934  0.31155486  1
  Nb  Nb121  1  0.50116539  0.50265685  0.30117890  1
  Nb  Nb122  1  0.30076872  0.70858571  0.10310383  1
  Nb  Nb123  1  0.50271712  0.89222989  0.30712816  1
  Nb  Nb124  1  0.09821589  0.70064935  0.69653729  1
  Nb  Nb125  1  0.41055938  0.39970468  0.39577539  1
  Nb  Nb126  1  0.40104107  0.80280050  0.00155139  1
  Nb  Nb127  1  0.19827432  0.39747470  -0.00063077  1
  Nb  Nb128  1  0.60687849  0.40109060  0.00791667  1
  Nb  Nb129  1  0.20130147  0.40693907  0.60836375  1
  Nb  Nb130  1  0.20096866  0.79876019  0.78819790  1
  Nb  Nb131  1  0.39457066  0.19882566  -0.00004249  1
  Nb  Nb132  1  0.80804392  0.79408562  0.79713026  1
  Nb  Nb133  1  0.60108746  0.40396972  0.38995147  1
  Nb  Nb134  1  0.19877948  0.60209214  0.79193150  1
  Nb  Nb135  1  0.19647187  0.80035847  0.40186194  1
  Nb  Nb136  1  0.19858615  0.59999834  0.60088326  1
  Nb  Nb137  1  0.20002752  0.40670536  0.79778749  1
  Nb  Nb138  1  0.20685139  0.80171078  0.20559994  1
  Nb  Nb139  1  0.79459130  0.19617000  0.39901081  1
  Nb  Nb140  1  0.00075539  -0.00522048  0.40807049  1
  Nb  Nb141  1  0.39912000  0.80414981  0.19993249  1
  Nb  Nb142  1  -0.00792878  0.19452909  0.60282182  1
  Nb  Nb143  1  0.19551480  0.01499760  -0.00262881  1
  Nb  Nb144  1  0.80483304  0.80119072  0.40644674  1
  Nb  Nb145  1  -0.00729770  0.40319459  0.39632690  1
  Nb  Nb146  1  -0.01164766  0.60289665  0.00061449  1
  Nb  Nb147  1  0.20261219  0.20537342  0.00041014  1
  Nb  Nb148  1  0.39699931  0.80170320  0.80297641  1
  Nb  Nb149  1  0.19518398  0.60493401  0.40917907  1
  Pd  Pd150  1  0.79626735  0.39871992  0.79534671  1
  Pd  Pd151  1  0.60423985  0.40446531  0.80808613  1
  Pd  Pd152  1  0.20458777  -0.00271833  0.59628752  1
  Pd  Pd153  1  0.79965918  0.79061540  0.20550175  1
  Pd  Pd154  1  -0.00899917  0.20248385  0.40752361  1
  Pd  Pd155  1  0.20018492  0.61063302  0.21091650  1
  Pd  Pd156  1  0.61200883  0.79286953  0.40775230  1
  Pd  Pd157  1  0.80055213  -0.00863345  0.60995628  1
  Pd  Pd158  1  0.81108825  0.19385323  -0.00893236  1
  Pd  Pd159  1  0.00310034  0.00648785  0.59795593  1
  Pd  Pd160  1  0.39907817  0.39754844  0.59072852  1
  Pd  Pd161  1  0.41172455  -0.00100417  0.20958224  1
  Pd  Pd162  1  0.40340285  0.39251677  0.00615693  1
  Pd  Pd163  1  0.60299604  0.80292504  0.80067461  1
  Pd  Pd164  1  0.59531212  0.79961513  0.59588863  1
  Pd  Pd165  1  0.79741375  0.40167937  0.60381450  1
  Pd  Pd166  1  0.79108007  0.61280427  0.39430689  1
  Pd  Pd167  1  0.18850201  -0.00352366  0.19094903  1
  Pd  Pd168  1  0.80746499  -0.00148143  0.39147457  1
  Pd  Pd169  1  0.20055594  0.40221660  0.19608760  1
  Pd  Pd170  1  0.39614152  0.61227527  0.80548010  1
  Pd  Pd171  1  0.40526070  0.19728644  0.19717350  1
  Pd  Pd172  1  -0.00589893  0.40344466  0.20762803  1
  Pd  Pd173  1  0.39392336  0.00594040  -0.00788896  1
  Pd  Pd174  1  0.00201244  0.00514722  0.00212459  1
  Pd  Pd175  1  0.60918101  0.59655746  0.40286047  1
  Pd  Pd176  1  0.40708255  0.19478881  0.59737639  1
  Pd  Pd177  1  -0.00336461  0.79838089  0.39954989  1
  Pd  Pd178  1  -0.00555456  0.20140834  0.79958474  1
  Pd  Pd179  1  0.19431609  0.21422753  0.79963976  1
  Pd  Pd180  1  0.40056055  0.39833516  0.79868196  1
  Pd  Pd181  1  0.59266330  0.00411844  0.20555723  1
  Pd  Pd182  1  0.80155766  -0.01128994  0.79454732  1
  Pd  Pd183  1  0.59931286  0.58667882  0.00388945  1
  Pd  Pd184  1  0.80627532  0.80417031  0.60516225  1
  Pd  Pd185  1  0.40727550  0.61079812  0.00283379  1
  Pd  Pd186  1  0.80665339  0.39115271  0.20535261  1
  Pd  Pd187  1  -0.00698678  0.60060265  0.19121247  1
  Pd  Pd188  1  0.59939472  0.59452525  0.19715052  1
  Pd  Pd189  1  0.19082495  -0.01206342  0.80085127  1
  Pd  Pd190  1  0.79914177  0.60581102  0.20370344  1
  Pd  Pd191  1  0.00351592  0.00188764  0.20002389  1
  Pd  Pd192  1  0.00469396  0.79156406  0.19002589  1
  Pd  Pd193  1  0.00880973  -0.00469129  0.79675633  1
  Pd  Pd194  1  0.41267648  0.19835424  0.80191243  1
  Pd  Pd195  1  0.00202105  0.79866646  0.79474463  1
  Pd  Pd196  1  0.79149976  0.80144541  -0.00882981  1
  Pd  Pd197  1  0.79623940  0.38705027  0.39162867  1
  Pd  Pd198  1  0.79918188  0.59436863  -0.00273183  1
  Pd  Pd199  1  0.40040073  0.59897117  0.59192563  1
  Rh  Rh200  1  -0.00523597  0.60525803  0.59362160  1
  Rh  Rh201  1  0.40244766  0.20875011  0.40513051  1
  Rh  Rh202  1  0.80145569  -0.00074705  -0.00007253  1
  Rh  Rh203  1  0.59268658  0.20696981  0.00757560  1
  Rh  Rh204  1  0.19201994  -0.01052871  0.41321053  1
  Rh  Rh205  1  0.59316233  -0.00171792  0.39766723  1
  Rh  Rh206  1  0.41152239  0.80284382  0.60345889  1
  Rh  Rh207  1  0.19135690  0.20733850  0.61034369  1
  Rh  Rh208  1  0.59293166  0.79822905  0.20124036  1
  Rh  Rh209  1  0.59300715  0.19130952  0.19511173  1
  Rh  Rh210  1  0.60554873  0.20719756  0.40188856  1
  Rh  Rh211  1  0.60210044  0.40362078  0.59382543  1
  Rh  Rh212  1  0.20394892  0.79362890  0.59414952  1
  Rh  Rh213  1  0.40476095  -0.00494677  0.80140998  1
  Rh  Rh214  1  -0.00315681  0.79259580  0.00440279  1
  Rh  Rh215  1  0.19307320  0.40324453  0.40215629  1
  Rh  Rh216  1  -0.01281973  0.79349853  0.60506705  1
  Rh  Rh217  1  0.60415920  0.00297233  0.79509466  1
  Rh  Rh218  1  0.59924471  0.59426096  0.79872157  1
  Rh  Rh219  1  -0.00051369  0.20380090  0.20208449  1
  Rh  Rh220  1  0.40304929  0.00126711  0.59480895  1
  Rh  Rh221  1  0.59971522  0.19535665  0.79557702  1
  Rh  Rh222  1  0.40153133  0.60579755  0.20016243  1
  Rh  Rh223  1  0.00124794  0.59639859  0.40402427  1
  Rh  Rh224  1  0.59829018  0.40690275  0.19886094  1
  Rh  Rh225  1  0.00317084  0.61202413  0.80964319  1
  Rh  Rh226  1  0.60986468  0.00117494  -0.00064645  1
  Rh  Rh227  1  0.80012557  0.60117604  0.79430188  1
  Rh  Rh228  1  0.20543461  0.81442405  0.00077027  1
  Rh  Rh229  1  0.79359316  0.40031813  -0.00254156  1
  Rh  Rh230  1  0.60098411  0.59892988  0.59949663  1
  Rh  Rh231  1  -0.00456370  0.39075870  0.79592489  1
  Rh  Rh232  1  0.59698396  0.19248851  0.60634613  1
  Rh  Rh233  1  0.39589904  0.58877836  0.40292123  1
  Rh  Rh234  1  -0.00042351  0.41266801  0.00727869  1
  Rh  Rh235  1  0.39548293  0.80718189  0.39504176  1
  Rh  Rh236  1  0.19910879  0.20882028  0.39515358  1
  Rh  Rh237  1  0.59623902  0.00044663  0.60011858  1
  Rh  Rh238  1  0.80442618  0.59295948  0.60565709  1
  Rh  Rh239  1  -0.00128313  0.38734787  0.59082362  1
  Rh  Rh240  1  0.39843589  0.40754116  0.20699774  1
  Rh  Rh241  1  -0.00329931  0.19425757  -0.00612009  1
  Rh  Rh242  1  0.80488780  0.19807520  0.80456019  1
  Rh  Rh243  1  0.19855908  0.21034597  0.20074007  1
  Rh  Rh244  1  0.60145269  0.80146189  -0.00079640  1
  Rh  Rh245  1  0.80099746  -0.00055393  0.19703559  1
  Rh  Rh246  1  0.80178397  0.20011204  0.59265777  1
  Rh  Rh247  1  0.40722416  -0.00003264  0.40454900  1
  Rh  Rh248  1  0.18916403  0.59212791  -0.00249102  1
  Rh  Rh249  1  0.80498837  0.19871678  0.20198647  1
