# generated using pymatgen
data_ZrScNbPdRh
_symmetry_space_group_name_H-M   'P 1'
_cell_length_a   16.55865272
_cell_length_b   16.55253509
_cell_length_c   16.56164754
_cell_angle_alpha   89.99048096
_cell_angle_beta   90.02612451
_cell_angle_gamma   90.00692427
_symmetry_Int_Tables_number   1
_chemical_formula_structural   ZrScNbPdRh
_chemical_formula_sum   'Zr50 Sc50 Nb50 Pd50 Rh50'
_cell_volume   4539.34298436
_cell_formula_units_Z   50
loop_
 _symmetry_equiv_pos_site_id
 _symmetry_equiv_pos_as_xyz
  1  'x, y, z'
loop_
 _atom_site_type_symbol
 _atom_site_label
 _atom_site_symmetry_multiplicity
 _atom_site_fract_x
 _atom_site_fract_y
 _atom_site_fract_z
 _atom_site_occupancy
  Zr  Zr0  1  0.28636201  0.90854876  0.49672944  1
  Zr  Zr1  1  0.70502371  0.69840453  0.90310114  1
  Zr  Zr2  1  0.88860316  0.70595874  0.49565882  1
  Zr  Zr3  1  0.29397449  0.90479523  0.70294624  1
  Zr  Zr4  1  0.09963057  0.09621293  0.49778859  1
  Zr  Zr5  1  0.09868408  0.29805963  0.49960015  1
  Zr  Zr6  1  0.30082766  0.70065268  0.29095555  1
  Zr  Zr7  1  0.50102194  0.49602360  0.90180002  1
  Zr  Zr8  1  0.90918555  0.30074456  0.30715902  1
  Zr  Zr9  1  0.09886929  0.09573378  0.90438089  1
  Zr  Zr10  1  0.70581140  0.70025994  0.10235986  1
  Zr  Zr11  1  0.69472820  0.49920329  0.90818407  1
  Zr  Zr12  1  0.09419081  0.49911760  0.30224306  1
  Zr  Zr13  1  0.70321214  0.29537282  0.29634802  1
  Zr  Zr14  1  0.30136861  0.29539981  0.30014426  1
  Zr  Zr15  1  0.30558430  0.90053208  0.30064989  1
  Zr  Zr16  1  0.49792851  0.49159718  0.30124045  1
  Zr  Zr17  1  0.30034970  0.29475694  0.91039643  1
  Zr  Zr18  1  0.29443252  0.49452223  0.90338789  1
  Zr  Zr19  1  0.09937780  0.28834895  0.89552528  1
  Zr  Zr20  1  0.70002852  0.29331364  0.09124694  1
  Zr  Zr21  1  0.49763334  0.29537800  0.09708445  1
  Zr  Zr22  1  0.09889705  0.70489540  0.49266204  1
  Zr  Zr23  1  0.90803495  0.71013360  0.09761470  1
  Zr  Zr24  1  0.90218897  0.90197462  0.49079565  1
  Zr  Zr25  1  0.90723817  0.49603841  0.69905269  1
  Zr  Zr26  1  0.49870885  0.70781999  0.69290180  1
  Zr  Zr27  1  0.89625142  0.30369459  0.10222856  1
  Zr  Zr28  1  0.89852180  0.70042384  0.70108661  1
  Zr  Zr29  1  0.30269004  0.49561871  0.10291953  1
  Zr  Zr30  1  0.10909447  0.70321664  0.69181716  1
  Zr  Zr31  1  0.09468365  0.70284844  0.10411678  1
  Zr  Zr32  1  0.10197740  0.90437804  0.69489155  1
  Zr  Zr33  1  0.69962029  0.90810820  0.69145947  1
  Zr  Zr34  1  0.70739216  0.70458483  0.30065952  1
  Zr  Zr35  1  0.70575664  0.70788797  0.69392992  1
  Zr  Zr36  1  0.09670185  0.30502789  0.69652865  1
  Zr  Zr37  1  0.89291875  0.49252804  0.49561828  1
  Zr  Zr38  1  0.29358657  0.09213551  0.89999899  1
  Zr  Zr39  1  0.70255703  0.90815464  0.90710853  1
  Zr  Zr40  1  0.29727008  0.10707801  0.50149745  1
  Zr  Zr41  1  0.50247023  0.70429623  0.50310754  1
  Zr  Zr42  1  0.09030826  0.90299792  0.09840159  1
  Zr  Zr43  1  0.30284166  0.30256998  0.10689952  1
  Zr  Zr44  1  0.49638753  0.90608986  0.69735295  1
  Zr  Zr45  1  0.10519567  0.91174962  0.89748980  1
  Zr  Zr46  1  0.09869597  0.50030528  0.50310167  1
  Zr  Zr47  1  0.10455529  0.49579949  0.69714780  1
  Zr  Zr48  1  0.88712068  0.29321168  0.90375589  1
  Zr  Zr49  1  0.90110548  0.70234184  0.90345378  1
  Sc  Sc50  1  0.49730651  0.10228515  0.90536078  1
  Sc  Sc51  1  0.90035429  0.90478266  0.90579504  1
  Sc  Sc52  1  0.89225688  0.90347070  0.69923982  1
  Sc  Sc53  1  0.10882512  0.29988343  0.11618542  1
  Sc  Sc54  1  0.09936137  0.50022327  0.90052906  1
  Sc  Sc55  1  0.50063720  0.90678285  0.10547687  1
  Sc  Sc56  1  0.90198792  0.50439959  0.10634806  1
  Sc  Sc57  1  0.31272228  0.89772402  0.10476672  1
  Sc  Sc58  1  0.49583342  0.29449996  0.30019997  1
  Sc  Sc59  1  0.90217672  0.09761471  0.89523590  1
  Sc  Sc60  1  0.50381661  0.29779333  0.90415283  1
  Sc  Sc61  1  0.70519636  0.48617158  0.69739775  1
  Sc  Sc62  1  0.29175476  0.69908878  0.90063009  1
  Sc  Sc63  1  0.50161600  0.69911307  0.90503464  1
  Sc  Sc64  1  0.90242133  0.49948599  0.29788285  1
  Sc  Sc65  1  0.09507844  0.10366466  0.71363680  1
  Sc  Sc66  1  0.89441995  0.30046811  0.70520654  1
  Sc  Sc67  1  0.89521791  0.09944650  0.48050262  1
  Sc  Sc68  1  0.50991747  0.90060099  0.50218338  1
  Sc  Sc69  1  0.10019494  0.69989875  0.29995998  1
  Sc  Sc70  1  0.70385168  0.50172255  0.09767929  1
  Sc  Sc71  1  0.69249699  0.09195254  0.10020843  1
  Sc  Sc72  1  0.70349869  0.90022659  0.49451468  1
  Sc  Sc73  1  0.89842464  0.90646858  0.29766173  1
  Sc  Sc74  1  0.29499275  0.69776293  0.50858874  1
  Sc  Sc75  1  0.89104593  0.10233004  0.70700960  1
  Sc  Sc76  1  0.50163175  0.09335609  0.29762808  1
  Sc  Sc77  1  0.49757823  0.49106157  0.68804273  1
  Sc  Sc78  1  0.10023680  0.89569323  0.49610810  1
  Sc  Sc79  1  0.90119082  0.70253029  0.29829540  1
  Sc  Sc80  1  0.69498180  0.30081316  0.89713980  1
  Sc  Sc81  1  0.49944497  0.69771176  0.10326709  1
  Sc  Sc82  1  0.50361733  0.50021037  0.09965379  1
  Sc  Sc83  1  0.71207754  0.50168044  0.29910789  1
  Sc  Sc84  1  0.30589227  0.49617373  0.50953610  1
  Sc  Sc85  1  0.49007457  0.91002215  0.90821983  1
  Sc  Sc86  1  0.30273365  0.49809022  0.29447388  1
  Sc  Sc87  1  0.50669182  0.70172460  0.29109125  1
  Sc  Sc88  1  0.50892029  0.29782414  0.69861171  1
  Sc  Sc89  1  0.69880738  0.10919956  0.90247798  1
  Sc  Sc90  1  0.09681730  0.50131755  0.10326526  1
  Sc  Sc91  1  0.49888628  0.09866950  0.50867811  1
  Sc  Sc92  1  0.69699697  0.09177178  0.29629163  1
  Sc  Sc93  1  0.30129755  0.10600666  0.10229843  1
  Sc  Sc94  1  0.08996095  0.10652094  0.29908007  1
  Sc  Sc95  1  0.10153892  0.09440083  0.10455633  1
  Sc  Sc96  1  0.50388449  0.10204960  0.10162334  1
  Sc  Sc97  1  0.49120191  0.31683082  0.49385611  1
  Sc  Sc98  1  0.09466696  0.69652687  0.90886515  1
  Sc  Sc99  1  0.89852581  0.50350359  0.89746717  1
  Nb  Nb100  1  0.29583806  0.29848412  0.50170970  1
  Nb  Nb101  1  0.50449492  0.50069294  0.49477991  1
  Nb  Nb102  1  0.30181692  0.09521983  0.30173960  1
  Nb  Nb103  1  0.70553880  0.90156713  0.10040243  1
  Nb  Nb104  1  0.70326680  0.69716655  0.49677608  1
  Nb  Nb105  1  0.30098481  0.69810747  0.70031893  1
  Nb  Nb106  1  0.29723945  0.30221780  0.69010242  1
  Nb  Nb107  1  0.68537212  0.11045140  0.69264879  1
  Nb  Nb108  1  0.50002889  0.90029726  0.30103799  1
  Nb  Nb109  1  0.70074237  0.49785571  0.49621847  1
  Nb  Nb110  1  0.91080168  0.08309094  0.11710555  1
  Nb  Nb111  1  0.30429912  0.69955828  0.10079994  1
  Nb  Nb112  1  0.10365906  0.88977562  0.30450338  1
  Nb  Nb113  1  0.29679986  0.50128956  0.70182022  1
  Nb  Nb114  1  0.89955872  0.29747817  0.49727325  1
  Nb  Nb115  1  0.69650997  0.10777244  0.50564768  1
  Nb  Nb116  1  0.68959424  0.89986059  0.29059953  1
  Nb  Nb117  1  0.71085199  0.29994063  0.49859296  1
  Nb  Nb118  1  0.31187329  0.09878561  0.69439487  1
  Nb  Nb119  1  0.90190353  0.09632718  0.29379920  1
  Nb  Nb120  1  0.29548516  0.90328962  0.90029823  1
  Nb  Nb121  1  0.10193502  0.30469721  0.30184593  1
  Nb  Nb122  1  0.69959367  0.28247363  0.69847967  1
  Nb  Nb123  1  0.90046787  0.90499592  0.10090521  1
  Nb  Nb124  1  0.49963193  0.09886876  0.70114426  1
  Nb  Nb125  1  0.59777643  0.80579342  0.80340793  1
  Nb  Nb126  1  0.40213872  0.80028177  0.39846202  1
  Nb  Nb127  1  0.20082303  0.39340626  0.40185727  1
  Nb  Nb128  1  0.60319835  0.59732832  0.40508129  1
  Nb  Nb129  1  -0.00554237  0.19930681  0.59484443  1
  Nb  Nb130  1  0.60257538  0.39406103  0.19934033  1
  Nb  Nb131  1  0.39523234  0.19933859  0.79174984  1
  Nb  Nb132  1  0.39530879  0.79942257  0.80036512  1
  Nb  Nb133  1  0.80894732  0.19035315  0.19996234  1
  Nb  Nb134  1  0.20308271  -0.00291061  0.20846655  1
  Nb  Nb135  1  0.39426379  0.59873499  -0.00163708  1
  Nb  Nb136  1  0.40784538  0.60274391  0.40203005  1
  Nb  Nb137  1  0.60627342  0.59667349  0.59336430  1
  Nb  Nb138  1  -0.00340574  0.60168925  0.59691707  1
  Nb  Nb139  1  -0.00270874  0.00683579  0.59665527  1
  Nb  Nb140  1  0.60656128  0.80412608  0.00041960  1
  Nb  Nb141  1  0.59757528  0.60333839  0.79132964  1
  Nb  Nb142  1  0.60722343  0.20201620  0.40712033  1
  Nb  Nb143  1  0.39715805  0.59877700  0.79665852  1
  Nb  Nb144  1  -0.00346715  0.19888822  0.00812160  1
  Nb  Nb145  1  0.39117277  0.39611214  0.79466287  1
  Nb  Nb146  1  -0.00241430  0.38958663  0.00104528  1
  Nb  Nb147  1  0.59766373  0.00380615  0.79440467  1
  Nb  Nb148  1  0.00261214  0.80142028  0.79922665  1
  Nb  Nb149  1  0.20431465  0.80503979  0.00312356  1
  Pd  Pd150  1  0.40493203  0.59540739  0.59953488  1
  Pd  Pd151  1  0.79316607  0.39696179  0.80281851  1
  Pd  Pd152  1  0.00858505  0.60666991  0.79520392  1
  Pd  Pd153  1  0.20133218  0.60564990  0.00762869  1
  Pd  Pd154  1  0.38783999  0.81112104  0.59500433  1
  Pd  Pd155  1  0.59921825  0.79670708  0.39865291  1
  Pd  Pd156  1  0.80241285  0.80862935  0.80396410  1
  Pd  Pd157  1  0.79119073  0.59190980  0.79553020  1
  Pd  Pd158  1  0.39586433  0.00762991  0.00827956  1
  Pd  Pd159  1  -0.00055239  0.20582435  0.19668932  1
  Pd  Pd160  1  0.80919973  0.18211047  0.01302474  1
  Pd  Pd161  1  0.19804243  0.60225781  0.80061263  1
  Pd  Pd162  1  0.19731918  0.59635849  0.19836293  1
  Pd  Pd163  1  -0.00912636  0.60356265  0.40336838  1
  Pd  Pd164  1  0.80671852  0.80703612  0.20146889  1
  Pd  Pd165  1  0.80949166  0.59687246  0.00595951  1
  Pd  Pd166  1  0.20908928  0.19673255  0.79025206  1
  Pd  Pd167  1  0.80061103  0.59477756  0.60200717  1
  Pd  Pd168  1  -0.00297953  0.39451610  0.81167640  1
  Pd  Pd169  1  0.19687345  0.20046109  0.39230259  1
  Pd  Pd170  1  0.19995887  0.80754880  0.19209998  1
  Pd  Pd171  1  0.40851526  0.21051839  0.59921589  1
  Pd  Pd172  1  0.40931299  0.19585866  0.40465039  1
  Pd  Pd173  1  0.58890495  0.21346106  0.58650117  1
  Pd  Pd174  1  0.39829096  -0.00577607  0.59013166  1
  Pd  Pd175  1  0.40229388  0.19294046  0.20357399  1
  Pd  Pd176  1  0.80939663  0.19509292  0.59898063  1
  Pd  Pd177  1  0.80546854  0.01121349  0.59353574  1
  Pd  Pd178  1  0.59712040  0.80403325  0.18939129  1
  Pd  Pd179  1  0.79022673  -0.00114746  0.39352149  1
  Pd  Pd180  1  0.59699246  0.40168160  0.79429987  1
  Pd  Pd181  1  0.79674456  0.39716207  0.20068443  1
  Pd  Pd182  1  0.19722617  0.79680261  0.80883292  1
  Pd  Pd183  1  0.39975032  0.79351982  -0.00576566  1
  Pd  Pd184  1  0.60473052  0.58970777  0.20652185  1
  Pd  Pd185  1  0.60757982  0.39508072  0.59651431  1
  Pd  Pd186  1  0.78816868  0.00879612  0.79905554  1
  Pd  Pd187  1  0.18674266  0.39551626  0.00557687  1
  Pd  Pd188  1  0.19164501  0.19319015  0.60887164  1
  Pd  Pd189  1  0.80586441  0.00988329  0.00491785  1
  Pd  Pd190  1  0.79645737  0.19404176  0.39057273  1
  Pd  Pd191  1  0.60103540  0.00727386  0.40437046  1
  Pd  Pd192  1  0.19109650  0.00541088  0.38975816  1
  Pd  Pd193  1  0.60918104  0.39720620  0.39289612  1
  Pd  Pd194  1  0.80020670  0.39162134  0.60249333  1
  Pd  Pd195  1  -0.00625687  0.80435505  0.60326713  1
  Pd  Pd196  1  0.40792927  -0.00239324  0.40642715  1
  Pd  Pd197  1  0.20259582  0.39364969  0.80131287  1
  Pd  Pd198  1  0.19267153  0.19854181  0.01284065  1
  Pd  Pd199  1  0.21335581  0.59262905  0.40155989  1
  Rh  Rh200  1  0.59273688  0.19422797  0.80332265  1
  Rh  Rh201  1  0.59841440  0.19730034  -0.00186865  1
  Rh  Rh202  1  0.79810319  0.80407148  0.00495233  1
  Rh  Rh203  1  -0.00935038  0.39578741  0.59554061  1
  Rh  Rh204  1  0.19325051  0.01139134  0.60606986  1
  Rh  Rh205  1  0.19649752  0.59840316  0.59949053  1
  Rh  Rh206  1  0.01306547  -0.01104059  0.21449457  1
  Rh  Rh207  1  0.39823024  0.00519255  0.20099205  1
  Rh  Rh208  1  0.79562014  0.80895468  0.39220650  1
  Rh  Rh209  1  -0.00350609  -0.00952302  0.79150278  1
  Rh  Rh210  1  0.39673639  0.39703240  0.60316865  1
  Rh  Rh211  1  0.40150219  0.00207499  0.80294020  1
  Rh  Rh212  1  0.40946142  0.39596907  0.19714867  1
  Rh  Rh213  1  0.80091727  0.39794800  0.39727290  1
  Rh  Rh214  1  -0.00763360  0.20539953  0.80057662  1
  Rh  Rh215  1  -0.00709743  0.00690672  -0.00227875  1
  Rh  Rh216  1  0.59996692  0.39648036  0.01032957  1
  Rh  Rh217  1  0.80506250  0.60591089  0.19824028  1
  Rh  Rh218  1  0.61144268  0.80099127  0.59807968  1
  Rh  Rh219  1  0.00238327  0.40071429  0.19629764  1
  Rh  Rh220  1  0.60642361  0.20157938  0.20548771  1
  Rh  Rh221  1  0.79947917  0.80685430  0.59293364  1
  Rh  Rh222  1  0.38504084  0.40660252  0.40064342  1
  Rh  Rh223  1  -0.00010144  0.60437969  0.20317233  1
  Rh  Rh224  1  0.59412931  0.60605823  -0.00245129  1
  Rh  Rh225  1  0.79298832  -0.00199529  0.20098190  1
  Rh  Rh226  1  0.21003835  -0.00980579  0.01879275  1
  Rh  Rh227  1  0.20958167  0.79202133  0.40070555  1
  Rh  Rh228  1  0.40159152  0.59960876  0.19688615  1
  Rh  Rh229  1  0.20434654  0.01034229  0.79117154  1
  Rh  Rh230  1  0.20297613  0.18920427  0.20901274  1
  Rh  Rh231  1  0.20456881  0.80158813  0.59493506  1
  Rh  Rh232  1  0.60258248  0.00208380  0.59879754  1
  Rh  Rh233  1  0.20558894  0.40090168  0.59366677  1
  Rh  Rh234  1  0.79953597  0.59925656  0.39551495  1
  Rh  Rh235  1  0.19824769  0.40573713  0.21023452  1
  Rh  Rh236  1  0.40342710  0.40290311  -0.00226875  1
  Rh  Rh237  1  -0.00188795  0.58808858  0.00167349  1
  Rh  Rh238  1  0.59729954  -0.00355296  0.19771939  1
  Rh  Rh239  1  0.00512997  -0.00447334  0.39756952  1
  Rh  Rh240  1  -0.00451740  0.80512510  0.20668823  1
  Rh  Rh241  1  0.39922939  0.19644138  -0.00383567  1
  Rh  Rh242  1  0.00422122  0.39958929  0.40342951  1
  Rh  Rh243  1  -0.00036183  0.20093656  0.40218687  1
  Rh  Rh244  1  0.59790090  -0.00412911  -0.00281226  1
  Rh  Rh245  1  0.80509770  0.40952076  -0.00398366  1
  Rh  Rh246  1  0.79245364  0.19661042  0.79905635  1
  Rh  Rh247  1  0.40868977  0.79859328  0.20631429  1
  Rh  Rh248  1  0.00560632  0.80949536  -0.00953032  1
  Rh  Rh249  1  -0.00270334  0.80079465  0.39240164  1
