# generated using pymatgen
data_ZrScNbPdRh
_symmetry_space_group_name_H-M   'P 1'
_cell_length_a   16.56677607
_cell_length_b   16.55887503
_cell_length_c   16.56658654
_cell_angle_alpha   89.95809968
_cell_angle_beta   90.01316429
_cell_angle_gamma   89.99723211
_symmetry_Int_Tables_number   1
_chemical_formula_structural   ZrScNbPdRh
_chemical_formula_sum   'Zr50 Sc50 Nb50 Pd50 Rh50'
_cell_volume   4544.66353737
_cell_formula_units_Z   50
loop_
 _symmetry_equiv_pos_site_id
 _symmetry_equiv_pos_as_xyz
  1  'x, y, z'
loop_
 _atom_site_type_symbol
 _atom_site_label
 _atom_site_symmetry_multiplicity
 _atom_site_fract_x
 _atom_site_fract_y
 _atom_site_fract_z
 _atom_site_occupancy
  Zr  Zr0  1  0.50107503  0.29790372  0.48936071  1
  Zr  Zr1  1  0.29844466  0.09456618  0.70136443  1
  Zr  Zr2  1  0.89346774  0.10176416  0.49952130  1
  Zr  Zr3  1  0.70353935  0.68848801  0.30298127  1
  Zr  Zr4  1  0.49110304  0.69966550  0.90231872  1
  Zr  Zr5  1  0.90401138  0.50127554  0.49890677  1
  Zr  Zr6  1  0.30112923  0.69877703  0.09943682  1
  Zr  Zr7  1  0.91335499  0.69572295  0.89743818  1
  Zr  Zr8  1  0.29567206  0.69877151  0.29800860  1
  Zr  Zr9  1  0.29268032  0.50472458  0.49563674  1
  Zr  Zr10  1  0.69682392  0.30439153  0.28523604  1
  Zr  Zr11  1  0.50001266  0.90122699  0.90316034  1
  Zr  Zr12  1  0.69568856  0.09162073  0.71389543  1
  Zr  Zr13  1  0.09936784  0.70423916  0.10287381  1
  Zr  Zr14  1  0.70995389  0.29889646  0.50165497  1
  Zr  Zr15  1  0.69724027  0.88765380  0.51114345  1
  Zr  Zr16  1  0.50665654  0.69832191  0.08398128  1
  Zr  Zr17  1  0.09334174  0.10528327  0.90118142  1
  Zr  Zr18  1  0.70463175  0.50404031  0.69730741  1
  Zr  Zr19  1  0.89679914  0.08860608  0.29617013  1
  Zr  Zr20  1  0.29877213  0.29972817  0.48430037  1
  Zr  Zr21  1  0.90480448  0.90221761  0.49855131  1
  Zr  Zr22  1  0.30032847  0.30055693  0.29369671  1
  Zr  Zr23  1  0.50306121  0.50505786  0.49065305  1
  Zr  Zr24  1  0.10388491  0.29806222  0.70597943  1
  Zr  Zr25  1  0.29940712  0.90131296  0.50119309  1
  Zr  Zr26  1  0.70711747  0.91284881  0.90157610  1
  Zr  Zr27  1  0.90897142  0.49453282  0.10216823  1
  Zr  Zr28  1  0.89277424  0.90296857  0.10267343  1
  Zr  Zr29  1  0.30065299  0.50414591  0.29756913  1
  Zr  Zr30  1  0.27920009  0.29473307  0.90456903  1
  Zr  Zr31  1  0.90788598  0.30521208  0.49718792  1
  Zr  Zr32  1  0.09516373  0.49741218  0.49389192  1
  Zr  Zr33  1  0.50340623  0.69645556  0.69792625  1
  Zr  Zr34  1  0.09901804  0.29586689  0.30678599  1
  Zr  Zr35  1  0.29687836  0.30137179  0.09846858  1
  Zr  Zr36  1  0.90199412  0.50088607  0.90060602  1
  Zr  Zr37  1  0.69674529  0.10113728  0.49592755  1
  Zr  Zr38  1  0.50012183  0.09874107  0.90640712  1
  Zr  Zr39  1  0.49678536  0.10165848  0.48793066  1
  Zr  Zr40  1  0.30013085  0.49728607  0.70376206  1
  Zr  Zr41  1  0.29539233  0.30297675  0.70768691  1
  Zr  Zr42  1  0.89225388  0.30512757  0.68788780  1
  Zr  Zr43  1  0.09753171  0.89989805  0.50192155  1
  Zr  Zr44  1  0.89785177  0.29415559  0.10450488  1
  Zr  Zr45  1  0.09472901  0.09779284  0.29883145  1
  Zr  Zr46  1  0.89588261  0.09399548  0.90610674  1
  Zr  Zr47  1  0.30713214  0.70089485  0.48706649  1
  Zr  Zr48  1  0.69799519  0.90075901  0.09451511  1
  Zr  Zr49  1  0.50694916  0.29926514  0.10109102  1
  Sc  Sc50  1  0.08944120  0.50133280  0.91509110  1
  Sc  Sc51  1  0.70439790  0.70306341  0.09859189  1
  Sc  Sc52  1  0.09918968  0.09628632  0.10310651  1
  Sc  Sc53  1  0.08605249  0.10061824  0.49882224  1
  Sc  Sc54  1  0.69894800  0.10416909  0.29678864  1
  Sc  Sc55  1  0.09911400  0.50332477  0.10359047  1
  Sc  Sc56  1  0.90346271  0.70585644  0.10322699  1
  Sc  Sc57  1  0.31139155  0.49424528  0.90551296  1
  Sc  Sc58  1  0.90481456  0.69308161  0.50089307  1
  Sc  Sc59  1  0.70316907  0.51058150  0.50088563  1
  Sc  Sc60  1  0.09818534  0.30192254  0.09535030  1
  Sc  Sc61  1  0.50506625  0.10149559  0.29374431  1
  Sc  Sc62  1  0.89949299  0.50598624  0.69535845  1
  Sc  Sc63  1  0.90186817  0.28485138  0.91244537  1
  Sc  Sc64  1  0.90666065  0.90358884  0.90277568  1
  Sc  Sc65  1  0.29527648  0.90627611  0.10295626  1
  Sc  Sc66  1  0.29978687  0.49048592  0.09733737  1
  Sc  Sc67  1  0.09377872  0.09800258  0.70436514  1
  Sc  Sc68  1  0.49813882  0.49394073  0.71424784  1
  Sc  Sc69  1  0.50243431  0.29925666  0.30037537  1
  Sc  Sc70  1  0.49858044  0.09376924  0.70920977  1
  Sc  Sc71  1  0.50077723  0.29881933  0.71200018  1
  Sc  Sc72  1  0.09363598  0.89699418  0.29654171  1
  Sc  Sc73  1  0.30324703  0.70281336  0.70825796  1
  Sc  Sc74  1  0.09536894  0.70200692  0.70000992  1
  Sc  Sc75  1  0.69002119  0.50066807  0.11211098  1
  Sc  Sc76  1  0.69730274  0.70281959  0.91031458  1
  Sc  Sc77  1  0.30239123  0.89687907  0.29958151  1
  Sc  Sc78  1  0.09880539  0.89311137  0.10117407  1
  Sc  Sc79  1  0.69535121  0.29619704  0.71072841  1
  Sc  Sc80  1  0.30253482  0.10331590  0.29244907  1
  Sc  Sc81  1  0.70540397  0.90840851  0.29066354  1
  Sc  Sc82  1  0.69805462  0.09960128  0.10346596  1
  Sc  Sc83  1  0.50260831  0.90727211  0.70156429  1
  Sc  Sc84  1  0.10661666  0.50072411  0.69239754  1
  Sc  Sc85  1  0.10481863  0.69557611  0.49862014  1
  Sc  Sc86  1  0.51546213  0.30233627  0.90282717  1
  Sc  Sc87  1  0.90083644  0.29903635  0.28991193  1
  Sc  Sc88  1  0.50166632  0.91369955  0.09774432  1
  Sc  Sc89  1  0.08945529  0.90188528  0.69662336  1
  Sc  Sc90  1  0.30321669  0.10330949  0.09550739  1
  Sc  Sc91  1  0.50012885  0.69657439  0.31581540  1
  Sc  Sc92  1  0.29982943  0.90314608  0.69760834  1
  Sc  Sc93  1  0.49854719  0.91020448  0.29825244  1
  Sc  Sc94  1  0.50150487  0.90020394  0.49068284  1
  Sc  Sc95  1  0.09923932  0.69952061  0.29184884  1
  Sc  Sc96  1  0.09361275  0.50819440  0.29715623  1
  Sc  Sc97  1  0.89994644  0.69448634  0.69543161  1
  Sc  Sc98  1  0.51672477  0.70152703  0.49791869  1
  Sc  Sc99  1  0.90351719  0.09458665  0.70836719  1
  Nb  Nb100  1  0.69834554  0.70427815  0.68441188  1
  Nb  Nb101  1  0.29557166  0.09767454  0.90035803  1
  Nb  Nb102  1  0.70215464  0.70140019  0.50865029  1
  Nb  Nb103  1  0.30047238  0.10018599  0.50235406  1
  Nb  Nb104  1  0.70038365  0.29597650  0.90500074  1
  Nb  Nb105  1  0.89583883  0.50784560  0.30297218  1
  Nb  Nb106  1  0.09748590  0.29786979  0.90179486  1
  Nb  Nb107  1  0.90092972  0.69486405  0.30181267  1
  Nb  Nb108  1  0.90119910  0.10516722  0.09947438  1
  Nb  Nb109  1  0.89444602  0.90139853  0.69912701  1
  Nb  Nb110  1  0.49505288  0.50349905  0.09038192  1
  Nb  Nb111  1  0.10522870  0.88972790  0.90315765  1
  Nb  Nb112  1  0.10291852  0.70964958  0.90515317  1
  Nb  Nb113  1  0.70457864  0.29751106  0.10043989  1
  Nb  Nb114  1  0.29735679  0.71175063  0.90240159  1
  Nb  Nb115  1  0.50165840  0.10034240  0.09936377  1
  Nb  Nb116  1  0.89848637  0.89426545  0.30159782  1
  Nb  Nb117  1  0.70013670  0.10979610  0.90087091  1
  Nb  Nb118  1  0.09799905  0.30003664  0.49861166  1
  Nb  Nb119  1  0.70394291  0.49977356  0.29815740  1
  Nb  Nb120  1  0.69966939  0.49579321  0.89845075  1
  Nb  Nb121  1  0.29522216  0.89644891  0.89878730  1
  Nb  Nb122  1  0.70158569  0.89591252  0.70146258  1
  Nb  Nb123  1  0.51510247  0.50101093  0.29371163  1
  Nb  Nb124  1  0.50968651  0.50462286  0.90866320  1
  Nb  Nb125  1  0.20275788  0.60979305  -0.00609210  1
  Nb  Nb126  1  0.40986883  0.59815594  0.19637353  1
  Nb  Nb127  1  0.59563490  0.39576087  0.59874210  1
  Nb  Nb128  1  0.60735094  0.79801796  0.79765586  1
  Nb  Nb129  1  0.20107980  0.20133971  0.59248458  1
  Nb  Nb130  1  0.39166594  0.19675524  0.80619824  1
  Nb  Nb131  1  0.39732934  0.20241305  0.60103881  1
  Nb  Nb132  1  -0.00313002  0.39421787  0.80337400  1
  Nb  Nb133  1  0.20025649  0.00283817  0.40548968  1
  Nb  Nb134  1  0.79407814  0.39808036  0.00103908  1
  Nb  Nb135  1  0.20067283  0.60729707  0.81519775  1
  Nb  Nb136  1  0.80177332  0.59096116  -0.00151505  1
  Nb  Nb137  1  0.59403730  0.20058158  0.59972475  1
  Nb  Nb138  1  0.40156567  0.79575730  0.59478524  1
  Nb  Nb139  1  0.59475784  0.79829916  0.19841572  1
  Nb  Nb140  1  0.80158715  0.39719306  0.81059423  1
  Nb  Nb141  1  0.80192172  0.40718743  0.39155620  1
  Nb  Nb142  1  0.60389668  0.60196761  0.80487359  1
  Nb  Nb143  1  0.19724403  -0.00574269  0.81187979  1
  Nb  Nb144  1  0.40096072  0.39847982  0.59473785  1
  Nb  Nb145  1  0.79634239  -0.00534115  0.60463479  1
  Nb  Nb146  1  0.40028617  0.59719521  0.59793304  1
  Nb  Nb147  1  0.79575889  0.79941093  0.79336997  1
  Nb  Nb148  1  0.80333265  0.79599990  0.39820630  1
  Nb  Nb149  1  0.40821340  0.79361404  0.19818607  1
  Pd  Pd150  1  0.79146933  0.60769344  0.80516003  1
  Pd  Pd151  1  0.39127878  0.00370284  0.39213484  1
  Pd  Pd152  1  0.00524401  -0.00507595  0.00448935  1
  Pd  Pd153  1  0.59422679  0.60976211  0.19797423  1
  Pd  Pd154  1  0.20656721  0.79370799  0.60542119  1
  Pd  Pd155  1  -0.00700685  0.80519367  0.79589980  1
  Pd  Pd156  1  -0.00217096  -0.00601997  0.19466834  1
  Pd  Pd157  1  0.18686801  0.41712638  0.81469161  1
  Pd  Pd158  1  0.40106486  0.20849031  -0.00629316  1
  Pd  Pd159  1  0.80545962  0.59793166  0.18838341  1
  Pd  Pd160  1  0.20700603  0.61135582  0.60762885  1
  Pd  Pd161  1  0.79415883  0.79742950  0.20657601  1
  Pd  Pd162  1  0.59840542  0.00467104  0.59839630  1
  Pd  Pd163  1  0.80988685  0.79350105  -0.01068877  1
  Pd  Pd164  1  0.79063126  0.18761568  0.61149088  1
  Pd  Pd165  1  0.00514749  0.39868300  0.20659613  1
  Pd  Pd166  1  0.40476654  0.19862350  0.19895371  1
  Pd  Pd167  1  0.20123177  -0.00291016  0.20840065  1
  Pd  Pd168  1  0.79218457  -0.01001547  0.40667380  1
  Pd  Pd169  1  -0.01061215  0.19822294  0.39439580  1
  Pd  Pd170  1  -0.00090322  0.79216879  0.39807578  1
  Pd  Pd171  1  0.19289167  0.80660967  0.39453777  1
  Pd  Pd172  1  0.19588206  0.80336024  0.78845764  1
  Pd  Pd173  1  0.01389138  0.59148155  0.79505117  1
  Pd  Pd174  1  0.00520182  0.40301401  0.60785754  1
  Pd  Pd175  1  0.61140708  0.80572471  0.38730112  1
  Pd  Pd176  1  0.40382850  0.38821722  -0.00709655  1
  Pd  Pd177  1  0.18849772  0.00788413  0.59990927  1
  Pd  Pd178  1  0.60695507  0.40333764  0.00863936  1
  Pd  Pd179  1  0.19808077  0.18838744  0.40275742  1
  Pd  Pd180  1  0.19493035  0.20024075  0.19306827  1
  Pd  Pd181  1  -0.00456906  0.79360874  0.59974781  1
  Pd  Pd182  1  0.39601692  0.81326380  0.01023506  1
  Pd  Pd183  1  0.20318263  0.39230048  0.59236218  1
  Pd  Pd184  1  0.39277674  -0.00308792  0.00096925  1
  Pd  Pd185  1  -0.01069989  0.20664445  0.79781545  1
  Pd  Pd186  1  0.40597378  0.80935167  0.79242408  1
  Pd  Pd187  1  0.61352297  0.40310237  0.40312708  1
  Pd  Pd188  1  0.19079161  0.40232452  0.20178652  1
  Pd  Pd189  1  0.80337264  0.20992027  0.38772210  1
  Pd  Pd190  1  0.19392997  0.00024307  -0.00144368  1
  Pd  Pd191  1  0.40190046  0.40700772  0.39346089  1
  Pd  Pd192  1  0.00336434  0.19716083  0.60421353  1
  Pd  Pd193  1  0.40378028  0.38945158  0.81358606  1
  Pd  Pd194  1  0.40951927  0.40608146  0.20195274  1
  Pd  Pd195  1  0.19345046  0.40594398  0.38991229  1
  Pd  Pd196  1  0.39824179  0.59849893  0.80457768  1
  Pd  Pd197  1  0.60879118  -0.00580289  0.39466632  1
  Pd  Pd198  1  0.40953123  -0.00104038  0.59691323  1
  Pd  Pd199  1  0.80711562  0.20432961  0.79844184  1
  Rh  Rh200  1  0.00587098  -0.00922816  0.80707763  1
  Rh  Rh201  1  0.60575463  0.00962770  -0.00188938  1
  Rh  Rh202  1  0.39062060  0.59764837  -0.00002080  1
  Rh  Rh203  1  0.79261020  0.19679992  0.00627109  1
  Rh  Rh204  1  0.79856833  0.01030816  0.00709198  1
  Rh  Rh205  1  0.00491843  0.19689158  0.00863737  1
  Rh  Rh206  1  0.59950076  -0.00135414  0.19711544  1
  Rh  Rh207  1  0.40039352  0.00038064  0.19577501  1
  Rh  Rh208  1  0.60979594  0.59800134  0.40140311  1
  Rh  Rh209  1  0.60539506  0.20153605  0.39700983  1
  Rh  Rh210  1  0.40384521  0.59386774  0.39537671  1
  Rh  Rh211  1  -0.01041088  0.00467883  0.60039431  1
  Rh  Rh212  1  0.80432332  -0.00359666  0.79840957  1
  Rh  Rh213  1  0.00247420  0.19756648  0.19903558  1
  Rh  Rh214  1  0.20816684  0.59460408  0.19034255  1
  Rh  Rh215  1  -0.00529701  0.40008614  0.39139277  1
  Rh  Rh216  1  0.59079080  0.58657789  0.60939366  1
  Rh  Rh217  1  0.80117768  0.40709476  0.19854166  1
  Rh  Rh218  1  0.59541310  0.40054631  0.19410538  1
  Rh  Rh219  1  0.60032870  0.80827966  -0.00154600  1
  Rh  Rh220  1  -0.00481253  0.38748367  -0.00307593  1
  Rh  Rh221  1  -0.00669244  0.80158721  0.20269763  1
  Rh  Rh222  1  0.80014334  0.19065809  0.19930002  1
  Rh  Rh223  1  0.81089786  0.80106839  0.59807795  1
  Rh  Rh224  1  0.00225987  0.61100619  0.00947137  1
  Rh  Rh225  1  0.00423313  -0.00180489  0.39648149  1
  Rh  Rh226  1  0.19406148  0.19449664  0.00669802  1
  Rh  Rh227  1  0.39068749  -0.00063247  0.80828792  1
  Rh  Rh228  1  0.40483060  0.80279008  0.39959312  1
  Rh  Rh229  1  0.20346429  0.79951685  0.00983645  1
  Rh  Rh230  1  0.79181170  0.40431871  0.59688082  1
  Rh  Rh231  1  0.60037721  -0.00504043  0.81038141  1
  Rh  Rh232  1  0.79910489  0.60170036  0.40582277  1
  Rh  Rh233  1  0.39765489  0.19497593  0.39178101  1
  Rh  Rh234  1  0.59786603  0.19841241  0.19513358  1
  Rh  Rh235  1  0.00387514  0.60433000  0.39725445  1
  Rh  Rh236  1  -0.00448399  0.80424414  0.00326056  1
  Rh  Rh237  1  0.60985376  0.40716477  0.79594397  1
  Rh  Rh238  1  0.61169836  0.59488373  -0.00311589  1
  Rh  Rh239  1  0.20690607  0.80368778  0.20120751  1
  Rh  Rh240  1  0.00488470  0.59865710  0.59941502  1
  Rh  Rh241  1  0.60486602  0.19515076  0.00572098  1
  Rh  Rh242  1  0.19992902  0.18694464  0.79725204  1
  Rh  Rh243  1  0.80589262  0.60323564  0.59486985  1
  Rh  Rh244  1  0.80106384  0.00329430  0.19500051  1
  Rh  Rh245  1  0.19344091  0.40824197  -0.00044165  1
  Rh  Rh246  1  0.19173418  0.60054975  0.39392159  1
  Rh  Rh247  1  -0.00660760  0.60351333  0.19983803  1
  Rh  Rh248  1  0.59104359  0.19308706  0.80199273  1
  Rh  Rh249  1  0.58692389  0.80665957  0.60529702  1
