# generated using pymatgen
data_ZrScNbPdRh
_symmetry_space_group_name_H-M   'P 1'
_cell_length_a   16.55660472
_cell_length_b   16.55289243
_cell_length_c   16.55467931
_cell_angle_alpha   89.97256823
_cell_angle_beta   89.96594604
_cell_angle_gamma   90.02202856
_symmetry_Int_Tables_number   1
_chemical_formula_structural   ZrScNbPdRh
_chemical_formula_sum   'Zr50 Sc50 Nb50 Pd50 Rh50'
_cell_volume   4536.96873741
_cell_formula_units_Z   50
loop_
 _symmetry_equiv_pos_site_id
 _symmetry_equiv_pos_as_xyz
  1  'x, y, z'
loop_
 _atom_site_type_symbol
 _atom_site_label
 _atom_site_symmetry_multiplicity
 _atom_site_fract_x
 _atom_site_fract_y
 _atom_site_fract_z
 _atom_site_occupancy
  Zr  Zr0  1  0.89226942  0.10821919  0.89742194  1
  Zr  Zr1  1  0.50030867  0.68895588  0.29891612  1
  Zr  Zr2  1  0.29721554  0.69534792  0.29039836  1
  Zr  Zr3  1  0.90110578  0.89871351  0.09745395  1
  Zr  Zr4  1  0.30166890  0.90759807  0.89631039  1
  Zr  Zr5  1  0.10742072  0.50151026  0.49526467  1
  Zr  Zr6  1  0.29842836  0.30897755  0.49795246  1
  Zr  Zr7  1  0.90586421  0.10086532  0.10801230  1
  Zr  Zr8  1  0.29838636  0.89625113  0.11020644  1
  Zr  Zr9  1  0.29978211  0.90618321  0.50285597  1
  Zr  Zr10  1  0.90365914  0.49700542  0.49675753  1
  Zr  Zr11  1  0.09706053  0.89604328  0.49654573  1
  Zr  Zr12  1  0.30441752  0.09709776  0.70011467  1
  Zr  Zr13  1  0.49599559  0.10653984  0.69304857  1
  Zr  Zr14  1  0.90192682  0.70587814  0.90474914  1
  Zr  Zr15  1  0.70313883  0.10131436  0.30543106  1
  Zr  Zr16  1  0.48981277  0.90654603  0.30288249  1
  Zr  Zr17  1  0.50587820  0.50010035  0.70272957  1
  Zr  Zr18  1  0.89105130  0.30727722  0.10085678  1
  Zr  Zr19  1  0.69256101  0.70092275  0.49618151  1
  Zr  Zr20  1  0.69723514  0.49414163  0.89414562  1
  Zr  Zr21  1  0.70964591  0.69702250  0.09872702  1
  Zr  Zr22  1  0.71221811  0.29852704  0.90684398  1
  Zr  Zr23  1  0.29646501  0.30108087  0.09838829  1
  Zr  Zr24  1  0.30060170  0.49637165  0.50244780  1
  Zr  Zr25  1  0.10288833  0.69086088  0.10083166  1
  Zr  Zr26  1  0.49822185  0.09293316  0.90300802  1
  Zr  Zr27  1  0.69989402  0.09819437  0.70659411  1
  Zr  Zr28  1  0.49839316  0.69746165  0.69732417  1
  Zr  Zr29  1  0.89422444  0.69597742  0.10125287  1
  Zr  Zr30  1  0.09957647  0.89370845  0.89603303  1
  Zr  Zr31  1  0.69718531  0.30281936  0.30929791  1
  Zr  Zr32  1  0.70003080  0.89500374  0.49262696  1
  Zr  Zr33  1  0.50586752  0.49816892  0.10778756  1
  Zr  Zr34  1  0.90170765  0.30091225  0.70914875  1
  Zr  Zr35  1  0.28953635  0.10242777  0.51076168  1
  Zr  Zr36  1  0.10161893  0.69581010  0.89611583  1
  Zr  Zr37  1  0.09166076  0.10822917  0.30406486  1
  Zr  Zr38  1  0.89551325  0.49020876  0.69841795  1
  Zr  Zr39  1  0.90098050  0.50142489  0.10751247  1
  Zr  Zr40  1  0.50021197  0.10344390  0.10326009  1
  Zr  Zr41  1  0.49542876  0.89743824  0.49923109  1
  Zr  Zr42  1  0.30008831  0.69716099  0.10057396  1
  Zr  Zr43  1  0.50454693  0.50256934  0.89300855  1
  Zr  Zr44  1  0.71107520  0.89512886  0.10173505  1
  Zr  Zr45  1  0.50450546  0.70170239  0.09100168  1
  Zr  Zr46  1  0.69719149  0.30844672  0.69362436  1
  Zr  Zr47  1  0.09344235  0.70666483  0.70492594  1
  Zr  Zr48  1  0.10632187  0.28813082  0.50260950  1
  Zr  Zr49  1  0.69540879  0.70269304  0.69209850  1
  Sc  Sc50  1  0.09631599  0.09670757  0.11019817  1
  Sc  Sc51  1  0.30494921  0.30964353  0.69436705  1
  Sc  Sc52  1  0.50677653  0.31198825  0.90211453  1
  Sc  Sc53  1  0.29857658  0.90515906  0.30472733  1
  Sc  Sc54  1  0.50527541  0.29838135  0.50420490  1
  Sc  Sc55  1  0.29286881  0.50326897  0.11078847  1
  Sc  Sc56  1  0.48949524  0.90008546  0.69959551  1
  Sc  Sc57  1  0.88738207  0.90114022  0.29961256  1
  Sc  Sc58  1  0.50136405  0.49945095  0.30319667  1
  Sc  Sc59  1  0.09287957  0.30202254  0.70084502  1
  Sc  Sc60  1  0.90520590  0.70980369  0.48927832  1
  Sc  Sc61  1  0.50303477  0.10003918  0.30597457  1
  Sc  Sc62  1  0.89840717  0.89560823  0.48975552  1
  Sc  Sc63  1  0.90329200  0.11073469  0.70421416  1
  Sc  Sc64  1  0.29911928  0.09770300  0.09545124  1
  Sc  Sc65  1  0.49757173  0.69780364  0.50246780  1
  Sc  Sc66  1  0.29510626  0.49462004  0.89002565  1
  Sc  Sc67  1  0.70114564  0.70002013  0.29858498  1
  Sc  Sc68  1  0.49607961  0.30602717  0.69360314  1
  Sc  Sc69  1  0.90589474  0.30306247  0.50532753  1
  Sc  Sc70  1  0.10673671  0.09324201  0.90625624  1
  Sc  Sc71  1  0.49720048  0.90102132  0.08883023  1
  Sc  Sc72  1  0.69701397  0.48660661  0.49751320  1
  Sc  Sc73  1  0.69319767  0.10807466  0.48918257  1
  Sc  Sc74  1  0.10745783  0.10688839  0.68990775  1
  Sc  Sc75  1  0.69849280  0.10785377  0.09349161  1
  Sc  Sc76  1  0.70230457  0.69261633  0.90441084  1
  Sc  Sc77  1  0.30458961  0.69800242  0.69769046  1
  Sc  Sc78  1  0.30036374  0.69337238  0.50088085  1
  Sc  Sc79  1  0.10573353  0.50188912  0.70406353  1
  Sc  Sc80  1  0.09864752  0.90556825  0.10432107  1
  Sc  Sc81  1  0.10663156  0.29839985  0.10986302  1
  Sc  Sc82  1  0.70212923  0.10162681  0.90083544  1
  Sc  Sc83  1  0.29983700  0.90388158  0.69971067  1
  Sc  Sc84  1  0.69270954  0.30681658  0.09958064  1
  Sc  Sc85  1  0.30462402  0.49961847  0.69509245  1
  Sc  Sc86  1  0.90457727  0.09925608  0.30582062  1
  Sc  Sc87  1  0.49351348  0.89461405  0.90061261  1
  Sc  Sc88  1  0.70592797  0.90899781  0.89501530  1
  Sc  Sc89  1  0.89769127  0.70090149  0.70489852  1
  Sc  Sc90  1  0.10537632  0.50176059  0.89593420  1
  Sc  Sc91  1  0.89536077  0.49866760  0.89427576  1
  Sc  Sc92  1  0.50440518  0.31105919  0.30078225  1
  Sc  Sc93  1  0.10444341  0.89789555  0.29995712  1
  Sc  Sc94  1  0.90377840  0.49265744  0.29482945  1
  Sc  Sc95  1  0.89472634  0.88760584  0.70002494  1
  Sc  Sc96  1  0.70892032  0.49617996  0.09887938  1
  Sc  Sc97  1  0.30552850  0.70382960  0.89265324  1
  Sc  Sc98  1  0.10118977  0.70003500  0.30956804  1
  Sc  Sc99  1  0.91229895  0.30229561  0.29966564  1
  Nb  Nb100  1  0.50170230  0.70128796  0.89678237  1
  Nb  Nb101  1  0.89530804  0.69756875  0.29583333  1
  Nb  Nb102  1  0.90109577  0.09906942  0.50018605  1
  Nb  Nb103  1  0.49891988  0.30417769  0.10368287  1
  Nb  Nb104  1  0.29769925  0.30201027  0.90769071  1
  Nb  Nb105  1  0.09664603  0.48837301  0.29795006  1
  Nb  Nb106  1  0.10582464  0.29701000  0.30151357  1
  Nb  Nb107  1  0.90362706  0.90295748  0.90327772  1
  Nb  Nb108  1  0.29704601  0.29953656  0.30210512  1
  Nb  Nb109  1  0.69949352  0.29450891  0.50009824  1
  Nb  Nb110  1  0.30259526  0.10577526  0.89905152  1
  Nb  Nb111  1  0.49421498  0.50179774  0.49317443  1
  Nb  Nb112  1  0.09137840  0.09851123  0.50322172  1
  Nb  Nb113  1  0.10488976  0.30589877  0.90485946  1
  Nb  Nb114  1  0.30126895  0.48866399  0.30964008  1
  Nb  Nb115  1  0.69721497  0.49756092  0.30257800  1
  Nb  Nb116  1  0.69642116  0.90190681  0.30067895  1
  Nb  Nb117  1  0.90717749  0.29980669  0.89808964  1
  Nb  Nb118  1  0.09384454  0.89806734  0.69835002  1
  Nb  Nb119  1  0.31132237  0.09853305  0.29962583  1
  Nb  Nb120  1  0.70261086  0.50160635  0.69931803  1
  Nb  Nb121  1  0.49503911  0.10544947  0.50447557  1
  Nb  Nb122  1  0.69562572  0.89895436  0.69143615  1
  Nb  Nb123  1  0.09470903  0.70175717  0.50163925  1
  Nb  Nb124  1  0.09614176  0.49787953  0.09628927  1
  Nb  Nb125  1  0.39413343  0.20230617  0.39817913  1
  Nb  Nb126  1  0.40619400  0.79671058  0.19943354  1
  Nb  Nb127  1  0.39745719  0.20432516  0.80988747  1
  Nb  Nb128  1  0.00015366  -0.00463281  0.79679213  1
  Nb  Nb129  1  0.80179773  0.59646106  0.59362878  1
  Nb  Nb130  1  0.40422978  0.59554771  -0.00243274  1
  Nb  Nb131  1  0.20062793  0.79939875  -0.00121897  1
  Nb  Nb132  1  0.60358704  -0.00550897  0.20111141  1
  Nb  Nb133  1  0.79924117  0.00411733  0.59662327  1
  Nb  Nb134  1  0.00036991  0.20853629  -0.00314684  1
  Nb  Nb135  1  0.79719526  0.20006294  0.59616536  1
  Nb  Nb136  1  -0.00079302  0.60288302  0.59536905  1
  Nb  Nb137  1  0.59567275  0.20239478  0.79930271  1
  Nb  Nb138  1  0.39789183  0.20562498  0.20414994  1
  Nb  Nb139  1  -0.00409364  -0.00053124  0.60032352  1
  Nb  Nb140  1  0.19129998  0.80005491  0.59849490  1
  Nb  Nb141  1  0.60283137  -0.00019141  0.59773871  1
  Nb  Nb142  1  0.80016888  0.59654979  0.39912490  1
  Nb  Nb143  1  0.79845203  0.20367375  0.20415345  1
  Nb  Nb144  1  0.59845039  0.80535820  0.20100674  1
  Nb  Nb145  1  0.00463911  0.39769525  -0.00063654  1
  Nb  Nb146  1  0.60028658  0.79823757  0.79678857  1
  Nb  Nb147  1  0.39851190  0.40339114  0.00386975  1
  Nb  Nb148  1  0.20812314  0.20519390  0.80907557  1
  Nb  Nb149  1  -0.00673955  0.79284838  0.20039329  1
  Pd  Pd150  1  0.81169659  -0.00531688  0.79100116  1
  Pd  Pd151  1  0.60653602  -0.00486889  0.00483646  1
  Pd  Pd152  1  0.39576827  0.59751347  0.80230477  1
  Pd  Pd153  1  0.40849993  0.20878043  0.00125656  1
  Pd  Pd154  1  0.39819691  0.39889566  0.20019107  1
  Pd  Pd155  1  0.19371046  0.60772765  0.60672411  1
  Pd  Pd156  1  0.79165323  0.80110774  0.80636054  1
  Pd  Pd157  1  0.59493861  0.40602372  0.59385229  1
  Pd  Pd158  1  0.20234948  0.59631486  0.39413146  1
  Pd  Pd159  1  0.80057122  0.00619961  0.00246313  1
  Pd  Pd160  1  0.59945868  0.19831369  0.20674724  1
  Pd  Pd161  1  0.19059570  0.19611602  0.00161716  1
  Pd  Pd162  1  0.20847820  0.79835574  0.79529165  1
  Pd  Pd163  1  0.20702698  0.18976259  0.20239815  1
  Pd  Pd164  1  0.01824176  0.19120621  0.80800289  1
  Pd  Pd165  1  0.19267024  0.00775611  0.79370585  1
  Pd  Pd166  1  0.00637307  0.60266977  0.20940777  1
  Pd  Pd167  1  -0.00416240  0.59389676  0.79448565  1
  Pd  Pd168  1  0.79620324  0.00977092  0.20089239  1
  Pd  Pd169  1  0.60326675  0.58929199  0.59153497  1
  Pd  Pd170  1  0.39466263  0.59904700  0.39919318  1
  Pd  Pd171  1  0.20417517  0.19197860  0.39778930  1
  Pd  Pd172  1  0.20775560  0.79641168  0.40601447  1
  Pd  Pd173  1  0.20106809  0.39350277  0.79222159  1
  Pd  Pd174  1  -0.00186711  0.00856499  -0.00602127  1
  Pd  Pd175  1  -0.00470819  0.60047998  0.39733702  1
  Pd  Pd176  1  0.80671012  0.79702064  0.59176690  1
  Pd  Pd177  1  0.59648268  0.00215283  0.40309853  1
  Pd  Pd178  1  0.59447870  0.20554228  -0.00747219  1
  Pd  Pd179  1  0.19740166  0.00878302  0.39643720  1
  Pd  Pd180  1  0.60935252  0.60167621  0.19910265  1
  Pd  Pd181  1  0.19843254  0.40335630  0.20250763  1
  Pd  Pd182  1  0.20159870  -0.00491360  0.00380827  1
  Pd  Pd183  1  0.00877151  0.39117075  0.40325592  1
  Pd  Pd184  1  0.00851035  0.79804176  0.00957082  1
  Pd  Pd185  1  -0.00550231  0.58984752  -0.00621177  1
  Pd  Pd186  1  0.59079611  -0.00373449  0.79443111  1
  Pd  Pd187  1  0.21108823  0.59835270  -0.00846247  1
  Pd  Pd188  1  0.61075995  0.80736641  -0.00830181  1
  Pd  Pd189  1  0.19142607  0.58983508  0.21179991  1
  Pd  Pd190  1  0.19879587  0.00815105  0.20888977  1
  Pd  Pd191  1  0.39199506  0.79130698  0.39528915  1
  Pd  Pd192  1  -0.00259331  -0.00660235  0.39875575  1
  Pd  Pd193  1  0.60125260  0.59343743  -0.00050859  1
  Pd  Pd194  1  0.00983703  0.40646261  0.60098774  1
  Pd  Pd195  1  0.80350251  0.39995311  0.39842450  1
  Pd  Pd196  1  0.81197411  0.20648196  0.40089025  1
  Pd  Pd197  1  0.79656725  0.60316362  0.79424860  1
  Pd  Pd198  1  0.39478712  -0.00084022  0.00479016  1
  Pd  Pd199  1  0.59432034  0.79652887  0.39093141  1
  Rh  Rh200  1  0.58761867  0.20519590  0.39915593  1
  Rh  Rh201  1  0.79923649  0.79830757  0.20595410  1
  Rh  Rh202  1  -0.00108322  0.79982880  0.59926467  1
  Rh  Rh203  1  0.60644047  0.59398965  0.40269795  1
  Rh  Rh204  1  0.80834683  0.19884670  0.01005050  1
  Rh  Rh205  1  0.60988600  0.19315597  0.60393398  1
  Rh  Rh206  1  0.39863278  0.59770649  0.19782731  1
  Rh  Rh207  1  0.19457200  0.39970101  0.60231903  1
  Rh  Rh208  1  0.79829370  0.80348926  -0.01031327  1
  Rh  Rh209  1  -0.00299965  0.80229648  0.38386718  1
  Rh  Rh210  1  0.79838071  -0.00007478  0.40673475  1
  Rh  Rh211  1  -0.00939335  0.80514511  0.80441650  1
  Rh  Rh212  1  -0.00103372  -0.01377668  0.21031731  1
  Rh  Rh213  1  0.59442670  0.40031097  0.40632878  1
  Rh  Rh214  1  0.79709158  0.39533800  0.80204454  1
  Rh  Rh215  1  0.39077094  0.20659215  0.59502610  1
  Rh  Rh216  1  0.19972977  0.40844545  0.00494957  1
  Rh  Rh217  1  0.79551808  0.59041018  0.21031509  1
  Rh  Rh218  1  0.18678998  -0.00928820  0.60162348  1
  Rh  Rh219  1  0.80832372  0.40514614  -0.00546221  1
  Rh  Rh220  1  0.80445075  0.59233423  -0.00286064  1
  Rh  Rh221  1  0.40539365  0.80060452  0.79768657  1
  Rh  Rh222  1  0.40450868  0.59419278  0.59865460  1
  Rh  Rh223  1  0.19369987  0.39972004  0.39666721  1
  Rh  Rh224  1  0.40643491  -0.00099965  0.59633206  1
  Rh  Rh225  1  0.60693312  0.40345215  0.20082837  1
  Rh  Rh226  1  0.40694633  0.00112891  0.19360246  1
  Rh  Rh227  1  0.39465285  0.01308977  0.41319790  1
  Rh  Rh228  1  0.58758014  0.80899918  0.60546400  1
  Rh  Rh229  1  -0.00015554  0.20526788  0.40534988  1
  Rh  Rh230  1  0.60698364  0.60872248  0.79791393  1
  Rh  Rh231  1  0.00981368  0.39614776  0.19341166  1
  Rh  Rh232  1  -0.00819038  0.19515160  0.59711580  1
  Rh  Rh233  1  0.00440980  0.40565374  0.80796926  1
  Rh  Rh234  1  0.39902805  0.39438480  0.80674799  1
  Rh  Rh235  1  0.40785407  0.40737869  0.59430203  1
  Rh  Rh236  1  -0.00497097  0.20889783  0.19501368  1
  Rh  Rh237  1  0.79952771  0.39690010  0.59614592  1
  Rh  Rh238  1  0.39053181  0.79256476  0.00136910  1
  Rh  Rh239  1  0.78904531  0.21014040  0.79213340  1
  Rh  Rh240  1  0.59723349  0.40265006  0.00443156  1
  Rh  Rh241  1  0.79742858  0.79247873  0.39368116  1
  Rh  Rh242  1  0.60470893  0.39384973  0.79703974  1
  Rh  Rh243  1  0.20519791  0.60313955  0.79545635  1
  Rh  Rh244  1  0.20570121  0.21094332  0.61258322  1
  Rh  Rh245  1  0.40501035  0.39508755  0.40175679  1
  Rh  Rh246  1  0.40256080  0.00439812  0.80096587  1
  Rh  Rh247  1  0.38883941  0.79880669  0.59825018  1
  Rh  Rh248  1  0.79383588  0.39486854  0.20957474  1
  Rh  Rh249  1  0.19426085  0.79754554  0.19430018  1
