# generated using pymatgen
data_ZrScNbPdRh
_symmetry_space_group_name_H-M   'P 1'
_cell_length_a   16.56421724
_cell_length_b   16.56572130
_cell_length_c   16.55948708
_cell_angle_alpha   89.96127500
_cell_angle_beta   89.99167435
_cell_angle_gamma   89.99046406
_symmetry_Int_Tables_number   1
_chemical_formula_structural   ZrScNbPdRh
_chemical_formula_sum   'Zr50 Sc50 Nb50 Pd50 Rh50'
_cell_volume   4543.89240281
_cell_formula_units_Z   50
loop_
 _symmetry_equiv_pos_site_id
 _symmetry_equiv_pos_as_xyz
  1  'x, y, z'
loop_
 _atom_site_type_symbol
 _atom_site_label
 _atom_site_symmetry_multiplicity
 _atom_site_fract_x
 _atom_site_fract_y
 _atom_site_fract_z
 _atom_site_occupancy
  Zr  Zr0  1  0.30786447  0.08929341  0.50517640  1
  Zr  Zr1  1  0.10056477  0.29596428  0.10163056  1
  Zr  Zr2  1  0.49414801  0.90360994  0.49604154  1
  Zr  Zr3  1  0.29551094  0.90100571  0.90138847  1
  Zr  Zr4  1  0.09726374  0.29735385  0.30480566  1
  Zr  Zr5  1  0.90331032  0.89219550  0.69956138  1
  Zr  Zr6  1  0.70063780  0.31259663  0.10159569  1
  Zr  Zr7  1  0.89836808  0.10059308  0.09258554  1
  Zr  Zr8  1  0.69313293  0.09488462  0.70169184  1
  Zr  Zr9  1  0.90535594  0.70021449  0.30099706  1
  Zr  Zr10  1  0.30033351  0.09853509  0.10872873  1
  Zr  Zr11  1  0.50155620  0.50573405  0.90181195  1
  Zr  Zr12  1  0.89766412  0.30136900  0.68999441  1
  Zr  Zr13  1  0.49920210  0.10857650  0.69551469  1
  Zr  Zr14  1  0.88972507  0.10601770  0.49844277  1
  Zr  Zr15  1  0.89133563  0.29459833  0.09635297  1
  Zr  Zr16  1  0.09153342  0.69354984  0.09389302  1
  Zr  Zr17  1  0.69997633  0.70847977  0.29600602  1
  Zr  Zr18  1  0.29870310  0.90211361  0.10046270  1
  Zr  Zr19  1  0.10520779  0.70524310  0.90139697  1
  Zr  Zr20  1  0.49996552  0.69725401  0.50016195  1
  Zr  Zr21  1  0.29984219  0.69653560  0.30152126  1
  Zr  Zr22  1  0.88922716  0.89620874  0.29858310  1
  Zr  Zr23  1  0.89929675  0.49097028  0.50248666  1
  Zr  Zr24  1  0.30820515  0.30182780  0.70795769  1
  Zr  Zr25  1  0.49690861  0.30287408  0.50320004  1
  Zr  Zr26  1  0.30070663  0.69412833  0.10301879  1
  Zr  Zr27  1  0.29922459  0.31060977  0.09690011  1
  Zr  Zr28  1  0.09807926  0.29925312  0.69412800  1
  Zr  Zr29  1  0.09925921  0.10649995  0.29658959  1
  Zr  Zr30  1  0.70594853  0.29844584  0.29762974  1
  Zr  Zr31  1  0.09156998  0.30555766  0.50227503  1
  Zr  Zr32  1  0.89638709  0.70639081  0.50262162  1
  Zr  Zr33  1  0.49726210  0.30216190  0.29987189  1
  Zr  Zr34  1  0.10046199  0.89859837  0.49975999  1
  Zr  Zr35  1  0.69105828  0.29849751  0.70351709  1
  Zr  Zr36  1  0.09973910  0.10054938  0.09967956  1
  Zr  Zr37  1  0.49998004  0.90408141  0.29476389  1
  Zr  Zr38  1  0.30920000  0.50010766  0.28912766  1
  Zr  Zr39  1  0.49731126  0.50221813  0.49995363  1
  Zr  Zr40  1  0.50685197  0.70160145  0.89280725  1
  Zr  Zr41  1  0.50192608  0.90104002  0.71235361  1
  Zr  Zr42  1  0.51495364  0.69091762  0.10177241  1
  Zr  Zr43  1  0.49625236  0.69557547  0.30518416  1
  Zr  Zr44  1  0.30345912  0.49219433  0.90357612  1
  Zr  Zr45  1  0.69824221  0.90025181  0.50160906  1
  Zr  Zr46  1  0.88717672  0.10300509  0.29186711  1
  Zr  Zr47  1  0.09323400  0.70578934  0.48971746  1
  Zr  Zr48  1  0.10127673  0.89280249  0.30922218  1
  Zr  Zr49  1  0.70588925  0.89603169  0.70922533  1
  Sc  Sc50  1  0.30100783  0.10519800  0.70101494  1
  Sc  Sc51  1  0.89971101  0.30192333  0.49812985  1
  Sc  Sc52  1  0.90004602  0.09397331  0.69516673  1
  Sc  Sc53  1  0.91353391  0.69887984  0.89866084  1
  Sc  Sc54  1  0.09728312  0.09365357  0.90522437  1
  Sc  Sc55  1  0.89364396  0.29853874  0.29884293  1
  Sc  Sc56  1  0.50789499  0.29508515  0.10586078  1
  Sc  Sc57  1  0.30274653  0.91952003  0.70189942  1
  Sc  Sc58  1  0.09870050  0.50870718  0.89792608  1
  Sc  Sc59  1  0.08487925  0.50145337  0.29144453  1
  Sc  Sc60  1  0.70630708  0.30002092  0.49838023  1
  Sc  Sc61  1  0.50378728  0.30092457  0.89421383  1
  Sc  Sc62  1  0.69539526  0.50022218  0.50272814  1
  Sc  Sc63  1  0.10575465  0.90308777  0.08387092  1
  Sc  Sc64  1  0.70183152  0.90364270  0.29421704  1
  Sc  Sc65  1  0.69770214  0.48983754  0.29780358  1
  Sc  Sc66  1  0.50224518  0.50008600  0.10618616  1
  Sc  Sc67  1  0.89414915  0.70165146  0.70367085  1
  Sc  Sc68  1  0.11154560  0.49940832  0.69772947  1
  Sc  Sc69  1  0.50127546  0.49802846  0.30114721  1
  Sc  Sc70  1  0.30800557  0.30105118  0.29989745  1
  Sc  Sc71  1  0.09731101  0.90414730  0.89790117  1
  Sc  Sc72  1  0.90357069  0.49949712  0.10064895  1
  Sc  Sc73  1  0.10376425  0.11378979  0.49970720  1
  Sc  Sc74  1  0.69627846  0.30515593  0.90606010  1
  Sc  Sc75  1  0.88713222  0.89904216  0.09361625  1
  Sc  Sc76  1  0.89928779  0.89455995  0.50788841  1
  Sc  Sc77  1  0.50802729  0.69590727  0.70192724  1
  Sc  Sc78  1  0.10111401  0.10239077  0.69982872  1
  Sc  Sc79  1  0.30760751  0.69560402  0.49565315  1
  Sc  Sc80  1  0.11242518  0.29850772  0.90405447  1
  Sc  Sc81  1  0.09906018  0.49369392  0.10102589  1
  Sc  Sc82  1  0.30099665  0.68568570  0.69812683  1
  Sc  Sc83  1  0.30237238  0.29582151  0.49306184  1
  Sc  Sc84  1  0.70198464  0.49790659  0.89770947  1
  Sc  Sc85  1  0.09170535  0.90512598  0.70096679  1
  Sc  Sc86  1  0.51255040  0.10517146  0.89045367  1
  Sc  Sc87  1  0.29967091  0.10446235  0.30187533  1
  Sc  Sc88  1  0.69411637  0.70118305  0.50968605  1
  Sc  Sc89  1  0.30759118  0.69392845  0.89554940  1
  Sc  Sc90  1  0.30658807  0.50129726  0.51056572  1
  Sc  Sc91  1  0.30295465  0.49596550  0.70247068  1
  Sc  Sc92  1  0.29445874  0.09990407  0.89318599  1
  Sc  Sc93  1  0.70245100  0.50865533  0.70257713  1
  Sc  Sc94  1  0.89556646  0.91129724  0.89868220  1
  Sc  Sc95  1  0.30029822  0.90161305  0.31373542  1
  Sc  Sc96  1  0.50043005  0.49374844  0.69306463  1
  Sc  Sc97  1  0.30627230  0.30171104  0.89987183  1
  Sc  Sc98  1  0.09691896  0.69753786  0.70304192  1
  Sc  Sc99  1  0.89748633  0.49153151  0.29848724  1
  Nb  Nb100  1  0.89576100  0.49942694  0.89763261  1
  Nb  Nb101  1  0.50046380  0.09449150  0.10902455  1
  Nb  Nb102  1  0.50132750  0.89744744  0.90288122  1
  Nb  Nb103  1  0.89411663  0.10486636  0.90428710  1
  Nb  Nb104  1  0.70052335  0.89534089  0.09735727  1
  Nb  Nb105  1  0.50209796  0.90421418  0.10126746  1
  Nb  Nb106  1  0.70099288  0.09881159  0.30034647  1
  Nb  Nb107  1  0.70022473  0.69871884  0.71004281  1
  Nb  Nb108  1  0.69336410  0.09641799  0.49577824  1
  Nb  Nb109  1  0.69696795  0.51056743  0.10031830  1
  Nb  Nb110  1  0.70750563  0.08892680  0.89857716  1
  Nb  Nb111  1  0.50625554  0.09849362  0.49776167  1
  Nb  Nb112  1  0.89021852  0.30269128  0.90173354  1
  Nb  Nb113  1  0.09766952  0.70167297  0.29979014  1
  Nb  Nb114  1  0.50260279  0.10023164  0.28620793  1
  Nb  Nb115  1  0.69753609  0.90529069  0.89969069  1
  Nb  Nb116  1  0.30115855  0.49774273  0.09828191  1
  Nb  Nb117  1  0.89914552  0.50209311  0.70404136  1
  Nb  Nb118  1  0.89828268  0.69935123  0.09828219  1
  Nb  Nb119  1  0.30085712  0.89829552  0.50329520  1
  Nb  Nb120  1  0.70469181  0.70123712  0.09700229  1
  Nb  Nb121  1  0.49847339  0.29447956  0.70511741  1
  Nb  Nb122  1  0.09816954  0.49707747  0.49982447  1
  Nb  Nb123  1  0.69697136  0.09642112  0.10396213  1
  Nb  Nb124  1  0.69855744  0.69728247  0.89476090  1
  Nb  Nb125  1  0.00275597  0.80063521  0.19621442  1
  Nb  Nb126  1  0.80001971  0.60194016  0.39733368  1
  Nb  Nb127  1  0.20358301  0.80194077  0.79392538  1
  Nb  Nb128  1  0.59843319  0.18928777  0.39770079  1
  Nb  Nb129  1  -0.00277926  0.59398487  0.59760918  1
  Nb  Nb130  1  0.79951179  0.60414578  0.00117148  1
  Nb  Nb131  1  0.19590601  0.40930406  0.40039958  1
  Nb  Nb132  1  0.20587152  0.59531199  0.00408110  1
  Nb  Nb133  1  0.20674572  0.80319658  0.60056230  1
  Nb  Nb134  1  -0.00683427  0.39522322  -0.01064492  1
  Nb  Nb135  1  0.19316772  0.59371232  0.39785488  1
  Nb  Nb136  1  0.40052953  0.80057046  0.19616811  1
  Nb  Nb137  1  -0.01038376  0.20720471  0.80758107  1
  Nb  Nb138  1  0.41034270  0.80357579  0.00367260  1
  Nb  Nb139  1  -0.00450680  0.00329562  0.39566142  1
  Nb  Nb140  1  -0.00787625  0.39816288  0.80274737  1
  Nb  Nb141  1  0.40629460  0.19064312  0.00607365  1
  Nb  Nb142  1  0.41016491  0.00202159  0.00196454  1
  Nb  Nb143  1  0.60122099  -0.00224881  0.00309360  1
  Nb  Nb144  1  0.80086603  0.19699745  0.80557023  1
  Nb  Nb145  1  0.79736531  0.60490252  0.19619732  1
  Nb  Nb146  1  0.60637676  0.80365720  -0.00126301  1
  Nb  Nb147  1  0.19638021  0.79497223  0.20077896  1
  Nb  Nb148  1  0.39638495  0.80556496  0.60185107  1
  Nb  Nb149  1  -0.00078376  -0.00525251  0.20157880  1
  Pd  Pd150  1  0.60106259  0.19299319  -0.00075825  1
  Pd  Pd151  1  0.40478300  0.59179162  0.79184762  1
  Pd  Pd152  1  0.60356986  0.20391673  0.59115835  1
  Pd  Pd153  1  0.40729699  0.19045042  0.39783622  1
  Pd  Pd154  1  0.19178599  0.60977782  0.58980278  1
  Pd  Pd155  1  0.19417333  -0.00083387  0.60173385  1
  Pd  Pd156  1  0.40509308  0.01110842  0.80813767  1
  Pd  Pd157  1  0.80167750  0.60228593  0.59714668  1
  Pd  Pd158  1  0.78316553  0.19898368  -0.00210739  1
  Pd  Pd159  1  0.80688741  0.79692636  0.81111662  1
  Pd  Pd160  1  0.40084843  0.60255507  0.00358388  1
  Pd  Pd161  1  0.79860305  -0.00350633  0.60080874  1
  Pd  Pd162  1  0.60233754  0.39984494  0.60098946  1
  Pd  Pd163  1  -0.00502868  0.00925895  0.80248547  1
  Pd  Pd164  1  0.79773571  0.39624988  0.79431059  1
  Pd  Pd165  1  0.80270089  -0.00439121  0.40543377  1
  Pd  Pd166  1  0.79031438  0.40360387  0.60400478  1
  Pd  Pd167  1  0.00114029  0.59608146  0.79298774  1
  Pd  Pd168  1  -0.00450966  0.59124375  0.40378415  1
  Pd  Pd169  1  0.19430497  0.00882974  0.40441644  1
  Pd  Pd170  1  0.40210383  0.00891326  0.39197298  1
  Pd  Pd171  1  -0.00729336  0.81055962  -0.00013917  1
  Pd  Pd172  1  0.20864902  0.20475707  0.59807102  1
  Pd  Pd173  1  0.39603051  0.20160033  0.59760320  1
  Pd  Pd174  1  0.59642650  0.80269866  0.19711549  1
  Pd  Pd175  1  0.20931660  0.39403916  0.59317221  1
  Pd  Pd176  1  0.59744945  0.40576842  0.79855008  1
  Pd  Pd177  1  0.59495994  0.80142604  0.60719069  1
  Pd  Pd178  1  0.60959287  0.59681151  0.39632787  1
  Pd  Pd179  1  0.60171995  0.39173308  0.40187432  1
  Pd  Pd180  1  0.21038656  0.19556791  -0.00194023  1
  Pd  Pd181  1  0.19403896  0.40129987  0.80382037  1
  Pd  Pd182  1  0.19791759  0.39953140  0.20924182  1
  Pd  Pd183  1  0.59568659  -0.00581389  0.60516046  1
  Pd  Pd184  1  0.00278242  0.00941521  0.58859293  1
  Pd  Pd185  1  0.60219813  0.80340249  0.39932683  1
  Pd  Pd186  1  0.19330595  0.19849703  0.80072292  1
  Pd  Pd187  1  0.19444075  -0.00987540  0.20681731  1
  Pd  Pd188  1  0.59492345  0.40610948  0.00263369  1
  Pd  Pd189  1  0.00418140  0.20582960  -0.00776220  1
  Pd  Pd190  1  0.41457290  0.39122234  0.00477583  1
  Pd  Pd191  1  0.79904154  0.79375246  -0.01293579  1
  Pd  Pd192  1  0.39063637  0.79866367  0.79385397  1
  Pd  Pd193  1  0.19117254  0.59797987  0.19999958  1
  Pd  Pd194  1  -0.00752704  0.38905087  0.19355357  1
  Pd  Pd195  1  0.79151808  0.19663411  0.60490091  1
  Pd  Pd196  1  0.60650080  0.20222273  0.20373995  1
  Pd  Pd197  1  -0.00906948  0.19724650  0.39869849  1
  Pd  Pd198  1  0.20836730  0.20900755  0.20393167  1
  Pd  Pd199  1  0.59934588  0.00121901  0.39131590  1
  Rh  Rh200  1  0.80103442  0.40861530  0.19423311  1
  Rh  Rh201  1  0.59949630  0.40250751  0.19950446  1
  Rh  Rh202  1  0.00756636  0.78923264  0.60599293  1
  Rh  Rh203  1  -0.00623581  0.19665792  0.19849182  1
  Rh  Rh204  1  -0.00166388  0.58808711  0.00065362  1
  Rh  Rh205  1  0.40620595  0.39716316  0.19356185  1
  Rh  Rh206  1  0.40148131  0.19986319  0.80829812  1
  Rh  Rh207  1  0.60092628  0.59218397  0.79732833  1
  Rh  Rh208  1  0.40774515  0.40104455  0.79920963  1
  Rh  Rh209  1  0.59862050  -0.00009023  0.80250979  1
  Rh  Rh210  1  0.40930221  0.60099737  0.19672441  1
  Rh  Rh211  1  0.60747258  0.80037780  0.80315239  1
  Rh  Rh212  1  0.20615983  0.00779370  -0.00338826  1
  Rh  Rh213  1  0.40779133  0.60598964  0.60345095  1
  Rh  Rh214  1  0.79338315  0.79715713  0.40692515  1
  Rh  Rh215  1  0.79324374  0.00149479  0.00601771  1
  Rh  Rh216  1  0.00164529  0.39824673  0.39483554  1
  Rh  Rh217  1  0.80006491  0.40540675  0.40153116  1
  Rh  Rh218  1  0.39436881  0.59063927  0.40120311  1
  Rh  Rh219  1  -0.01084685  0.81113366  0.39662326  1
  Rh  Rh220  1  0.21231646  0.78731059  -0.00571814  1
  Rh  Rh221  1  0.79740672  0.00185220  0.19136272  1
  Rh  Rh222  1  0.80242190  0.41298828  0.00567930  1
  Rh  Rh223  1  -0.00518222  -0.00175163  0.00477495  1
  Rh  Rh224  1  0.80665667  0.00370050  0.79406618  1
  Rh  Rh225  1  0.60147537  0.60126696  0.60599040  1
  Rh  Rh226  1  0.21095838  0.78855897  0.40443960  1
  Rh  Rh227  1  -0.00691923  0.60493238  0.19607262  1
  Rh  Rh228  1  0.19296391  -0.00365689  0.79700895  1
  Rh  Rh229  1  -0.00279409  0.19477385  0.60434155  1
  Rh  Rh230  1  0.40853139  -0.00143112  0.60276185  1
  Rh  Rh231  1  0.39294949  -0.00540254  0.20460464  1
  Rh  Rh232  1  0.39736376  0.20435329  0.19373117  1
  Rh  Rh233  1  0.60827655  0.60140302  -0.00838811  1
  Rh  Rh234  1  0.39227230  0.40728623  0.40293679  1
  Rh  Rh235  1  0.00526095  0.80407261  0.80042128  1
  Rh  Rh236  1  0.20302919  0.60409609  0.80933577  1
  Rh  Rh237  1  0.39908632  0.39248861  0.60324603  1
  Rh  Rh238  1  0.61061632  0.20158638  0.80619255  1
  Rh  Rh239  1  0.60692181  0.59693839  0.21019341  1
  Rh  Rh240  1  0.20272075  0.20806509  0.40065228  1
  Rh  Rh241  1  0.00133907  0.41017750  0.61269058  1
  Rh  Rh242  1  0.79052599  0.79815094  0.60487511  1
  Rh  Rh243  1  0.80532611  0.79548728  0.19618505  1
  Rh  Rh244  1  0.79205579  0.20039909  0.40207485  1
  Rh  Rh245  1  0.80097612  0.60471397  0.80772943  1
  Rh  Rh246  1  0.61079476  -0.00217642  0.19857140  1
  Rh  Rh247  1  0.79156832  0.19867557  0.19225864  1
  Rh  Rh248  1  0.19023849  0.41096671  -0.00454809  1
  Rh  Rh249  1  0.40134374  0.80124729  0.40094425  1
