# generated using pymatgen
data_ZrScNbPdRh
_symmetry_space_group_name_H-M   'P 1'
_cell_length_a   16.55949178
_cell_length_b   16.56064276
_cell_length_c   16.55718281
_cell_angle_alpha   89.97693606
_cell_angle_beta   90.01970557
_cell_angle_gamma   89.98099860
_symmetry_Int_Tables_number   1
_chemical_formula_structural   ZrScNbPdRh
_chemical_formula_sum   'Zr50 Sc50 Nb50 Pd50 Rh50'
_cell_volume   4540.57184410
_cell_formula_units_Z   50
loop_
 _symmetry_equiv_pos_site_id
 _symmetry_equiv_pos_as_xyz
  1  'x, y, z'
loop_
 _atom_site_type_symbol
 _atom_site_label
 _atom_site_symmetry_multiplicity
 _atom_site_fract_x
 _atom_site_fract_y
 _atom_site_fract_z
 _atom_site_occupancy
  Zr  Zr0  1  0.90365636  0.89982330  0.09921811  1
  Zr  Zr1  1  0.69940847  0.69976867  0.70014338  1
  Zr  Zr2  1  0.69397132  0.29469132  0.29879747  1
  Zr  Zr3  1  0.69972251  0.50063066  0.70015200  1
  Zr  Zr4  1  0.70920341  0.09633274  0.50439930  1
  Zr  Zr5  1  0.70009621  0.10492504  0.10554628  1
  Zr  Zr6  1  0.90358742  0.69986248  0.50701228  1
  Zr  Zr7  1  0.91215683  0.29315674  0.89904983  1
  Zr  Zr8  1  0.09939422  0.30158283  0.30003948  1
  Zr  Zr9  1  0.10088218  0.30650634  0.70343841  1
  Zr  Zr10  1  0.90429962  0.50737298  0.90277172  1
  Zr  Zr11  1  0.49621626  0.89786792  0.50536945  1
  Zr  Zr12  1  0.10232912  0.90738512  0.89856278  1
  Zr  Zr13  1  0.29612860  0.69547465  0.50241272  1
  Zr  Zr14  1  0.90531141  0.89519670  0.69924660  1
  Zr  Zr15  1  0.28338965  0.09610352  0.90827793  1
  Zr  Zr16  1  0.09975423  0.89372915  0.29998851  1
  Zr  Zr17  1  0.69770116  0.70221834  0.50234971  1
  Zr  Zr18  1  0.49800336  0.10194522  0.89791153  1
  Zr  Zr19  1  0.70839424  0.89980497  0.89698246  1
  Zr  Zr20  1  0.30480201  0.69661220  0.09981828  1
  Zr  Zr21  1  0.90220836  0.70315573  0.89235631  1
  Zr  Zr22  1  0.90283605  0.09701735  0.30680537  1
  Zr  Zr23  1  0.89616350  0.29863335  0.70325733  1
  Zr  Zr24  1  0.30579555  0.89326903  0.10916146  1
  Zr  Zr25  1  0.70227280  0.90382238  0.09684632  1
  Zr  Zr26  1  0.49573195  0.49503951  0.30086828  1
  Zr  Zr27  1  0.30086544  0.49554421  0.30428938  1
  Zr  Zr28  1  0.90418783  0.90245849  0.30266136  1
  Zr  Zr29  1  0.69442029  0.70293245  0.08911825  1
  Zr  Zr30  1  0.29041232  0.10186342  0.68452134  1
  Zr  Zr31  1  0.48675513  0.49717074  0.49469186  1
  Zr  Zr32  1  0.29785850  0.50409068  0.89612064  1
  Zr  Zr33  1  0.70606338  0.29143247  0.69702024  1
  Zr  Zr34  1  0.91243677  0.69923602  0.70045767  1
  Zr  Zr35  1  0.10685915  0.70141202  0.30383081  1
  Zr  Zr36  1  0.50269993  0.69856918  0.30305972  1
  Zr  Zr37  1  0.30581198  0.90129972  0.50535957  1
  Zr  Zr38  1  0.70515177  0.50473111  0.09375492  1
  Zr  Zr39  1  0.29320516  0.90020395  0.89551218  1
  Zr  Zr40  1  0.50307182  0.88643769  0.10105812  1
  Zr  Zr41  1  0.31427432  0.10458881  0.29700390  1
  Zr  Zr42  1  0.50491087  0.09837429  0.70993066  1
  Zr  Zr43  1  0.11523058  0.10168935  0.09334991  1
  Zr  Zr44  1  0.10371815  0.48710533  0.90129918  1
  Zr  Zr45  1  0.70078642  0.90352574  0.30407441  1
  Zr  Zr46  1  0.49419392  0.50391177  0.09651432  1
  Zr  Zr47  1  0.29944203  0.69743360  0.89357704  1
  Zr  Zr48  1  0.29733231  0.50289304  0.09837674  1
  Zr  Zr49  1  0.69647630  0.09647169  0.88658744  1
  Sc  Sc50  1  0.91269643  0.70496647  0.30374711  1
  Sc  Sc51  1  0.09874959  0.10699162  0.30777248  1
  Sc  Sc52  1  0.49367688  0.89754515  0.29882531  1
  Sc  Sc53  1  0.30258689  0.10953320  0.10384856  1
  Sc  Sc54  1  0.29698110  0.90456042  0.70155319  1
  Sc  Sc55  1  0.70175803  0.49957652  0.50212192  1
  Sc  Sc56  1  0.69692945  0.70787630  0.31383569  1
  Sc  Sc57  1  0.50305227  0.70149721  0.50432456  1
  Sc  Sc58  1  0.89637988  0.09426876  0.69616741  1
  Sc  Sc59  1  0.48937256  0.30256981  0.89646998  1
  Sc  Sc60  1  0.89283560  0.09568101  0.09612016  1
  Sc  Sc61  1  0.91147383  0.70111132  0.09131247  1
  Sc  Sc62  1  0.70069426  0.70163640  0.89560025  1
  Sc  Sc63  1  0.10152914  0.49629836  0.30231778  1
  Sc  Sc64  1  0.29372038  0.70658981  0.29660785  1
  Sc  Sc65  1  0.29724126  0.29612431  0.10351321  1
  Sc  Sc66  1  0.48804776  0.50140664  0.89526350  1
  Sc  Sc67  1  0.09742266  0.89619817  0.49977947  1
  Sc  Sc68  1  0.09450406  0.89862161  0.09898396  1
  Sc  Sc69  1  0.71024387  0.51273141  0.89868159  1
  Sc  Sc70  1  0.29644840  0.30146098  0.30055064  1
  Sc  Sc71  1  0.10255942  0.50089411  0.10294244  1
  Sc  Sc72  1  0.09099281  0.10017106  0.89680665  1
  Sc  Sc73  1  0.48454533  0.10338405  0.49834140  1
  Sc  Sc74  1  0.10388399  0.50011984  0.49386746  1
  Sc  Sc75  1  0.49866480  0.29597607  0.30756211  1
  Sc  Sc76  1  0.90339599  0.09482075  0.49939169  1
  Sc  Sc77  1  0.89777575  0.90472988  0.49769740  1
  Sc  Sc78  1  0.49036090  0.50251941  0.70065230  1
  Sc  Sc79  1  0.71318751  0.28585004  0.88921229  1
  Sc  Sc80  1  0.90518497  0.90080283  0.90059529  1
  Sc  Sc81  1  0.90923843  0.49323151  0.30089250  1
  Sc  Sc82  1  0.10271085  0.70052727  0.10898053  1
  Sc  Sc83  1  0.48861812  0.30327904  0.70141328  1
  Sc  Sc84  1  0.70393995  0.49419771  0.30174090  1
  Sc  Sc85  1  0.29266751  0.31246673  0.90513546  1
  Sc  Sc86  1  0.09843357  0.69898208  0.88825077  1
  Sc  Sc87  1  0.89552751  0.50611113  0.70194263  1
  Sc  Sc88  1  0.90597808  0.50307548  0.10076054  1
  Sc  Sc89  1  0.09434196  0.69043307  0.50065504  1
  Sc  Sc90  1  0.90147224  0.30503431  0.30088164  1
  Sc  Sc91  1  0.49292044  0.89881175  0.69917450  1
  Sc  Sc92  1  0.10185817  0.10521790  0.49889523  1
  Sc  Sc93  1  0.89430363  0.29995190  0.49701323  1
  Sc  Sc94  1  0.09817898  0.90492010  0.70789381  1
  Sc  Sc95  1  0.10697929  0.50577735  0.69752477  1
  Sc  Sc96  1  0.70646697  0.89242600  0.49804748  1
  Sc  Sc97  1  0.10666422  0.30105813  0.48987157  1
  Sc  Sc98  1  0.49484752  0.89603128  0.88775379  1
  Sc  Sc99  1  0.49540085  0.10708758  0.11270633  1
  Nb  Nb100  1  0.89403673  0.29320851  0.09727737  1
  Nb  Nb101  1  0.90912813  0.50370412  0.49805518  1
  Nb  Nb102  1  0.50007466  0.69947598  0.09602166  1
  Nb  Nb103  1  0.70298060  0.90718255  0.70198197  1
  Nb  Nb104  1  0.09841364  0.29935549  0.89956030  1
  Nb  Nb105  1  0.29689973  0.49430857  0.69421226  1
  Nb  Nb106  1  0.89459199  0.10189704  0.90141550  1
  Nb  Nb107  1  0.69061425  0.10230767  0.29992940  1
  Nb  Nb108  1  0.30433958  0.30071913  0.51338532  1
  Nb  Nb109  1  0.28633506  0.68542012  0.70370222  1
  Nb  Nb110  1  0.70379145  0.29750613  0.10059059  1
  Nb  Nb111  1  0.09675697  0.10607353  0.69923010  1
  Nb  Nb112  1  0.69567001  0.29638554  0.49972532  1
  Nb  Nb113  1  0.29887185  0.49229244  0.51075115  1
  Nb  Nb114  1  0.29550383  0.09945973  0.50231694  1
  Nb  Nb115  1  0.50437786  0.30178699  0.50179037  1
  Nb  Nb116  1  0.50395261  0.30193248  0.09573168  1
  Nb  Nb117  1  0.50084787  0.69835721  0.71198941  1
  Nb  Nb118  1  0.50878803  0.10636037  0.30391645  1
  Nb  Nb119  1  0.10087185  0.70100593  0.69820643  1
  Nb  Nb120  1  0.09899917  0.29537796  0.09282947  1
  Nb  Nb121  1  0.29425135  0.30640102  0.69459819  1
  Nb  Nb122  1  0.49375042  0.69800402  0.89665706  1
  Nb  Nb123  1  0.69788529  0.09985065  0.69992127  1
  Nb  Nb124  1  0.29553389  0.89646927  0.30279666  1
  Nb  Nb125  1  0.00050911  0.20450119  0.19098669  1
  Nb  Nb126  1  -0.00190037  0.40022935  0.59763383  1
  Nb  Nb127  1  0.59485511  0.00329472  -0.00010201  1
  Nb  Nb128  1  0.79023377  0.19881191  0.39772868  1
  Nb  Nb129  1  0.60455627  0.39892473  0.79943953  1
  Nb  Nb130  1  0.19689687  0.20638500  0.79655831  1
  Nb  Nb131  1  0.40291964  -0.00190693  0.00241800  1
  Nb  Nb132  1  0.80777498  0.60021850  0.40100788  1
  Nb  Nb133  1  0.60130362  0.59944519  0.19691297  1
  Nb  Nb134  1  0.38164030  0.20083440  0.79709881  1
  Nb  Nb135  1  0.60047853  0.19990199  0.59902845  1
  Nb  Nb136  1  0.59759073  0.00644020  0.40234415  1
  Nb  Nb137  1  0.80089686  0.79750838  0.19927295  1
  Nb  Nb138  1  0.59800108  0.39407942  0.59973059  1
  Nb  Nb139  1  0.60736566  0.39344210  -0.00421666  1
  Nb  Nb140  1  0.21115679  -0.00023064  0.39930137  1
  Nb  Nb141  1  0.60145698  0.20313197  0.00080467  1
  Nb  Nb142  1  0.20296454  0.79965066  -0.00306724  1
  Nb  Nb143  1  0.20476927  -0.00162557  0.20967048  1
  Nb  Nb144  1  0.19867703  0.79249327  0.60606238  1
  Nb  Nb145  1  0.79747819  0.60927604  0.20380948  1
  Nb  Nb146  1  0.60385597  0.00346299  0.60157352  1
  Nb  Nb147  1  0.80204035  0.39075312  0.00232164  1
  Nb  Nb148  1  0.60069308  0.39947789  0.18949792  1
  Nb  Nb149  1  0.00190155  0.20673000  0.60320676  1
  Pd  Pd150  1  0.59633230  0.59295024  0.80623125  1
  Pd  Pd151  1  0.39090013  0.79453358  0.78908376  1
  Pd  Pd152  1  0.40504459  0.19829450  0.60527884  1
  Pd  Pd153  1  0.00007994  0.80021728  0.40888736  1
  Pd  Pd154  1  0.01118739  0.01254371  0.19789035  1
  Pd  Pd155  1  -0.00385373  0.39881239  0.00865084  1
  Pd  Pd156  1  0.00016336  0.19011175  0.00465607  1
  Pd  Pd157  1  0.40112719  0.60428911  0.20496668  1
  Pd  Pd158  1  0.19727330  0.39952222  0.19542969  1
  Pd  Pd159  1  0.40315472  0.39145185  0.19896167  1
  Pd  Pd160  1  0.59169220  0.59522048  -0.00872769  1
  Pd  Pd161  1  0.60683509  0.79253028  0.20447639  1
  Pd  Pd162  1  0.01155441  0.60442534  -0.00286049  1
  Pd  Pd163  1  0.80198930  0.59814793  0.59664200  1
  Pd  Pd164  1  0.39192156  0.60533239  0.39930392  1
  Pd  Pd165  1  0.18921166  -0.00874538  0.59550513  1
  Pd  Pd166  1  0.80152005  -0.00250593  0.20376030  1
  Pd  Pd167  1  0.58947763  0.59227940  0.59817259  1
  Pd  Pd168  1  0.60817845  0.59127613  0.39744939  1
  Pd  Pd169  1  0.60045070  0.40508007  0.40081956  1
  Pd  Pd170  1  0.60067344  0.80740448  0.60880897  1
  Pd  Pd171  1  0.20391214  0.59538005  0.39943046  1
  Pd  Pd172  1  0.39163284  0.78611098  0.61320236  1
  Pd  Pd173  1  0.80915160  0.19751369  0.21050634  1
  Pd  Pd174  1  -0.00192268  0.00645723  -0.00030326  1
  Pd  Pd175  1  0.39411082  0.20829923  0.40396505  1
  Pd  Pd176  1  0.21106733  0.19804497  0.40039576  1
  Pd  Pd177  1  0.59061997  -0.00180816  0.20016756  1
  Pd  Pd178  1  0.40381878  0.60697371  0.60586840  1
  Pd  Pd179  1  -0.00168192  0.60175879  0.20588922  1
  Pd  Pd180  1  0.79871396  0.40370583  0.81066627  1
  Pd  Pd181  1  0.00603191  0.00534557  0.59732379  1
  Pd  Pd182  1  0.59470879  0.80549367  -0.01661974  1
  Pd  Pd183  1  0.40303540  -0.00079757  0.19876992  1
  Pd  Pd184  1  0.39922426  0.79335054  0.39832386  1
  Pd  Pd185  1  0.60141225  0.80363051  0.79856935  1
  Pd  Pd186  1  -0.00205767  0.40906708  0.79182809  1
  Pd  Pd187  1  0.38794207  0.00821648  0.80101495  1
  Pd  Pd188  1  0.39794644  0.39974064  0.00068076  1
  Pd  Pd189  1  0.39923420  0.19805797  -0.00467820  1
  Pd  Pd190  1  0.80701733  0.79621867  0.00206830  1
  Pd  Pd191  1  0.81012595  0.00039480  0.79811155  1
  Pd  Pd192  1  0.00290142  0.39342511  0.19162234  1
  Pd  Pd193  1  0.19101721  0.60814386  -0.00278816  1
  Pd  Pd194  1  0.80189300  0.40318372  0.59360614  1
  Pd  Pd195  1  0.79908757  0.40644713  0.19531992  1
  Pd  Pd196  1  0.80056409  0.40018881  0.40400636  1
  Pd  Pd197  1  0.39680247  0.80228837  -0.00663250  1
  Pd  Pd198  1  0.40160587  0.00009430  0.39776131  1
  Pd  Pd199  1  0.80147078  0.80219878  0.60374300  1
  Rh  Rh200  1  0.80271757  0.60920568  0.79649460  1
  Rh  Rh201  1  0.81004904  0.79255267  0.39612429  1
  Rh  Rh202  1  0.39201647  0.39015079  0.40652056  1
  Rh  Rh203  1  0.19180044  0.40035276  0.59315295  1
  Rh  Rh204  1  0.00240715  0.39848716  0.40803055  1
  Rh  Rh205  1  0.60273572  0.19093185  0.41264131  1
  Rh  Rh206  1  0.59313210  0.20823894  0.19487904  1
  Rh  Rh207  1  0.80027258  0.79873684  0.79303597  1
  Rh  Rh208  1  0.79487632  0.19666793  -0.00580335  1
  Rh  Rh209  1  -0.01278370  0.20373975  0.40272079  1
  Rh  Rh210  1  0.40704682  0.20977862  0.20500621  1
  Rh  Rh211  1  0.39314192  0.39848860  0.79612473  1
  Rh  Rh212  1  0.80504996  0.19729050  0.59415759  1
  Rh  Rh213  1  -0.00549815  0.00516978  0.80086115  1
  Rh  Rh214  1  0.00495689  0.80492406  0.80065131  1
  Rh  Rh215  1  0.19576755  0.80529754  0.19133951  1
  Rh  Rh216  1  0.40356213  0.79079207  0.20773342  1
  Rh  Rh217  1  0.40195943  0.60405186  -0.00467022  1
  Rh  Rh218  1  -0.00154581  0.59674686  0.39441817  1
  Rh  Rh219  1  -0.00434410  0.79765308  0.19846934  1
  Rh  Rh220  1  0.20173082  0.59522205  0.20601773  1
  Rh  Rh221  1  0.81096514  0.60294445  0.00427529  1
  Rh  Rh222  1  0.01213935  0.79891834  -0.00609629  1
  Rh  Rh223  1  0.40457968  0.40019796  0.60043570  1
  Rh  Rh224  1  0.19009712  0.20719906  0.59944118  1
  Rh  Rh225  1  0.81218698  0.18936182  0.79661801  1
  Rh  Rh226  1  0.00874582  0.80206159  0.60075016  1
  Rh  Rh227  1  0.20422413  0.40005798  0.79862732  1
  Rh  Rh228  1  0.21171777  -0.01289233  0.01831643  1
  Rh  Rh229  1  0.19860660  0.39789374  0.00812078  1
  Rh  Rh230  1  0.00477252  0.59032409  0.60271659  1
  Rh  Rh231  1  0.79840733  -0.00725498  0.60310759  1
  Rh  Rh232  1  0.19682687  0.60003612  0.59609575  1
  Rh  Rh233  1  0.19555247  0.01268327  0.79075907  1
  Rh  Rh234  1  0.01272852  -0.00039923  0.40438188  1
  Rh  Rh235  1  0.59235702  0.81222130  0.40469608  1
  Rh  Rh236  1  -0.00076268  0.19331697  0.79446577  1
  Rh  Rh237  1  0.39641267  0.60015503  0.79212446  1
  Rh  Rh238  1  0.79411159  0.00602503  -0.00509739  1
  Rh  Rh239  1  0.19508223  0.59137755  0.80105724  1
  Rh  Rh240  1  0.19794828  0.79927834  0.79679925  1
  Rh  Rh241  1  0.58740128  0.21478775  0.79848030  1
  Rh  Rh242  1  0.21027724  0.40003231  0.40629707  1
  Rh  Rh243  1  0.19134171  0.19722746  0.20528518  1
  Rh  Rh244  1  0.79321511  0.00563197  0.39526941  1
  Rh  Rh245  1  0.00595265  0.59393936  0.79787745  1
  Rh  Rh246  1  0.19887435  0.21033122  -0.00959993  1
  Rh  Rh247  1  0.60124290  -0.01212597  0.79835957  1
  Rh  Rh248  1  0.20349313  0.80422463  0.41575792  1
  Rh  Rh249  1  0.40574323  0.00715908  0.60499818  1
