# generated using pymatgen
data_ZrScNbPdRh
_symmetry_space_group_name_H-M   'P 1'
_cell_length_a   16.56386151
_cell_length_b   16.56304061
_cell_length_c   16.56078580
_cell_angle_alpha   90.00353980
_cell_angle_beta   89.96975514
_cell_angle_gamma   89.97047209
_symmetry_Int_Tables_number   1
_chemical_formula_structural   ZrScNbPdRh
_chemical_formula_sum   'Zr50 Sc50 Nb50 Pd50 Rh50'
_cell_volume   4543.41574274
_cell_formula_units_Z   50
loop_
 _symmetry_equiv_pos_site_id
 _symmetry_equiv_pos_as_xyz
  1  'x, y, z'
loop_
 _atom_site_type_symbol
 _atom_site_label
 _atom_site_symmetry_multiplicity
 _atom_site_fract_x
 _atom_site_fract_y
 _atom_site_fract_z
 _atom_site_occupancy
  Zr  Zr0  1  0.28687643  0.09537895  0.49898862  1
  Zr  Zr1  1  0.49871524  0.50012904  0.89253987  1
  Zr  Zr2  1  0.49711440  0.89547416  0.91314883  1
  Zr  Zr3  1  0.30299686  0.70622205  0.70065615  1
  Zr  Zr4  1  0.89720154  0.29853457  0.50514564  1
  Zr  Zr5  1  0.29315953  0.30683090  0.70659519  1
  Zr  Zr6  1  0.50406591  0.89381472  0.30333575  1
  Zr  Zr7  1  0.29598051  0.89810492  0.69903887  1
  Zr  Zr8  1  0.50194900  0.28976684  0.89463822  1
  Zr  Zr9  1  0.09710720  0.70862134  0.50641559  1
  Zr  Zr10  1  0.10033695  0.30170169  0.30056567  1
  Zr  Zr11  1  0.70007360  0.50058501  0.49703183  1
  Zr  Zr12  1  0.69501540  0.28811191  0.29708045  1
  Zr  Zr13  1  0.30476455  0.09749720  0.89681444  1
  Zr  Zr14  1  0.69292108  0.70732787  0.89724607  1
  Zr  Zr15  1  0.90755272  0.70365678  0.89899443  1
  Zr  Zr16  1  0.90058326  0.90061974  0.70435153  1
  Zr  Zr17  1  0.70368127  0.09635126  0.29844442  1
  Zr  Zr18  1  0.10752711  0.49488156  0.70234948  1
  Zr  Zr19  1  0.88962096  0.49686253  0.10149498  1
  Zr  Zr20  1  0.10623836  0.30015568  0.89650664  1
  Zr  Zr21  1  0.10009127  0.28623953  0.50760180  1
  Zr  Zr22  1  0.91652793  0.50377785  0.71029279  1
  Zr  Zr23  1  0.49874107  0.71224385  0.09928918  1
  Zr  Zr24  1  0.49095527  0.50478642  0.30070202  1
  Zr  Zr25  1  0.30652099  0.29583169  0.30380599  1
  Zr  Zr26  1  0.90535664  0.70657111  0.69379020  1
  Zr  Zr27  1  0.30270281  0.50172040  0.89827294  1
  Zr  Zr28  1  0.91274501  0.09481245  0.49255906  1
  Zr  Zr29  1  0.69359160  0.90693835  0.49433740  1
  Zr  Zr30  1  0.30466691  0.90488588  0.09608903  1
  Zr  Zr31  1  0.90003587  0.29751340  0.90391589  1
  Zr  Zr32  1  0.29228019  0.29796715  0.09555681  1
  Zr  Zr33  1  0.10095899  0.10002748  0.69077735  1
  Zr  Zr34  1  0.89850762  0.70246408  0.49829830  1
  Zr  Zr35  1  0.70842522  0.69783980  0.50319486  1
  Zr  Zr36  1  0.70947686  0.70201306  0.30003968  1
  Zr  Zr37  1  0.30171632  0.70520333  0.89810421  1
  Zr  Zr38  1  0.49294500  0.10093239  0.70274089  1
  Zr  Zr39  1  0.50624347  0.50057994  0.51153952  1
  Zr  Zr40  1  0.10244203  0.89637161  0.10987450  1
  Zr  Zr41  1  0.49849522  0.90149935  0.49699151  1
  Zr  Zr42  1  0.70525716  0.29916240  0.69662002  1
  Zr  Zr43  1  0.90211857  0.70111497  0.11045386  1
  Zr  Zr44  1  0.90225611  0.89452856  0.50304079  1
  Zr  Zr45  1  0.69899957  0.70088229  0.70122046  1
  Zr  Zr46  1  0.29287934  0.50021767  0.08813280  1
  Zr  Zr47  1  0.09562894  0.09086794  0.30786182  1
  Zr  Zr48  1  0.49024311  0.90691859  0.69309662  1
  Zr  Zr49  1  0.90025667  0.90336621  0.10314842  1
  Sc  Sc50  1  0.09795965  0.29786276  0.09081391  1
  Sc  Sc51  1  0.70570142  0.89746576  0.70716030  1
  Sc  Sc52  1  0.29580272  0.30176553  0.49770481  1
  Sc  Sc53  1  0.50586630  0.30346730  0.70367449  1
  Sc  Sc54  1  0.90810428  0.50310566  0.90501240  1
  Sc  Sc55  1  0.29904493  0.29968231  0.89919330  1
  Sc  Sc56  1  0.50231569  0.10683665  0.29439492  1
  Sc  Sc57  1  0.69895823  0.90613227  0.29920681  1
  Sc  Sc58  1  0.30004000  0.70292996  0.50290592  1
  Sc  Sc59  1  0.49891413  0.28811669  0.09590569  1
  Sc  Sc60  1  0.31328303  0.69707974  0.30635269  1
  Sc  Sc61  1  0.50140859  0.09196911  0.09298859  1
  Sc  Sc62  1  0.89063037  0.50401596  0.49848810  1
  Sc  Sc63  1  0.89735287  0.09845542  0.70070528  1
  Sc  Sc64  1  0.29957241  0.90803600  0.29057493  1
  Sc  Sc65  1  0.29704733  0.09931692  0.29512833  1
  Sc  Sc66  1  0.89962672  0.90180922  0.89066998  1
  Sc  Sc67  1  0.11014146  0.10144178  0.89722164  1
  Sc  Sc68  1  0.90440098  0.90351640  0.29823635  1
  Sc  Sc69  1  0.09216011  0.49855099  0.09658403  1
  Sc  Sc70  1  0.70908358  0.70212647  0.10564741  1
  Sc  Sc71  1  0.68337996  0.50271340  0.69191687  1
  Sc  Sc72  1  0.89441745  0.49975166  0.29138763  1
  Sc  Sc73  1  0.09898203  0.90062581  0.70330227  1
  Sc  Sc74  1  0.70204908  0.30077664  0.50255768  1
  Sc  Sc75  1  0.49901325  0.90431284  0.10567529  1
  Sc  Sc76  1  0.69578753  0.10103288  0.69317383  1
  Sc  Sc77  1  0.09592390  0.70853741  0.29174626  1
  Sc  Sc78  1  0.30344355  0.49662281  0.51325516  1
  Sc  Sc79  1  0.69030113  0.09772323  0.49437551  1
  Sc  Sc80  1  0.69584400  0.90525217  0.10115865  1
  Sc  Sc81  1  0.09871540  0.50156233  0.89987902  1
  Sc  Sc82  1  0.89297445  0.09480076  0.90054530  1
  Sc  Sc83  1  0.10777272  0.10118488  0.09888375  1
  Sc  Sc84  1  0.29818132  0.08979117  0.71032224  1
  Sc  Sc85  1  0.49440460  0.50413487  0.70190636  1
  Sc  Sc86  1  0.49616369  0.29694442  0.49579406  1
  Sc  Sc87  1  0.09811236  0.91375096  0.50343687  1
  Sc  Sc88  1  0.09864934  0.70529931  0.09751368  1
  Sc  Sc89  1  0.30259574  0.09561390  0.10117019  1
  Sc  Sc90  1  0.11676947  0.50040526  0.49755333  1
  Sc  Sc91  1  0.29838881  0.69887529  0.09548171  1
  Sc  Sc92  1  0.70243638  0.10194171  0.90386859  1
  Sc  Sc93  1  0.48927372  0.49989750  0.09510681  1
  Sc  Sc94  1  0.70455664  0.90380078  0.90117554  1
  Sc  Sc95  1  0.49841443  0.70308379  0.89323762  1
  Sc  Sc96  1  0.89089001  0.29604292  0.30109122  1
  Sc  Sc97  1  0.29448924  0.49968173  0.32165322  1
  Sc  Sc98  1  0.09967155  0.70545826  0.90478964  1
  Sc  Sc99  1  0.70345482  0.50394506  0.90051924  1
  Nb  Nb100  1  0.29942082  0.89873868  0.50032958  1
  Nb  Nb101  1  0.50407616  0.70169777  0.30525152  1
  Nb  Nb102  1  0.49600231  0.09868791  0.89425823  1
  Nb  Nb103  1  0.89708886  0.09481604  0.29166118  1
  Nb  Nb104  1  0.09940839  0.49836412  0.30200912  1
  Nb  Nb105  1  0.89888987  0.70045881  0.30193157  1
  Nb  Nb106  1  0.69881594  0.50031250  0.10338546  1
  Nb  Nb107  1  0.70702408  0.30052025  0.09515869  1
  Nb  Nb108  1  0.89744704  0.09508354  0.10366542  1
  Nb  Nb109  1  0.29477500  0.90069457  0.89390311  1
  Nb  Nb110  1  0.50003648  0.30298622  0.29487045  1
  Nb  Nb111  1  0.09801816  0.69682399  0.69822701  1
  Nb  Nb112  1  0.50437477  0.69981272  0.70042093  1
  Nb  Nb113  1  0.09754983  0.30169807  0.70356924  1
  Nb  Nb114  1  0.09591156  0.89911162  0.90593270  1
  Nb  Nb115  1  0.49839937  0.08741137  0.51117308  1
  Nb  Nb116  1  0.50330551  0.70914542  0.49001615  1
  Nb  Nb117  1  0.10510202  0.90261787  0.29757392  1
  Nb  Nb118  1  0.89744058  0.29466891  0.10077125  1
  Nb  Nb119  1  0.09680358  0.09748011  0.50161316  1
  Nb  Nb120  1  0.70103061  0.30149635  0.89994401  1
  Nb  Nb121  1  0.90204631  0.30099463  0.69918896  1
  Nb  Nb122  1  0.69478862  0.50093113  0.29614886  1
  Nb  Nb123  1  0.71155366  0.09681462  0.10491164  1
  Nb  Nb124  1  0.30163603  0.50149071  0.70530806  1
  Nb  Nb125  1  0.20231320  0.40411204  0.20355816  1
  Nb  Nb126  1  0.59875010  0.40234098  0.38963621  1
  Nb  Nb127  1  0.19973253  0.80966479  0.39852458  1
  Nb  Nb128  1  0.00138026  0.40242202  0.40342542  1
  Nb  Nb129  1  0.00063264  0.20511404  0.79634740  1
  Nb  Nb130  1  0.59695681  0.59844841  0.20095299  1
  Nb  Nb131  1  0.59927285  0.60154657  0.39523822  1
  Nb  Nb132  1  0.80077873  0.39986225  0.79903455  1
  Nb  Nb133  1  0.39699992  0.19313655  0.60140236  1
  Nb  Nb134  1  0.00259590  0.39601067  0.59896538  1
  Nb  Nb135  1  -0.00937509  0.19520061  0.19592768  1
  Nb  Nb136  1  0.59620630  0.79832335  0.59868543  1
  Nb  Nb137  1  0.19875370  0.59239706  0.20433307  1
  Nb  Nb138  1  0.80192549  0.60015605  0.79789067  1
  Nb  Nb139  1  0.00265706  -0.00228196  0.00190679  1
  Nb  Nb140  1  0.00057182  0.59962859  0.39449363  1
  Nb  Nb141  1  0.39592477  0.39763051  0.20156135  1
  Nb  Nb142  1  0.20232443  0.60351515  0.79530591  1
  Nb  Nb143  1  0.80174137  -0.00293240  0.59418460  1
  Nb  Nb144  1  0.80580142  0.80035781  0.00062144  1
  Nb  Nb145  1  0.59813305  0.39957233  0.19632820  1
  Nb  Nb146  1  0.60719195  0.39774468  0.00295741  1
  Nb  Nb147  1  0.59087136  0.00310706  0.80387455  1
  Nb  Nb148  1  0.60151128  0.59684518  0.00759687  1
  Nb  Nb149  1  0.39967994  -0.00063345  0.40537696  1
  Pd  Pd150  1  0.80000770  0.19121573  0.40686771  1
  Pd  Pd151  1  0.79809256  0.40106191  0.39191235  1
  Pd  Pd152  1  0.80274555  0.20041180  0.79828123  1
  Pd  Pd153  1  0.00009245  0.39878516  0.00138330  1
  Pd  Pd154  1  0.60810116  0.40424627  0.80427562  1
  Pd  Pd155  1  0.59040742  0.81416730  0.79339823  1
  Pd  Pd156  1  0.00294529  0.60151117  0.00533574  1
  Pd  Pd157  1  0.19844590  0.19790477  0.39641856  1
  Pd  Pd158  1  -0.00444309  0.20450391  0.39076108  1
  Pd  Pd159  1  0.19171003  0.61817398  0.39351729  1
  Pd  Pd160  1  0.19209142  0.20143960  0.20126592  1
  Pd  Pd161  1  0.18985016  0.79717719  0.79927660  1
  Pd  Pd162  1  0.20978082  0.19878291  0.60879328  1
  Pd  Pd163  1  0.59168849  0.20419532  0.59587668  1
  Pd  Pd164  1  0.39520183  0.19581290  0.00094476  1
  Pd  Pd165  1  0.00672218  0.01004397  0.80711936  1
  Pd  Pd166  1  0.00087126  0.39144193  0.20125816  1
  Pd  Pd167  1  0.80338417  0.18603095  0.59273321  1
  Pd  Pd168  1  0.00501059  0.58846820  0.58656068  1
  Pd  Pd169  1  0.79393249  0.39237321  0.20531237  1
  Pd  Pd170  1  0.40352832  0.60827583  0.59868702  1
  Pd  Pd171  1  0.79884953  0.80949498  0.39522743  1
  Pd  Pd172  1  0.40322805  0.59964667  0.41567996  1
  Pd  Pd173  1  0.00715600  0.80203399  0.39532807  1
  Pd  Pd174  1  0.39986832  0.19878145  0.19334184  1
  Pd  Pd175  1  0.20297823  0.80210222  0.00112754  1
  Pd  Pd176  1  0.59213831  0.19897831  0.40552049  1
  Pd  Pd177  1  0.40833968  0.60834286  -0.00324966  1
  Pd  Pd178  1  0.19699575  -0.00097136  -0.00072502  1
  Pd  Pd179  1  0.40488996  0.79355627  0.59658764  1
  Pd  Pd180  1  0.60318944  0.19683638  0.18737417  1
  Pd  Pd181  1  0.39410157  0.80122018  0.20400406  1
  Pd  Pd182  1  0.79584370  0.60869584  -0.00573231  1
  Pd  Pd183  1  0.79935766  0.19503924  0.00296834  1
  Pd  Pd184  1  0.79878579  0.40254040  -0.00679352  1
  Pd  Pd185  1  0.20436949  0.60241708  0.60627871  1
  Pd  Pd186  1  0.00521689  0.59945408  0.20300223  1
  Pd  Pd187  1  0.80333527  0.59068143  0.61290270  1
  Pd  Pd188  1  0.60343286  0.00384436  -0.00379651  1
  Pd  Pd189  1  -0.00048774  0.18719632  -0.00235326  1
  Pd  Pd190  1  0.21231979  0.78935976  0.20740637  1
  Pd  Pd191  1  0.40286875  0.38907919  0.60588062  1
  Pd  Pd192  1  0.39347786  0.59621478  0.19639504  1
  Pd  Pd193  1  0.60624885  0.79775790  0.19854659  1
  Pd  Pd194  1  0.40497116  0.18689519  0.40856201  1
  Pd  Pd195  1  0.60678201  0.19687777  0.00339794  1
  Pd  Pd196  1  0.80596210  0.41159756  0.61150581  1
  Pd  Pd197  1  0.40413068  0.40177697  0.40340670  1
  Pd  Pd198  1  0.60691610  0.19235674  0.79914851  1
  Pd  Pd199  1  0.40868127  0.39031408  -0.00002875  1
  Rh  Rh200  1  0.39564843  0.60457147  0.79433377  1
  Rh  Rh201  1  0.38927217  0.80975648  0.39520356  1
  Rh  Rh202  1  -0.00089034  -0.00717744  0.39620616  1
  Rh  Rh203  1  0.19433629  -0.00545611  0.80159423  1
  Rh  Rh204  1  0.80507198  0.79136859  0.80745935  1
  Rh  Rh205  1  0.19771036  0.00493108  0.19799779  1
  Rh  Rh206  1  0.60290417  0.59681034  0.80656245  1
  Rh  Rh207  1  0.00623500  0.79848453  0.79657533  1
  Rh  Rh208  1  0.19428468  0.80680528  0.59541140  1
  Rh  Rh209  1  0.79930801  0.59933557  0.20335187  1
  Rh  Rh210  1  0.80681350  0.00096178  0.40289667  1
  Rh  Rh211  1  0.20395887  -0.00623019  0.39796062  1
  Rh  Rh212  1  0.19323201  0.40118900  -0.00108048  1
  Rh  Rh213  1  0.39559149  0.20707185  0.79316617  1
  Rh  Rh214  1  0.60005861  0.00538923  0.20048456  1
  Rh  Rh215  1  -0.00443131  0.38982019  0.80178573  1
  Rh  Rh216  1  0.58753336  0.00893328  0.38951825  1
  Rh  Rh217  1  0.00776591  0.61076127  0.80332549  1
  Rh  Rh218  1  -0.00381837  0.20079743  0.60721407  1
  Rh  Rh219  1  -0.00581795  -0.00069578  0.60386634  1
  Rh  Rh220  1  0.19895238  -0.00418234  0.60348547  1
  Rh  Rh221  1  0.20294123  0.40865321  0.80671329  1
  Rh  Rh222  1  0.19295503  0.60210540  -0.00211072  1
  Rh  Rh223  1  0.59202358  0.61381069  0.59181282  1
  Rh  Rh224  1  0.39772288  -0.00078253  -0.00436146  1
  Rh  Rh225  1  0.59717987  0.38955322  0.59124426  1
  Rh  Rh226  1  0.79577891  -0.00549663  0.20217203  1
  Rh  Rh227  1  0.61167107  0.79462315  0.01007482  1
  Rh  Rh228  1  0.40091346  0.39589879  0.80011315  1
  Rh  Rh229  1  -0.00300836  0.80213564  0.20550614  1
  Rh  Rh230  1  0.39269797  0.80220536  0.00008988  1
  Rh  Rh231  1  0.80409730  0.59587032  0.39058249  1
  Rh  Rh232  1  0.80534306  -0.00560293  0.00141731  1
  Rh  Rh233  1  0.78695437  0.00877039  0.79133481  1
  Rh  Rh234  1  0.40351010  -0.01172980  0.81022046  1
  Rh  Rh235  1  0.00754242  0.80803800  0.60607523  1
  Rh  Rh236  1  0.80302358  0.19998236  0.19410053  1
  Rh  Rh237  1  0.38387619  0.00648409  0.59444041  1
  Rh  Rh238  1  0.19717361  0.39677235  0.59894364  1
  Rh  Rh239  1  0.19642949  0.19700601  0.79663899  1
  Rh  Rh240  1  0.40812591  0.00136329  0.20779516  1
  Rh  Rh241  1  0.40406066  0.80432940  0.80099176  1
  Rh  Rh242  1  0.00710903  0.00596551  0.19461802  1
  Rh  Rh243  1  0.79039642  0.81095956  0.59712995  1
  Rh  Rh244  1  0.61316743  0.79301415  0.40352511  1
  Rh  Rh245  1  0.80360582  0.80769644  0.19919147  1
  Rh  Rh246  1  0.20671124  0.19601695  -0.00404595  1
  Rh  Rh247  1  -0.00694439  0.81049229  0.00143437  1
  Rh  Rh248  1  0.19544204  0.39148660  0.40105490  1
  Rh  Rh249  1  0.61037044  -0.01031140  0.61195343  1
