# generated using pymatgen
data_ZrScNbPdRh
_symmetry_space_group_name_H-M   'P 1'
_cell_length_a   16.55867815
_cell_length_b   16.55990994
_cell_length_c   16.55585049
_cell_angle_alpha   90.02330283
_cell_angle_beta   89.94930981
_cell_angle_gamma   90.00553794
_symmetry_Int_Tables_number   1
_chemical_formula_structural   ZrScNbPdRh
_chemical_formula_sum   'Zr50 Sc50 Nb50 Pd50 Rh50'
_cell_volume   4539.78121198
_cell_formula_units_Z   50
loop_
 _symmetry_equiv_pos_site_id
 _symmetry_equiv_pos_as_xyz
  1  'x, y, z'
loop_
 _atom_site_type_symbol
 _atom_site_label
 _atom_site_symmetry_multiplicity
 _atom_site_fract_x
 _atom_site_fract_y
 _atom_site_fract_z
 _atom_site_occupancy
  Zr  Zr0  1  0.30269374  0.48889998  0.30414146  1
  Zr  Zr1  1  0.49079808  0.70018189  0.10127544  1
  Zr  Zr2  1  0.88719712  0.90027305  0.29610385  1
  Zr  Zr3  1  0.09364647  0.70480243  0.49700802  1
  Zr  Zr4  1  0.10402480  0.90191144  0.69980510  1
  Zr  Zr5  1  0.50230471  0.09498255  0.90785642  1
  Zr  Zr6  1  0.70035595  0.89716230  0.68868433  1
  Zr  Zr7  1  0.10154127  0.29893457  0.30124614  1
  Zr  Zr8  1  0.10051060  0.29354703  0.69115322  1
  Zr  Zr9  1  0.50433247  0.30574850  0.70491713  1
  Zr  Zr10  1  0.49961229  0.29435186  0.09580846  1
  Zr  Zr11  1  0.49846997  0.89899166  0.31559896  1
  Zr  Zr12  1  0.50316186  0.70893381  0.90266658  1
  Zr  Zr13  1  0.70886260  0.30543792  0.90536826  1
  Zr  Zr14  1  0.49813109  0.49989303  0.09879809  1
  Zr  Zr15  1  0.49604911  0.50192128  0.30263735  1
  Zr  Zr16  1  0.69344068  0.10176240  0.09643326  1
  Zr  Zr17  1  0.70182980  0.09443053  0.69757858  1
  Zr  Zr18  1  0.50141946  0.89952262  0.50663598  1
  Zr  Zr19  1  0.49897666  0.30210493  0.50384945  1
  Zr  Zr20  1  0.30648358  0.90153785  0.50576422  1
  Zr  Zr21  1  0.29939777  0.30644206  0.90792382  1
  Zr  Zr22  1  0.49798911  0.49938433  0.69518289  1
  Zr  Zr23  1  0.69031356  0.89019302  0.90642712  1
  Zr  Zr24  1  0.90465532  0.70897889  0.69402809  1
  Zr  Zr25  1  0.49203422  0.30311372  0.30158774  1
  Zr  Zr26  1  0.90661562  0.30108366  0.30077530  1
  Zr  Zr27  1  0.29569095  0.50399263  0.50588858  1
  Zr  Zr28  1  0.29812748  0.89828676  0.69603074  1
  Zr  Zr29  1  0.69833168  0.29585732  0.30266289  1
  Zr  Zr30  1  0.50147353  0.30425141  0.89612106  1
  Zr  Zr31  1  0.09753057  0.09496056  0.89701484  1
  Zr  Zr32  1  0.71038985  0.70658346  0.29813546  1
  Zr  Zr33  1  0.49573303  0.69519970  0.50250975  1
  Zr  Zr34  1  0.70320234  0.70357302  0.70331222  1
  Zr  Zr35  1  0.09947381  0.89842843  0.89554728  1
  Zr  Zr36  1  0.09233555  0.09628006  0.09557118  1
  Zr  Zr37  1  0.09346652  0.10885170  0.29878670  1
  Zr  Zr38  1  0.69936298  0.49844193  0.09660913  1
  Zr  Zr39  1  0.69380557  0.49841521  0.90057062  1
  Zr  Zr40  1  0.29840807  0.29631864  0.30028862  1
  Zr  Zr41  1  0.70365499  0.69969917  0.10264948  1
  Zr  Zr42  1  0.29413631  0.09765960  0.09360713  1
  Zr  Zr43  1  0.90303061  0.50000518  0.69373406  1
  Zr  Zr44  1  0.09846701  0.29439050  0.49592666  1
  Zr  Zr45  1  0.30274740  0.89492482  0.30021866  1
  Zr  Zr46  1  0.10189024  0.70831453  0.70219001  1
  Zr  Zr47  1  0.10124407  0.70150669  0.30384669  1
  Zr  Zr48  1  0.10305892  0.50571272  0.69382631  1
  Zr  Zr49  1  0.10520759  0.50509799  0.90617840  1
  Sc  Sc50  1  0.89474990  0.50121380  0.89628055  1
  Sc  Sc51  1  0.09263013  0.29124040  0.10301033  1
  Sc  Sc52  1  0.71089960  0.29738902  0.49941709  1
  Sc  Sc53  1  0.30493171  0.50105888  0.08980471  1
  Sc  Sc54  1  0.10068723  0.50288018  0.09352706  1
  Sc  Sc55  1  0.29525603  0.09773441  0.69938384  1
  Sc  Sc56  1  0.09737921  0.89633805  0.30452563  1
  Sc  Sc57  1  0.29728227  0.70174648  0.50585897  1
  Sc  Sc58  1  0.69548044  0.49984082  0.70499519  1
  Sc  Sc59  1  0.09253344  0.49978965  0.30266748  1
  Sc  Sc60  1  0.90222841  0.09676758  0.09798735  1
  Sc  Sc61  1  0.30675975  0.09842308  0.50388459  1
  Sc  Sc62  1  0.90579370  0.50583878  0.10182284  1
  Sc  Sc63  1  0.90169890  0.89370397  0.49829643  1
  Sc  Sc64  1  0.89874151  0.90089928  0.09523160  1
  Sc  Sc65  1  0.49286330  0.10149659  0.70366568  1
  Sc  Sc66  1  0.29856566  0.69842890  0.90518011  1
  Sc  Sc67  1  0.30598766  0.29487206  0.70192159  1
  Sc  Sc68  1  0.90227660  0.09612864  0.90488475  1
  Sc  Sc69  1  0.09726288  0.69752268  0.09090016  1
  Sc  Sc70  1  0.70148746  0.49892373  0.50219404  1
  Sc  Sc71  1  0.10651732  0.29230630  0.90107029  1
  Sc  Sc72  1  0.71115362  0.89865990  0.10009243  1
  Sc  Sc73  1  0.69635302  0.70120677  0.89304950  1
  Sc  Sc74  1  0.70454047  0.09500896  0.49871917  1
  Sc  Sc75  1  0.28960617  0.10424619  0.89622382  1
  Sc  Sc76  1  0.49856565  0.50444855  0.89823022  1
  Sc  Sc77  1  0.49876844  0.69759565  0.30681823  1
  Sc  Sc78  1  0.29835691  0.30504383  0.49344305  1
  Sc  Sc79  1  0.50197437  0.89036366  0.08944842  1
  Sc  Sc80  1  0.30191588  0.50420572  0.90523568  1
  Sc  Sc81  1  0.90404722  0.70478603  0.89948800  1
  Sc  Sc82  1  0.50310354  0.10168722  0.31051797  1
  Sc  Sc83  1  0.50208454  0.69514922  0.69984394  1
  Sc  Sc84  1  0.90140659  0.89860292  0.70184074  1
  Sc  Sc85  1  0.89911234  0.30483306  0.50148897  1
  Sc  Sc86  1  0.70263240  0.51042451  0.29544481  1
  Sc  Sc87  1  0.70165277  0.09791412  0.90131584  1
  Sc  Sc88  1  0.70572267  0.09585190  0.30756466  1
  Sc  Sc89  1  0.89346210  0.09306311  0.70405738  1
  Sc  Sc90  1  0.30415526  0.70737883  0.30118332  1
  Sc  Sc91  1  0.90511735  0.90003333  0.90189378  1
  Sc  Sc92  1  0.09761397  0.70122252  0.90019851  1
  Sc  Sc93  1  0.50345264  0.09163930  0.50308715  1
  Sc  Sc94  1  0.10266160  0.89434972  0.09393329  1
  Sc  Sc95  1  0.89794763  0.10247613  0.48920690  1
  Sc  Sc96  1  0.89956652  0.70136593  0.09811012  1
  Sc  Sc97  1  0.69650780  0.71208389  0.50226151  1
  Sc  Sc98  1  0.29833740  0.69814808  0.69721700  1
  Sc  Sc99  1  0.89864558  0.09406547  0.29652003  1
  Nb  Nb100  1  0.29891011  0.71139799  0.10768707  1
  Nb  Nb101  1  0.09800486  0.10043597  0.50169001  1
  Nb  Nb102  1  0.10175907  0.50004241  0.50007333  1
  Nb  Nb103  1  0.70287569  0.30345826  0.09715618  1
  Nb  Nb104  1  0.29789987  0.90088567  0.90335738  1
  Nb  Nb105  1  0.09911878  0.10235574  0.69709915  1
  Nb  Nb106  1  0.69785097  0.90031446  0.30154093  1
  Nb  Nb107  1  0.89855794  0.29866419  0.90150447  1
  Nb  Nb108  1  0.90301307  0.50394869  0.49830138  1
  Nb  Nb109  1  0.49658181  0.90379089  0.70026623  1
  Nb  Nb110  1  0.90555950  0.70212008  0.49714816  1
  Nb  Nb111  1  0.29590023  0.50436607  0.69934472  1
  Nb  Nb112  1  0.30062451  0.89161126  0.10331918  1
  Nb  Nb113  1  0.30128797  0.30611705  0.09915331  1
  Nb  Nb114  1  0.10487004  0.90403565  0.50275350  1
  Nb  Nb115  1  0.69172067  0.90407548  0.49380700  1
  Nb  Nb116  1  0.50051445  0.50100864  0.50169126  1
  Nb  Nb117  1  0.90015138  0.50461218  0.30039792  1
  Nb  Nb118  1  0.49850178  0.89701532  0.89937783  1
  Nb  Nb119  1  0.89561112  0.30011216  0.70480089  1
  Nb  Nb120  1  0.90518935  0.69937262  0.30375596  1
  Nb  Nb121  1  0.89396439  0.29671308  0.08975704  1
  Nb  Nb122  1  0.49934636  0.09470801  0.10038843  1
  Nb  Nb123  1  0.70304907  0.29461358  0.70546846  1
  Nb  Nb124  1  0.29832774  0.09520205  0.29634617  1
  Nb  Nb125  1  0.60302631  0.39583046  0.20045985  1
  Nb  Nb126  1  -0.00399509  0.79680453  0.20560141  1
  Nb  Nb127  1  0.59581716  0.40346756  0.39809692  1
  Nb  Nb128  1  0.80211858  0.39678783  0.19774875  1
  Nb  Nb129  1  0.79764741  0.20702707  0.19265498  1
  Nb  Nb130  1  0.20453199  0.59937388  0.19926513  1
  Nb  Nb131  1  -0.00436096  0.39351334  -0.00739986  1
  Nb  Nb132  1  0.40165113  -0.00025718  0.19582430  1
  Nb  Nb133  1  0.19792768  0.00433913  0.40023055  1
  Nb  Nb134  1  0.39727141  0.19283715  0.19570630  1
  Nb  Nb135  1  0.60626254  0.20359433  0.60841448  1
  Nb  Nb136  1  0.00852183  0.00433169  0.59682847  1
  Nb  Nb137  1  0.19783086  0.40387286  0.79562730  1
  Nb  Nb138  1  0.81223818  0.60373037  0.40359250  1
  Nb  Nb139  1  0.20312418  0.39997484  0.19641019  1
  Nb  Nb140  1  0.20374496  -0.00190616  0.20274440  1
  Nb  Nb141  1  0.79607214  0.59923987  -0.00105680  1
  Nb  Nb142  1  0.60229371  0.80486736  0.20550479  1
  Nb  Nb143  1  0.59568801  -0.00954751  0.79917771  1
  Nb  Nb144  1  0.40113336  0.80917075  0.80196222  1
  Nb  Nb145  1  0.80877435  0.60536303  0.59429021  1
  Nb  Nb146  1  0.59616726  -0.00448184  0.20024220  1
  Nb  Nb147  1  -0.00358630  0.20452502  0.79575948  1
  Nb  Nb148  1  0.00180482  0.39414643  0.79895868  1
  Nb  Nb149  1  0.39535401  -0.00721056  0.00100317  1
  Pd  Pd150  1  0.59696968  0.60392141  0.20363994  1
  Pd  Pd151  1  0.20041727  0.00085323  0.79826380  1
  Pd  Pd152  1  0.39819340  -0.00103385  0.80550666  1
  Pd  Pd153  1  0.19501367  0.20326841  0.00485268  1
  Pd  Pd154  1  0.79958310  -0.00040923  -0.00206899  1
  Pd  Pd155  1  0.20524490  0.39487381  0.60293408  1
  Pd  Pd156  1  0.38986244  0.60163496  0.40380019  1
  Pd  Pd157  1  0.20973318  0.19894894  0.59478697  1
  Pd  Pd158  1  0.60386339  0.20517079  -0.00701269  1
  Pd  Pd159  1  0.00681591  0.60648494  0.19878635  1
  Pd  Pd160  1  0.61066969  0.60114889  0.59889122  1
  Pd  Pd161  1  0.38958570  0.60111358  0.20051603  1
  Pd  Pd162  1  0.79565514  0.40918295  0.39274081  1
  Pd  Pd163  1  0.80428144  0.19374693  0.80600449  1
  Pd  Pd164  1  -0.00174829  0.59861951  0.80345336  1
  Pd  Pd165  1  0.39978522  0.60777357  0.79942572  1
  Pd  Pd166  1  0.59873197  0.19600208  0.20234486  1
  Pd  Pd167  1  0.20618454  0.19150717  0.40677682  1
  Pd  Pd168  1  0.00237696  0.60404355  0.59644010  1
  Pd  Pd169  1  0.80138421  0.40333111  0.79604727  1
  Pd  Pd170  1  0.79180283  -0.01040898  0.80792095  1
  Pd  Pd171  1  0.39776764  0.19305162  0.39927550  1
  Pd  Pd172  1  0.60257666  0.20206155  0.41452769  1
  Pd  Pd173  1  0.00168552  -0.00365698  0.40291868  1
  Pd  Pd174  1  0.00097645  0.39930343  0.18927484  1
  Pd  Pd175  1  0.00282442  0.40351544  0.40543363  1
  Pd  Pd176  1  0.19806539  0.79601976  -0.00422266  1
  Pd  Pd177  1  0.40573035  0.19829494  0.60054977  1
  Pd  Pd178  1  0.80456274  0.80666864  0.80504399  1
  Pd  Pd179  1  0.79528106  0.40563008  0.60394527  1
  Pd  Pd180  1  -0.01484933  0.19117713  0.60249744  1
  Pd  Pd181  1  0.20350558  0.59995382  0.80220952  1
  Pd  Pd182  1  0.00682208  -0.01208225  0.19783358  1
  Pd  Pd183  1  0.39634598  0.19662047  0.80547030  1
  Pd  Pd184  1  0.39035072  0.40745899  0.80078394  1
  Pd  Pd185  1  0.80318969  0.60219945  0.79853867  1
  Pd  Pd186  1  0.60133960  0.60755083  -0.00251743  1
  Pd  Pd187  1  0.00061324  0.39760380  0.59825031  1
  Pd  Pd188  1  0.61106506  0.59957495  0.40376866  1
  Pd  Pd189  1  0.59343146  0.79752753  0.60279529  1
  Pd  Pd190  1  0.81167014  -0.00544549  0.59039744  1
  Pd  Pd191  1  0.79959930  0.80030596  0.40766824  1
  Pd  Pd192  1  0.20300424  0.20062996  0.19232890  1
  Pd  Pd193  1  0.20408891  0.80624951  0.40602537  1
  Pd  Pd194  1  0.60341352  0.19252654  0.80008009  1
  Pd  Pd195  1  0.61158377  0.39291344  0.59582263  1
  Pd  Pd196  1  0.39190683  0.40124864  0.59984486  1
  Pd  Pd197  1  0.20261810  0.59819968  0.39458390  1
  Pd  Pd198  1  0.80184044  0.19770338  0.59914579  1
  Pd  Pd199  1  0.39692014  0.19416296  -0.00093405  1
  Rh  Rh200  1  0.18732966  0.79528006  0.19744420  1
  Rh  Rh201  1  0.59407915  0.59823135  0.79825872  1
  Rh  Rh202  1  0.20970136  0.60937769  0.01078026  1
  Rh  Rh203  1  0.19087660  0.40430390  0.39674414  1
  Rh  Rh204  1  0.39327274  0.00333949  0.39906773  1
  Rh  Rh205  1  -0.00165830  0.20089097  -0.00892596  1
  Rh  Rh206  1  -0.01003802  0.59413295  -0.00810966  1
  Rh  Rh207  1  0.19748545  0.79613703  0.59663450  1
  Rh  Rh208  1  0.19087479  0.39603212  0.00274557  1
  Rh  Rh209  1  -0.01303067  0.19925044  0.19908470  1
  Rh  Rh210  1  0.00435510  0.81129294  0.59817682  1
  Rh  Rh211  1  0.60360431  0.00193768  0.39763463  1
  Rh  Rh212  1  0.60362325  0.40061650  0.80113544  1
  Rh  Rh213  1  0.78906108  0.01068290  0.19647281  1
  Rh  Rh214  1  0.20176035  -0.00693113  0.00430007  1
  Rh  Rh215  1  0.40516012  0.40465775  0.41313963  1
  Rh  Rh216  1  0.39810870  0.60725329  0.00177089  1
  Rh  Rh217  1  0.59686110  -0.00707127  0.00134548  1
  Rh  Rh218  1  0.59677086  0.00669587  0.60641550  1
  Rh  Rh219  1  -0.00039195  0.59309845  0.40239905  1
  Rh  Rh220  1  0.59251943  0.39655402  0.00120897  1
  Rh  Rh221  1  -0.00484629  0.20101783  0.40053286  1
  Rh  Rh222  1  0.39183133  0.80082938  -0.00643578  1
  Rh  Rh223  1  0.40246820  0.00369659  0.60331593  1
  Rh  Rh224  1  0.00067555  0.80243819  0.80022526  1
  Rh  Rh225  1  0.59902416  0.79569565  0.39755538  1
  Rh  Rh226  1  -0.00191831  0.80789015  0.39535211  1
  Rh  Rh227  1  0.60505900  0.79505175  0.01108325  1
  Rh  Rh228  1  0.39765240  0.59744066  0.60252294  1
  Rh  Rh229  1  0.00282771  -0.00511014  -0.00114070  1
  Rh  Rh230  1  0.00168126  0.00700126  0.79152960  1
  Rh  Rh231  1  0.20945156  0.79799102  0.80355874  1
  Rh  Rh232  1  0.81049850  0.41237871  0.00523514  1
  Rh  Rh233  1  0.80073050  0.79105410  -0.00459502  1
  Rh  Rh234  1  0.40640181  0.40238388  -0.00361931  1
  Rh  Rh235  1  0.19559022  0.20615818  0.79490574  1
  Rh  Rh236  1  0.41323877  0.80601225  0.20457363  1
  Rh  Rh237  1  0.19649650  0.00654164  0.59404015  1
  Rh  Rh238  1  -0.00129990  0.80143994  0.00572450  1
  Rh  Rh239  1  0.80035725  0.80012622  0.59322895  1
  Rh  Rh240  1  0.19427540  0.60717279  0.59732354  1
  Rh  Rh241  1  0.79883280  -0.00681014  0.40435207  1
  Rh  Rh242  1  0.80413994  0.80042845  0.19735360  1
  Rh  Rh243  1  0.40001331  0.79367073  0.41038818  1
  Rh  Rh244  1  0.40378375  0.79506827  0.60872327  1
  Rh  Rh245  1  0.59271328  0.80400735  0.78990439  1
  Rh  Rh246  1  0.79906365  0.19231372  0.00099851  1
  Rh  Rh247  1  0.80684312  0.19949433  0.39098481  1
  Rh  Rh248  1  0.80947478  0.59605296  0.20045543  1
  Rh  Rh249  1  0.39993387  0.39401087  0.19154886  1
