# generated using pymatgen
data_ZrScNbPdRh
_symmetry_space_group_name_H-M   'P 1'
_cell_length_a   16.55638754
_cell_length_b   16.55361611
_cell_length_c   16.55482222
_cell_angle_alpha   90.03666116
_cell_angle_beta   89.98811223
_cell_angle_gamma   89.95962342
_symmetry_Int_Tables_number   1
_chemical_formula_structural   ZrScNbPdRh
_chemical_formula_sum   'Zr50 Sc50 Nb50 Pd50 Rh50'
_cell_volume   4537.14624682
_cell_formula_units_Z   50
loop_
 _symmetry_equiv_pos_site_id
 _symmetry_equiv_pos_as_xyz
  1  'x, y, z'
loop_
 _atom_site_type_symbol
 _atom_site_label
 _atom_site_symmetry_multiplicity
 _atom_site_fract_x
 _atom_site_fract_y
 _atom_site_fract_z
 _atom_site_occupancy
  Zr  Zr0  1  0.69885062  0.70293795  0.90615506  1
  Zr  Zr1  1  0.08400379  0.69852005  0.49775617  1
  Zr  Zr2  1  0.69893258  0.30234834  0.90161813  1
  Zr  Zr3  1  0.69911053  0.70142603  0.10425746  1
  Zr  Zr4  1  0.09857229  0.89788193  0.49988874  1
  Zr  Zr5  1  0.30281819  0.70395587  0.90587529  1
  Zr  Zr6  1  0.10297963  0.90407523  0.09765192  1
  Zr  Zr7  1  0.69920457  0.29660603  0.50550803  1
  Zr  Zr8  1  0.69986211  0.29665977  0.29491876  1
  Zr  Zr9  1  0.70253665  0.10153001  0.89948500  1
  Zr  Zr10  1  0.49937199  0.69924978  0.69427046  1
  Zr  Zr11  1  0.30790883  0.90593669  0.69370892  1
  Zr  Zr12  1  0.10190260  0.89855226  0.30126954  1
  Zr  Zr13  1  0.70427687  0.30202889  0.09950771  1
  Zr  Zr14  1  0.69944169  0.10545774  0.10171816  1
  Zr  Zr15  1  0.50532014  0.90979840  0.70050644  1
  Zr  Zr16  1  0.70098411  0.10208196  0.30471345  1
  Zr  Zr17  1  0.70325321  0.29674632  0.70117732  1
  Zr  Zr18  1  0.70158981  0.90473829  0.69566980  1
  Zr  Zr19  1  0.50112041  0.69687286  0.29798726  1
  Zr  Zr20  1  0.10583694  0.70529919  0.89593647  1
  Zr  Zr21  1  0.49349322  0.30057895  0.09327270  1
  Zr  Zr22  1  0.10384610  0.48808267  0.09320985  1
  Zr  Zr23  1  0.90009650  0.90284277  0.69795705  1
  Zr  Zr24  1  0.89883772  0.49207180  0.10669861  1
  Zr  Zr25  1  0.69375908  0.09956030  0.69750538  1
  Zr  Zr26  1  0.69697453  0.49892806  0.09577364  1
  Zr  Zr27  1  0.50110685  0.50216982  0.90450384  1
  Zr  Zr28  1  0.30228800  0.90700479  0.48888304  1
  Zr  Zr29  1  0.10464815  0.49794882  0.70644085  1
  Zr  Zr30  1  0.09415730  0.70560663  0.69904740  1
  Zr  Zr31  1  0.09577307  0.89517296  0.70086976  1
  Zr  Zr32  1  0.90156748  0.51595062  0.49466992  1
  Zr  Zr33  1  0.30232896  0.49406706  0.70053824  1
  Zr  Zr34  1  0.89562618  0.89950748  0.50411975  1
  Zr  Zr35  1  0.90410391  0.30218544  0.49320002  1
  Zr  Zr36  1  0.89600161  0.90054933  0.29447982  1
  Zr  Zr37  1  0.50496915  0.90377903  0.91018217  1
  Zr  Zr38  1  0.89415203  0.89897915  0.90039883  1
  Zr  Zr39  1  0.30553229  0.09920432  0.49898141  1
  Zr  Zr40  1  0.29435387  0.29936118  0.09839550  1
  Zr  Zr41  1  0.29795766  0.49623247  0.10260065  1
  Zr  Zr42  1  0.30331347  0.09675502  0.30494486  1
  Zr  Zr43  1  0.30256292  0.29502959  0.30292714  1
  Zr  Zr44  1  0.49766031  0.50467305  0.10537877  1
  Zr  Zr45  1  0.89345066  0.69698369  0.89453638  1
  Zr  Zr46  1  0.50111575  0.09198380  0.09932512  1
  Zr  Zr47  1  0.69750159  0.90137744  0.89808102  1
  Zr  Zr48  1  0.50276774  0.30324918  0.89319169  1
  Zr  Zr49  1  0.91223569  0.09855237  0.30362259  1
  Sc  Sc50  1  0.69752647  0.68749806  0.50285523  1
  Sc  Sc51  1  0.11113716  0.90313608  0.89921742  1
  Sc  Sc52  1  0.90201413  0.29858271  0.09381535  1
  Sc  Sc53  1  0.50044070  0.70849082  0.49372256  1
  Sc  Sc54  1  0.30026262  0.10935044  0.09907728  1
  Sc  Sc55  1  0.89084942  0.49063044  0.90115884  1
  Sc  Sc56  1  0.09055656  0.29974927  0.30722172  1
  Sc  Sc57  1  0.29353048  0.48254208  0.50163905  1
  Sc  Sc58  1  0.69722342  0.09627628  0.50271745  1
  Sc  Sc59  1  0.89887750  0.29358293  0.89103923  1
  Sc  Sc60  1  0.50274199  0.10082052  0.49947665  1
  Sc  Sc61  1  0.89588640  0.70714312  0.10306924  1
  Sc  Sc62  1  0.08645212  0.09369694  0.48860260  1
  Sc  Sc63  1  0.09943185  0.30474026  0.71291526  1
  Sc  Sc64  1  0.69236997  0.51333197  0.30107476  1
  Sc  Sc65  1  0.10737378  0.70009774  0.10708959  1
  Sc  Sc66  1  0.10202281  0.30239699  0.90309751  1
  Sc  Sc67  1  0.70485278  0.49998903  0.90093358  1
  Sc  Sc68  1  0.29335492  0.49831546  0.89470021  1
  Sc  Sc69  1  0.70111906  0.90390764  0.30186052  1
  Sc  Sc70  1  0.49719464  0.49101033  0.70301825  1
  Sc  Sc71  1  0.70749554  0.69671543  0.69835236  1
  Sc  Sc72  1  0.70187533  0.90817520  0.49944131  1
  Sc  Sc73  1  0.89618889  0.09225108  0.49955844  1
  Sc  Sc74  1  0.10047138  0.09988114  0.91056029  1
  Sc  Sc75  1  0.70662112  0.90214826  0.09711523  1
  Sc  Sc76  1  0.29925256  0.70559720  0.70057582  1
  Sc  Sc77  1  0.89898674  0.90135515  0.10296621  1
  Sc  Sc78  1  0.30404889  0.29666610  0.90418610  1
  Sc  Sc79  1  0.70206772  0.50106082  0.69231536  1
  Sc  Sc80  1  0.50069817  0.10146018  0.30292904  1
  Sc  Sc81  1  0.30374170  0.89844219  0.09973763  1
  Sc  Sc82  1  0.29668169  0.70014716  0.10062599  1
  Sc  Sc83  1  0.89636040  0.70099877  0.69061628  1
  Sc  Sc84  1  0.29184606  0.49272685  0.29223539  1
  Sc  Sc85  1  0.29898181  0.70773280  0.29285830  1
  Sc  Sc86  1  0.90138124  0.30743091  0.29112003  1
  Sc  Sc87  1  0.31300486  0.30421238  0.70110882  1
  Sc  Sc88  1  0.50868776  0.50297609  0.51145824  1
  Sc  Sc89  1  0.30106156  0.30151168  0.50359663  1
  Sc  Sc90  1  0.91113603  0.69508398  0.30281043  1
  Sc  Sc91  1  0.50068166  0.29238565  0.50701242  1
  Sc  Sc92  1  0.30427131  0.71661363  0.50028718  1
  Sc  Sc93  1  0.49510444  0.89905487  0.49417066  1
  Sc  Sc94  1  0.09127936  0.49582031  0.29748989  1
  Sc  Sc95  1  0.30127300  0.09031552  0.90425058  1
  Sc  Sc96  1  0.08846584  0.09357123  0.71363711  1
  Sc  Sc97  1  0.50256713  0.10167888  0.90067660  1
  Sc  Sc98  1  0.49654824  0.69258242  0.09494000  1
  Sc  Sc99  1  0.91287760  0.09907667  0.09489360  1
  Nb  Nb100  1  0.89577961  0.49970959  0.29826563  1
  Nb  Nb101  1  0.10295307  0.70043078  0.30168276  1
  Nb  Nb102  1  0.49514935  0.10298529  0.69884323  1
  Nb  Nb103  1  0.09983880  0.30479432  0.49898603  1
  Nb  Nb104  1  0.10079708  0.49301006  0.49764157  1
  Nb  Nb105  1  0.10045745  0.50084292  0.89765809  1
  Nb  Nb106  1  0.89342287  0.70040309  0.49828278  1
  Nb  Nb107  1  0.90445433  0.10373375  0.88972514  1
  Nb  Nb108  1  0.89667018  0.49710773  0.70459970  1
  Nb  Nb109  1  0.70266031  0.49946055  0.49784748  1
  Nb  Nb110  1  0.10415716  0.28286731  0.08735361  1
  Nb  Nb111  1  0.89881446  0.11109786  0.71140340  1
  Nb  Nb112  1  0.50245079  0.29854628  0.30710992  1
  Nb  Nb113  1  0.49632505  0.50377914  0.29778064  1
  Nb  Nb114  1  0.30339042  0.90532117  0.29829440  1
  Nb  Nb115  1  0.90001587  0.29885223  0.69830767  1
  Nb  Nb116  1  0.48954889  0.89718217  0.29672603  1
  Nb  Nb117  1  0.30125531  0.89676450  0.90309341  1
  Nb  Nb118  1  0.50156892  0.70105762  0.89877334  1
  Nb  Nb119  1  0.50386552  0.29390168  0.70522586  1
  Nb  Nb120  1  0.10481652  0.10208424  0.10133901  1
  Nb  Nb121  1  0.50411352  0.90592184  0.11028800  1
  Nb  Nb122  1  0.69520545  0.70409810  0.30466426  1
  Nb  Nb123  1  0.30146291  0.09855318  0.69630201  1
  Nb  Nb124  1  0.09903761  0.09667524  0.29820695  1
  Nb  Nb125  1  0.40470442  0.80438059  0.80836336  1
  Nb  Nb126  1  0.41062991  0.40378506  0.39677596  1
  Nb  Nb127  1  0.59920829  0.40124980  0.39821713  1
  Nb  Nb128  1  0.19827529  0.00749828  0.60083625  1
  Nb  Nb129  1  0.39301078  0.59294231  0.40191025  1
  Nb  Nb130  1  0.19914057  0.59893483  0.59249176  1
  Nb  Nb131  1  -0.00176380  0.40101932  0.60113185  1
  Nb  Nb132  1  0.00233299  0.79562139  -0.00508128  1
  Nb  Nb133  1  0.00363816  0.59843076  -0.00462422  1
  Nb  Nb134  1  0.59753673  0.60494708  0.80342496  1
  Nb  Nb135  1  0.59247663  0.39995653  0.20608802  1
  Nb  Nb136  1  0.19375699  0.19774851  0.40613373  1
  Nb  Nb137  1  0.80144503  0.20482073  0.39753532  1
  Nb  Nb138  1  0.59457315  0.80388918  0.20398111  1
  Nb  Nb139  1  0.20651757  0.19287153  0.79296878  1
  Nb  Nb140  1  0.79891310  0.79157036  0.40066917  1
  Nb  Nb141  1  0.19728158  0.59963518  0.40479606  1
  Nb  Nb142  1  -0.00058757  0.59465612  0.80398830  1
  Nb  Nb143  1  0.60275004  0.80343778  0.59999329  1
  Nb  Nb144  1  0.19171331  0.19500635  0.60185899  1
  Nb  Nb145  1  0.00085809  0.20579469  0.60383574  1
  Nb  Nb146  1  0.39134117  0.59808257  0.59413007  1
  Nb  Nb147  1  0.79924364  0.60127884  0.20590788  1
  Nb  Nb148  1  0.79386212  0.40642557  0.39858798  1
  Nb  Nb149  1  0.19947180  0.00429271  0.20398421  1
  Pd  Pd150  1  0.21084056  0.80690090  0.79603666  1
  Pd  Pd151  1  -0.00541367  0.40161209  0.80259572  1
  Pd  Pd152  1  0.59619467  0.20006905  -0.00064072  1
  Pd  Pd153  1  0.59018419  0.20419014  0.19554784  1
  Pd  Pd154  1  0.39525753  0.19536228  0.80507468  1
  Pd  Pd155  1  0.80345985  0.00723696  0.00200832  1
  Pd  Pd156  1  0.20313622  0.79372317  0.39711927  1
  Pd  Pd157  1  0.81402066  0.19302762  0.20244468  1
  Pd  Pd158  1  0.59709212  0.39560695  0.60005935  1
  Pd  Pd159  1  0.80730803  0.19227724  0.59431831  1
  Pd  Pd160  1  0.19417360  0.39325189  0.60771336  1
  Pd  Pd161  1  0.80915153  0.19813173  -0.00275738  1
  Pd  Pd162  1  0.40296269  0.79641031  0.19243262  1
  Pd  Pd163  1  0.00076016  -0.00551631  0.81040570  1
  Pd  Pd164  1  0.79913548  0.79896274  0.79391989  1
  Pd  Pd165  1  -0.00277411  0.39814545  -0.00566321  1
  Pd  Pd166  1  0.80753135  0.40700240  0.59490260  1
  Pd  Pd167  1  0.80795821  0.59866514  0.00861374  1
  Pd  Pd168  1  0.39399770  0.40583630  -0.00579144  1
  Pd  Pd169  1  0.39285204  0.59527770  0.00017294  1
  Pd  Pd170  1  0.20015249  0.80274326  0.59648080  1
  Pd  Pd171  1  -0.00054755  -0.00541814  -0.00531616  1
  Pd  Pd172  1  0.20144089  0.00252864  0.79658571  1
  Pd  Pd173  1  -0.00878322  0.80388803  0.39751900  1
  Pd  Pd174  1  0.19860119  0.59889330  0.20766170  1
  Pd  Pd175  1  0.60490817  -0.00403602  0.20620363  1
  Pd  Pd176  1  -0.00158089  0.60142759  0.19339169  1
  Pd  Pd177  1  0.19376830  0.20020803  0.20959153  1
  Pd  Pd178  1  0.00070847  0.00964244  0.60278443  1
  Pd  Pd179  1  0.20071749  0.60502144  0.79382624  1
  Pd  Pd180  1  0.59639608  0.80177943  0.01317315  1
  Pd  Pd181  1  0.39937109  0.20222287  0.59999551  1
  Pd  Pd182  1  0.00925707  0.38891606  0.19210782  1
  Pd  Pd183  1  0.59430896  -0.00469140  0.39796200  1
  Pd  Pd184  1  0.60753088  0.40982535  0.79697031  1
  Pd  Pd185  1  0.39635223  -0.00041419  0.00628492  1
  Pd  Pd186  1  0.00371292  0.79710545  0.19426232  1
  Pd  Pd187  1  0.19738533  0.59920350  0.00107917  1
  Pd  Pd188  1  0.59842139  0.79495942  0.79306267  1
  Pd  Pd189  1  0.80223774  0.00924225  0.19653676  1
  Pd  Pd190  1  0.40272700  0.60495585  0.79498462  1
  Pd  Pd191  1  0.00195932  0.20529307  0.19647898  1
  Pd  Pd192  1  0.40288283  0.39582675  0.20482569  1
  Pd  Pd193  1  0.40551923  0.80262512  0.00462268  1
  Pd  Pd194  1  0.40643140  0.19568432  0.19984357  1
  Pd  Pd195  1  0.80002416  0.00391045  0.79611545  1
  Pd  Pd196  1  0.00170136  0.59238989  0.60935406  1
  Pd  Pd197  1  0.18741577  0.38584968  0.20287034  1
  Pd  Pd198  1  0.40405771  -0.00153887  0.80644585  1
  Pd  Pd199  1  0.59145022  0.59764233  0.40631867  1
  Rh  Rh200  1  0.20108347  0.80897778  0.20111130  1
  Rh  Rh201  1  0.60073393  0.60005851  -0.00690335  1
  Rh  Rh202  1  0.80526942  0.80306133  0.00087646  1
  Rh  Rh203  1  0.40259372  0.19640696  -0.00275522  1
  Rh  Rh204  1  -0.00737874  0.80070996  0.59880040  1
  Rh  Rh205  1  0.59443390  0.19676056  0.60552994  1
  Rh  Rh206  1  0.80175639  0.00143538  0.39694804  1
  Rh  Rh207  1  0.20745791  0.00128812  0.01047109  1
  Rh  Rh208  1  0.41061340  0.40106143  0.59612825  1
  Rh  Rh209  1  0.39593537  0.20625607  0.40600295  1
  Rh  Rh210  1  0.78564385  0.41387095  0.20826227  1
  Rh  Rh211  1  0.59605106  0.60473498  0.60440153  1
  Rh  Rh212  1  0.40253020  0.00096549  0.59389229  1
  Rh  Rh213  1  0.40161338  0.39732239  0.80391404  1
  Rh  Rh214  1  0.80519761  0.00812610  0.60814077  1
  Rh  Rh215  1  0.20201231  0.39611561  -0.00455724  1
  Rh  Rh216  1  0.20877690  0.38826918  0.80530246  1
  Rh  Rh217  1  0.00760360  -0.00033605  0.19851619  1
  Rh  Rh218  1  0.20499762  0.39565575  0.39320291  1
  Rh  Rh219  1  0.59756799  0.40013214  0.00556835  1
  Rh  Rh220  1  -0.00417193  -0.01141141  0.39652062  1
  Rh  Rh221  1  0.59304749  -0.00143342  0.59457199  1
  Rh  Rh222  1  0.80134692  0.59668477  0.60134882  1
  Rh  Rh223  1  0.39674459  0.79682423  0.39033167  1
  Rh  Rh224  1  0.79175810  0.79341474  0.21094806  1
  Rh  Rh225  1  -0.00826643  0.79630789  0.80459408  1
  Rh  Rh226  1  -0.00796745  0.40893709  0.40275599  1
  Rh  Rh227  1  0.38914861  0.60218667  0.20442724  1
  Rh  Rh228  1  -0.00092295  0.19975012  0.40268748  1
  Rh  Rh229  1  0.00893216  0.20313031  0.80110933  1
  Rh  Rh230  1  0.79441561  0.20173942  0.80147728  1
  Rh  Rh231  1  0.39322395  0.00444711  0.19979888  1
  Rh  Rh232  1  0.59801999  0.00945197  0.80309118  1
  Rh  Rh233  1  0.19682272  0.00508305  0.39878022  1
  Rh  Rh234  1  0.80250515  0.39166310  -0.00358695  1
  Rh  Rh235  1  0.20363014  0.19636990  -0.00997680  1
  Rh  Rh236  1  0.60405309  0.60314547  0.19688092  1
  Rh  Rh237  1  0.60716643  0.80657899  0.40027079  1
  Rh  Rh238  1  0.79861942  0.59560370  0.79503183  1
  Rh  Rh239  1  0.00839245  0.59591556  0.39227312  1
  Rh  Rh240  1  0.60722411  0.00144106  0.00330022  1
  Rh  Rh241  1  -0.00068675  0.19877874  -0.00699401  1
  Rh  Rh242  1  0.79040224  0.79761480  0.58833731  1
  Rh  Rh243  1  0.41028270  0.00115597  0.39726789  1
  Rh  Rh244  1  0.40953494  0.80243599  0.60542969  1
  Rh  Rh245  1  0.79914604  0.60357285  0.39233321  1
  Rh  Rh246  1  0.60785613  0.20153832  0.40513410  1
  Rh  Rh247  1  0.59926412  0.19645263  0.79757808  1
  Rh  Rh248  1  0.79548766  0.39627464  0.79736785  1
  Rh  Rh249  1  0.19666303  0.80210367  0.00407050  1
