# generated using pymatgen
data_ZrScNbPdRh
_symmetry_space_group_name_H-M   'P 1'
_cell_length_a   16.55833328
_cell_length_b   16.55473043
_cell_length_c   16.55511322
_cell_angle_alpha   90.01675607
_cell_angle_beta   89.97673097
_cell_angle_gamma   90.02548062
_symmetry_Int_Tables_number   1
_chemical_formula_structural   ZrScNbPdRh
_chemical_formula_sum   'Zr50 Sc50 Nb50 Pd50 Rh50'
_cell_volume   4538.06582334
_cell_formula_units_Z   50
loop_
 _symmetry_equiv_pos_site_id
 _symmetry_equiv_pos_as_xyz
  1  'x, y, z'
loop_
 _atom_site_type_symbol
 _atom_site_label
 _atom_site_symmetry_multiplicity
 _atom_site_fract_x
 _atom_site_fract_y
 _atom_site_fract_z
 _atom_site_occupancy
  Zr  Zr0  1  0.30134119  0.90095061  0.10279103  1
  Zr  Zr1  1  0.69604068  0.29393354  0.09174893  1
  Zr  Zr2  1  0.69791969  0.10365104  0.48613535  1
  Zr  Zr3  1  0.90133516  0.89764212  0.70085324  1
  Zr  Zr4  1  0.70569779  0.08964985  0.10001910  1
  Zr  Zr5  1  0.68908127  0.49589879  0.10907245  1
  Zr  Zr6  1  0.29182354  0.89996954  0.90220386  1
  Zr  Zr7  1  0.09767892  0.69497337  0.10520245  1
  Zr  Zr8  1  0.49379310  0.50266142  0.90834397  1
  Zr  Zr9  1  0.69536045  0.50449374  0.89018926  1
  Zr  Zr10  1  0.29664853  0.29741915  0.69984420  1
  Zr  Zr11  1  0.70537448  0.89307973  0.90417272  1
  Zr  Zr12  1  0.69798858  0.09924184  0.69560811  1
  Zr  Zr13  1  0.29201909  0.70122216  0.29886930  1
  Zr  Zr14  1  0.90741879  0.10242687  0.70770810  1
  Zr  Zr15  1  0.49469878  0.90628125  0.70068497  1
  Zr  Zr16  1  0.09517304  0.09713304  0.29797313  1
  Zr  Zr17  1  0.10595732  0.30114735  0.29765512  1
  Zr  Zr18  1  0.10292608  0.88908525  0.70159178  1
  Zr  Zr19  1  0.70589643  0.90431343  0.49798576  1
  Zr  Zr20  1  0.10806129  0.30063609  0.50599394  1
  Zr  Zr21  1  0.09979582  0.30616363  0.89954895  1
  Zr  Zr22  1  0.89914178  0.09978852  0.09545475  1
  Zr  Zr23  1  0.10509154  0.09778345  0.49928306  1
  Zr  Zr24  1  0.90408711  0.90589009  0.49826234  1
  Zr  Zr25  1  0.29271114  0.29686399  0.49943563  1
  Zr  Zr26  1  0.30071816  0.09416031  0.69938505  1
  Zr  Zr27  1  0.49568478  0.89944053  0.49617298  1
  Zr  Zr28  1  0.50397104  0.49412093  0.29322786  1
  Zr  Zr29  1  0.50951060  0.09328911  0.30265417  1
  Zr  Zr30  1  0.09980294  0.49190131  0.50913969  1
  Zr  Zr31  1  0.10450606  0.50650986  0.30118627  1
  Zr  Zr32  1  0.90456351  0.49187973  0.90385465  1
  Zr  Zr33  1  0.89585908  0.70382067  0.49416968  1
  Zr  Zr34  1  0.89348132  0.69638284  0.11903259  1
  Zr  Zr35  1  0.49680851  0.70105134  0.30316006  1
  Zr  Zr36  1  0.49552760  0.70513341  0.70630570  1
  Zr  Zr37  1  0.49932693  0.30217286  0.50141430  1
  Zr  Zr38  1  0.49633370  0.69899066  0.49555496  1
  Zr  Zr39  1  0.90494208  0.69782744  0.29913327  1
  Zr  Zr40  1  0.50166386  0.50502371  0.71023421  1
  Zr  Zr41  1  0.69604008  0.30359880  0.49195279  1
  Zr  Zr42  1  0.90068467  0.50279411  0.29572012  1
  Zr  Zr43  1  0.90508235  0.30539121  0.09093133  1
  Zr  Zr44  1  0.50941532  0.50149232  0.49509969  1
  Zr  Zr45  1  0.69944539  0.68522035  0.50009356  1
  Zr  Zr46  1  0.29482356  0.49477432  0.49984109  1
  Zr  Zr47  1  0.69667168  0.89491438  0.70976013  1
  Zr  Zr48  1  0.89773590  0.29646577  0.89079060  1
  Zr  Zr49  1  0.09899559  0.90008569  0.29668368  1
  Sc  Sc50  1  0.29852345  0.89833036  0.69749562  1
  Sc  Sc51  1  0.29716270  0.90176520  0.50032482  1
  Sc  Sc52  1  0.29092899  0.50028317  0.29916275  1
  Sc  Sc53  1  0.89157213  0.30715231  0.49543123  1
  Sc  Sc54  1  0.90579393  0.89800972  0.90491343  1
  Sc  Sc55  1  0.70261534  0.89728386  0.09870942  1
  Sc  Sc56  1  0.50385457  0.90184786  0.10353426  1
  Sc  Sc57  1  0.50236775  0.70899373  0.10473656  1
  Sc  Sc58  1  0.89924311  0.29421947  0.29711154  1
  Sc  Sc59  1  0.49567703  0.29532727  0.29444772  1
  Sc  Sc60  1  0.70324556  0.30325172  0.89986100  1
  Sc  Sc61  1  0.10117868  0.70551465  0.49307161  1
  Sc  Sc62  1  0.49959265  0.10109906  0.89676885  1
  Sc  Sc63  1  0.49924596  0.10093667  0.49385794  1
  Sc  Sc64  1  0.90012776  0.70323798  0.89488573  1
  Sc  Sc65  1  0.10077723  0.90352031  0.49754735  1
  Sc  Sc66  1  0.70199037  0.91320322  0.29690959  1
  Sc  Sc67  1  0.30869092  0.49124933  0.70741594  1
  Sc  Sc68  1  0.30186175  0.89852536  0.29562717  1
  Sc  Sc69  1  0.69367575  0.49463531  0.31035998  1
  Sc  Sc70  1  0.91185064  0.50337399  0.69879244  1
  Sc  Sc71  1  0.09902534  0.70226009  0.90292728  1
  Sc  Sc72  1  0.30064485  0.69702830  0.90393311  1
  Sc  Sc73  1  0.29346028  0.09728799  0.50161740  1
  Sc  Sc74  1  0.29882913  0.70584073  0.48820288  1
  Sc  Sc75  1  0.90111920  0.89768459  0.29774791  1
  Sc  Sc76  1  0.50129368  0.31537707  0.10201092  1
  Sc  Sc77  1  0.30238798  0.10415774  0.29902300  1
  Sc  Sc78  1  0.29899534  0.69829916  0.09301120  1
  Sc  Sc79  1  0.10139001  0.10049085  0.89407618  1
  Sc  Sc80  1  0.50603801  0.89889229  0.89721907  1
  Sc  Sc81  1  0.09950111  0.89431836  0.90194272  1
  Sc  Sc82  1  0.89984630  0.90225326  0.10398749  1
  Sc  Sc83  1  0.28776476  0.10269583  0.10309910  1
  Sc  Sc84  1  0.09739270  0.10017833  0.10395839  1
  Sc  Sc85  1  0.10791007  0.29723643  0.10106636  1
  Sc  Sc86  1  0.49491182  0.69927226  0.89795233  1
  Sc  Sc87  1  0.09744594  0.90226292  0.10147186  1
  Sc  Sc88  1  0.89535418  0.50679198  0.49971425  1
  Sc  Sc89  1  0.51261160  0.09773497  0.09384288  1
  Sc  Sc90  1  0.29332700  0.10763591  0.89278424  1
  Sc  Sc91  1  0.89861640  0.10046310  0.29199686  1
  Sc  Sc92  1  0.49529011  0.90042512  0.29411140  1
  Sc  Sc93  1  0.30180589  0.50418763  0.91001426  1
  Sc  Sc94  1  0.49450551  0.30895110  0.69984592  1
  Sc  Sc95  1  0.29468726  0.29974320  0.89982554  1
  Sc  Sc96  1  0.90837366  0.69825469  0.70422485  1
  Sc  Sc97  1  0.69691855  0.10356947  0.91506350  1
  Sc  Sc98  1  0.10519254  0.49171089  0.10164203  1
  Sc  Sc99  1  0.50301018  0.30033602  0.90533244  1
  Nb  Nb100  1  0.09794914  0.50292546  0.70035400  1
  Nb  Nb101  1  0.70308269  0.69947648  0.10138670  1
  Nb  Nb102  1  0.10272824  0.69679242  0.70521292  1
  Nb  Nb103  1  0.29659948  0.69718288  0.70316175  1
  Nb  Nb104  1  0.70044111  0.69658493  0.71239171  1
  Nb  Nb105  1  0.69565655  0.50733632  0.69769608  1
  Nb  Nb106  1  0.70358236  0.70117039  0.89962156  1
  Nb  Nb107  1  0.09857905  0.50253671  0.90055045  1
  Nb  Nb108  1  0.89626075  0.29804604  0.69934908  1
  Nb  Nb109  1  0.09440692  0.30687086  0.69351055  1
  Nb  Nb110  1  0.49484399  0.10088488  0.70132638  1
  Nb  Nb111  1  0.30169566  0.30135059  0.29439267  1
  Nb  Nb112  1  0.69798609  0.49560530  0.50288071  1
  Nb  Nb113  1  0.90151656  0.10123371  0.89876834  1
  Nb  Nb114  1  0.31405377  0.49447819  0.09382807  1
  Nb  Nb115  1  0.49704900  0.49868334  0.09811081  1
  Nb  Nb116  1  0.70123528  0.10742152  0.29808962  1
  Nb  Nb117  1  0.70862615  0.29477501  0.30635897  1
  Nb  Nb118  1  0.70204773  0.30131555  0.69805993  1
  Nb  Nb119  1  0.30419930  0.30122562  0.10570758  1
  Nb  Nb120  1  0.10218917  0.69708337  0.29675754  1
  Nb  Nb121  1  0.70518045  0.70086548  0.29036538  1
  Nb  Nb122  1  0.10139745  0.10375759  0.69674473  1
  Nb  Nb123  1  0.90276015  0.10010736  0.50517798  1
  Nb  Nb124  1  0.89742797  0.49987328  0.10118414  1
  Nb  Nb125  1  -0.00263451  0.20315924  0.60202420  1
  Nb  Nb126  1  0.60448005  0.79861662  0.59968966  1
  Nb  Nb127  1  0.20173772  0.60212743  0.60858476  1
  Nb  Nb128  1  0.59631693  -0.00265633  0.60102276  1
  Nb  Nb129  1  0.79756321  0.39790158  0.19886968  1
  Nb  Nb130  1  0.60602129  0.79701521  0.40087764  1
  Nb  Nb131  1  0.39557534  0.20030118  0.00632103  1
  Nb  Nb132  1  0.79704708  0.60098432  0.00419630  1
  Nb  Nb133  1  0.80328262  0.00400269  0.80522192  1
  Nb  Nb134  1  0.19443393  0.59737722  0.79669455  1
  Nb  Nb135  1  -0.00670527  0.59366043  0.00489875  1
  Nb  Nb136  1  0.40089868  0.59423169  0.19495849  1
  Nb  Nb137  1  0.60040809  0.20104087  0.79082664  1
  Nb  Nb138  1  -0.00182085  0.20110096  -0.00702166  1
  Nb  Nb139  1  0.39596195  0.60103033  0.60132501  1
  Nb  Nb140  1  0.39996224  0.19764167  0.60469641  1
  Nb  Nb141  1  0.79099290  0.40340803  0.60503288  1
  Nb  Nb142  1  0.80155586  0.20329219  0.60152993  1
  Nb  Nb143  1  0.00301535  0.39730958  0.40016196  1
  Nb  Nb144  1  0.79415955  0.79531105  0.60289751  1
  Nb  Nb145  1  0.61000096  0.19880866  0.20244005  1
  Nb  Nb146  1  0.39550901  0.39680280  0.39705761  1
  Nb  Nb147  1  0.00104133  0.19984253  0.40848710  1
  Nb  Nb148  1  0.60619328  0.60569606  0.00354142  1
  Nb  Nb149  1  0.39415000  0.00365282  -0.00083516  1
  Pd  Pd150  1  0.80030273  0.20588472  0.19244066  1
  Pd  Pd151  1  0.59708261  0.79568397  -0.00228210  1
  Pd  Pd152  1  0.59167814  0.60572036  0.60613974  1
  Pd  Pd153  1  0.19614964  0.79728039  0.00287428  1
  Pd  Pd154  1  0.60653411  0.00944012  0.80431165  1
  Pd  Pd155  1  0.19901508  0.19790055  0.20275454  1
  Pd  Pd156  1  0.81017474  0.79411188  0.00588235  1
  Pd  Pd157  1  0.20488502  0.40120762  0.00410164  1
  Pd  Pd158  1  0.80371961  0.59930548  0.60958443  1
  Pd  Pd159  1  0.79722537  0.00070880  0.60683361  1
  Pd  Pd160  1  0.00311604  -0.00683951  0.80339262  1
  Pd  Pd161  1  0.78773977  0.19245478  0.80132246  1
  Pd  Pd162  1  0.39287059  -0.00043077  0.39925884  1
  Pd  Pd163  1  0.39688518  0.20230425  0.40506754  1
  Pd  Pd164  1  0.00908845  0.00127597  0.60398747  1
  Pd  Pd165  1  0.59886229  0.39302966  0.80108478  1
  Pd  Pd166  1  0.80890747  0.00756389  0.39169964  1
  Pd  Pd167  1  -0.00646098  0.79019150  0.00744803  1
  Pd  Pd168  1  0.00532604  0.00641577  -0.00183961  1
  Pd  Pd169  1  0.19887873  0.40782000  0.79946853  1
  Pd  Pd170  1  0.80933904  0.59629718  0.80076850  1
  Pd  Pd171  1  0.59577736  0.19600131  0.60262566  1
  Pd  Pd172  1  0.19815344  0.00568679  -0.00005972  1
  Pd  Pd173  1  0.39332010  0.58921162  0.39571235  1
  Pd  Pd174  1  0.20636398  -0.00251732  0.39303123  1
  Pd  Pd175  1  0.39946128  0.39509251  0.81257400  1
  Pd  Pd176  1  0.00624812  0.60955811  0.59270690  1
  Pd  Pd177  1  -0.00340148  0.79424078  0.59757144  1
  Pd  Pd178  1  0.80087684  0.41043909  0.78930681  1
  Pd  Pd179  1  0.39171940  0.80429192  0.80534865  1
  Pd  Pd180  1  0.59517466  0.60469767  0.19961581  1
  Pd  Pd181  1  0.40451445  0.80784913  -0.00007700  1
  Pd  Pd182  1  0.20236763  0.79560076  0.59436473  1
  Pd  Pd183  1  0.19260031  0.20327222  0.79443032  1
  Pd  Pd184  1  0.79392477  0.79973676  0.39646719  1
  Pd  Pd185  1  0.19846236  0.80235249  0.19494095  1
  Pd  Pd186  1  0.00453724  0.80220576  0.39479799  1
  Pd  Pd187  1  0.19396813  -0.00295843  0.79551163  1
  Pd  Pd188  1  0.00006655  0.39927853  0.79486067  1
  Pd  Pd189  1  0.39560538  0.79434784  0.59888052  1
  Pd  Pd190  1  0.41202841  0.19206469  0.18955571  1
  Pd  Pd191  1  0.79065515  0.40669413  0.00323502  1
  Pd  Pd192  1  0.79451185  0.59472872  0.39266624  1
  Pd  Pd193  1  0.60643097  0.80749002  0.20752634  1
  Pd  Pd194  1  0.60114098  0.40330584  0.60605292  1
  Pd  Pd195  1  -0.00222607  0.39760921  0.20419317  1
  Pd  Pd196  1  0.39535523  -0.00106464  0.81122149  1
  Pd  Pd197  1  0.40087577  0.01120022  0.19028507  1
  Pd  Pd198  1  0.00670338  0.59545178  0.40675647  1
  Pd  Pd199  1  0.20924275  0.59276085  0.18714599  1
  Rh  Rh200  1  0.19776666  0.19738787  0.39019611  1
  Rh  Rh201  1  0.39053578  0.59993161  0.79752107  1
  Rh  Rh202  1  0.59245016  0.39162464  0.39349864  1
  Rh  Rh203  1  -0.01247821  0.39339985  0.59557650  1
  Rh  Rh204  1  0.40856419  0.20474833  0.79961742  1
  Rh  Rh205  1  0.79019033  0.58943807  0.20268036  1
  Rh  Rh206  1  -0.00533786  0.00684844  0.39720046  1
  Rh  Rh207  1  0.61146859  0.38291452  0.20938053  1
  Rh  Rh208  1  0.19505528  -0.00563963  0.60556235  1
  Rh  Rh209  1  0.39573745  0.38723260  -0.00252712  1
  Rh  Rh210  1  0.60699183  0.60578741  0.38961542  1
  Rh  Rh211  1  0.00341543  0.80030865  0.20289918  1
  Rh  Rh212  1  0.00751201  0.40027584  0.00115830  1
  Rh  Rh213  1  0.59936395  -0.00819535  0.40156610  1
  Rh  Rh214  1  0.00279464  0.79960239  0.80225505  1
  Rh  Rh215  1  0.80646873  0.40757688  0.39873135  1
  Rh  Rh216  1  0.19900647  0.20322483  0.00055019  1
  Rh  Rh217  1  0.00544904  0.60112498  0.81198930  1
  Rh  Rh218  1  0.81134277  0.19267303  0.40673902  1
  Rh  Rh219  1  -0.00299274  -0.00207510  0.19955802  1
  Rh  Rh220  1  0.60402056  0.00273122  0.19996248  1
  Rh  Rh221  1  0.39413598  0.78953744  0.19892625  1
  Rh  Rh222  1  0.20189112  0.19558908  0.60915590  1
  Rh  Rh223  1  0.80564791  0.80346578  0.79761964  1
  Rh  Rh224  1  0.40067639  0.80798328  0.39366325  1
  Rh  Rh225  1  0.20562937  0.40882515  0.61488588  1
  Rh  Rh226  1  0.19599974  0.80476100  0.39510546  1
  Rh  Rh227  1  0.39905397  0.40105561  0.58930678  1
  Rh  Rh228  1  0.60240264  0.40956765  -0.00803750  1
  Rh  Rh229  1  0.19471354  0.60307705  0.40914387  1
  Rh  Rh230  1  0.20297176  0.79275130  0.80589090  1
  Rh  Rh231  1  0.59693286  0.60731161  0.80692364  1
  Rh  Rh232  1  0.59117895  0.20399796  0.00013009  1
  Rh  Rh233  1  0.00731274  0.59391480  0.19542508  1
  Rh  Rh234  1  0.19981202  -0.00058315  0.20322060  1
  Rh  Rh235  1  0.80310235  -0.00457078  -0.00713383  1
  Rh  Rh236  1  0.00928056  0.20657537  0.79909453  1
  Rh  Rh237  1  0.79607254  0.80725051  0.20418943  1
  Rh  Rh238  1  0.80212428  -0.00160691  0.20062827  1
  Rh  Rh239  1  0.40405274  0.00862158  0.59266642  1
  Rh  Rh240  1  0.59463167  -0.00816030  -0.00203393  1
  Rh  Rh241  1  0.39258447  0.40730808  0.20733540  1
  Rh  Rh242  1  0.20841606  0.40265153  0.19523271  1
  Rh  Rh243  1  0.20082320  0.39550815  0.39165249  1
  Rh  Rh244  1  -0.00007940  0.20069831  0.19365347  1
  Rh  Rh245  1  0.80839296  0.19898262  -0.00410235  1
  Rh  Rh246  1  0.19084363  0.59568977  -0.00348271  1
  Rh  Rh247  1  0.41149464  0.60876492  0.01023547  1
  Rh  Rh248  1  0.59863260  0.79243884  0.80270682  1
  Rh  Rh249  1  0.59524133  0.20663331  0.38949174  1
