# generated using pymatgen
data_ZrScNbPdRh
_symmetry_space_group_name_H-M   'P 1'
_cell_length_a   16.56299325
_cell_length_b   16.55771502
_cell_length_c   16.56345943
_cell_angle_alpha   90.01050756
_cell_angle_beta   89.97599751
_cell_angle_gamma   90.03324416
_symmetry_Int_Tables_number   1
_chemical_formula_structural   ZrScNbPdRh
_chemical_formula_sum   'Zr50 Sc50 Nb50 Pd50 Rh50'
_cell_volume   4542.45002629
_cell_formula_units_Z   50
loop_
 _symmetry_equiv_pos_site_id
 _symmetry_equiv_pos_as_xyz
  1  'x, y, z'
loop_
 _atom_site_type_symbol
 _atom_site_label
 _atom_site_symmetry_multiplicity
 _atom_site_fract_x
 _atom_site_fract_y
 _atom_site_fract_z
 _atom_site_occupancy
  Zr  Zr0  1  0.30064202  0.50756859  0.09273909  1
  Zr  Zr1  1  0.49423746  0.88423677  0.29336513  1
  Zr  Zr2  1  0.69631031  0.70665514  0.50360195  1
  Zr  Zr3  1  0.09885091  0.10267842  0.08663037  1
  Zr  Zr4  1  0.49867924  0.30252592  0.89331678  1
  Zr  Zr5  1  0.30001338  0.50584974  0.30580757  1
  Zr  Zr6  1  0.30198962  0.90085473  0.90018401  1
  Zr  Zr7  1  0.10052280  0.70044702  0.30036284  1
  Zr  Zr8  1  0.50001195  0.51142328  0.30301875  1
  Zr  Zr9  1  0.89544769  0.70575538  0.70235424  1
  Zr  Zr10  1  0.29881597  0.89738749  0.70569152  1
  Zr  Zr11  1  0.09880671  0.49382886  0.70999884  1
  Zr  Zr12  1  0.49497457  0.09887897  0.89926311  1
  Zr  Zr13  1  0.49619948  0.49944253  0.50563307  1
  Zr  Zr14  1  0.69284357  0.09533809  0.10115162  1
  Zr  Zr15  1  0.69797334  0.70080271  0.70500865  1
  Zr  Zr16  1  0.90299050  0.89998641  0.29617041  1
  Zr  Zr17  1  0.89859248  0.70034957  0.50128320  1
  Zr  Zr18  1  0.09944857  0.09649057  0.49780771  1
  Zr  Zr19  1  0.69973455  0.69484776  0.89956035  1
  Zr  Zr20  1  0.69347977  0.90068881  0.09968942  1
  Zr  Zr21  1  0.09749374  0.30258473  0.09834619  1
  Zr  Zr22  1  0.69798435  0.50515114  0.08936759  1
  Zr  Zr23  1  0.09359732  0.49877619  0.09659892  1
  Zr  Zr24  1  0.29343110  0.10214964  0.89276656  1
  Zr  Zr25  1  0.90218782  0.50087393  0.70288169  1
  Zr  Zr26  1  0.30153701  0.09959282  0.30347830  1
  Zr  Zr27  1  0.89914594  0.49767877  0.89990711  1
  Zr  Zr28  1  0.50269502  0.70523464  0.89142126  1
  Zr  Zr29  1  0.10192398  0.90035152  0.09881168  1
  Zr  Zr30  1  0.89170777  0.29688604  0.90834081  1
  Zr  Zr31  1  0.69406557  0.10307521  0.30010591  1
  Zr  Zr32  1  0.10405843  0.09933516  0.69984761  1
  Zr  Zr33  1  0.50308139  0.70155304  0.30085113  1
  Zr  Zr34  1  0.70844075  0.90064503  0.69288923  1
  Zr  Zr35  1  0.09263789  0.30032623  0.30236735  1
  Zr  Zr36  1  0.89244296  0.88987615  0.10600945  1
  Zr  Zr37  1  0.09797796  0.90304608  0.50040759  1
  Zr  Zr38  1  0.50195173  0.09141095  0.09331454  1
  Zr  Zr39  1  0.50839081  0.88674043  0.49987745  1
  Zr  Zr40  1  0.89453908  0.09497403  0.70192328  1
  Zr  Zr41  1  0.90493876  0.30672729  0.10248947  1
  Zr  Zr42  1  0.30611273  0.49252460  0.49986624  1
  Zr  Zr43  1  0.10669051  0.90630014  0.90119298  1
  Zr  Zr44  1  0.89982801  0.10142312  0.90220842  1
  Zr  Zr45  1  0.10935094  0.29682143  0.90200934  1
  Zr  Zr46  1  0.90055871  0.70070512  0.29095993  1
  Zr  Zr47  1  0.91434970  0.30053858  0.69141701  1
  Zr  Zr48  1  0.09940681  0.68700989  0.10246628  1
  Zr  Zr49  1  0.10997332  0.49789658  0.50134854  1
  Sc  Sc50  1  0.68317364  0.30596903  0.50176202  1
  Sc  Sc51  1  0.49559502  0.30141873  0.69584338  1
  Sc  Sc52  1  0.49780250  0.11171264  0.29633178  1
  Sc  Sc53  1  0.68335886  0.29619973  0.70252085  1
  Sc  Sc54  1  0.89541123  0.69936115  0.89787147  1
  Sc  Sc55  1  0.49133755  0.29948021  0.50617273  1
  Sc  Sc56  1  0.70334857  0.30495326  0.08583402  1
  Sc  Sc57  1  0.10479736  0.89296673  0.69874287  1
  Sc  Sc58  1  0.30408473  0.29697935  0.90063288  1
  Sc  Sc59  1  0.10441138  0.69453463  0.89634091  1
  Sc  Sc60  1  0.89873060  0.50211616  0.49880548  1
  Sc  Sc61  1  0.49962083  0.50020210  0.90789940  1
  Sc  Sc62  1  0.69463309  0.89382670  0.28633728  1
  Sc  Sc63  1  0.30377545  0.49703025  0.89875906  1
  Sc  Sc64  1  0.29348087  0.70032553  0.09576368  1
  Sc  Sc65  1  0.50146598  0.88761481  0.70501790  1
  Sc  Sc66  1  0.10362737  0.89724581  0.30527292  1
  Sc  Sc67  1  0.71198019  0.70053622  0.10188929  1
  Sc  Sc68  1  0.90411531  0.30445746  0.30406008  1
  Sc  Sc69  1  0.31476236  0.10363819  0.09288969  1
  Sc  Sc70  1  0.49687216  0.90481315  0.89996099  1
  Sc  Sc71  1  0.90346887  0.89787823  0.51143414  1
  Sc  Sc72  1  0.29844748  0.10589985  0.49502624  1
  Sc  Sc73  1  0.49919845  0.30005356  0.30696644  1
  Sc  Sc74  1  0.49297723  0.49425814  0.70137420  1
  Sc  Sc75  1  0.49431216  0.29771123  0.08987373  1
  Sc  Sc76  1  0.69993158  0.30838512  0.89778491  1
  Sc  Sc77  1  0.89819344  0.50481810  0.30385144  1
  Sc  Sc78  1  0.29018706  0.89956652  0.49563722  1
  Sc  Sc79  1  0.90814486  0.10019794  0.30509980  1
  Sc  Sc80  1  0.69978951  0.50032978  0.49151596  1
  Sc  Sc81  1  0.49079485  0.70006401  0.69839757  1
  Sc  Sc82  1  0.30155626  0.69745846  0.90177018  1
  Sc  Sc83  1  0.50054535  0.70001332  0.49794828  1
  Sc  Sc84  1  0.91304512  0.09476738  0.50294682  1
  Sc  Sc85  1  0.89326503  0.89156286  0.89600349  1
  Sc  Sc86  1  0.90425727  0.10337397  0.09835990  1
  Sc  Sc87  1  0.30382952  0.50298985  0.69942521  1
  Sc  Sc88  1  0.30413883  0.10359409  0.70331850  1
  Sc  Sc89  1  0.30743925  0.29655915  0.31345086  1
  Sc  Sc90  1  0.70153001  0.49752017  0.70581082  1
  Sc  Sc91  1  0.69234368  0.30506315  0.30609122  1
  Sc  Sc92  1  0.70913988  0.11029878  0.89170120  1
  Sc  Sc93  1  0.29702548  0.69157766  0.50915537  1
  Sc  Sc94  1  0.50358035  0.11584482  0.69429432  1
  Sc  Sc95  1  0.70064558  0.89659836  0.89640344  1
  Sc  Sc96  1  0.91555162  0.29928035  0.49675810  1
  Sc  Sc97  1  0.09934200  0.09339980  0.30712245  1
  Sc  Sc98  1  0.49103346  0.69597212  0.10086395  1
  Sc  Sc99  1  0.10035614  0.50543907  0.29744721  1
  Nb  Nb100  1  0.69824143  0.50694155  0.29287535  1
  Nb  Nb101  1  0.10010060  0.10102848  0.89843434  1
  Nb  Nb102  1  0.30107404  0.89691439  0.29489055  1
  Nb  Nb103  1  0.10015536  0.30080582  0.69542312  1
  Nb  Nb104  1  0.89993210  0.90219056  0.70719684  1
  Nb  Nb105  1  0.49619708  0.49614552  0.09837387  1
  Nb  Nb106  1  0.69742253  0.89852295  0.49932116  1
  Nb  Nb107  1  0.10789362  0.69811727  0.69920406  1
  Nb  Nb108  1  0.69234501  0.09399106  0.50735856  1
  Nb  Nb109  1  0.69647312  0.69205518  0.29946641  1
  Nb  Nb110  1  0.30091001  0.70870889  0.29244457  1
  Nb  Nb111  1  0.09563021  0.49960583  0.90561228  1
  Nb  Nb112  1  0.49836541  0.09660186  0.50241393  1
  Nb  Nb113  1  0.30251578  0.29780581  0.70248861  1
  Nb  Nb114  1  0.30944381  0.89939369  0.10386935  1
  Nb  Nb115  1  0.50106757  0.90043344  0.09575521  1
  Nb  Nb116  1  0.69938427  0.09958457  0.69632799  1
  Nb  Nb117  1  0.70148519  0.49821125  0.90257260  1
  Nb  Nb118  1  0.30002685  0.30180116  0.50452439  1
  Nb  Nb119  1  0.29418035  0.70229797  0.70627831  1
  Nb  Nb120  1  0.09684676  0.70153324  0.50578728  1
  Nb  Nb121  1  0.29801628  0.30181309  0.09781588  1
  Nb  Nb122  1  0.90461576  0.50584223  0.10140706  1
  Nb  Nb123  1  0.10038169  0.30154057  0.50869119  1
  Nb  Nb124  1  0.90550521  0.69912891  0.10025185  1
  Nb  Nb125  1  0.79466765  0.19398488  0.40730185  1
  Nb  Nb126  1  0.79397639  0.19869099  0.59413789  1
  Nb  Nb127  1  0.79050651  -0.00203360  0.40432204  1
  Nb  Nb128  1  0.79432775  0.40681914  0.20019687  1
  Nb  Nb129  1  0.59831598  0.19584109  -0.00551104  1
  Nb  Nb130  1  -0.00026058  0.79487863  0.00488198  1
  Nb  Nb131  1  0.79739587  0.20633077  0.20476724  1
  Nb  Nb132  1  0.19852590  0.21020354  0.59943086  1
  Nb  Nb133  1  0.00522180  0.19789355  0.80152440  1
  Nb  Nb134  1  0.79770857  -0.00082720  0.00194567  1
  Nb  Nb135  1  0.79503431  0.80335126  0.39805663  1
  Nb  Nb136  1  0.40508358  -0.00132154  0.59281477  1
  Nb  Nb137  1  0.60014900  0.59931982  0.60153587  1
  Nb  Nb138  1  0.60701903  0.00637556  0.79250844  1
  Nb  Nb139  1  0.20170610  0.20075118  0.19693272  1
  Nb  Nb140  1  0.59755062  0.80227096  0.00322638  1
  Nb  Nb141  1  0.40675564  -0.00524941  0.40139320  1
  Nb  Nb142  1  0.20947418  0.00052414  0.19640451  1
  Nb  Nb143  1  0.39950345  0.40438461  0.19697657  1
  Nb  Nb144  1  0.59721486  0.40923984  0.19546467  1
  Nb  Nb145  1  0.59745802  -0.00252187  0.40428509  1
  Nb  Nb146  1  0.20693494  0.39517704  0.19782820  1
  Nb  Nb147  1  0.00048961  0.00122281  0.80201544  1
  Nb  Nb148  1  0.01019374  0.60648963  0.60401808  1
  Nb  Nb149  1  0.80117441  0.39165174  0.59983629  1
  Pd  Pd150  1  0.39306488  0.60240305  0.19859533  1
  Pd  Pd151  1  0.40502297  0.79959180  0.00023886  1
  Pd  Pd152  1  0.59999329  0.60376049  0.18942934  1
  Pd  Pd153  1  0.21159573  0.00849374  0.60138055  1
  Pd  Pd154  1  0.00008548  0.60677264  0.79912426  1
  Pd  Pd155  1  0.00101684  0.79908611  0.60768626  1
  Pd  Pd156  1  0.80756057  0.60013281  -0.00136436  1
  Pd  Pd157  1  0.39721997  0.21037047  0.19818508  1
  Pd  Pd158  1  -0.01208531  -0.01233789  -0.00616020  1
  Pd  Pd159  1  0.21239684  0.00544024  0.00694787  1
  Pd  Pd160  1  0.00279602  0.40903179  0.40308324  1
  Pd  Pd161  1  0.20412301  0.79900748  0.59769113  1
  Pd  Pd162  1  0.00056720  0.38909218  0.81170944  1
  Pd  Pd163  1  0.19513402  0.79488775  -0.00152515  1
  Pd  Pd164  1  0.00072363  0.19357806  0.20296920  1
  Pd  Pd165  1  0.80564297  0.00220601  0.59190395  1
  Pd  Pd166  1  0.20245181  0.60958228  0.39991928  1
  Pd  Pd167  1  0.79892929  0.39171059  0.79070243  1
  Pd  Pd168  1  0.79559959  0.59019971  0.60153231  1
  Pd  Pd169  1  -0.00593893  0.80323986  0.40124216  1
  Pd  Pd170  1  0.39174625  0.80237598  0.59677736  1
  Pd  Pd171  1  0.60333648  0.21777467  0.18744551  1
  Pd  Pd172  1  0.80423597  0.01161386  0.20137581  1
  Pd  Pd173  1  0.40328108  0.00108389  0.20558436  1
  Pd  Pd174  1  0.19329224  0.20656010  0.40082883  1
  Pd  Pd175  1  0.20445002  0.59584487  0.80477543  1
  Pd  Pd176  1  0.59387896  0.60947772  0.00339579  1
  Pd  Pd177  1  0.41200568  0.00392932  0.78543345  1
  Pd  Pd178  1  0.59604686  0.40851097  0.80168267  1
  Pd  Pd179  1  0.39989896  0.59925797  0.80180753  1
  Pd  Pd180  1  0.59510111  0.59053588  0.79450968  1
  Pd  Pd181  1  0.20725101  0.39895967  0.60865769  1
  Pd  Pd182  1  0.20632485  0.39925435  0.80008328  1
  Pd  Pd183  1  0.19902895  0.39377298  0.39243516  1
  Pd  Pd184  1  0.19952592  0.59467778  0.60569074  1
  Pd  Pd185  1  0.58613727  -0.00226386  0.21213947  1
  Pd  Pd186  1  0.19789764  0.80320068  0.19716193  1
  Pd  Pd187  1  0.00372500  0.59747835  0.40597435  1
  Pd  Pd188  1  0.00936896  0.00227071  0.20031760  1
  Pd  Pd189  1  0.20279460  0.40481126  -0.00047045  1
  Pd  Pd190  1  0.39580706  0.61145207  0.40399613  1
  Pd  Pd191  1  0.58974991  -0.00513894  0.60644397  1
  Pd  Pd192  1  0.00700368  0.80245204  0.80750741  1
  Pd  Pd193  1  0.38769574  0.79700042  0.40665082  1
  Pd  Pd194  1  0.20375358  0.79282378  0.40413806  1
  Pd  Pd195  1  0.59307086  0.40791115  0.39518261  1
  Pd  Pd196  1  0.80346760  0.21277802  0.78626679  1
  Pd  Pd197  1  0.59741616  0.19671415  0.40957111  1
  Pd  Pd198  1  0.79682378  0.60667060  0.39877617  1
  Pd  Pd199  1  0.79890422  0.39136614  0.40137566  1
  Rh  Rh200  1  0.79782640  0.59663656  0.80543652  1
  Rh  Rh201  1  0.80460866  0.40953809  0.00548941  1
  Rh  Rh202  1  0.60175136  0.59966613  0.40868575  1
  Rh  Rh203  1  0.59854422  0.78884063  0.18960935  1
  Rh  Rh204  1  0.40231806  0.60187373  0.60432411  1
  Rh  Rh205  1  0.38951182  0.19678788  0.59719262  1
  Rh  Rh206  1  -0.00183830  0.41606108  0.59314734  1
  Rh  Rh207  1  0.00124297  0.20843490  -0.00671931  1
  Rh  Rh208  1  -0.00387842  0.60484323  -0.00789436  1
  Rh  Rh209  1  0.39822423  0.79410478  0.19141671  1
  Rh  Rh210  1  0.39606376  0.39771538  0.80006765  1
  Rh  Rh211  1  -0.00292016  0.41074722  0.20462171  1
  Rh  Rh212  1  0.19697946  0.20550726  0.79308573  1
  Rh  Rh213  1  0.01048911  0.79757382  0.19445670  1
  Rh  Rh214  1  0.39503292  0.39685329  0.60418065  1
  Rh  Rh215  1  0.80278965  0.80374377  0.59848149  1
  Rh  Rh216  1  0.59734743  0.19443460  0.80612623  1
  Rh  Rh217  1  -0.00735241  -0.00955736  0.40118953  1
  Rh  Rh218  1  0.40205006  0.20193726  -0.00609330  1
  Rh  Rh219  1  0.00161228  0.19920280  0.40357266  1
  Rh  Rh220  1  0.39380492  -0.00530347  -0.00208183  1
  Rh  Rh221  1  0.39240726  0.79714630  0.80284736  1
  Rh  Rh222  1  0.39853534  0.39933057  0.00103864  1
  Rh  Rh223  1  0.79150479  0.19009509  0.01302554  1
  Rh  Rh224  1  0.79319781  0.79114461  0.20705478  1
  Rh  Rh225  1  0.40509176  0.19654196  0.40892349  1
  Rh  Rh226  1  0.60066654  0.79110024  0.61020466  1
  Rh  Rh227  1  0.60859816  0.00027222  -0.01609686  1
  Rh  Rh228  1  0.60180960  0.20279056  0.59553562  1
  Rh  Rh229  1  0.40226696  0.60265785  -0.00535962  1
  Rh  Rh230  1  0.19829617  0.59432363  -0.00822172  1
  Rh  Rh231  1  0.61018448  0.80034438  0.38975980  1
  Rh  Rh232  1  0.20114267  0.79704365  0.80441685  1
  Rh  Rh233  1  0.60517102  0.41148392  0.60273223  1
  Rh  Rh234  1  0.20698226  0.19556163  0.00467136  1
  Rh  Rh235  1  0.79549450  0.79881600  0.79889937  1
  Rh  Rh236  1  0.19650898  -0.00163374  0.79645824  1
  Rh  Rh237  1  0.40449135  0.39838474  0.39795564  1
  Rh  Rh238  1  0.60251896  0.80743693  0.80426432  1
  Rh  Rh239  1  0.20432004  0.59591563  0.20361734  1
  Rh  Rh240  1  0.59663341  0.39513009  -0.00095182  1
  Rh  Rh241  1  -0.00230596  0.39861385  -0.00568187  1
  Rh  Rh242  1  -0.00270137  0.59553012  0.20485268  1
  Rh  Rh243  1  0.00537468  0.19179719  0.60156259  1
  Rh  Rh244  1  0.40078210  0.20220403  0.79777832  1
  Rh  Rh245  1  0.00280896  -0.00799839  0.61216551  1
  Rh  Rh246  1  0.79875656  -0.00356707  0.80573263  1
  Rh  Rh247  1  0.20827130  -0.00476020  0.39098054  1
  Rh  Rh248  1  0.79901921  0.80275334  0.00076587  1
  Rh  Rh249  1  0.80518634  0.59592776  0.19823572  1
