# generated using pymatgen
data_ZrScNbPdRh
_symmetry_space_group_name_H-M   'P 1'
_cell_length_a   16.55441187
_cell_length_b   16.55202927
_cell_length_c   16.55208399
_cell_angle_alpha   89.97617053
_cell_angle_beta   90.01876394
_cell_angle_gamma   89.95367627
_symmetry_Int_Tables_number   1
_chemical_formula_structural   ZrScNbPdRh
_chemical_formula_sum   'Zr50 Sc50 Nb50 Pd50 Rh50'
_cell_volume   4535.41968059
_cell_formula_units_Z   50
loop_
 _symmetry_equiv_pos_site_id
 _symmetry_equiv_pos_as_xyz
  1  'x, y, z'
loop_
 _atom_site_type_symbol
 _atom_site_label
 _atom_site_symmetry_multiplicity
 _atom_site_fract_x
 _atom_site_fract_y
 _atom_site_fract_z
 _atom_site_occupancy
  Zr  Zr0  1  0.50026795  0.69682417  0.90490248  1
  Zr  Zr1  1  0.09480727  0.29522612  0.90364993  1
  Zr  Zr2  1  0.29960682  0.89314648  0.30798032  1
  Zr  Zr3  1  0.10627299  0.10711176  0.50855112  1
  Zr  Zr4  1  0.70567939  0.49850865  0.69132326  1
  Zr  Zr5  1  0.89558456  0.69987462  0.29110885  1
  Zr  Zr6  1  0.09331756  0.70520955  0.09277641  1
  Zr  Zr7  1  0.90187207  0.10187181  0.90049437  1
  Zr  Zr8  1  0.29529557  0.90401877  0.89354324  1
  Zr  Zr9  1  0.68416520  0.10029638  0.70047544  1
  Zr  Zr10  1  0.09619281  0.51856856  0.69970641  1
  Zr  Zr11  1  0.50277545  0.50304100  0.09970698  1
  Zr  Zr12  1  0.90322206  0.89976915  0.69860574  1
  Zr  Zr13  1  0.10162726  0.30639561  0.48886437  1
  Zr  Zr14  1  0.29877487  0.09734353  0.70432469  1
  Zr  Zr15  1  0.30063518  0.50030853  0.09470517  1
  Zr  Zr16  1  0.69928530  0.09204085  0.89964197  1
  Zr  Zr17  1  0.49208680  0.50238304  0.90262564  1
  Zr  Zr18  1  0.09530862  0.90137309  0.29612921  1
  Zr  Zr19  1  0.91706883  0.30299039  0.29309657  1
  Zr  Zr20  1  0.49710287  0.29608448  0.89699084  1
  Zr  Zr21  1  0.29997478  0.50749689  0.70528672  1
  Zr  Zr22  1  0.50118175  0.90100325  0.10489320  1
  Zr  Zr23  1  0.90944717  0.49751784  0.89714535  1
  Zr  Zr24  1  0.09268468  0.30020355  0.10754168  1
  Zr  Zr25  1  0.10234746  0.48711627  0.30326316  1
  Zr  Zr26  1  0.70913398  0.70368656  0.10434825  1
  Zr  Zr27  1  0.10577727  0.89496971  0.69957970  1
  Zr  Zr28  1  0.89537383  0.49740088  0.09516833  1
  Zr  Zr29  1  0.50694700  0.50715096  0.29754844  1
  Zr  Zr30  1  0.29640002  0.69834833  0.10444530  1
  Zr  Zr31  1  0.31348529  0.30938999  0.69774269  1
  Zr  Zr32  1  0.10161149  0.09912411  0.89414874  1
  Zr  Zr33  1  0.90052712  0.29910258  0.09654921  1
  Zr  Zr34  1  0.49702400  0.70120085  0.69816375  1
  Zr  Zr35  1  0.09720619  0.10150540  0.30018088  1
  Zr  Zr36  1  0.49593140  0.90562819  0.69622670  1
  Zr  Zr37  1  0.70181642  0.69126925  0.29910014  1
  Zr  Zr38  1  0.49143430  0.89429671  0.90421473  1
  Zr  Zr39  1  0.89865180  0.49942514  0.69896907  1
  Zr  Zr40  1  0.09875414  0.90033044  0.10010390  1
  Zr  Zr41  1  0.90141322  0.50470490  0.50246109  1
  Zr  Zr42  1  0.69408807  0.29987281  0.69772813  1
  Zr  Zr43  1  0.69942263  0.69371771  0.50156612  1
  Zr  Zr44  1  0.49095985  0.09896824  0.30369714  1
  Zr  Zr45  1  0.49553401  0.10034566  0.10235999  1
  Zr  Zr46  1  0.90634208  0.69557225  0.90982423  1
  Zr  Zr47  1  0.69532498  0.08250440  0.09992267  1
  Zr  Zr48  1  0.69801274  0.70190735  0.69476779  1
  Zr  Zr49  1  0.49439712  0.48373490  0.70174600  1
  Sc  Sc50  1  0.70171971  0.50167790  0.49850343  1
  Sc  Sc51  1  0.69830107  0.90348756  0.27597122  1
  Sc  Sc52  1  0.30098654  0.29789878  0.09476376  1
  Sc  Sc53  1  0.29117460  0.70420744  0.70704405  1
  Sc  Sc54  1  0.89250080  0.30209312  0.70574649  1
  Sc  Sc55  1  0.90310099  0.10394607  0.70894413  1
  Sc  Sc56  1  0.90518708  0.10295135  0.49458539  1
  Sc  Sc57  1  0.30908103  0.09902062  0.30032331  1
  Sc  Sc58  1  0.69778753  0.50119309  0.10708159  1
  Sc  Sc59  1  0.30276284  0.89852989  0.09958340  1
  Sc  Sc60  1  0.30464294  0.89587427  0.50387071  1
  Sc  Sc61  1  0.11044078  0.70077935  0.30233514  1
  Sc  Sc62  1  0.49618016  0.69841703  0.29985826  1
  Sc  Sc63  1  0.09762522  0.28805636  0.69345010  1
  Sc  Sc64  1  0.89755978  0.30048792  0.89708755  1
  Sc  Sc65  1  0.89261310  0.90315835  0.89547660  1
  Sc  Sc66  1  0.90848618  0.09472564  0.29748035  1
  Sc  Sc67  1  0.70449774  0.70627665  0.91171276  1
  Sc  Sc68  1  0.30610300  0.10171757  0.10267355  1
  Sc  Sc69  1  0.30123692  0.70567039  0.48924364  1
  Sc  Sc70  1  0.11074884  0.49903466  0.09364418  1
  Sc  Sc71  1  0.90751649  0.30292684  0.50656486  1
  Sc  Sc72  1  0.69715003  0.29035360  0.89635259  1
  Sc  Sc73  1  0.49045169  0.89867628  0.29905347  1
  Sc  Sc74  1  0.49198061  0.29190156  0.09332170  1
  Sc  Sc75  1  0.10233163  0.89679238  0.50938000  1
  Sc  Sc76  1  0.69415827  0.30215657  0.30380641  1
  Sc  Sc77  1  0.69304992  0.49785221  0.29745372  1
  Sc  Sc78  1  0.30617954  0.69799527  0.30234730  1
  Sc  Sc79  1  0.08955816  0.09487462  0.09330621  1
  Sc  Sc80  1  0.50483376  0.50242503  0.49611950  1
  Sc  Sc81  1  0.30402134  0.29977788  0.49803593  1
  Sc  Sc82  1  0.30053749  0.69980617  0.89775468  1
  Sc  Sc83  1  0.50227355  0.29907444  0.29829300  1
  Sc  Sc84  1  0.30106377  0.29202824  0.90282106  1
  Sc  Sc85  1  0.89812178  0.50105556  0.29947157  1
  Sc  Sc86  1  0.30073940  0.29413564  0.30324041  1
  Sc  Sc87  1  0.50684382  0.30490714  0.49947342  1
  Sc  Sc88  1  0.70342884  0.49858972  0.91176708  1
  Sc  Sc89  1  0.69439877  0.90498166  0.70555019  1
  Sc  Sc90  1  0.49184892  0.89886663  0.50807322  1
  Sc  Sc91  1  0.10041143  0.70023678  0.89911092  1
  Sc  Sc92  1  0.90808941  0.90548582  0.50193004  1
  Sc  Sc93  1  0.31089179  0.10005775  0.49537018  1
  Sc  Sc94  1  0.90933290  0.70561077  0.70820440  1
  Sc  Sc95  1  0.69876441  0.30642802  0.09991375  1
  Sc  Sc96  1  0.49990828  0.10499387  0.89881901  1
  Sc  Sc97  1  0.30134153  0.50577465  0.49672878  1
  Sc  Sc98  1  0.50006128  0.70381229  0.50074033  1
  Sc  Sc99  1  0.49855538  0.70156750  0.10061312  1
  Nb  Nb100  1  0.70369463  0.29512375  0.49426873  1
  Nb  Nb101  1  0.50470213  0.09688899  0.50600922  1
  Nb  Nb102  1  0.29168997  0.50469783  0.90045306  1
  Nb  Nb103  1  0.69914964  0.10144956  0.30233004  1
  Nb  Nb104  1  0.30645629  0.50564111  0.29625386  1
  Nb  Nb105  1  0.89978166  0.89542154  0.11516917  1
  Nb  Nb106  1  0.29515726  0.10143827  0.89432963  1
  Nb  Nb107  1  0.10629163  0.90548179  0.90449241  1
  Nb  Nb108  1  0.09815234  0.50237453  0.50278005  1
  Nb  Nb109  1  0.69906206  0.90094260  0.50259644  1
  Nb  Nb110  1  0.50275253  0.29535624  0.70314738  1
  Nb  Nb111  1  0.09550201  0.69357797  0.50044328  1
  Nb  Nb112  1  0.30131104  0.89929720  0.69946195  1
  Nb  Nb113  1  0.50285220  0.10034041  0.69584721  1
  Nb  Nb114  1  0.89195097  0.69536739  0.48817001  1
  Nb  Nb115  1  0.10405014  0.09833619  0.70113948  1
  Nb  Nb116  1  0.69607253  0.10337583  0.49636487  1
  Nb  Nb117  1  0.10404920  0.50250233  0.89663684  1
  Nb  Nb118  1  0.69641596  0.90233647  0.90454275  1
  Nb  Nb119  1  0.09991953  0.29968292  0.29698344  1
  Nb  Nb120  1  0.90511583  0.69888239  0.10251126  1
  Nb  Nb121  1  0.70382685  0.90122188  0.08895578  1
  Nb  Nb122  1  0.89701023  0.09614118  0.09670384  1
  Nb  Nb123  1  0.90433211  0.89648964  0.30197964  1
  Nb  Nb124  1  0.10184151  0.70418290  0.69921549  1
  Nb  Nb125  1  0.39833505  0.59912588  0.60409077  1
  Nb  Nb126  1  0.60931066  0.80814677  0.40122886  1
  Nb  Nb127  1  0.79352678  -0.00184572  0.39939729  1
  Nb  Nb128  1  0.19217626  0.20120847  0.20278397  1
  Nb  Nb129  1  0.39855109  0.40612254  0.20256893  1
  Nb  Nb130  1  -0.00454374  0.79320999  0.40220942  1
  Nb  Nb131  1  0.19487646  0.40909435  0.60042317  1
  Nb  Nb132  1  0.79833034  0.19360198  0.19975922  1
  Nb  Nb133  1  0.79898267  0.19067959  0.00740793  1
  Nb  Nb134  1  0.59200256  0.39877455  -0.00149639  1
  Nb  Nb135  1  0.59904485  0.79938582  0.80503159  1
  Nb  Nb136  1  0.79850707  0.60111507  0.80116477  1
  Nb  Nb137  1  0.60357696  0.00049046  0.40204975  1
  Nb  Nb138  1  0.79992674  0.80835488  0.39920976  1
  Nb  Nb139  1  0.80153883  0.80329387  0.59288106  1
  Nb  Nb140  1  0.60395009  0.60042198  0.80068177  1
  Nb  Nb141  1  0.00110077  0.60149293  0.19409799  1
  Nb  Nb142  1  0.80246487  0.39384458  0.40343192  1
  Nb  Nb143  1  0.79074413  0.19591943  0.59424685  1
  Nb  Nb144  1  0.19597534  0.40510200  0.79912878  1
  Nb  Nb145  1  0.41200885  0.19827316  0.60559195  1
  Nb  Nb146  1  0.19827976  -0.00061334  0.40032020  1
  Nb  Nb147  1  0.40106852  0.40786065  0.39131795  1
  Nb  Nb148  1  0.79447025  0.00417725  0.59427962  1
  Nb  Nb149  1  0.60515468  0.19099997  0.19961366  1
  Pd  Pd150  1  0.00930371  0.39386750  0.79017564  1
  Pd  Pd151  1  0.59924673  0.79991954  0.00170962  1
  Pd  Pd152  1  0.19903371  0.19243168  0.00993083  1
  Pd  Pd153  1  0.59173593  0.19748105  0.39541790  1
  Pd  Pd154  1  0.00655836  -0.00477793  0.40689310  1
  Pd  Pd155  1  0.21314078  0.20762029  0.60179751  1
  Pd  Pd156  1  0.79710816  0.00346482  0.79213586  1
  Pd  Pd157  1  -0.00241378  0.01025168  0.60425086  1
  Pd  Pd158  1  0.20641977  0.00696227  0.20327110  1
  Pd  Pd159  1  0.79272164  0.40477653  0.80725776  1
  Pd  Pd160  1  -0.00085695  0.20219835  0.40247398  1
  Pd  Pd161  1  0.80984679  0.20141414  0.39612454  1
  Pd  Pd162  1  0.00709572  0.39917387  0.60688498  1
  Pd  Pd163  1  0.20046340  0.79929460  0.20118414  1
  Pd  Pd164  1  0.00734235  -0.00519762  0.79747481  1
  Pd  Pd165  1  0.40354344  0.00610368  0.80223768  1
  Pd  Pd166  1  0.21035510  0.39216917  0.20141151  1
  Pd  Pd167  1  -0.00789828  0.61178284  0.60053800  1
  Pd  Pd168  1  -0.00704853  0.79008355  0.59149994  1
  Pd  Pd169  1  -0.00772942  -0.00954516  -0.00057462  1
  Pd  Pd170  1  0.79843461  0.39388286  0.20953605  1
  Pd  Pd171  1  0.20774780  0.60594893  0.59293612  1
  Pd  Pd172  1  0.20123911  0.39436805  -0.00851300  1
  Pd  Pd173  1  0.19924095  0.59692130  0.39984413  1
  Pd  Pd174  1  0.80758933  0.00211280  0.20605898  1
  Pd  Pd175  1  0.60852061  0.40634378  0.80945849  1
  Pd  Pd176  1  0.81111695  0.80823281  0.00335157  1
  Pd  Pd177  1  0.20732154  0.00756527  0.00405625  1
  Pd  Pd178  1  0.39510991  0.00413653  -0.00276422  1
  Pd  Pd179  1  0.00465101  0.40312591  0.00168620  1
  Pd  Pd180  1  0.58898348  0.59174211  0.60490911  1
  Pd  Pd181  1  0.20820997  -0.00040515  0.59538857  1
  Pd  Pd182  1  0.60274704  0.39966078  0.59234196  1
  Pd  Pd183  1  0.58875480  -0.00228431  -0.00544096  1
  Pd  Pd184  1  0.39404614  0.60562954  0.00192263  1
  Pd  Pd185  1  -0.00659193  0.81387296  -0.00544204  1
  Pd  Pd186  1  -0.01021779  0.19647707  0.60474460  1
  Pd  Pd187  1  0.20452502  0.19264407  0.39468993  1
  Pd  Pd188  1  0.59778577  0.79759351  0.20406491  1
  Pd  Pd189  1  0.79240707  0.79602979  0.79726628  1
  Pd  Pd190  1  0.39004888  0.40006879  0.81475234  1
  Pd  Pd191  1  0.21041791  0.40424031  0.40318321  1
  Pd  Pd192  1  0.19321421  0.59993158  0.20127405  1
  Pd  Pd193  1  0.20166561  0.20983738  0.79549864  1
  Pd  Pd194  1  0.00427415  0.60073247  0.38933039  1
  Pd  Pd195  1  0.39968493  0.79788202  0.79738794  1
  Pd  Pd196  1  0.00801242  0.80629006  0.81145828  1
  Pd  Pd197  1  0.20534637  0.79168457  0.59536144  1
  Pd  Pd198  1  0.79820613  0.59907044  -0.00027415  1
  Pd  Pd199  1  0.20426652  0.79853922  -0.00480644  1
  Rh  Rh200  1  0.19518528  0.80434431  0.80380550  1
  Rh  Rh201  1  0.39078244  0.79192325  0.60502828  1
  Rh  Rh202  1  0.58987575  -0.00862822  0.80913685  1
  Rh  Rh203  1  -0.00372111  0.00039419  0.19495870  1
  Rh  Rh204  1  0.19431739  0.60416611  0.80526421  1
  Rh  Rh205  1  0.39748100  0.40148362  0.58607244  1
  Rh  Rh206  1  0.00527398  0.79263320  0.20612305  1
  Rh  Rh207  1  0.80842515  -0.00603423  0.00216172  1
  Rh  Rh208  1  0.19931654  0.60608543  -0.00396273  1
  Rh  Rh209  1  0.00315965  0.41477584  0.19345696  1
  Rh  Rh210  1  0.79836920  0.80329899  0.19981976  1
  Rh  Rh211  1  0.39238474  0.19040334  -0.00820023  1
  Rh  Rh212  1  0.60410385  0.40221779  0.40148794  1
  Rh  Rh213  1  0.18899279  0.80778384  0.40564289  1
  Rh  Rh214  1  0.39436126  0.00703068  0.60184844  1
  Rh  Rh215  1  0.79520928  0.19387876  0.80000666  1
  Rh  Rh216  1  0.40081918  0.59937516  0.19668871  1
  Rh  Rh217  1  0.40059505  -0.00525092  0.40587903  1
  Rh  Rh218  1  0.40400241  0.59781494  0.40705997  1
  Rh  Rh219  1  0.41210838  0.80036846  0.40122625  1
  Rh  Rh220  1  0.40227862  0.19481972  0.79515704  1
  Rh  Rh221  1  0.79157196  0.38709866  -0.00649691  1
  Rh  Rh222  1  0.60326813  0.80965565  0.60325650  1
  Rh  Rh223  1  0.00606388  0.59170504  0.00554674  1
  Rh  Rh224  1  0.59845988  0.20701152  0.59639733  1
  Rh  Rh225  1  0.60005795  0.60821475  0.39958293  1
  Rh  Rh226  1  0.79720032  0.38809771  0.58980126  1
  Rh  Rh227  1  0.00324285  0.20129518  0.79784359  1
  Rh  Rh228  1  0.58997656  0.00408896  0.20771553  1
  Rh  Rh229  1  -0.00133844  0.60603641  0.80303785  1
  Rh  Rh230  1  0.00048723  0.19002119  0.19608186  1
  Rh  Rh231  1  0.60568364  0.59601115  0.00156704  1
  Rh  Rh232  1  0.60104073  0.61048765  0.19470695  1
  Rh  Rh233  1  0.59598203  0.19748646  0.80178304  1
  Rh  Rh234  1  0.39617751  -0.00725511  0.20004200  1
  Rh  Rh235  1  0.40522364  0.60109006  0.79582932  1
  Rh  Rh236  1  0.60045850  -0.00391084  0.59405785  1
  Rh  Rh237  1  0.81250030  0.61281595  0.61187741  1
  Rh  Rh238  1  -0.00662486  0.19992428  -0.00195262  1
  Rh  Rh239  1  0.40852046  0.20917201  0.41196138  1
  Rh  Rh240  1  0.58713191  0.38654817  0.18803726  1
  Rh  Rh241  1  0.39574567  0.79801215  0.20011043  1
  Rh  Rh242  1  0.39699274  0.21015804  0.19914019  1
  Rh  Rh243  1  0.19484209  -0.00362128  0.79585190  1
  Rh  Rh244  1  0.60859332  0.20385333  0.00880448  1
  Rh  Rh245  1  0.40050515  0.40108531  0.00110569  1
  Rh  Rh246  1  0.79481226  0.58857515  0.39346076  1
  Rh  Rh247  1  -0.00590644  0.40476569  0.40238404  1
  Rh  Rh248  1  0.80525104  0.59296901  0.19730462  1
  Rh  Rh249  1  0.39279669  0.79735462  0.00404453  1
