# generated using pymatgen
data_ZrScNbPdRh
_symmetry_space_group_name_H-M   'P 1'
_cell_length_a   16.56595408
_cell_length_b   16.55912522
_cell_length_c   16.56309856
_cell_angle_alpha   89.98009021
_cell_angle_beta   90.03249401
_cell_angle_gamma   89.99977943
_symmetry_Int_Tables_number   1
_chemical_formula_structural   ZrScNbPdRh
_chemical_formula_sum   'Zr50 Sc50 Nb50 Pd50 Rh50'
_cell_volume   4543.55022970
_cell_formula_units_Z   50
loop_
 _symmetry_equiv_pos_site_id
 _symmetry_equiv_pos_as_xyz
  1  'x, y, z'
loop_
 _atom_site_type_symbol
 _atom_site_label
 _atom_site_symmetry_multiplicity
 _atom_site_fract_x
 _atom_site_fract_y
 _atom_site_fract_z
 _atom_site_occupancy
  Zr  Zr0  1  0.49618148  0.10011862  0.90205320  1
  Zr  Zr1  1  0.89465100  0.50096868  0.69187495  1
  Zr  Zr2  1  0.70103987  0.09576712  0.69618097  1
  Zr  Zr3  1  0.70733649  0.90161966  0.29787331  1
  Zr  Zr4  1  0.10062251  0.29659733  0.68543214  1
  Zr  Zr5  1  0.49380073  0.29501453  0.50473471  1
  Zr  Zr6  1  0.10799796  0.50013615  0.30429987  1
  Zr  Zr7  1  0.50433958  0.09150630  0.10252906  1
  Zr  Zr8  1  0.09867843  0.90084792  0.50050816  1
  Zr  Zr9  1  0.50243177  0.49680517  0.49948620  1
  Zr  Zr10  1  0.89897203  0.49831037  0.89212817  1
  Zr  Zr11  1  0.69960247  0.10919555  0.88629062  1
  Zr  Zr12  1  0.70739259  0.89581798  0.90722727  1
  Zr  Zr13  1  0.89826467  0.09847137  0.70272428  1
  Zr  Zr14  1  0.50206538  0.29540937  0.90128788  1
  Zr  Zr15  1  0.70354243  0.50471743  0.70234556  1
  Zr  Zr16  1  0.88640374  0.90111873  0.10264025  1
  Zr  Zr17  1  0.51047250  0.10038857  0.69769843  1
  Zr  Zr18  1  0.29731545  0.29796636  0.49927331  1
  Zr  Zr19  1  0.29137759  0.70520964  0.89783949  1
  Zr  Zr20  1  0.11103870  0.69779089  0.69648319  1
  Zr  Zr21  1  0.50946127  0.50658268  0.10031521  1
  Zr  Zr22  1  0.49336356  0.30607585  0.69711914  1
  Zr  Zr23  1  0.90099082  0.89690403  0.71013239  1
  Zr  Zr24  1  0.30248047  0.89867807  0.90168531  1
  Zr  Zr25  1  0.49570060  0.89673505  0.49800238  1
  Zr  Zr26  1  0.31239171  0.10009450  0.49916759  1
  Zr  Zr27  1  0.09336416  0.50570375  0.69760367  1
  Zr  Zr28  1  0.09374300  0.30094412  0.90494522  1
  Zr  Zr29  1  0.51079464  0.30713725  0.29895680  1
  Zr  Zr30  1  0.70413791  0.30266160  0.10960510  1
  Zr  Zr31  1  0.09530383  0.49879246  0.09716039  1
  Zr  Zr32  1  0.30133887  0.50243558  0.69367136  1
  Zr  Zr33  1  0.10384285  0.09730141  0.49904214  1
  Zr  Zr34  1  0.29679639  0.70352132  0.50891956  1
  Zr  Zr35  1  0.70664059  0.90013949  0.70191457  1
  Zr  Zr36  1  0.30598004  0.29435468  0.90077009  1
  Zr  Zr37  1  0.69716229  0.49344885  0.29773057  1
  Zr  Zr38  1  0.90034815  0.10165440  0.09610881  1
  Zr  Zr39  1  0.69761448  0.30512650  0.90266494  1
  Zr  Zr40  1  0.89504655  0.69841739  0.10708358  1
  Zr  Zr41  1  0.30065850  0.09751803  0.90221560  1
  Zr  Zr42  1  0.70572885  0.89436914  0.50292352  1
  Zr  Zr43  1  0.09889022  0.89558978  0.89571917  1
  Zr  Zr44  1  0.70166100  0.29715603  0.70469131  1
  Zr  Zr45  1  0.28834854  0.50744565  0.10486722  1
  Zr  Zr46  1  0.30102766  0.88748586  0.69941808  1
  Zr  Zr47  1  0.09720469  0.09474274  0.69403788  1
  Zr  Zr48  1  0.29634012  0.70695565  0.09758590  1
  Zr  Zr49  1  0.49611353  0.90458463  0.29000202  1
  Sc  Sc50  1  0.08722734  0.70301189  0.30207266  1
  Sc  Sc51  1  0.09815389  0.50552276  0.89636429  1
  Sc  Sc52  1  0.90343503  0.50747332  0.29529620  1
  Sc  Sc53  1  0.68898311  0.30964780  0.50321583  1
  Sc  Sc54  1  0.29184665  0.50415936  0.89732945  1
  Sc  Sc55  1  0.69971084  0.50583929  0.10479368  1
  Sc  Sc56  1  0.50212984  0.50919448  0.29822705  1
  Sc  Sc57  1  0.10659471  0.89572790  0.10996691  1
  Sc  Sc58  1  0.89647566  0.31006556  0.70062705  1
  Sc  Sc59  1  0.89865206  0.88957882  0.50965062  1
  Sc  Sc60  1  0.09662458  0.50045755  0.49659752  1
  Sc  Sc61  1  0.30176777  0.10797421  0.10174037  1
  Sc  Sc62  1  0.70488058  0.09468048  0.10539574  1
  Sc  Sc63  1  0.71129064  0.70622311  0.30361842  1
  Sc  Sc64  1  0.89861916  0.30315241  0.29398639  1
  Sc  Sc65  1  0.30155677  0.90288325  0.50717751  1
  Sc  Sc66  1  0.10314485  0.09555721  0.09901610  1
  Sc  Sc67  1  0.30615624  0.29905656  0.68872661  1
  Sc  Sc68  1  0.89632425  0.10067504  0.90304769  1
  Sc  Sc69  1  0.69880409  0.50531184  0.90575781  1
  Sc  Sc70  1  0.49519940  0.70503230  0.30304326  1
  Sc  Sc71  1  0.89984353  0.70127052  0.69893360  1
  Sc  Sc72  1  0.09917087  0.89875555  0.69799063  1
  Sc  Sc73  1  0.10047717  0.30344153  0.09302522  1
  Sc  Sc74  1  0.70273208  0.69811942  0.09918002  1
  Sc  Sc75  1  0.49830585  0.70703731  0.10012780  1
  Sc  Sc76  1  0.91162023  0.09783405  0.50189692  1
  Sc  Sc77  1  0.29898682  0.90436192  0.29062258  1
  Sc  Sc78  1  0.30423590  0.69396651  0.30104379  1
  Sc  Sc79  1  0.29725822  0.29401938  0.29245086  1
  Sc  Sc80  1  0.48794550  0.69826194  0.49852461  1
  Sc  Sc81  1  0.89811180  0.70282451  0.30225903  1
  Sc  Sc82  1  0.89623063  0.69664029  0.49998312  1
  Sc  Sc83  1  0.29888471  0.09254046  0.69428561  1
  Sc  Sc84  1  0.10006735  0.09087296  0.90235480  1
  Sc  Sc85  1  0.10023289  0.29971345  0.49823669  1
  Sc  Sc86  1  0.90885009  0.09022658  0.29789027  1
  Sc  Sc87  1  0.70647008  0.50460858  0.51103474  1
  Sc  Sc88  1  0.10563099  0.70006490  0.09949505  1
  Sc  Sc89  1  0.48836471  0.10093182  0.29305800  1
  Sc  Sc90  1  0.51015147  0.29223062  0.09746854  1
  Sc  Sc91  1  0.69907940  0.29965885  0.29384094  1
  Sc  Sc92  1  0.89950036  0.29541414  0.90122506  1
  Sc  Sc93  1  0.50764013  0.49904442  0.90441812  1
  Sc  Sc94  1  0.70395263  0.69701158  0.90160308  1
  Sc  Sc95  1  0.29452525  0.50871054  0.49278382  1
  Sc  Sc96  1  0.09921903  0.30352824  0.30531486  1
  Sc  Sc97  1  0.91253874  0.30104734  0.50278607  1
  Sc  Sc98  1  0.09003091  0.69648897  0.50381490  1
  Sc  Sc99  1  0.10226276  0.70080120  0.89928763  1
  Nb  Nb100  1  0.30235219  0.69689080  0.69725983  1
  Nb  Nb101  1  0.50227348  0.89348451  0.70532259  1
  Nb  Nb102  1  0.31201364  0.88986529  0.09926600  1
  Nb  Nb103  1  0.89855543  0.50123853  0.50357132  1
  Nb  Nb104  1  0.09156411  0.91347002  0.30302976  1
  Nb  Nb105  1  0.89992028  0.49619476  0.10293830  1
  Nb  Nb106  1  0.50468997  0.10003424  0.50001377  1
  Nb  Nb107  1  0.49792295  0.69709277  0.69941494  1
  Nb  Nb108  1  0.30147488  0.30445118  0.09466825  1
  Nb  Nb109  1  0.49896123  0.70052630  0.90299691  1
  Nb  Nb110  1  0.69817734  0.09601499  0.50474650  1
  Nb  Nb111  1  0.69953357  0.09890491  0.30358178  1
  Nb  Nb112  1  0.10135196  0.08645850  0.29774262  1
  Nb  Nb113  1  0.70250508  0.70609947  0.50081307  1
  Nb  Nb114  1  0.69506498  0.69917502  0.69798366  1
  Nb  Nb115  1  0.69562736  0.90640486  0.10309133  1
  Nb  Nb116  1  0.90323484  0.90060334  0.29852042  1
  Nb  Nb117  1  0.89770517  0.71274626  0.90864675  1
  Nb  Nb118  1  0.50297675  0.90258466  0.09470806  1
  Nb  Nb119  1  0.30005853  0.49712323  0.30190321  1
  Nb  Nb120  1  0.90161805  0.88882583  0.90408004  1
  Nb  Nb121  1  0.29416619  0.10069822  0.29601368  1
  Nb  Nb122  1  0.90625991  0.30010395  0.09696239  1
  Nb  Nb123  1  0.49766759  0.50480871  0.69800077  1
  Nb  Nb124  1  0.49934611  0.89460230  0.90699791  1
  Nb  Nb125  1  0.60096010  0.00334556  0.40157558  1
  Nb  Nb126  1  0.59625117  0.40436304  0.79507108  1
  Nb  Nb127  1  0.19844561  0.39282948  0.79510752  1
  Nb  Nb128  1  0.79473589  0.19746602  0.40470747  1
  Nb  Nb129  1  -0.00605192  -0.01259297  -0.00047366  1
  Nb  Nb130  1  0.79604947  0.19789109  0.59262935  1
  Nb  Nb131  1  0.79776602  0.00267142  0.40287259  1
  Nb  Nb132  1  0.39649444  0.40148212  0.39191541  1
  Nb  Nb133  1  0.60714644  0.60584027  0.40617790  1
  Nb  Nb134  1  0.40473254  0.60528807  0.79861697  1
  Nb  Nb135  1  0.80711155  0.40014997  0.00874231  1
  Nb  Nb136  1  0.39619666  0.40335455  0.19582733  1
  Nb  Nb137  1  0.00314016  0.19828086  0.19744306  1
  Nb  Nb138  1  0.19630473  0.20243894  0.79779872  1
  Nb  Nb139  1  0.20025992  0.18698421  0.39312325  1
  Nb  Nb140  1  0.39725276  0.40363810  0.00714967  1
  Nb  Nb141  1  0.59339818  0.79688062  0.80018318  1
  Nb  Nb142  1  0.59763899  0.79412598  0.60572498  1
  Nb  Nb143  1  -0.01042823  0.60193735  0.00086663  1
  Nb  Nb144  1  0.39871480  0.60199342  -0.00386921  1
  Nb  Nb145  1  0.60224760  0.81185600  0.19600204  1
  Nb  Nb146  1  0.00620297  0.19841113  0.79662261  1
  Nb  Nb147  1  0.80107573  0.39887766  0.40254049  1
  Nb  Nb148  1  0.60165591  0.19103428  0.40335885  1
  Nb  Nb149  1  0.19334220  0.80690166  0.39765422  1
  Pd  Pd150  1  0.40383759  -0.00054403  0.79548115  1
  Pd  Pd151  1  0.20841217  -0.00327601  0.19019123  1
  Pd  Pd152  1  0.60421627  0.79437492  0.00183565  1
  Pd  Pd153  1  0.59582601  0.59962523  0.80521730  1
  Pd  Pd154  1  0.00217832  0.19515080  0.38967761  1
  Pd  Pd155  1  0.19419534  0.61357913  0.39896850  1
  Pd  Pd156  1  -0.00569987  -0.00843288  0.59902186  1
  Pd  Pd157  1  0.80433896  0.60938194  0.80053768  1
  Pd  Pd158  1  0.59884388  0.79891085  0.39801488  1
  Pd  Pd159  1  0.39909445  0.59982617  0.19465151  1
  Pd  Pd160  1  0.60779157  0.00674919  -0.00947908  1
  Pd  Pd161  1  0.40073139  -0.00114297  0.39497326  1
  Pd  Pd162  1  -0.00192945  0.80229952  0.40370810  1
  Pd  Pd163  1  0.40003917  0.41181906  0.80950053  1
  Pd  Pd164  1  0.80918934  0.19351263  0.20798891  1
  Pd  Pd165  1  0.38492618  0.80573117  0.39486995  1
  Pd  Pd166  1  0.60613755  0.61843812  0.21044455  1
  Pd  Pd167  1  0.39433941  0.19212819  0.78945567  1
  Pd  Pd168  1  0.21029507  -0.00345369  0.40219777  1
  Pd  Pd169  1  0.19760974  0.79844639  0.21405926  1
  Pd  Pd170  1  0.80576392  -0.00324961  0.81047883  1
  Pd  Pd171  1  0.00338764  0.60131051  0.19716916  1
  Pd  Pd172  1  0.40113390  0.20504759  0.39075133  1
  Pd  Pd173  1  0.59728421  -0.00985214  0.81003176  1
  Pd  Pd174  1  0.19613059  0.19769879  -0.00398476  1
  Pd  Pd175  1  0.40339149  0.20720519  0.19546888  1
  Pd  Pd176  1  0.00341911  0.39473301  0.20280552  1
  Pd  Pd177  1  0.40678420  -0.00287385  0.60865066  1
  Pd  Pd178  1  0.79387748  0.20533581  0.00096292  1
  Pd  Pd179  1  0.39552503  -0.00017401  0.00643762  1
  Pd  Pd180  1  0.20298030  0.40330550  -0.00895486  1
  Pd  Pd181  1  0.19426906  0.60977442  0.20934882  1
  Pd  Pd182  1  0.79709282  0.59283440  0.40014019  1
  Pd  Pd183  1  0.59843199  0.60664358  0.59165534  1
  Pd  Pd184  1  0.61018816  0.19061143  0.00670950  1
  Pd  Pd185  1  0.60154059  0.40347098  0.60883345  1
  Pd  Pd186  1  -0.00820894  0.40684013  0.39754332  1
  Pd  Pd187  1  0.00511291  0.79856727  0.01171169  1
  Pd  Pd188  1  0.19918474  0.40777060  0.59734490  1
  Pd  Pd189  1  -0.00666090  0.61175746  0.80605762  1
  Pd  Pd190  1  0.20241341  0.00018520  0.79565456  1
  Pd  Pd191  1  0.19913861  0.39328233  0.20217885  1
  Pd  Pd192  1  0.18891891  0.20430011  0.20163745  1
  Pd  Pd193  1  0.80473820  0.59426398  0.00162159  1
  Pd  Pd194  1  0.40283810  0.79439158  0.80332992  1
  Pd  Pd195  1  0.59618101  -0.01205631  0.59641345  1
  Pd  Pd196  1  -0.00106036  0.80415060  0.19818704  1
  Pd  Pd197  1  0.00567919  0.79067196  0.79449133  1
  Pd  Pd198  1  0.00543422  0.39394265  0.79492481  1
  Pd  Pd199  1  0.19922447  -0.00910908  0.00892972  1
  Rh  Rh200  1  0.00059177  0.79659640  0.60535093  1
  Rh  Rh201  1  0.59306571  0.20781430  0.79458814  1
  Rh  Rh202  1  -0.00680692  0.00340457  0.81258836  1
  Rh  Rh203  1  0.80548731  0.40292198  0.20019030  1
  Rh  Rh204  1  0.80012344  0.00028794  -0.00486074  1
  Rh  Rh205  1  -0.01180034  0.20255997  0.60873895  1
  Rh  Rh206  1  0.20281658  -0.00319576  0.59954243  1
  Rh  Rh207  1  0.40103043  0.79605052  -0.00080237  1
  Rh  Rh208  1  0.81154405  0.80748216  0.39961250  1
  Rh  Rh209  1  0.40394574  0.20233435  0.00852246  1
  Rh  Rh210  1  0.19698959  0.80085251  0.79547933  1
  Rh  Rh211  1  0.39899343  0.59799577  0.60009905  1
  Rh  Rh212  1  0.80377495  0.00410385  0.20698798  1
  Rh  Rh213  1  0.20601660  0.59467715  0.79446036  1
  Rh  Rh214  1  0.79719298  0.79221628  0.60875960  1
  Rh  Rh215  1  0.81036251  0.00597339  0.59437945  1
  Rh  Rh216  1  0.19821954  0.80737060  0.00018226  1
  Rh  Rh217  1  0.20673848  0.38980292  0.39792878  1
  Rh  Rh218  1  -0.00232012  0.00126056  0.18875591  1
  Rh  Rh219  1  0.40582190  0.79949303  0.60188072  1
  Rh  Rh220  1  0.19739059  0.59753119  0.59484647  1
  Rh  Rh221  1  0.00479158  0.18815280  0.00026197  1
  Rh  Rh222  1  0.19550074  0.80114345  0.59433552  1
  Rh  Rh223  1  0.60317137  0.20412305  0.59855507  1
  Rh  Rh224  1  0.79058804  0.40260727  0.81054631  1
  Rh  Rh225  1  0.79869603  0.59835150  0.20376679  1
  Rh  Rh226  1  -0.01056996  -0.00611088  0.40510176  1
  Rh  Rh227  1  0.40315752  0.19100480  0.60584072  1
  Rh  Rh228  1  0.79470045  0.80010796  0.19832388  1
  Rh  Rh229  1  0.59908630  0.19027541  0.20590659  1
  Rh  Rh230  1  0.59611846  0.60794751  0.00093635  1
  Rh  Rh231  1  -0.00314616  0.59533349  0.40089007  1
  Rh  Rh232  1  0.40624958  0.79980528  0.19772219  1
  Rh  Rh233  1  0.80123912  0.60796910  0.60120403  1
  Rh  Rh234  1  0.79366613  0.79909127  0.00827689  1
  Rh  Rh235  1  -0.00758925  0.41120957  -0.00237232  1
  Rh  Rh236  1  0.60452014  0.40081947  0.00097547  1
  Rh  Rh237  1  0.81047426  0.20463078  0.79261635  1
  Rh  Rh238  1  0.80471899  0.39076868  0.58803172  1
  Rh  Rh239  1  0.39427866  0.41021879  0.58505650  1
  Rh  Rh240  1  0.60030153  -0.00045189  0.20557437  1
  Rh  Rh241  1  0.40669989  0.59159544  0.40067658  1
  Rh  Rh242  1  0.20498708  0.19178315  0.59335886  1
  Rh  Rh243  1  -0.00014027  0.40555014  0.59705247  1
  Rh  Rh244  1  0.59430074  0.40152207  0.19293469  1
  Rh  Rh245  1  0.79365130  0.79391492  0.79907713  1
  Rh  Rh246  1  0.19336342  0.60051616  -0.00202605  1
  Rh  Rh247  1  -0.00529740  0.59944237  0.59748966  1
  Rh  Rh248  1  0.60212025  0.40554243  0.40010468  1
  Rh  Rh249  1  0.39111058  0.00086011  0.18950371  1
