# generated using pymatgen
data_ZrScNbPdRh
_symmetry_space_group_name_H-M   'P 1'
_cell_length_a   16.56547328
_cell_length_b   16.57175856
_cell_length_c   16.56389290
_cell_angle_alpha   89.99484060
_cell_angle_beta   89.98148537
_cell_angle_gamma   89.96965851
_symmetry_Int_Tables_number   1
_chemical_formula_structural   ZrScNbPdRh
_chemical_formula_sum   'Zr50 Sc50 Nb50 Pd50 Rh50'
_cell_volume   4547.10281326
_cell_formula_units_Z   50
loop_
 _symmetry_equiv_pos_site_id
 _symmetry_equiv_pos_as_xyz
  1  'x, y, z'
loop_
 _atom_site_type_symbol
 _atom_site_label
 _atom_site_symmetry_multiplicity
 _atom_site_fract_x
 _atom_site_fract_y
 _atom_site_fract_z
 _atom_site_occupancy
  Zr  Zr0  1  0.50226800  0.90550504  0.70308771  1
  Zr  Zr1  1  0.91273195  0.30841901  0.10585536  1
  Zr  Zr2  1  0.09868505  0.29385617  0.50024107  1
  Zr  Zr3  1  0.69448096  0.30280716  0.90038063  1
  Zr  Zr4  1  0.50200295  0.10089862  0.49683691  1
  Zr  Zr5  1  0.10228080  0.69525905  0.90292108  1
  Zr  Zr6  1  0.70549278  0.30137947  0.30561181  1
  Zr  Zr7  1  0.89933323  0.50107901  0.70493516  1
  Zr  Zr8  1  0.49272316  0.30468337  0.09728065  1
  Zr  Zr9  1  0.10521413  0.49281709  0.30147329  1
  Zr  Zr10  1  0.50206984  0.91064498  0.50169412  1
  Zr  Zr11  1  0.90954791  0.70263751  0.10187044  1
  Zr  Zr12  1  0.51105194  0.90255004  0.10128910  1
  Zr  Zr13  1  0.09429097  0.49557911  0.08907361  1
  Zr  Zr14  1  0.29866111  0.30147318  0.71005803  1
  Zr  Zr15  1  0.70008543  0.69372749  0.50257833  1
  Zr  Zr16  1  0.10856994  0.30524796  0.89622096  1
  Zr  Zr17  1  0.69896801  0.10636735  0.50959052  1
  Zr  Zr18  1  0.29294618  0.69251250  0.50531043  1
  Zr  Zr19  1  0.70523545  0.70877715  0.10402017  1
  Zr  Zr20  1  0.69997506  0.50194212  0.69475015  1
  Zr  Zr21  1  0.90373101  0.10260538  0.30620276  1
  Zr  Zr22  1  0.29018263  0.89896691  0.89203403  1
  Zr  Zr23  1  0.49824923  0.69548482  0.89542534  1
  Zr  Zr24  1  0.09404362  0.09376825  0.88533465  1
  Zr  Zr25  1  0.69315915  0.89893383  0.29551680  1
  Zr  Zr26  1  0.70677332  0.69594055  0.69980759  1
  Zr  Zr27  1  0.90132637  0.70060089  0.50427861  1
  Zr  Zr28  1  0.09974543  0.69453506  0.49283714  1
  Zr  Zr29  1  0.90429446  0.89070582  0.70215832  1
  Zr  Zr30  1  0.70157618  0.50410645  0.49605320  1
  Zr  Zr31  1  0.11014322  0.49941289  0.50109836  1
  Zr  Zr32  1  0.30108461  0.50013118  0.69101979  1
  Zr  Zr33  1  0.90591527  0.50404417  0.10104550  1
  Zr  Zr34  1  0.49182746  0.30722369  0.70390110  1
  Zr  Zr35  1  0.49466390  0.09856358  0.30536519  1
  Zr  Zr36  1  0.30383513  0.09935494  0.50125446  1
  Zr  Zr37  1  0.29658367  0.69141574  0.89951412  1
  Zr  Zr38  1  0.30528663  0.29806441  0.09567681  1
  Zr  Zr39  1  0.50638434  0.90415040  0.30129060  1
  Zr  Zr40  1  0.28672540  0.90824599  0.10324067  1
  Zr  Zr41  1  0.29205987  0.09701761  0.70166693  1
  Zr  Zr42  1  0.71278976  0.10812201  0.90829896  1
  Zr  Zr43  1  0.89329706  0.29444710  0.89347674  1
  Zr  Zr44  1  0.90521494  0.70248965  0.30018113  1
  Zr  Zr45  1  0.69381091  0.91427659  0.90863147  1
  Zr  Zr46  1  0.69517964  0.50018943  0.11267839  1
  Zr  Zr47  1  0.10257964  0.49294117  0.70366436  1
  Zr  Zr48  1  0.10390665  0.30592773  0.09950366  1
  Zr  Zr49  1  0.29454558  0.90390681  0.30100827  1
  Sc  Sc50  1  0.49528649  0.28707381  0.49821721  1
  Sc  Sc51  1  0.30626861  0.49486197  0.09438844  1
  Sc  Sc52  1  0.49751842  0.51269062  0.29209936  1
  Sc  Sc53  1  0.29968255  0.29824038  0.50401660  1
  Sc  Sc54  1  0.29752869  0.49241732  0.29256622  1
  Sc  Sc55  1  0.29574633  0.30325812  0.29844210  1
  Sc  Sc56  1  0.68821765  0.30046555  0.09917670  1
  Sc  Sc57  1  0.89287397  0.09402821  0.09164602  1
  Sc  Sc58  1  0.90660630  0.30033999  0.69741650  1
  Sc  Sc59  1  0.49987897  0.49569414  0.89846218  1
  Sc  Sc60  1  0.29303033  0.70239019  0.30159490  1
  Sc  Sc61  1  0.30407967  0.30067991  0.90060697  1
  Sc  Sc62  1  0.10003747  0.50380808  0.89860886  1
  Sc  Sc63  1  0.10642724  0.08809176  0.08825396  1
  Sc  Sc64  1  0.49455038  0.50757875  0.50330609  1
  Sc  Sc65  1  0.71333356  0.30070480  0.69428262  1
  Sc  Sc66  1  0.10822870  0.90336074  0.70699589  1
  Sc  Sc67  1  0.50233873  0.09750494  0.69178021  1
  Sc  Sc68  1  0.70458834  0.90538715  0.10264878  1
  Sc  Sc69  1  0.89642645  0.50435834  0.49801096  1
  Sc  Sc70  1  0.49482390  0.49664786  0.09930445  1
  Sc  Sc71  1  0.70004973  0.70692065  0.89470339  1
  Sc  Sc72  1  0.09548555  0.70239072  0.30399274  1
  Sc  Sc73  1  0.49805728  0.10927560  0.10839230  1
  Sc  Sc74  1  0.29038140  0.10733583  0.90146238  1
  Sc  Sc75  1  0.90711355  0.90038214  0.90136553  1
  Sc  Sc76  1  0.69300767  0.49833941  0.88675320  1
  Sc  Sc77  1  0.89817752  0.89600952  0.29380197  1
  Sc  Sc78  1  0.09662760  0.89851690  0.89730549  1
  Sc  Sc79  1  0.10578152  0.69425609  0.71202918  1
  Sc  Sc80  1  0.49907605  0.69159700  0.49127188  1
  Sc  Sc81  1  0.49959084  0.30781561  0.90039869  1
  Sc  Sc82  1  0.89475751  0.89175208  0.10018555  1
  Sc  Sc83  1  0.50809798  0.89649103  0.89944343  1
  Sc  Sc84  1  0.09559649  0.89200856  0.09471434  1
  Sc  Sc85  1  0.49770869  0.68877787  0.10314735  1
  Sc  Sc86  1  0.88651534  0.29827137  0.50234139  1
  Sc  Sc87  1  0.89354622  0.50048584  0.29701295  1
  Sc  Sc88  1  0.68674655  0.69580718  0.29970655  1
  Sc  Sc89  1  0.70408658  0.90392488  0.69437010  1
  Sc  Sc90  1  0.49537868  0.28887433  0.29725112  1
  Sc  Sc91  1  0.09080063  0.10979024  0.31261414  1
  Sc  Sc92  1  0.69377992  0.09789645  0.30197068  1
  Sc  Sc93  1  0.10262022  0.89338405  0.50459607  1
  Sc  Sc94  1  0.51297897  0.08884450  0.89880021  1
  Sc  Sc95  1  0.10045147  0.89352913  0.30093760  1
  Sc  Sc96  1  0.50021226  0.50114363  0.70575870  1
  Sc  Sc97  1  0.09990064  0.29885539  0.29607532  1
  Sc  Sc98  1  0.90490298  0.89749686  0.51530366  1
  Sc  Sc99  1  0.90620261  0.70472131  0.88969731  1
  Nb  Nb100  1  0.70166518  0.09878559  0.70463481  1
  Nb  Nb101  1  0.29716401  0.70022297  0.09271487  1
  Nb  Nb102  1  0.90162703  0.70126708  0.69884930  1
  Nb  Nb103  1  0.90637148  0.29561699  0.29928931  1
  Nb  Nb104  1  0.70107218  0.89994533  0.49951135  1
  Nb  Nb105  1  0.50154758  0.70701217  0.70366024  1
  Nb  Nb106  1  0.30038302  0.89936008  0.69510556  1
  Nb  Nb107  1  0.69325569  0.49821487  0.30193640  1
  Nb  Nb108  1  0.70340011  0.09887520  0.09788473  1
  Nb  Nb109  1  0.29830846  0.49967301  0.89970875  1
  Nb  Nb110  1  0.30284109  0.49703284  0.49889879  1
  Nb  Nb111  1  0.09304902  0.10145168  0.50157174  1
  Nb  Nb112  1  0.90738905  0.10193624  0.70515305  1
  Nb  Nb113  1  0.30147323  0.09883893  0.29478340  1
  Nb  Nb114  1  0.09009070  0.11175552  0.69512997  1
  Nb  Nb115  1  0.10004941  0.29744875  0.69909770  1
  Nb  Nb116  1  0.90410803  0.49979524  0.90510618  1
  Nb  Nb117  1  0.30017014  0.09834694  0.10112056  1
  Nb  Nb118  1  0.91372381  0.09666008  0.50368148  1
  Nb  Nb119  1  0.10050485  0.69408823  0.09472990  1
  Nb  Nb120  1  0.90176234  0.10313840  0.89386288  1
  Nb  Nb121  1  0.29860168  0.89795984  0.50725893  1
  Nb  Nb122  1  0.49404006  0.70881722  0.29715042  1
  Nb  Nb123  1  0.69474045  0.30245743  0.49804404  1
  Nb  Nb124  1  0.30347731  0.70341068  0.70513184  1
  Nb  Nb125  1  0.60138507  0.39664056  0.59171781  1
  Nb  Nb126  1  0.79974757  0.59668398  -0.00078428  1
  Nb  Nb127  1  0.79451471  0.80414211  0.40461115  1
  Nb  Nb128  1  0.19963289  0.00539687  0.40702498  1
  Nb  Nb129  1  0.39985912  0.79890085  0.60190430  1
  Nb  Nb130  1  0.39425930  0.80238113  0.00540593  1
  Nb  Nb131  1  -0.00137678  0.00134481  0.20047398  1
  Nb  Nb132  1  0.39459450  -0.00279810  0.80083382  1
  Nb  Nb133  1  0.60736451  0.19933076  0.79651875  1
  Nb  Nb134  1  0.39744096  0.80104658  0.19887402  1
  Nb  Nb135  1  0.60769511  0.59839249  0.00105543  1
  Nb  Nb136  1  0.19703504  0.60258982  0.18767419  1
  Nb  Nb137  1  0.40145635  0.40355359  0.40323798  1
  Nb  Nb138  1  0.80614994  0.00915827  0.79882231  1
  Nb  Nb139  1  0.59727301  0.40193851  0.40127386  1
  Nb  Nb140  1  0.59535589  0.79766201  0.59977711  1
  Nb  Nb141  1  0.20426667  0.19146799  0.19455139  1
  Nb  Nb142  1  -0.00038323  0.19923718  -0.00758807  1
  Nb  Nb143  1  0.39716199  0.80364652  0.40269401  1
  Nb  Nb144  1  0.80178540  -0.00251275  0.40977900  1
  Nb  Nb145  1  0.00174336  0.60048595  0.60499930  1
  Nb  Nb146  1  -0.00275628  0.39490418  0.39943772  1
  Nb  Nb147  1  0.39537144  -0.00351348  -0.00032604  1
  Nb  Nb148  1  0.80332816  0.20148910  0.20060930  1
  Nb  Nb149  1  0.80131884  0.40839019  0.00035474  1
  Pd  Pd150  1  0.79960818  0.40139500  0.80154355  1
  Pd  Pd151  1  0.40497625  -0.00384718  0.19322754  1
  Pd  Pd152  1  0.39787617  0.19936416  0.60505192  1
  Pd  Pd153  1  0.39858635  0.59342942  0.79740160  1
  Pd  Pd154  1  0.00963267  0.59584926  0.20733689  1
  Pd  Pd155  1  0.79490096  0.81346462  0.80568722  1
  Pd  Pd156  1  0.39147347  0.59896262  0.39121065  1
  Pd  Pd157  1  -0.00784002  0.81034117  0.40281521  1
  Pd  Pd158  1  0.18998026  0.00385046  0.59604432  1
  Pd  Pd159  1  0.80400321  0.79813489  -0.00836475  1
  Pd  Pd160  1  -0.00518307  0.00089098  0.00370162  1
  Pd  Pd161  1  0.80489204  0.00441430  0.60250985  1
  Pd  Pd162  1  0.59746741  0.79611691  0.40817869  1
  Pd  Pd163  1  0.19840079  0.80174066  -0.00378886  1
  Pd  Pd164  1  0.79847289  0.60673974  0.20241713  1
  Pd  Pd165  1  0.80009585  0.39380693  0.19731951  1
  Pd  Pd166  1  0.19688571  0.79046691  0.19884424  1
  Pd  Pd167  1  0.39766979  0.80569974  0.80314554  1
  Pd  Pd168  1  0.19248729  0.19795191  0.00139018  1
  Pd  Pd169  1  0.80289275  0.40222015  0.40027311  1
  Pd  Pd170  1  0.38742164  0.60582583  0.20030670  1
  Pd  Pd171  1  0.60646915  0.19807717  0.20305653  1
  Pd  Pd172  1  0.58824503  0.39711320  0.21049549  1
  Pd  Pd173  1  0.59037768  0.60007404  0.60441981  1
  Pd  Pd174  1  0.00946244  -0.00303120  0.60806805  1
  Pd  Pd175  1  0.40851893  0.18862627  -0.01019191  1
  Pd  Pd176  1  0.59865195  0.20955748  0.61012492  1
  Pd  Pd177  1  0.00041524  -0.01171455  0.39743916  1
  Pd  Pd178  1  0.80471459  0.00682260  0.20719535  1
  Pd  Pd179  1  0.20084578  0.20086297  0.60327257  1
  Pd  Pd180  1  0.80874704  0.19518010  0.60385306  1
  Pd  Pd181  1  0.40446648  0.60673330  0.60648014  1
  Pd  Pd182  1  0.41189458  0.18756479  0.80812393  1
  Pd  Pd183  1  0.61152034  0.80476807  0.79314493  1
  Pd  Pd184  1  0.01616411  0.78971320  0.61022697  1
  Pd  Pd185  1  0.80392623  0.60074772  0.80845325  1
  Pd  Pd186  1  0.59243520  0.78855492  0.00483535  1
  Pd  Pd187  1  0.59123943  0.19740399  -0.00451150  1
  Pd  Pd188  1  0.20674788  0.59594414  0.38867368  1
  Pd  Pd189  1  0.80687161  0.21440059  0.01431948  1
  Pd  Pd190  1  0.80082852  0.19238325  0.40063721  1
  Pd  Pd191  1  0.39174159  -0.00420653  0.40192094  1
  Pd  Pd192  1  0.79834876  0.60858013  0.38920079  1
  Pd  Pd193  1  0.00029379  0.39708559  0.80389497  1
  Pd  Pd194  1  -0.00430200  0.40385813  0.59046170  1
  Pd  Pd195  1  0.19822510  0.79185221  0.60757131  1
  Pd  Pd196  1  0.00481095  0.18615064  0.18478441  1
  Pd  Pd197  1  0.18199640  0.01074978  0.21366236  1
  Pd  Pd198  1  0.20328201  0.39228922  0.59900200  1
  Pd  Pd199  1  0.20601492  0.19671654  0.39390889  1
  Rh  Rh200  1  0.39156838  0.20535311  0.39540338  1
  Rh  Rh201  1  0.60513665  0.38976680  0.78450798  1
  Rh  Rh202  1  0.39792629  -0.00159270  0.60730760  1
  Rh  Rh203  1  -0.00586306  0.38882888  -0.01415590  1
  Rh  Rh204  1  0.60174178  0.01124378  0.19510099  1
  Rh  Rh205  1  0.59727549  0.01090189  0.01231165  1
  Rh  Rh206  1  -0.00828563  0.21105497  0.41205838  1
  Rh  Rh207  1  0.59750807  0.60342575  0.19779831  1
  Rh  Rh208  1  0.00053732  0.40691035  0.21373420  1
  Rh  Rh209  1  0.40269249  0.39537411  0.20791123  1
  Rh  Rh210  1  0.40567281  0.60184872  -0.00428473  1
  Rh  Rh211  1  0.20489182  0.40390958  0.80084007  1
  Rh  Rh212  1  0.59475391  0.79564265  0.19491413  1
  Rh  Rh213  1  0.20800247  0.59319526  0.79652416  1
  Rh  Rh214  1  0.00288788  0.58772377  0.40499259  1
  Rh  Rh215  1  0.00766376  0.79936813  0.79858917  1
  Rh  Rh216  1  0.20027576  0.00344865  0.79630122  1
  Rh  Rh217  1  0.20286538  0.39628614  0.40695102  1
  Rh  Rh218  1  0.79775102  0.19581946  0.78966489  1
  Rh  Rh219  1  0.19366395  0.20130551  0.79584163  1
  Rh  Rh220  1  0.79652738  0.79498737  0.21313248  1
  Rh  Rh221  1  0.20623288  0.40425118  -0.00356940  1
  Rh  Rh222  1  0.20219646  -0.00012511  -0.00946609  1
  Rh  Rh223  1  0.59823009  0.60288058  0.80254256  1
  Rh  Rh224  1  0.59514417  0.59520912  0.39226318  1
  Rh  Rh225  1  0.61060446  0.00984380  0.40717663  1
  Rh  Rh226  1  0.40729415  0.39924934  0.59075985  1
  Rh  Rh227  1  0.19922430  0.79572510  0.79817320  1
  Rh  Rh228  1  0.39228521  0.40723777  0.80399431  1
  Rh  Rh229  1  0.60536214  0.41166401  0.00305542  1
  Rh  Rh230  1  0.00075980  0.79523188  -0.00250367  1
  Rh  Rh231  1  0.60567588  -0.00226308  0.59857396  1
  Rh  Rh232  1  0.19602458  0.60193461  0.60768036  1
  Rh  Rh233  1  0.81199165  0.59934688  0.60456419  1
  Rh  Rh234  1  0.20194605  0.59045105  0.00362810  1
  Rh  Rh235  1  -0.00484197  -0.00473064  0.79169778  1
  Rh  Rh236  1  0.60138472  0.20120022  0.39797786  1
  Rh  Rh237  1  0.60680439  0.00617222  0.79669749  1
  Rh  Rh238  1  -0.00289748  0.59895268  0.79708408  1
  Rh  Rh239  1  0.79178058  0.79546236  0.59606394  1
  Rh  Rh240  1  0.38960529  0.20205772  0.20331566  1
  Rh  Rh241  1  -0.00623356  0.20437519  0.59668725  1
  Rh  Rh242  1  0.00572911  0.80495163  0.19615362  1
  Rh  Rh243  1  0.00554572  0.20843390  0.80171798  1
  Rh  Rh244  1  0.39963245  0.40274664  -0.00656407  1
  Rh  Rh245  1  0.79534878  0.40548560  0.59673367  1
  Rh  Rh246  1  -0.00793489  0.60771506  -0.00776283  1
  Rh  Rh247  1  0.20219978  0.39996993  0.18949117  1
  Rh  Rh248  1  0.20566408  0.80666297  0.40444474  1
  Rh  Rh249  1  0.80671843  -0.00485482  -0.00625275  1
