# generated using pymatgen
data_ZrScNbPdRh
_symmetry_space_group_name_H-M   'P 1'
_cell_length_a   16.55708461
_cell_length_b   16.55514346
_cell_length_c   16.55739147
_cell_angle_alpha   90.00067744
_cell_angle_beta   90.03242496
_cell_angle_gamma   89.96553709
_symmetry_Int_Tables_number   1
_chemical_formula_structural   ZrScNbPdRh
_chemical_formula_sum   'Zr50 Sc50 Nb50 Pd50 Rh50'
_cell_volume   4538.46076699
_cell_formula_units_Z   50
loop_
 _symmetry_equiv_pos_site_id
 _symmetry_equiv_pos_as_xyz
  1  'x, y, z'
loop_
 _atom_site_type_symbol
 _atom_site_label
 _atom_site_symmetry_multiplicity
 _atom_site_fract_x
 _atom_site_fract_y
 _atom_site_fract_z
 _atom_site_occupancy
  Zr  Zr0  1  0.30253687  0.30506592  0.49477114  1
  Zr  Zr1  1  0.09745728  0.90702156  0.49663838  1
  Zr  Zr2  1  0.50347026  0.70470333  0.09888694  1
  Zr  Zr3  1  0.09628970  0.29507552  0.49261898  1
  Zr  Zr4  1  0.10535064  0.09415317  0.31307845  1
  Zr  Zr5  1  0.90566793  0.29481633  0.29917242  1
  Zr  Zr6  1  0.69618584  0.68762245  0.89894463  1
  Zr  Zr7  1  0.10060661  0.30198351  0.30222178  1
  Zr  Zr8  1  0.90007898  0.50606312  0.10715057  1
  Zr  Zr9  1  0.90339145  0.90841635  0.09969129  1
  Zr  Zr10  1  0.31203539  0.49258297  0.10047035  1
  Zr  Zr11  1  0.89646834  0.30764072  0.69965388  1
  Zr  Zr12  1  0.09856980  0.29181444  0.70302787  1
  Zr  Zr13  1  0.90342501  0.90552966  0.89864720  1
  Zr  Zr14  1  0.10093200  0.90426633  0.90417628  1
  Zr  Zr15  1  0.50638195  0.49429832  0.69614124  1
  Zr  Zr16  1  0.90469842  0.50880955  0.30351107  1
  Zr  Zr17  1  0.70230213  0.69116643  0.10053363  1
  Zr  Zr18  1  0.70246064  0.90565666  0.50447826  1
  Zr  Zr19  1  0.30406739  0.09290070  0.89694339  1
  Zr  Zr20  1  0.49856140  0.70287795  0.50064352  1
  Zr  Zr21  1  0.49541931  0.90455258  0.90085290  1
  Zr  Zr22  1  0.90350113  0.29708761  0.10409053  1
  Zr  Zr23  1  0.90457197  0.49080403  0.89723611  1
  Zr  Zr24  1  0.90144822  0.90117373  0.30285073  1
  Zr  Zr25  1  0.90460329  0.30053143  0.50030844  1
  Zr  Zr26  1  0.49341237  0.30881447  0.09912456  1
  Zr  Zr27  1  0.69993068  0.10395467  0.89130429  1
  Zr  Zr28  1  0.30921290  0.29458127  0.69309336  1
  Zr  Zr29  1  0.50590837  0.50319910  0.90267350  1
  Zr  Zr30  1  0.49347839  0.10018903  0.09868330  1
  Zr  Zr31  1  0.29734426  0.49992454  0.49746042  1
  Zr  Zr32  1  0.29331234  0.69937008  0.30061838  1
  Zr  Zr33  1  0.30110609  0.90375449  0.30746525  1
  Zr  Zr34  1  0.29754654  0.51120330  0.70266646  1
  Zr  Zr35  1  0.10417177  0.70719376  0.90269508  1
  Zr  Zr36  1  0.30205739  0.89574881  0.89845613  1
  Zr  Zr37  1  0.09980070  0.49429426  0.70808376  1
  Zr  Zr38  1  0.49959300  0.70384883  0.90365074  1
  Zr  Zr39  1  0.70450475  0.69947851  0.49795032  1
  Zr  Zr40  1  0.31298780  0.89861511  0.49796269  1
  Zr  Zr41  1  0.30115485  0.09918141  0.30103291  1
  Zr  Zr42  1  0.30036063  0.49684950  0.30025925  1
  Zr  Zr43  1  0.30269560  0.70118392  0.88842710  1
  Zr  Zr44  1  0.10684145  0.89959287  0.29771017  1
  Zr  Zr45  1  0.50090217  0.10767747  0.70137369  1
  Zr  Zr46  1  0.29914180  0.29620997  0.29613178  1
  Zr  Zr47  1  0.09348323  0.29900568  0.10183250  1
  Zr  Zr48  1  0.69458190  0.29455026  0.29291020  1
  Zr  Zr49  1  0.71078658  0.69529636  0.70051637  1
  Sc  Sc50  1  0.30388961  0.69471488  0.10348643  1
  Sc  Sc51  1  0.10139495  0.70280471  0.70158728  1
  Sc  Sc52  1  0.49741619  0.30124766  0.30039813  1
  Sc  Sc53  1  0.10036316  0.50497949  0.30436245  1
  Sc  Sc54  1  0.30511317  0.10410406  0.69773234  1
  Sc  Sc55  1  0.09737637  0.49874976  0.49202443  1
  Sc  Sc56  1  0.50755180  0.69375290  0.29701031  1
  Sc  Sc57  1  0.70061272  0.90261602  0.69523273  1
  Sc  Sc58  1  0.89608546  0.49821900  0.50156791  1
  Sc  Sc59  1  0.29784253  0.09787331  0.10598510  1
  Sc  Sc60  1  0.68943106  0.50500906  0.30395327  1
  Sc  Sc61  1  0.69626605  0.29763056  0.70221444  1
  Sc  Sc62  1  0.30026868  0.29698798  0.88791952  1
  Sc  Sc63  1  0.89817796  0.89303236  0.69772425  1
  Sc  Sc64  1  0.10234569  0.69425615  0.49541921  1
  Sc  Sc65  1  0.90061330  0.29362207  0.90095431  1
  Sc  Sc66  1  0.09302409  0.49189255  0.10483122  1
  Sc  Sc67  1  0.69299551  0.09815115  0.69990694  1
  Sc  Sc68  1  0.08506843  0.90604720  0.69256831  1
  Sc  Sc69  1  0.69026796  0.29453982  0.10105413  1
  Sc  Sc70  1  0.50011150  0.49992540  0.10192162  1
  Sc  Sc71  1  0.69563532  0.29595453  0.89785915  1
  Sc  Sc72  1  0.49677194  0.30402382  0.51440750  1
  Sc  Sc73  1  0.70354373  0.69638410  0.30560309  1
  Sc  Sc74  1  0.89250609  0.09892789  0.89881084  1
  Sc  Sc75  1  0.50216116  0.09668697  0.89226531  1
  Sc  Sc76  1  0.10204181  0.09290001  0.10011405  1
  Sc  Sc77  1  0.09211839  0.10219771  0.89250416  1
  Sc  Sc78  1  0.49997901  0.89884078  0.09354712  1
  Sc  Sc79  1  0.89640274  0.09371821  0.29423278  1
  Sc  Sc80  1  0.49358844  0.10456000  0.30648548  1
  Sc  Sc81  1  0.29840330  0.10341266  0.50058635  1
  Sc  Sc82  1  0.70196301  0.91063970  0.89684335  1
  Sc  Sc83  1  0.09270948  0.10040207  0.50541116  1
  Sc  Sc84  1  0.50795436  0.09868140  0.50355263  1
  Sc  Sc85  1  0.49993816  0.49459019  0.29483565  1
  Sc  Sc86  1  0.50142431  0.90895044  0.68963426  1
  Sc  Sc87  1  0.69376675  0.89887631  0.10211191  1
  Sc  Sc88  1  0.10296023  0.89795288  0.09599930  1
  Sc  Sc89  1  0.89661255  0.70617132  0.89169134  1
  Sc  Sc90  1  0.49597803  0.69421708  0.70108936  1
  Sc  Sc91  1  0.50205110  0.49074005  0.49555633  1
  Sc  Sc92  1  0.89095139  0.69782816  0.49604197  1
  Sc  Sc93  1  0.29982714  0.90903311  0.09359607  1
  Sc  Sc94  1  0.89470523  0.90158399  0.50143578  1
  Sc  Sc95  1  0.71010327  0.49592334  0.70497790  1
  Sc  Sc96  1  0.70894325  0.90329617  0.30849712  1
  Sc  Sc97  1  0.30141296  0.69896605  0.50306447  1
  Sc  Sc98  1  0.69059924  0.30268099  0.50953184  1
  Sc  Sc99  1  0.70212150  0.10574375  0.10268088  1
  Nb  Nb100  1  0.90362613  0.69626816  0.29742731  1
  Nb  Nb101  1  0.89798692  0.50028216  0.70074920  1
  Nb  Nb102  1  0.10195056  0.49773633  0.90012976  1
  Nb  Nb103  1  0.50008560  0.30052931  0.70087499  1
  Nb  Nb104  1  0.49989258  0.89767936  0.49482773  1
  Nb  Nb105  1  0.09754926  0.69952931  0.29624860  1
  Nb  Nb106  1  0.70509797  0.50190473  0.09832338  1
  Nb  Nb107  1  0.70079845  0.50147203  0.50025408  1
  Nb  Nb108  1  0.91213388  0.10355543  0.69858584  1
  Nb  Nb109  1  0.29886485  0.90246961  0.69993048  1
  Nb  Nb110  1  0.70059657  0.50526431  0.90696311  1
  Nb  Nb111  1  0.29773170  0.50090762  0.89886316  1
  Nb  Nb112  1  0.49895446  0.30372529  0.89830681  1
  Nb  Nb113  1  0.29550680  0.70345759  0.70088867  1
  Nb  Nb114  1  0.09431620  0.09704777  0.69877176  1
  Nb  Nb115  1  0.90003391  0.10131709  0.49787582  1
  Nb  Nb116  1  0.90244888  0.69616050  0.10729309  1
  Nb  Nb117  1  0.09773663  0.30901364  0.90188784  1
  Nb  Nb118  1  0.89549629  0.10608938  0.10101207  1
  Nb  Nb119  1  0.69797743  0.10140379  0.30512858  1
  Nb  Nb120  1  0.29807033  0.29916371  0.09689165  1
  Nb  Nb121  1  0.70410270  0.09979195  0.49881611  1
  Nb  Nb122  1  0.89671965  0.69342873  0.69748149  1
  Nb  Nb123  1  0.09776049  0.69718790  0.10360586  1
  Nb  Nb124  1  0.49400291  0.90111294  0.30962902  1
  Nb  Nb125  1  0.79501806  0.19791516  0.40328599  1
  Nb  Nb126  1  -0.00652940  0.59853182  0.60824283  1
  Nb  Nb127  1  0.80740561  0.79428417  0.19704482  1
  Nb  Nb128  1  0.19972185  0.39744024  0.60142418  1
  Nb  Nb129  1  0.79577481  0.39498961  0.39673600  1
  Nb  Nb130  1  0.00442143  0.60410817  -0.00151728  1
  Nb  Nb131  1  0.59733834  0.00132446  0.21078124  1
  Nb  Nb132  1  0.19790068  -0.00121989  0.79128809  1
  Nb  Nb133  1  0.79643262  0.40425077  0.00557478  1
  Nb  Nb134  1  0.20525495  0.80483697  0.60388447  1
  Nb  Nb135  1  0.00051957  0.79516444  0.39104325  1
  Nb  Nb136  1  0.39874615  0.59872141  0.39760244  1
  Nb  Nb137  1  0.59685319  0.80652566  0.40385629  1
  Nb  Nb138  1  0.40289785  0.80388058  0.20654977  1
  Nb  Nb139  1  0.80365134  0.79730505  0.00627332  1
  Nb  Nb140  1  0.39562801  0.20645983  -0.00196931  1
  Nb  Nb141  1  0.60721393  0.59686067  0.59681031  1
  Nb  Nb142  1  -0.00070330  0.59760855  0.80021353  1
  Nb  Nb143  1  0.20019398  0.20723275  -0.00323774  1
  Nb  Nb144  1  0.19757957  0.59341178  -0.00273318  1
  Nb  Nb145  1  0.40408806  0.40212607  0.80068304  1
  Nb  Nb146  1  0.20165445  0.39862135  -0.00555384  1
  Nb  Nb147  1  0.60001133  0.79852126  0.80008357  1
  Nb  Nb148  1  0.79657808  0.40282252  0.20164521  1
  Nb  Nb149  1  0.80431408  0.19461995  0.59619961  1
  Pd  Pd150  1  0.79048704  -0.00212867  0.19659174  1
  Pd  Pd151  1  0.40573975  -0.00750602  0.19986645  1
  Pd  Pd152  1  0.19780709  0.20145390  0.59562586  1
  Pd  Pd153  1  -0.00777161  0.79536852  0.00368321  1
  Pd  Pd154  1  0.19755870  0.19206160  0.80317411  1
  Pd  Pd155  1  0.79293401  0.39667793  0.81004382  1
  Pd  Pd156  1  0.18934618  0.81247501  0.78942383  1
  Pd  Pd157  1  0.19483310  0.19432527  0.19558172  1
  Pd  Pd158  1  0.18950091  0.60110679  0.60048120  1
  Pd  Pd159  1  0.00352665  0.19271914  -0.00257335  1
  Pd  Pd160  1  0.79366054  -0.00035706  0.00578129  1
  Pd  Pd161  1  0.60692906  0.40214366  0.00308107  1
  Pd  Pd162  1  0.00156492  0.79826163  0.79644555  1
  Pd  Pd163  1  0.20070439  -0.00206470  0.60190038  1
  Pd  Pd164  1  0.59975751  0.59470527  0.19743970  1
  Pd  Pd165  1  0.60282727  0.79507177  0.60261340  1
  Pd  Pd166  1  0.00697206  0.18503891  0.20536788  1
  Pd  Pd167  1  0.79737171  0.20726773  0.00187913  1
  Pd  Pd168  1  0.58902824  0.19259695  0.20161487  1
  Pd  Pd169  1  0.61229067  0.80346064  -0.00990143  1
  Pd  Pd170  1  0.20973827  0.80461035  0.19037759  1
  Pd  Pd171  1  0.20858647  0.39552697  0.79691195  1
  Pd  Pd172  1  0.80509705  0.00683356  0.60873628  1
  Pd  Pd173  1  0.59107769  0.19560805  -0.00542657  1
  Pd  Pd174  1  0.00581909  0.00360129  0.19943337  1
  Pd  Pd175  1  0.20938023  0.79233090  0.00905362  1
  Pd  Pd176  1  0.81301762  0.60162768  -0.00736238  1
  Pd  Pd177  1  0.60436607  0.00652573  0.00593409  1
  Pd  Pd178  1  0.79200808  0.80440086  0.80507061  1
  Pd  Pd179  1  0.00004139  0.01170637  -0.00010810  1
  Pd  Pd180  1  0.39725513  0.60374645  -0.00098439  1
  Pd  Pd181  1  0.60288935  0.80993748  0.21358273  1
  Pd  Pd182  1  0.40590419  0.59519337  0.80087143  1
  Pd  Pd183  1  0.80546344  0.00499045  0.78899653  1
  Pd  Pd184  1  0.59885508  0.20684565  0.40715287  1
  Pd  Pd185  1  0.41089636  0.80686494  0.78807279  1
  Pd  Pd186  1  0.00087065  0.78954134  0.58847050  1
  Pd  Pd187  1  -0.00461233  0.20325179  0.80400956  1
  Pd  Pd188  1  0.00668184  0.40593061  0.59811394  1
  Pd  Pd189  1  0.60281537  0.39977674  0.80162087  1
  Pd  Pd190  1  0.39768137  0.79957605  0.60879514  1
  Pd  Pd191  1  0.19487400  0.79822494  0.40983243  1
  Pd  Pd192  1  0.40485982  0.20091748  0.40819725  1
  Pd  Pd193  1  0.40250350  0.00712451  0.59721644  1
  Pd  Pd194  1  0.19867896  0.40361338  0.19545287  1
  Pd  Pd195  1  0.59919508  -0.00198537  0.39849509  1
  Pd  Pd196  1  -0.00107666  0.80213019  0.20130708  1
  Pd  Pd197  1  0.60125411  0.39399421  0.40079481  1
  Pd  Pd198  1  0.40669902  0.59452400  0.59295091  1
  Pd  Pd199  1  0.19599842  0.59188084  0.19259287  1
  Rh  Rh200  1  0.59717132  -0.00836469  0.79661530  1
  Rh  Rh201  1  0.80281378  0.80088707  0.59943181  1
  Rh  Rh202  1  -0.00150251  -0.00114596  0.79691699  1
  Rh  Rh203  1  0.39927757  0.39389594  0.20581708  1
  Rh  Rh204  1  -0.00509242  0.18922254  0.39367903  1
  Rh  Rh205  1  0.40088570  0.01006997  0.40721306  1
  Rh  Rh206  1  -0.00335882  0.20051896  0.60179984  1
  Rh  Rh207  1  -0.00463524  0.40390348  0.39709156  1
  Rh  Rh208  1  0.39612334  -0.00384767  0.79400040  1
  Rh  Rh209  1  0.40850572  0.78612213  0.39051870  1
  Rh  Rh210  1  0.80765637  0.59409200  0.80540390  1
  Rh  Rh211  1  0.59868392  0.00195543  0.59619742  1
  Rh  Rh212  1  0.39918453  0.00620274  -0.00014150  1
  Rh  Rh213  1  0.40312241  0.40326775  0.39499922  1
  Rh  Rh214  1  0.40398894  0.60760129  0.20689966  1
  Rh  Rh215  1  0.80111839  0.19674921  0.78875036  1
  Rh  Rh216  1  0.60216588  0.60311201  0.79030664  1
  Rh  Rh217  1  -0.00908956  0.00225645  0.59690263  1
  Rh  Rh218  1  0.20032734  0.19810342  0.40334759  1
  Rh  Rh219  1  0.39376294  0.79851647  0.01058325  1
  Rh  Rh220  1  0.40600058  0.19595997  0.59510907  1
  Rh  Rh221  1  0.59461183  0.59573896  0.00897096  1
  Rh  Rh222  1  0.19665785  0.39781605  0.40278953  1
  Rh  Rh223  1  -0.00574357  -0.00355141  0.40191477  1
  Rh  Rh224  1  0.59191024  0.60515790  0.40946882  1
  Rh  Rh225  1  0.20620526  0.00190505  0.40939261  1
  Rh  Rh226  1  0.60451292  0.40302337  0.19428215  1
  Rh  Rh227  1  0.79356067  0.59978035  0.21051236  1
  Rh  Rh228  1  0.19977578  -0.00225658  0.20038197  1
  Rh  Rh229  1  0.19331551  0.60628128  0.80545175  1
  Rh  Rh230  1  0.60821284  0.40556837  0.60441949  1
  Rh  Rh231  1  0.80075067  0.20152707  0.20359076  1
  Rh  Rh232  1  0.39256107  0.39381195  -0.01261342  1
  Rh  Rh233  1  0.40034373  0.20476807  0.19394336  1
  Rh  Rh234  1  0.20338415  0.60117861  0.39759473  1
  Rh  Rh235  1  -0.00291854  0.40225644  0.00198965  1
  Rh  Rh236  1  0.39196278  0.40791254  0.60894561  1
  Rh  Rh237  1  0.80002650  0.59225790  0.39749936  1
  Rh  Rh238  1  0.40869960  0.20593801  0.80493096  1
  Rh  Rh239  1  0.80057357  0.59330830  0.59692504  1
  Rh  Rh240  1  0.60409110  0.19834244  0.60350303  1
  Rh  Rh241  1  -0.00163920  0.39667300  0.79912386  1
  Rh  Rh242  1  0.80353100  0.00841855  0.40124378  1
  Rh  Rh243  1  -0.00414598  0.40422143  0.20991148  1
  Rh  Rh244  1  0.80241450  0.79772819  0.39322743  1
  Rh  Rh245  1  0.19744390  0.00915601  -0.01055224  1
  Rh  Rh246  1  0.00985082  0.59913751  0.19808740  1
  Rh  Rh247  1  -0.00204433  0.60813900  0.40827547  1
  Rh  Rh248  1  0.59759306  0.20307064  0.80001115  1
  Rh  Rh249  1  0.79591126  0.39486962  0.59443208  1
