# generated using pymatgen
data_ZrScNbPdRh
_symmetry_space_group_name_H-M   'P 1'
_cell_length_a   16.56345903
_cell_length_b   16.56896796
_cell_length_c   16.56966797
_cell_angle_alpha   89.97435086
_cell_angle_beta   90.00143037
_cell_angle_gamma   90.02351173
_symmetry_Int_Tables_number   1
_chemical_formula_structural   ZrScNbPdRh
_chemical_formula_sum   'Zr50 Sc50 Nb50 Pd50 Rh50'
_cell_volume   4547.36926041
_cell_formula_units_Z   50
loop_
 _symmetry_equiv_pos_site_id
 _symmetry_equiv_pos_as_xyz
  1  'x, y, z'
loop_
 _atom_site_type_symbol
 _atom_site_label
 _atom_site_symmetry_multiplicity
 _atom_site_fract_x
 _atom_site_fract_y
 _atom_site_fract_z
 _atom_site_occupancy
  Zr  Zr0  1  0.29860746  0.30290441  0.89354806  1
  Zr  Zr1  1  0.50947944  0.69201058  0.90210581  1
  Zr  Zr2  1  0.30669909  0.89926437  0.49663062  1
  Zr  Zr3  1  0.29384326  0.69920755  0.49519130  1
  Zr  Zr4  1  0.89451658  0.09821480  0.69807127  1
  Zr  Zr5  1  0.10190904  0.70017755  0.30959017  1
  Zr  Zr6  1  0.49813033  0.89368179  0.30478369  1
  Zr  Zr7  1  0.29958255  0.89935512  0.30084694  1
  Zr  Zr8  1  0.09574655  0.29612275  0.50495604  1
  Zr  Zr9  1  0.09067589  0.70175915  0.69855357  1
  Zr  Zr10  1  0.30701831  0.49583128  0.29686677  1
  Zr  Zr11  1  0.70338814  0.30469004  0.09708242  1
  Zr  Zr12  1  0.69814619  0.69998969  0.50422065  1
  Zr  Zr13  1  0.90810312  0.10716309  0.10603190  1
  Zr  Zr14  1  0.50011044  0.29085752  0.69566677  1
  Zr  Zr15  1  0.88996842  0.10216932  0.30571936  1
  Zr  Zr16  1  0.89730705  0.48776028  0.50631512  1
  Zr  Zr17  1  0.70357702  0.50643170  0.69234135  1
  Zr  Zr18  1  0.90065848  0.29580731  0.28848101  1
  Zr  Zr19  1  0.10931096  0.70473971  0.89333174  1
  Zr  Zr20  1  0.49622112  0.29699748  0.90305246  1
  Zr  Zr21  1  0.29210407  0.09414220  0.09786519  1
  Zr  Zr22  1  0.51791534  0.70132286  0.70093380  1
  Zr  Zr23  1  0.70025147  0.29046169  0.69909967  1
  Zr  Zr24  1  0.69196955  0.70230821  0.30840108  1
  Zr  Zr25  1  0.49813169  0.10283060  0.89826380  1
  Zr  Zr26  1  0.69182961  0.09712092  0.30262502  1
  Zr  Zr27  1  0.90871699  0.08911850  0.89789154  1
  Zr  Zr28  1  0.50314006  0.30812751  0.30400023  1
  Zr  Zr29  1  0.10344936  0.50681935  0.89750592  1
  Zr  Zr30  1  0.10272598  0.89674211  0.70521187  1
  Zr  Zr31  1  0.09739456  0.09521480  0.09173479  1
  Zr  Zr32  1  0.30470981  0.50009959  0.70046975  1
  Zr  Zr33  1  0.30374574  0.30298616  0.29864792  1
  Zr  Zr34  1  0.69830549  0.50044924  0.09959693  1
  Zr  Zr35  1  0.10204926  0.90410386  0.51005286  1
  Zr  Zr36  1  0.09997686  0.50948113  0.49767058  1
  Zr  Zr37  1  0.90351342  0.49589738  0.30367673  1
  Zr  Zr38  1  0.89780288  0.71359837  0.50345928  1
  Zr  Zr39  1  0.90027082  0.51173607  0.70087040  1
  Zr  Zr40  1  0.69514806  0.30507425  0.50154618  1
  Zr  Zr41  1  0.90657055  0.70059120  0.30119867  1
  Zr  Zr42  1  0.68742976  0.90350658  0.30294739  1
  Zr  Zr43  1  0.09248457  0.91218926  0.89793227  1
  Zr  Zr44  1  0.50344290  0.50119996  0.29304017  1
  Zr  Zr45  1  0.89523123  0.29580090  0.49635136  1
  Zr  Zr46  1  0.08246558  0.29714388  0.09424265  1
  Zr  Zr47  1  0.89524727  0.09628854  0.50683072  1
  Zr  Zr48  1  0.29683287  0.09779710  0.30210364  1
  Zr  Zr49  1  0.09878671  0.50648924  0.30004353  1
  Sc  Sc50  1  0.10708539  0.09317432  0.29265321  1
  Sc  Sc51  1  0.30559052  0.10375205  0.69872931  1
  Sc  Sc52  1  0.70324312  0.50268987  0.49692347  1
  Sc  Sc53  1  0.10196722  0.70415803  0.10331507  1
  Sc  Sc54  1  0.29785779  0.30514243  0.09482428  1
  Sc  Sc55  1  0.90650095  0.30109247  0.91091778  1
  Sc  Sc56  1  0.10550597  0.89596160  0.29865554  1
  Sc  Sc57  1  0.50900819  0.49479468  0.49197604  1
  Sc  Sc58  1  0.70333597  0.09261599  0.49502785  1
  Sc  Sc59  1  0.69664309  0.69798066  0.09554784  1
  Sc  Sc60  1  0.50941170  0.88686744  0.89670766  1
  Sc  Sc61  1  0.90372003  0.90032013  0.10142219  1
  Sc  Sc62  1  0.89343218  0.70275411  0.10409351  1
  Sc  Sc63  1  0.29725972  0.09280299  0.50077039  1
  Sc  Sc64  1  0.69904916  0.50865488  0.91017898  1
  Sc  Sc65  1  0.29704326  0.49823821  0.90460564  1
  Sc  Sc66  1  0.30303313  0.29328300  0.70528638  1
  Sc  Sc67  1  0.69057713  0.10567463  0.11015942  1
  Sc  Sc68  1  0.29634969  0.70210205  0.68954657  1
  Sc  Sc69  1  0.89983262  0.29663262  0.68452420  1
  Sc  Sc70  1  0.09819309  0.51130590  0.70046043  1
  Sc  Sc71  1  0.69761870  0.89032830  0.10598215  1
  Sc  Sc72  1  0.29511553  0.10590413  0.90019835  1
  Sc  Sc73  1  0.50562370  0.88888454  0.10784050  1
  Sc  Sc74  1  0.70093280  0.28992926  0.30237228  1
  Sc  Sc75  1  0.89522739  0.49172664  0.10073084  1
  Sc  Sc76  1  0.50426974  0.89725028  0.68999586  1
  Sc  Sc77  1  0.70602997  0.11037596  0.88853164  1
  Sc  Sc78  1  0.89135994  0.50713901  0.90543758  1
  Sc  Sc79  1  0.10241301  0.28997554  0.70227168  1
  Sc  Sc80  1  0.30015537  0.71466136  0.29997932  1
  Sc  Sc81  1  0.10047577  0.49869633  0.09823026  1
  Sc  Sc82  1  0.10331375  0.30290016  0.29060966  1
  Sc  Sc83  1  0.49720552  0.10174789  0.69572295  1
  Sc  Sc84  1  0.09992456  0.10292826  0.89709149  1
  Sc  Sc85  1  0.09496693  0.09715454  0.70054941  1
  Sc  Sc86  1  0.50530134  0.10759509  0.09627072  1
  Sc  Sc87  1  0.30941890  0.50501974  0.09412689  1
  Sc  Sc88  1  0.70477389  0.88861683  0.70102815  1
  Sc  Sc89  1  0.49246969  0.69420472  0.10071025  1
  Sc  Sc90  1  0.89889738  0.89321665  0.30349604  1
  Sc  Sc91  1  0.50234321  0.70422129  0.50533758  1
  Sc  Sc92  1  0.28614067  0.89101484  0.90210245  1
  Sc  Sc93  1  0.70305810  0.70499515  0.89699468  1
  Sc  Sc94  1  0.30130232  0.28932624  0.49947353  1
  Sc  Sc95  1  0.49610875  0.09062408  0.50754617  1
  Sc  Sc96  1  0.29557924  0.89838694  0.69419205  1
  Sc  Sc97  1  0.10577576  0.90693706  0.10169987  1
  Sc  Sc98  1  0.49728570  0.49856898  0.90710475  1
  Sc  Sc99  1  0.50758299  0.50688354  0.69963490  1
  Nb  Nb100  1  0.30462157  0.89330121  0.10466855  1
  Nb  Nb101  1  0.88861821  0.70501540  0.70470350  1
  Nb  Nb102  1  0.89737881  0.29653086  0.10280481  1
  Nb  Nb103  1  0.69745499  0.50962672  0.30551090  1
  Nb  Nb104  1  0.70342209  0.30282002  0.89708354  1
  Nb  Nb105  1  0.50506468  0.90126805  0.50077868  1
  Nb  Nb106  1  0.50455430  0.30579771  0.10046276  1
  Nb  Nb107  1  0.10456293  0.70154644  0.49588735  1
  Nb  Nb108  1  0.30345176  0.50288645  0.49889954  1
  Nb  Nb109  1  0.50573035  0.09939796  0.29055491  1
  Nb  Nb110  1  0.09677621  0.09850315  0.49840769  1
  Nb  Nb111  1  0.30395026  0.69587541  0.90995950  1
  Nb  Nb112  1  0.88950390  0.90825590  0.51004728  1
  Nb  Nb113  1  0.49765210  0.30258354  0.49647395  1
  Nb  Nb114  1  0.89161000  0.89760859  0.89294330  1
  Nb  Nb115  1  0.90057570  0.70058366  0.89754003  1
  Nb  Nb116  1  0.10027930  0.30538599  0.89696088  1
  Nb  Nb117  1  0.49953418  0.49275851  0.10182629  1
  Nb  Nb118  1  0.70334814  0.90325406  0.90042084  1
  Nb  Nb119  1  0.90052569  0.89629355  0.69622824  1
  Nb  Nb120  1  0.29798557  0.70446831  0.09252078  1
  Nb  Nb121  1  0.70301791  0.69496744  0.69688274  1
  Nb  Nb122  1  0.49793927  0.70065978  0.30428196  1
  Nb  Nb123  1  0.69549262  0.10694694  0.70486408  1
  Nb  Nb124  1  0.69674566  0.90057962  0.49617110  1
  Nb  Nb125  1  0.39871796  0.39957708  0.59529694  1
  Nb  Nb126  1  0.20265962  0.40443661  0.40732998  1
  Nb  Nb127  1  0.40696182  0.19757123  0.39338428  1
  Nb  Nb128  1  0.79670889  0.00138193  0.19955819  1
  Nb  Nb129  1  0.40420795  -0.00909478  0.80609610  1
  Nb  Nb130  1  0.40240573  0.00216129  0.19661511  1
  Nb  Nb131  1  -0.00259311  0.40202289  0.80188429  1
  Nb  Nb132  1  0.20535082  0.40427107  0.59568949  1
  Nb  Nb133  1  0.00219364  0.19340618  0.40056288  1
  Nb  Nb134  1  0.79557193  0.00191945  0.00123303  1
  Nb  Nb135  1  0.60701559  0.39539231  0.80197928  1
  Nb  Nb136  1  0.39885709  0.79341545  0.80235112  1
  Nb  Nb137  1  0.39987957  0.60848115  0.80251917  1
  Nb  Nb138  1  0.40479496  0.19934922  0.20117807  1
  Nb  Nb139  1  0.80357016  0.19856767  0.00323090  1
  Nb  Nb140  1  -0.00422521  0.79959851  -0.00969708  1
  Nb  Nb141  1  0.79555313  0.59787585  0.21036547  1
  Nb  Nb142  1  0.40295657  -0.00768482  0.00046228  1
  Nb  Nb143  1  0.60291913  0.00022772  0.80086785  1
  Nb  Nb144  1  0.79949921  0.39842293  0.79989662  1
  Nb  Nb145  1  0.40068060  0.60002741  0.39803750  1
  Nb  Nb146  1  0.60424772  -0.00205085  -0.00685695  1
  Nb  Nb147  1  -0.00151410  0.61044320  -0.00529835  1
  Nb  Nb148  1  0.20640178  0.60559034  0.19948449  1
  Nb  Nb149  1  -0.00271050  0.00167336  0.40897017  1
  Pd  Pd150  1  0.79310173  0.39588489  0.39159323  1
  Pd  Pd151  1  0.20412124  0.00600116  0.60565734  1
  Pd  Pd152  1  0.60161986  0.80030210  0.00235685  1
  Pd  Pd153  1  -0.00055354  0.80173270  0.59976306  1
  Pd  Pd154  1  0.79551442  0.80592248  0.40012364  1
  Pd  Pd155  1  0.81668567  0.20933862  0.80657983  1
  Pd  Pd156  1  -0.00469293  0.41195531  -0.00578289  1
  Pd  Pd157  1  0.60843439  -0.00097315  0.60805756  1
  Pd  Pd158  1  0.19055672  0.39956433  0.78935252  1
  Pd  Pd159  1  0.19806060  0.59997258  0.60279846  1
  Pd  Pd160  1  0.61102716  0.39782390  0.20734015  1
  Pd  Pd161  1  -0.00242114  0.59926943  0.18763948  1
  Pd  Pd162  1  0.79289183  0.40547873  0.20907465  1
  Pd  Pd163  1  0.79386029  -0.00182955  0.79555653  1
  Pd  Pd164  1  0.19000102  0.80532238  0.00348649  1
  Pd  Pd165  1  -0.00794430  0.60859423  0.59397613  1
  Pd  Pd166  1  0.41041337  0.59623126  0.59703988  1
  Pd  Pd167  1  0.80845448  0.60184339  0.40270219  1
  Pd  Pd168  1  0.40755090  0.00660349  0.39454067  1
  Pd  Pd169  1  0.19399412  0.20702838  -0.00271318  1
  Pd  Pd170  1  -0.00462448  0.20798726  0.80179175  1
  Pd  Pd171  1  0.39528566  0.19829620  0.00821152  1
  Pd  Pd172  1  0.59258639  0.19215924  0.40850602  1
  Pd  Pd173  1  0.40487295  0.80413629  -0.00487359  1
  Pd  Pd174  1  0.00438767  0.81316886  0.40800207  1
  Pd  Pd175  1  0.19896646  0.40083275  0.00301736  1
  Pd  Pd176  1  0.40160874  0.80008734  0.60304769  1
  Pd  Pd177  1  0.20959646  0.00592353  0.79786593  1
  Pd  Pd178  1  0.01063944  0.40078343  0.61314583  1
  Pd  Pd179  1  0.19761201  0.20400180  0.39960762  1
  Pd  Pd180  1  0.00820283  0.38984373  0.39557720  1
  Pd  Pd181  1  0.78597995  -0.00084129  0.61141091  1
  Pd  Pd182  1  0.60121531  0.60615564  0.19496578  1
  Pd  Pd183  1  0.20044460  0.40814941  0.19554467  1
  Pd  Pd184  1  0.20235376  0.19749586  0.60327672  1
  Pd  Pd185  1  0.39352963  0.61013873  0.20392119  1
  Pd  Pd186  1  0.60097744  0.19123904  0.58795460  1
  Pd  Pd187  1  0.21195679  0.60731304  0.79642562  1
  Pd  Pd188  1  0.79241861  0.59844657  0.80507202  1
  Pd  Pd189  1  0.80370939  0.80442553  0.00099148  1
  Pd  Pd190  1  -0.00503609  -0.00301362  0.21112238  1
  Pd  Pd191  1  0.59496891  0.40302209  0.60521309  1
  Pd  Pd192  1  -0.01197550  0.60206930  0.41243319  1
  Pd  Pd193  1  0.00573509  0.80432012  0.19347191  1
  Pd  Pd194  1  -0.00484683  0.80283321  0.80194275  1
  Pd  Pd195  1  0.41195204  0.40844571  0.79425984  1
  Pd  Pd196  1  0.59846135  0.40167913  -0.00664355  1
  Pd  Pd197  1  0.79535180  0.79895126  0.20534750  1
  Pd  Pd198  1  0.61019605  0.19738811  -0.00422753  1
  Pd  Pd199  1  0.19953068  0.20366378  0.19186959  1
  Rh  Rh200  1  -0.00102568  0.19717515  -0.00747854  1
  Rh  Rh201  1  0.20889904  0.79294887  0.79476572  1
  Rh  Rh202  1  -0.00105174  0.40224263  0.19694486  1
  Rh  Rh203  1  0.80623090  0.60608204  0.01171888  1
  Rh  Rh204  1  0.59849359  -0.00585209  0.19072434  1
  Rh  Rh205  1  0.78933350  0.19500942  0.59385985  1
  Rh  Rh206  1  0.60825843  0.40295543  0.39587144  1
  Rh  Rh207  1  0.40321554  0.59666229  -0.00214363  1
  Rh  Rh208  1  0.59475095  0.80050442  0.40836693  1
  Rh  Rh209  1  0.60112095  0.59729177  0.59200066  1
  Rh  Rh210  1  0.59496311  0.78845995  0.20253642  1
  Rh  Rh211  1  0.59484579  0.21263476  0.19964295  1
  Rh  Rh212  1  0.39985195  0.39958754  0.00206000  1
  Rh  Rh213  1  0.21218702  0.59664045  0.38759946  1
  Rh  Rh214  1  0.00149598  0.19214563  0.59639067  1
  Rh  Rh215  1  0.19538071  0.79634647  0.59652919  1
  Rh  Rh216  1  0.60843919  0.80469775  0.59555466  1
  Rh  Rh217  1  0.59142099  0.00185851  0.40475861  1
  Rh  Rh218  1  0.19135790  -0.00691764  0.40274064  1
  Rh  Rh219  1  0.39749075  -0.00774665  0.60719888  1
  Rh  Rh220  1  0.20010256  0.79513010  0.19618730  1
  Rh  Rh221  1  0.80174312  0.39261083  -0.00516696  1
  Rh  Rh222  1  0.19539967  0.60175535  0.00950495  1
  Rh  Rh223  1  0.40148017  0.39191022  0.18821412  1
  Rh  Rh224  1  0.58951709  0.60156638  0.40265455  1
  Rh  Rh225  1  -0.00211549  -0.00146371  0.60282911  1
  Rh  Rh226  1  0.59401412  0.20157464  0.80299459  1
  Rh  Rh227  1  0.40063147  0.79967114  0.19910027  1
  Rh  Rh228  1  0.79723631  0.79796845  0.79851679  1
  Rh  Rh229  1  0.79953502  0.20271290  0.40445785  1
  Rh  Rh230  1  0.39815818  0.19221584  0.80072572  1
  Rh  Rh231  1  0.60185168  0.59207115  0.80455062  1
  Rh  Rh232  1  0.79404690  0.80039541  0.60132270  1
  Rh  Rh233  1  0.20716405  -0.00602209  0.19773498  1
  Rh  Rh234  1  0.40176978  0.20369995  0.58925709  1
  Rh  Rh235  1  -0.00458571  -0.00567149  0.78822408  1
  Rh  Rh236  1  -0.00800514  -0.00882889  0.00005243  1
  Rh  Rh237  1  0.19838716  0.19846427  0.80232881  1
  Rh  Rh238  1  0.79697800  0.39935668  0.60609038  1
  Rh  Rh239  1  0.40639184  0.79301205  0.40823561  1
  Rh  Rh240  1  0.20704845  -0.00546303  -0.00169536  1
  Rh  Rh241  1  0.39408455  0.39922602  0.40982931  1
  Rh  Rh242  1  0.80415088  -0.01095233  0.39337294  1
  Rh  Rh243  1  0.19651652  0.80839589  0.40699211  1
  Rh  Rh244  1  0.59530567  0.59576793  0.00801226  1
  Rh  Rh245  1  -0.00510795  0.59901931  0.80662779  1
  Rh  Rh246  1  0.80662382  0.60548327  0.59203648  1
  Rh  Rh247  1  0.79452883  0.19395176  0.19262278  1
  Rh  Rh248  1  0.00918043  0.19647192  0.20839879  1
  Rh  Rh249  1  0.60571656  0.80118863  0.79773909  1
