# generated using pymatgen
data_ZrScNbPdRh
_symmetry_space_group_name_H-M   'P 1'
_cell_length_a   16.55775594
_cell_length_b   16.56275479
_cell_length_c   16.56177591
_cell_angle_alpha   90.04043476
_cell_angle_beta   89.99964585
_cell_angle_gamma   89.99588466
_symmetry_Int_Tables_number   1
_chemical_formula_structural   ZrScNbPdRh
_chemical_formula_sum   'Zr50 Sc50 Nb50 Pd50 Rh50'
_cell_volume   4541.93425958
_cell_formula_units_Z   50
loop_
 _symmetry_equiv_pos_site_id
 _symmetry_equiv_pos_as_xyz
  1  'x, y, z'
loop_
 _atom_site_type_symbol
 _atom_site_label
 _atom_site_symmetry_multiplicity
 _atom_site_fract_x
 _atom_site_fract_y
 _atom_site_fract_z
 _atom_site_occupancy
  Zr  Zr0  1  0.09612600  0.50207565  0.89297846  1
  Zr  Zr1  1  0.90340218  0.09855109  0.89417793  1
  Zr  Zr2  1  0.29069159  0.50052318  0.30011327  1
  Zr  Zr3  1  0.30567691  0.89875925  0.30017929  1
  Zr  Zr4  1  0.89882014  0.69674637  0.09291292  1
  Zr  Zr5  1  0.28982663  0.29152750  0.49952996  1
  Zr  Zr6  1  0.10709379  0.10800573  0.50596534  1
  Zr  Zr7  1  0.50231983  0.50935593  0.10101013  1
  Zr  Zr8  1  0.49723809  0.70236494  0.50413500  1
  Zr  Zr9  1  0.90447708  0.89707413  0.49764190  1
  Zr  Zr10  1  0.10929465  0.69781129  0.69573342  1
  Zr  Zr11  1  0.30818543  0.29424094  0.89715571  1
  Zr  Zr12  1  0.90676027  0.89504882  0.09597379  1
  Zr  Zr13  1  0.48979212  0.10042404  0.89738035  1
  Zr  Zr14  1  0.49752654  0.29566175  0.70742259  1
  Zr  Zr15  1  0.69296688  0.69633938  0.10179578  1
  Zr  Zr16  1  0.69893520  0.09386146  0.50615118  1
  Zr  Zr17  1  0.70686771  0.70401661  0.89537914  1
  Zr  Zr18  1  0.09356354  0.29823067  0.68778892  1
  Zr  Zr19  1  0.49193817  0.09422572  0.29785168  1
  Zr  Zr20  1  0.90328939  0.29704907  0.30848054  1
  Zr  Zr21  1  0.09520043  0.50702003  0.49550089  1
  Zr  Zr22  1  0.70766311  0.09514661  0.70669703  1
  Zr  Zr23  1  0.70094013  0.10531709  0.90656029  1
  Zr  Zr24  1  0.09516134  0.30188196  0.50113144  1
  Zr  Zr25  1  0.29715506  0.30397119  0.69094351  1
  Zr  Zr26  1  0.30001373  0.89833908  0.70310543  1
  Zr  Zr27  1  0.29481458  0.29885726  0.29591693  1
  Zr  Zr28  1  0.90912255  0.90385342  0.90185761  1
  Zr  Zr29  1  0.69360587  0.30402264  0.29219501  1
  Zr  Zr30  1  0.89902422  0.50736155  0.09930659  1
  Zr  Zr31  1  0.29157877  0.50738263  0.69184544  1
  Zr  Zr32  1  0.90411097  0.10322969  0.70642760  1
  Zr  Zr33  1  0.69809124  0.90400628  0.70368265  1
  Zr  Zr34  1  0.49330772  0.09584414  0.49863926  1
  Zr  Zr35  1  0.49462770  0.50329847  0.49857936  1
  Zr  Zr36  1  0.49992985  0.89629515  0.69755092  1
  Zr  Zr37  1  0.30317743  0.50533360  0.10072333  1
  Zr  Zr38  1  0.89961292  0.49799842  0.70328560  1
  Zr  Zr39  1  0.49168019  0.70098821  0.10275515  1
  Zr  Zr40  1  0.28737497  0.30575301  0.10315753  1
  Zr  Zr41  1  0.50262693  0.49036211  0.90121941  1
  Zr  Zr42  1  0.69949534  0.50314003  0.49176332  1
  Zr  Zr43  1  0.50064454  0.90156081  0.49721927  1
  Zr  Zr44  1  0.90096505  0.50120186  0.49297648  1
  Zr  Zr45  1  0.89808257  0.50610860  0.90542685  1
  Zr  Zr46  1  0.70102416  0.49420836  0.10025910  1
  Zr  Zr47  1  0.50595996  0.29413369  0.89609362  1
  Zr  Zr48  1  0.30437120  0.89551750  0.10279703  1
  Zr  Zr49  1  0.30174189  0.70183426  0.70278690  1
  Sc  Sc50  1  0.30162035  0.49225751  0.89997493  1
  Sc  Sc51  1  0.89355784  0.70064173  0.69761225  1
  Sc  Sc52  1  0.50422149  0.10126567  0.70180425  1
  Sc  Sc53  1  0.10427143  0.69306839  0.30473500  1
  Sc  Sc54  1  0.89917268  0.69364716  0.28914028  1
  Sc  Sc55  1  0.30040429  0.08914761  0.69839419  1
  Sc  Sc56  1  0.69311086  0.90537009  0.89532446  1
  Sc  Sc57  1  0.89107667  0.30556245  0.89539776  1
  Sc  Sc58  1  0.69543291  0.89530150  0.09414270  1
  Sc  Sc59  1  0.70568314  0.70984830  0.70130036  1
  Sc  Sc60  1  0.09585201  0.11132320  0.30334222  1
  Sc  Sc61  1  0.89534319  0.10447235  0.09617943  1
  Sc  Sc62  1  0.50426457  0.50206681  0.30328723  1
  Sc  Sc63  1  0.48765981  0.49637241  0.70190096  1
  Sc  Sc64  1  0.29803069  0.69988130  0.28768480  1
  Sc  Sc65  1  0.10147465  0.70255899  0.89239553  1
  Sc  Sc66  1  0.10502927  0.90894457  0.89938598  1
  Sc  Sc67  1  0.49871953  0.89665204  0.09910694  1
  Sc  Sc68  1  0.09948661  0.89870052  0.09122343  1
  Sc  Sc69  1  0.50362641  0.70046925  0.29681325  1
  Sc  Sc70  1  0.10254223  0.10298877  0.10708253  1
  Sc  Sc71  1  0.30054010  0.90130711  0.51498604  1
  Sc  Sc72  1  0.50799228  0.29731265  0.10232121  1
  Sc  Sc73  1  0.49978897  0.29909035  0.29283732  1
  Sc  Sc74  1  0.30459450  0.09638909  0.10312155  1
  Sc  Sc75  1  0.70785476  0.70255817  0.49182815  1
  Sc  Sc76  1  0.10448303  0.49245337  0.09302207  1
  Sc  Sc77  1  0.49720290  0.69608499  0.91281839  1
  Sc  Sc78  1  0.09848087  0.88756278  0.31171694  1
  Sc  Sc79  1  0.90493366  0.10388879  0.49325214  1
  Sc  Sc80  1  0.69805382  0.89576081  0.49873097  1
  Sc  Sc81  1  0.90372954  0.10956978  0.29836430  1
  Sc  Sc82  1  0.69389925  0.29534099  0.71772683  1
  Sc  Sc83  1  0.29653139  0.69142213  0.50959237  1
  Sc  Sc84  1  0.48846294  0.29874478  0.51023999  1
  Sc  Sc85  1  0.11308722  0.89673193  0.69847688  1
  Sc  Sc86  1  0.10386727  0.31418436  0.89978941  1
  Sc  Sc87  1  0.89921151  0.88612847  0.30089703  1
  Sc  Sc88  1  0.09443110  0.70075277  0.10468605  1
  Sc  Sc89  1  0.50432704  0.89734088  0.30057331  1
  Sc  Sc90  1  0.30064950  0.49257989  0.49895429  1
  Sc  Sc91  1  0.69885267  0.30183785  0.49304205  1
  Sc  Sc92  1  0.29716054  0.91369367  0.89923784  1
  Sc  Sc93  1  0.30558851  0.10411444  0.29967344  1
  Sc  Sc94  1  0.88897444  0.90955660  0.70182209  1
  Sc  Sc95  1  0.89537676  0.29757227  0.09696092  1
  Sc  Sc96  1  0.70422151  0.48905061  0.90123731  1
  Sc  Sc97  1  0.10562634  0.29556528  0.29634800  1
  Sc  Sc98  1  0.49945458  0.10256738  0.10140522  1
  Sc  Sc99  1  0.70557220  0.11410188  0.29672330  1
  Nb  Nb100  1  0.89986126  0.29882070  0.69320961  1
  Nb  Nb101  1  0.90312075  0.49666721  0.29800176  1
  Nb  Nb102  1  0.69916721  0.71481520  0.29988261  1
  Nb  Nb103  1  0.49762456  0.90364219  0.89587266  1
  Nb  Nb104  1  0.69791809  0.29599148  0.91134843  1
  Nb  Nb105  1  0.70346512  0.49673782  0.30418924  1
  Nb  Nb106  1  0.70132916  0.89138028  0.30181019  1
  Nb  Nb107  1  0.70282470  0.10928623  0.10320250  1
  Nb  Nb108  1  0.30944703  0.70095589  0.09457040  1
  Nb  Nb109  1  0.30024297  0.09537766  0.49735573  1
  Nb  Nb110  1  0.10002123  0.89842806  0.50208795  1
  Nb  Nb111  1  0.90455835  0.70094602  0.50386377  1
  Nb  Nb112  1  0.10223705  0.09653888  0.89548615  1
  Nb  Nb113  1  0.09240362  0.71100786  0.50721865  1
  Nb  Nb114  1  0.10067271  0.29682001  0.10223390  1
  Nb  Nb115  1  0.90583480  0.30513251  0.50850207  1
  Nb  Nb116  1  0.90181605  0.70236827  0.89741296  1
  Nb  Nb117  1  0.49748232  0.69781896  0.69879432  1
  Nb  Nb118  1  0.09527887  0.10010576  0.70357989  1
  Nb  Nb119  1  0.30418939  0.70543805  0.90268494  1
  Nb  Nb120  1  0.10118403  0.49731392  0.69808842  1
  Nb  Nb121  1  0.09087787  0.50030435  0.29899285  1
  Nb  Nb122  1  0.70041895  0.28644782  0.10138210  1
  Nb  Nb123  1  0.69733437  0.50089751  0.69793721  1
  Nb  Nb124  1  0.29343260  0.09900484  0.89906854  1
  Nb  Nb125  1  0.80555548  0.79730887  -0.00422948  1
  Nb  Nb126  1  0.79847017  -0.00338281  0.20181042  1
  Nb  Nb127  1  0.19910093  -0.00096961  0.40422206  1
  Nb  Nb128  1  0.60382244  0.40577536  0.60440288  1
  Nb  Nb129  1  0.59913862  0.59835908  0.79307703  1
  Nb  Nb130  1  0.19786201  0.19608031  -0.00649317  1
  Nb  Nb131  1  0.60039882  0.59940569  0.60532247  1
  Nb  Nb132  1  0.80057272  0.40226686  0.20581933  1
  Nb  Nb133  1  -0.00193889  0.80140525  0.79833631  1
  Nb  Nb134  1  0.19645096  0.19541335  0.80056902  1
  Nb  Nb135  1  0.20833442  0.79435948  -0.00065936  1
  Nb  Nb136  1  0.79859040  -0.00355802  0.39089074  1
  Nb  Nb137  1  0.79830187  0.39748678  0.60254215  1
  Nb  Nb138  1  0.61285084  0.00215037  0.20135755  1
  Nb  Nb139  1  -0.00217592  0.40151483  0.20169640  1
  Nb  Nb140  1  0.39866107  0.79893496  0.40477345  1
  Nb  Nb141  1  0.20779567  0.60762058  -0.00178016  1
  Nb  Nb142  1  0.40280110  0.80079641  0.80398696  1
  Nb  Nb143  1  0.39674815  0.40478950  0.19940686  1
  Nb  Nb144  1  0.19532640  -0.00458087  0.20889437  1
  Nb  Nb145  1  0.59459977  0.19589097  0.40146205  1
  Nb  Nb146  1  0.00910589  0.20168638  -0.00532404  1
  Nb  Nb147  1  0.80358704  0.20686360  0.60286108  1
  Nb  Nb148  1  -0.00103793  -0.00314126  0.20330443  1
  Nb  Nb149  1  0.00688098  -0.00048567  0.59838617  1
  Pd  Pd150  1  0.40476368  0.39385440  0.00963579  1
  Pd  Pd151  1  0.00663807  0.21361088  0.80904732  1
  Pd  Pd152  1  0.20176152  0.60507095  0.40563727  1
  Pd  Pd153  1  0.58819178  0.39018623  0.40637044  1
  Pd  Pd154  1  0.61099448  0.00700169  0.38841000  1
  Pd  Pd155  1  0.60301994  0.60937373  0.39901208  1
  Pd  Pd156  1  0.40440916  0.60302053  0.80735899  1
  Pd  Pd157  1  0.39362221  0.40091431  0.79475796  1
  Pd  Pd158  1  0.00175274  0.00192931  0.39723449  1
  Pd  Pd159  1  0.40213250  0.39305728  0.39302177  1
  Pd  Pd160  1  0.60052240  0.79963989  -0.00498292  1
  Pd  Pd161  1  0.79503564  0.59698648  0.80094438  1
  Pd  Pd162  1  0.79839788  0.80360649  0.59650885  1
  Pd  Pd163  1  -0.00409466  0.39426893  0.00523996  1
  Pd  Pd164  1  0.21018098  0.79973004  0.41054319  1
  Pd  Pd165  1  -0.00292987  0.39510086  0.79812693  1
  Pd  Pd166  1  0.79768891  0.80207957  0.18923085  1
  Pd  Pd167  1  -0.00346340  0.80919726  0.61371153  1
  Pd  Pd168  1  0.39311739  0.19053915  0.60580582  1
  Pd  Pd169  1  0.40299501  0.20652420  0.39865572  1
  Pd  Pd170  1  -0.00519974  0.61057001  0.39793308  1
  Pd  Pd171  1  0.58959552  0.79186143  0.80591221  1
  Pd  Pd172  1  0.80239045  0.39544048  0.40063062  1
  Pd  Pd173  1  0.00019532  0.59916551  0.60498612  1
  Pd  Pd174  1  0.60805755  0.59755391  -0.01092732  1
  Pd  Pd175  1  0.20141957  0.39572525  0.79509322  1
  Pd  Pd176  1  0.19137896  0.39931650  0.40074730  1
  Pd  Pd177  1  -0.00169703  0.60863705  0.79126048  1
  Pd  Pd178  1  0.39447128  0.20204046  0.00907960  1
  Pd  Pd179  1  0.19381093  0.80311843  0.19291704  1
  Pd  Pd180  1  0.20517619  0.59927836  0.80810135  1
  Pd  Pd181  1  0.79600022  0.59794887  0.59807394  1
  Pd  Pd182  1  0.60816609  0.20932481  0.59668429  1
  Pd  Pd183  1  0.60050308  0.39404684  0.00630442  1
  Pd  Pd184  1  0.60751099  0.59837654  0.21117803  1
  Pd  Pd185  1  0.79533288  0.39687700  0.79674351  1
  Pd  Pd186  1  0.59646105  -0.00039907  0.60488975  1
  Pd  Pd187  1  0.40036636  -0.00134195  0.00255597  1
  Pd  Pd188  1  0.01274500  0.60532308  -0.00098127  1
  Pd  Pd189  1  0.79077507  0.59785297  0.20729745  1
  Pd  Pd190  1  -0.00415647  0.78670219  0.39532444  1
  Pd  Pd191  1  0.79531113  0.19821705  0.40850164  1
  Pd  Pd192  1  0.19238411  0.59888966  0.19004632  1
  Pd  Pd193  1  0.79569104  -0.00598600  0.00417643  1
  Pd  Pd194  1  0.00696002  0.80088183  0.20424735  1
  Pd  Pd195  1  0.60790863  0.79380413  0.59726361  1
  Pd  Pd196  1  0.00639593  0.01301226  0.00981534  1
  Pd  Pd197  1  0.59713884  0.00632978  0.00574279  1
  Pd  Pd198  1  0.39188943  0.60914494  0.39434592  1
  Pd  Pd199  1  0.80520806  0.60911253  0.39192859  1
  Rh  Rh200  1  0.59655340  0.00630171  0.80123384  1
  Rh  Rh201  1  0.80762869  0.20281878  -0.00674264  1
  Rh  Rh202  1  0.20357213  0.80443690  0.80991611  1
  Rh  Rh203  1  0.20112531  0.00226508  0.01275061  1
  Rh  Rh204  1  0.20259508  0.79580697  0.59463853  1
  Rh  Rh205  1  0.20286113  0.19331667  0.39748390  1
  Rh  Rh206  1  0.79483164  0.60529103  -0.00633162  1
  Rh  Rh207  1  0.19349300  0.00378623  0.59676032  1
  Rh  Rh208  1  0.80994769  0.81004653  0.80685644  1
  Rh  Rh209  1  0.19675730  0.00477229  0.79361786  1
  Rh  Rh210  1  -0.00743358  0.19018312  0.59604566  1
  Rh  Rh211  1  0.20481837  0.18869552  0.19556357  1
  Rh  Rh212  1  0.59371516  0.18957389  0.20622125  1
  Rh  Rh213  1  0.80734678  0.20481881  0.19940950  1
  Rh  Rh214  1  0.59627760  0.19531212  -0.00065640  1
  Rh  Rh215  1  0.38961151  0.19294898  0.79131788  1
  Rh  Rh216  1  0.60064298  0.40657898  0.19693794  1
  Rh  Rh217  1  0.20673315  0.19170288  0.61055607  1
  Rh  Rh218  1  0.20036136  0.40100945  -0.00376321  1
  Rh  Rh219  1  0.39698846  0.81203786  -0.00962213  1
  Rh  Rh220  1  0.80795658  0.79752425  0.40254119  1
  Rh  Rh221  1  0.40402121  -0.00324078  0.79783368  1
  Rh  Rh222  1  0.60305275  0.19234779  0.80772765  1
  Rh  Rh223  1  0.00341626  0.20666573  0.40532060  1
  Rh  Rh224  1  0.81282653  0.00680152  0.58483529  1
  Rh  Rh225  1  0.40353748  -0.00492064  0.19693001  1
  Rh  Rh226  1  0.39604100  0.79858044  0.60252477  1
  Rh  Rh227  1  0.39803313  0.21128813  0.19498398  1
  Rh  Rh228  1  0.00914614  -0.01295993  0.78776664  1
  Rh  Rh229  1  0.00604049  0.79347330  -0.01344877  1
  Rh  Rh230  1  0.79652681  0.39232745  0.00923620  1
  Rh  Rh231  1  0.38914933  -0.01041236  0.40663093  1
  Rh  Rh232  1  0.40506500  0.00237269  0.60270099  1
  Rh  Rh233  1  0.40622467  0.79853336  0.20860179  1
  Rh  Rh234  1  0.79906565  0.20389813  0.80070548  1
  Rh  Rh235  1  0.59806670  0.80504689  0.19810762  1
  Rh  Rh236  1  0.00574205  0.59252323  0.19705770  1
  Rh  Rh237  1  0.79615823  -0.00112160  0.81150064  1
  Rh  Rh238  1  0.60115062  0.40384531  0.79785373  1
  Rh  Rh239  1  0.19336166  0.40763795  0.59314206  1
  Rh  Rh240  1  -0.00397467  0.20358701  0.19013635  1
  Rh  Rh241  1  0.59266143  0.79536611  0.39994925  1
  Rh  Rh242  1  -0.00248123  0.41285816  0.60082862  1
  Rh  Rh243  1  0.19339366  0.40781345  0.20397156  1
  Rh  Rh244  1  0.00586982  0.39548043  0.39347955  1
  Rh  Rh245  1  0.40265998  0.59543270  0.60043574  1
  Rh  Rh246  1  0.39612702  0.59250882  -0.00720097  1
  Rh  Rh247  1  0.19163723  0.59698195  0.59200902  1
  Rh  Rh248  1  0.40129903  0.40294612  0.60128309  1
  Rh  Rh249  1  0.40089900  0.59468974  0.20803236  1
