# generated using pymatgen
data_ZrScNbPdRh
_symmetry_space_group_name_H-M   'P 1'
_cell_length_a   16.55829421
_cell_length_b   16.55969545
_cell_length_c   16.55830687
_cell_angle_alpha   89.99368834
_cell_angle_beta   89.99749865
_cell_angle_gamma   89.98872215
_symmetry_Int_Tables_number   1
_chemical_formula_structural   ZrScNbPdRh
_chemical_formula_sum   'Zr50 Sc50 Nb50 Pd50 Rh50'
_cell_volume   4540.29274373
_cell_formula_units_Z   50
loop_
 _symmetry_equiv_pos_site_id
 _symmetry_equiv_pos_as_xyz
  1  'x, y, z'
loop_
 _atom_site_type_symbol
 _atom_site_label
 _atom_site_symmetry_multiplicity
 _atom_site_fract_x
 _atom_site_fract_y
 _atom_site_fract_z
 _atom_site_occupancy
  Zr  Zr0  1  0.49395097  0.30497609  0.29940621  1
  Zr  Zr1  1  0.89788280  0.50127984  0.09970336  1
  Zr  Zr2  1  0.29772689  0.28686070  0.10795937  1
  Zr  Zr3  1  0.31617838  0.10153046  0.50410813  1
  Zr  Zr4  1  0.10266608  0.50934687  0.49889780  1
  Zr  Zr5  1  0.70173689  0.69747787  0.29808591  1
  Zr  Zr6  1  0.91065944  0.09323549  0.09925125  1
  Zr  Zr7  1  0.69832639  0.10612072  0.49581319  1
  Zr  Zr8  1  0.29345766  0.69551393  0.50678419  1
  Zr  Zr9  1  0.70159396  0.69863162  0.09784418  1
  Zr  Zr10  1  0.30597480  0.70251978  0.10280398  1
  Zr  Zr11  1  0.10179960  0.49009387  0.70635336  1
  Zr  Zr12  1  0.69555733  0.10513207  0.30314020  1
  Zr  Zr13  1  0.49703100  0.69325989  0.70194822  1
  Zr  Zr14  1  0.50116096  0.29681233  0.90234492  1
  Zr  Zr15  1  0.69938045  0.30568790  0.49391801  1
  Zr  Zr16  1  0.89233310  0.49929605  0.49437007  1
  Zr  Zr17  1  0.89984059  0.29752889  0.70608476  1
  Zr  Zr18  1  0.29643499  0.89295726  0.49952437  1
  Zr  Zr19  1  0.50043454  0.10016493  0.10273477  1
  Zr  Zr20  1  0.49482766  0.29765970  0.49937149  1
  Zr  Zr21  1  0.70700155  0.09355818  0.70068694  1
  Zr  Zr22  1  0.09515294  0.89579556  0.31248740  1
  Zr  Zr23  1  0.29140094  0.70090250  0.29903680  1
  Zr  Zr24  1  0.30312017  0.10227301  0.29203415  1
  Zr  Zr25  1  0.09376221  0.49527050  0.10312901  1
  Zr  Zr26  1  0.49772752  0.49757956  0.09877625  1
  Zr  Zr27  1  0.70076761  0.29849987  0.29405945  1
  Zr  Zr28  1  0.89918311  0.30475377  0.10229575  1
  Zr  Zr29  1  0.09665980  0.29432478  0.09092375  1
  Zr  Zr30  1  0.49287724  0.69759176  0.50373620  1
  Zr  Zr31  1  0.50560695  0.50332858  0.89860562  1
  Zr  Zr32  1  0.10429652  0.30856844  0.29263503  1
  Zr  Zr33  1  0.49924390  0.49337353  0.49535763  1
  Zr  Zr34  1  0.91309817  0.88815769  0.90373367  1
  Zr  Zr35  1  0.31399072  0.89951616  0.10070403  1
  Zr  Zr36  1  0.29697854  0.90476268  0.70613602  1
  Zr  Zr37  1  0.90739795  0.09443708  0.69642782  1
  Zr  Zr38  1  0.70675285  0.89720184  0.70201015  1
  Zr  Zr39  1  0.09536533  0.90530902  0.70515673  1
  Zr  Zr40  1  0.70390502  0.90659416  0.29777937  1
  Zr  Zr41  1  0.88777040  0.70173840  0.71094453  1
  Zr  Zr42  1  0.10388283  0.30322736  0.89220532  1
  Zr  Zr43  1  0.50445559  0.89514656  0.10095225  1
  Zr  Zr44  1  0.08364318  0.90580289  0.10218049  1
  Zr  Zr45  1  0.89481699  0.30428055  0.30077978  1
  Zr  Zr46  1  0.50281653  0.90217325  0.29742756  1
  Zr  Zr47  1  0.30176138  0.09060193  0.89829840  1
  Zr  Zr48  1  0.49971171  0.10587752  0.90367513  1
  Zr  Zr49  1  0.10424976  0.09132174  0.29821251  1
  Sc  Sc50  1  0.10111237  0.30343261  0.50642902  1
  Sc  Sc51  1  0.10027862  0.30059074  0.69847413  1
  Sc  Sc52  1  0.69694287  0.10503868  0.10063388  1
  Sc  Sc53  1  0.30038583  0.49916382  0.89896165  1
  Sc  Sc54  1  0.50923239  0.90046354  0.70424203  1
  Sc  Sc55  1  0.50049767  0.90054033  0.90581348  1
  Sc  Sc56  1  0.69795274  0.09688328  0.90138129  1
  Sc  Sc57  1  0.10050648  0.09932310  0.90782593  1
  Sc  Sc58  1  0.90008494  0.50825648  0.70432698  1
  Sc  Sc59  1  0.09814437  0.50611501  0.29628704  1
  Sc  Sc60  1  0.10688486  0.69533572  0.11195874  1
  Sc  Sc61  1  0.49007165  0.09874523  0.68322786  1
  Sc  Sc62  1  0.71022999  0.91181952  0.50675928  1
  Sc  Sc63  1  0.70402315  0.69448087  0.89747311  1
  Sc  Sc64  1  0.90576024  0.90817325  0.49381502  1
  Sc  Sc65  1  0.09378951  0.09568088  0.50309694  1
  Sc  Sc66  1  0.69191314  0.50485872  0.30457907  1
  Sc  Sc67  1  0.88939759  0.09362024  0.30262477  1
  Sc  Sc68  1  0.10298028  0.69191987  0.69917814  1
  Sc  Sc69  1  0.49725182  0.29588018  0.10323638  1
  Sc  Sc70  1  0.10004403  0.70057745  0.89588136  1
  Sc  Sc71  1  0.10861483  0.10057280  0.09653207  1
  Sc  Sc72  1  0.29377632  0.30837069  0.68690438  1
  Sc  Sc73  1  0.89387976  0.71126936  0.10166404  1
  Sc  Sc74  1  0.70210646  0.28353226  0.90101238  1
  Sc  Sc75  1  0.89606547  0.10659852  0.89453535  1
  Sc  Sc76  1  0.09955049  0.70717461  0.29972482  1
  Sc  Sc77  1  0.68838656  0.90234188  0.89399540  1
  Sc  Sc78  1  0.89894399  0.09826369  0.49861108  1
  Sc  Sc79  1  0.30749965  0.28968851  0.90098227  1
  Sc  Sc80  1  0.50419337  0.69773231  0.90509388  1
  Sc  Sc81  1  0.90620693  0.90369188  0.29297369  1
  Sc  Sc82  1  0.10413338  0.90286636  0.89726597  1
  Sc  Sc83  1  0.70152866  0.50881740  0.10779617  1
  Sc  Sc84  1  0.29808000  0.50611389  0.09412274  1
  Sc  Sc85  1  0.70732152  0.68329038  0.49614525  1
  Sc  Sc86  1  0.69709794  0.89695104  0.10379435  1
  Sc  Sc87  1  0.89485875  0.69391472  0.50964093  1
  Sc  Sc88  1  0.50612801  0.70076685  0.30163759  1
  Sc  Sc89  1  0.49074859  0.90986536  0.49791830  1
  Sc  Sc90  1  0.89698918  0.50731049  0.89222123  1
  Sc  Sc91  1  0.28797618  0.49032634  0.30648762  1
  Sc  Sc92  1  0.30032164  0.90035656  0.30162720  1
  Sc  Sc93  1  0.10192520  0.50175824  0.89046699  1
  Sc  Sc94  1  0.30265024  0.68997772  0.90568384  1
  Sc  Sc95  1  0.89410451  0.30841661  0.49149569  1
  Sc  Sc96  1  0.90658820  0.29500060  0.90092882  1
  Sc  Sc97  1  0.49957163  0.70599813  0.09680450  1
  Sc  Sc98  1  0.30095210  0.50299691  0.69447868  1
  Sc  Sc99  1  0.90110209  0.49439023  0.29760470  1
  Nb  Nb100  1  0.89869978  0.69296896  0.90320715  1
  Nb  Nb101  1  0.90288404  0.70607275  0.30763744  1
  Nb  Nb102  1  0.50780725  0.30967652  0.69768626  1
  Nb  Nb103  1  0.29751865  0.09645439  0.70031498  1
  Nb  Nb104  1  0.10251943  0.10030795  0.69378181  1
  Nb  Nb105  1  0.09878235  0.89657566  0.50040408  1
  Nb  Nb106  1  0.29854876  0.89685284  0.89973701  1
  Nb  Nb107  1  0.09830158  0.70853409  0.49744018  1
  Nb  Nb108  1  0.89941266  0.89987257  0.69565286  1
  Nb  Nb109  1  0.30293849  0.31050933  0.49275199  1
  Nb  Nb110  1  0.29921995  0.29460944  0.30280442  1
  Nb  Nb111  1  0.69545870  0.30263977  0.69802891  1
  Nb  Nb112  1  0.69806013  0.50003511  0.90359419  1
  Nb  Nb113  1  0.50350909  0.49457989  0.70092887  1
  Nb  Nb114  1  0.30892837  0.70409868  0.69484840  1
  Nb  Nb115  1  0.30123598  0.49569001  0.50091756  1
  Nb  Nb116  1  0.50134430  0.10298926  0.31202569  1
  Nb  Nb117  1  0.50031275  0.10413923  0.48847931  1
  Nb  Nb118  1  0.69787527  0.70403154  0.69791146  1
  Nb  Nb119  1  0.68986333  0.49376927  0.70765174  1
  Nb  Nb120  1  0.69987636  0.29990764  0.10143234  1
  Nb  Nb121  1  0.49738133  0.50166997  0.30189286  1
  Nb  Nb122  1  0.89857282  0.90472250  0.09800397  1
  Nb  Nb123  1  0.70069927  0.49999961  0.49640639  1
  Nb  Nb124  1  0.29856501  0.10260360  0.09920340  1
  Nb  Nb125  1  0.59613067  0.20300472  0.78742338  1
  Nb  Nb126  1  0.00509365  0.20385420  0.39210068  1
  Nb  Nb127  1  0.39507088  0.59417451  0.39929266  1
  Nb  Nb128  1  0.60702886  0.79325123  0.59711555  1
  Nb  Nb129  1  0.80553463  -0.00704976  0.00247872  1
  Nb  Nb130  1  0.20009060  0.00059450  0.60339268  1
  Nb  Nb131  1  0.20431823  0.20377011  0.40053722  1
  Nb  Nb132  1  0.20372956  0.19068189  0.79123431  1
  Nb  Nb133  1  -0.00090433  0.60789345  0.40328747  1
  Nb  Nb134  1  -0.00133109  0.80282979  0.60181213  1
  Nb  Nb135  1  0.60945985  0.39753652  0.00093539  1
  Nb  Nb136  1  0.80016058  0.79863985  0.39884029  1
  Nb  Nb137  1  0.41019255  0.39883954  0.79386091  1
  Nb  Nb138  1  -0.00332799  0.40654303  0.60015506  1
  Nb  Nb139  1  0.19815155  0.39398769  -0.00063837  1
  Nb  Nb140  1  0.39427497  0.79734861  0.79992758  1
  Nb  Nb141  1  0.60793996  0.80086548  0.40830411  1
  Nb  Nb142  1  0.00187692  0.20043555  0.20456769  1
  Nb  Nb143  1  0.20495503  0.80458581  0.00214782  1
  Nb  Nb144  1  0.79332046  0.40042504  -0.00291537  1
  Nb  Nb145  1  0.78776725  0.39951495  0.80245897  1
  Nb  Nb146  1  0.60312162  0.59386135  0.60502103  1
  Nb  Nb147  1  0.39958562  0.59626998  0.20925945  1
  Nb  Nb148  1  0.79569853  0.20485176  0.60362329  1
  Nb  Nb149  1  -0.00474319  0.60391217  -0.00000408  1
  Pd  Pd150  1  0.60328632  0.00571967  0.19752954  1
  Pd  Pd151  1  0.39864502  0.20777432  0.78369947  1
  Pd  Pd152  1  0.79751128  0.80501348  0.81161829  1
  Pd  Pd153  1  0.39591945  0.59717703  0.80012310  1
  Pd  Pd154  1  0.80775170  0.59926703  0.20691052  1
  Pd  Pd155  1  0.80393072  0.19602693  0.00486545  1
  Pd  Pd156  1  0.80235281  0.80283579  0.58983168  1
  Pd  Pd157  1  0.59041356  0.01192341  0.79723438  1
  Pd  Pd158  1  0.20646530  0.40317614  0.18962601  1
  Pd  Pd159  1  0.40946897  0.81191935  0.60842911  1
  Pd  Pd160  1  0.19929895  0.59778160  0.60567727  1
  Pd  Pd161  1  0.80980190  -0.01134517  0.81295859  1
  Pd  Pd162  1  0.39610498  0.39804911  -0.00536038  1
  Pd  Pd163  1  0.19541527  0.81297931  0.19354588  1
  Pd  Pd164  1  -0.01012014  0.21039556  0.58825728  1
  Pd  Pd165  1  -0.00073159  0.00644241  0.80707205  1
  Pd  Pd166  1  0.60541391  0.60584595  0.79828260  1
  Pd  Pd167  1  0.20461819  0.19542127  0.59452244  1
  Pd  Pd168  1  0.60210426  0.40494350  0.59055280  1
  Pd  Pd169  1  0.79221354  0.80703265  -0.00761610  1
  Pd  Pd170  1  0.40451562  0.00311537  0.20351697  1
  Pd  Pd171  1  0.20656660  0.78964144  0.80496386  1
  Pd  Pd172  1  0.80651032  0.19287630  0.19442187  1
  Pd  Pd173  1  0.01164878  0.19346164  0.80078496  1
  Pd  Pd174  1  0.38809967  0.40661015  0.20252943  1
  Pd  Pd175  1  0.40968009  -0.00650856  0.79960819  1
  Pd  Pd176  1  -0.00658494  0.60927669  0.20146698  1
  Pd  Pd177  1  0.40396171  0.00118616  0.00011309  1
  Pd  Pd178  1  0.60759820  0.79778625  -0.00548611  1
  Pd  Pd179  1  0.80369873  0.80433585  0.20583599  1
  Pd  Pd180  1  0.20156714  -0.00817221  0.00687701  1
  Pd  Pd181  1  0.59020246  0.60507777  0.19459816  1
  Pd  Pd182  1  0.79058749  0.58897121  0.61155623  1
  Pd  Pd183  1  0.59753492  -0.00393591  0.59488671  1
  Pd  Pd184  1  0.60226432  -0.00716449  0.40761651  1
  Pd  Pd185  1  0.19180592  0.39717331  0.40449245  1
  Pd  Pd186  1  0.80415547  0.40161366  0.60980305  1
  Pd  Pd187  1  0.20874234  0.60343396  0.79422586  1
  Pd  Pd188  1  0.60270928  0.40085400  0.19649099  1
  Pd  Pd189  1  0.39731820  0.21023541  0.60483834  1
  Pd  Pd190  1  0.20038033  -0.00959938  0.19352999  1
  Pd  Pd191  1  0.60225707  0.19715690  0.60074097  1
  Pd  Pd192  1  0.00217809  0.79171335  0.79251697  1
  Pd  Pd193  1  -0.00002455  0.60191026  0.59971332  1
  Pd  Pd194  1  0.19101935  0.80430123  0.60761216  1
  Pd  Pd195  1  -0.00251083  0.41035174  -0.01504616  1
  Pd  Pd196  1  0.40357359  0.79453385  0.39447041  1
  Pd  Pd197  1  0.18886413  0.59949734  0.00012794  1
  Pd  Pd198  1  0.20688657  0.00717423  0.41123780  1
  Pd  Pd199  1  0.01155553  0.78786307  0.00749164  1
  Rh  Rh200  1  0.20809701  0.59230690  0.20307119  1
  Rh  Rh201  1  0.40645217  0.79272872  0.20883440  1
  Rh  Rh202  1  0.59496677  0.20970378  0.39557040  1
  Rh  Rh203  1  0.60129790  0.39634030  0.39543785  1
  Rh  Rh204  1  0.78897816  0.40793268  0.38850182  1
  Rh  Rh205  1  0.40184883  0.58733373  0.59409909  1
  Rh  Rh206  1  0.60667498  0.00039508  0.00399344  1
  Rh  Rh207  1  0.21795544  0.38811194  0.80875289  1
  Rh  Rh208  1  0.00012714  0.00623131  0.39829319  1
  Rh  Rh209  1  0.00097388  0.60544938  0.80569041  1
  Rh  Rh210  1  0.39703547  0.19346810  0.00791236  1
  Rh  Rh211  1  0.59164792  0.60252319  0.40986952  1
  Rh  Rh212  1  0.20077238  0.79776013  0.40027356  1
  Rh  Rh213  1  0.00606427  0.40632786  0.40728525  1
  Rh  Rh214  1  0.59325242  0.79251245  0.79627767  1
  Rh  Rh215  1  0.39622245  -0.00736550  0.60104223  1
  Rh  Rh216  1  -0.01193748  0.40342896  0.79531368  1
  Rh  Rh217  1  0.00346988  -0.00778283  0.59690352  1
  Rh  Rh218  1  0.59988791  0.79732537  0.20578628  1
  Rh  Rh219  1  0.39973215  0.40132198  0.60370277  1
  Rh  Rh220  1  0.19387198  0.19681742  0.20552314  1
  Rh  Rh221  1  0.00018103  0.00470932  0.20617395  1
  Rh  Rh222  1  0.39442191  0.79735508  -0.01201900  1
  Rh  Rh223  1  0.78968757  0.59531885  0.79778382  1
  Rh  Rh224  1  -0.00531902  0.00361140  -0.01009430  1
  Rh  Rh225  1  0.19354818  0.00806339  0.79784592  1
  Rh  Rh226  1  -0.00178761  0.79916073  0.19675766  1
  Rh  Rh227  1  0.80730100  0.19885926  0.40804526  1
  Rh  Rh228  1  0.39617975  0.00049651  0.39502948  1
  Rh  Rh229  1  -0.01007438  0.79546257  0.41164974  1
  Rh  Rh230  1  0.19739510  0.60651409  0.40019606  1
  Rh  Rh231  1  0.79971401  -0.00439371  0.39821865  1
  Rh  Rh232  1  0.80959256  0.59991770  0.39127642  1
  Rh  Rh233  1  0.40569052  0.60119378  0.00858826  1
  Rh  Rh234  1  0.20660590  0.20143621  -0.01100243  1
  Rh  Rh235  1  0.79199112  0.40576892  0.19693643  1
  Rh  Rh236  1  0.80558228  0.59658866  0.00020025  1
  Rh  Rh237  1  0.80722526  0.00706730  0.59861705  1
  Rh  Rh238  1  0.40693219  0.19408319  0.20269345  1
  Rh  Rh239  1  -0.00216075  0.39488513  0.20245440  1
  Rh  Rh240  1  0.59421347  0.20106219  0.20352991  1
  Rh  Rh241  1  0.60064966  0.39031912  0.81300276  1
  Rh  Rh242  1  0.39712034  0.40450655  0.39439289  1
  Rh  Rh243  1  0.59897517  0.20259069  0.00031733  1
  Rh  Rh244  1  0.79101231  0.20457345  0.79085485  1
  Rh  Rh245  1  0.60149699  0.59646201  0.00636828  1
  Rh  Rh246  1  0.79594302  0.00250295  0.19094911  1
  Rh  Rh247  1  0.39602810  0.20203206  0.39720114  1
  Rh  Rh248  1  0.19404850  0.40712775  0.59353351  1
  Rh  Rh249  1  -0.00286094  0.19546245  0.00291554  1
