# generated using pymatgen
data_ZrScNbPdRh
_symmetry_space_group_name_H-M   'P 1'
_cell_length_a   16.56698946
_cell_length_b   16.55679377
_cell_length_c   16.56120709
_cell_angle_alpha   90.00468243
_cell_angle_beta   89.98710042
_cell_angle_gamma   90.00144581
_symmetry_Int_Tables_number   1
_chemical_formula_structural   ZrScNbPdRh
_chemical_formula_sum   'Zr50 Sc50 Nb50 Pd50 Rh50'
_cell_volume   4542.67650414
_cell_formula_units_Z   50
loop_
 _symmetry_equiv_pos_site_id
 _symmetry_equiv_pos_as_xyz
  1  'x, y, z'
loop_
 _atom_site_type_symbol
 _atom_site_label
 _atom_site_symmetry_multiplicity
 _atom_site_fract_x
 _atom_site_fract_y
 _atom_site_fract_z
 _atom_site_occupancy
  Zr  Zr0  1  0.49635427  0.89537169  0.10096113  1
  Zr  Zr1  1  0.50227078  0.50118592  0.30023690  1
  Zr  Zr2  1  0.69293934  0.09381625  0.29910904  1
  Zr  Zr3  1  0.90068533  0.30362489  0.49080395  1
  Zr  Zr4  1  0.89720221  0.70765646  0.70725776  1
  Zr  Zr5  1  0.09953761  0.49903411  0.10977145  1
  Zr  Zr6  1  0.10007038  0.30155790  0.69761303  1
  Zr  Zr7  1  0.89950780  0.09790538  0.29941765  1
  Zr  Zr8  1  0.70240064  0.89575639  0.29825214  1
  Zr  Zr9  1  0.50523580  0.09936711  0.70306865  1
  Zr  Zr10  1  0.28914861  0.69638514  0.70815925  1
  Zr  Zr11  1  0.49999087  0.09782019  0.29836947  1
  Zr  Zr12  1  0.50248618  0.09713735  0.90028243  1
  Zr  Zr13  1  0.11217309  0.10936954  0.50377905  1
  Zr  Zr14  1  0.49385459  0.29427975  0.29324304  1
  Zr  Zr15  1  0.69514377  0.88829018  0.69745823  1
  Zr  Zr16  1  0.90442499  0.70149567  0.49876736  1
  Zr  Zr17  1  0.90240832  0.89849356  0.30258283  1
  Zr  Zr18  1  0.09484491  0.89504874  0.49667051  1
  Zr  Zr19  1  0.90206866  0.49859991  0.09856383  1
  Zr  Zr20  1  0.69709098  0.69592941  0.88615718  1
  Zr  Zr21  1  0.49176400  0.29742575  0.89489042  1
  Zr  Zr22  1  0.49813927  0.69903198  0.29687427  1
  Zr  Zr23  1  0.70463848  0.30184825  0.91096994  1
  Zr  Zr24  1  0.30296528  0.10005650  0.70239815  1
  Zr  Zr25  1  0.30537355  0.88873727  0.89967367  1
  Zr  Zr26  1  0.68991866  0.90132642  0.89878678  1
  Zr  Zr27  1  0.10842363  0.49938974  0.69955596  1
  Zr  Zr28  1  0.90159385  0.89426111  0.49328967  1
  Zr  Zr29  1  0.70121619  0.10431457  0.69592431  1
  Zr  Zr30  1  0.70540591  0.29666584  0.50485736  1
  Zr  Zr31  1  0.90231092  0.89706695  0.89535980  1
  Zr  Zr32  1  0.89305455  0.70320736  0.30327006  1
  Zr  Zr33  1  0.29913685  0.89354953  0.70243877  1
  Zr  Zr34  1  0.90211935  0.69749094  0.09773975  1
  Zr  Zr35  1  0.10196465  0.30049074  0.89055432  1
  Zr  Zr36  1  0.10458619  0.29365279  0.10794165  1
  Zr  Zr37  1  0.89959345  0.09900344  0.70385631  1
  Zr  Zr38  1  0.69494776  0.50583636  0.71252625  1
  Zr  Zr39  1  0.29946197  0.90317905  0.49857181  1
  Zr  Zr40  1  0.10219643  0.49632133  0.89627619  1
  Zr  Zr41  1  0.90009006  0.10189370  0.89341238  1
  Zr  Zr42  1  0.49808522  0.10325206  0.11058540  1
  Zr  Zr43  1  0.30794864  0.68869321  0.90579368  1
  Zr  Zr44  1  0.09656271  0.90428824  0.90658788  1
  Zr  Zr45  1  0.09906183  0.30055718  0.50113978  1
  Zr  Zr46  1  0.29845732  0.10856749  0.90133362  1
  Zr  Zr47  1  0.10532326  0.70102072  0.10090180  1
  Zr  Zr48  1  0.09578621  0.30620398  0.29587796  1
  Zr  Zr49  1  0.29346505  0.10085377  0.09717200  1
  Sc  Sc50  1  0.51858852  0.70003299  0.70122297  1
  Sc  Sc51  1  0.91383876  0.49475790  0.90430188  1
  Sc  Sc52  1  0.50260519  0.90163496  0.70648421  1
  Sc  Sc53  1  0.50823884  0.50541255  0.09670862  1
  Sc  Sc54  1  0.30630713  0.89930131  0.29110120  1
  Sc  Sc55  1  0.09410836  0.88801911  0.70378782  1
  Sc  Sc56  1  0.09391236  0.69960191  0.90462027  1
  Sc  Sc57  1  0.09316480  0.69363744  0.49866003  1
  Sc  Sc58  1  0.69853392  0.49595736  0.09752390  1
  Sc  Sc59  1  0.49282968  0.30955783  0.50628953  1
  Sc  Sc60  1  0.69267587  0.30655731  0.09839972  1
  Sc  Sc61  1  0.90080300  0.28827105  0.69986676  1
  Sc  Sc62  1  0.49959929  0.69803014  0.09759766  1
  Sc  Sc63  1  0.10094951  0.90707733  0.29745062  1
  Sc  Sc64  1  0.49752235  0.48768914  0.70761612  1
  Sc  Sc65  1  0.70461343  0.50589609  0.29551930  1
  Sc  Sc66  1  0.69493733  0.29779495  0.70185575  1
  Sc  Sc67  1  0.70401230  0.69962516  0.10702030  1
  Sc  Sc68  1  0.90116312  0.49969920  0.29838224  1
  Sc  Sc69  1  0.50277491  0.69503053  0.49831551  1
  Sc  Sc70  1  0.89470696  0.11196994  0.49612498  1
  Sc  Sc71  1  0.69470536  0.70101965  0.50240128  1
  Sc  Sc72  1  0.10787553  0.68999699  0.29991032  1
  Sc  Sc73  1  0.70455580  0.69663653  0.29951177  1
  Sc  Sc74  1  0.50191435  0.50985227  0.90016007  1
  Sc  Sc75  1  0.29917854  0.50802771  0.29953575  1
  Sc  Sc76  1  0.29574523  0.29420573  0.49838713  1
  Sc  Sc77  1  0.29750455  0.49765677  0.50219407  1
  Sc  Sc78  1  0.91526707  0.10674160  0.09182600  1
  Sc  Sc79  1  0.70150687  0.30499207  0.29513571  1
  Sc  Sc80  1  0.50289093  0.90523653  0.50678315  1
  Sc  Sc81  1  0.91409845  0.50565877  0.70692828  1
  Sc  Sc82  1  0.29522983  0.69537491  0.49358273  1
  Sc  Sc83  1  0.69670547  0.10526385  0.89536957  1
  Sc  Sc84  1  0.09676092  0.10005969  0.90475675  1
  Sc  Sc85  1  0.90252320  0.50785707  0.48820713  1
  Sc  Sc86  1  0.29632050  0.30575793  0.70843653  1
  Sc  Sc87  1  0.09544727  0.11361069  0.70604347  1
  Sc  Sc88  1  0.09344503  0.69490711  0.69485853  1
  Sc  Sc89  1  0.89991505  0.88895159  0.09259565  1
  Sc  Sc90  1  0.69405772  0.89316916  0.10475707  1
  Sc  Sc91  1  0.69402592  0.90220862  0.49698658  1
  Sc  Sc92  1  0.69675700  0.50790574  0.49289263  1
  Sc  Sc93  1  0.49871838  0.90439126  0.28878600  1
  Sc  Sc94  1  0.49747788  0.49987381  0.50329263  1
  Sc  Sc95  1  0.68692243  0.11147818  0.09589321  1
  Sc  Sc96  1  0.90037306  0.89735763  0.70527085  1
  Sc  Sc97  1  0.30519456  0.70231822  0.29532191  1
  Sc  Sc98  1  0.30942962  0.10275263  0.30675510  1
  Sc  Sc99  1  0.09641718  0.10016662  0.29298648  1
  Nb  Nb100  1  0.70425539  0.69876960  0.70029448  1
  Nb  Nb101  1  0.29720145  0.29870677  0.90561056  1
  Nb  Nb102  1  0.30094630  0.50390076  0.08980783  1
  Nb  Nb103  1  0.09909423  0.49730529  0.30374103  1
  Nb  Nb104  1  0.90019360  0.70604979  0.90778333  1
  Nb  Nb105  1  0.30582793  0.09797388  0.50423895  1
  Nb  Nb106  1  0.30422288  0.49893445  0.89534853  1
  Nb  Nb107  1  0.50218994  0.70703219  0.90799003  1
  Nb  Nb108  1  0.50349203  0.09578918  0.50147247  1
  Nb  Nb109  1  0.10806455  0.08955339  0.09417862  1
  Nb  Nb110  1  0.69144559  0.09796575  0.50111138  1
  Nb  Nb111  1  0.89829895  0.30164195  0.90448303  1
  Nb  Nb112  1  0.50010730  0.89483723  0.90493991  1
  Nb  Nb113  1  0.49871943  0.29910602  0.10358044  1
  Nb  Nb114  1  0.29842924  0.50679904  0.71372840  1
  Nb  Nb115  1  0.29683980  0.30603593  0.29171689  1
  Nb  Nb116  1  0.29305688  0.89577106  0.09908372  1
  Nb  Nb117  1  0.11449149  0.90440706  0.10222413  1
  Nb  Nb118  1  0.89798794  0.30434451  0.09592519  1
  Nb  Nb119  1  0.70184554  0.50099812  0.90373021  1
  Nb  Nb120  1  0.29981686  0.70473744  0.09880472  1
  Nb  Nb121  1  0.49429926  0.29955034  0.69973304  1
  Nb  Nb122  1  0.90189741  0.29949797  0.29633226  1
  Nb  Nb123  1  0.09617614  0.50180932  0.49277013  1
  Nb  Nb124  1  0.29718676  0.30055040  0.10088462  1
  Nb  Nb125  1  0.80753312  0.20194795  0.19754344  1
  Nb  Nb126  1  0.59544627  0.80092933  0.39471347  1
  Nb  Nb127  1  0.39757085  0.79210707  0.60322661  1
  Nb  Nb128  1  -0.00077933  0.40322901  0.59422699  1
  Nb  Nb129  1  0.39402142  0.40019683  0.18973916  1
  Nb  Nb130  1  0.80424769  0.40852735  0.60527906  1
  Nb  Nb131  1  0.19698626  0.00047610  0.60328496  1
  Nb  Nb132  1  0.79922473  0.60089769  0.60856631  1
  Nb  Nb133  1  0.80281622  0.40023818  0.80353632  1
  Nb  Nb134  1  0.79796490  0.00149859  0.00073892  1
  Nb  Nb135  1  0.59612984  0.19971349  0.40659012  1
  Nb  Nb136  1  0.39912532  -0.00683481  0.00106395  1
  Nb  Nb137  1  0.59732491  0.39516460  0.39765517  1
  Nb  Nb138  1  0.20734382  0.39943892  0.00241383  1
  Nb  Nb139  1  0.40321144  0.19514991  0.60066127  1
  Nb  Nb140  1  0.19972068  0.80316056  0.39730242  1
  Nb  Nb141  1  -0.00062923  0.00314009  0.59853790  1
  Nb  Nb142  1  0.00836825  0.80050480  0.19652614  1
  Nb  Nb143  1  0.80023762  0.00158031  0.59781233  1
  Nb  Nb144  1  0.80261776  0.00589635  0.19030295  1
  Nb  Nb145  1  0.19507967  0.40197716  0.39391930  1
  Nb  Nb146  1  0.39401380  0.39833504  0.00172083  1
  Nb  Nb147  1  0.20063256  -0.00285686  0.79842741  1
  Nb  Nb148  1  0.39456916  0.60096808  0.61131626  1
  Nb  Nb149  1  0.80167256  0.59993656  -0.00883204  1
  Pd  Pd150  1  0.60365185  0.39522877  0.80868252  1
  Pd  Pd151  1  0.00527472  0.19612425  0.39777646  1
  Pd  Pd152  1  0.20090040  0.40298457  0.59473966  1
  Pd  Pd153  1  0.60672655  0.79040522  0.00466834  1
  Pd  Pd154  1  0.39852873  0.59683023  0.40868908  1
  Pd  Pd155  1  0.38908566  0.40145619  0.60803161  1
  Pd  Pd156  1  0.00697553  0.20616054  -0.00307001  1
  Pd  Pd157  1  0.39504506  0.40242273  0.39211955  1
  Pd  Pd158  1  -0.00257894  0.19955755  0.19679032  1
  Pd  Pd159  1  0.39786471  0.59635512  0.19050205  1
  Pd  Pd160  1  0.59878056  0.00120391  0.00617548  1
  Pd  Pd161  1  0.00199642  0.60682631  0.80561694  1
  Pd  Pd162  1  0.20027832  0.79875740  0.59137485  1
  Pd  Pd163  1  -0.00337659  0.60515653  0.20771362  1
  Pd  Pd164  1  0.59801851  0.59197797  0.60335962  1
  Pd  Pd165  1  0.80019074  0.19285612  0.00802611  1
  Pd  Pd166  1  0.20113872  -0.00150593  0.39840470  1
  Pd  Pd167  1  0.41325444  0.60771843  0.79496230  1
  Pd  Pd168  1  0.20326754  0.19043283  0.20798311  1
  Pd  Pd169  1  0.60694197  0.40524661  0.59540373  1
  Pd  Pd170  1  0.60610430  0.60097282  0.19753932  1
  Pd  Pd171  1  0.40486099  0.19899763  0.00644880  1
  Pd  Pd172  1  0.60263819  0.20679667  0.80333389  1
  Pd  Pd173  1  -0.00572811  -0.00888589  0.18685175  1
  Pd  Pd174  1  0.20792913  0.59851647  0.20020655  1
  Pd  Pd175  1  0.78886117  0.79945061  -0.00554316  1
  Pd  Pd176  1  0.59050142  0.20614519  0.59567125  1
  Pd  Pd177  1  0.78918039  0.20003392  0.38982400  1
  Pd  Pd178  1  0.79347141  0.40634789  0.40142180  1
  Pd  Pd179  1  0.79071318  -0.00481331  0.79922186  1
  Pd  Pd180  1  0.81180471  0.59249103  0.80460815  1
  Pd  Pd181  1  0.19600160  0.59604990  -0.00303409  1
  Pd  Pd182  1  0.79789008  0.00062797  0.40440558  1
  Pd  Pd183  1  0.19903386  0.79516862  -0.00622511  1
  Pd  Pd184  1  0.40185051  0.80391458  0.40632047  1
  Pd  Pd185  1  0.41100915  0.78753985  0.79338135  1
  Pd  Pd186  1  0.00404641  0.01217217  0.40928585  1
  Pd  Pd187  1  0.40475013  0.20263955  0.41012867  1
  Pd  Pd188  1  -0.00594987  -0.00585333  0.00647339  1
  Pd  Pd189  1  0.39854255  -0.00224401  0.80931696  1
  Pd  Pd190  1  0.20255151  0.59817099  0.59512390  1
  Pd  Pd191  1  0.01165685  0.39234096  0.00591475  1
  Pd  Pd192  1  0.58766085  0.40051163  -0.00523065  1
  Pd  Pd193  1  0.39939260  -0.00291143  0.60308810  1
  Pd  Pd194  1  0.19075152  0.79581238  0.80962221  1
  Pd  Pd195  1  0.40643103  -0.00630323  0.39854678  1
  Pd  Pd196  1  0.20255813  0.20506010  0.38901507  1
  Pd  Pd197  1  0.20865198  0.00631018  0.21038347  1
  Pd  Pd198  1  0.80024535  0.80071379  0.59339594  1
  Pd  Pd199  1  0.80178042  0.39710925  0.19843775  1
  Rh  Rh200  1  0.59144005  0.20598093  -0.00326885  1
  Rh  Rh201  1  0.79733964  0.80433315  0.80601337  1
  Rh  Rh202  1  0.59799491  0.60016702  0.39469996  1
  Rh  Rh203  1  -0.00418979  0.80380610  0.60274645  1
  Rh  Rh204  1  0.59585447  0.79987036  0.80208128  1
  Rh  Rh205  1  0.00248359  0.40159762  0.39888759  1
  Rh  Rh206  1  0.20041545  0.19639601  0.80092975  1
  Rh  Rh207  1  0.39146492  0.00094996  0.18910779  1
  Rh  Rh208  1  0.79778106  0.21131528  0.80412981  1
  Rh  Rh209  1  0.78583412  0.79687061  0.40543331  1
  Rh  Rh210  1  -0.00635011  0.39934617  0.19961463  1
  Rh  Rh211  1  0.60976291  0.60646574  -0.00228279  1
  Rh  Rh212  1  -0.00616624  0.59362319  0.59710859  1
  Rh  Rh213  1  0.20935175  -0.00265929  -0.01002829  1
  Rh  Rh214  1  0.00153479  0.79419930  0.80418678  1
  Rh  Rh215  1  0.21344253  0.19641390  0.60575410  1
  Rh  Rh216  1  0.19873400  0.79996335  0.20575008  1
  Rh  Rh217  1  0.59284361  0.79986777  0.59139558  1
  Rh  Rh218  1  0.20761025  0.41087831  0.20120489  1
  Rh  Rh219  1  -0.00256929  0.60021611  -0.00147859  1
  Rh  Rh220  1  0.20728898  0.40180380  0.80619038  1
  Rh  Rh221  1  0.60808115  -0.00216952  0.60652011  1
  Rh  Rh222  1  0.80940411  0.80693161  0.20130609  1
  Rh  Rh223  1  0.39646487  0.39862211  0.80504239  1
  Rh  Rh224  1  0.79903756  0.60461160  0.40766744  1
  Rh  Rh225  1  0.18986572  0.20515220  -0.00040494  1
  Rh  Rh226  1  -0.00776391  0.38967228  0.78929241  1
  Rh  Rh227  1  0.60877198  0.20691551  0.20715209  1
  Rh  Rh228  1  0.01378933  0.79110024  0.38306018  1
  Rh  Rh229  1  0.80098992  0.19841838  0.59993551  1
  Rh  Rh230  1  0.38986809  0.20269378  0.19743946  1
  Rh  Rh231  1  0.40526020  0.59871121  0.00288694  1
  Rh  Rh232  1  0.20119558  0.59789747  0.40017266  1
  Rh  Rh233  1  0.59224003  -0.00236854  0.39751829  1
  Rh  Rh234  1  0.59326046  0.60043236  0.80365871  1
  Rh  Rh235  1  0.01158390  0.00115599  0.79131583  1
  Rh  Rh236  1  -0.00088436  0.60293814  0.39205711  1
  Rh  Rh237  1  0.19297807  0.60315014  0.80849197  1
  Rh  Rh238  1  -0.00316295  0.20419796  0.80792996  1
  Rh  Rh239  1  0.80071669  0.59424275  0.18919819  1
  Rh  Rh240  1  0.01036046  0.80347357  0.00796105  1
  Rh  Rh241  1  0.39766722  0.20518597  0.79158099  1
  Rh  Rh242  1  0.60064535  -0.00245588  0.79765210  1
  Rh  Rh243  1  0.80346636  0.40892972  -0.00462481  1
  Rh  Rh244  1  0.59485900  0.79505413  0.20723075  1
  Rh  Rh245  1  0.60609338  -0.00288296  0.19328429  1
  Rh  Rh246  1  0.39756837  0.79572662  0.19274278  1
  Rh  Rh247  1  0.59139783  0.40004986  0.20615341  1
  Rh  Rh248  1  0.39801143  0.79940736  0.00685509  1
  Rh  Rh249  1  -0.00564060  0.20203708  0.59357590  1
