# generated using pymatgen
data_ZrScNbPdRh
_symmetry_space_group_name_H-M   'P 1'
_cell_length_a   16.56103309
_cell_length_b   16.55819526
_cell_length_c   16.55862952
_cell_angle_alpha   90.03487711
_cell_angle_beta   89.98067482
_cell_angle_gamma   90.02774473
_symmetry_Int_Tables_number   1
_chemical_formula_structural   ZrScNbPdRh
_chemical_formula_sum   'Zr50 Sc50 Nb50 Pd50 Rh50'
_cell_volume   4540.71932463
_cell_formula_units_Z   50
loop_
 _symmetry_equiv_pos_site_id
 _symmetry_equiv_pos_as_xyz
  1  'x, y, z'
loop_
 _atom_site_type_symbol
 _atom_site_label
 _atom_site_symmetry_multiplicity
 _atom_site_fract_x
 _atom_site_fract_y
 _atom_site_fract_z
 _atom_site_occupancy
  Zr  Zr0  1  0.10922687  0.90430864  0.10136641  1
  Zr  Zr1  1  0.68950286  0.90793110  0.89514557  1
  Zr  Zr2  1  0.90016826  0.89630639  0.90144733  1
  Zr  Zr3  1  0.69128557  0.30387184  0.50569737  1
  Zr  Zr4  1  0.10500362  0.69767973  0.09792620  1
  Zr  Zr5  1  0.70159788  0.30158996  0.30841231  1
  Zr  Zr6  1  0.50476210  0.50711290  0.69598445  1
  Zr  Zr7  1  0.49237321  0.89696539  0.29390137  1
  Zr  Zr8  1  0.69684735  0.69998978  0.30280971  1
  Zr  Zr9  1  0.11501747  0.70573699  0.49629508  1
  Zr  Zr10  1  0.89631848  0.10070450  0.10194734  1
  Zr  Zr11  1  0.09877832  0.49895357  0.69583872  1
  Zr  Zr12  1  0.09551088  0.10089699  0.49884209  1
  Zr  Zr13  1  0.70080301  0.50719287  0.49849151  1
  Zr  Zr14  1  0.69519310  0.08928044  0.49689052  1
  Zr  Zr15  1  0.69657643  0.70702291  0.89752072  1
  Zr  Zr16  1  0.10120948  0.89255871  0.70464253  1
  Zr  Zr17  1  0.89603971  0.09081799  0.29748316  1
  Zr  Zr18  1  0.29091765  0.09708494  0.50452616  1
  Zr  Zr19  1  0.90064503  0.89819473  0.50274553  1
  Zr  Zr20  1  0.10030579  0.29642377  0.30753225  1
  Zr  Zr21  1  0.09880150  0.90737482  0.50022392  1
  Zr  Zr22  1  0.89173840  0.50303165  0.31042288  1
  Zr  Zr23  1  0.90231743  0.89985495  0.69307206  1
  Zr  Zr24  1  0.49957067  0.50283291  0.89501140  1
  Zr  Zr25  1  0.70087519  0.70366339  0.09882777  1
  Zr  Zr26  1  0.09784353  0.29983452  0.10662634  1
  Zr  Zr27  1  0.50596712  0.09205555  0.90140707  1
  Zr  Zr28  1  0.90977847  0.89598575  0.29908124  1
  Zr  Zr29  1  0.29917621  0.70105092  0.30659869  1
  Zr  Zr30  1  0.30680643  0.29220440  0.69490382  1
  Zr  Zr31  1  0.49365871  0.09406471  0.30719779  1
  Zr  Zr32  1  0.70318388  0.31075315  0.89789643  1
  Zr  Zr33  1  0.29549917  0.49320568  0.71587569  1
  Zr  Zr34  1  0.09957650  0.70576411  0.30018120  1
  Zr  Zr35  1  0.10508281  0.69900826  0.69868643  1
  Zr  Zr36  1  0.90516320  0.29497330  0.49959978  1
  Zr  Zr37  1  0.90233879  0.70333671  0.69485320  1
  Zr  Zr38  1  0.49648145  0.30498025  0.51071907  1
  Zr  Zr39  1  0.69192583  0.50672601  0.31177534  1
  Zr  Zr40  1  0.30272516  0.70818717  0.69146404  1
  Zr  Zr41  1  0.30094915  0.69498665  0.90143785  1
  Zr  Zr42  1  0.29995124  0.09412420  0.10136154  1
  Zr  Zr43  1  0.89500890  0.70268689  0.50432702  1
  Zr  Zr44  1  0.10075336  0.09738361  0.09978380  1
  Zr  Zr45  1  0.31990949  0.49753570  0.29409861  1
  Zr  Zr46  1  0.49058908  0.09632109  0.70497633  1
  Zr  Zr47  1  0.90706766  0.09405932  0.50540622  1
  Zr  Zr48  1  0.30175510  0.90753110  0.29598063  1
  Zr  Zr49  1  0.30046107  0.29224584  0.30384566  1
  Sc  Sc50  1  0.10708489  0.09165333  0.30493359  1
  Sc  Sc51  1  0.30684948  0.50981011  0.48983515  1
  Sc  Sc52  1  0.49939698  0.09647214  0.50222230  1
  Sc  Sc53  1  0.90378887  0.70415814  0.29852172  1
  Sc  Sc54  1  0.10427263  0.50608482  0.10470479  1
  Sc  Sc55  1  0.29865915  0.90775459  0.70454370  1
  Sc  Sc56  1  0.69040147  0.69944361  0.69325875  1
  Sc  Sc57  1  0.90128094  0.89731058  0.10719691  1
  Sc  Sc58  1  0.09566509  0.29844787  0.70345365  1
  Sc  Sc59  1  0.30426143  0.89927102  0.09813700  1
  Sc  Sc60  1  0.90539755  0.30502172  0.30364874  1
  Sc  Sc61  1  0.10165081  0.50530042  0.49693729  1
  Sc  Sc62  1  0.49438751  0.90575056  0.09409162  1
  Sc  Sc63  1  0.90926093  0.49347219  0.10793440  1
  Sc  Sc64  1  0.69555218  0.29866320  0.08981024  1
  Sc  Sc65  1  0.90028492  0.28885225  0.89313837  1
  Sc  Sc66  1  0.69993840  0.89306816  0.09454272  1
  Sc  Sc67  1  0.08706857  0.49933751  0.29546370  1
  Sc  Sc68  1  0.69129801  0.49121547  0.08864021  1
  Sc  Sc69  1  0.10564092  0.70744333  0.89572764  1
  Sc  Sc70  1  0.30511538  0.09570049  0.89274835  1
  Sc  Sc71  1  0.50506506  0.29403814  0.90515675  1
  Sc  Sc72  1  0.49167105  0.50295467  0.10724683  1
  Sc  Sc73  1  0.49671105  0.90075470  0.89632201  1
  Sc  Sc74  1  0.29525779  0.90028649  0.51250567  1
  Sc  Sc75  1  0.48842570  0.29731965  0.30526479  1
  Sc  Sc76  1  0.29981113  0.29973981  0.88311492  1
  Sc  Sc77  1  0.49707358  0.70891775  0.10141946  1
  Sc  Sc78  1  0.11078769  0.89685363  0.90111625  1
  Sc  Sc79  1  0.49961783  0.30103161  0.69522103  1
  Sc  Sc80  1  0.10181305  0.89839476  0.30171754  1
  Sc  Sc81  1  0.29774357  0.69637016  0.09793281  1
  Sc  Sc82  1  0.10266283  0.10151345  0.69522855  1
  Sc  Sc83  1  0.49917542  0.10112642  0.08596762  1
  Sc  Sc84  1  0.90309435  0.70721459  0.90241114  1
  Sc  Sc85  1  0.89519404  0.50407590  0.50620164  1
  Sc  Sc86  1  0.69673829  0.90175240  0.69426209  1
  Sc  Sc87  1  0.50376013  0.69462032  0.29810641  1
  Sc  Sc88  1  0.09909643  0.29095838  0.49466086  1
  Sc  Sc89  1  0.50359820  0.90019262  0.50829126  1
  Sc  Sc90  1  0.49895156  0.29589534  0.09589591  1
  Sc  Sc91  1  0.11672611  0.50085087  0.88570894  1
  Sc  Sc92  1  0.89892337  0.71210732  0.09841629  1
  Sc  Sc93  1  0.89786126  0.10298239  0.70009379  1
  Sc  Sc94  1  0.49576015  0.89724444  0.70130896  1
  Sc  Sc95  1  0.89242192  0.48309285  0.89206016  1
  Sc  Sc96  1  0.70611964  0.09184655  0.70384677  1
  Sc  Sc97  1  0.89828607  0.29836786  0.09817663  1
  Sc  Sc98  1  0.49793383  0.69718753  0.51887406  1
  Sc  Sc99  1  0.70325854  0.89527816  0.30753412  1
  Nb  Nb100  1  0.29505769  0.90041756  0.90556069  1
  Nb  Nb101  1  0.50252962  0.50424913  0.30474686  1
  Nb  Nb102  1  0.49976157  0.70418809  0.70881435  1
  Nb  Nb103  1  0.70162578  0.10365247  0.89871595  1
  Nb  Nb104  1  0.69935693  0.30200665  0.69867580  1
  Nb  Nb105  1  0.89278842  0.30828140  0.69747076  1
  Nb  Nb106  1  0.70588624  0.49354793  0.70384792  1
  Nb  Nb107  1  0.70075230  0.70790336  0.49925910  1
  Nb  Nb108  1  0.69576337  0.50037648  0.89646396  1
  Nb  Nb109  1  0.89834724  0.50057942  0.69737892  1
  Nb  Nb110  1  0.29989072  0.49937495  0.90463714  1
  Nb  Nb111  1  0.09861603  0.29467336  0.90321185  1
  Nb  Nb112  1  0.50477377  0.69884339  0.88392944  1
  Nb  Nb113  1  0.29814859  0.49923425  0.09576014  1
  Nb  Nb114  1  0.30330116  0.09969920  0.70035559  1
  Nb  Nb115  1  0.69959370  0.09932175  0.29838051  1
  Nb  Nb116  1  0.30438683  0.09644413  0.30181058  1
  Nb  Nb117  1  0.29523448  0.30358920  0.49884413  1
  Nb  Nb118  1  0.89783141  0.10187064  0.89980713  1
  Nb  Nb119  1  0.09263445  0.10974666  0.90415087  1
  Nb  Nb120  1  0.30121889  0.29966402  0.10438991  1
  Nb  Nb121  1  0.30126499  0.70442571  0.49708340  1
  Nb  Nb122  1  0.70125206  0.10178197  0.10157023  1
  Nb  Nb123  1  0.50334603  0.50441374  0.49280932  1
  Nb  Nb124  1  0.70196940  0.88938512  0.50578441  1
  Nb  Nb125  1  0.20667676  0.39629939  0.59544578  1
  Nb  Nb126  1  0.20000795  0.20474172  -0.00157986  1
  Nb  Nb127  1  -0.00176812  0.59245795  -0.00939947  1
  Nb  Nb128  1  0.79777961  0.79818474  0.79710105  1
  Nb  Nb129  1  0.38887421  0.40224377  0.00062227  1
  Nb  Nb130  1  0.20993031  0.39850249  0.19863104  1
  Nb  Nb131  1  0.79587448  0.20491198  0.59902135  1
  Nb  Nb132  1  0.20322484  0.39646097  0.00102880  1
  Nb  Nb133  1  0.39619025  0.79657174  0.40599563  1
  Nb  Nb134  1  0.59712977  0.39837403  0.20733754  1
  Nb  Nb135  1  0.79708050  0.19406287  0.40461433  1
  Nb  Nb136  1  0.79925254  0.59780534  0.79797021  1
  Nb  Nb137  1  0.80004490  0.00654358  -0.00408992  1
  Nb  Nb138  1  0.60424215  0.19576658  0.20416960  1
  Nb  Nb139  1  -0.00017890  0.19425833  0.20288476  1
  Nb  Nb140  1  0.60882993  0.19870745  0.79972184  1
  Nb  Nb141  1  0.59913742  0.60337866  -0.00981276  1
  Nb  Nb142  1  0.79109572  0.40530867  0.20509682  1
  Nb  Nb143  1  -0.00236757  0.00577053  -0.00515996  1
  Nb  Nb144  1  0.01105257  0.39953093  -0.00627616  1
  Nb  Nb145  1  0.79479137  0.59593594  0.19533569  1
  Nb  Nb146  1  0.60418312  0.00775578  0.20067946  1
  Nb  Nb147  1  0.80000876  0.59629322  -0.00421355  1
  Nb  Nb148  1  0.00053873  0.00441924  0.80859288  1
  Nb  Nb149  1  -0.00706290  0.59675826  0.79850184  1
  Pd  Pd150  1  0.40005908  0.60869596  0.19626820  1
  Pd  Pd151  1  0.39457819  0.60256618  0.79456009  1
  Pd  Pd152  1  0.40338769  0.40003399  0.40627140  1
  Pd  Pd153  1  0.80023043  -0.00381057  0.40420686  1
  Pd  Pd154  1  0.20386647  0.59235172  0.21077684  1
  Pd  Pd155  1  0.59314908  0.39344619  0.79518346  1
  Pd  Pd156  1  0.38804416  0.20546082  -0.00991716  1
  Pd  Pd157  1  0.58682256  0.79723122  0.40742895  1
  Pd  Pd158  1  0.00363480  0.40236423  0.80405997  1
  Pd  Pd159  1  0.80031952  0.21099449  0.20701675  1
  Pd  Pd160  1  0.40989496  0.39401349  0.80482724  1
  Pd  Pd161  1  0.79082545  -0.01297192  0.19380285  1
  Pd  Pd162  1  0.19881018  0.58898603  0.38886217  1
  Pd  Pd163  1  0.40982604  0.19318724  0.19627103  1
  Pd  Pd164  1  0.21204917  0.59032466  0.60050512  1
  Pd  Pd165  1  0.19697295  0.19754473  0.20181437  1
  Pd  Pd166  1  -0.01040599  0.60874562  0.19200427  1
  Pd  Pd167  1  0.60372993  0.59299153  0.18824181  1
  Pd  Pd168  1  0.59940661  0.81116162  0.19852616  1
  Pd  Pd169  1  0.39317634  0.59466526  0.60448557  1
  Pd  Pd170  1  0.40897695  0.60044266  0.00085499  1
  Pd  Pd171  1  0.00273293  0.60357402  0.59751878  1
  Pd  Pd172  1  0.80996258  0.40459871  0.00737309  1
  Pd  Pd173  1  0.60449018  0.18885170  0.61098531  1
  Pd  Pd174  1  0.58769109  0.79846205  -0.00337527  1
  Pd  Pd175  1  0.80561381  -0.00658786  0.80189287  1
  Pd  Pd176  1  -0.00097603  0.60627481  0.40719010  1
  Pd  Pd177  1  0.19546307  0.20561779  0.60089547  1
  Pd  Pd178  1  -0.00050764  0.40728188  0.40967316  1
  Pd  Pd179  1  0.20073919  0.40800288  0.39713462  1
  Pd  Pd180  1  0.00897938  0.39642563  0.59235331  1
  Pd  Pd181  1  0.19368907  0.00753653  0.80329296  1
  Pd  Pd182  1  0.40130910  0.79802888  -0.00656216  1
  Pd  Pd183  1  0.39949007  0.19289735  0.59328100  1
  Pd  Pd184  1  0.39342805  0.80675724  0.80309387  1
  Pd  Pd185  1  0.58792745  0.39511128  0.39889228  1
  Pd  Pd186  1  0.20610554  0.80228174  0.19737785  1
  Pd  Pd187  1  0.39508185  -0.01072705  0.41408716  1
  Pd  Pd188  1  0.59773095  -0.00071175  0.60589042  1
  Pd  Pd189  1  0.39650274  0.19658485  0.41333955  1
  Pd  Pd190  1  0.39327541  0.41390573  0.59656250  1
  Pd  Pd191  1  -0.00482547  0.19761843  0.79080266  1
  Pd  Pd192  1  0.60535231  0.59897860  0.60024978  1
  Pd  Pd193  1  0.79831317  0.39912778  0.59382221  1
  Pd  Pd194  1  0.59943211  -0.01302280  0.39535205  1
  Pd  Pd195  1  0.00946795  0.80365569  0.00377359  1
  Pd  Pd196  1  0.59767542  0.20141725  0.39861867  1
  Pd  Pd197  1  0.79553711  0.20039909  -0.00318141  1
  Pd  Pd198  1  0.20078598  0.19455106  0.80082090  1
  Pd  Pd199  1  0.80508748  0.79835586  0.39609954  1
  Rh  Rh200  1  0.20387565  0.00086424  0.20443121  1
  Rh  Rh201  1  0.79975145  0.39840072  0.79651181  1
  Rh  Rh202  1  -0.00087964  0.39188215  0.19887823  1
  Rh  Rh203  1  0.00094727  -0.00233454  0.39655154  1
  Rh  Rh204  1  0.60205665  0.80621966  0.79070983  1
  Rh  Rh205  1  0.80514285  0.39320356  0.40379613  1
  Rh  Rh206  1  0.19126026  0.59626046  -0.00519128  1
  Rh  Rh207  1  0.19899708  0.00823442  -0.00826336  1
  Rh  Rh208  1  0.60741299  0.19798337  -0.00393053  1
  Rh  Rh209  1  0.00274820  0.79784771  0.40618992  1
  Rh  Rh210  1  0.79547778  0.20815277  0.79204180  1
  Rh  Rh211  1  0.60997705  0.00285517  0.00877126  1
  Rh  Rh212  1  0.20443783  -0.00123373  0.39972797  1
  Rh  Rh213  1  0.80093323  0.61270118  0.39894267  1
  Rh  Rh214  1  0.20626422  0.79760364  0.00155940  1
  Rh  Rh215  1  0.60661102  0.59830377  0.79721476  1
  Rh  Rh216  1  0.40869090  0.00827711  0.19218948  1
  Rh  Rh217  1  0.59319479  0.61251532  0.41193160  1
  Rh  Rh218  1  0.19616061  0.38847978  0.79542109  1
  Rh  Rh219  1  0.00832685  0.80035499  0.19561522  1
  Rh  Rh220  1  0.41032892  0.19868553  0.80288733  1
  Rh  Rh221  1  0.19961330  0.80487240  0.60103756  1
  Rh  Rh222  1  0.00155712  0.20182412  0.00854051  1
  Rh  Rh223  1  0.39668972  0.00071237  0.60249003  1
  Rh  Rh224  1  0.39296152  -0.00395692  -0.00512373  1
  Rh  Rh225  1  0.21177196  0.79742686  0.80204844  1
  Rh  Rh226  1  0.59778494  0.80020696  0.60247020  1
  Rh  Rh227  1  0.39674593  -0.00493107  0.80229736  1
  Rh  Rh228  1  0.79218082  0.79853903  0.60663872  1
  Rh  Rh229  1  0.40392884  0.39696774  0.19419670  1
  Rh  Rh230  1  -0.00651327  0.20484456  0.60868633  1
  Rh  Rh231  1  0.59952408  0.41177396  0.60218422  1
  Rh  Rh232  1  0.59711271  0.00551055  0.79390834  1
  Rh  Rh233  1  0.79164802  0.60104907  0.60503738  1
  Rh  Rh234  1  0.41144430  0.61084037  0.40338963  1
  Rh  Rh235  1  -0.00541917  0.80121705  0.79922980  1
  Rh  Rh236  1  -0.00755840  0.18882845  0.38879944  1
  Rh  Rh237  1  0.79843922  0.00194893  0.59455098  1
  Rh  Rh238  1  0.57975929  0.40967528  0.00652177  1
  Rh  Rh239  1  0.20194766  0.60890958  0.79861455  1
  Rh  Rh240  1  0.20815613  0.81207041  0.40127859  1
  Rh  Rh241  1  0.20668980  0.19186775  0.40024121  1
  Rh  Rh242  1  0.79750481  0.79596927  0.20658166  1
  Rh  Rh243  1  0.01161906  0.79736198  0.59123243  1
  Rh  Rh244  1  0.40108812  0.80256802  0.59953873  1
  Rh  Rh245  1  0.00652578  0.00037037  0.19743583  1
  Rh  Rh246  1  0.19707333  0.00190282  0.60841724  1
  Rh  Rh247  1  0.00566086  -0.00021974  0.61172271  1
  Rh  Rh248  1  0.79769581  0.80581645  -0.00710579  1
  Rh  Rh249  1  0.39600785  0.79480185  0.20552680  1
