# generated using pymatgen
data_ZrScNbPdRh
_symmetry_space_group_name_H-M   'P 1'
_cell_length_a   16.55513777
_cell_length_b   16.55308142
_cell_length_c   16.55300748
_cell_angle_alpha   90.02945324
_cell_angle_beta   89.98430141
_cell_angle_gamma   89.98194402
_symmetry_Int_Tables_number   1
_chemical_formula_structural   ZrScNbPdRh
_chemical_formula_sum   'Zr50 Sc50 Nb50 Pd50 Rh50'
_cell_volume   4536.16106439
_cell_formula_units_Z   50
loop_
 _symmetry_equiv_pos_site_id
 _symmetry_equiv_pos_as_xyz
  1  'x, y, z'
loop_
 _atom_site_type_symbol
 _atom_site_label
 _atom_site_symmetry_multiplicity
 _atom_site_fract_x
 _atom_site_fract_y
 _atom_site_fract_z
 _atom_site_occupancy
  Zr  Zr0  1  0.32084961  0.30167832  0.70169625  1
  Zr  Zr1  1  0.49543435  0.90298088  0.30009652  1
  Zr  Zr2  1  0.91057222  0.29228549  0.29478677  1
  Zr  Zr3  1  0.09175499  0.30412899  0.10535608  1
  Zr  Zr4  1  0.10753623  0.90174133  0.70045483  1
  Zr  Zr5  1  0.10010054  0.10112272  0.70109582  1
  Zr  Zr6  1  0.10299616  0.90042651  0.90118487  1
  Zr  Zr7  1  0.29926869  0.70339271  0.69493881  1
  Zr  Zr8  1  0.70685645  0.09074719  0.91010009  1
  Zr  Zr9  1  0.90051658  0.29182298  0.69928566  1
  Zr  Zr10  1  0.29799339  0.09473183  0.09999509  1
  Zr  Zr11  1  0.89453845  0.29723782  0.09774094  1
  Zr  Zr12  1  0.90643362  0.48580821  0.69451473  1
  Zr  Zr13  1  0.50052054  0.10988071  0.09655709  1
  Zr  Zr14  1  0.29350541  0.10636103  0.90014957  1
  Zr  Zr15  1  0.09062830  0.10409554  0.30379906  1
  Zr  Zr16  1  0.09951039  0.29212640  0.90040617  1
  Zr  Zr17  1  0.48978128  0.49310352  0.70085036  1
  Zr  Zr18  1  0.91259914  0.70611071  0.29823468  1
  Zr  Zr19  1  0.89837606  0.89712780  0.50505253  1
  Zr  Zr20  1  0.69892519  0.90150514  0.50191173  1
  Zr  Zr21  1  0.90554644  0.29976614  0.90238496  1
  Zr  Zr22  1  0.69965386  0.29331831  0.69921369  1
  Zr  Zr23  1  0.50321962  0.29567791  0.69993761  1
  Zr  Zr24  1  0.11285406  0.09589180  0.50146218  1
  Zr  Zr25  1  0.49694728  0.49887140  0.90415454  1
  Zr  Zr26  1  0.69824941  0.50071945  0.90354572  1
  Zr  Zr27  1  0.30474323  0.29291030  0.50092700  1
  Zr  Zr28  1  0.10282428  0.30064925  0.29566685  1
  Zr  Zr29  1  0.10892836  0.90464780  0.09618547  1
  Zr  Zr30  1  0.49809211  0.29884638  0.89511898  1
  Zr  Zr31  1  0.30226516  0.30147149  0.29634305  1
  Zr  Zr32  1  0.49840865  0.89955475  0.89301102  1
  Zr  Zr33  1  0.89920781  0.70048223  0.10160549  1
  Zr  Zr34  1  0.70431911  0.49409942  0.09997907  1
  Zr  Zr35  1  0.09673239  0.09508762  0.89910336  1
  Zr  Zr36  1  0.69920455  0.90193616  0.29754645  1
  Zr  Zr37  1  0.89673218  0.30452872  0.51012815  1
  Zr  Zr38  1  0.71121074  0.48956736  0.49497236  1
  Zr  Zr39  1  0.49136388  0.90802987  0.10247525  1
  Zr  Zr40  1  0.70266042  0.49299202  0.29893429  1
  Zr  Zr41  1  0.10692222  0.10130505  0.09886463  1
  Zr  Zr42  1  0.49516808  0.50121860  0.49893414  1
  Zr  Zr43  1  0.69854932  0.70521057  0.29911563  1
  Zr  Zr44  1  0.09992173  0.90260327  0.30198317  1
  Zr  Zr45  1  0.70272013  0.70408297  0.09112306  1
  Zr  Zr46  1  0.30604694  0.89110702  0.69924808  1
  Zr  Zr47  1  0.90543804  0.69333730  0.49278363  1
  Zr  Zr48  1  0.50041703  0.89858534  0.49477992  1
  Zr  Zr49  1  0.10054766  0.50571088  0.10499985  1
  Sc  Sc50  1  0.49471492  0.90086605  0.70450948  1
  Sc  Sc51  1  0.10103216  0.28816430  0.50003697  1
  Sc  Sc52  1  0.90213799  0.89959290  0.10762020  1
  Sc  Sc53  1  0.50101656  0.09897705  0.49470095  1
  Sc  Sc54  1  0.49837228  0.10179133  0.70373714  1
  Sc  Sc55  1  0.69924843  0.09725943  0.69234714  1
  Sc  Sc56  1  0.69516474  0.49580510  0.71313064  1
  Sc  Sc57  1  0.90565862  0.09040775  0.70247130  1
  Sc  Sc58  1  0.29758772  0.29288869  0.10320823  1
  Sc  Sc59  1  0.29895268  0.10097263  0.29992082  1
  Sc  Sc60  1  0.49351634  0.70922795  0.70302912  1
  Sc  Sc61  1  0.09865686  0.50978326  0.50368769  1
  Sc  Sc62  1  0.29181535  0.69853875  0.50389736  1
  Sc  Sc63  1  0.49403276  0.29101181  0.29574397  1
  Sc  Sc64  1  0.91283357  0.10615421  0.50304151  1
  Sc  Sc65  1  0.10027833  0.50194055  0.29618780  1
  Sc  Sc66  1  0.70317121  0.70561259  0.70757825  1
  Sc  Sc67  1  0.30454824  0.50621794  0.50289170  1
  Sc  Sc68  1  0.10732466  0.90427711  0.49855995  1
  Sc  Sc69  1  0.70000001  0.89834770  0.89477104  1
  Sc  Sc70  1  0.29282645  0.70688450  0.90636742  1
  Sc  Sc71  1  0.29535615  0.50276493  0.09186738  1
  Sc  Sc72  1  0.89587531  0.69620709  0.70189107  1
  Sc  Sc73  1  0.49739553  0.70518716  0.30307959  1
  Sc  Sc74  1  0.50834924  0.70342212  0.90284112  1
  Sc  Sc75  1  0.48799209  0.69948414  0.49984704  1
  Sc  Sc76  1  0.71366050  0.89975372  0.69973630  1
  Sc  Sc77  1  0.70070230  0.70038721  0.89886290  1
  Sc  Sc78  1  0.89694146  0.49582206  0.89984318  1
  Sc  Sc79  1  0.89880595  0.69288218  0.90332570  1
  Sc  Sc80  1  0.70255592  0.70536509  0.49573809  1
  Sc  Sc81  1  0.70019445  0.30374815  0.90225483  1
  Sc  Sc82  1  0.09436134  0.69906828  0.09658963  1
  Sc  Sc83  1  0.71179255  0.90333358  0.09685029  1
  Sc  Sc84  1  0.48824113  0.48759141  0.29622414  1
  Sc  Sc85  1  0.09257313  0.50128728  0.69804835  1
  Sc  Sc86  1  0.90108467  0.50445752  0.30508299  1
  Sc  Sc87  1  0.28574864  0.70002880  0.10179666  1
  Sc  Sc88  1  0.89882259  0.91580888  0.89663184  1
  Sc  Sc89  1  0.09395008  0.49742582  0.90756361  1
  Sc  Sc90  1  0.50011399  0.09448073  0.90141712  1
  Sc  Sc91  1  0.30590542  0.10105958  0.69804863  1
  Sc  Sc92  1  0.70767462  0.29169473  0.50535383  1
  Sc  Sc93  1  0.29610370  0.90976363  0.50246340  1
  Sc  Sc94  1  0.10709757  0.69760507  0.69128299  1
  Sc  Sc95  1  0.29295230  0.50038873  0.29927732  1
  Sc  Sc96  1  0.29573996  0.89864629  0.89555677  1
  Sc  Sc97  1  0.08703294  0.30143059  0.70322792  1
  Sc  Sc98  1  0.90594270  0.49715890  0.09513599  1
  Sc  Sc99  1  0.30157167  0.30031828  0.90283226  1
  Nb  Nb100  1  0.70618299  0.09874845  0.49423131  1
  Nb  Nb101  1  0.50691591  0.10044632  0.29884321  1
  Nb  Nb102  1  0.29872054  0.89867320  0.11124412  1
  Nb  Nb103  1  0.09508319  0.70499353  0.49142748  1
  Nb  Nb104  1  0.90386250  0.89402125  0.69955122  1
  Nb  Nb105  1  0.10022571  0.69662172  0.31069469  1
  Nb  Nb106  1  0.89827786  0.09670476  0.29289625  1
  Nb  Nb107  1  0.69987022  0.10599399  0.29729602  1
  Nb  Nb108  1  0.29706807  0.89609333  0.28657710  1
  Nb  Nb109  1  0.70710911  0.10750317  0.10357074  1
  Nb  Nb110  1  0.49859440  0.70155203  0.10046037  1
  Nb  Nb111  1  0.69952263  0.29821350  0.10699907  1
  Nb  Nb112  1  0.49544716  0.50298880  0.10072086  1
  Nb  Nb113  1  0.49619845  0.30642654  0.10363657  1
  Nb  Nb114  1  0.88528338  0.10139938  0.09744884  1
  Nb  Nb115  1  0.89783213  0.10240024  0.90371925  1
  Nb  Nb116  1  0.29648647  0.10125277  0.50302273  1
  Nb  Nb117  1  0.89907457  0.90442795  0.29713073  1
  Nb  Nb118  1  0.29828693  0.50248133  0.69827654  1
  Nb  Nb119  1  0.89956175  0.49325505  0.50001054  1
  Nb  Nb120  1  0.29374427  0.70514092  0.29586915  1
  Nb  Nb121  1  0.49879214  0.30253264  0.50203559  1
  Nb  Nb122  1  0.10185215  0.70646686  0.90022382  1
  Nb  Nb123  1  0.29615281  0.50319593  0.90014785  1
  Nb  Nb124  1  0.70483871  0.29832046  0.29738871  1
  Nb  Nb125  1  0.39893646  0.80324232  0.01193407  1
  Nb  Nb126  1  0.20513447  0.39954037  0.60648103  1
  Nb  Nb127  1  0.00295449  0.80201859  0.79658880  1
  Nb  Nb128  1  0.20494105  0.40580409  0.79671747  1
  Nb  Nb129  1  0.79661101  0.60293391  0.19859825  1
  Nb  Nb130  1  0.59721619  0.39952694  0.59543383  1
  Nb  Nb131  1  0.60071376  0.39300033  0.40161511  1
  Nb  Nb132  1  0.80250872  0.00553213  0.39465051  1
  Nb  Nb133  1  0.80063053  0.19393335  0.39314316  1
  Nb  Nb134  1  0.59602371  0.59992988  0.19837839  1
  Nb  Nb135  1  0.79865213  0.59265148  0.59730990  1
  Nb  Nb136  1  0.80386867  0.19327901  0.80609050  1
  Nb  Nb137  1  0.60305808  0.00861308  0.20002675  1
  Nb  Nb138  1  0.40114305  0.60497555  0.19480106  1
  Nb  Nb139  1  0.60088199  0.79970167  0.59784350  1
  Nb  Nb140  1  0.39115072  0.59791965  0.80417054  1
  Nb  Nb141  1  -0.00178347  0.39886945  0.40496684  1
  Nb  Nb142  1  0.80802007  0.80815880  0.39382476  1
  Nb  Nb143  1  0.59931547  0.59230375  0.39836901  1
  Nb  Nb144  1  0.59540340  0.80261308  0.19353167  1
  Nb  Nb145  1  0.59453841  0.39683542  0.01265748  1
  Nb  Nb146  1  0.38735710  0.80536665  0.39099332  1
  Nb  Nb147  1  0.60296378  0.59817016  0.59659283  1
  Nb  Nb148  1  0.20136181  0.59628972  0.80256931  1
  Nb  Nb149  1  0.00053749  0.79979190  0.60048938  1
  Pd  Pd150  1  0.00587782  0.60564295  0.80112994  1
  Pd  Pd151  1  0.81263176  0.40394352  0.20212943  1
  Pd  Pd152  1  0.60512721  0.20775738  -0.00135203  1
  Pd  Pd153  1  0.00070196  0.00474498  0.19106209  1
  Pd  Pd154  1  0.00985821  0.80212075  0.19874548  1
  Pd  Pd155  1  0.20583541  0.40394670  0.19366353  1
  Pd  Pd156  1  0.19226132  0.40375746  0.41275610  1
  Pd  Pd157  1  0.20237064  0.20874544  0.61173482  1
  Pd  Pd158  1  0.19679781  0.39508172  -0.00278269  1
  Pd  Pd159  1  0.60507510  0.00500825  0.39555882  1
  Pd  Pd160  1  0.40317678  0.00279364  0.60023583  1
  Pd  Pd161  1  -0.00474199  0.60541992  0.60198028  1
  Pd  Pd162  1  -0.00755053  0.80499022  -0.00882475  1
  Pd  Pd163  1  -0.00664618  0.00147006  0.00779043  1
  Pd  Pd164  1  0.59601939  0.81099353  0.00358001  1
  Pd  Pd165  1  0.58999701  0.60542816  0.79300116  1
  Pd  Pd166  1  0.18491753  0.79263534  0.19860370  1
  Pd  Pd167  1  0.81005267  0.80133402  0.80895958  1
  Pd  Pd168  1  0.59597979  0.19818908  0.59100467  1
  Pd  Pd169  1  0.20311137  0.19819025  0.39471360  1
  Pd  Pd170  1  0.80551069  0.00779367  0.59733625  1
  Pd  Pd171  1  0.39710764  0.60754354  0.38829139  1
  Pd  Pd172  1  0.59602597  -0.00484443  0.60537873  1
  Pd  Pd173  1  0.20018801  0.59689193  0.40116159  1
  Pd  Pd174  1  0.60478571  -0.00449373  0.00748955  1
  Pd  Pd175  1  0.40255244  0.01303222  0.20552953  1
  Pd  Pd176  1  0.79742382  0.60689302  0.39731342  1
  Pd  Pd177  1  0.39393622  0.61202306  -0.00008721  1
  Pd  Pd178  1  0.38971688  -0.00540294  -0.00775359  1
  Pd  Pd179  1  -0.00404661  -0.00152711  0.40395839  1
  Pd  Pd180  1  0.60136637  0.59559799  0.00490161  1
  Pd  Pd181  1  0.20385655  0.21169188  0.78992593  1
  Pd  Pd182  1  0.59374447  0.39959160  0.20354408  1
  Pd  Pd183  1  0.60886567  0.18965658  0.80856168  1
  Pd  Pd184  1  -0.00010829  0.59910059  -0.00283190  1
  Pd  Pd185  1  0.00495472  -0.00489850  0.59871047  1
  Pd  Pd186  1  0.81021854  0.80742572  -0.01011585  1
  Pd  Pd187  1  0.20552586  0.80578902  0.40338471  1
  Pd  Pd188  1  0.39809068  0.39702436  0.40019632  1
  Pd  Pd189  1  0.39712258  0.20284597  -0.00039114  1
  Pd  Pd190  1  0.59765792  0.20139305  0.19866419  1
  Pd  Pd191  1  0.00018025  0.19395246  0.00629091  1
  Pd  Pd192  1  0.80287170  0.59430703  0.79536253  1
  Pd  Pd193  1  0.39736228  0.39610909  0.00401340  1
  Pd  Pd194  1  0.60526054  0.20742495  0.40316074  1
  Pd  Pd195  1  0.38979505  0.00032466  0.39587062  1
  Pd  Pd196  1  0.40099493  0.19423104  0.39943865  1
  Pd  Pd197  1  0.60662861  -0.00101234  0.79352501  1
  Pd  Pd198  1  0.80084659  0.39215308  0.80025560  1
  Pd  Pd199  1  0.20788530  0.00116427  0.79545951  1
  Rh  Rh200  1  0.40242067  0.19168436  0.80790340  1
  Rh  Rh201  1  0.39998533  0.19637100  0.19923174  1
  Rh  Rh202  1  0.39460575  0.40615741  0.80944228  1
  Rh  Rh203  1  0.80300188  -0.00434783  0.00436649  1
  Rh  Rh204  1  0.80338065  0.78721155  0.59388472  1
  Rh  Rh205  1  0.01529355  0.39668006  0.58793074  1
  Rh  Rh206  1  0.80194317  0.20132599  0.20313316  1
  Rh  Rh207  1  0.19619838  0.00449564  0.20693491  1
  Rh  Rh208  1  0.40213885  0.80529560  0.58713571  1
  Rh  Rh209  1  0.20862544  -0.00418411  -0.00174390  1
  Rh  Rh210  1  -0.00289364  0.18850093  0.18840119  1
  Rh  Rh211  1  0.00222888  0.39944184  0.00070356  1
  Rh  Rh212  1  0.00524003  0.58849339  0.39711718  1
  Rh  Rh213  1  0.19903006  0.19788170  0.20302216  1
  Rh  Rh214  1  -0.00281204  0.40742530  0.20721277  1
  Rh  Rh215  1  0.59218928  0.79085166  0.40471278  1
  Rh  Rh216  1  0.80039455  0.00573481  0.79598521  1
  Rh  Rh217  1  0.00648484  0.40166599  0.80767308  1
  Rh  Rh218  1  0.19831638  0.20431677  0.00353636  1
  Rh  Rh219  1  0.79358547  0.20506546  -0.00425121  1
  Rh  Rh220  1  0.78903083  0.40552237  0.61461055  1
  Rh  Rh221  1  -0.00026144  0.81027253  0.40360022  1
  Rh  Rh222  1  0.39737659  0.39998440  0.59149757  1
  Rh  Rh223  1  0.19770799  0.59722750  0.60025096  1
  Rh  Rh224  1  0.39016735  0.40542262  0.19288261  1
  Rh  Rh225  1  -0.00187251  0.60160694  0.20300407  1
  Rh  Rh226  1  0.00095476  -0.00308926  0.80033404  1
  Rh  Rh227  1  0.20810067  0.00193904  0.60638281  1
  Rh  Rh228  1  0.79511504  0.39499030  0.00070672  1
  Rh  Rh229  1  0.19354290  0.79207721  0.79745478  1
  Rh  Rh230  1  0.00408932  0.19581736  0.60219334  1
  Rh  Rh231  1  0.19991353  0.60413049  0.20308741  1
  Rh  Rh232  1  0.40023502  0.79054578  0.81593798  1
  Rh  Rh233  1  0.80506316  0.18906377  0.60321397  1
  Rh  Rh234  1  0.39894018  0.79036453  0.20020916  1
  Rh  Rh235  1  0.60248634  0.80418717  0.79064758  1
  Rh  Rh236  1  0.39591347  0.00472074  0.80349282  1
  Rh  Rh237  1  0.19359101  0.79978607  0.59148952  1
  Rh  Rh238  1  -0.00685271  0.19084568  0.80199048  1
  Rh  Rh239  1  0.40635186  0.19034203  0.59179142  1
  Rh  Rh240  1  0.19009480  0.60331479  -0.00607740  1
  Rh  Rh241  1  -0.00457136  0.20474163  0.40363736  1
  Rh  Rh242  1  0.79503768  0.00547752  0.20017956  1
  Rh  Rh243  1  0.59680233  0.39734429  0.80344377  1
  Rh  Rh244  1  0.80880240  0.38179054  0.39159633  1
  Rh  Rh245  1  0.20477370  0.80459148  0.00555583  1
  Rh  Rh246  1  0.80256042  0.59751954  0.00354150  1
  Rh  Rh247  1  0.20488395  0.00150994  0.39243751  1
  Rh  Rh248  1  0.79871825  0.79437836  0.20358543  1
  Rh  Rh249  1  0.40462948  0.60675796  0.61070949  1
