# generated using pymatgen
data_ZrScNbPdRh
_symmetry_space_group_name_H-M   'P 1'
_cell_length_a   16.55312282
_cell_length_b   16.55415431
_cell_length_c   16.55589869
_cell_angle_alpha   90.03568466
_cell_angle_beta   89.95700543
_cell_angle_gamma   89.94649197
_symmetry_Int_Tables_number   1
_chemical_formula_structural   ZrScNbPdRh
_chemical_formula_sum   'Zr50 Sc50 Nb50 Pd50 Rh50'
_cell_volume   4536.69205530
_cell_formula_units_Z   50
loop_
 _symmetry_equiv_pos_site_id
 _symmetry_equiv_pos_as_xyz
  1  'x, y, z'
loop_
 _atom_site_type_symbol
 _atom_site_label
 _atom_site_symmetry_multiplicity
 _atom_site_fract_x
 _atom_site_fract_y
 _atom_site_fract_z
 _atom_site_occupancy
  Zr  Zr0  1  0.49646716  0.69777034  0.49107915  1
  Zr  Zr1  1  0.29350458  0.70232921  0.09354146  1
  Zr  Zr2  1  0.49558875  0.10533799  0.89515442  1
  Zr  Zr3  1  0.30251698  0.69715130  0.90616878  1
  Zr  Zr4  1  0.29889079  0.89720996  0.49352400  1
  Zr  Zr5  1  0.69689858  0.29886677  0.69848099  1
  Zr  Zr6  1  0.49919795  0.29053759  0.09991489  1
  Zr  Zr7  1  0.30492044  0.29228176  0.50488887  1
  Zr  Zr8  1  0.90902213  0.50056533  0.70535492  1
  Zr  Zr9  1  0.89463780  0.49371924  0.50471006  1
  Zr  Zr10  1  0.69338317  0.89994954  0.70463496  1
  Zr  Zr11  1  0.50095579  0.29150392  0.50193642  1
  Zr  Zr12  1  0.69969177  0.90357629  0.29090910  1
  Zr  Zr13  1  0.29482094  0.29771017  0.29655986  1
  Zr  Zr14  1  0.29476452  0.10449362  0.89054735  1
  Zr  Zr15  1  0.10427198  0.90867123  0.30643193  1
  Zr  Zr16  1  0.50765493  0.90225917  0.50499144  1
  Zr  Zr17  1  0.89918129  0.10222479  0.09946439  1
  Zr  Zr18  1  0.90252090  0.49980701  0.09902763  1
  Zr  Zr19  1  0.09098367  0.10061750  0.49902840  1
  Zr  Zr20  1  0.50395382  0.10425514  0.50422149  1
  Zr  Zr21  1  0.09814312  0.70130928  0.51465012  1
  Zr  Zr22  1  0.70024995  0.70072019  0.09998191  1
  Zr  Zr23  1  0.69918533  0.30043420  0.89850934  1
  Zr  Zr24  1  0.30219333  0.49693724  0.90628743  1
  Zr  Zr25  1  0.30494585  0.49788586  0.49964920  1
  Zr  Zr26  1  0.90090976  0.30265872  0.08944948  1
  Zr  Zr27  1  0.50830826  0.50324609  0.69816655  1
  Zr  Zr28  1  0.09763269  0.31215991  0.30127539  1
  Zr  Zr29  1  0.90611012  0.30013519  0.50158324  1
  Zr  Zr30  1  0.50110954  0.49913193  0.90127955  1
  Zr  Zr31  1  0.70135805  0.09564345  0.11526585  1
  Zr  Zr32  1  0.30257169  0.10101502  0.50687811  1
  Zr  Zr33  1  0.89751453  0.70436043  0.30521242  1
  Zr  Zr34  1  0.10867825  0.09210619  0.70837255  1
  Zr  Zr35  1  0.69817634  0.89868016  0.10801891  1
  Zr  Zr36  1  0.49947894  0.50757893  0.49796043  1
  Zr  Zr37  1  0.69997797  0.70786093  0.70109540  1
  Zr  Zr38  1  0.10036212  0.69316877  0.89884958  1
  Zr  Zr39  1  0.08499982  0.90985376  0.89573725  1
  Zr  Zr40  1  0.50579721  0.70293034  0.69334278  1
  Zr  Zr41  1  0.49795909  0.29699478  0.90176459  1
  Zr  Zr42  1  0.09982235  0.10635453  0.09704051  1
  Zr  Zr43  1  0.30124812  0.10686180  0.10232600  1
  Zr  Zr44  1  0.49768484  0.29609044  0.29621364  1
  Zr  Zr45  1  0.49628538  0.49512071  0.09703024  1
  Zr  Zr46  1  0.30039646  0.89730103  0.10148341  1
  Zr  Zr47  1  0.89159416  0.90274888  0.70115167  1
  Zr  Zr48  1  0.09580479  0.49263764  0.50505999  1
  Zr  Zr49  1  0.70539329  0.29988950  0.50188048  1
  Sc  Sc50  1  0.30232056  0.69696907  0.49999508  1
  Sc  Sc51  1  0.90090775  0.89823792  0.49982346  1
  Sc  Sc52  1  0.69801286  0.29479970  0.09714337  1
  Sc  Sc53  1  0.89551540  0.09816708  0.30215646  1
  Sc  Sc54  1  0.90567649  0.69560562  0.09430794  1
  Sc  Sc55  1  0.50280687  0.10275771  0.29431577  1
  Sc  Sc56  1  0.30069066  0.10683994  0.70273736  1
  Sc  Sc57  1  0.90037577  0.30443672  0.30300118  1
  Sc  Sc58  1  0.09460739  0.89670927  0.69924708  1
  Sc  Sc59  1  0.29290378  0.91852573  0.69645471  1
  Sc  Sc60  1  0.30373554  0.89816786  0.29618934  1
  Sc  Sc61  1  0.49639112  0.69475827  0.10008390  1
  Sc  Sc62  1  0.49821039  0.29596411  0.69997815  1
  Sc  Sc63  1  0.70276456  0.90824085  0.51030275  1
  Sc  Sc64  1  0.69766536  0.50260005  0.31082195  1
  Sc  Sc65  1  0.89773969  0.29884378  0.69663138  1
  Sc  Sc66  1  0.29660371  0.49574013  0.09935188  1
  Sc  Sc67  1  0.90344881  0.09383270  0.90148909  1
  Sc  Sc68  1  0.70475867  0.49774901  0.50594142  1
  Sc  Sc69  1  0.90864430  0.70268441  0.69476348  1
  Sc  Sc70  1  0.70130007  0.10093390  0.69604311  1
  Sc  Sc71  1  0.30146357  0.10029482  0.29403779  1
  Sc  Sc72  1  0.89869202  0.70558790  0.50484237  1
  Sc  Sc73  1  0.49962439  0.69355390  0.29881017  1
  Sc  Sc74  1  0.10094207  0.90060877  0.49778852  1
  Sc  Sc75  1  0.10353398  0.30357122  0.90777197  1
  Sc  Sc76  1  0.29339531  0.30064543  0.09555109  1
  Sc  Sc77  1  0.89404384  0.10199784  0.69977716  1
  Sc  Sc78  1  0.30623888  0.69857698  0.30387778  1
  Sc  Sc79  1  0.09394912  0.29285188  0.69876829  1
  Sc  Sc80  1  0.70547452  0.69662758  0.49731208  1
  Sc  Sc81  1  0.31185469  0.50730684  0.69907065  1
  Sc  Sc82  1  0.50000394  0.89833680  0.11604697  1
  Sc  Sc83  1  0.50487198  0.90692054  0.88246953  1
  Sc  Sc84  1  0.29989153  0.29811767  0.90236703  1
  Sc  Sc85  1  0.90565838  0.49354470  0.30262440  1
  Sc  Sc86  1  0.09875339  0.50053955  0.10558956  1
  Sc  Sc87  1  0.49536520  0.50555651  0.29488167  1
  Sc  Sc88  1  0.91059384  0.50063577  0.90624709  1
  Sc  Sc89  1  0.69745373  0.10282591  0.88695995  1
  Sc  Sc90  1  0.10420939  0.69539007  0.29479505  1
  Sc  Sc91  1  0.89719704  0.90476708  0.30776375  1
  Sc  Sc92  1  0.90423276  0.90141824  0.09145544  1
  Sc  Sc93  1  0.69344399  0.50538888  0.08752235  1
  Sc  Sc94  1  0.69743448  0.29581512  0.29560806  1
  Sc  Sc95  1  0.90110874  0.70401870  0.90599263  1
  Sc  Sc96  1  0.49804989  0.69593438  0.90187015  1
  Sc  Sc97  1  0.89196087  0.09986856  0.49456408  1
  Sc  Sc98  1  0.30130669  0.89924527  0.90008400  1
  Sc  Sc99  1  0.10014322  0.30147090  0.09972631  1
  Nb  Nb100  1  0.89487163  0.90705344  0.89623305  1
  Nb  Nb101  1  0.10313477  0.70788785  0.10050885  1
  Nb  Nb102  1  0.29497523  0.29837742  0.70199314  1
  Nb  Nb103  1  0.09939477  0.29857398  0.49905789  1
  Nb  Nb104  1  0.09970026  0.10298150  0.29915857  1
  Nb  Nb105  1  0.50635380  0.89868545  0.69741705  1
  Nb  Nb106  1  0.28734931  0.48890323  0.30177580  1
  Nb  Nb107  1  0.09676725  0.51019138  0.70593844  1
  Nb  Nb108  1  0.69676739  0.09867963  0.49646882  1
  Nb  Nb109  1  0.10210836  0.49494697  0.30312880  1
  Nb  Nb110  1  0.70590375  0.09096568  0.30146178  1
  Nb  Nb111  1  0.70078061  0.70432413  0.29706897  1
  Nb  Nb112  1  0.49927802  0.08968802  0.70642896  1
  Nb  Nb113  1  0.09850222  0.49709654  0.88630862  1
  Nb  Nb114  1  0.49813270  0.09877339  0.09724143  1
  Nb  Nb115  1  0.29852198  0.70459758  0.69821296  1
  Nb  Nb116  1  0.10140638  0.09960068  0.89747580  1
  Nb  Nb117  1  0.70304801  0.89427872  0.89545845  1
  Nb  Nb118  1  0.10230506  0.69119635  0.70072105  1
  Nb  Nb119  1  0.69733894  0.50716401  0.89780485  1
  Nb  Nb120  1  0.70126725  0.69890524  0.90577009  1
  Nb  Nb121  1  0.50002139  0.89660991  0.30299665  1
  Nb  Nb122  1  0.10408057  0.90158960  0.09997786  1
  Nb  Nb123  1  0.70314176  0.49987418  0.70562567  1
  Nb  Nb124  1  0.90289245  0.30806512  0.89855419  1
  Nb  Nb125  1  0.79530040  0.59778839  0.80486214  1
  Nb  Nb126  1  0.60035770  -0.00236822  0.00034428  1
  Nb  Nb127  1  0.40636213  -0.00092467  0.40091512  1
  Nb  Nb128  1  -0.00225793  0.00271499  0.60072262  1
  Nb  Nb129  1  0.20010256  0.79299068  0.79619044  1
  Nb  Nb130  1  0.40275046  0.00372920  0.00280630  1
  Nb  Nb131  1  0.39658784  0.80085517  0.78904465  1
  Nb  Nb132  1  0.00560940  0.59600494  0.40322726  1
  Nb  Nb133  1  0.00840486  -0.00074042  0.19966768  1
  Nb  Nb134  1  0.59172946  0.39666451  0.40358193  1
  Nb  Nb135  1  0.19256836  0.20160103  0.40036380  1
  Nb  Nb136  1  0.00908590  0.80499716  0.19625384  1
  Nb  Nb137  1  0.79729957  0.40627654  0.80435017  1
  Nb  Nb138  1  0.79913715  0.60020089  0.20173169  1
  Nb  Nb139  1  0.40069632  0.39565538  0.39817154  1
  Nb  Nb140  1  0.19888783  0.39830791  0.60680510  1
  Nb  Nb141  1  0.60501656  0.80589044  -0.00400008  1
  Nb  Nb142  1  0.79141743  -0.00603511  -0.00513144  1
  Nb  Nb143  1  0.00129053  0.19894951  0.80697880  1
  Nb  Nb144  1  0.79877233  0.40657712  0.19444812  1
  Nb  Nb145  1  0.19685063  0.40495668  0.79242657  1
  Nb  Nb146  1  0.40101619  0.80498280  0.60512039  1
  Nb  Nb147  1  0.19857150  0.00214136  0.00088334  1
  Nb  Nb148  1  0.60298966  0.80150915  0.39288353  1
  Nb  Nb149  1  0.19478668  0.58956663  0.40045657  1
  Pd  Pd150  1  -0.00081350  0.20021001  0.39333647  1
  Pd  Pd151  1  0.00823769  0.79368905  0.39630225  1
  Pd  Pd152  1  0.39465034  0.39674624  0.79774291  1
  Pd  Pd153  1  0.00393990  0.39652191  0.60901013  1
  Pd  Pd154  1  0.19173270  0.59135932  0.00308286  1
  Pd  Pd155  1  0.59929247  -0.00268848  0.39499943  1
  Pd  Pd156  1  0.60865946  0.60295340  0.59370271  1
  Pd  Pd157  1  0.79618981  0.19014960  -0.00860500  1
  Pd  Pd158  1  0.60822063  0.19982571  0.39403956  1
  Pd  Pd159  1  0.60195854  0.60842375  0.80261731  1
  Pd  Pd160  1  0.19138196  0.80964310  -0.01255644  1
  Pd  Pd161  1  0.00087591  0.79497730  0.79724530  1
  Pd  Pd162  1  0.40218135  0.79169330  0.20160822  1
  Pd  Pd163  1  0.60062945  0.39670468  0.80013319  1
  Pd  Pd164  1  0.20366593  0.80683894  0.60637937  1
  Pd  Pd165  1  0.79949969  0.80482719  0.00342800  1
  Pd  Pd166  1  0.39393024  0.39802327  0.20014814  1
  Pd  Pd167  1  0.20547862  0.59228845  0.59797839  1
  Pd  Pd168  1  0.80451680  0.20909721  0.20481088  1
  Pd  Pd169  1  0.20944647  0.59853168  0.79836666  1
  Pd  Pd170  1  0.60830887  0.18933213  0.00158428  1
  Pd  Pd171  1  0.41641844  0.81371222  -0.00926335  1
  Pd  Pd172  1  0.80757957  0.79116378  0.80036028  1
  Pd  Pd173  1  0.79996771  0.19540168  0.59580981  1
  Pd  Pd174  1  0.20533589  0.59889692  0.20301299  1
  Pd  Pd175  1  0.80300904  0.60240130  0.60915460  1
  Pd  Pd176  1  0.79613995  0.20239702  0.39522642  1
  Pd  Pd177  1  0.00290781  0.80263363  0.00073284  1
  Pd  Pd178  1  0.78994326  0.80900236  0.40745382  1
  Pd  Pd179  1  0.60613500  0.59712599  0.20140919  1
  Pd  Pd180  1  0.60868822  0.40628223  0.20500706  1
  Pd  Pd181  1  0.40143257  -0.00171274  0.59911931  1
  Pd  Pd182  1  0.19958126  0.79921253  0.20839781  1
  Pd  Pd183  1  0.00967716  0.59608026  0.00000305  1
  Pd  Pd184  1  0.79529159  0.40653644  -0.00258918  1
  Pd  Pd185  1  0.19723246  0.78735415  0.39633005  1
  Pd  Pd186  1  0.19971101  0.00357409  0.19591131  1
  Pd  Pd187  1  0.19293457  0.20129833  0.59857365  1
  Pd  Pd188  1  0.59994903  0.39726345  0.00004779  1
  Pd  Pd189  1  0.80984089  0.20575105  0.80562787  1
  Pd  Pd190  1  0.40233732  0.60541150  0.79789204  1
  Pd  Pd191  1  0.60036990  0.40048689  0.59533014  1
  Pd  Pd192  1  -0.00416211  0.60656232  0.20675989  1
  Pd  Pd193  1  0.81561927  0.79803140  0.19325934  1
  Pd  Pd194  1  0.40015767  0.39790775  0.60142081  1
  Pd  Pd195  1  0.20946325  0.01029375  0.40123297  1
  Pd  Pd196  1  -0.00296715  0.20085902  0.20478844  1
  Pd  Pd197  1  0.38744097  0.59709847  0.19851741  1
  Pd  Pd198  1  0.00057711  0.20183683  -0.00869246  1
  Pd  Pd199  1  0.80678258  0.59658183  0.39695659  1
  Rh  Rh200  1  0.40191899  0.39447377  0.00306774  1
  Rh  Rh201  1  0.59920302  0.19286045  0.60692369  1
  Rh  Rh202  1  0.20660361  0.39394961  0.41276466  1
  Rh  Rh203  1  0.60034829  0.79373045  0.58655875  1
  Rh  Rh204  1  0.80017949  0.39929067  0.61107697  1
  Rh  Rh205  1  0.59099717  0.00598190  0.20096197  1
  Rh  Rh206  1  -0.00090844  0.18938042  0.60793111  1
  Rh  Rh207  1  0.79544168  0.00156315  0.80338454  1
  Rh  Rh208  1  0.20062545  0.19542817  -0.00380283  1
  Rh  Rh209  1  0.80322223  0.00342074  0.59776516  1
  Rh  Rh210  1  0.19289701  0.20567634  0.20664824  1
  Rh  Rh211  1  0.38961013  0.19495937  0.39381406  1
  Rh  Rh212  1  0.79059241  0.39525970  0.39328212  1
  Rh  Rh213  1  0.40678019  0.19411833  0.61450089  1
  Rh  Rh214  1  0.19527604  0.40676957  -0.00656598  1
  Rh  Rh215  1  0.60397078  0.00917802  0.60744176  1
  Rh  Rh216  1  0.00218323  0.39105762  0.79934074  1
  Rh  Rh217  1  0.19531358  0.39855896  0.19057835  1
  Rh  Rh218  1  0.40119432  0.60997375  0.60282485  1
  Rh  Rh219  1  0.60183725  0.19314239  0.20180040  1
  Rh  Rh220  1  0.00849173  0.40462233  0.00022775  1
  Rh  Rh221  1  0.59155146  0.78917689  0.20245402  1
  Rh  Rh222  1  -0.00081490  0.00167196  0.00595134  1
  Rh  Rh223  1  0.19219795  0.21385921  0.80316997  1
  Rh  Rh224  1  -0.00862017  0.00850265  0.79040144  1
  Rh  Rh225  1  -0.00956735  0.60887360  0.80403848  1
  Rh  Rh226  1  0.20182751  -0.01144762  0.80997315  1
  Rh  Rh227  1  0.59309375  0.79320951  0.80911846  1
  Rh  Rh228  1  0.38847104  0.58706007  0.38841784  1
  Rh  Rh229  1  0.60567695  0.00365618  0.79915341  1
  Rh  Rh230  1  0.39433214  0.19776964  -0.00086209  1
  Rh  Rh231  1  -0.00568214  0.60070788  0.59467450  1
  Rh  Rh232  1  0.59364584  0.19866362  0.79208193  1
  Rh  Rh233  1  0.81608746  -0.00347534  0.19513078  1
  Rh  Rh234  1  0.40385400  0.00065420  0.20333454  1
  Rh  Rh235  1  -0.00431879  0.40320260  0.40413256  1
  Rh  Rh236  1  0.40863044  0.80875300  0.40594315  1
  Rh  Rh237  1  0.18902487  -0.00078078  0.59301849  1
  Rh  Rh238  1  0.39911432  0.59521361  0.00746502  1
  Rh  Rh239  1  0.39993177  0.20047871  0.19647120  1
  Rh  Rh240  1  0.40021248  0.20426546  0.79570868  1
  Rh  Rh241  1  0.59393289  0.60672059  -0.00165904  1
  Rh  Rh242  1  0.00042232  0.80851099  0.60293584  1
  Rh  Rh243  1  0.79511701  -0.00225761  0.40383138  1
  Rh  Rh244  1  0.39713347  -0.00357237  0.80007559  1
  Rh  Rh245  1  -0.00492054  0.00244851  0.40080471  1
  Rh  Rh246  1  0.79809710  0.80124798  0.60011666  1
  Rh  Rh247  1  0.80166349  0.59815262  -0.00178127  1
  Rh  Rh248  1  -0.00500269  0.39687077  0.19474153  1
  Rh  Rh249  1  0.60468465  0.60193802  0.40055433  1
