# generated using pymatgen
data_ZrScNbPdRh
_symmetry_space_group_name_H-M   'P 1'
_cell_length_a   16.56288631
_cell_length_b   16.55887498
_cell_length_c   16.56151286
_cell_angle_alpha   89.97802466
_cell_angle_beta   89.99187257
_cell_angle_gamma   90.00836362
_symmetry_Int_Tables_number   1
_chemical_formula_structural   ZrScNbPdRh
_chemical_formula_sum   'Zr50 Sc50 Nb50 Pd50 Rh50'
_cell_volume   4542.20586094
_cell_formula_units_Z   50
loop_
 _symmetry_equiv_pos_site_id
 _symmetry_equiv_pos_as_xyz
  1  'x, y, z'
loop_
 _atom_site_type_symbol
 _atom_site_label
 _atom_site_symmetry_multiplicity
 _atom_site_fract_x
 _atom_site_fract_y
 _atom_site_fract_z
 _atom_site_occupancy
  Zr  Zr0  1  0.49548780  0.10370479  0.09555984  1
  Zr  Zr1  1  0.50430371  0.50434865  0.69185738  1
  Zr  Zr2  1  0.09470779  0.69376059  0.89530271  1
  Zr  Zr3  1  0.30784743  0.10026222  0.89842419  1
  Zr  Zr4  1  0.29251879  0.49690240  0.49631213  1
  Zr  Zr5  1  0.68520527  0.29342333  0.29654428  1
  Zr  Zr6  1  0.10329782  0.09279069  0.70217901  1
  Zr  Zr7  1  0.29561769  0.50108143  0.89804688  1
  Zr  Zr8  1  0.50138948  0.49322449  0.10374967  1
  Zr  Zr9  1  0.70264169  0.69851656  0.89828640  1
  Zr  Zr10  1  0.10374675  0.50099097  0.89393542  1
  Zr  Zr11  1  0.10760980  0.09394154  0.10354309  1
  Zr  Zr12  1  0.50836053  0.90580063  0.30875411  1
  Zr  Zr13  1  0.10302136  0.90035253  0.30016966  1
  Zr  Zr14  1  0.29171858  0.90385348  0.10137683  1
  Zr  Zr15  1  0.49736201  0.89362592  0.70164159  1
  Zr  Zr16  1  0.30005458  0.70497865  0.09851804  1
  Zr  Zr17  1  0.70523284  0.30707563  0.69931689  1
  Zr  Zr18  1  0.89867764  0.49980649  0.50521806  1
  Zr  Zr19  1  0.10030408  0.49874483  0.50710458  1
  Zr  Zr20  1  0.29724758  0.30086607  0.89871108  1
  Zr  Zr21  1  0.29762561  0.10115640  0.09715533  1
  Zr  Zr22  1  0.29884988  0.30363362  0.51397186  1
  Zr  Zr23  1  0.89670448  0.09683270  0.29621347  1
  Zr  Zr24  1  0.09939154  0.70790865  0.10139659  1
  Zr  Zr25  1  0.70961974  0.71094409  0.30336296  1
  Zr  Zr26  1  0.09350474  0.90200908  0.89768282  1
  Zr  Zr27  1  0.50729787  0.10264693  0.29636323  1
  Zr  Zr28  1  0.49709801  0.10192105  0.70612894  1
  Zr  Zr29  1  0.48927677  0.69616594  0.09097483  1
  Zr  Zr30  1  0.09791921  0.30645808  0.70478731  1
  Zr  Zr31  1  0.70564877  0.90551934  0.69698230  1
  Zr  Zr32  1  0.49458304  0.30077842  0.69392324  1
  Zr  Zr33  1  0.09616504  0.10114642  0.90113680  1
  Zr  Zr34  1  0.90411215  0.29365648  0.29106703  1
  Zr  Zr35  1  0.29354681  0.30151622  0.30173910  1
  Zr  Zr36  1  0.49581918  0.49557665  0.30568908  1
  Zr  Zr37  1  0.89656890  0.10780946  0.09871617  1
  Zr  Zr38  1  0.90192498  0.10348992  0.50173144  1
  Zr  Zr39  1  0.90406773  0.28946429  0.89694487  1
  Zr  Zr40  1  0.29936781  0.10122790  0.50915452  1
  Zr  Zr41  1  0.70829122  0.89984569  0.89844616  1
  Zr  Zr42  1  0.90059027  0.70678725  0.89950434  1
  Zr  Zr43  1  0.89179461  0.50602316  0.09712723  1
  Zr  Zr44  1  0.50565256  0.89232407  0.49987792  1
  Zr  Zr45  1  0.69958346  0.09152081  0.29362867  1
  Zr  Zr46  1  0.10338570  0.90339089  0.09805640  1
  Zr  Zr47  1  0.70376855  0.29996376  0.50124997  1
  Zr  Zr48  1  0.51012716  0.49547043  0.89603147  1
  Zr  Zr49  1  0.70419936  0.90064998  0.30409170  1
  Sc  Sc50  1  0.49375863  0.69800879  0.31754289  1
  Sc  Sc51  1  0.70136075  0.90464999  0.10342071  1
  Sc  Sc52  1  0.09554804  0.30365756  0.29523822  1
  Sc  Sc53  1  0.89877696  0.29548140  0.09858049  1
  Sc  Sc54  1  0.09769418  0.08555435  0.50214813  1
  Sc  Sc55  1  0.70604743  0.50173687  0.70483247  1
  Sc  Sc56  1  0.89864045  0.49985487  0.69500910  1
  Sc  Sc57  1  0.10090096  0.29988845  0.10687604  1
  Sc  Sc58  1  0.90754097  0.49959600  0.29265956  1
  Sc  Sc59  1  0.29090275  0.49623498  0.68872934  1
  Sc  Sc60  1  0.09077902  0.49741414  0.09719983  1
  Sc  Sc61  1  0.90271107  0.69458699  0.10535559  1
  Sc  Sc62  1  0.71534010  0.69641764  0.10255373  1
  Sc  Sc63  1  0.29531035  0.70353531  0.49907896  1
  Sc  Sc64  1  0.50535553  0.90134242  0.08938280  1
  Sc  Sc65  1  0.29771417  0.89631718  0.50207366  1
  Sc  Sc66  1  0.68578411  0.49874915  0.30443685  1
  Sc  Sc67  1  0.49791310  0.09280074  0.49683646  1
  Sc  Sc68  1  0.70795349  0.49633107  0.89798363  1
  Sc  Sc69  1  0.09860267  0.90009058  0.69170895  1
  Sc  Sc70  1  0.49901416  0.70904974  0.89825513  1
  Sc  Sc71  1  0.29899296  0.89685507  0.31190024  1
  Sc  Sc72  1  0.49437474  0.29525318  0.49349605  1
  Sc  Sc73  1  0.90227860  0.70720106  0.70104290  1
  Sc  Sc74  1  0.30183748  0.28833488  0.10340521  1
  Sc  Sc75  1  0.29789357  0.90410144  0.69978105  1
  Sc  Sc76  1  0.30241745  0.90336156  0.89508166  1
  Sc  Sc77  1  0.29954100  0.49953687  0.30566253  1
  Sc  Sc78  1  0.50422510  0.29388968  0.88882627  1
  Sc  Sc79  1  0.50227286  0.89738206  0.89932254  1
  Sc  Sc80  1  0.10436945  0.49192844  0.30455161  1
  Sc  Sc81  1  0.49570062  0.29684986  0.29234209  1
  Sc  Sc82  1  0.70523564  0.09968741  0.10280053  1
  Sc  Sc83  1  0.70373090  0.69732941  0.69665714  1
  Sc  Sc84  1  0.09777071  0.31100391  0.90184280  1
  Sc  Sc85  1  0.29708883  0.70009921  0.31308808  1
  Sc  Sc86  1  0.30312943  0.09379833  0.70164713  1
  Sc  Sc87  1  0.90421801  0.50356364  0.90400247  1
  Sc  Sc88  1  0.89914667  0.89555525  0.09340488  1
  Sc  Sc89  1  0.89545793  0.30385547  0.70083784  1
  Sc  Sc90  1  0.29701560  0.10480773  0.29570556  1
  Sc  Sc91  1  0.09543199  0.10407470  0.30384195  1
  Sc  Sc92  1  0.30275737  0.69672686  0.90880658  1
  Sc  Sc93  1  0.30142057  0.70399680  0.68564552  1
  Sc  Sc94  1  0.30807790  0.51099894  0.09849503  1
  Sc  Sc95  1  0.90347673  0.30616568  0.50887387  1
  Sc  Sc96  1  0.89521883  0.70524189  0.51357834  1
  Sc  Sc97  1  0.70264113  0.30910140  0.89795947  1
  Sc  Sc98  1  0.70437631  0.08893875  0.50432957  1
  Sc  Sc99  1  0.89969030  0.89913780  0.50779824  1
  Nb  Nb100  1  0.49559400  0.69824726  0.69414046  1
  Nb  Nb101  1  0.70574911  0.10189764  0.89919582  1
  Nb  Nb102  1  0.69989890  0.50185883  0.49597925  1
  Nb  Nb103  1  0.09924001  0.30202147  0.50351208  1
  Nb  Nb104  1  0.10044911  0.89214847  0.50005761  1
  Nb  Nb105  1  0.09802750  0.70017275  0.30303937  1
  Nb  Nb106  1  0.89284501  0.89309256  0.29914126  1
  Nb  Nb107  1  0.50228721  0.69807477  0.51439114  1
  Nb  Nb108  1  0.70163000  0.70451302  0.49863235  1
  Nb  Nb109  1  0.70705991  0.10270774  0.69839095  1
  Nb  Nb110  1  0.50590563  0.29889148  0.09704754  1
  Nb  Nb111  1  0.89717921  0.89853307  0.88761389  1
  Nb  Nb112  1  0.50294718  0.10123595  0.89745312  1
  Nb  Nb113  1  0.90081525  0.70325095  0.30060586  1
  Nb  Nb114  1  0.30200734  0.29698148  0.69754032  1
  Nb  Nb115  1  0.10250196  0.50756227  0.70246705  1
  Nb  Nb116  1  0.69608249  0.49525092  0.09693356  1
  Nb  Nb117  1  0.89471912  0.10294603  0.70280568  1
  Nb  Nb118  1  0.69948334  0.88613404  0.49519035  1
  Nb  Nb119  1  0.10166303  0.70498987  0.50298784  1
  Nb  Nb120  1  0.69212786  0.30426861  0.09796546  1
  Nb  Nb121  1  0.10127568  0.69996707  0.69483805  1
  Nb  Nb122  1  0.50661089  0.50239867  0.49688805  1
  Nb  Nb123  1  0.89787494  0.89730333  0.70973601  1
  Nb  Nb124  1  0.89430416  0.10223762  0.89904252  1
  Nb  Nb125  1  0.40429795  0.59887334  0.79157556  1
  Nb  Nb126  1  0.19330039  0.79401753  0.79643422  1
  Nb  Nb127  1  0.59683779  0.60443162  0.19778297  1
  Nb  Nb128  1  0.00204492  0.19738338  0.60645955  1
  Nb  Nb129  1  0.40525516  0.80482355  0.20283778  1
  Nb  Nb130  1  0.60733930  0.00877739  0.80052926  1
  Nb  Nb131  1  0.80280025  0.60051966  0.40200455  1
  Nb  Nb132  1  0.19536799  0.20608535  0.41077698  1
  Nb  Nb133  1  0.78969179  0.39877226  0.19902807  1
  Nb  Nb134  1  -0.01316861  0.00275909  0.80158636  1
  Nb  Nb135  1  0.79843832  0.39978357  0.39470988  1
  Nb  Nb136  1  0.20040948  0.20238071  0.79699263  1
  Nb  Nb137  1  -0.00093536  0.60977992  0.40174646  1
  Nb  Nb138  1  0.40099504  -0.00409766  0.19989530  1
  Nb  Nb139  1  0.60007906  0.40297435  0.59157178  1
  Nb  Nb140  1  -0.00435681  -0.00358045  0.20157916  1
  Nb  Nb141  1  0.59506207  0.79331634  0.20191750  1
  Nb  Nb142  1  0.60271849  0.19916807  -0.00359328  1
  Nb  Nb143  1  0.00030305  0.79665217  0.39934260  1
  Nb  Nb144  1  0.39671915  0.40315799  0.79579272  1
  Nb  Nb145  1  0.60351361  0.59652647  0.00575337  1
  Nb  Nb146  1  0.40472235  0.39537229  -0.00414504  1
  Nb  Nb147  1  0.19523176  0.60626280  0.20361770  1
  Nb  Nb148  1  0.60460018  0.19930289  0.60495277  1
  Nb  Nb149  1  0.80125200  0.20284679  0.39633964  1
  Pd  Pd150  1  0.80463761  -0.00548090  0.59700716  1
  Pd  Pd151  1  0.39635219  0.60934368  0.21157942  1
  Pd  Pd152  1  0.60538161  0.80222995  0.79290053  1
  Pd  Pd153  1  -0.00581899  -0.01201730  0.39489779  1
  Pd  Pd154  1  0.80130259  -0.00039002  0.40571644  1
  Pd  Pd155  1  -0.00396263  0.80701337  0.20256508  1
  Pd  Pd156  1  0.20855070  0.40132938  0.01397634  1
  Pd  Pd157  1  0.19105186  0.19675532  0.60297236  1
  Pd  Pd158  1  0.39448939  0.00438028  0.39502078  1
  Pd  Pd159  1  0.38770704  0.79175613  0.79878109  1
  Pd  Pd160  1  0.00803586  0.20342447  0.00531183  1
  Pd  Pd161  1  0.39218310  0.59519698  0.59506560  1
  Pd  Pd162  1  0.80659443  0.39464685  0.00116042  1
  Pd  Pd163  1  -0.00800682  0.59754780  0.79369631  1
  Pd  Pd164  1  0.20933694  0.79548945  0.21032413  1
  Pd  Pd165  1  0.20694014  0.41162742  0.19265876  1
  Pd  Pd166  1  0.19298758  0.20457671  -0.00683075  1
  Pd  Pd167  1  0.80453749  -0.00027801  0.00137313  1
  Pd  Pd168  1  0.61112664  0.20000157  0.79858901  1
  Pd  Pd169  1  0.61099313  0.59799960  0.59908248  1
  Pd  Pd170  1  0.39247773  0.39412190  0.19325868  1
  Pd  Pd171  1  0.60598180  0.79667299  0.60622699  1
  Pd  Pd172  1  -0.00648693  0.40926619  0.79810489  1
  Pd  Pd173  1  0.60585681  0.00758384  -0.00616286  1
  Pd  Pd174  1  0.60555937  0.61002888  0.39806405  1
  Pd  Pd175  1  0.80980271  0.60040020  0.79984337  1
  Pd  Pd176  1  0.59810067  0.00429092  0.60306720  1
  Pd  Pd177  1  0.40168543  -0.00549082  0.60048760  1
  Pd  Pd178  1  0.60690900  0.18954604  0.41198070  1
  Pd  Pd179  1  0.39694922  0.60139948  0.41247184  1
  Pd  Pd180  1  0.19191579  0.59681729  0.01109871  1
  Pd  Pd181  1  0.59692519  0.60642613  0.80399663  1
  Pd  Pd182  1  -0.00488369  0.40350553  0.39885943  1
  Pd  Pd183  1  0.80116474  0.79868902  0.00410275  1
  Pd  Pd184  1  0.79497491  0.20539137  0.80117666  1
  Pd  Pd185  1  0.39128095  0.19910798  0.39922229  1
  Pd  Pd186  1  0.00165806  0.20496735  0.40956801  1
  Pd  Pd187  1  0.20119648  0.80375563  -0.01422546  1
  Pd  Pd188  1  0.00843887  0.59576802  0.20466290  1
  Pd  Pd189  1  -0.01189224  0.00153605  0.00025638  1
  Pd  Pd190  1  0.21244307  0.60984920  0.79013015  1
  Pd  Pd191  1  0.20333243  0.00692662  0.40089684  1
  Pd  Pd192  1  0.00011832  0.60462577  0.59954767  1
  Pd  Pd193  1  0.60993547  0.79127631  0.00903742  1
  Pd  Pd194  1  0.39913070  -0.00530059  -0.00057667  1
  Pd  Pd195  1  0.79105967  0.58898815  0.21209215  1
  Pd  Pd196  1  -0.00329017  0.79850428  0.00040623  1
  Pd  Pd197  1  -0.00507179  0.39730912  0.00361100  1
  Pd  Pd198  1  0.40076874  0.39589789  0.40457579  1
  Pd  Pd199  1  -0.00711703  -0.00074037  0.60797143  1
  Rh  Rh200  1  0.40083496  0.80363480  0.59521520  1
  Rh  Rh201  1  0.19605881  0.39075989  0.40231446  1
  Rh  Rh202  1  0.79600533  0.60050096  -0.00591064  1
  Rh  Rh203  1  0.79128949  0.20556995  -0.00361517  1
  Rh  Rh204  1  0.40782217  0.19199891  0.60006646  1
  Rh  Rh205  1  0.59255221  -0.00639876  0.19534576  1
  Rh  Rh206  1  0.60076872  0.19475133  0.18719673  1
  Rh  Rh207  1  0.00162986  0.80257071  0.60013988  1
  Rh  Rh208  1  0.20094134  0.00204336  0.20997102  1
  Rh  Rh209  1  0.40443975  0.79757485  0.40767957  1
  Rh  Rh210  1  0.19767303  0.60294036  0.59711548  1
  Rh  Rh211  1  0.59577324  0.39555608  0.40487306  1
  Rh  Rh212  1  0.79002425  0.20927270  0.20312976  1
  Rh  Rh213  1  0.81012249  0.40232284  0.80583776  1
  Rh  Rh214  1  0.40710212  0.40906487  0.59712090  1
  Rh  Rh215  1  0.79675835  0.80452857  0.60366683  1
  Rh  Rh216  1  0.79267538  0.40828697  0.59668827  1
  Rh  Rh217  1  0.41138133  0.58943873  -0.01785324  1
  Rh  Rh218  1  0.00832779  0.80605186  0.79165752  1
  Rh  Rh219  1  0.79847645  0.80484676  0.19389327  1
  Rh  Rh220  1  0.59553093  0.39596300  -0.00445341  1
  Rh  Rh221  1  0.79437430  0.79429502  0.79492318  1
  Rh  Rh222  1  0.00809965  0.19029553  0.19212085  1
  Rh  Rh223  1  0.60805277  0.00157657  0.40834687  1
  Rh  Rh224  1  0.59937971  0.40460437  0.20446573  1
  Rh  Rh225  1  0.19495083  0.20084934  0.21111064  1
  Rh  Rh226  1  0.19204849  0.40030882  0.60535818  1
  Rh  Rh227  1  0.00035784  0.60386210  0.00007415  1
  Rh  Rh228  1  0.80035873  0.00520944  0.80036071  1
  Rh  Rh229  1  0.19225645  -0.00208846  0.80376887  1
  Rh  Rh230  1  0.81131057  0.79704080  0.40987407  1
  Rh  Rh231  1  0.20269712  -0.00794704  0.59467496  1
  Rh  Rh232  1  0.00426358  0.19089089  0.79316450  1
  Rh  Rh233  1  0.00506872  0.39882082  0.60832270  1
  Rh  Rh234  1  0.40198132  0.19712273  0.20019606  1
  Rh  Rh235  1  0.19808870  0.80244397  0.60469358  1
  Rh  Rh236  1  0.59825530  0.39983493  0.78684132  1
  Rh  Rh237  1  0.39022498  0.20386013  0.79967189  1
  Rh  Rh238  1  0.20554194  0.00026150  -0.01098747  1
  Rh  Rh239  1  0.59548680  0.79274015  0.40002279  1
  Rh  Rh240  1  0.20500129  0.39544541  0.79107601  1
  Rh  Rh241  1  0.39378167  0.81069411  0.00414095  1
  Rh  Rh242  1  0.81017551  -0.00800412  0.19425469  1
  Rh  Rh243  1  0.41196954  -0.00445190  0.80191444  1
  Rh  Rh244  1  0.41222734  0.20865979  -0.00569304  1
  Rh  Rh245  1  -0.01025028  0.40138190  0.19244895  1
  Rh  Rh246  1  0.80404401  0.19860893  0.59551885  1
  Rh  Rh247  1  0.19352483  0.79921319  0.40237950  1
  Rh  Rh248  1  0.79522384  0.60036284  0.59537844  1
  Rh  Rh249  1  0.19089831  0.59961616  0.39849619  1
