# generated using pymatgen
data_ZrScNbPdRh
_symmetry_space_group_name_H-M   'P 1'
_cell_length_a   16.56415422
_cell_length_b   16.56370117
_cell_length_c   16.56170840
_cell_angle_alpha   89.98513805
_cell_angle_beta   89.96167100
_cell_angle_gamma   89.99672042
_symmetry_Int_Tables_number   1
_chemical_formula_structural   ZrScNbPdRh
_chemical_formula_sum   'Zr50 Sc50 Nb50 Pd50 Rh50'
_cell_volume   4543.93042895
_cell_formula_units_Z   50
loop_
 _symmetry_equiv_pos_site_id
 _symmetry_equiv_pos_as_xyz
  1  'x, y, z'
loop_
 _atom_site_type_symbol
 _atom_site_label
 _atom_site_symmetry_multiplicity
 _atom_site_fract_x
 _atom_site_fract_y
 _atom_site_fract_z
 _atom_site_occupancy
  Zr  Zr0  1  0.49823772  0.30806390  0.30298228  1
  Zr  Zr1  1  0.70101844  0.69971888  0.69877203  1
  Zr  Zr2  1  0.30238952  0.09490966  0.70057223  1
  Zr  Zr3  1  0.30065412  0.70075671  0.70679848  1
  Zr  Zr4  1  0.09865682  0.30232335  0.90272623  1
  Zr  Zr5  1  0.50178964  0.70534399  0.69094432  1
  Zr  Zr6  1  0.69931692  0.90814539  0.90610532  1
  Zr  Zr7  1  0.31587437  0.49977649  0.30685729  1
  Zr  Zr8  1  0.09851525  0.09566836  0.29575600  1
  Zr  Zr9  1  0.49125723  0.30290937  0.89791366  1
  Zr  Zr10  1  0.10785550  0.29819879  0.10230783  1
  Zr  Zr11  1  0.71164013  0.50108564  0.49887448  1
  Zr  Zr12  1  0.10208871  0.70717064  0.49461098  1
  Zr  Zr13  1  0.69761556  0.89974525  0.10072399  1
  Zr  Zr14  1  0.30412853  0.30378586  0.70181554  1
  Zr  Zr15  1  0.70092670  0.29667761  0.70205373  1
  Zr  Zr16  1  0.09543792  0.29130099  0.30822176  1
  Zr  Zr17  1  0.10006335  0.49564993  0.09402365  1
  Zr  Zr18  1  0.50284497  0.90570060  0.70027246  1
  Zr  Zr19  1  0.29910809  0.50127896  0.50564073  1
  Zr  Zr20  1  0.89953176  0.69935846  0.09457217  1
  Zr  Zr21  1  0.90284813  0.69292884  0.29540055  1
  Zr  Zr22  1  0.10022321  0.30304372  0.70165407  1
  Zr  Zr23  1  0.29336931  0.50044843  0.69104443  1
  Zr  Zr24  1  0.50074408  0.09993143  0.50555871  1
  Zr  Zr25  1  0.69941971  0.70366459  0.10732883  1
  Zr  Zr26  1  0.70175435  0.29474404  0.49519699  1
  Zr  Zr27  1  0.89876515  0.70741026  0.69946252  1
  Zr  Zr28  1  0.29274456  0.91051569  0.49905078  1
  Zr  Zr29  1  0.28983407  0.89218563  0.89847326  1
  Zr  Zr30  1  0.30260888  0.90235353  0.09446223  1
  Zr  Zr31  1  0.90682594  0.50037137  0.90332885  1
  Zr  Zr32  1  0.69775187  0.10239067  0.70653093  1
  Zr  Zr33  1  0.30133611  0.50361359  0.89200629  1
  Zr  Zr34  1  0.29856975  0.49529605  0.09863011  1
  Zr  Zr35  1  0.10320610  0.50112097  0.90381800  1
  Zr  Zr36  1  0.29431865  0.30942283  0.49930278  1
  Zr  Zr37  1  0.09537798  0.10071358  0.69624646  1
  Zr  Zr38  1  0.49947167  0.69376528  0.29634711  1
  Zr  Zr39  1  0.88802968  0.90126012  0.10061792  1
  Zr  Zr40  1  0.29448830  0.09500993  0.30971085  1
  Zr  Zr41  1  0.10499036  0.09690655  0.49365545  1
  Zr  Zr42  1  0.89344178  0.49992356  0.30793834  1
  Zr  Zr43  1  0.50521243  0.49662012  0.11101939  1
  Zr  Zr44  1  0.70273700  0.89735851  0.70163691  1
  Zr  Zr45  1  0.69518685  0.50208728  0.28838353  1
  Zr  Zr46  1  0.70543761  0.70805450  0.89664656  1
  Zr  Zr47  1  0.08760294  0.29770188  0.49867854  1
  Zr  Zr48  1  0.30249193  0.09876026  0.89750423  1
  Zr  Zr49  1  0.29236457  0.09908817  0.09593185  1
  Sc  Sc50  1  0.11942224  0.69789301  0.90312602  1
  Sc  Sc51  1  0.89420816  0.90807565  0.90402125  1
  Sc  Sc52  1  0.70197099  0.69850470  0.50932576  1
  Sc  Sc53  1  0.50423484  0.29367330  0.50605780  1
  Sc  Sc54  1  0.30305488  0.90360296  0.30360915  1
  Sc  Sc55  1  0.90572593  0.29658263  0.89000248  1
  Sc  Sc56  1  0.30155620  0.70341065  0.50589706  1
  Sc  Sc57  1  0.70339129  0.90817941  0.50053883  1
  Sc  Sc58  1  0.29666231  0.29776136  0.09146211  1
  Sc  Sc59  1  0.90386405  0.49553003  0.49843811  1
  Sc  Sc60  1  0.09631566  0.89922629  0.50096687  1
  Sc  Sc61  1  0.89355062  0.09284312  0.10480819  1
  Sc  Sc62  1  0.90920070  0.70146777  0.50197200  1
  Sc  Sc63  1  0.90083165  0.09842585  0.89227211  1
  Sc  Sc64  1  0.29113525  0.30711788  0.30061608  1
  Sc  Sc65  1  0.10318332  0.09180644  0.89788956  1
  Sc  Sc66  1  0.49688517  0.90106267  0.29915800  1
  Sc  Sc67  1  0.69327075  0.30234232  0.10785046  1
  Sc  Sc68  1  0.88788304  0.28984781  0.11831991  1
  Sc  Sc69  1  0.90391499  0.10004499  0.70374419  1
  Sc  Sc70  1  0.68200028  0.29702658  0.89617840  1
  Sc  Sc71  1  0.69549158  0.09294261  0.09976343  1
  Sc  Sc72  1  0.49572379  0.09229865  0.09200446  1
  Sc  Sc73  1  0.09482212  0.50625723  0.30723280  1
  Sc  Sc74  1  0.30349754  0.70381473  0.30818542  1
  Sc  Sc75  1  0.90828786  0.50455993  0.10218776  1
  Sc  Sc76  1  0.09850743  0.68804204  0.09378364  1
  Sc  Sc77  1  0.10167481  0.50381660  0.51040130  1
  Sc  Sc78  1  0.49922913  0.29324354  0.70262027  1
  Sc  Sc79  1  0.49920219  0.70993950  0.10253241  1
  Sc  Sc80  1  0.50002840  0.90217165  0.90144264  1
  Sc  Sc81  1  0.29968003  0.70620390  0.09088035  1
  Sc  Sc82  1  0.48784245  0.50098625  0.50370418  1
  Sc  Sc83  1  0.49530884  0.30278267  0.09013009  1
  Sc  Sc84  1  0.71190742  0.29454684  0.30066234  1
  Sc  Sc85  1  0.50153867  0.10404582  0.89953504  1
  Sc  Sc86  1  0.50321045  0.09003197  0.31247983  1
  Sc  Sc87  1  0.50162011  0.90090827  0.50230382  1
  Sc  Sc88  1  0.89705984  0.10122511  0.29406649  1
  Sc  Sc89  1  0.30157569  0.29567139  0.90130076  1
  Sc  Sc90  1  0.90627794  0.90020812  0.50121489  1
  Sc  Sc91  1  0.90043082  0.50640871  0.69180298  1
  Sc  Sc92  1  0.48824407  0.49484695  0.69825889  1
  Sc  Sc93  1  0.30058282  0.89938577  0.70298370  1
  Sc  Sc94  1  0.90881664  0.29356033  0.69935737  1
  Sc  Sc95  1  0.10983758  0.90161416  0.69809016  1
  Sc  Sc96  1  0.69824991  0.09388852  0.30654723  1
  Sc  Sc97  1  0.10562908  0.70430332  0.68831943  1
  Sc  Sc98  1  0.90993416  0.09566052  0.50546406  1
  Sc  Sc99  1  0.69155829  0.10023518  0.49557388  1
  Nb  Nb100  1  0.70290236  0.69724052  0.30136406  1
  Nb  Nb101  1  0.90343876  0.30231530  0.31192310  1
  Nb  Nb102  1  0.50369289  0.49373037  0.90438139  1
  Nb  Nb103  1  0.09118652  0.89367441  0.29907024  1
  Nb  Nb104  1  0.70268362  0.50259985  0.69884773  1
  Nb  Nb105  1  0.89719625  0.89705612  0.29596773  1
  Nb  Nb106  1  0.69609379  0.49749817  0.89885519  1
  Nb  Nb107  1  0.89938904  0.29941745  0.49131038  1
  Nb  Nb108  1  0.50059297  0.50102356  0.30242207  1
  Nb  Nb109  1  0.10193758  0.89648761  0.90236459  1
  Nb  Nb110  1  0.10246836  0.50764988  0.70282534  1
  Nb  Nb111  1  0.90284456  0.70148354  0.89961608  1
  Nb  Nb112  1  0.49675017  0.10120371  0.70066888  1
  Nb  Nb113  1  0.70480443  0.89589423  0.29837451  1
  Nb  Nb114  1  0.10053153  0.09866523  0.09815642  1
  Nb  Nb115  1  0.90708451  0.89918015  0.69307000  1
  Nb  Nb116  1  0.50028429  0.69201191  0.89397692  1
  Nb  Nb117  1  0.29671448  0.10114208  0.49846434  1
  Nb  Nb118  1  0.69512441  0.49750958  0.09304535  1
  Nb  Nb119  1  0.10197596  0.90659324  0.09500962  1
  Nb  Nb120  1  0.50361531  0.90324654  0.09825920  1
  Nb  Nb121  1  0.70496647  0.10514947  0.89922907  1
  Nb  Nb122  1  0.30538811  0.69858881  0.89835997  1
  Nb  Nb123  1  0.50972419  0.70371855  0.50215284  1
  Nb  Nb124  1  0.09785384  0.70315648  0.29739177  1
  Nb  Nb125  1  0.79828214  0.79910508  0.39175111  1
  Nb  Nb126  1  0.60139409  0.40822265  0.40153772  1
  Nb  Nb127  1  0.79305904  0.59522362  -0.00468673  1
  Nb  Nb128  1  -0.00137639  0.39401499  0.20856244  1
  Nb  Nb129  1  0.58929183  0.19809115  0.20418948  1
  Nb  Nb130  1  0.00360663  0.60745379  0.79966295  1
  Nb  Nb131  1  0.59877920  0.60067095  0.39977091  1
  Nb  Nb132  1  0.20092062  0.20001338  0.59728890  1
  Nb  Nb133  1  0.60145441  0.59472721  0.80126840  1
  Nb  Nb134  1  0.60812286  0.40315911  0.59918754  1
  Nb  Nb135  1  0.20101901  0.60372114  0.20460253  1
  Nb  Nb136  1  0.00378762  0.80293749  0.19493000  1
  Nb  Nb137  1  0.80155452  0.20167556  0.59665484  1
  Nb  Nb138  1  0.79502924  0.40572503  0.80165739  1
  Nb  Nb139  1  -0.00033432  0.19448254  0.00732513  1
  Nb  Nb140  1  0.79477914  0.39960541  -0.00385264  1
  Nb  Nb141  1  0.40012346  0.19514255  0.20568616  1
  Nb  Nb142  1  0.59959508  0.59808640  -0.00491621  1
  Nb  Nb143  1  0.18981016  0.80034006  0.19982608  1
  Nb  Nb144  1  0.79818324  0.20204673  -0.00468591  1
  Nb  Nb145  1  0.40752235  0.59952589  -0.00762488  1
  Nb  Nb146  1  0.60677023  0.79372825  0.39681257  1
  Nb  Nb147  1  0.39508693  0.19896228  0.40029871  1
  Nb  Nb148  1  0.00212006  0.79987745  0.80574285  1
  Nb  Nb149  1  0.00475223  0.80493773  -0.00204494  1
  Pd  Pd150  1  0.59660666  0.80482895  0.20742205  1
  Pd  Pd151  1  0.19754753  0.19778206  0.79701446  1
  Pd  Pd152  1  -0.00114879  0.40276810  0.60315691  1
  Pd  Pd153  1  0.80667755  -0.00239610  0.40028549  1
  Pd  Pd154  1  -0.00266918  -0.00445222  0.19764388  1
  Pd  Pd155  1  0.39570401  0.80630169  0.59639740  1
  Pd  Pd156  1  0.59846737  0.40436937  0.78849493  1
  Pd  Pd157  1  0.40774783  0.79722650  -0.00661180  1
  Pd  Pd158  1  -0.00338575  -0.00054183  0.39699485  1
  Pd  Pd159  1  0.80518766  0.40584770  0.19604954  1
  Pd  Pd160  1  0.40222749  0.00431293  0.19997176  1
  Pd  Pd161  1  0.80868968  0.81282128  0.80280368  1
  Pd  Pd162  1  0.00076479  0.59949437  0.40806595  1
  Pd  Pd163  1  0.80395302  -0.00303431  0.79490517  1
  Pd  Pd164  1  0.40785868  0.80195943  0.40597338  1
  Pd  Pd165  1  0.39819813  -0.00326262  0.59883737  1
  Pd  Pd166  1  0.59804889  0.00321190  0.20303976  1
  Pd  Pd167  1  0.20273491  0.39989364  0.80281752  1
  Pd  Pd168  1  -0.00049134  0.20144874  0.19733585  1
  Pd  Pd169  1  0.59632782  0.79826185  0.80065592  1
  Pd  Pd170  1  0.79995003  0.59317426  0.19006420  1
  Pd  Pd171  1  0.39901981  -0.00224486  -0.00756125  1
  Pd  Pd172  1  0.80228492  0.00944307  0.60354651  1
  Pd  Pd173  1  0.59498164  0.79758135  -0.00200562  1
  Pd  Pd174  1  0.59722290  0.00632276  0.80597290  1
  Pd  Pd175  1  -0.01657159  0.38035134  0.01697577  1
  Pd  Pd176  1  -0.00278821  0.00236523  0.00002126  1
  Pd  Pd177  1  0.80373708  0.39089369  0.60585046  1
  Pd  Pd178  1  0.60273216  0.19955700  0.00805250  1
  Pd  Pd179  1  0.00297826  -0.00998825  0.79653703  1
  Pd  Pd180  1  0.39296641  0.20344239  0.59515508  1
  Pd  Pd181  1  0.80835234  0.18619326  0.40574210  1
  Pd  Pd182  1  0.19107846  0.40949123  0.40040278  1
  Pd  Pd183  1  0.40445187  0.60816109  0.41085109  1
  Pd  Pd184  1  0.20713711  0.19851203  0.20322486  1
  Pd  Pd185  1  0.80011037  0.80444162  0.58868814  1
  Pd  Pd186  1  0.20174586  0.80567078  0.39607047  1
  Pd  Pd187  1  -0.00537313  0.41118405  0.78942172  1
  Pd  Pd188  1  0.39113325  0.60688776  0.18950873  1
  Pd  Pd189  1  0.60404399  0.00105376  0.60145063  1
  Pd  Pd190  1  0.19205767  0.41052940  0.21208696  1
  Pd  Pd191  1  0.40673265  0.59506197  0.79649830  1
  Pd  Pd192  1  0.80974729  0.60455836  0.59481836  1
  Pd  Pd193  1  0.20007307  -0.00843238  0.20364605  1
  Pd  Pd194  1  0.20282594  0.59994613  0.39790911  1
  Pd  Pd195  1  0.39635698  0.38905054  0.19488627  1
  Pd  Pd196  1  0.59381528  0.58981198  0.60070806  1
  Pd  Pd197  1  0.40509844  0.80557812  0.80339195  1
  Pd  Pd198  1  0.80300371  0.59449868  0.80351831  1
  Pd  Pd199  1  0.39190558  0.80338837  0.19953789  1
  Rh  Rh200  1  0.19539561  0.80015968  0.00771701  1
  Rh  Rh201  1  0.59962378  -0.01601234  0.40096251  1
  Rh  Rh202  1  0.20538125  0.80477251  0.59769005  1
  Rh  Rh203  1  0.19013382  0.39609962  0.60150522  1
  Rh  Rh204  1  0.40647092  0.39429617  0.40846527  1
  Rh  Rh205  1  0.00174310  0.40618669  0.39887214  1
  Rh  Rh206  1  0.59188436  0.19435093  0.79880406  1
  Rh  Rh207  1  0.40215164  -0.00117035  0.80114760  1
  Rh  Rh208  1  0.40894816  0.39169951  0.59885728  1
  Rh  Rh209  1  0.78403630  0.18978033  0.19515766  1
  Rh  Rh210  1  0.60019035  0.39741367  0.00259802  1
  Rh  Rh211  1  0.21434705  0.59825541  0.00597231  1
  Rh  Rh212  1  0.20804176  0.39954794  -0.01060690  1
  Rh  Rh213  1  0.19191730  0.19429598  -0.00558047  1
  Rh  Rh214  1  0.79476794  0.40035506  0.39678376  1
  Rh  Rh215  1  0.80573171  0.79757103  0.20461187  1
  Rh  Rh216  1  0.60611933  0.19995880  0.60812136  1
  Rh  Rh217  1  0.00780841  0.19484158  0.80992161  1
  Rh  Rh218  1  0.20011910  0.00184493  -0.00464951  1
  Rh  Rh219  1  0.19947877  0.00526920  0.60188134  1
  Rh  Rh220  1  0.40319946  0.19603504  0.79998421  1
  Rh  Rh221  1  0.00468410  -0.00470397  0.60311918  1
  Rh  Rh222  1  -0.00052416  0.60977857  -0.01064456  1
  Rh  Rh223  1  -0.00094291  0.19965668  0.59596138  1
  Rh  Rh224  1  0.79999351  0.20814466  0.80159742  1
  Rh  Rh225  1  0.79562176  0.01171587  -0.00138224  1
  Rh  Rh226  1  -0.00728205  0.18845661  0.39820003  1
  Rh  Rh227  1  0.40025707  0.60819060  0.60062706  1
  Rh  Rh228  1  -0.01039818  0.80011642  0.39148395  1
  Rh  Rh229  1  0.20107802  -0.00238402  0.79987302  1
  Rh  Rh230  1  0.00539335  0.80367930  0.60581788  1
  Rh  Rh231  1  0.79249542  0.00157390  0.20472588  1
  Rh  Rh232  1  0.00318036  0.60317504  0.60306602  1
  Rh  Rh233  1  0.60719594  0.81016669  0.59477406  1
  Rh  Rh234  1  0.80318192  0.79700953  -0.00218050  1
  Rh  Rh235  1  0.59123430  0.20802551  0.39029725  1
  Rh  Rh236  1  0.39674207  0.40696720  -0.00174880  1
  Rh  Rh237  1  0.59969286  0.00109469  -0.00374413  1
  Rh  Rh238  1  0.19547505  0.60513994  0.79468973  1
  Rh  Rh239  1  0.59979199  0.39179814  0.20577822  1
  Rh  Rh240  1  0.79831276  0.60862383  0.40526505  1
  Rh  Rh241  1  0.39740391  0.40136332  0.79967408  1
  Rh  Rh242  1  0.20473416  0.20402286  0.40630561  1
  Rh  Rh243  1  0.20128081  0.60600989  0.59827862  1
  Rh  Rh244  1  0.18993011  -0.00997392  0.39426135  1
  Rh  Rh245  1  0.19658361  0.79644095  0.79810184  1
  Rh  Rh246  1  0.59842820  0.60273771  0.19691578  1
  Rh  Rh247  1  0.00871788  0.59515699  0.20022397  1
  Rh  Rh248  1  0.39673696  0.19564641  0.00593458  1
  Rh  Rh249  1  0.40293997  0.00349391  0.40904037  1
