# generated using pymatgen
data_ZrScNbPdRh
_symmetry_space_group_name_H-M   'P 1'
_cell_length_a   16.55826341
_cell_length_b   16.56258931
_cell_length_c   16.56010498
_cell_angle_alpha   89.99844128
_cell_angle_beta   90.00212948
_cell_angle_gamma   90.01517320
_symmetry_Int_Tables_number   1
_chemical_formula_structural   ZrScNbPdRh
_chemical_formula_sum   'Zr50 Sc50 Nb50 Pd50 Rh50'
_cell_volume   4541.57081210
_cell_formula_units_Z   50
loop_
 _symmetry_equiv_pos_site_id
 _symmetry_equiv_pos_as_xyz
  1  'x, y, z'
loop_
 _atom_site_type_symbol
 _atom_site_label
 _atom_site_symmetry_multiplicity
 _atom_site_fract_x
 _atom_site_fract_y
 _atom_site_fract_z
 _atom_site_occupancy
  Zr  Zr0  1  0.30495996  0.70169973  0.50019235  1
  Zr  Zr1  1  0.30104095  0.50258668  0.90275840  1
  Zr  Zr2  1  0.69838296  0.69911423  0.10372332  1
  Zr  Zr3  1  0.91215284  0.49677811  0.09157379  1
  Zr  Zr4  1  0.90021368  0.90534926  0.30841296  1
  Zr  Zr5  1  0.09214849  0.69311789  0.50008855  1
  Zr  Zr6  1  0.50805504  0.09085482  0.29916117  1
  Zr  Zr7  1  0.49798146  0.90172439  0.10786301  1
  Zr  Zr8  1  0.70098324  0.30130549  0.69190442  1
  Zr  Zr9  1  0.30488876  0.29827512  0.89498804  1
  Zr  Zr10  1  0.28956670  0.49610349  0.10623702  1
  Zr  Zr11  1  0.69287439  0.29343700  0.90278170  1
  Zr  Zr12  1  0.29817187  0.89787371  0.10419511  1
  Zr  Zr13  1  0.09591802  0.70004477  0.30218331  1
  Zr  Zr14  1  0.90131533  0.10245516  0.90896967  1
  Zr  Zr15  1  0.90631928  0.30011774  0.69816588  1
  Zr  Zr16  1  0.69707857  0.70382258  0.68623453  1
  Zr  Zr17  1  0.90614314  0.29286924  0.90517855  1
  Zr  Zr18  1  0.89978405  0.70241697  0.09435065  1
  Zr  Zr19  1  0.49579936  0.30549818  0.90626009  1
  Zr  Zr20  1  0.90052285  0.89700497  0.69337034  1
  Zr  Zr21  1  0.29732484  0.30107232  0.69394316  1
  Zr  Zr22  1  0.70233425  0.30253725  0.49196438  1
  Zr  Zr23  1  0.70062418  0.50123776  0.89974760  1
  Zr  Zr24  1  0.50095491  0.70043448  0.50642651  1
  Zr  Zr25  1  0.68791235  0.09999068  0.70482776  1
  Zr  Zr26  1  0.89410167  0.71531490  0.50390084  1
  Zr  Zr27  1  0.89548197  0.10465997  0.10786542  1
  Zr  Zr28  1  0.69978705  0.09850838  0.90005045  1
  Zr  Zr29  1  0.09638432  0.10315577  0.90038336  1
  Zr  Zr30  1  0.09645675  0.10210323  0.10362883  1
  Zr  Zr31  1  0.30573267  0.89275229  0.30031603  1
  Zr  Zr32  1  0.29385432  0.69282381  0.70299102  1
  Zr  Zr33  1  0.49677243  0.69694995  0.10281004  1
  Zr  Zr34  1  0.10426292  0.09829501  0.49711763  1
  Zr  Zr35  1  0.49543824  0.30234643  0.10322581  1
  Zr  Zr36  1  0.89655490  0.89578729  0.89810331  1
  Zr  Zr37  1  0.10611145  0.49604854  0.28653595  1
  Zr  Zr38  1  0.29831473  0.90257074  0.50200385  1
  Zr  Zr39  1  0.89835509  0.91153942  0.50258966  1
  Zr  Zr40  1  0.69588984  0.90838828  0.70079358  1
  Zr  Zr41  1  0.90417355  0.70071100  0.89846883  1
  Zr  Zr42  1  0.50032618  0.89651246  0.50393370  1
  Zr  Zr43  1  0.69294907  0.49837800  0.48697595  1
  Zr  Zr44  1  0.49471035  0.69911280  0.69456806  1
  Zr  Zr45  1  0.30888942  0.30121462  0.29791066  1
  Zr  Zr46  1  0.29361343  0.69350442  0.09491585  1
  Zr  Zr47  1  0.90229101  0.49979850  0.70173247  1
  Zr  Zr48  1  0.30939151  0.30051696  0.09778874  1
  Zr  Zr49  1  0.49893858  0.09815436  0.69418520  1
  Sc  Sc50  1  0.49537190  0.30222064  0.49683704  1
  Sc  Sc51  1  0.30351849  0.09692415  0.10836360  1
  Sc  Sc52  1  0.90505829  0.10021641  0.69289783  1
  Sc  Sc53  1  0.69990839  0.09622523  0.10500433  1
  Sc  Sc54  1  0.70294078  0.50358840  0.68987323  1
  Sc  Sc55  1  0.10213772  0.30117047  0.69696143  1
  Sc  Sc56  1  0.10554844  0.09597313  0.29820558  1
  Sc  Sc57  1  0.69741991  0.50002119  0.11660057  1
  Sc  Sc58  1  0.69839836  0.90413176  0.90131299  1
  Sc  Sc59  1  0.70880703  0.89990447  0.50415326  1
  Sc  Sc60  1  0.47980065  0.69826354  0.90307580  1
  Sc  Sc61  1  0.09673943  0.90520823  0.10910024  1
  Sc  Sc62  1  0.69602941  0.90044604  0.09442437  1
  Sc  Sc63  1  0.29732173  0.10413931  0.30355860  1
  Sc  Sc64  1  0.71027927  0.70687952  0.90800678  1
  Sc  Sc65  1  0.50358711  0.09766396  0.10922723  1
  Sc  Sc66  1  0.09970213  0.49934204  0.50576099  1
  Sc  Sc67  1  0.70233029  0.91273464  0.30505795  1
  Sc  Sc68  1  0.10378458  0.28928932  0.29080092  1
  Sc  Sc69  1  0.89281554  0.49526406  0.29686802  1
  Sc  Sc70  1  0.10630630  0.70018404  0.89397595  1
  Sc  Sc71  1  0.10077964  0.30783895  0.09771994  1
  Sc  Sc72  1  0.49939681  0.90601954  0.69598304  1
  Sc  Sc73  1  0.10176176  0.90397375  0.69765492  1
  Sc  Sc74  1  0.90411904  0.70334610  0.70091676  1
  Sc  Sc75  1  0.29991154  0.10553441  0.49945694  1
  Sc  Sc76  1  0.69724161  0.29406836  0.10134735  1
  Sc  Sc77  1  0.49855834  0.10354080  0.50004995  1
  Sc  Sc78  1  0.89398885  0.29976785  0.50543147  1
  Sc  Sc79  1  0.49505518  0.29667070  0.69642543  1
  Sc  Sc80  1  0.70244619  0.10597515  0.30275784  1
  Sc  Sc81  1  0.29436294  0.91192492  0.70720511  1
  Sc  Sc82  1  0.90112591  0.69787964  0.31220379  1
  Sc  Sc83  1  0.10705607  0.29784668  0.50658569  1
  Sc  Sc84  1  0.10373223  0.10176462  0.69506982  1
  Sc  Sc85  1  0.90374176  0.29274284  0.10734007  1
  Sc  Sc86  1  0.90355685  0.51305638  0.90223383  1
  Sc  Sc87  1  0.10410500  0.29289572  0.90121968  1
  Sc  Sc88  1  0.51302710  0.49264465  0.29790384  1
  Sc  Sc89  1  0.70285925  0.09916177  0.50197815  1
  Sc  Sc90  1  0.10608417  0.50124860  0.69301232  1
  Sc  Sc91  1  0.30042534  0.10403178  0.88690565  1
  Sc  Sc92  1  0.09406462  0.90816606  0.49817389  1
  Sc  Sc93  1  0.89806583  0.90651387  0.10782522  1
  Sc  Sc94  1  0.29121067  0.70780471  0.89933300  1
  Sc  Sc95  1  0.50565009  0.10677336  0.88603491  1
  Sc  Sc96  1  0.90947155  0.50661445  0.50092878  1
  Sc  Sc97  1  0.30713896  0.29506929  0.49705939  1
  Sc  Sc98  1  0.30282753  0.10020711  0.69348100  1
  Sc  Sc99  1  0.29915826  0.49699355  0.69414162  1
  Nb  Nb100  1  0.29946194  0.50046479  0.29702973  1
  Nb  Nb101  1  0.70124832  0.49627639  0.30360369  1
  Nb  Nb102  1  0.10393383  0.70063957  0.09827417  1
  Nb  Nb103  1  0.30256069  0.69960663  0.30133359  1
  Nb  Nb104  1  0.89435435  0.10420799  0.30321625  1
  Nb  Nb105  1  0.10986194  0.89929786  0.89751699  1
  Nb  Nb106  1  0.10349607  0.89956647  0.29864150  1
  Nb  Nb107  1  0.48940557  0.49955710  0.50836661  1
  Nb  Nb108  1  0.49515554  0.89571567  0.90129659  1
  Nb  Nb109  1  0.49919449  0.49945700  0.90087657  1
  Nb  Nb110  1  0.10595217  0.70378972  0.69521318  1
  Nb  Nb111  1  0.90447587  0.09499548  0.49284862  1
  Nb  Nb112  1  0.50335657  0.29392407  0.30254088  1
  Nb  Nb113  1  0.49541179  0.70120436  0.30066138  1
  Nb  Nb114  1  0.49979217  0.50319290  0.69931362  1
  Nb  Nb115  1  0.10232693  0.50602722  0.09413003  1
  Nb  Nb116  1  0.49271024  0.49785938  0.09582068  1
  Nb  Nb117  1  0.70025599  0.70325272  0.49173311  1
  Nb  Nb118  1  0.70487392  0.32401796  0.31203679  1
  Nb  Nb119  1  0.69613848  0.68104427  0.30080622  1
  Nb  Nb120  1  0.30187514  0.49673584  0.49780119  1
  Nb  Nb121  1  0.29343093  0.90068703  0.90053070  1
  Nb  Nb122  1  0.49882712  0.89369846  0.29870356  1
  Nb  Nb123  1  0.89479105  0.29528198  0.30666062  1
  Nb  Nb124  1  0.09283996  0.49627288  0.91521268  1
  Nb  Nb125  1  0.80145727  0.39700067  0.80444026  1
  Nb  Nb126  1  0.19719767  0.79650087  0.59916346  1
  Nb  Nb127  1  0.60372984  0.79261903  0.39483538  1
  Nb  Nb128  1  -0.00117297  0.40270713  0.80445740  1
  Nb  Nb129  1  0.00142553  -0.00198585  0.80602642  1
  Nb  Nb130  1  0.59281101  0.59524780  -0.00252194  1
  Nb  Nb131  1  0.79226095  0.79474302  0.20850109  1
  Nb  Nb132  1  0.00657928  0.80287169  -0.00132285  1
  Nb  Nb133  1  0.59421868  0.60143676  0.80229561  1
  Nb  Nb134  1  0.59736419  0.40747321  0.79825281  1
  Nb  Nb135  1  0.40378468  -0.00724628  0.39666657  1
  Nb  Nb136  1  0.39764011  -0.00537703  -0.00876739  1
  Nb  Nb137  1  0.60179150  0.79442859  0.21143493  1
  Nb  Nb138  1  0.20309223  -0.00154085  -0.00359860  1
  Nb  Nb139  1  -0.00602387  0.19905133  0.39771281  1
  Nb  Nb140  1  0.20350343  0.40265444  0.39604408  1
  Nb  Nb141  1  0.79929024  0.20257507  0.79880895  1
  Nb  Nb142  1  0.80164531  0.39782365  -0.00270581  1
  Nb  Nb143  1  0.20723736  0.59523102  0.39674422  1
  Nb  Nb144  1  0.00360027  0.39154330  0.39555798  1
  Nb  Nb145  1  0.59309372  0.79520848  0.80182460  1
  Nb  Nb146  1  0.19756332  0.79611626  0.20603150  1
  Nb  Nb147  1  0.39957979  0.59645199  0.39644731  1
  Nb  Nb148  1  0.39832558  0.59672186  0.20571087  1
  Nb  Nb149  1  0.00579403  0.60091905  0.19225899  1
  Pd  Pd150  1  0.39550683  0.80342461  0.00310000  1
  Pd  Pd151  1  0.59147373  0.18992521  0.00599554  1
  Pd  Pd152  1  0.80026084  0.19085518  0.60119410  1
  Pd  Pd153  1  0.81145043  0.60184965  0.20019641  1
  Pd  Pd154  1  0.40400925  0.40086303  0.79335020  1
  Pd  Pd155  1  0.59713647  0.20300144  0.59114838  1
  Pd  Pd156  1  0.79178347  0.59088286  0.00906249  1
  Pd  Pd157  1  0.40343078  0.19295623  0.20596939  1
  Pd  Pd158  1  0.00666107  -0.00803628  -0.00265840  1
  Pd  Pd159  1  0.79225871  0.60365230  0.79516090  1
  Pd  Pd160  1  0.39758266  0.80505915  0.79338753  1
  Pd  Pd161  1  0.20409150  0.20272332  0.19305095  1
  Pd  Pd162  1  0.59874571  -0.00674969  0.40746843  1
  Pd  Pd163  1  0.79894501  -0.00256808  0.00639070  1
  Pd  Pd164  1  0.60819236  0.20770331  0.20890050  1
  Pd  Pd165  1  0.38707377  0.80868477  0.61421163  1
  Pd  Pd166  1  0.01001957  0.80542495  0.80117747  1
  Pd  Pd167  1  0.78977144  0.79670614  0.79370724  1
  Pd  Pd168  1  0.80369318  0.39499567  0.19194996  1
  Pd  Pd169  1  -0.00349850  0.60470536  0.60765698  1
  Pd  Pd170  1  0.60191000  0.20312199  0.39903219  1
  Pd  Pd171  1  0.80970513  0.00938759  0.79487991  1
  Pd  Pd172  1  -0.00265369  0.39918375  0.20440914  1
  Pd  Pd173  1  -0.00317357  0.79591288  0.19718454  1
  Pd  Pd174  1  0.40313002  0.00049020  0.80315119  1
  Pd  Pd175  1  0.78929243  0.20810308  0.20758662  1
  Pd  Pd176  1  0.59825404  0.39472076  0.19897088  1
  Pd  Pd177  1  0.19940556  0.19785263  0.79205781  1
  Pd  Pd178  1  0.80264255  0.59962146  0.58998175  1
  Pd  Pd179  1  0.01203992  0.59554227  0.79661535  1
  Pd  Pd180  1  0.19292434  0.59030564  0.80486747  1
  Pd  Pd181  1  0.18921086  0.40621773  0.80411561  1
  Pd  Pd182  1  0.58834021  0.59876178  0.40167989  1
  Pd  Pd183  1  0.58944918  0.00636159  -0.00361135  1
  Pd  Pd184  1  0.80708266  0.59585901  0.40563372  1
  Pd  Pd185  1  -0.00350355  0.00670842  0.20935893  1
  Pd  Pd186  1  0.20636245  0.19289968  0.00543995  1
  Pd  Pd187  1  0.39799583  0.59737258  0.79916286  1
  Pd  Pd188  1  0.80361971  0.40895512  0.59477788  1
  Pd  Pd189  1  0.60658417  0.40646742  0.00457361  1
  Pd  Pd190  1  0.60211979  0.59535827  0.59735434  1
  Pd  Pd191  1  0.40383665  0.18338792  -0.00212434  1
  Pd  Pd192  1  0.19207369  0.79687782  0.40328606  1
  Pd  Pd193  1  0.20708806  -0.00042234  0.39600509  1
  Pd  Pd194  1  0.00264543  0.19874419  0.59010195  1
  Pd  Pd195  1  0.40248615  0.40467274  0.39447701  1
  Pd  Pd196  1  0.00079124  0.80843481  0.40630709  1
  Pd  Pd197  1  0.20267984  0.39483596  -0.00375281  1
  Pd  Pd198  1  0.59366344  0.79114993  -0.00424335  1
  Pd  Pd199  1  0.59344352  0.40058409  0.59881111  1
  Rh  Rh200  1  0.20232307  -0.00714505  0.20076106  1
  Rh  Rh201  1  0.01024398  0.61372313  0.00026870  1
  Rh  Rh202  1  0.39924028  0.39972209  0.60346775  1
  Rh  Rh203  1  0.79052668  0.79631332  0.39016407  1
  Rh  Rh204  1  0.81306334  0.40814326  0.40810395  1
  Rh  Rh205  1  0.60647389  0.80655765  0.59729693  1
  Rh  Rh206  1  0.60023662  0.21279444  0.79314679  1
  Rh  Rh207  1  0.58909578  0.39998938  0.40361493  1
  Rh  Rh208  1  0.20362686  0.60501535  0.59157310  1
  Rh  Rh209  1  0.00390999  0.39886715  0.60077821  1
  Rh  Rh210  1  0.00256987  0.00730151  0.39174874  1
  Rh  Rh211  1  0.20555862  0.39808292  0.59003658  1
  Rh  Rh212  1  0.19894265  0.60935212  0.20456121  1
  Rh  Rh213  1  0.79663035  0.80362268  0.60226789  1
  Rh  Rh214  1  0.40881250  0.18929363  0.39340402  1
  Rh  Rh215  1  0.00124565  0.00154873  0.60611213  1
  Rh  Rh216  1  0.39271533  0.40546218  0.00032390  1
  Rh  Rh217  1  0.20509620  0.19958085  0.59952576  1
  Rh  Rh218  1  0.40943836  0.80011394  0.40310821  1
  Rh  Rh219  1  0.39657645  0.79060149  0.19397460  1
  Rh  Rh220  1  0.00712794  0.80219719  0.59660702  1
  Rh  Rh221  1  0.40158592  0.20481653  0.79481027  1
  Rh  Rh222  1  0.40858579  0.40381925  0.20448658  1
  Rh  Rh223  1  0.00502414  0.20360861  0.01304162  1
  Rh  Rh224  1  0.39827893  0.00501483  0.20711033  1
  Rh  Rh225  1  0.19213511  0.80893603  0.00966799  1
  Rh  Rh226  1  0.19667462  0.59865127  -0.00984003  1
  Rh  Rh227  1  0.20172003  0.80181243  0.78840873  1
  Rh  Rh228  1  0.39992397  0.20059573  0.59858037  1
  Rh  Rh229  1  0.20402952  0.38759267  0.20070067  1
  Rh  Rh230  1  0.39817487  0.00260476  0.59145133  1
  Rh  Rh231  1  0.60153308  0.00154881  0.59386185  1
  Rh  Rh232  1  0.19317355  0.20796133  0.40157971  1
  Rh  Rh233  1  0.79755449  -0.00316978  0.20228764  1
  Rh  Rh234  1  0.39368470  0.59430590  0.59813017  1
  Rh  Rh235  1  0.59047355  0.59874269  0.19671785  1
  Rh  Rh236  1  0.79973640  0.00655728  0.60275217  1
  Rh  Rh237  1  -0.00264037  0.39241066  -0.00359956  1
  Rh  Rh238  1  0.19314629  0.00811907  0.80440451  1
  Rh  Rh239  1  -0.00297542  0.19796910  0.79641721  1
  Rh  Rh240  1  0.59138852  -0.01224129  0.80698596  1
  Rh  Rh241  1  0.00710974  0.58219390  0.38610375  1
  Rh  Rh242  1  -0.00117705  0.19582816  0.20680815  1
  Rh  Rh243  1  0.19963956  -0.00293595  0.59774662  1
  Rh  Rh244  1  0.80112539  0.19854331  0.40347431  1
  Rh  Rh245  1  0.79812928  0.00819606  0.40206055  1
  Rh  Rh246  1  0.60694777  -0.00895712  0.19986869  1
  Rh  Rh247  1  0.39623049  0.59340503  0.00623752  1
  Rh  Rh248  1  0.80898755  0.81068500  0.00969962  1
  Rh  Rh249  1  0.79782883  0.20203539  -0.00052177  1
