# generated using pymatgen
data_ZrScNbPdRh
_symmetry_space_group_name_H-M   'P 1'
_cell_length_a   16.55963818
_cell_length_b   16.55828390
_cell_length_c   16.55773238
_cell_angle_alpha   90.03386633
_cell_angle_beta   89.98876630
_cell_angle_gamma   90.01002401
_symmetry_Int_Tables_number   1
_chemical_formula_structural   ZrScNbPdRh
_chemical_formula_sum   'Zr50 Sc50 Nb50 Pd50 Rh50'
_cell_volume   4540.11586495
_cell_formula_units_Z   50
loop_
 _symmetry_equiv_pos_site_id
 _symmetry_equiv_pos_as_xyz
  1  'x, y, z'
loop_
 _atom_site_type_symbol
 _atom_site_label
 _atom_site_symmetry_multiplicity
 _atom_site_fract_x
 _atom_site_fract_y
 _atom_site_fract_z
 _atom_site_occupancy
  Zr  Zr0  1  0.50244891  0.89441426  0.49475889  1
  Zr  Zr1  1  0.90163620  0.10765314  0.71095147  1
  Zr  Zr2  1  0.50333449  0.29653095  0.29714615  1
  Zr  Zr3  1  0.89948688  0.49582729  0.90088175  1
  Zr  Zr4  1  0.09866117  0.90218823  0.88951946  1
  Zr  Zr5  1  0.89974280  0.50101414  0.09350772  1
  Zr  Zr6  1  0.89812349  0.30557146  0.69817608  1
  Zr  Zr7  1  0.50528752  0.28490417  0.70270376  1
  Zr  Zr8  1  0.49583352  0.10032371  0.09915814  1
  Zr  Zr9  1  0.30873788  0.09181581  0.70514732  1
  Zr  Zr10  1  0.89813550  0.30564079  0.50056248  1
  Zr  Zr11  1  0.70258509  0.90320117  0.30361638  1
  Zr  Zr12  1  0.49641462  0.49765262  0.90148857  1
  Zr  Zr13  1  0.90249493  0.70036069  0.30370005  1
  Zr  Zr14  1  0.90938097  0.29971956  0.89565838  1
  Zr  Zr15  1  0.30171592  0.29782588  0.30598570  1
  Zr  Zr16  1  0.29359726  0.50551798  0.70295773  1
  Zr  Zr17  1  0.89438963  0.09224147  0.30027533  1
  Zr  Zr18  1  0.49460136  0.69910012  0.30368732  1
  Zr  Zr19  1  0.10043344  0.29847059  0.09215068  1
  Zr  Zr20  1  0.89472651  0.69743874  0.69852338  1
  Zr  Zr21  1  0.69962461  0.69061494  0.51118080  1
  Zr  Zr22  1  0.70089487  0.30036199  0.90612898  1
  Zr  Zr23  1  0.89827290  0.49760440  0.30402032  1
  Zr  Zr24  1  0.70081039  0.30131007  0.50363569  1
  Zr  Zr25  1  0.30056445  0.69404054  0.48668460  1
  Zr  Zr26  1  0.29933515  0.08757915  0.10105904  1
  Zr  Zr27  1  0.50742670  0.89508149  0.29625923  1
  Zr  Zr28  1  0.49483061  0.70380867  0.90007450  1
  Zr  Zr29  1  0.70712306  0.69715540  0.70145976  1
  Zr  Zr30  1  0.29656074  0.68885875  0.10301078  1
  Zr  Zr31  1  0.89893574  0.90143368  0.50446397  1
  Zr  Zr32  1  0.30116164  0.50270022  0.09707587  1
  Zr  Zr33  1  0.50412868  0.69874763  0.49200504  1
  Zr  Zr34  1  0.49438377  0.90917173  0.70510123  1
  Zr  Zr35  1  0.90917085  0.69608358  0.50447520  1
  Zr  Zr36  1  0.09732815  0.10331291  0.90236140  1
  Zr  Zr37  1  0.70512263  0.50513586  0.90039633  1
  Zr  Zr38  1  0.09339221  0.89559357  0.50364707  1
  Zr  Zr39  1  0.09789971  0.09204734  0.71214081  1
  Zr  Zr40  1  0.90210950  0.31049414  0.30159289  1
  Zr  Zr41  1  0.70626871  0.09705452  0.49408533  1
  Zr  Zr42  1  0.49448009  0.89890735  0.09363020  1
  Zr  Zr43  1  0.10104900  0.08747756  0.29627283  1
  Zr  Zr44  1  0.69692269  0.89713621  0.70709766  1
  Zr  Zr45  1  0.49198104  0.30146473  0.89810925  1
  Zr  Zr46  1  0.70439897  0.50527836  0.69203686  1
  Zr  Zr47  1  0.70118892  0.10031426  0.28943344  1
  Zr  Zr48  1  0.29824777  0.30182397  0.50502241  1
  Zr  Zr49  1  0.09502056  0.09500587  0.49791765  1
  Sc  Sc50  1  0.89549541  0.30566692  0.09496380  1
  Sc  Sc51  1  0.30017035  0.89742241  0.49490351  1
  Sc  Sc52  1  0.69897988  0.49283680  0.31014512  1
  Sc  Sc53  1  0.69495334  0.10025155  0.70419223  1
  Sc  Sc54  1  0.90480343  0.89280115  0.69844221  1
  Sc  Sc55  1  0.70286101  0.70881538  0.90195514  1
  Sc  Sc56  1  0.29591321  0.10650972  0.29306499  1
  Sc  Sc57  1  0.89633082  0.90226833  0.10612042  1
  Sc  Sc58  1  0.09503270  0.30627562  0.50481736  1
  Sc  Sc59  1  0.29760615  0.10310517  0.49194954  1
  Sc  Sc60  1  0.10409766  0.70462676  0.69190598  1
  Sc  Sc61  1  0.50201451  0.70326667  0.09291137  1
  Sc  Sc62  1  0.09148481  0.90490564  0.10831703  1
  Sc  Sc63  1  0.89404076  0.70639194  0.90011125  1
  Sc  Sc64  1  0.49894183  0.69815711  0.70388191  1
  Sc  Sc65  1  0.29733903  0.69866311  0.70814233  1
  Sc  Sc66  1  0.69973992  0.29926564  0.69932675  1
  Sc  Sc67  1  0.10699399  0.30255344  0.29540834  1
  Sc  Sc68  1  0.88341399  0.10407100  0.10103171  1
  Sc  Sc69  1  0.89713091  0.71362610  0.09654944  1
  Sc  Sc70  1  0.69883122  0.89991325  0.50776286  1
  Sc  Sc71  1  0.29894538  0.09385559  0.90765135  1
  Sc  Sc72  1  0.50736190  0.29329454  0.09426796  1
  Sc  Sc73  1  0.49882361  0.49141733  0.70279826  1
  Sc  Sc74  1  0.10832094  0.49713456  0.09866618  1
  Sc  Sc75  1  0.50814738  0.50265542  0.30220593  1
  Sc  Sc76  1  0.30451531  0.89697642  0.89945577  1
  Sc  Sc77  1  0.71739234  0.10021844  0.89622516  1
  Sc  Sc78  1  0.30696342  0.51832145  0.29758635  1
  Sc  Sc79  1  0.50015748  0.50119811  0.09641623  1
  Sc  Sc80  1  0.11296690  0.49107093  0.89828943  1
  Sc  Sc81  1  0.89806184  0.49866808  0.70002735  1
  Sc  Sc82  1  0.50243176  0.09865664  0.51450423  1
  Sc  Sc83  1  0.89758664  0.09711707  0.50524387  1
  Sc  Sc84  1  0.69546694  0.71045558  0.29847500  1
  Sc  Sc85  1  0.89499294  0.89949821  0.89596749  1
  Sc  Sc86  1  0.29535636  0.91175708  0.29350985  1
  Sc  Sc87  1  0.09123314  0.49617205  0.30439765  1
  Sc  Sc88  1  0.70324304  0.30210290  0.29486614  1
  Sc  Sc89  1  0.08711210  0.31067902  0.70271709  1
  Sc  Sc90  1  0.31080952  0.30847815  0.69961636  1
  Sc  Sc91  1  0.30228760  0.68859162  0.89736658  1
  Sc  Sc92  1  0.70314003  0.49290366  0.08913318  1
  Sc  Sc93  1  0.49657415  0.89572378  0.89890419  1
  Sc  Sc94  1  0.90409089  0.90182832  0.29364414  1
  Sc  Sc95  1  0.50092423  0.29690435  0.50991772  1
  Sc  Sc96  1  0.29491899  0.29149461  0.10211859  1
  Sc  Sc97  1  0.49092940  0.09958491  0.89520219  1
  Sc  Sc98  1  0.70267423  0.70815150  0.09425337  1
  Sc  Sc99  1  0.69873511  0.89603050  0.10813672  1
  Nb  Nb100  1  0.70187625  0.28120627  0.09965144  1
  Nb  Nb101  1  0.09391531  0.70398244  0.29704005  1
  Nb  Nb102  1  0.29624209  0.30743596  0.89859853  1
  Nb  Nb103  1  0.30552011  0.49503602  0.89317640  1
  Nb  Nb104  1  0.11061928  0.89850642  0.70161721  1
  Nb  Nb105  1  0.50840771  0.50781889  0.49729992  1
  Nb  Nb106  1  0.09935866  0.69952670  0.90388878  1
  Nb  Nb107  1  0.10452541  0.51553885  0.50959149  1
  Nb  Nb108  1  0.49962575  0.09697205  0.70514518  1
  Nb  Nb109  1  0.29577505  0.89620692  0.70077618  1
  Nb  Nb110  1  0.69096261  0.90689167  0.89671876  1
  Nb  Nb111  1  0.09466377  0.90016570  0.29809458  1
  Nb  Nb112  1  0.49869143  0.09809139  0.29592084  1
  Nb  Nb113  1  0.09995112  0.29852625  0.90124509  1
  Nb  Nb114  1  0.30075850  0.89543355  0.09673971  1
  Nb  Nb115  1  0.10068201  0.51213370  0.69836989  1
  Nb  Nb116  1  0.90333316  0.50144203  0.48955529  1
  Nb  Nb117  1  0.69900578  0.11148028  0.09626152  1
  Nb  Nb118  1  0.90524261  0.10076700  0.89680698  1
  Nb  Nb119  1  0.29827277  0.50172772  0.50450750  1
  Nb  Nb120  1  0.09789319  0.69304750  0.49615698  1
  Nb  Nb121  1  0.69497101  0.50208916  0.50305358  1
  Nb  Nb122  1  0.10095977  0.69682893  0.09803715  1
  Nb  Nb123  1  0.09935931  0.10274675  0.10033733  1
  Nb  Nb124  1  0.30154705  0.70455349  0.29741517  1
  Nb  Nb125  1  0.39989430  0.59922243  0.59309976  1
  Nb  Nb126  1  0.40861775  0.00470254  0.39270982  1
  Nb  Nb127  1  0.60263734  0.59839291  0.80353024  1
  Nb  Nb128  1  0.60761051  0.60093872  0.19766426  1
  Nb  Nb129  1  0.39938398  0.40581745  0.40436479  1
  Nb  Nb130  1  0.19990898  0.20781021  0.80310485  1
  Nb  Nb131  1  0.19632637  0.79715838  0.20023765  1
  Nb  Nb132  1  0.60636795  0.00268901  -0.00249359  1
  Nb  Nb133  1  0.00640197  0.60120065  0.80384349  1
  Nb  Nb134  1  0.20595512  0.41046459  0.40882143  1
  Nb  Nb135  1  0.19945511  -0.00308116  0.60618067  1
  Nb  Nb136  1  0.59887973  0.19418561  0.39651269  1
  Nb  Nb137  1  0.00603525  0.60473474  -0.00177914  1
  Nb  Nb138  1  -0.00184795  0.60483562  0.19542927  1
  Nb  Nb139  1  0.19551314  0.79559713  0.00513440  1
  Nb  Nb140  1  0.80322303  0.79810032  0.40637749  1
  Nb  Nb141  1  0.80016731  0.59997865  0.19956824  1
  Nb  Nb142  1  -0.00400600  0.00822285  -0.00260524  1
  Nb  Nb143  1  0.19702884  0.19476704  0.61045659  1
  Nb  Nb144  1  0.39745213  0.79770040  0.59956627  1
  Nb  Nb145  1  0.39094059  0.79897367  0.19870082  1
  Nb  Nb146  1  -0.00243921  0.19980350  0.39381516  1
  Nb  Nb147  1  0.19108307  0.79619851  0.39021374  1
  Nb  Nb148  1  0.40102913  0.39887273  0.20487105  1
  Nb  Nb149  1  0.00000412  0.19830381  0.20070235  1
  Pd  Pd150  1  0.79863752  -0.00360035  0.00391412  1
  Pd  Pd151  1  0.18992993  -0.01149767  0.00348365  1
  Pd  Pd152  1  0.38935952  0.20112600  0.80524347  1
  Pd  Pd153  1  0.60002653  0.40416730  0.19049511  1
  Pd  Pd154  1  0.00427889  0.19808599  0.59799574  1
  Pd  Pd155  1  0.00106003  -0.00254137  0.61108608  1
  Pd  Pd156  1  0.20624939  0.40019459  0.00133036  1
  Pd  Pd157  1  -0.00285377  0.80558554  0.40026201  1
  Pd  Pd158  1  0.20579028  0.79753717  0.58949383  1
  Pd  Pd159  1  -0.00975799  0.19530535  0.00967572  1
  Pd  Pd160  1  0.80056507  0.20402322  0.39429865  1
  Pd  Pd161  1  0.20787935  0.19863974  -0.00409785  1
  Pd  Pd162  1  0.79466079  0.81384458  -0.00307836  1
  Pd  Pd163  1  0.60349707  0.00215615  0.60386883  1
  Pd  Pd164  1  0.39507210  0.39174353  0.01075488  1
  Pd  Pd165  1  0.19665994  0.39537360  0.79103231  1
  Pd  Pd166  1  0.59230892  0.79845509  0.60681978  1
  Pd  Pd167  1  0.20477433  -0.00698050  0.40431570  1
  Pd  Pd168  1  0.39362031  0.19343072  0.59990936  1
  Pd  Pd169  1  0.40809826  0.40783033  0.59605374  1
  Pd  Pd170  1  0.60516127  0.40355485  0.79840869  1
  Pd  Pd171  1  0.60087718  0.39602541  0.00428182  1
  Pd  Pd172  1  0.79492833  0.39667860  0.79908809  1
  Pd  Pd173  1  0.59700252  0.39957127  0.60254487  1
  Pd  Pd174  1  0.18762477  0.20826940  0.40710669  1
  Pd  Pd175  1  -0.00282648  0.41476777  0.59578123  1
  Pd  Pd176  1  0.59571349  0.00707957  0.40255156  1
  Pd  Pd177  1  0.19369366  0.39631761  0.60416474  1
  Pd  Pd178  1  0.59745765  0.79385805  0.79994266  1
  Pd  Pd179  1  0.19305292  0.59903063  0.39001204  1
  Pd  Pd180  1  0.41022864  0.19585029  0.40648289  1
  Pd  Pd181  1  0.60530812  0.19258994  0.80894745  1
  Pd  Pd182  1  0.00090524  0.79333036  0.79341150  1
  Pd  Pd183  1  0.21020980  0.40838286  0.21094507  1
  Pd  Pd184  1  0.80508241  -0.00464890  0.79337645  1
  Pd  Pd185  1  0.39915784  0.20423510  0.19328306  1
  Pd  Pd186  1  0.79196928  0.40325159  0.19374764  1
  Pd  Pd187  1  0.39288803  -0.00572638  0.58991410  1
  Pd  Pd188  1  0.79878091  0.00184571  0.61186187  1
  Pd  Pd189  1  0.39993450  0.60033955  -0.00145218  1
  Pd  Pd190  1  0.18880324  0.59766565  0.20965393  1
  Pd  Pd191  1  0.79173202  0.60519986  0.39688801  1
  Pd  Pd192  1  0.59732217  0.18906636  -0.01404849  1
  Pd  Pd193  1  0.60430049  0.60459257  -0.00016427  1
  Pd  Pd194  1  0.00392997  0.80778106  0.00241471  1
  Pd  Pd195  1  0.79681226  0.19653048  0.60660595  1
  Pd  Pd196  1  0.00408167  0.40007221  0.19152543  1
  Pd  Pd197  1  0.20479306  0.79365108  0.81044506  1
  Pd  Pd198  1  0.60269999  0.00286068  0.18802917  1
  Pd  Pd199  1  0.59479604  0.39032893  0.40583151  1
  Rh  Rh200  1  0.79979952  0.80047185  0.59616000  1
  Rh  Rh201  1  0.39759948  -0.00619014  0.80678564  1
  Rh  Rh202  1  0.20813767  0.61060077  0.60251247  1
  Rh  Rh203  1  0.19246086  0.60102855  0.80379987  1
  Rh  Rh204  1  0.79661812  0.80585924  0.80087946  1
  Rh  Rh205  1  0.59594264  0.00741002  0.80834296  1
  Rh  Rh206  1  0.40648444  -0.00092474  -0.00319273  1
  Rh  Rh207  1  0.39370624  0.20289939  -0.00260883  1
  Rh  Rh208  1  0.40346697  0.59055598  0.40424650  1
  Rh  Rh209  1  0.80318788  0.79796724  0.21087039  1
  Rh  Rh210  1  0.81169694  0.58901266  0.59086680  1
  Rh  Rh211  1  0.01247052  0.40116856  0.40997918  1
  Rh  Rh212  1  0.58970506  0.79123405  0.19425712  1
  Rh  Rh213  1  0.80500794  -0.01111896  0.40119934  1
  Rh  Rh214  1  0.00606839  0.20662126  0.79854077  1
  Rh  Rh215  1  0.00655763  0.59494031  0.39718036  1
  Rh  Rh216  1  0.00449261  0.79669728  0.60453405  1
  Rh  Rh217  1  0.80159908  0.40750035  0.59297668  1
  Rh  Rh218  1  0.40789118  0.59301819  0.79433026  1
  Rh  Rh219  1  0.39562318  0.80161663  0.79395090  1
  Rh  Rh220  1  0.58883128  0.59536596  0.61216862  1
  Rh  Rh221  1  0.00675092  0.40630937  -0.00309027  1
  Rh  Rh222  1  0.00136373  0.79575036  0.19519982  1
  Rh  Rh223  1  0.61566261  0.79469238  0.40941172  1
  Rh  Rh224  1  0.60847371  0.60413309  0.39069104  1
  Rh  Rh225  1  0.79412060  0.40332193  0.41006606  1
  Rh  Rh226  1  -0.00395813  0.59746377  0.60660514  1
  Rh  Rh227  1  0.19366519  0.19463758  0.19632312  1
  Rh  Rh228  1  0.20909529  0.00201559  0.79972425  1
  Rh  Rh229  1  0.79322297  -0.00165812  0.19331964  1
  Rh  Rh230  1  0.59940247  0.19844248  0.20398725  1
  Rh  Rh231  1  0.60629309  0.19190563  0.59816183  1
  Rh  Rh232  1  0.79689238  0.39037886  0.00007104  1
  Rh  Rh233  1  0.80796252  0.20789213  0.20401202  1
  Rh  Rh234  1  0.41543071  0.60111715  0.19712385  1
  Rh  Rh235  1  0.80671160  0.20361748  -0.00793720  1
  Rh  Rh236  1  0.38888168  0.81626536  0.39039429  1
  Rh  Rh237  1  -0.00861774  -0.00816477  0.80205565  1
  Rh  Rh238  1  0.80183804  0.60260667  0.80754259  1
  Rh  Rh239  1  0.80832475  0.60791101  0.00371135  1
  Rh  Rh240  1  -0.00610126  0.00204621  0.39915722  1
  Rh  Rh241  1  0.00614824  0.41158912  0.80286480  1
  Rh  Rh242  1  -0.00553153  0.01095245  0.18891602  1
  Rh  Rh243  1  0.40116415  0.39932496  0.79762032  1
  Rh  Rh244  1  0.19801458  -0.00415038  0.19352975  1
  Rh  Rh245  1  0.19976232  0.59792557  -0.01052963  1
  Rh  Rh246  1  0.40043044  -0.00633120  0.20441708  1
  Rh  Rh247  1  0.80118410  0.20702883  0.80030316  1
  Rh  Rh248  1  0.60405554  0.81083083  -0.00236280  1
  Rh  Rh249  1  0.38720891  0.79208792  0.00405660  1
