# generated using pymatgen
data_ZrScNbPdRh
_symmetry_space_group_name_H-M   'P 1'
_cell_length_a   16.55220715
_cell_length_b   16.55553942
_cell_length_c   16.55662288
_cell_angle_alpha   89.98286272
_cell_angle_beta   90.01514623
_cell_angle_gamma   89.98991711
_symmetry_Int_Tables_number   1
_chemical_formula_structural   ZrScNbPdRh
_chemical_formula_sum   'Zr50 Sc50 Nb50 Pd50 Rh50'
_cell_volume   4537.02282292
_cell_formula_units_Z   50
loop_
 _symmetry_equiv_pos_site_id
 _symmetry_equiv_pos_as_xyz
  1  'x, y, z'
loop_
 _atom_site_type_symbol
 _atom_site_label
 _atom_site_symmetry_multiplicity
 _atom_site_fract_x
 _atom_site_fract_y
 _atom_site_fract_z
 _atom_site_occupancy
  Zr  Zr0  1  0.09463126  0.89695835  0.49806530  1
  Zr  Zr1  1  0.09802148  0.30070957  0.48867441  1
  Zr  Zr2  1  0.70083340  0.09450077  0.10295307  1
  Zr  Zr3  1  0.29634069  0.09903083  0.29275814  1
  Zr  Zr4  1  0.89955551  0.10315771  0.09591351  1
  Zr  Zr5  1  0.09739743  0.89558955  0.69046792  1
  Zr  Zr6  1  0.48845752  0.30517640  0.09759171  1
  Zr  Zr7  1  0.29200868  0.90153602  0.50103029  1
  Zr  Zr8  1  0.90620880  0.29743891  0.30815263  1
  Zr  Zr9  1  0.30493800  0.31622967  0.49838503  1
  Zr  Zr10  1  0.69910881  0.50937267  0.89811657  1
  Zr  Zr11  1  0.49920574  0.10028740  0.31284457  1
  Zr  Zr12  1  0.89506546  0.50204674  0.49424987  1
  Zr  Zr13  1  0.10559834  0.50767978  0.48939845  1
  Zr  Zr14  1  0.09667080  0.29664058  0.89819774  1
  Zr  Zr15  1  0.29322752  0.09950527  0.70256645  1
  Zr  Zr16  1  0.49369958  0.10058327  0.10301315  1
  Zr  Zr17  1  0.89769786  0.10508014  0.29642909  1
  Zr  Zr18  1  0.70783121  0.29936499  0.49849317  1
  Zr  Zr19  1  0.30377259  0.89902617  0.89841725  1
  Zr  Zr20  1  0.90526867  0.50638149  0.10607342  1
  Zr  Zr21  1  0.10196616  0.30170071  0.70218718  1
  Zr  Zr22  1  0.30617532  0.29235285  0.10804174  1
  Zr  Zr23  1  0.69574345  0.50403070  0.69676640  1
  Zr  Zr24  1  0.89376448  0.09793859  0.50656626  1
  Zr  Zr25  1  0.09773133  0.69809192  0.11015496  1
  Zr  Zr26  1  0.09763292  0.90551389  0.10272545  1
  Zr  Zr27  1  0.90402303  0.30231539  0.10437783  1
  Zr  Zr28  1  0.51113012  0.10086191  0.70352494  1
  Zr  Zr29  1  0.88940603  0.70953161  0.89817200  1
  Zr  Zr30  1  0.90554673  0.70974211  0.69483333  1
  Zr  Zr31  1  0.30291024  0.70032004  0.10753731  1
  Zr  Zr32  1  0.69750226  0.89652402  0.29883982  1
  Zr  Zr33  1  0.29305778  0.49870583  0.30883724  1
  Zr  Zr34  1  0.50374425  0.89563770  0.89612368  1
  Zr  Zr35  1  0.70102497  0.29872462  0.30894437  1
  Zr  Zr36  1  0.29883380  0.50589596  0.89422460  1
  Zr  Zr37  1  0.11119845  0.50291684  0.70495281  1
  Zr  Zr38  1  0.50415471  0.09302879  0.90430702  1
  Zr  Zr39  1  0.70251769  0.50017813  0.50374400  1
  Zr  Zr40  1  0.10406056  0.49578932  0.89924469  1
  Zr  Zr41  1  0.09068650  0.49609053  0.10102754  1
  Zr  Zr42  1  0.09559303  0.90569455  0.29830664  1
  Zr  Zr43  1  0.50120624  0.68917556  0.10214859  1
  Zr  Zr44  1  0.50206346  0.29452321  0.49342742  1
  Zr  Zr45  1  0.89581888  0.09619885  0.70346006  1
  Zr  Zr46  1  0.10689865  0.69670974  0.30856773  1
  Zr  Zr47  1  0.69915701  0.50174537  0.31507285  1
  Zr  Zr48  1  0.90066504  0.50683794  0.30005242  1
  Zr  Zr49  1  0.89457165  0.28743932  0.70137102  1
  Sc  Sc50  1  0.50115247  0.90066001  0.09339331  1
  Sc  Sc51  1  0.70167476  0.70035921  0.29566437  1
  Sc  Sc52  1  0.09675093  0.29831427  0.09491112  1
  Sc  Sc53  1  0.89656013  0.51265568  0.91036690  1
  Sc  Sc54  1  0.30984147  0.49198844  0.69582832  1
  Sc  Sc55  1  0.09540501  0.50296622  0.30086300  1
  Sc  Sc56  1  0.30302067  0.29538310  0.30413083  1
  Sc  Sc57  1  0.10368825  0.09208737  0.10370881  1
  Sc  Sc58  1  0.70826051  0.29993870  0.09202857  1
  Sc  Sc59  1  0.49721586  0.70178738  0.51062486  1
  Sc  Sc60  1  0.49786009  0.89661599  0.49941050  1
  Sc  Sc61  1  0.09793744  0.09532378  0.71108391  1
  Sc  Sc62  1  0.50527116  0.49996527  0.50400500  1
  Sc  Sc63  1  0.69339398  0.90016899  0.69981073  1
  Sc  Sc64  1  0.70455870  0.09760955  0.69684255  1
  Sc  Sc65  1  0.69458769  0.88942797  0.90291326  1
  Sc  Sc66  1  0.70080178  0.69858649  0.49825486  1
  Sc  Sc67  1  0.30437580  0.70957560  0.49893515  1
  Sc  Sc68  1  0.50137335  0.50307221  0.69804094  1
  Sc  Sc69  1  0.10122195  0.69552010  0.89402345  1
  Sc  Sc70  1  0.30003956  0.29937049  0.91278920  1
  Sc  Sc71  1  0.70298179  0.30025340  0.90063271  1
  Sc  Sc72  1  0.89462516  0.70186286  0.29767880  1
  Sc  Sc73  1  0.90340048  0.69874332  0.49535674  1
  Sc  Sc74  1  0.09684657  0.91199716  0.89841019  1
  Sc  Sc75  1  0.30242135  0.89437999  0.29974906  1
  Sc  Sc76  1  0.29321777  0.89991618  0.69814999  1
  Sc  Sc77  1  0.49600818  0.90043884  0.29589505  1
  Sc  Sc78  1  0.50619366  0.89008924  0.70138267  1
  Sc  Sc79  1  0.69298365  0.90015704  0.50013455  1
  Sc  Sc80  1  0.69093932  0.89748739  0.10127607  1
  Sc  Sc81  1  0.90371202  0.90964249  0.70155658  1
  Sc  Sc82  1  0.69964977  0.29604971  0.70077761  1
  Sc  Sc83  1  0.90005724  0.89457273  0.30342318  1
  Sc  Sc84  1  0.69668471  0.70716283  0.09701640  1
  Sc  Sc85  1  0.29967019  0.09861134  0.48764666  1
  Sc  Sc86  1  0.69789434  0.50357451  0.08897872  1
  Sc  Sc87  1  0.09980849  0.09156071  0.48884495  1
  Sc  Sc88  1  0.31066172  0.69338475  0.70288568  1
  Sc  Sc89  1  0.50009601  0.70196735  0.89871065  1
  Sc  Sc90  1  0.89139521  0.51233874  0.68676256  1
  Sc  Sc91  1  0.31261532  0.69821522  0.89890192  1
  Sc  Sc92  1  0.29638701  0.09777406  0.09823550  1
  Sc  Sc93  1  0.49985559  0.49750659  0.90760161  1
  Sc  Sc94  1  0.49113810  0.30266496  0.30119781  1
  Sc  Sc95  1  0.50193719  0.30933119  0.70395884  1
  Sc  Sc96  1  0.90777336  0.90490214  0.11066822  1
  Sc  Sc97  1  0.31250617  0.49326444  0.09811736  1
  Sc  Sc98  1  0.69730795  0.69890614  0.70155365  1
  Sc  Sc99  1  0.89695909  0.28080759  0.90382229  1
  Nb  Nb100  1  0.69754119  0.09907177  0.30419640  1
  Nb  Nb101  1  0.49729251  0.29200929  0.90472152  1
  Nb  Nb102  1  0.49692463  0.69963952  0.29564734  1
  Nb  Nb103  1  0.69764789  0.70125749  0.90262716  1
  Nb  Nb104  1  0.68857193  0.10045851  0.49221108  1
  Nb  Nb105  1  0.90296722  0.90372367  0.90253823  1
  Nb  Nb106  1  0.90649993  0.70098709  0.10062083  1
  Nb  Nb107  1  0.28944696  0.90087824  0.09516236  1
  Nb  Nb108  1  0.50594091  0.50457317  0.29384602  1
  Nb  Nb109  1  0.30328138  0.50736955  0.50132620  1
  Nb  Nb110  1  0.10098634  0.29539914  0.29678429  1
  Nb  Nb111  1  0.29194730  0.09684193  0.89575074  1
  Nb  Nb112  1  0.50344534  0.09864299  0.50115507  1
  Nb  Nb113  1  0.70112196  0.09678559  0.89913354  1
  Nb  Nb114  1  0.50342419  0.70245781  0.69622888  1
  Nb  Nb115  1  0.90228170  0.29543391  0.50154150  1
  Nb  Nb116  1  0.89440103  0.90436217  0.50122639  1
  Nb  Nb117  1  0.30812651  0.69978744  0.29990093  1
  Nb  Nb118  1  0.10401216  0.10565062  0.29946587  1
  Nb  Nb119  1  0.30533097  0.29820487  0.69130301  1
  Nb  Nb120  1  0.50163525  0.49648666  0.10313499  1
  Nb  Nb121  1  0.10314666  0.70512013  0.50924155  1
  Nb  Nb122  1  0.10180707  0.09890172  0.89946236  1
  Nb  Nb123  1  0.90342174  0.09133770  0.89391384  1
  Nb  Nb124  1  0.10044851  0.70314073  0.69369337  1
  Nb  Nb125  1  0.59365692  0.79501363  0.39420659  1
  Nb  Nb126  1  0.19715860  0.79808629  -0.00013149  1
  Nb  Nb127  1  0.40270800  0.60331086  0.39455193  1
  Nb  Nb128  1  0.19700194  0.39466709  0.20295199  1
  Nb  Nb129  1  0.19802727  0.79655871  0.80026082  1
  Nb  Nb130  1  -0.01214805  0.40576096  0.79508658  1
  Nb  Nb131  1  -0.00190965  0.39749432  0.59935704  1
  Nb  Nb132  1  0.80528811  0.40526144  0.79980952  1
  Nb  Nb133  1  0.00439946  0.20173463  0.59730780  1
  Nb  Nb134  1  0.20204987  0.60397398  0.59674137  1
  Nb  Nb135  1  0.40367830  0.00808888  0.60260930  1
  Nb  Nb136  1  0.20103859  0.60228657  0.00301864  1
  Nb  Nb137  1  0.39945013  0.19717630  0.60199484  1
  Nb  Nb138  1  0.79211572  0.00360096  0.39995424  1
  Nb  Nb139  1  0.40041285  0.00494988  0.79700576  1
  Nb  Nb140  1  0.20147826  0.20447342  0.59811662  1
  Nb  Nb141  1  0.39829488  0.19772496  0.80109472  1
  Nb  Nb142  1  0.80457786  -0.00154701  -0.00635158  1
  Nb  Nb143  1  0.79829256  0.40300015  0.20383574  1
  Nb  Nb144  1  0.60094300  0.40122150  0.19925406  1
  Nb  Nb145  1  -0.00023157  0.60059495  0.79418365  1
  Nb  Nb146  1  -0.00047712  0.79998724  0.00061980  1
  Nb  Nb147  1  0.59744474  0.19698155  0.00324608  1
  Nb  Nb148  1  0.80378122  0.80610845  0.59677926  1
  Nb  Nb149  1  0.59964713  0.20300928  0.19973719  1
  Pd  Pd150  1  0.00743709  0.59370375  0.59972866  1
  Pd  Pd151  1  0.59325722  0.00347467  0.20465515  1
  Pd  Pd152  1  0.40007106  0.79765487  0.00733136  1
  Pd  Pd153  1  0.00767505  0.19632877  0.19521089  1
  Pd  Pd154  1  0.59955685  0.20610222  0.60059351  1
  Pd  Pd155  1  0.00629426  0.18986285  -0.00043705  1
  Pd  Pd156  1  0.60593399  0.39952776  0.80692680  1
  Pd  Pd157  1  0.40925811  0.41264545  0.39818366  1
  Pd  Pd158  1  0.20145275  0.80182268  0.39727113  1
  Pd  Pd159  1  0.19593364  0.40483417  0.59466543  1
  Pd  Pd160  1  0.79118195  0.59695403  0.19435159  1
  Pd  Pd161  1  0.79020922  -0.00989558  0.80664996  1
  Pd  Pd162  1  0.21175443  0.38957582  0.80214188  1
  Pd  Pd163  1  0.00686910  0.80010381  0.80753133  1
  Pd  Pd164  1  0.39441853  -0.00700839  0.19563331  1
  Pd  Pd165  1  0.39905551  -0.00596414  0.40551508  1
  Pd  Pd166  1  0.79638746  0.60864746  0.00905482  1
  Pd  Pd167  1  0.41149821  0.59837445  0.79734516  1
  Pd  Pd168  1  0.59874391  0.39272248  0.00191772  1
  Pd  Pd169  1  0.20574698  0.40425168  0.01063788  1
  Pd  Pd170  1  -0.01257508  0.39678862  -0.01247047  1
  Pd  Pd171  1  0.80243101  0.80270889  0.19184788  1
  Pd  Pd172  1  0.80721330  0.81124746  0.01158927  1
  Pd  Pd173  1  0.20626989  0.20890751  0.79934952  1
  Pd  Pd174  1  0.61066735  0.59614869  0.19706322  1
  Pd  Pd175  1  0.80436721  0.60107693  0.79523216  1
  Pd  Pd176  1  0.39869933  0.39352805  0.80721908  1
  Pd  Pd177  1  0.19897182  0.80499040  0.20166319  1
  Pd  Pd178  1  0.80145911  -0.00680324  0.20201052  1
  Pd  Pd179  1  0.39345253  0.00212028  -0.00279269  1
  Pd  Pd180  1  0.20623431  0.20307092  0.40336385  1
  Pd  Pd181  1  -0.00236360  0.79575921  0.40118169  1
  Pd  Pd182  1  0.79274940  0.20842821  0.20048559  1
  Pd  Pd183  1  0.59168314  0.60948840  0.40643998  1
  Pd  Pd184  1  0.79409202  0.80875304  0.79160688  1
  Pd  Pd185  1  0.59620863  -0.00510440  0.59934614  1
  Pd  Pd186  1  0.19582394  0.19423976  0.00617644  1
  Pd  Pd187  1  -0.00959658  0.00446930  0.39519024  1
  Pd  Pd188  1  0.80804347  0.40177574  -0.00276393  1
  Pd  Pd189  1  0.00536823  0.60974816  -0.00786422  1
  Pd  Pd190  1  0.59204078  0.60367625  0.80194330  1
  Pd  Pd191  1  0.19749245  0.01019263  0.59526602  1
  Pd  Pd192  1  0.39655415  0.80866404  0.60591034  1
  Pd  Pd193  1  0.40398362  0.80789027  0.19183446  1
  Pd  Pd194  1  0.20402823  0.58726507  0.19421254  1
  Pd  Pd195  1  -0.00050725  0.40476073  0.39969562  1
  Pd  Pd196  1  0.59795049  0.39480621  0.59825707  1
  Pd  Pd197  1  0.80470715  0.39659849  0.60654643  1
  Pd  Pd198  1  0.39511203  0.59022827  0.20469122  1
  Pd  Pd199  1  0.60282897  0.20332461  0.80717098  1
  Rh  Rh200  1  0.79594705  0.61429740  0.59672348  1
  Rh  Rh201  1  0.20293764  -0.00342501  0.20512000  1
  Rh  Rh202  1  0.19968942  -0.00620164  0.39106302  1
  Rh  Rh203  1  0.19579295  0.20458259  0.19661167  1
  Rh  Rh204  1  0.79359866  0.19944989  0.80499822  1
  Rh  Rh205  1  0.60125392  -0.00592623  0.80161950  1
  Rh  Rh206  1  0.00009768  0.60733456  0.21068453  1
  Rh  Rh207  1  0.60069551  -0.01024205  0.39762217  1
  Rh  Rh208  1  0.00142282  0.39373470  0.20643174  1
  Rh  Rh209  1  0.79552022  0.19400253  0.59524168  1
  Rh  Rh210  1  0.39560419  0.19649679  0.40436667  1
  Rh  Rh211  1  0.59345638  0.79250751  0.00004278  1
  Rh  Rh212  1  0.59722728  0.60384160  -0.00299623  1
  Rh  Rh213  1  0.79963878  0.19195152  0.40674139  1
  Rh  Rh214  1  -0.00074816  0.00917684  0.20845096  1
  Rh  Rh215  1  0.79487365  0.18641521  -0.00561912  1
  Rh  Rh216  1  -0.00062225  0.60951096  0.39910043  1
  Rh  Rh217  1  0.60754441  0.79414757  0.59387100  1
  Rh  Rh218  1  0.40738505  0.79395417  0.39813313  1
  Rh  Rh219  1  0.20013588  0.61004372  0.79669047  1
  Rh  Rh220  1  0.39945951  0.18997494  -0.00856036  1
  Rh  Rh221  1  0.00342497  -0.00045451  0.79777889  1
  Rh  Rh222  1  0.20988705  0.79004476  0.60871164  1
  Rh  Rh223  1  0.80054630  0.60639300  0.40174297  1
  Rh  Rh224  1  0.20011856  -0.01116730  0.80364072  1
  Rh  Rh225  1  0.19580447  0.39553360  0.39146291  1
  Rh  Rh226  1  0.39784856  0.80517251  0.79218056  1
  Rh  Rh227  1  0.00039251  0.19104689  0.40377214  1
  Rh  Rh228  1  0.59792094  0.20385337  0.39543848  1
  Rh  Rh229  1  0.79077772  0.80810972  0.40713141  1
  Rh  Rh230  1  0.39828566  0.59908180  0.59577190  1
  Rh  Rh231  1  0.19933835  -0.00174247  -0.00369443  1
  Rh  Rh232  1  0.40967635  0.40049133  0.59698735  1
  Rh  Rh233  1  -0.00382558  0.00124301  -0.00070811  1
  Rh  Rh234  1  0.59385537  0.79793462  0.20294893  1
  Rh  Rh235  1  0.59949585  0.60375049  0.60020096  1
  Rh  Rh236  1  0.40471479  0.19419195  0.20831705  1
  Rh  Rh237  1  0.39909941  0.40356979  -0.00621039  1
  Rh  Rh238  1  0.00026786  0.19665651  0.79837463  1
  Rh  Rh239  1  0.60325588  0.79089355  0.79992044  1
  Rh  Rh240  1  0.39975851  0.40582455  0.20960352  1
  Rh  Rh241  1  0.80702839  0.39883268  0.39754228  1
  Rh  Rh242  1  -0.00923814  0.80716651  0.59078073  1
  Rh  Rh243  1  0.21119400  0.61342083  0.40933675  1
  Rh  Rh244  1  0.79016346  -0.00342109  0.59178749  1
  Rh  Rh245  1  0.59435367  0.39889829  0.39763777  1
  Rh  Rh246  1  0.00453726  0.00540541  0.60066633  1
  Rh  Rh247  1  0.61141860  0.00104714  -0.00154748  1
  Rh  Rh248  1  0.39982592  0.59787545  0.00129311  1
  Rh  Rh249  1  -0.00033595  0.79476010  0.20212256  1
