# generated using pymatgen
data_ZrScNbPdRh
_symmetry_space_group_name_H-M   'P 1'
_cell_length_a   16.55829234
_cell_length_b   16.56523768
_cell_length_c   16.56385948
_cell_angle_alpha   89.98749239
_cell_angle_beta   90.03145054
_cell_angle_gamma   90.00209318
_symmetry_Int_Tables_number   1
_chemical_formula_structural   ZrScNbPdRh
_chemical_formula_sum   'Zr50 Sc50 Nb50 Pd50 Rh50'
_cell_volume   4543.33414592
_cell_formula_units_Z   50
loop_
 _symmetry_equiv_pos_site_id
 _symmetry_equiv_pos_as_xyz
  1  'x, y, z'
loop_
 _atom_site_type_symbol
 _atom_site_label
 _atom_site_symmetry_multiplicity
 _atom_site_fract_x
 _atom_site_fract_y
 _atom_site_fract_z
 _atom_site_occupancy
  Zr  Zr0  1  0.50153211  0.30687658  0.09481924  1
  Zr  Zr1  1  0.90257300  0.70340720  0.09833163  1
  Zr  Zr2  1  0.70257517  0.49393357  0.48931025  1
  Zr  Zr3  1  0.90161667  0.49354581  0.88899739  1
  Zr  Zr4  1  0.29830400  0.49907717  0.29745396  1
  Zr  Zr5  1  0.10860072  0.69950471  0.70466986  1
  Zr  Zr6  1  0.09631829  0.49963269  0.70332956  1
  Zr  Zr7  1  0.69630570  0.69671835  0.29688409  1
  Zr  Zr8  1  0.50442017  0.70560223  0.29113947  1
  Zr  Zr9  1  0.69127839  0.10767367  0.49891748  1
  Zr  Zr10  1  0.50076974  0.69395944  0.49821378  1
  Zr  Zr11  1  0.10550305  0.29286800  0.70555815  1
  Zr  Zr12  1  0.90270889  0.10677390  0.70768913  1
  Zr  Zr13  1  0.50257056  0.30022733  0.70886745  1
  Zr  Zr14  1  0.70322652  0.50228613  0.90998297  1
  Zr  Zr15  1  0.09437247  0.29925984  0.50280452  1
  Zr  Zr16  1  0.69777691  0.09672994  0.10037096  1
  Zr  Zr17  1  0.10100997  0.09558612  0.89761202  1
  Zr  Zr18  1  0.90485017  0.50114850  0.69819875  1
  Zr  Zr19  1  0.90606380  0.89421967  0.30188521  1
  Zr  Zr20  1  0.69738017  0.90083767  0.90000126  1
  Zr  Zr21  1  0.50090243  0.48894345  0.90040188  1
  Zr  Zr22  1  0.89503338  0.89747577  0.69572654  1
  Zr  Zr23  1  0.90111421  0.11303978  0.49603756  1
  Zr  Zr24  1  0.49885495  0.90249527  0.69877216  1
  Zr  Zr25  1  0.90273178  0.10875369  0.10556061  1
  Zr  Zr26  1  0.30185699  0.30027319  0.90001252  1
  Zr  Zr27  1  0.30639976  0.70070200  0.09606210  1
  Zr  Zr28  1  0.69890628  0.49167403  0.29685767  1
  Zr  Zr29  1  0.89557868  0.10112458  0.90223316  1
  Zr  Zr30  1  0.51269823  0.29760455  0.50770558  1
  Zr  Zr31  1  0.69987259  0.10345301  0.30301667  1
  Zr  Zr32  1  0.90540254  0.69332017  0.69581750  1
  Zr  Zr33  1  0.49541599  0.30246577  0.89958931  1
  Zr  Zr34  1  0.29864910  0.11022544  0.29519561  1
  Zr  Zr35  1  0.30133861  0.70131672  0.51247608  1
  Zr  Zr36  1  0.69974322  0.89689034  0.68896638  1
  Zr  Zr37  1  0.68816937  0.30066157  0.89526725  1
  Zr  Zr38  1  0.30134489  0.09268342  0.91116009  1
  Zr  Zr39  1  0.29680931  0.89708172  0.69759520  1
  Zr  Zr40  1  0.10154568  0.30580663  0.90221161  1
  Zr  Zr41  1  0.69847676  0.10061069  0.90043566  1
  Zr  Zr42  1  0.89964095  0.69059305  0.90515371  1
  Zr  Zr43  1  0.50022724  0.69261714  0.69543491  1
  Zr  Zr44  1  0.10219485  0.89708058  0.70592714  1
  Zr  Zr45  1  0.49891332  0.49840880  0.70148253  1
  Zr  Zr46  1  0.49505435  0.10100955  0.10075672  1
  Zr  Zr47  1  0.29536786  0.09159209  0.70132070  1
  Zr  Zr48  1  0.10251468  0.89943137  0.30085136  1
  Zr  Zr49  1  0.50082137  0.69491146  0.90297921  1
  Sc  Sc50  1  0.51138933  0.50683219  0.29657963  1
  Sc  Sc51  1  0.09926369  0.89925074  0.49695574  1
  Sc  Sc52  1  0.10610637  0.89425198  0.89949966  1
  Sc  Sc53  1  0.10601092  0.49717285  0.89384482  1
  Sc  Sc54  1  0.69706275  0.89587132  0.09998400  1
  Sc  Sc55  1  0.29334463  0.90549778  0.50606387  1
  Sc  Sc56  1  0.49784624  0.10759620  0.90695243  1
  Sc  Sc57  1  0.08863755  0.49723150  0.49793877  1
  Sc  Sc58  1  0.29785428  0.90245350  0.89948862  1
  Sc  Sc59  1  0.49452986  0.89640068  0.90651445  1
  Sc  Sc60  1  0.09264043  0.09779440  0.30561873  1
  Sc  Sc61  1  0.29791705  0.71203506  0.29015626  1
  Sc  Sc62  1  0.69676649  0.70291383  0.09730664  1
  Sc  Sc63  1  0.10649195  0.49282418  0.08417969  1
  Sc  Sc64  1  0.29754203  0.69339277  0.89720242  1
  Sc  Sc65  1  0.70111941  0.50167481  0.70147207  1
  Sc  Sc66  1  0.69104520  0.29833488  0.69552192  1
  Sc  Sc67  1  0.89804302  0.49924763  0.31175640  1
  Sc  Sc68  1  0.10714995  0.30352780  0.29462268  1
  Sc  Sc69  1  0.29820224  0.30400926  0.29984725  1
  Sc  Sc70  1  0.30176067  0.49963286  0.09245378  1
  Sc  Sc71  1  0.50586017  0.50448560  0.09762689  1
  Sc  Sc72  1  0.29839068  0.09936995  0.51307188  1
  Sc  Sc73  1  0.30312259  0.50145637  0.50117659  1
  Sc  Sc74  1  0.30187777  0.89803894  0.08827552  1
  Sc  Sc75  1  0.29896569  0.51550277  0.70667948  1
  Sc  Sc76  1  0.49685428  0.29878163  0.31075657  1
  Sc  Sc77  1  0.10111049  0.09886077  0.50418234  1
  Sc  Sc78  1  0.89874649  0.89826474  0.89979031  1
  Sc  Sc79  1  0.50253520  0.89501435  0.09929817  1
  Sc  Sc80  1  0.09289926  0.71271117  0.30271102  1
  Sc  Sc81  1  0.70150144  0.70205907  0.49928370  1
  Sc  Sc82  1  0.09693667  0.70136004  0.50392030  1
  Sc  Sc83  1  0.68823211  0.89446103  0.29891888  1
  Sc  Sc84  1  0.69230845  0.69783520  0.90299266  1
  Sc  Sc85  1  0.09633054  0.10392078  0.10840392  1
  Sc  Sc86  1  0.30632084  0.29997158  0.49621155  1
  Sc  Sc87  1  0.70390262  0.10820138  0.70376133  1
  Sc  Sc88  1  0.90125737  0.69829384  0.49831902  1
  Sc  Sc89  1  0.89826066  0.88985076  0.10236342  1
  Sc  Sc90  1  0.29549301  0.29551689  0.10728527  1
  Sc  Sc91  1  0.89109864  0.49713935  0.07843426  1
  Sc  Sc92  1  0.90328207  0.10519506  0.30278314  1
  Sc  Sc93  1  0.51416959  0.90966429  0.50417916  1
  Sc  Sc94  1  0.29937677  0.49562257  0.89709653  1
  Sc  Sc95  1  0.50701264  0.49826373  0.49873633  1
  Sc  Sc96  1  0.90043606  0.70607371  0.29915424  1
  Sc  Sc97  1  0.29941364  0.28792857  0.70771091  1
  Sc  Sc98  1  0.88967620  0.29366161  0.30101364  1
  Sc  Sc99  1  0.09922312  0.49477354  0.30205661  1
  Nb  Nb100  1  0.90532266  0.30317696  0.70053693  1
  Nb  Nb101  1  0.69571500  0.49568983  0.10667263  1
  Nb  Nb102  1  0.50074290  0.90675168  0.29857532  1
  Nb  Nb103  1  0.09864001  0.89810291  0.09543942  1
  Nb  Nb104  1  0.30286969  0.70124398  0.69827438  1
  Nb  Nb105  1  0.50180905  0.10316442  0.49397702  1
  Nb  Nb106  1  0.90182813  0.49384153  0.50383550  1
  Nb  Nb107  1  0.90194874  0.30299297  0.50296076  1
  Nb  Nb108  1  0.70129485  0.30179693  0.49450976  1
  Nb  Nb109  1  0.71182100  0.90464179  0.50330645  1
  Nb  Nb110  1  0.50744213  0.09626238  0.30284200  1
  Nb  Nb111  1  0.50019691  0.70083634  0.09577411  1
  Nb  Nb112  1  0.70156444  0.30288798  0.29950702  1
  Nb  Nb113  1  0.09638338  0.70496133  0.09285284  1
  Nb  Nb114  1  0.30098615  0.90534732  0.30083027  1
  Nb  Nb115  1  0.09261708  0.29725583  0.09348044  1
  Nb  Nb116  1  0.69907912  0.70277177  0.70108189  1
  Nb  Nb117  1  0.29719927  0.09947749  0.10195363  1
  Nb  Nb118  1  0.10501530  0.09884753  0.70184372  1
  Nb  Nb119  1  0.90277277  0.30277618  0.90539621  1
  Nb  Nb120  1  0.70581780  0.30740095  0.11462411  1
  Nb  Nb121  1  0.90514920  0.29814934  0.09455214  1
  Nb  Nb122  1  0.49345368  0.09820824  0.68904688  1
  Nb  Nb123  1  0.09610468  0.70190804  0.90207192  1
  Nb  Nb124  1  0.89012395  0.89978562  0.50617910  1
  Nb  Nb125  1  -0.00488094  0.00133988  0.60601273  1
  Nb  Nb126  1  0.39995235  0.39841592  0.60627508  1
  Nb  Nb127  1  0.80039652  -0.00161037  0.20750926  1
  Nb  Nb128  1  0.40529254  0.00235295  0.39563990  1
  Nb  Nb129  1  0.39745125  0.00130592  0.20467115  1
  Nb  Nb130  1  0.79579570  0.79338216  0.79366226  1
  Nb  Nb131  1  0.39656411  0.60938946  0.39461455  1
  Nb  Nb132  1  0.20357302  -0.00330324  0.19873258  1
  Nb  Nb133  1  0.80190827  0.59579892  0.19532884  1
  Nb  Nb134  1  0.80051515  0.20991595  0.00405525  1
  Nb  Nb135  1  0.19602877  0.19768097  0.00423461  1
  Nb  Nb136  1  0.79797658  -0.00311292  0.40251089  1
  Nb  Nb137  1  0.19054247  0.60644525  0.19559355  1
  Nb  Nb138  1  0.20237233  0.39817221  0.60443784  1
  Nb  Nb139  1  0.40275943  0.40260523  0.20107369  1
  Nb  Nb140  1  0.00214785  -0.00117200  0.00368647  1
  Nb  Nb141  1  0.59567374  0.00262599  0.79644654  1
  Nb  Nb142  1  0.20389128  0.60413194  0.39400033  1
  Nb  Nb143  1  0.40276223  0.80833706  0.39693876  1
  Nb  Nb144  1  0.19941411  0.20107881  0.40178744  1
  Nb  Nb145  1  0.80704877  0.39569887  0.59503951  1
  Nb  Nb146  1  0.00113236  0.59556893  0.19167024  1
  Nb  Nb147  1  0.60199604  0.20412481  0.20380200  1
  Nb  Nb148  1  0.39857900  0.79350756  0.79277681  1
  Nb  Nb149  1  -0.00444575  0.39988550  0.18849692  1
  Pd  Pd150  1  0.40241363  0.81010094  0.19866487  1
  Pd  Pd151  1  0.00251305  0.80436126  0.59529799  1
  Pd  Pd152  1  0.19972042  0.40110205  0.41179980  1
  Pd  Pd153  1  0.79531884  0.39204768  0.79047068  1
  Pd  Pd154  1  -0.00847246  0.79554766  0.80518282  1
  Pd  Pd155  1  0.79180720  -0.00692082  0.79600786  1
  Pd  Pd156  1  0.80138364  0.60327116  0.39551515  1
  Pd  Pd157  1  0.60911409  0.59366214  0.59558274  1
  Pd  Pd158  1  0.79491043  0.60563820  0.80048331  1
  Pd  Pd159  1  0.59995150  0.79703418  0.59200142  1
  Pd  Pd160  1  0.79231380  0.39183734  -0.00154658  1
  Pd  Pd161  1  0.20660891  0.00996414  0.39716275  1
  Pd  Pd162  1  0.79691957  0.59581012  0.59454332  1
  Pd  Pd163  1  0.20416407  0.79613928  -0.00550923  1
  Pd  Pd164  1  0.59250681  -0.00380059  -0.00430531  1
  Pd  Pd165  1  0.00503801  0.60271988  0.39353633  1
  Pd  Pd166  1  0.00094795  0.20511343  0.80675941  1
  Pd  Pd167  1  0.79765261  0.20743385  0.60035122  1
  Pd  Pd168  1  0.60452173  0.00993688  0.60513010  1
  Pd  Pd169  1  0.80481974  0.01710300  0.59671273  1
  Pd  Pd170  1  0.00326609  0.21044658  0.21093700  1
  Pd  Pd171  1  0.79846353  0.80216438  0.39676157  1
  Pd  Pd172  1  0.39534895  0.19362418  0.40515051  1
  Pd  Pd173  1  0.19661878  0.80312029  0.19232917  1
  Pd  Pd174  1  0.20763198  0.79488938  0.40633167  1
  Pd  Pd175  1  0.40037448  0.18867893  0.80135169  1
  Pd  Pd176  1  -0.00800979  -0.00376951  0.41215764  1
  Pd  Pd177  1  0.19831022  0.40620758  0.18976657  1
  Pd  Pd178  1  0.00577012  0.59117688  -0.00202670  1
  Pd  Pd179  1  0.79646378  0.79646134  -0.00810162  1
  Pd  Pd180  1  0.00449378  0.19436199  0.60343104  1
  Pd  Pd181  1  0.19815126  0.60348411  -0.00143897  1
  Pd  Pd182  1  0.59666340  0.80525580  0.80157009  1
  Pd  Pd183  1  0.39976716  0.20468520  0.59962465  1
  Pd  Pd184  1  0.40732415  0.41024758  0.40029876  1
  Pd  Pd185  1  -0.00137894  -0.00618790  0.19399185  1
  Pd  Pd186  1  0.40564607  0.80837895  0.59537157  1
  Pd  Pd187  1  0.80061100  0.21395810  0.80601128  1
  Pd  Pd188  1  0.40531566  -0.00306719  0.80538639  1
  Pd  Pd189  1  0.59794867  0.80563103  0.40702365  1
  Pd  Pd190  1  0.40961336  0.20574052  0.20042469  1
  Pd  Pd191  1  0.19306949  0.59112518  0.59153606  1
  Pd  Pd192  1  0.60777488  0.20815792  0.00986603  1
  Pd  Pd193  1  0.80941001  0.00079155  0.01272662  1
  Pd  Pd194  1  0.81500074  0.40887524  0.20030882  1
  Pd  Pd195  1  0.40153757  0.59331708  -0.00492569  1
  Pd  Pd196  1  0.60180391  0.59419230  0.80286655  1
  Pd  Pd197  1  -0.00480076  0.39066711  0.38774372  1
  Pd  Pd198  1  0.00049156  -0.00528810  0.80251793  1
  Pd  Pd199  1  0.39616700  0.59543216  0.20176734  1
  Rh  Rh200  1  0.79006753  0.60345456  0.00826037  1
  Rh  Rh201  1  0.00065766  0.80825129  -0.00575917  1
  Rh  Rh202  1  0.39168181  0.40398347  0.79211430  1
  Rh  Rh203  1  0.80555051  0.39188552  0.40432720  1
  Rh  Rh204  1  0.00102368  0.39784117  0.60781052  1
  Rh  Rh205  1  0.00087250  0.19268122  -0.00764589  1
  Rh  Rh206  1  0.38850613  0.20446503  0.00392746  1
  Rh  Rh207  1  0.60493248  -0.00307369  0.40373933  1
  Rh  Rh208  1  0.59723093  0.79839875  0.00181235  1
  Rh  Rh209  1  0.00030284  0.40481782  -0.00196278  1
  Rh  Rh210  1  0.39558505  0.39945566  0.00773128  1
  Rh  Rh211  1  0.00101539  0.39419068  0.79915794  1
  Rh  Rh212  1  0.19653296  0.60442482  0.80544520  1
  Rh  Rh213  1  0.59727602  0.79928061  0.19234402  1
  Rh  Rh214  1  0.18700965  -0.00362436  0.60350655  1
  Rh  Rh215  1  0.60784618  0.60407035  0.19137137  1
  Rh  Rh216  1  -0.00368701  0.80352792  0.40946314  1
  Rh  Rh217  1  0.00583509  0.79680209  0.19611036  1
  Rh  Rh218  1  0.60630718  0.40696194  0.79909166  1
  Rh  Rh219  1  0.00878212  0.20848186  0.39739343  1
  Rh  Rh220  1  0.40381241  -0.00240837  0.00823560  1
  Rh  Rh221  1  0.20469458  0.18953592  0.81123080  1
  Rh  Rh222  1  0.59904200  0.60044037  0.39972310  1
  Rh  Rh223  1  0.79341242  0.19560504  0.19463611  1
  Rh  Rh224  1  0.39921662  0.79473979  -0.00862482  1
  Rh  Rh225  1  0.80017692  0.78585110  0.60274932  1
  Rh  Rh226  1  0.58877252  0.18676578  0.79380405  1
  Rh  Rh227  1  0.59740002  0.19546377  0.60541902  1
  Rh  Rh228  1  0.40334234  -0.00082052  0.58855434  1
  Rh  Rh229  1  0.60307095  0.20848457  0.39376058  1
  Rh  Rh230  1  0.58999413  0.39191122  0.20469387  1
  Rh  Rh231  1  0.20594595  0.40302064  0.79025041  1
  Rh  Rh232  1  0.19435178  0.80164136  0.59995291  1
  Rh  Rh233  1  0.59987616  0.59805743  0.00541796  1
  Rh  Rh234  1  0.59973061  0.00487435  0.19806927  1
  Rh  Rh235  1  0.00691569  0.60269925  0.80633818  1
  Rh  Rh236  1  0.60478896  0.40345194  0.60042120  1
  Rh  Rh237  1  0.60730709  0.39996393  0.00324432  1
  Rh  Rh238  1  0.79325974  0.79966443  0.20548512  1
  Rh  Rh239  1  0.20725701  0.38780303  0.00203803  1
  Rh  Rh240  1  0.40221822  0.59006469  0.59416975  1
  Rh  Rh241  1  0.18821762  0.00754993  0.01118148  1
  Rh  Rh242  1  0.19003023  0.19596832  0.20155060  1
  Rh  Rh243  1  0.20165129  -0.00212744  0.79937858  1
  Rh  Rh244  1  0.40174690  0.60389988  0.80374468  1
  Rh  Rh245  1  0.20875021  0.79418610  0.80402568  1
  Rh  Rh246  1  0.19930360  0.20638804  0.59363575  1
  Rh  Rh247  1  0.79684273  0.20252280  0.40376881  1
  Rh  Rh248  1  0.00362832  0.59920680  0.59571267  1
  Rh  Rh249  1  0.59791255  0.39527369  0.39527307  1
