# generated using pymatgen
data_ZrScNbPdRh
_symmetry_space_group_name_H-M   'P 1'
_cell_length_a   16.56497668
_cell_length_b   16.55727641
_cell_length_c   16.56088346
_cell_angle_alpha   90.01024211
_cell_angle_beta   90.00321515
_cell_angle_gamma   90.01176684
_symmetry_Int_Tables_number   1
_chemical_formula_structural   ZrScNbPdRh
_chemical_formula_sum   'Zr50 Sc50 Nb50 Pd50 Rh50'
_cell_volume   4542.16819595
_cell_formula_units_Z   50
loop_
 _symmetry_equiv_pos_site_id
 _symmetry_equiv_pos_as_xyz
  1  'x, y, z'
loop_
 _atom_site_type_symbol
 _atom_site_label
 _atom_site_symmetry_multiplicity
 _atom_site_fract_x
 _atom_site_fract_y
 _atom_site_fract_z
 _atom_site_occupancy
  Zr  Zr0  1  0.49857031  0.10398577  0.90353711  1
  Zr  Zr1  1  0.69781460  0.50726879  0.69420009  1
  Zr  Zr2  1  0.89883420  0.90188177  0.49600347  1
  Zr  Zr3  1  0.70347710  0.70570596  0.70966955  1
  Zr  Zr4  1  0.89189818  0.10492035  0.09820181  1
  Zr  Zr5  1  0.70016393  0.90186765  0.29455538  1
  Zr  Zr6  1  0.30658442  0.70422949  0.70161754  1
  Zr  Zr7  1  0.90071403  0.70266231  0.30894196  1
  Zr  Zr8  1  0.49591181  0.28985522  0.10242522  1
  Zr  Zr9  1  0.90699914  0.50333275  0.90779046  1
  Zr  Zr10  1  0.10073520  0.69495471  0.90549461  1
  Zr  Zr11  1  0.90249814  0.69959382  0.50342262  1
  Zr  Zr12  1  0.10464751  0.89959141  0.09761943  1
  Zr  Zr13  1  0.89437577  0.89850394  0.30308796  1
  Zr  Zr14  1  0.29894703  0.89999842  0.70170241  1
  Zr  Zr15  1  0.29398038  0.90584632  0.49733868  1
  Zr  Zr16  1  0.90101732  0.09731893  0.29686984  1
  Zr  Zr17  1  0.08993854  0.10551292  0.89687024  1
  Zr  Zr18  1  0.30177500  0.49281347  0.50104806  1
  Zr  Zr19  1  0.90051797  0.90717034  0.69137186  1
  Zr  Zr20  1  0.69812733  0.69078372  0.51688817  1
  Zr  Zr21  1  0.30006211  0.48981066  0.89882161  1
  Zr  Zr22  1  0.09684198  0.29292233  0.50416039  1
  Zr  Zr23  1  0.09450744  0.90959927  0.29494030  1
  Zr  Zr24  1  0.69639331  0.29347263  0.49868912  1
  Zr  Zr25  1  0.29664235  0.49426477  0.09879836  1
  Zr  Zr26  1  0.29838585  0.70234221  0.89946569  1
  Zr  Zr27  1  0.69114449  0.50438344  0.10490651  1
  Zr  Zr28  1  0.69706551  0.09582881  0.90781314  1
  Zr  Zr29  1  0.30459994  0.50377416  0.30348246  1
  Zr  Zr30  1  0.50781070  0.69920052  0.90695308  1
  Zr  Zr31  1  0.49551579  0.49183221  0.49396814  1
  Zr  Zr32  1  0.69837446  0.30292034  0.89908152  1
  Zr  Zr33  1  0.30026439  0.90034738  0.90185767  1
  Zr  Zr34  1  0.10054849  0.48763347  0.28988947  1
  Zr  Zr35  1  0.50972914  0.90091703  0.10258074  1
  Zr  Zr36  1  0.49573831  0.48883714  0.70097931  1
  Zr  Zr37  1  0.88676982  0.69459266  0.89757884  1
  Zr  Zr38  1  0.50219523  0.70049945  0.50436109  1
  Zr  Zr39  1  0.50580139  0.30594643  0.30482350  1
  Zr  Zr40  1  0.50757800  0.49974720  0.29431004  1
  Zr  Zr41  1  0.29226915  0.69973666  0.48632324  1
  Zr  Zr42  1  0.89159937  0.30003236  0.49729093  1
  Zr  Zr43  1  0.09795164  0.10664857  0.69671382  1
  Zr  Zr44  1  0.11070113  0.10179512  0.50058098  1
  Zr  Zr45  1  0.29742586  0.29885925  0.09068277  1
  Zr  Zr46  1  0.29658334  0.10890532  0.69825016  1
  Zr  Zr47  1  0.49893676  0.10213365  0.28865811  1
  Zr  Zr48  1  0.70459792  0.30113723  0.30458474  1
  Zr  Zr49  1  0.30953140  0.10428399  0.09322680  1
  Sc  Sc50  1  0.70798095  0.50141297  0.89767718  1
  Sc  Sc51  1  0.09912086  0.30427384  0.11010022  1
  Sc  Sc52  1  0.89956609  0.90702615  0.90983082  1
  Sc  Sc53  1  0.70401579  0.70833182  0.30278743  1
  Sc  Sc54  1  0.51155823  0.89871615  0.30090262  1
  Sc  Sc55  1  0.29678448  0.29062298  0.29174711  1
  Sc  Sc56  1  0.10579247  0.70082669  0.30233260  1
  Sc  Sc57  1  0.49589022  0.30248715  0.50389065  1
  Sc  Sc58  1  0.10237264  0.50667785  0.50231879  1
  Sc  Sc59  1  0.09966296  0.49312651  0.69683459  1
  Sc  Sc60  1  0.10282528  0.09934459  0.09807178  1
  Sc  Sc61  1  0.89610887  0.50449345  0.50166950  1
  Sc  Sc62  1  0.50393230  0.50276897  0.10256523  1
  Sc  Sc63  1  0.90130927  0.50580849  0.70393733  1
  Sc  Sc64  1  0.49758537  0.11141851  0.49488016  1
  Sc  Sc65  1  0.09898577  0.69827394  0.49601634  1
  Sc  Sc66  1  0.90216580  0.28507678  0.29386629  1
  Sc  Sc67  1  0.10064727  0.29545169  0.70026755  1
  Sc  Sc68  1  0.91265244  0.29910313  0.69870341  1
  Sc  Sc69  1  0.09927812  0.49270822  0.09251731  1
  Sc  Sc70  1  0.50208707  0.70144102  0.29971561  1
  Sc  Sc71  1  0.89816037  0.31224381  0.90178234  1
  Sc  Sc72  1  0.70320735  0.10213164  0.30238988  1
  Sc  Sc73  1  0.30042164  0.30507636  0.70078569  1
  Sc  Sc74  1  0.50851587  0.90820341  0.90709092  1
  Sc  Sc75  1  0.10463062  0.90595030  0.89881374  1
  Sc  Sc76  1  0.10255678  0.69775704  0.10153566  1
  Sc  Sc77  1  0.30164119  0.30192519  0.90136763  1
  Sc  Sc78  1  0.70488876  0.90801195  0.49389549  1
  Sc  Sc79  1  0.91179769  0.09887138  0.69888393  1
  Sc  Sc80  1  0.28540647  0.69756297  0.10080785  1
  Sc  Sc81  1  0.69038334  0.10339554  0.70294828  1
  Sc  Sc82  1  0.50303606  0.89044685  0.69716619  1
  Sc  Sc83  1  0.50116901  0.89646293  0.49587155  1
  Sc  Sc84  1  0.10385010  0.90181975  0.49816428  1
  Sc  Sc85  1  0.49513776  0.49308750  0.89889308  1
  Sc  Sc86  1  0.10439129  0.90813890  0.69703440  1
  Sc  Sc87  1  0.89903388  0.09009513  0.50283143  1
  Sc  Sc88  1  0.90008778  0.90380198  0.10550799  1
  Sc  Sc89  1  0.70822186  0.49073114  0.50291418  1
  Sc  Sc90  1  0.10247157  0.30578535  0.89944521  1
  Sc  Sc91  1  0.69753581  0.70138914  0.08970913  1
  Sc  Sc92  1  0.29609672  0.09924503  0.30752652  1
  Sc  Sc93  1  0.50687484  0.70195793  0.69352251  1
  Sc  Sc94  1  0.68855105  0.30636385  0.70188445  1
  Sc  Sc95  1  0.89027100  0.69907838  0.09213923  1
  Sc  Sc96  1  0.51407106  0.69363633  0.10557324  1
  Sc  Sc97  1  0.29179327  0.90184990  0.30660020  1
  Sc  Sc98  1  0.29774705  0.10824772  0.90500339  1
  Sc  Sc99  1  0.09591479  0.69414406  0.69008494  1
  Nb  Nb100  1  0.90226405  0.49193956  0.10384839  1
  Nb  Nb101  1  0.10301475  0.50112803  0.90005582  1
  Nb  Nb102  1  0.49747829  0.30514928  0.89408485  1
  Nb  Nb103  1  0.69804553  0.49329603  0.29989661  1
  Nb  Nb104  1  0.69303156  0.10247298  0.10004435  1
  Nb  Nb105  1  0.29923456  0.09984255  0.50065347  1
  Nb  Nb106  1  0.50034621  0.09571010  0.09624791  1
  Nb  Nb107  1  0.09825525  0.29204310  0.30228498  1
  Nb  Nb108  1  0.70337118  0.69975227  0.90423985  1
  Nb  Nb109  1  0.49900551  0.29153740  0.70772969  1
  Nb  Nb110  1  0.69903736  0.90288934  0.70176364  1
  Nb  Nb111  1  0.09624879  0.11371824  0.30056821  1
  Nb  Nb112  1  0.30111137  0.50051712  0.70196235  1
  Nb  Nb113  1  0.89983333  0.30367880  0.09962117  1
  Nb  Nb114  1  0.90048799  0.10081337  0.90037688  1
  Nb  Nb115  1  0.30078928  0.90342012  0.09788910  1
  Nb  Nb116  1  0.89907068  0.70260828  0.70130846  1
  Nb  Nb117  1  0.89603024  0.49492937  0.30320277  1
  Nb  Nb118  1  0.29972821  0.69845864  0.29939926  1
  Nb  Nb119  1  0.70305948  0.10044005  0.50618885  1
  Nb  Nb120  1  0.69869361  0.89913521  0.09740241  1
  Nb  Nb121  1  0.49675293  0.10549888  0.70012978  1
  Nb  Nb122  1  0.70578179  0.29664653  0.10070410  1
  Nb  Nb123  1  0.29952295  0.29719675  0.49678382  1
  Nb  Nb124  1  0.70035373  0.89175514  0.90136530  1
  Nb  Nb125  1  0.20345890  0.59424804  0.79928051  1
  Nb  Nb126  1  0.80339180  0.59092771  0.20530473  1
  Nb  Nb127  1  0.39935075  0.79903422  0.00932785  1
  Nb  Nb128  1  0.79591641  0.00231384  0.80250124  1
  Nb  Nb129  1  0.39679215  0.60319831  -0.00031673  1
  Nb  Nb130  1  0.59499063  0.00634740  0.60224118  1
  Nb  Nb131  1  0.00050258  0.79854402  -0.00562800  1
  Nb  Nb132  1  0.80311227  0.19511311  0.80157680  1
  Nb  Nb133  1  0.60288508  0.60156771  0.80105111  1
  Nb  Nb134  1  -0.01036601  0.59267039  0.20187978  1
  Nb  Nb135  1  0.00144880  0.39556077  0.39509667  1
  Nb  Nb136  1  0.80104636  0.39977173  0.19870063  1
  Nb  Nb137  1  0.19574113  0.39053107  0.39858149  1
  Nb  Nb138  1  -0.00527868  0.79719947  0.80088610  1
  Nb  Nb139  1  0.60344416  0.59331630  0.40087889  1
  Nb  Nb140  1  0.60052283  0.39201809  0.00164552  1
  Nb  Nb141  1  0.40007729  -0.00392590  0.19340826  1
  Nb  Nb142  1  0.80016245  0.80295464  0.60632810  1
  Nb  Nb143  1  0.39478175  0.59629285  0.59938753  1
  Nb  Nb144  1  -0.00811251  0.20302182  0.00169410  1
  Nb  Nb145  1  0.40106031  0.00654105  0.60105349  1
  Nb  Nb146  1  0.40115970  0.39847368  0.20042306  1
  Nb  Nb147  1  0.79609465  0.19603453  0.60540304  1
  Nb  Nb148  1  0.39333218  0.80196733  0.19656973  1
  Nb  Nb149  1  0.40320695  0.00590406  0.79361577  1
  Pd  Pd150  1  0.39801193  0.60529538  0.19095462  1
  Pd  Pd151  1  0.59633803  0.39671005  0.59782488  1
  Pd  Pd152  1  0.00728248  0.60240105  0.79552337  1
  Pd  Pd153  1  0.19863214  0.00719449  -0.00488350  1
  Pd  Pd154  1  0.18534960  0.79165937  0.79353653  1
  Pd  Pd155  1  0.79469225  -0.00466650  0.00140958  1
  Pd  Pd156  1  0.20000588  0.19304400  0.19460922  1
  Pd  Pd157  1  0.39801352  0.20350047  0.59906173  1
  Pd  Pd158  1  0.80330169  0.39197467  0.61070639  1
  Pd  Pd159  1  0.79277702  0.00366174  0.19760453  1
  Pd  Pd160  1  0.79296619  0.40708542  0.00604772  1
  Pd  Pd161  1  0.20589179  0.60221936  0.60482158  1
  Pd  Pd162  1  0.00486564  0.00456808  0.40325270  1
  Pd  Pd163  1  0.60329458  0.20038975  0.80346624  1
  Pd  Pd164  1  0.41301636  0.80965791  0.81087178  1
  Pd  Pd165  1  0.00725762  0.59051442  0.39390849  1
  Pd  Pd166  1  0.39774492  0.20312543  0.39535642  1
  Pd  Pd167  1  -0.00302168  0.40681495  0.59229178  1
  Pd  Pd168  1  -0.00825572  0.19709109  0.40720831  1
  Pd  Pd169  1  0.80305197  0.39694578  0.78954778  1
  Pd  Pd170  1  0.59674940  0.20523774  -0.00093310  1
  Pd  Pd171  1  0.79026962  0.59921529  0.39794144  1
  Pd  Pd172  1  0.19603486  0.79712974  0.59879190  1
  Pd  Pd173  1  0.59799300  0.00892348  0.40624462  1
  Pd  Pd174  1  0.20629168  0.00924672  0.20325033  1
  Pd  Pd175  1  0.39507642  0.80223957  0.59144580  1
  Pd  Pd176  1  -0.00170396  0.60353169  0.01146703  1
  Pd  Pd177  1  0.59956538  0.19552307  0.39828001  1
  Pd  Pd178  1  0.80452579  0.20381288  -0.00689416  1
  Pd  Pd179  1  0.60884320  0.79303787  0.40632462  1
  Pd  Pd180  1  -0.00439215  -0.00828969  0.80138289  1
  Pd  Pd181  1  0.00097171  0.00742239  0.19347545  1
  Pd  Pd182  1  0.40663210  -0.00108325  0.39749656  1
  Pd  Pd183  1  0.20016653  0.20706099  0.80363811  1
  Pd  Pd184  1  0.40829900  0.60524781  0.40309453  1
  Pd  Pd185  1  0.59643766  0.79804893  0.80499611  1
  Pd  Pd186  1  0.20312591  0.80238360  0.20568677  1
  Pd  Pd187  1  0.60673457  0.20074107  0.20193341  1
  Pd  Pd188  1  0.80818778  0.81290191  0.80055461  1
  Pd  Pd189  1  0.00368103  0.39999780  0.80085528  1
  Pd  Pd190  1  0.79883911  0.79270892  0.19230011  1
  Pd  Pd191  1  0.59722963  -0.00162531  0.79525176  1
  Pd  Pd192  1  0.39909773  0.80341759  0.39068035  1
  Pd  Pd193  1  0.19182793  0.59595263  0.20129826  1
  Pd  Pd194  1  0.20032100  0.39411529  0.59698429  1
  Pd  Pd195  1  -0.00520295  0.78927034  0.19129576  1
  Pd  Pd196  1  0.00855524  0.80315510  0.40025551  1
  Pd  Pd197  1  0.40467468  0.60074737  0.79949586  1
  Pd  Pd198  1  0.00092611  0.80298773  0.60262698  1
  Pd  Pd199  1  0.20580763  0.00964777  0.80330685  1
  Rh  Rh200  1  0.60210779  0.00568123  0.19563449  1
  Rh  Rh201  1  0.01304758  0.00259066  0.59356652  1
  Rh  Rh202  1  0.79769633  0.59169535  0.00706371  1
  Rh  Rh203  1  0.80355144  0.19072675  0.40863427  1
  Rh  Rh204  1  0.18692804  0.20532924  0.00082481  1
  Rh  Rh205  1  0.39762051  0.39033715  0.79466450  1
  Rh  Rh206  1  0.21041918  0.39647341  0.20488512  1
  Rh  Rh207  1  0.20473542  0.20599570  0.59989425  1
  Rh  Rh208  1  0.80616627  0.39510374  0.39491930  1
  Rh  Rh209  1  0.00293571  0.00134873  0.00372185  1
  Rh  Rh210  1  0.19496349  0.80278136  0.39439591  1
  Rh  Rh211  1  0.20428180  0.20241762  0.40243166  1
  Rh  Rh212  1  0.41170784  0.40280852  0.01058558  1
  Rh  Rh213  1  0.61485115  0.61115265  0.21510770  1
  Rh  Rh214  1  0.19722427  0.40476619  0.79798215  1
  Rh  Rh215  1  0.40115930  -0.00576779  -0.00210095  1
  Rh  Rh216  1  0.00136655  0.19721960  0.18927978  1
  Rh  Rh217  1  0.40462244  0.20485859  -0.00802936  1
  Rh  Rh218  1  0.59714025  0.58703025  -0.01383083  1
  Rh  Rh219  1  0.80166022  0.80815494  0.00211384  1
  Rh  Rh220  1  0.59885430  0.40701034  0.80619987  1
  Rh  Rh221  1  -0.00355660  0.59724329  0.60007078  1
  Rh  Rh222  1  -0.00832421  0.19507043  0.59456399  1
  Rh  Rh223  1  -0.00926301  0.39645758  0.20639639  1
  Rh  Rh224  1  0.60098766  0.38680209  0.19081732  1
  Rh  Rh225  1  -0.00770381  0.20991141  0.81141512  1
  Rh  Rh226  1  0.60181179  0.19865476  0.59890101  1
  Rh  Rh227  1  0.79571635  0.79867779  0.41334668  1
  Rh  Rh228  1  0.79615353  0.20208991  0.19782162  1
  Rh  Rh229  1  0.60734792  -0.00174957  0.00554612  1
  Rh  Rh230  1  0.78725666  0.00365616  0.61056005  1
  Rh  Rh231  1  0.60232015  0.79803422  0.19818070  1
  Rh  Rh232  1  0.20520755  0.00219566  0.60133831  1
  Rh  Rh233  1  0.80888318  0.60489398  0.60612980  1
  Rh  Rh234  1  0.58588699  0.58765377  0.59977531  1
  Rh  Rh235  1  0.39857757  0.39538864  0.60521318  1
  Rh  Rh236  1  0.20637608  0.59094884  -0.00719385  1
  Rh  Rh237  1  0.39781061  0.19640085  0.20035107  1
  Rh  Rh238  1  0.19761020  0.80450532  0.00104049  1
  Rh  Rh239  1  0.19291769  0.39626605  -0.00141299  1
  Rh  Rh240  1  0.79854440  0.00416781  0.39267206  1
  Rh  Rh241  1  0.60678542  0.40419937  0.40879261  1
  Rh  Rh242  1  0.38767973  0.38721934  0.38899745  1
  Rh  Rh243  1  0.19178109  0.00625357  0.39373848  1
  Rh  Rh244  1  0.60155651  0.80347990  0.00031029  1
  Rh  Rh245  1  0.19617299  0.59236603  0.39397717  1
  Rh  Rh246  1  0.61267318  0.81593963  0.59283884  1
  Rh  Rh247  1  0.79531270  0.59618179  0.79730819  1
  Rh  Rh248  1  0.00522116  0.39533556  -0.00175310  1
  Rh  Rh249  1  0.39788392  0.20093959  0.80478695  1
