# generated using pymatgen
data_ZrScNbPdRh
_symmetry_space_group_name_H-M   'P 1'
_cell_length_a   16.55651194
_cell_length_b   16.54932118
_cell_length_c   16.55589813
_cell_angle_alpha   89.99400144
_cell_angle_beta   90.02181810
_cell_angle_gamma   90.01611686
_symmetry_Int_Tables_number   1
_chemical_formula_structural   ZrScNbPdRh
_chemical_formula_sum   'Zr50 Sc50 Nb50 Pd50 Rh50'
_cell_volume   4536.29955632
_cell_formula_units_Z   50
loop_
 _symmetry_equiv_pos_site_id
 _symmetry_equiv_pos_as_xyz
  1  'x, y, z'
loop_
 _atom_site_type_symbol
 _atom_site_label
 _atom_site_symmetry_multiplicity
 _atom_site_fract_x
 _atom_site_fract_y
 _atom_site_fract_z
 _atom_site_occupancy
  Zr  Zr0  1  0.30198022  0.10063504  0.90601183  1
  Zr  Zr1  1  0.10279489  0.49796457  0.70506029  1
  Zr  Zr2  1  0.49954628  0.91200955  0.90162966  1
  Zr  Zr3  1  0.90729188  0.09784229  0.69850485  1
  Zr  Zr4  1  0.49019660  0.09978521  0.30156758  1
  Zr  Zr5  1  0.10549968  0.70248322  0.09394892  1
  Zr  Zr6  1  0.69820281  0.69180544  0.08860500  1
  Zr  Zr7  1  0.89649487  0.70235094  0.90216669  1
  Zr  Zr8  1  0.88666436  0.69009794  0.50034442  1
  Zr  Zr9  1  0.29651826  0.10637382  0.69614078  1
  Zr  Zr10  1  0.10573848  0.90395487  0.50281660  1
  Zr  Zr11  1  0.10239391  0.70339405  0.70056117  1
  Zr  Zr12  1  0.49923106  0.69883999  0.09842526  1
  Zr  Zr13  1  0.29576925  0.10611197  0.10349386  1
  Zr  Zr14  1  0.70727689  0.09996349  0.50077653  1
  Zr  Zr15  1  0.29121585  0.50118706  0.49277039  1
  Zr  Zr16  1  0.09981037  0.29454453  0.70034533  1
  Zr  Zr17  1  0.29473474  0.49248825  0.29935885  1
  Zr  Zr18  1  0.50046593  0.49339234  0.50850308  1
  Zr  Zr19  1  0.51314344  0.10059891  0.49642444  1
  Zr  Zr20  1  0.49019972  0.49384400  0.70196479  1
  Zr  Zr21  1  0.89869057  0.10313558  0.49783098  1
  Zr  Zr22  1  0.69145965  0.30092172  0.09425001  1
  Zr  Zr23  1  0.10145409  0.30068912  0.30076107  1
  Zr  Zr24  1  0.50086979  0.30807176  0.69068853  1
  Zr  Zr25  1  0.89781920  0.70950376  0.70106883  1
  Zr  Zr26  1  0.69930899  0.09666160  0.30557098  1
  Zr  Zr27  1  0.50375984  0.89833616  0.10117683  1
  Zr  Zr28  1  0.90108345  0.50173334  0.29861647  1
  Zr  Zr29  1  0.30106254  0.30319188  0.91321297  1
  Zr  Zr30  1  0.70749565  0.30036909  0.89070696  1
  Zr  Zr31  1  0.30328827  0.30556236  0.69993064  1
  Zr  Zr32  1  0.08570218  0.10063733  0.90214940  1
  Zr  Zr33  1  0.69062059  0.10775471  0.89564357  1
  Zr  Zr34  1  0.50054470  0.70559826  0.30263846  1
  Zr  Zr35  1  0.69751921  0.70127278  0.49911340  1
  Zr  Zr36  1  0.70626584  0.30020969  0.70416017  1
  Zr  Zr37  1  0.89826378  0.49990052  0.10384784  1
  Zr  Zr38  1  0.90802288  0.90532144  0.90552931  1
  Zr  Zr39  1  0.09797084  0.29665273  0.49077769  1
  Zr  Zr40  1  0.70652789  0.69843210  0.70187931  1
  Zr  Zr41  1  0.50273080  0.49625145  0.29485265  1
  Zr  Zr42  1  0.50879959  0.49726318  0.09724961  1
  Zr  Zr43  1  0.51101230  0.29278864  0.90722944  1
  Zr  Zr44  1  0.29493300  0.70540730  0.49722389  1
  Zr  Zr45  1  0.71020938  0.51285364  0.90401018  1
  Zr  Zr46  1  0.10554767  0.70147690  0.49719012  1
  Zr  Zr47  1  0.70001234  0.29458719  0.50864198  1
  Zr  Zr48  1  0.10426960  0.50100949  0.90148228  1
  Zr  Zr49  1  0.50077240  0.90012144  0.30919339  1
  Sc  Sc50  1  0.29044314  0.89983401  0.49589516  1
  Sc  Sc51  1  0.49914957  0.09502091  0.09401681  1
  Sc  Sc52  1  0.90684117  0.29651052  0.88700015  1
  Sc  Sc53  1  0.10148294  0.10397740  0.29515992  1
  Sc  Sc54  1  0.09962001  0.70058027  0.29215768  1
  Sc  Sc55  1  0.50113967  0.69282977  0.70897648  1
  Sc  Sc56  1  0.09260240  0.89811623  0.10154861  1
  Sc  Sc57  1  0.09535208  0.90819818  0.69973472  1
  Sc  Sc58  1  0.90846507  0.69847568  0.11332366  1
  Sc  Sc59  1  0.09430245  0.29832417  0.10035913  1
  Sc  Sc60  1  0.71266043  0.70606964  0.30626967  1
  Sc  Sc61  1  0.70118466  0.08766711  0.09841212  1
  Sc  Sc62  1  0.69627731  0.90984365  0.49312930  1
  Sc  Sc63  1  0.89600148  0.29872952  0.49163044  1
  Sc  Sc64  1  0.29309507  0.89950351  0.70227013  1
  Sc  Sc65  1  0.88580383  0.91166030  0.50380698  1
  Sc  Sc66  1  0.09076252  0.49984583  0.10028567  1
  Sc  Sc67  1  0.90422689  0.30159517  0.29995170  1
  Sc  Sc68  1  0.69480563  0.49793406  0.70153279  1
  Sc  Sc69  1  0.70955072  0.89954057  0.30209949  1
  Sc  Sc70  1  0.49229700  0.49767397  0.89552346  1
  Sc  Sc71  1  0.90060188  0.10656777  0.29657669  1
  Sc  Sc72  1  0.29494075  0.89466228  0.09845410  1
  Sc  Sc73  1  0.71073955  0.30013219  0.29554403  1
  Sc  Sc74  1  0.69913678  0.91292812  0.91176854  1
  Sc  Sc75  1  0.09536448  0.10023737  0.69090547  1
  Sc  Sc76  1  0.09815986  0.89670395  0.91012221  1
  Sc  Sc77  1  0.69930058  0.49948074  0.10158778  1
  Sc  Sc78  1  0.29459660  0.69960987  0.90479836  1
  Sc  Sc79  1  0.49750074  0.70378758  0.49136531  1
  Sc  Sc80  1  0.71075264  0.50233692  0.50725673  1
  Sc  Sc81  1  0.90605418  0.09467593  0.10106098  1
  Sc  Sc82  1  0.90451451  0.29423599  0.10905492  1
  Sc  Sc83  1  0.30241890  0.90517397  0.30053502  1
  Sc  Sc84  1  0.09998730  0.70110881  0.90320529  1
  Sc  Sc85  1  0.09580624  0.29956022  0.89925696  1
  Sc  Sc86  1  0.09342098  0.09620090  0.10116796  1
  Sc  Sc87  1  0.49513299  0.90750562  0.71363340  1
  Sc  Sc88  1  0.90059410  0.50490946  0.69892214  1
  Sc  Sc89  1  0.70608352  0.49474466  0.29039528  1
  Sc  Sc90  1  0.70072555  0.10969221  0.69495335  1
  Sc  Sc91  1  0.30016892  0.70397282  0.30910216  1
  Sc  Sc92  1  0.90808740  0.49738534  0.89647171  1
  Sc  Sc93  1  0.10139199  0.49226566  0.30310816  1
  Sc  Sc94  1  0.50499967  0.10069953  0.70263516  1
  Sc  Sc95  1  0.30390246  0.89964698  0.89787058  1
  Sc  Sc96  1  0.50127108  0.70161694  0.90530977  1
  Sc  Sc97  1  0.28723608  0.09773293  0.49740677  1
  Sc  Sc98  1  0.29551495  0.29220285  0.50610194  1
  Sc  Sc99  1  0.10268190  0.89875654  0.29066169  1
  Nb  Nb100  1  0.29868973  0.49377982  0.90017802  1
  Nb  Nb101  1  0.89976577  0.30224933  0.70179846  1
  Nb  Nb102  1  0.30050656  0.69273094  0.09704141  1
  Nb  Nb103  1  0.29993259  0.28970021  0.29602566  1
  Nb  Nb104  1  0.50098714  0.30124336  0.49928303  1
  Nb  Nb105  1  0.89954745  0.88828034  0.29260983  1
  Nb  Nb106  1  0.50075744  0.89976327  0.50189011  1
  Nb  Nb107  1  0.09917364  0.49879248  0.49629397  1
  Nb  Nb108  1  0.90557432  0.50100276  0.49847526  1
  Nb  Nb109  1  0.49642358  0.29468313  0.30159220  1
  Nb  Nb110  1  0.89508983  0.89850607  0.10574365  1
  Nb  Nb111  1  0.09404005  0.09722647  0.49748073  1
  Nb  Nb112  1  0.30510848  0.30387746  0.10079300  1
  Nb  Nb113  1  0.29764523  0.70277153  0.69787348  1
  Nb  Nb114  1  0.70651541  0.89804904  0.10399406  1
  Nb  Nb115  1  0.90184941  0.70218847  0.30524145  1
  Nb  Nb116  1  0.50500035  0.30507597  0.09989876  1
  Nb  Nb117  1  0.30311796  0.49794355  0.70547140  1
  Nb  Nb118  1  0.89607046  0.09758030  0.90164914  1
  Nb  Nb119  1  0.30041479  0.11244252  0.29783272  1
  Nb  Nb120  1  0.70929509  0.89750258  0.69747543  1
  Nb  Nb121  1  0.89768935  0.90358149  0.70033006  1
  Nb  Nb122  1  0.30393284  0.49569494  0.08822844  1
  Nb  Nb123  1  0.49992736  0.09669374  0.89464371  1
  Nb  Nb124  1  0.70348611  0.70177106  0.90186657  1
  Nb  Nb125  1  0.19645397  0.00767107  0.80528559  1
  Nb  Nb126  1  0.00071812  0.40298554  0.59469874  1
  Nb  Nb127  1  0.40092315  0.38815468  0.39590485  1
  Nb  Nb128  1  0.80258202  0.39301460  -0.00275253  1
  Nb  Nb129  1  0.20962803  0.59641596  0.19174447  1
  Nb  Nb130  1  0.59362037  0.20138886  0.20137061  1
  Nb  Nb131  1  0.61045621  0.80296821  0.80143215  1
  Nb  Nb132  1  0.40293311  -0.00423658  0.59554558  1
  Nb  Nb133  1  0.59707538  0.39620060  0.40163909  1
  Nb  Nb134  1  0.20260912  0.59658489  0.60642943  1
  Nb  Nb135  1  0.39413424  0.59512689  0.19504429  1
  Nb  Nb136  1  0.60591338  0.80253092  0.19577615  1
  Nb  Nb137  1  -0.00601775  0.80225426  0.59542076  1
  Nb  Nb138  1  -0.00806745  0.80103346  0.40272393  1
  Nb  Nb139  1  0.40351712  0.20097220  0.80559694  1
  Nb  Nb140  1  0.38987337  0.60247885  0.60352736  1
  Nb  Nb141  1  0.59664177  0.80616588  0.60690193  1
  Nb  Nb142  1  0.80359545  -0.00035440  0.79779152  1
  Nb  Nb143  1  0.39793378  0.39365173  0.19751826  1
  Nb  Nb144  1  0.80168878  0.19928632  -0.00509458  1
  Nb  Nb145  1  0.60236144  0.59283715  0.39909788  1
  Nb  Nb146  1  -0.00143887  -0.00550648  0.39764052  1
  Nb  Nb147  1  0.80013556  0.80212456  0.00650220  1
  Nb  Nb148  1  -0.00288071  0.60179840  0.40193794  1
  Nb  Nb149  1  0.40294924  0.80120394  0.60201944  1
  Pd  Pd150  1  0.80636633  0.59651670  0.79533450  1
  Pd  Pd151  1  0.19640819  -0.00257855  -0.00172982  1
  Pd  Pd152  1  0.39574388  -0.00282887  0.00809783  1
  Pd  Pd153  1  0.20702828  0.60199923  0.80195764  1
  Pd  Pd154  1  0.20709642  0.79420203  0.20070235  1
  Pd  Pd155  1  0.80813443  0.40279454  0.60347972  1
  Pd  Pd156  1  0.20277451  0.00221778  0.20078525  1
  Pd  Pd157  1  0.59940037  -0.00182074  0.20560720  1
  Pd  Pd158  1  0.00618588  0.60157093  0.59663439  1
  Pd  Pd159  1  0.59940669  0.60292274  0.80653665  1
  Pd  Pd160  1  0.60109096  0.40494296  0.80417893  1
  Pd  Pd161  1  -0.00181178  0.60334388  0.80282266  1
  Pd  Pd162  1  0.40257921  0.59658984  -0.00289111  1
  Pd  Pd163  1  0.20052806  0.39344991  0.80526963  1
  Pd  Pd164  1  0.79475860  0.81321217  0.81550729  1
  Pd  Pd165  1  0.18969769  0.20134026  0.00577242  1
  Pd  Pd166  1  0.80650659  0.00370360  0.20488649  1
  Pd  Pd167  1  0.59151612  0.60768418  0.59615927  1
  Pd  Pd168  1  0.60566849  0.80555580  -0.00261263  1
  Pd  Pd169  1  0.79689215  0.80452517  0.59058163  1
  Pd  Pd170  1  0.40546813  0.79511934  0.79933454  1
  Pd  Pd171  1  -0.00205919  0.60338760  -0.00045250  1
  Pd  Pd172  1  0.79697204  0.60661652  0.20121454  1
  Pd  Pd173  1  0.19360692  0.00456174  0.38755535  1
  Pd  Pd174  1  0.40588153  0.59222848  0.39963368  1
  Pd  Pd175  1  0.79227718  0.19613639  0.18916134  1
  Pd  Pd176  1  0.19648659  0.40239742  0.59798420  1
  Pd  Pd177  1  0.39377911  0.00242587  0.40859148  1
  Pd  Pd178  1  0.19529440  0.80933697  0.80458157  1
  Pd  Pd179  1  0.39602570  0.80238953  -0.00354064  1
  Pd  Pd180  1  0.59827144  -0.00517750  0.60886542  1
  Pd  Pd181  1  -0.00465514  0.20972065  0.59535860  1
  Pd  Pd182  1  0.19285454  0.20255319  0.19268702  1
  Pd  Pd183  1  0.39166405  0.60588037  0.80306260  1
  Pd  Pd184  1  0.60441201  0.61135885  0.20891342  1
  Pd  Pd185  1  0.79546602  0.40114604  0.40102159  1
  Pd  Pd186  1  0.39370218  0.19890858  0.41172596  1
  Pd  Pd187  1  0.19071591  0.40007197  0.00635764  1
  Pd  Pd188  1  0.61317062  -0.00388395  0.79252633  1
  Pd  Pd189  1  0.60874933  0.20728644  0.39342104  1
  Pd  Pd190  1  0.40706568  0.19832545  0.00245720  1
  Pd  Pd191  1  0.39948162  0.79623531  0.20102236  1
  Pd  Pd192  1  0.20268808  0.19759299  0.80486685  1
  Pd  Pd193  1  0.00584496  0.80603986  0.79583942  1
  Pd  Pd194  1  0.60821254  0.40902327  -0.01287743  1
  Pd  Pd195  1  0.40738644  0.20185216  0.18838245  1
  Pd  Pd196  1  0.20066321  0.40170373  0.18965740  1
  Pd  Pd197  1  0.39289639  -0.00106075  0.19508850  1
  Pd  Pd198  1  0.40710990  0.19009552  0.59876209  1
  Pd  Pd199  1  -0.00818421  0.39262961  -0.00066653  1
  Rh  Rh200  1  0.59720363  0.20283020  0.60353476  1
  Rh  Rh201  1  0.00068385  0.39826233  0.20430060  1
  Rh  Rh202  1  0.19999595  0.19691128  0.39887802  1
  Rh  Rh203  1  0.38615344  0.40544493  0.58916293  1
  Rh  Rh204  1  0.00132433  0.79973000  0.20056518  1
  Rh  Rh205  1  0.39852593  0.38845626  0.81092421  1
  Rh  Rh206  1  0.00116040  0.19141638  0.39544685  1
  Rh  Rh207  1  0.59392116  0.59456484  -0.00981111  1
  Rh  Rh208  1  0.81003080  0.00058983  0.38934667  1
  Rh  Rh209  1  0.19392435  0.80405410  0.38885165  1
  Rh  Rh210  1  -0.00821201  0.79690029  0.00813892  1
  Rh  Rh211  1  0.00180840  -0.00058001  0.80104587  1
  Rh  Rh212  1  0.80813511  0.20168970  0.60315365  1
  Rh  Rh213  1  0.81141383  0.60074985  0.00399631  1
  Rh  Rh214  1  0.19974453  0.59340057  0.00148643  1
  Rh  Rh215  1  0.60330143  0.18860176  0.01035805  1
  Rh  Rh216  1  0.79792120  0.58948316  0.39403244  1
  Rh  Rh217  1  0.01069641  0.59714119  0.20933649  1
  Rh  Rh218  1  -0.00316403  0.40552691  0.40214570  1
  Rh  Rh219  1  0.40634640  0.40015951  -0.00015685  1
  Rh  Rh220  1  -0.00811835  0.20042195  -0.00070327  1
  Rh  Rh221  1  0.20253801  0.80099042  0.00016504  1
  Rh  Rh222  1  -0.00239863  -0.00682574  0.58886089  1
  Rh  Rh223  1  0.19761920  0.79980198  0.60564178  1
  Rh  Rh224  1  0.18835662  0.19721084  0.59263249  1
  Rh  Rh225  1  0.60873374  0.39867799  0.59744855  1
  Rh  Rh226  1  0.80376343  0.80726538  0.40639349  1
  Rh  Rh227  1  0.79887605  0.20111322  0.39733700  1
  Rh  Rh228  1  0.20741213  0.38619190  0.40151012  1
  Rh  Rh229  1  0.80950497  0.19012979  0.79926425  1
  Rh  Rh230  1  0.80580120  0.40778277  0.80205356  1
  Rh  Rh231  1  0.59904637  0.38668410  0.21012621  1
  Rh  Rh232  1  0.00124893  0.39946056  0.79013504  1
  Rh  Rh233  1  -0.00448358  -0.00440969  0.20744901  1
  Rh  Rh234  1  0.59031017  0.20571688  0.79088734  1
  Rh  Rh235  1  0.80503513  0.00047864  -0.00224735  1
  Rh  Rh236  1  0.18704178  0.60337478  0.39143747  1
  Rh  Rh237  1  0.60616251  0.79894701  0.39964732  1
  Rh  Rh238  1  0.38780076  0.01301842  0.79286944  1
  Rh  Rh239  1  0.79470963  0.79100410  0.19282298  1
  Rh  Rh240  1  0.80318597  0.39599079  0.18828980  1
  Rh  Rh241  1  0.79903873  0.59421877  0.60770975  1
  Rh  Rh242  1  0.79586089  0.00755514  0.60903461  1
  Rh  Rh243  1  0.39469740  0.81126865  0.40621158  1
  Rh  Rh244  1  0.60003812  -0.00160345  0.39569012  1
  Rh  Rh245  1  0.59838568  0.00243069  0.00370064  1
  Rh  Rh246  1  0.20379900  0.00325463  0.60847342  1
  Rh  Rh247  1  -0.00109334  0.19736835  0.79739269  1
  Rh  Rh248  1  -0.00164535  -0.00149600  0.00825458  1
  Rh  Rh249  1  0.00442181  0.19866915  0.20338201  1
