# generated using pymatgen
data_ZrScNbPdRh
_symmetry_space_group_name_H-M   'P 1'
_cell_length_a   16.55751075
_cell_length_b   16.55737197
_cell_length_c   16.55856554
_cell_angle_alpha   89.99669139
_cell_angle_beta   90.01079507
_cell_angle_gamma   90.05783718
_symmetry_Int_Tables_number   1
_chemical_formula_structural   ZrScNbPdRh
_chemical_formula_sum   'Zr50 Sc50 Nb50 Pd50 Rh50'
_cell_volume   4539.50953677
_cell_formula_units_Z   50
loop_
 _symmetry_equiv_pos_site_id
 _symmetry_equiv_pos_as_xyz
  1  'x, y, z'
loop_
 _atom_site_type_symbol
 _atom_site_label
 _atom_site_symmetry_multiplicity
 _atom_site_fract_x
 _atom_site_fract_y
 _atom_site_fract_z
 _atom_site_occupancy
  Zr  Zr0  1  0.30509787  0.89800527  0.30194738  1
  Zr  Zr1  1  0.49589561  0.90671856  0.89619893  1
  Zr  Zr2  1  0.70774485  0.50453392  0.50539751  1
  Zr  Zr3  1  0.89968162  0.10392602  0.50242684  1
  Zr  Zr4  1  0.90265997  0.30715030  0.49874043  1
  Zr  Zr5  1  0.69704866  0.09912256  0.50779327  1
  Zr  Zr6  1  0.31032874  0.89824063  0.50495180  1
  Zr  Zr7  1  0.89895310  0.89990330  0.90359827  1
  Zr  Zr8  1  0.49201091  0.89849482  0.30664436  1
  Zr  Zr9  1  0.10613353  0.10169827  0.29692383  1
  Zr  Zr10  1  0.69418481  0.50438892  0.89912886  1
  Zr  Zr11  1  0.30652672  0.50059573  0.48916124  1
  Zr  Zr12  1  0.10606900  0.08934193  0.69440403  1
  Zr  Zr13  1  0.49648714  0.50519324  0.29924048  1
  Zr  Zr14  1  0.89665926  0.50747875  0.89557852  1
  Zr  Zr15  1  0.08992529  0.90583096  0.29667499  1
  Zr  Zr16  1  0.69856951  0.70034135  0.69138315  1
  Zr  Zr17  1  0.69353767  0.50061556  0.09861061  1
  Zr  Zr18  1  0.89948669  0.09368568  0.89739486  1
  Zr  Zr19  1  0.09264409  0.70097879  0.50377281  1
  Zr  Zr20  1  0.49393940  0.10245750  0.89817047  1
  Zr  Zr21  1  0.10561590  0.50321715  0.09172057  1
  Zr  Zr22  1  0.89865549  0.29755173  0.09835759  1
  Zr  Zr23  1  0.09438987  0.50863996  0.70374899  1
  Zr  Zr24  1  0.70347112  0.89941030  0.09643908  1
  Zr  Zr25  1  0.91033273  0.91140542  0.70218336  1
  Zr  Zr26  1  0.49981516  0.70136694  0.90239429  1
  Zr  Zr27  1  0.10130511  0.69560564  0.90531912  1
  Zr  Zr28  1  0.69524133  0.50205878  0.70197169  1
  Zr  Zr29  1  0.10809702  0.10144223  0.09872128  1
  Zr  Zr30  1  0.90738991  0.29715623  0.90383638  1
  Zr  Zr31  1  0.49612056  0.10200362  0.09917996  1
  Zr  Zr32  1  0.10473564  0.29803330  0.90708698  1
  Zr  Zr33  1  0.69819533  0.89261339  0.50445801  1
  Zr  Zr34  1  0.50012562  0.69322177  0.09882568  1
  Zr  Zr35  1  0.89804379  0.70227198  0.90429116  1
  Zr  Zr36  1  0.70044747  0.29079660  0.49703230  1
  Zr  Zr37  1  0.90907416  0.70130614  0.09472016  1
  Zr  Zr38  1  0.30026639  0.29985114  0.89520418  1
  Zr  Zr39  1  0.10374235  0.49300816  0.29852519  1
  Zr  Zr40  1  0.90327303  0.89777910  0.09619903  1
  Zr  Zr41  1  0.69863828  0.30028907  0.10904718  1
  Zr  Zr42  1  0.49506568  0.49906260  0.50219441  1
  Zr  Zr43  1  0.90268979  0.29667579  0.69145987  1
  Zr  Zr44  1  0.50298138  0.49849524  0.70349703  1
  Zr  Zr45  1  0.50258111  0.89424981  0.10492797  1
  Zr  Zr46  1  0.30784205  0.69764349  0.30254623  1
  Zr  Zr47  1  0.89661150  0.90276378  0.49786415  1
  Zr  Zr48  1  0.29700729  0.10418251  0.29306325  1
  Zr  Zr49  1  0.68985991  0.70066832  0.10035616  1
  Sc  Sc50  1  0.49440662  0.10192180  0.51416835  1
  Sc  Sc51  1  0.69671930  0.89527730  0.30932000  1
  Sc  Sc52  1  0.68707870  0.30065781  0.70012322  1
  Sc  Sc53  1  0.30355773  0.70897197  0.69745652  1
  Sc  Sc54  1  0.30451926  0.49756085  0.29890093  1
  Sc  Sc55  1  0.08917246  0.49177116  0.48978492  1
  Sc  Sc56  1  0.89581199  0.49899893  0.09248941  1
  Sc  Sc57  1  0.10663377  0.10684890  0.89341975  1
  Sc  Sc58  1  0.30506914  0.70545736  0.89800852  1
  Sc  Sc59  1  0.29455109  0.90103290  0.70006402  1
  Sc  Sc60  1  0.29838171  0.90262316  0.08932778  1
  Sc  Sc61  1  0.90474932  0.70105012  0.31039941  1
  Sc  Sc62  1  0.11508618  0.90143399  0.89704761  1
  Sc  Sc63  1  0.30265244  0.70185738  0.50148283  1
  Sc  Sc64  1  0.69327355  0.09759046  0.89645353  1
  Sc  Sc65  1  0.50392625  0.30267198  0.29395894  1
  Sc  Sc66  1  0.49357113  0.69603433  0.70359798  1
  Sc  Sc67  1  0.90061427  0.49581040  0.31368568  1
  Sc  Sc68  1  0.29902644  0.49421900  0.71621613  1
  Sc  Sc69  1  0.30354163  0.29737318  0.70503086  1
  Sc  Sc70  1  0.49478024  0.50101006  0.89689110  1
  Sc  Sc71  1  0.68346076  0.30344537  0.89965057  1
  Sc  Sc72  1  0.69939203  0.29891105  0.29804585  1
  Sc  Sc73  1  0.10196664  0.28985655  0.70186041  1
  Sc  Sc74  1  0.49380160  0.30059671  0.70280681  1
  Sc  Sc75  1  0.50159737  0.30003703  0.09555373  1
  Sc  Sc76  1  0.69770468  0.90759271  0.68980065  1
  Sc  Sc77  1  0.49959535  0.70337426  0.29100214  1
  Sc  Sc78  1  0.29118197  0.30201252  0.29894161  1
  Sc  Sc79  1  0.30894856  0.70338514  0.09263003  1
  Sc  Sc80  1  0.30245837  0.09824540  0.90042563  1
  Sc  Sc81  1  0.69703909  0.10938726  0.29996918  1
  Sc  Sc82  1  0.10120787  0.89617873  0.09583274  1
  Sc  Sc83  1  0.29993007  0.10160846  0.51107498  1
  Sc  Sc84  1  0.70149851  0.49322320  0.29790379  1
  Sc  Sc85  1  0.90758243  0.10039083  0.69852038  1
  Sc  Sc86  1  0.69700695  0.69580060  0.90547739  1
  Sc  Sc87  1  0.10287019  0.70339140  0.69622654  1
  Sc  Sc88  1  0.49857114  0.09724802  0.29114575  1
  Sc  Sc89  1  0.30144647  0.29987179  0.50128733  1
  Sc  Sc90  1  0.30286345  0.29963726  0.09679807  1
  Sc  Sc91  1  0.49884782  0.09820677  0.70499681  1
  Sc  Sc92  1  0.91002243  0.68246860  0.69762279  1
  Sc  Sc93  1  0.89907968  0.10106210  0.10051091  1
  Sc  Sc94  1  0.70700558  0.90214121  0.90551933  1
  Sc  Sc95  1  0.49359917  0.70543032  0.50420120  1
  Sc  Sc96  1  0.09113690  0.69270265  0.30266655  1
  Sc  Sc97  1  0.09760101  0.90044096  0.51572563  1
  Sc  Sc98  1  0.49652167  0.50112593  0.10323528  1
  Sc  Sc99  1  0.88856709  0.29995820  0.30150597  1
  Nb  Nb100  1  0.49459389  0.29349405  0.89291456  1
  Nb  Nb101  1  0.09403492  0.29482660  0.09893616  1
  Nb  Nb102  1  0.30306611  0.10532574  0.09652136  1
  Nb  Nb103  1  0.49725310  0.90228748  0.69600271  1
  Nb  Nb104  1  0.10134662  0.29302422  0.49370477  1
  Nb  Nb105  1  0.90262577  0.91058005  0.29683454  1
  Nb  Nb106  1  0.30502333  0.90137697  0.89532869  1
  Nb  Nb107  1  0.10150471  0.90003812  0.70092892  1
  Nb  Nb108  1  0.30187908  0.10008173  0.70166045  1
  Nb  Nb109  1  0.69972678  0.10144957  0.10352340  1
  Nb  Nb110  1  0.88876896  0.68913481  0.50063415  1
  Nb  Nb111  1  0.10748633  0.10549802  0.49971282  1
  Nb  Nb112  1  0.50064419  0.90596755  0.50628282  1
  Nb  Nb113  1  0.49294337  0.30204946  0.49744646  1
  Nb  Nb114  1  0.10302488  0.29715014  0.29998374  1
  Nb  Nb115  1  0.28869296  0.49410076  0.90592698  1
  Nb  Nb116  1  0.11409822  0.49609972  0.89227493  1
  Nb  Nb117  1  0.90899402  0.09131709  0.29887340  1
  Nb  Nb118  1  0.71103823  0.70242559  0.49334590  1
  Nb  Nb119  1  0.30534253  0.50467044  0.09536573  1
  Nb  Nb120  1  0.70462338  0.69603816  0.30574235  1
  Nb  Nb121  1  0.69844586  0.10912249  0.69986660  1
  Nb  Nb122  1  0.89550068  0.49856472  0.51177172  1
  Nb  Nb123  1  0.10170966  0.70178530  0.10062272  1
  Nb  Nb124  1  0.89971668  0.49447198  0.69676100  1
  Nb  Nb125  1  0.80442463  0.39840326  0.79727705  1
  Nb  Nb126  1  0.59370176  -0.00169962  0.40926253  1
  Nb  Nb127  1  0.80250933  -0.00246939  0.20488957  1
  Nb  Nb128  1  0.60680466  0.60393075  0.40287380  1
  Nb  Nb129  1  0.19969547  0.59101834  0.59575506  1
  Nb  Nb130  1  0.40142450  0.20217389  0.40090553  1
  Nb  Nb131  1  0.20084952  -0.00175182  0.40347770  1
  Nb  Nb132  1  0.59647639  0.40329350  0.40759434  1
  Nb  Nb133  1  0.19707362  0.40398171  0.59801418  1
  Nb  Nb134  1  0.80273315  0.79979655  0.79465430  1
  Nb  Nb135  1  0.80365118  0.79973559  0.20459218  1
  Nb  Nb136  1  0.60179070  0.80414828  0.79683698  1
  Nb  Nb137  1  0.00603475  0.39243407  0.19822415  1
  Nb  Nb138  1  -0.00003383  0.40518143  0.80191481  1
  Nb  Nb139  1  0.59703771  0.00251660  0.00649482  1
  Nb  Nb140  1  0.00550682  0.19858474  0.39624553  1
  Nb  Nb141  1  0.79465174  0.19975490  -0.00268975  1
  Nb  Nb142  1  0.79756681  0.20432116  0.80055077  1
  Nb  Nb143  1  0.00177088  0.00090716  -0.00347981  1
  Nb  Nb144  1  0.19633429  0.80548927  0.39743509  1
  Nb  Nb145  1  0.20053146  0.60253198  0.19341807  1
  Nb  Nb146  1  0.00289148  0.20221564  0.20492565  1
  Nb  Nb147  1  0.19789352  0.79269735  0.20250065  1
  Nb  Nb148  1  -0.00002686  0.80319864  0.79973031  1
  Nb  Nb149  1  0.79933411  0.60777583  0.20269901  1
  Pd  Pd150  1  0.21029488  0.60807015  0.00151182  1
  Pd  Pd151  1  0.40380284  0.40023067  -0.00528250  1
  Pd  Pd152  1  0.40052676  0.01498323  0.40539057  1
  Pd  Pd153  1  0.80193973  0.00497084  0.60603867  1
  Pd  Pd154  1  0.19794460  0.79666852  0.79949679  1
  Pd  Pd155  1  0.59112148  0.79677929  0.40200860  1
  Pd  Pd156  1  -0.00179547  0.80381033  0.40561133  1
  Pd  Pd157  1  0.39257631  -0.00415982  0.19070018  1
  Pd  Pd158  1  0.58686538  0.19742054  0.39772652  1
  Pd  Pd159  1  0.81304642  0.79691428  0.60858197  1
  Pd  Pd160  1  0.00359944  0.41004070  -0.00336846  1
  Pd  Pd161  1  0.39953362  0.20942244  0.20442654  1
  Pd  Pd162  1  0.59971808  0.39431114  0.59470622  1
  Pd  Pd163  1  0.60268789  0.19589679  0.00044525  1
  Pd  Pd164  1  0.40129842  0.80532089  -0.00000194  1
  Pd  Pd165  1  0.00987187  0.00464325  0.41196819  1
  Pd  Pd166  1  -0.00355283  0.58898855  0.20131063  1
  Pd  Pd167  1  0.19763287  0.60698301  0.40065074  1
  Pd  Pd168  1  0.59118283  0.79543204  0.60401832  1
  Pd  Pd169  1  0.19980557  0.00420134  -0.00549520  1
  Pd  Pd170  1  0.80856914  0.40990674  0.20128376  1
  Pd  Pd171  1  0.38995051  0.40113326  0.60730254  1
  Pd  Pd172  1  0.38913070  0.59441328  0.60723715  1
  Pd  Pd173  1  0.20340496  0.39716714  0.40560433  1
  Pd  Pd174  1  0.78823836  0.00519013  0.39460327  1
  Pd  Pd175  1  0.20290826  0.39218176  0.00831746  1
  Pd  Pd176  1  -0.00639809  0.59449393  0.40672687  1
  Pd  Pd177  1  0.20576047  0.20741477  0.60420696  1
  Pd  Pd178  1  0.20019291  0.40199406  0.18988804  1
  Pd  Pd179  1  0.58867150  0.20312973  0.60567228  1
  Pd  Pd180  1  0.01170519  0.39832480  0.60516799  1
  Pd  Pd181  1  0.80955924  0.80449625  0.39493641  1
  Pd  Pd182  1  0.00364933  0.59178582  -0.00629761  1
  Pd  Pd183  1  0.80571241  0.19359589  0.39583939  1
  Pd  Pd184  1  0.39856235  0.39687769  0.20038212  1
  Pd  Pd185  1  0.60525987  0.80116548  0.20891215  1
  Pd  Pd186  1  0.00025664  0.79670807  0.20316963  1
  Pd  Pd187  1  0.79064490  0.00210879  0.79144203  1
  Pd  Pd188  1  -0.00045205  0.20071177  0.79841194  1
  Pd  Pd189  1  0.58828416  0.40295339  -0.00176590  1
  Pd  Pd190  1  -0.01066580  0.79706725  0.60590091  1
  Pd  Pd191  1  0.60826704  -0.00128869  0.20590144  1
  Pd  Pd192  1  0.79163368  0.39290422  -0.01009012  1
  Pd  Pd193  1  0.79659519  0.60261178  0.79366312  1
  Pd  Pd194  1  0.78992766  0.39196106  0.60577253  1
  Pd  Pd195  1  0.20696993  -0.01013349  0.19928773  1
  Pd  Pd196  1  0.39233950  0.59797003  0.80540143  1
  Pd  Pd197  1  0.60569107  -0.00492622  0.80072419  1
  Pd  Pd198  1  0.59695462  0.60933854  0.59174928  1
  Pd  Pd199  1  0.20809471  0.61065548  0.79288345  1
  Rh  Rh200  1  0.40302660  0.80408668  0.60609912  1
  Rh  Rh201  1  0.20642910  0.00198854  0.79809659  1
  Rh  Rh202  1  0.39701172  0.59405117  -0.00654253  1
  Rh  Rh203  1  0.79620012  0.60503615  0.01305630  1
  Rh  Rh204  1  0.79990166  0.59257189  0.39696392  1
  Rh  Rh205  1  0.40436543  0.38941954  0.39068130  1
  Rh  Rh206  1  0.39663199  0.20175526  -0.00346060  1
  Rh  Rh207  1  0.19233410  0.39218802  0.79272899  1
  Rh  Rh208  1  0.00345390  0.60049696  0.80838520  1
  Rh  Rh209  1  -0.00249380  0.38801418  0.39194839  1
  Rh  Rh210  1  0.59890124  0.20004548  0.79693301  1
  Rh  Rh211  1  -0.00261921  0.18679701  0.00559196  1
  Rh  Rh212  1  0.41203754  0.60843754  0.39823160  1
  Rh  Rh213  1  0.59708706  0.81104955  -0.01322063  1
  Rh  Rh214  1  0.40217567  0.79594025  0.40507391  1
  Rh  Rh215  1  0.59819400  0.60990185  0.80037813  1
  Rh  Rh216  1  0.60686519  0.59660797  0.20858464  1
  Rh  Rh217  1  0.59832153  0.00468260  0.59967553  1
  Rh  Rh218  1  0.79725786  0.01301836  0.00904698  1
  Rh  Rh219  1  0.20167849  0.79544743  0.59289255  1
  Rh  Rh220  1  0.39818557  0.00010610  0.61005734  1
  Rh  Rh221  1  0.39904665  0.20257089  0.60005315  1
  Rh  Rh222  1  0.39138464  0.59941765  0.19650881  1
  Rh  Rh223  1  0.79732340  0.20092533  0.60732317  1
  Rh  Rh224  1  0.20448473  0.19677483  0.79739428  1
  Rh  Rh225  1  0.01487987  0.80951150  -0.01197998  1
  Rh  Rh226  1  0.20095055  0.20716102  0.18906144  1
  Rh  Rh227  1  0.79097386  0.40070346  0.40700960  1
  Rh  Rh228  1  0.00326989  0.00501351  0.59480639  1
  Rh  Rh229  1  0.79326595  0.78839765  0.00168083  1
  Rh  Rh230  1  0.20651005  0.19365226  0.40297802  1
  Rh  Rh231  1  0.00543946  0.19662549  0.59038279  1
  Rh  Rh232  1  0.59775721  0.40121967  0.20452869  1
  Rh  Rh233  1  0.01610624  -0.00580488  0.80753194  1
  Rh  Rh234  1  0.59594244  0.39984636  0.80187110  1
  Rh  Rh235  1  0.39786620  0.19634703  0.79827305  1
  Rh  Rh236  1  0.80103163  0.60145270  0.60660563  1
  Rh  Rh237  1  0.80520821  0.19070781  0.19892762  1
  Rh  Rh238  1  0.40137927  0.40056143  0.80744106  1
  Rh  Rh239  1  0.20311931  -0.00288787  0.59741538  1
  Rh  Rh240  1  0.59720551  0.20318108  0.19886605  1
  Rh  Rh241  1  0.39131997  -0.00115476  0.79395737  1
  Rh  Rh242  1  0.39406004  0.80120281  0.19258971  1
  Rh  Rh243  1  0.40618981  0.80919534  0.79607841  1
  Rh  Rh244  1  0.20786466  0.20090731  0.00142389  1
  Rh  Rh245  1  0.40286505  0.00044305  0.00240805  1
  Rh  Rh246  1  -0.00276493  0.00673982  0.18527649  1
  Rh  Rh247  1  0.59121918  0.59275979  -0.00141957  1
  Rh  Rh248  1  0.20391433  0.79761197  0.00180057  1
  Rh  Rh249  1  0.00218239  0.59400745  0.59017651  1
