# generated using pymatgen
data_ZrScNbPdRh
_symmetry_space_group_name_H-M   'P 1'
_cell_length_a   16.56657962
_cell_length_b   16.55941809
_cell_length_c   16.55819865
_cell_angle_alpha   90.01990927
_cell_angle_beta   90.01807833
_cell_angle_gamma   90.02695483
_symmetry_Int_Tables_number   1
_chemical_formula_structural   ZrScNbPdRh
_chemical_formula_sum   'Zr50 Sc50 Nb50 Pd50 Rh50'
_cell_volume   4542.45795487
_cell_formula_units_Z   50
loop_
 _symmetry_equiv_pos_site_id
 _symmetry_equiv_pos_as_xyz
  1  'x, y, z'
loop_
 _atom_site_type_symbol
 _atom_site_label
 _atom_site_symmetry_multiplicity
 _atom_site_fract_x
 _atom_site_fract_y
 _atom_site_fract_z
 _atom_site_occupancy
  Zr  Zr0  1  0.10303260  0.70660104  0.50367946  1
  Zr  Zr1  1  0.30461101  0.90962099  0.70323894  1
  Zr  Zr2  1  0.30037987  0.10927100  0.09967773  1
  Zr  Zr3  1  0.08450542  0.70131191  0.89949427  1
  Zr  Zr4  1  0.90305573  0.28056985  0.69180362  1
  Zr  Zr5  1  0.11184316  0.90288674  0.49957136  1
  Zr  Zr6  1  0.09886227  0.49197140  0.50443915  1
  Zr  Zr7  1  0.10863104  0.70238288  0.29899478  1
  Zr  Zr8  1  0.29314758  0.10021924  0.89680233  1
  Zr  Zr9  1  0.70527244  0.49706024  0.89506902  1
  Zr  Zr10  1  0.90053554  0.50919655  0.89737907  1
  Zr  Zr11  1  0.30114789  0.50199153  0.50156935  1
  Zr  Zr12  1  0.90261996  0.30001804  0.09802952  1
  Zr  Zr13  1  0.49241564  0.70405625  0.29492340  1
  Zr  Zr14  1  0.89711724  0.90571958  0.10189916  1
  Zr  Zr15  1  0.49943854  0.90368762  0.29965421  1
  Zr  Zr16  1  0.09215141  0.49401620  0.09589650  1
  Zr  Zr17  1  0.89608803  0.10255254  0.51599570  1
  Zr  Zr18  1  0.30546542  0.30275863  0.30374696  1
  Zr  Zr19  1  0.30646124  0.69790062  0.89871141  1
  Zr  Zr20  1  0.70494116  0.50011718  0.29797223  1
  Zr  Zr21  1  0.50259520  0.28919535  0.29346683  1
  Zr  Zr22  1  0.29997350  0.49421128  0.89340245  1
  Zr  Zr23  1  0.10215004  0.90077317  0.90598730  1
  Zr  Zr24  1  0.50312739  0.09457888  0.30672617  1
  Zr  Zr25  1  0.89839592  0.49556304  0.50296151  1
  Zr  Zr26  1  0.50679023  0.90591398  0.70281202  1
  Zr  Zr27  1  0.10597416  0.88810778  0.10198178  1
  Zr  Zr28  1  0.29951111  0.50879980  0.31043162  1
  Zr  Zr29  1  0.50426201  0.69515826  0.69858660  1
  Zr  Zr30  1  0.91478914  0.70198205  0.70549502  1
  Zr  Zr31  1  0.29384098  0.29815382  0.91025002  1
  Zr  Zr32  1  0.69559708  0.70130260  0.10603863  1
  Zr  Zr33  1  0.50526145  0.70084250  0.50227599  1
  Zr  Zr34  1  0.90132878  0.10033997  0.89229959  1
  Zr  Zr35  1  0.89500040  0.70101301  0.29853354  1
  Zr  Zr36  1  0.29792235  0.70003297  0.49002588  1
  Zr  Zr37  1  0.70814545  0.88939690  0.50589887  1
  Zr  Zr38  1  0.90837999  0.89702675  0.90398591  1
  Zr  Zr39  1  0.30352776  0.89976574  0.29241560  1
  Zr  Zr40  1  0.69258753  0.09297954  0.90010915  1
  Zr  Zr41  1  0.70081803  0.90263868  0.10038801  1
  Zr  Zr42  1  0.89065375  0.70652353  0.50563922  1
  Zr  Zr43  1  0.50664449  0.69168251  0.10028334  1
  Zr  Zr44  1  0.49790947  0.11149672  0.10722770  1
  Zr  Zr45  1  0.69406934  0.69633080  0.50330186  1
  Zr  Zr46  1  0.49854020  0.50474112  0.50725636  1
  Zr  Zr47  1  0.29878718  0.09617087  0.50268661  1
  Zr  Zr48  1  0.49805381  0.49902627  0.90036269  1
  Zr  Zr49  1  0.29888868  0.49802584  0.69943951  1
  Sc  Sc50  1  0.10059344  0.10619390  0.69695899  1
  Sc  Sc51  1  0.30013686  0.90593733  0.49805849  1
  Sc  Sc52  1  0.49326592  0.49038253  0.69908210  1
  Sc  Sc53  1  0.89678367  0.10983814  0.29333211  1
  Sc  Sc54  1  0.89945402  0.30081738  0.49867248  1
  Sc  Sc55  1  0.69939859  0.08965546  0.10253977  1
  Sc  Sc56  1  0.69261678  0.10578861  0.29577361  1
  Sc  Sc57  1  0.70046997  0.29773638  0.10643494  1
  Sc  Sc58  1  0.29693611  0.29717896  0.70540680  1
  Sc  Sc59  1  0.90035657  0.49689963  0.09917213  1
  Sc  Sc60  1  0.70457854  0.69605145  0.90795288  1
  Sc  Sc61  1  0.70158414  0.51127826  0.09885495  1
  Sc  Sc62  1  0.49262565  0.50776462  0.29978653  1
  Sc  Sc63  1  0.89570866  0.09997554  0.09894568  1
  Sc  Sc64  1  0.70259542  0.10186790  0.69054449  1
  Sc  Sc65  1  0.29080053  0.30310758  0.50539532  1
  Sc  Sc66  1  0.09721468  0.10573090  0.09837520  1
  Sc  Sc67  1  0.10304620  0.30164839  0.69510712  1
  Sc  Sc68  1  0.50344144  0.90873709  0.49538533  1
  Sc  Sc69  1  0.10940111  0.10934931  0.49567141  1
  Sc  Sc70  1  0.09798549  0.90115969  0.69487298  1
  Sc  Sc71  1  0.69676615  0.90105015  0.90686420  1
  Sc  Sc72  1  0.90992508  0.69526307  0.09595745  1
  Sc  Sc73  1  0.09728142  0.49436974  0.70389831  1
  Sc  Sc74  1  0.30868189  0.48769615  0.09212672  1
  Sc  Sc75  1  0.69538657  0.10530688  0.49533202  1
  Sc  Sc76  1  0.69780809  0.70546098  0.69151493  1
  Sc  Sc77  1  0.09774262  0.49606808  0.30420523  1
  Sc  Sc78  1  0.09864263  0.30084169  0.08747925  1
  Sc  Sc79  1  0.89294024  0.30201686  0.30040014  1
  Sc  Sc80  1  0.89969874  0.50106732  0.69807993  1
  Sc  Sc81  1  0.90231250  0.30468577  0.89422025  1
  Sc  Sc82  1  0.69326015  0.70167739  0.30229499  1
  Sc  Sc83  1  0.49880787  0.69904880  0.90355048  1
  Sc  Sc84  1  0.09775447  0.48990234  0.89805038  1
  Sc  Sc85  1  0.70058829  0.30858651  0.88579032  1
  Sc  Sc86  1  0.50066122  0.90037742  0.89162340  1
  Sc  Sc87  1  0.50144900  0.09722496  0.50810776  1
  Sc  Sc88  1  0.69859936  0.30654311  0.69319778  1
  Sc  Sc89  1  0.89952335  0.49736105  0.29129679  1
  Sc  Sc90  1  0.49466157  0.09276752  0.89767302  1
  Sc  Sc91  1  0.30641838  0.69187858  0.70541815  1
  Sc  Sc92  1  0.29868394  0.10328607  0.69849455  1
  Sc  Sc93  1  0.69441024  0.90841760  0.29831814  1
  Sc  Sc94  1  0.48617545  0.30371025  0.89342292  1
  Sc  Sc95  1  0.31009934  0.71225447  0.09762437  1
  Sc  Sc96  1  0.11304154  0.89817936  0.29586389  1
  Sc  Sc97  1  0.10198021  0.10408045  0.89955468  1
  Sc  Sc98  1  0.49902581  0.88947741  0.10567373  1
  Sc  Sc99  1  0.89887409  0.90194376  0.51135283  1
  Nb  Nb100  1  0.70077941  0.30543195  0.49090716  1
  Nb  Nb101  1  0.30545423  0.29613462  0.10232023  1
  Nb  Nb102  1  0.10411638  0.10281957  0.30415064  1
  Nb  Nb103  1  0.90461631  0.70257856  0.89404769  1
  Nb  Nb104  1  0.29628540  0.09749400  0.30653544  1
  Nb  Nb105  1  0.49946906  0.29382961  0.69869951  1
  Nb  Nb106  1  0.10158451  0.28897884  0.31339637  1
  Nb  Nb107  1  0.49721763  0.09838692  0.70074749  1
  Nb  Nb108  1  0.29977772  0.69725517  0.30109988  1
  Nb  Nb109  1  0.10556277  0.30312222  0.89798927  1
  Nb  Nb110  1  0.89686830  0.90797790  0.69819548  1
  Nb  Nb111  1  0.89827622  0.90106309  0.30306651  1
  Nb  Nb112  1  0.29963295  0.89950669  0.90436359  1
  Nb  Nb113  1  0.10353809  0.69386546  0.10064901  1
  Nb  Nb114  1  0.69580117  0.30059203  0.30757163  1
  Nb  Nb115  1  0.70292224  0.89912810  0.70446444  1
  Nb  Nb116  1  0.48738067  0.30026316  0.09970376  1
  Nb  Nb117  1  0.50461294  0.29642783  0.50100283  1
  Nb  Nb118  1  0.69487421  0.49602614  0.70292689  1
  Nb  Nb119  1  0.70122885  0.49533135  0.50521850  1
  Nb  Nb120  1  0.89860335  0.09485927  0.69758889  1
  Nb  Nb121  1  0.29914312  0.90074610  0.09394267  1
  Nb  Nb122  1  0.09660036  0.30036099  0.49976100  1
  Nb  Nb123  1  0.10386242  0.70229640  0.70326682  1
  Nb  Nb124  1  0.50703101  0.49783881  0.09737891  1
  Nb  Nb125  1  -0.00158127  0.80436995  0.39944177  1
  Nb  Nb126  1  -0.00091218  0.00025176  0.39568651  1
  Nb  Nb127  1  0.80135298  0.80398293  0.19984846  1
  Nb  Nb128  1  0.80280071  -0.00330430  0.79381065  1
  Nb  Nb129  1  0.59251787  0.19950953  0.79467289  1
  Nb  Nb130  1  0.80727476  0.80451529  0.79996051  1
  Nb  Nb131  1  0.79971920  0.59663376  0.40742677  1
  Nb  Nb132  1  -0.00460921  0.60639919  0.40506227  1
  Nb  Nb133  1  0.60453741  0.59208904  0.79727507  1
  Nb  Nb134  1  0.00355149  0.00057494  0.20842286  1
  Nb  Nb135  1  0.59718701  0.20777342  -0.00443451  1
  Nb  Nb136  1  0.19953350  0.20611178  0.20815243  1
  Nb  Nb137  1  0.59456128  0.39574212  0.00521313  1
  Nb  Nb138  1  0.39173702  -0.00503844  0.00217980  1
  Nb  Nb139  1  0.19992439  0.80048094  0.80367392  1
  Nb  Nb140  1  0.20319384  0.59668171  0.19257705  1
  Nb  Nb141  1  0.60153932  0.39732037  0.40044702  1
  Nb  Nb142  1  0.19701034  0.60264212  0.60154323  1
  Nb  Nb143  1  0.40068667  0.19828227  0.40305293  1
  Nb  Nb144  1  0.79293213  0.19994255  -0.00673877  1
  Nb  Nb145  1  0.19697853  0.60073213  0.00317617  1
  Nb  Nb146  1  0.80628644  -0.00039072  0.40042781  1
  Nb  Nb147  1  0.20220651  0.39433141  0.20116731  1
  Nb  Nb148  1  0.59497283  0.39832262  0.19955571  1
  Nb  Nb149  1  0.40358406  0.80196610  0.60115299  1
  Pd  Pd150  1  0.00045542  0.80626882  0.59854072  1
  Pd  Pd151  1  0.00598778  0.59790715  0.20708147  1
  Pd  Pd152  1  0.61124331  0.78928206  0.80705988  1
  Pd  Pd153  1  0.01200604  0.00708678  0.59306341  1
  Pd  Pd154  1  0.00607445  0.20229513  0.20051692  1
  Pd  Pd155  1  -0.00569913  0.39554161  0.79357179  1
  Pd  Pd156  1  0.00324790  0.00012234  0.79609722  1
  Pd  Pd157  1  0.19318705  -0.00307586  0.79551557  1
  Pd  Pd158  1  0.19809954  0.39929702  0.39855226  1
  Pd  Pd159  1  0.80462872  0.39390721  0.60524873  1
  Pd  Pd160  1  0.81181107  0.39620254  0.78803313  1
  Pd  Pd161  1  0.80569714  0.60445215  0.00478345  1
  Pd  Pd162  1  -0.00962271  0.19348641  0.40528716  1
  Pd  Pd163  1  0.60732812  -0.00177556  0.59866852  1
  Pd  Pd164  1  0.39670025  0.20337633  0.59484954  1
  Pd  Pd165  1  0.00941103  0.38560514  0.20616187  1
  Pd  Pd166  1  0.80313247  0.19351960  0.40252658  1
  Pd  Pd167  1  0.41010557  0.39313830  0.40536121  1
  Pd  Pd168  1  -0.00319493  0.80426384  0.20195616  1
  Pd  Pd169  1  0.79313974  0.39872175  0.19434840  1
  Pd  Pd170  1  0.00940745  0.20267894  0.79947960  1
  Pd  Pd171  1  0.00784140  0.59870519  0.59959736  1
  Pd  Pd172  1  0.58226161  0.00168849  0.00871080  1
  Pd  Pd173  1  0.40081141  0.00294923  0.19348033  1
  Pd  Pd174  1  0.60152273  0.59292582  0.39573290  1
  Pd  Pd175  1  0.21519076  0.79529633  0.61330393  1
  Pd  Pd176  1  0.00335952  0.00409162  0.00954958  1
  Pd  Pd177  1  0.19947192  0.00617099  0.00663612  1
  Pd  Pd178  1  0.39666744  0.38903666  0.60104014  1
  Pd  Pd179  1  0.59467386  0.80184945  -0.00450990  1
  Pd  Pd180  1  0.80578377  0.79375893  0.00170261  1
  Pd  Pd181  1  -0.00649994  0.20202312  -0.00778755  1
  Pd  Pd182  1  0.39749188  0.80120267  0.79550807  1
  Pd  Pd183  1  0.78869553  0.19350626  0.80005476  1
  Pd  Pd184  1  0.39396955  0.59823154  0.00518160  1
  Pd  Pd185  1  0.39958302  0.80551685  0.40541055  1
  Pd  Pd186  1  0.79466228  0.59833477  0.60546167  1
  Pd  Pd187  1  0.79375996  0.61134208  0.79034546  1
  Pd  Pd188  1  0.79313860  0.19826977  0.19401326  1
  Pd  Pd189  1  0.20025150  0.78875948  -0.00580982  1
  Pd  Pd190  1  -0.00679180  0.40150720  0.39493205  1
  Pd  Pd191  1  0.19122509  0.60279668  0.80364224  1
  Pd  Pd192  1  0.79323202  0.39359044  0.00422322  1
  Pd  Pd193  1  0.59726304  0.39884007  0.59725380  1
  Pd  Pd194  1  0.60481325  0.20207553  0.60262957  1
  Pd  Pd195  1  0.39178954  0.59658175  0.18924328  1
  Pd  Pd196  1  0.40095258  0.40749098  0.20330826  1
  Pd  Pd197  1  0.39996416  0.19629883  0.80197699  1
  Pd  Pd198  1  0.60168700  0.80532357  0.39631384  1
  Pd  Pd199  1  0.19559503  0.00887363  0.19455231  1
  Rh  Rh200  1  0.59176775  0.81132751  0.59915426  1
  Rh  Rh201  1  0.59322215  -0.00162540  0.19626797  1
  Rh  Rh202  1  0.79134818  0.00070295  0.59841435  1
  Rh  Rh203  1  0.39768681  0.79975302  0.19937555  1
  Rh  Rh204  1  0.21140688  0.79059815  0.19838624  1
  Rh  Rh205  1  0.19573542  0.20239988  0.00376718  1
  Rh  Rh206  1  0.79120009  0.20616341  0.59463260  1
  Rh  Rh207  1  0.20040720  0.39417634  0.79976638  1
  Rh  Rh208  1  0.80431792  0.00883662  -0.01177738  1
  Rh  Rh209  1  -0.00349890  0.39141355  0.60313475  1
  Rh  Rh210  1  0.19871172  -0.00314495  0.39687074  1
  Rh  Rh211  1  0.40432625  0.19227558  -0.00837035  1
  Rh  Rh212  1  0.18863943  0.59672381  0.40284413  1
  Rh  Rh213  1  0.80455084  -0.00150207  0.21046385  1
  Rh  Rh214  1  0.00493520  0.59263919  0.79919645  1
  Rh  Rh215  1  0.20405763  0.80756216  0.39280119  1
  Rh  Rh216  1  0.00781427  0.19843261  0.59438733  1
  Rh  Rh217  1  0.39717807  0.00428029  0.80561681  1
  Rh  Rh218  1  -0.00731176  0.39969056  -0.00822869  1
  Rh  Rh219  1  0.19822574  0.20428776  0.59902660  1
  Rh  Rh220  1  0.40195658  -0.00383287  0.60144588  1
  Rh  Rh221  1  0.40783031  0.80871839  -0.00244024  1
  Rh  Rh222  1  0.59177215  0.39791080  0.80128942  1
  Rh  Rh223  1  0.60557387  0.80254896  0.20407287  1
  Rh  Rh224  1  0.61110665  0.00076906  0.40455276  1
  Rh  Rh225  1  0.39512920  0.39585895  0.79488329  1
  Rh  Rh226  1  0.79970832  0.80148226  0.39352833  1
  Rh  Rh227  1  0.80413093  0.79845667  0.61448748  1
  Rh  Rh228  1  0.20951571  0.20349373  0.40209029  1
  Rh  Rh229  1  0.19942837  0.00643787  0.60297677  1
  Rh  Rh230  1  0.19519587  0.20387785  0.80078800  1
  Rh  Rh231  1  0.79659622  0.40563631  0.39940850  1
  Rh  Rh232  1  0.79909270  0.60954698  0.20087365  1
  Rh  Rh233  1  0.20038157  0.40168492  0.00482533  1
  Rh  Rh234  1  0.41337857  0.59585037  0.79888005  1
  Rh  Rh235  1  0.60309132  0.58890545  0.60948788  1
  Rh  Rh236  1  0.40759613  0.60659789  0.40455565  1
  Rh  Rh237  1  0.59283096  0.20190296  0.40526368  1
  Rh  Rh238  1  0.00136700  0.59537044  -0.00342357  1
  Rh  Rh239  1  0.59658299  0.59558013  0.20554841  1
  Rh  Rh240  1  0.19831009  0.40381652  0.60293338  1
  Rh  Rh241  1  0.39020779  0.19201404  0.21329286  1
  Rh  Rh242  1  0.40377104  0.39788458  -0.00227680  1
  Rh  Rh243  1  0.60526490  0.20522665  0.19172073  1
  Rh  Rh244  1  0.39071739  0.60930967  0.59532815  1
  Rh  Rh245  1  0.60680593  0.00916818  0.78914179  1
  Rh  Rh246  1  0.00328025  0.81169892  0.79414096  1
  Rh  Rh247  1  -0.00105394  0.79777114  0.00863703  1
  Rh  Rh248  1  0.39813539  0.00551626  0.40215766  1
  Rh  Rh249  1  0.60439433  0.59090252  -0.01057759  1
