# generated using pymatgen
data_ZrScNbPdRh
_symmetry_space_group_name_H-M   'P 1'
_cell_length_a   16.56032347
_cell_length_b   16.56554929
_cell_length_c   16.55478334
_cell_angle_alpha   90.01732003
_cell_angle_beta   90.00165077
_cell_angle_gamma   89.97262439
_symmetry_Int_Tables_number   1
_chemical_formula_structural   ZrScNbPdRh
_chemical_formula_sum   'Zr50 Sc50 Nb50 Pd50 Rh50'
_cell_volume   4541.48713374
_cell_formula_units_Z   50
loop_
 _symmetry_equiv_pos_site_id
 _symmetry_equiv_pos_as_xyz
  1  'x, y, z'
loop_
 _atom_site_type_symbol
 _atom_site_label
 _atom_site_symmetry_multiplicity
 _atom_site_fract_x
 _atom_site_fract_y
 _atom_site_fract_z
 _atom_site_occupancy
  Zr  Zr0  1  0.69831702  0.68970374  0.30034276  1
  Zr  Zr1  1  0.69733486  0.50018361  0.69847004  1
  Zr  Zr2  1  0.69835806  0.89686210  0.68597300  1
  Zr  Zr3  1  0.89701274  0.30087471  0.50472470  1
  Zr  Zr4  1  0.49337848  0.90046038  0.69929051  1
  Zr  Zr5  1  0.49832095  0.29873268  0.09587431  1
  Zr  Zr6  1  0.89429454  0.50339297  0.50180036  1
  Zr  Zr7  1  0.50037089  0.90420233  0.10573470  1
  Zr  Zr8  1  0.49982568  0.69829014  0.49657705  1
  Zr  Zr9  1  0.89293449  0.49977542  0.90031031  1
  Zr  Zr10  1  0.30369960  0.49406943  0.69928990  1
  Zr  Zr11  1  0.69981043  0.69711794  0.70682936  1
  Zr  Zr12  1  0.30367820  0.49971125  0.50070230  1
  Zr  Zr13  1  0.09768907  0.29841795  0.90341428  1
  Zr  Zr14  1  0.90536670  0.70555687  0.30295404  1
  Zr  Zr15  1  0.90133623  0.70554073  0.10528367  1
  Zr  Zr16  1  0.49632062  0.51096619  0.50764045  1
  Zr  Zr17  1  0.30363068  0.50179060  0.09579217  1
  Zr  Zr18  1  0.89559897  0.09631499  0.29376788  1
  Zr  Zr19  1  0.29482889  0.49668667  0.30959011  1
  Zr  Zr20  1  0.69974775  0.70512675  0.50344459  1
  Zr  Zr21  1  0.70568245  0.10377214  0.89856897  1
  Zr  Zr22  1  0.09901587  0.29329396  0.51081169  1
  Zr  Zr23  1  0.90143634  0.90083181  0.09980352  1
  Zr  Zr24  1  0.89777612  0.29530608  0.90679090  1
  Zr  Zr25  1  0.88416284  0.69989516  0.89633400  1
  Zr  Zr26  1  0.49998957  0.49951814  0.70481731  1
  Zr  Zr27  1  0.09838405  0.89947345  0.49796727  1
  Zr  Zr28  1  0.29579111  0.70720417  0.09995353  1
  Zr  Zr29  1  0.10032653  0.29441224  0.10354338  1
  Zr  Zr30  1  0.30138495  0.09358892  0.69641596  1
  Zr  Zr31  1  0.69980408  0.10163321  0.69922994  1
  Zr  Zr32  1  0.50553860  0.89992760  0.49631283  1
  Zr  Zr33  1  0.70183253  0.09219197  0.10189290  1
  Zr  Zr34  1  0.10623151  0.89721130  0.09566470  1
  Zr  Zr35  1  0.69201188  0.50678270  0.10583590  1
  Zr  Zr36  1  0.10663499  0.49636397  0.49782515  1
  Zr  Zr37  1  0.90388893  0.09495613  0.70838854  1
  Zr  Zr38  1  0.10041122  0.09811668  0.89447312  1
  Zr  Zr39  1  0.30671931  0.90425936  0.69927986  1
  Zr  Zr40  1  0.50314096  0.10047600  0.10028289  1
  Zr  Zr41  1  0.89973456  0.70824867  0.69614452  1
  Zr  Zr42  1  0.29903470  0.50095999  0.90492355  1
  Zr  Zr43  1  0.10568016  0.30610289  0.70150368  1
  Zr  Zr44  1  0.69409425  0.29645670  0.30307968  1
  Zr  Zr45  1  0.29868544  0.30369906  0.10535749  1
  Zr  Zr46  1  0.30273561  0.10617005  0.09543231  1
  Zr  Zr47  1  0.70187787  0.70396834  0.09088586  1
  Zr  Zr48  1  0.30025229  0.30783228  0.70040677  1
  Zr  Zr49  1  0.09754749  0.11283340  0.69501076  1
  Sc  Sc50  1  0.89091887  0.50216607  0.69403457  1
  Sc  Sc51  1  0.10950750  0.10195335  0.09578127  1
  Sc  Sc52  1  0.10318195  0.49527789  0.09814661  1
  Sc  Sc53  1  0.49966344  0.30408555  0.30206248  1
  Sc  Sc54  1  0.10228983  0.89090058  0.70062515  1
  Sc  Sc55  1  0.49493395  0.90218468  0.89513028  1
  Sc  Sc56  1  0.89591161  0.28189199  0.29204954  1
  Sc  Sc57  1  0.50169012  0.28459675  0.49712059  1
  Sc  Sc58  1  0.10810297  0.71699279  0.90575050  1
  Sc  Sc59  1  0.50719786  0.70279987  0.89730617  1
  Sc  Sc60  1  0.70588347  0.89416526  0.90693179  1
  Sc  Sc61  1  0.50071190  0.09338348  0.30678755  1
  Sc  Sc62  1  0.30090408  0.70700625  0.30897446  1
  Sc  Sc63  1  0.29753339  0.30625356  0.90222217  1
  Sc  Sc64  1  0.50782754  0.30258371  0.90044693  1
  Sc  Sc65  1  0.29887781  0.89069475  0.30081976  1
  Sc  Sc66  1  0.30106494  0.30313077  0.30016563  1
  Sc  Sc67  1  0.49852975  0.10184140  0.68559029  1
  Sc  Sc68  1  0.89411862  0.88986432  0.49777885  1
  Sc  Sc69  1  0.69783525  0.50866606  0.89875823  1
  Sc  Sc70  1  0.90504448  0.90963255  0.89861790  1
  Sc  Sc71  1  0.50993450  0.50449942  0.30318625  1
  Sc  Sc72  1  0.30450194  0.71565463  0.70133377  1
  Sc  Sc73  1  0.50225500  0.29933126  0.70500572  1
  Sc  Sc74  1  0.10250849  0.50061689  0.30225320  1
  Sc  Sc75  1  0.70166943  0.50987959  0.50050171  1
  Sc  Sc76  1  0.89631967  0.89777676  0.30534238  1
  Sc  Sc77  1  0.09676430  0.71221463  0.10167067  1
  Sc  Sc78  1  0.49937818  0.49729997  0.09655287  1
  Sc  Sc79  1  0.49569065  0.89719102  0.30671589  1
  Sc  Sc80  1  0.10428916  0.89489437  0.30501637  1
  Sc  Sc81  1  0.89481950  0.50131110  0.09545885  1
  Sc  Sc82  1  0.89394673  0.09301620  0.49326568  1
  Sc  Sc83  1  0.49718281  0.70227274  0.30526694  1
  Sc  Sc84  1  0.90404697  0.89861511  0.69780742  1
  Sc  Sc85  1  0.69641335  0.90300747  0.30503554  1
  Sc  Sc86  1  0.30104270  0.89589908  0.49944287  1
  Sc  Sc87  1  0.70363081  0.09165402  0.29906780  1
  Sc  Sc88  1  0.50110634  0.69517042  0.09910656  1
  Sc  Sc89  1  0.49865090  0.09811754  0.91004839  1
  Sc  Sc90  1  0.11031526  0.29879704  0.29674486  1
  Sc  Sc91  1  0.91124867  0.29592225  0.69500967  1
  Sc  Sc92  1  0.89897733  0.51692998  0.30073195  1
  Sc  Sc93  1  0.49760497  0.49572094  0.90204562  1
  Sc  Sc94  1  0.89848268  0.28835527  0.09894323  1
  Sc  Sc95  1  0.30036567  0.90645049  0.88954767  1
  Sc  Sc96  1  0.69039936  0.09437498  0.49669867  1
  Sc  Sc97  1  0.50489636  0.70147922  0.69799773  1
  Sc  Sc98  1  0.10015988  0.70818907  0.49152791  1
  Sc  Sc99  1  0.70555681  0.90572425  0.09987847  1
  Nb  Nb100  1  0.30444488  0.68807034  0.49645640  1
  Nb  Nb101  1  0.30091006  0.09933980  0.89405242  1
  Nb  Nb102  1  0.10551516  0.50176505  0.70207697  1
  Nb  Nb103  1  0.48591853  0.09376969  0.49498544  1
  Nb  Nb104  1  0.09877973  0.90822354  0.90346506  1
  Nb  Nb105  1  0.09977772  0.69943224  0.29881754  1
  Nb  Nb106  1  0.30554964  0.10167836  0.49412793  1
  Nb  Nb107  1  0.30466091  0.69836134  0.90619021  1
  Nb  Nb108  1  0.29738179  0.09478049  0.30372207  1
  Nb  Nb109  1  0.69559305  0.29909409  0.09589418  1
  Nb  Nb110  1  0.70163898  0.69904100  0.89864435  1
  Nb  Nb111  1  0.09957619  0.09536600  0.30451761  1
  Nb  Nb112  1  0.29730183  0.30337092  0.49705320  1
  Nb  Nb113  1  0.69391795  0.29622800  0.70192960  1
  Nb  Nb114  1  0.09826656  0.50255578  0.89811658  1
  Nb  Nb115  1  0.69886523  0.89606119  0.49502135  1
  Nb  Nb116  1  0.89904475  0.69891215  0.49823422  1
  Nb  Nb117  1  0.09870824  0.70081429  0.69931482  1
  Nb  Nb118  1  0.90329805  0.09862431  0.89924565  1
  Nb  Nb119  1  0.70051427  0.49803357  0.29953488  1
  Nb  Nb120  1  0.69882222  0.29746970  0.89462768  1
  Nb  Nb121  1  0.69980516  0.29894369  0.50269365  1
  Nb  Nb122  1  0.89776019  0.09857449  0.10779447  1
  Nb  Nb123  1  0.30008001  0.89527887  0.10990155  1
  Nb  Nb124  1  0.10460080  0.09788250  0.49590875  1
  Nb  Nb125  1  0.79397782  0.20068452  0.60204803  1
  Nb  Nb126  1  0.79865254  0.39951469  0.39385747  1
  Nb  Nb127  1  0.39482923  0.19562340  0.80173708  1
  Nb  Nb128  1  0.39255269  0.60193115  0.80364665  1
  Nb  Nb129  1  0.00023193  0.60255720  -0.00839135  1
  Nb  Nb130  1  0.20246305  0.60474327  0.20215672  1
  Nb  Nb131  1  0.39221633  0.60064936  0.20055248  1
  Nb  Nb132  1  0.39127290  0.00175538  0.20084052  1
  Nb  Nb133  1  0.60481301  0.39488032  0.59852452  1
  Nb  Nb134  1  0.00658542  0.60087909  0.79895120  1
  Nb  Nb135  1  -0.00074895  0.40764156  0.80233553  1
  Nb  Nb136  1  0.00701905  0.19442409  0.39995685  1
  Nb  Nb137  1  0.60142191  0.79909040  0.19944723  1
  Nb  Nb138  1  0.79641639  0.39131826  0.79897418  1
  Nb  Nb139  1  0.00691631  0.60512789  0.60336077  1
  Nb  Nb140  1  0.60347470  0.00081147  0.79556342  1
  Nb  Nb141  1  -0.00742914  0.39707664  0.20507199  1
  Nb  Nb142  1  0.60067820  0.19901610  0.19543371  1
  Nb  Nb143  1  0.39473964  0.80231980  0.00306214  1
  Nb  Nb144  1  0.00399564  0.00453037  0.20076473  1
  Nb  Nb145  1  0.19938856  0.60479078  0.60524803  1
  Nb  Nb146  1  0.00653544  0.00212395  0.59441572  1
  Nb  Nb147  1  0.19853405  0.60415944  0.79930103  1
  Nb  Nb148  1  0.79535568  0.39900436  0.20389679  1
  Nb  Nb149  1  -0.00686034  0.39245019  0.39547629  1
  Pd  Pd150  1  0.40272569  0.79723271  0.59332300  1
  Pd  Pd151  1  -0.00419170  -0.00099809  0.39947230  1
  Pd  Pd152  1  0.19783431  0.39771199  0.00146704  1
  Pd  Pd153  1  0.39628889  0.20781808  -0.01028732  1
  Pd  Pd154  1  0.59297817  0.80559539  0.00383106  1
  Pd  Pd155  1  0.78810251  0.39996438  0.00176588  1
  Pd  Pd156  1  0.40576553  0.19303456  0.21197639  1
  Pd  Pd157  1  0.00028966  0.41146062  0.60376041  1
  Pd  Pd158  1  0.20326149  0.80204521  0.80456497  1
  Pd  Pd159  1  0.20966519  -0.00229766  -0.00240059  1
  Pd  Pd160  1  0.39584222  0.20112042  0.39297133  1
  Pd  Pd161  1  0.79055523  0.80524393  0.20610623  1
  Pd  Pd162  1  0.58671341  0.19067654  0.80285639  1
  Pd  Pd163  1  0.59593725  0.00119978  0.59753122  1
  Pd  Pd164  1  0.00879482  0.59328097  0.18986812  1
  Pd  Pd165  1  0.40458724  0.40935275  0.20376162  1
  Pd  Pd166  1  0.20759263  0.20307505  0.80204480  1
  Pd  Pd167  1  0.39505667  0.20574330  0.60322972  1
  Pd  Pd168  1  0.59475021  0.59947581  -0.00558687  1
  Pd  Pd169  1  0.79762504  0.81160821  0.79812432  1
  Pd  Pd170  1  -0.00871099  0.79708848  -0.01024553  1
  Pd  Pd171  1  0.20234494  0.19386444  0.20591286  1
  Pd  Pd172  1  0.20923186  -0.00567233  0.40169323  1
  Pd  Pd173  1  0.60378643  -0.00632371  -0.00894852  1
  Pd  Pd174  1  -0.00159888  0.00843588  0.00818158  1
  Pd  Pd175  1  0.59922649  0.39466456  0.19829761  1
  Pd  Pd176  1  0.39066162  -0.00841257  0.00446726  1
  Pd  Pd177  1  0.80907849  0.20680771  0.79279795  1
  Pd  Pd178  1  0.41351425  0.38785633  0.59128466  1
  Pd  Pd179  1  0.21344947  0.19848518  0.59578737  1
  Pd  Pd180  1  -0.00226849  0.40455763  0.00560995  1
  Pd  Pd181  1  0.19742158  -0.00058905  0.59802150  1
  Pd  Pd182  1  0.79727732  0.19356106  0.00557979  1
  Pd  Pd183  1  0.79440981  -0.00900615  0.80211843  1
  Pd  Pd184  1  0.40995420  0.39980284  0.40536354  1
  Pd  Pd185  1  0.20001955  -0.00044092  0.20241596  1
  Pd  Pd186  1  0.80070821  0.19935977  0.40629314  1
  Pd  Pd187  1  0.20285843  0.79359724  0.59332029  1
  Pd  Pd188  1  0.59838944  0.19009451  0.39636169  1
  Pd  Pd189  1  0.00044179  0.18791908  0.00245564  1
  Pd  Pd190  1  0.00502724  0.59762890  0.40736827  1
  Pd  Pd191  1  0.00123188  0.80049296  0.80865583  1
  Pd  Pd192  1  0.20024926  0.20337643  0.39893796  1
  Pd  Pd193  1  0.60615666  0.40337844  -0.00666698  1
  Pd  Pd194  1  0.80673068  0.00146908  0.59462686  1
  Pd  Pd195  1  0.18825893  0.60615790  0.00328270  1
  Pd  Pd196  1  0.60182631  0.40609996  0.41247297  1
  Pd  Pd197  1  0.19108464  -0.00236908  0.79192603  1
  Pd  Pd198  1  0.80196743  0.59906232  0.19548160  1
  Pd  Pd199  1  0.60264391  0.80860687  0.80056262  1
  Rh  Rh200  1  0.21068145  0.81564039  -0.00856831  1
  Rh  Rh201  1  0.20225441  0.79588160  0.40342942  1
  Rh  Rh202  1  -0.00245321  0.20751962  0.80578589  1
  Rh  Rh203  1  -0.01209632  0.18282588  0.58797253  1
  Rh  Rh204  1  0.20347381  0.40277613  0.59348910  1
  Rh  Rh205  1  0.80542733  0.80265525  -0.00143878  1
  Rh  Rh206  1  0.39757862  -0.00290136  0.58947536  1
  Rh  Rh207  1  0.59926876  -0.00003566  0.40267848  1
  Rh  Rh208  1  -0.00085009  0.79963094  0.39826739  1
  Rh  Rh209  1  0.41049488  0.80004055  0.19529083  1
  Rh  Rh210  1  0.00992401  0.19499961  0.20401469  1
  Rh  Rh211  1  0.60619841  0.19932589  0.00294149  1
  Rh  Rh212  1  0.79549363  -0.00618632  0.40309115  1
  Rh  Rh213  1  0.79928283  0.59454389  0.79287560  1
  Rh  Rh214  1  0.59684971  0.79805790  0.59804824  1
  Rh  Rh215  1  0.59183386  0.60644987  0.20154331  1
  Rh  Rh216  1  0.00946982  -0.00441191  0.79157189  1
  Rh  Rh217  1  0.19693645  0.60747943  0.39923131  1
  Rh  Rh218  1  0.60662027  0.40261887  0.79848432  1
  Rh  Rh219  1  0.60202610  0.59976340  0.40266122  1
  Rh  Rh220  1  -0.00100446  0.80132941  0.59135113  1
  Rh  Rh221  1  0.39042536  0.60979766  0.61404719  1
  Rh  Rh222  1  0.40091725  0.79251022  0.81029817  1
  Rh  Rh223  1  0.19454840  0.40348305  0.80844140  1
  Rh  Rh224  1  0.80773868  -0.00927719  0.20204872  1
  Rh  Rh225  1  0.40246378  0.39774677  0.80759448  1
  Rh  Rh226  1  0.60339381  0.20174764  0.59478050  1
  Rh  Rh227  1  0.78457874  0.20401580  0.19191391  1
  Rh  Rh228  1  0.19484036  0.40700865  0.19956804  1
  Rh  Rh229  1  0.19358009  0.38961088  0.40545132  1
  Rh  Rh230  1  0.80794058  0.00616453  -0.00402867  1
  Rh  Rh231  1  0.00448026  0.81299534  0.20667917  1
  Rh  Rh232  1  0.20435722  0.20104041  -0.00553319  1
  Rh  Rh233  1  0.39881121  0.79910829  0.40879053  1
  Rh  Rh234  1  0.40749445  0.60794531  -0.00120174  1
  Rh  Rh235  1  0.60160875  0.59840360  0.60204676  1
  Rh  Rh236  1  0.59046900  -0.00220991  0.20746701  1
  Rh  Rh237  1  0.40098975  0.39337078  -0.00066563  1
  Rh  Rh238  1  0.78914069  0.38953080  0.60402880  1
  Rh  Rh239  1  0.80121722  0.60430162  0.00572670  1
  Rh  Rh240  1  0.79970909  0.79895406  0.59728957  1
  Rh  Rh241  1  0.60352927  0.79883340  0.39384391  1
  Rh  Rh242  1  0.80385766  0.61108756  0.60194945  1
  Rh  Rh243  1  0.40143499  0.59697625  0.38983221  1
  Rh  Rh244  1  0.39271061  -0.00518157  0.39635657  1
  Rh  Rh245  1  0.59343848  0.59987449  0.80411094  1
  Rh  Rh246  1  0.19348657  0.79434720  0.20712948  1
  Rh  Rh247  1  0.79753457  0.60089266  0.40118511  1
  Rh  Rh248  1  0.41311582  0.01340416  0.79845097  1
  Rh  Rh249  1  0.79591732  0.79514021  0.39879864  1
