# generated using pymatgen
data_ZrScNbPdRh
_symmetry_space_group_name_H-M   'P 1'
_cell_length_a   16.55940365
_cell_length_b   16.56077946
_cell_length_c   16.55976311
_cell_angle_alpha   90.01355574
_cell_angle_beta   89.98294395
_cell_angle_gamma   90.02557891
_symmetry_Int_Tables_number   1
_chemical_formula_structural   ZrScNbPdRh
_chemical_formula_sum   'Zr50 Sc50 Nb50 Pd50 Rh50'
_cell_volume   4541.29287970
_cell_formula_units_Z   50
loop_
 _symmetry_equiv_pos_site_id
 _symmetry_equiv_pos_as_xyz
  1  'x, y, z'
loop_
 _atom_site_type_symbol
 _atom_site_label
 _atom_site_symmetry_multiplicity
 _atom_site_fract_x
 _atom_site_fract_y
 _atom_site_fract_z
 _atom_site_occupancy
  Zr  Zr0  1  0.90474084  0.89854486  0.89898785  1
  Zr  Zr1  1  0.09358702  0.29604318  0.49943970  1
  Zr  Zr2  1  0.50907149  0.30604833  0.09436466  1
  Zr  Zr3  1  0.30671784  0.90531235  0.89866061  1
  Zr  Zr4  1  0.30157109  0.10760766  0.88942066  1
  Zr  Zr5  1  0.69292174  0.89402926  0.90288950  1
  Zr  Zr6  1  0.49162236  0.89565580  0.70585872  1
  Zr  Zr7  1  0.31838819  0.69083210  0.09807737  1
  Zr  Zr8  1  0.11085583  0.50153140  0.89978537  1
  Zr  Zr9  1  0.69686585  0.50386251  0.70720623  1
  Zr  Zr10  1  0.69928750  0.69321445  0.90281320  1
  Zr  Zr11  1  0.69691603  0.70730707  0.30464536  1
  Zr  Zr12  1  0.49141525  0.10092080  0.30257428  1
  Zr  Zr13  1  0.09662094  0.49776717  0.49077554  1
  Zr  Zr14  1  0.10823271  0.09891190  0.50241711  1
  Zr  Zr15  1  0.49786687  0.48660979  0.50275785  1
  Zr  Zr16  1  0.70436766  0.30297549  0.10866917  1
  Zr  Zr17  1  0.10408904  0.29707799  0.10412355  1
  Zr  Zr18  1  0.29697109  0.30889027  0.30174033  1
  Zr  Zr19  1  0.70262785  0.50209436  0.50514391  1
  Zr  Zr20  1  0.89164740  0.70216617  0.49537037  1
  Zr  Zr21  1  0.49054401  0.89216278  0.09577067  1
  Zr  Zr22  1  0.49403586  0.30855084  0.69661511  1
  Zr  Zr23  1  0.49607953  0.70248855  0.70086120  1
  Zr  Zr24  1  0.90726857  0.69903423  0.10192646  1
  Zr  Zr25  1  0.10355896  0.90597357  0.69416732  1
  Zr  Zr26  1  0.30422749  0.50115437  0.70604461  1
  Zr  Zr27  1  0.10426866  0.71273831  0.70217455  1
  Zr  Zr28  1  0.90571665  0.09107579  0.30311818  1
  Zr  Zr29  1  0.29987583  0.29489854  0.90302605  1
  Zr  Zr30  1  0.90266119  0.30308937  0.49639879  1
  Zr  Zr31  1  0.10192029  0.88849709  0.89358254  1
  Zr  Zr32  1  0.68372135  0.89678937  0.69812405  1
  Zr  Zr33  1  0.70067596  0.29676308  0.30499069  1
  Zr  Zr34  1  0.10848652  0.10110402  0.89469897  1
  Zr  Zr35  1  0.69457035  0.30239273  0.91179204  1
  Zr  Zr36  1  0.69738475  0.10553628  0.69609519  1
  Zr  Zr37  1  0.91044699  0.50702660  0.30048284  1
  Zr  Zr38  1  0.48874665  0.51136696  0.10171450  1
  Zr  Zr39  1  0.90269721  0.29857118  0.91065697  1
  Zr  Zr40  1  0.50186934  0.50285044  0.69638281  1
  Zr  Zr41  1  0.10860048  0.89871151  0.09915754  1
  Zr  Zr42  1  0.29552443  0.89507463  0.09871651  1
  Zr  Zr43  1  0.49800876  0.89958714  0.50823416  1
  Zr  Zr44  1  0.88904611  0.49698990  0.69598327  1
  Zr  Zr45  1  0.49804482  0.89921696  0.89341588  1
  Zr  Zr46  1  0.90334611  0.49578343  0.10369331  1
  Zr  Zr47  1  0.69527951  0.11158253  0.49722439  1
  Zr  Zr48  1  0.90284206  0.70114228  0.30275294  1
  Zr  Zr49  1  0.49333739  0.29381973  0.89861889  1
  Sc  Sc50  1  0.69459985  0.29667696  0.49812977  1
  Sc  Sc51  1  0.29984145  0.29502154  0.70692586  1
  Sc  Sc52  1  0.09488215  0.69161971  0.29835238  1
  Sc  Sc53  1  0.69755204  0.88795100  0.49966547  1
  Sc  Sc54  1  0.10270657  0.70590536  0.49327468  1
  Sc  Sc55  1  0.10575971  0.48950110  0.09441058  1
  Sc  Sc56  1  0.30400122  0.69626579  0.30929004  1
  Sc  Sc57  1  0.29124026  0.89592237  0.49493657  1
  Sc  Sc58  1  0.89556985  0.70752448  0.69501362  1
  Sc  Sc59  1  0.10111161  0.09936693  0.10829496  1
  Sc  Sc60  1  0.10155446  0.70746351  0.10210751  1
  Sc  Sc61  1  0.90978207  0.09844264  0.69567073  1
  Sc  Sc62  1  0.90411031  0.90033690  0.10158794  1
  Sc  Sc63  1  0.49681494  0.49486227  0.30166388  1
  Sc  Sc64  1  0.69866482  0.89827182  0.10135682  1
  Sc  Sc65  1  0.90291412  0.89495500  0.49667769  1
  Sc  Sc66  1  0.50541187  0.30162676  0.30143064  1
  Sc  Sc67  1  0.29791007  0.70386309  0.49802091  1
  Sc  Sc68  1  0.49165190  0.70410915  0.49991872  1
  Sc  Sc69  1  0.49566360  0.09912792  0.10826768  1
  Sc  Sc70  1  0.91222051  0.89500185  0.69305407  1
  Sc  Sc71  1  0.50191266  0.70098903  0.90392900  1
  Sc  Sc72  1  0.10490575  0.49683014  0.30312104  1
  Sc  Sc73  1  0.88784990  0.50637497  0.89426875  1
  Sc  Sc74  1  0.29678542  0.09450300  0.09919862  1
  Sc  Sc75  1  0.70692147  0.10314279  0.91440461  1
  Sc  Sc76  1  0.91361858  0.29944752  0.10461791  1
  Sc  Sc77  1  0.69672114  0.48727899  0.29480786  1
  Sc  Sc78  1  0.50122917  0.09488286  0.70295937  1
  Sc  Sc79  1  0.69470930  0.69783368  0.69276385  1
  Sc  Sc80  1  0.70173161  0.10049423  0.10346861  1
  Sc  Sc81  1  0.10483867  0.49808546  0.70502866  1
  Sc  Sc82  1  0.48707799  0.09530993  0.89903213  1
  Sc  Sc83  1  0.70234670  0.30754065  0.68983643  1
  Sc  Sc84  1  0.30412233  0.30606489  0.49682215  1
  Sc  Sc85  1  0.68958267  0.49930371  0.09814297  1
  Sc  Sc86  1  0.89425844  0.70396885  0.90150906  1
  Sc  Sc87  1  0.90054956  0.30174559  0.68766481  1
  Sc  Sc88  1  0.29337615  0.69241016  0.89436452  1
  Sc  Sc89  1  0.30281041  0.30569823  0.10036756  1
  Sc  Sc90  1  0.30077427  0.49895349  0.48447907  1
  Sc  Sc91  1  0.70174891  0.90618034  0.30299821  1
  Sc  Sc92  1  0.09965433  0.90667953  0.30032553  1
  Sc  Sc93  1  0.10852108  0.30332480  0.91165107  1
  Sc  Sc94  1  0.49687936  0.89845854  0.29405932  1
  Sc  Sc95  1  0.30387327  0.70340228  0.69962856  1
  Sc  Sc96  1  0.29383854  0.90568443  0.29886925  1
  Sc  Sc97  1  0.89882616  0.10079655  0.90881257  1
  Sc  Sc98  1  0.50686417  0.49796097  0.89779759  1
  Sc  Sc99  1  0.90322351  0.10152459  0.49297825  1
  Nb  Nb100  1  0.89677150  0.90236378  0.30299868  1
  Nb  Nb101  1  0.10958147  0.10869359  0.69401389  1
  Nb  Nb102  1  0.90151049  0.10294222  0.10130311  1
  Nb  Nb103  1  0.30154966  0.50054447  0.10285663  1
  Nb  Nb104  1  0.09634884  0.69871583  0.89385477  1
  Nb  Nb105  1  0.50686480  0.69928153  0.11046938  1
  Nb  Nb106  1  0.28627708  0.10198896  0.68978151  1
  Nb  Nb107  1  0.50469432  0.29848973  0.50173984  1
  Nb  Nb108  1  0.29410215  0.10102810  0.31052270  1
  Nb  Nb109  1  0.90194187  0.50199181  0.49727422  1
  Nb  Nb110  1  0.90335370  0.29992077  0.29742420  1
  Nb  Nb111  1  0.70334428  0.10215455  0.30728597  1
  Nb  Nb112  1  0.09961133  0.29351082  0.69351866  1
  Nb  Nb113  1  0.29459883  0.50199802  0.90895564  1
  Nb  Nb114  1  0.49728981  0.10500137  0.50023648  1
  Nb  Nb115  1  0.10027543  0.90046818  0.50511377  1
  Nb  Nb116  1  0.70266094  0.50173013  0.89550748  1
  Nb  Nb117  1  0.30001138  0.89883915  0.69744013  1
  Nb  Nb118  1  0.10200774  0.10085089  0.30698058  1
  Nb  Nb119  1  0.30240760  0.09890986  0.49498370  1
  Nb  Nb120  1  0.09392880  0.29414768  0.30191259  1
  Nb  Nb121  1  0.29736044  0.49638485  0.29586812  1
  Nb  Nb122  1  0.50224590  0.69608804  0.29067295  1
  Nb  Nb123  1  0.69726443  0.70041108  0.10269565  1
  Nb  Nb124  1  0.70142944  0.70283304  0.49482957  1
  Nb  Nb125  1  0.00118709  0.59921836  0.59944350  1
  Nb  Nb126  1  0.39120896  0.00560556  0.59660518  1
  Nb  Nb127  1  0.20981265  0.59240802  0.19763499  1
  Nb  Nb128  1  0.80219043  0.79602904  0.20346167  1
  Nb  Nb129  1  0.19626332  0.59551116  0.59856714  1
  Nb  Nb130  1  0.59599384  0.00831122  0.40140578  1
  Nb  Nb131  1  0.80132522  0.19951337  0.79946197  1
  Nb  Nb132  1  0.79534537  -0.00170342  0.60295800  1
  Nb  Nb133  1  0.19841786  0.40130717  0.60021676  1
  Nb  Nb134  1  0.00097063  0.39779515  0.79987292  1
  Nb  Nb135  1  0.79868585  -0.00069538  0.79488843  1
  Nb  Nb136  1  0.60369866  0.20424467  0.80202388  1
  Nb  Nb137  1  0.39875809  0.19416754  0.59400344  1
  Nb  Nb138  1  0.80853759  0.19478112  0.20667836  1
  Nb  Nb139  1  0.59312229  -0.00556579  0.00183280  1
  Nb  Nb140  1  0.00440549  0.20539642  0.79706344  1
  Nb  Nb141  1  0.00099860  0.60054234  0.79725061  1
  Nb  Nb142  1  0.80854163  0.40095510  0.39836352  1
  Nb  Nb143  1  0.00453134  0.60173017  -0.00744646  1
  Nb  Nb144  1  0.59993291  0.60494972  0.40070297  1
  Nb  Nb145  1  0.00541053  -0.00128533  0.00036428  1
  Nb  Nb146  1  0.19965615  0.19814938  0.21368510  1
  Nb  Nb147  1  0.79358423  0.80844924  0.79821024  1
  Nb  Nb148  1  0.79732076  0.40233482  0.00163102  1
  Nb  Nb149  1  0.79475739  0.60632804  0.19830336  1
  Pd  Pd150  1  0.39985878  0.40581398  -0.00561353  1
  Pd  Pd151  1  0.60821698  0.01452419  0.81422682  1
  Pd  Pd152  1  0.59032796  0.18555278  -0.00219106  1
  Pd  Pd153  1  0.60427634  0.80780809  0.19976332  1
  Pd  Pd154  1  0.59499490  0.60619433  0.59002642  1
  Pd  Pd155  1  0.79070809  0.59028330  0.38925330  1
  Pd  Pd156  1  0.39176300  0.79781891  0.20939610  1
  Pd  Pd157  1  0.60476191  0.59256464  0.20807641  1
  Pd  Pd158  1  0.01040752  0.19010790  -0.00184340  1
  Pd  Pd159  1  0.59496419  0.59917235  -0.00027429  1
  Pd  Pd160  1  -0.00370958  0.00359014  0.59230577  1
  Pd  Pd161  1  0.40719592  0.59776849  0.39868868  1
  Pd  Pd162  1  0.79222354  -0.00480639  0.41320478  1
  Pd  Pd163  1  0.20606115  0.78899601  -0.00442754  1
  Pd  Pd164  1  0.60087672  0.00049954  0.20159097  1
  Pd  Pd165  1  0.00390931  -0.00295248  0.19661365  1
  Pd  Pd166  1  0.80160779  -0.00568948  0.00276353  1
  Pd  Pd167  1  0.80044896  -0.00052716  0.19663767  1
  Pd  Pd168  1  0.19799640  0.00368486  -0.00289075  1
  Pd  Pd169  1  0.39566875  0.40609796  0.81013840  1
  Pd  Pd170  1  0.40292251  0.21047935  0.40219466  1
  Pd  Pd171  1  0.39025200  -0.00077935  0.19947976  1
  Pd  Pd172  1  0.80859266  0.19475975  0.60087535  1
  Pd  Pd173  1  0.80243780  0.60509768  0.60245089  1
  Pd  Pd174  1  0.20145362  0.20677205  0.40293230  1
  Pd  Pd175  1  0.39884978  0.79168989  -0.00853361  1
  Pd  Pd176  1  0.20697386  0.78574325  0.20839109  1
  Pd  Pd177  1  0.01021374  0.40395282  0.20572261  1
  Pd  Pd178  1  0.40353818  0.59943299  0.80869349  1
  Pd  Pd179  1  0.00530127  0.80442373  0.39891377  1
  Pd  Pd180  1  0.80378275  0.38804647  0.80665968  1
  Pd  Pd181  1  0.38959074  0.59681248  0.59195577  1
  Pd  Pd182  1  0.00593416  0.40826179  0.60651538  1
  Pd  Pd183  1  0.39797883  0.19497103  0.01214189  1
  Pd  Pd184  1  0.79966991  0.80170384  0.00489873  1
  Pd  Pd185  1  0.19334976  0.80122403  0.39106714  1
  Pd  Pd186  1  0.80270749  0.59414187  0.00985742  1
  Pd  Pd187  1  -0.00155577  0.80974504  0.20639495  1
  Pd  Pd188  1  0.20350576  -0.00365069  0.79643587  1
  Pd  Pd189  1  -0.00253861  0.01013946  0.80388903  1
  Pd  Pd190  1  0.19823960  0.39185272  0.79725720  1
  Pd  Pd191  1  0.60560025  0.19475954  0.20496299  1
  Pd  Pd192  1  0.40246115  -0.00910144  0.40389017  1
  Pd  Pd193  1  0.39046672  0.20379092  0.19881045  1
  Pd  Pd194  1  0.60087902  0.39420474  0.80029172  1
  Pd  Pd195  1  0.19491475  0.60744578  0.01081393  1
  Pd  Pd196  1  0.40624110  0.39591729  0.20123849  1
  Pd  Pd197  1  0.59926185  0.00291543  0.59122940  1
  Pd  Pd198  1  0.58959279  0.80318643  0.39956208  1
  Pd  Pd199  1  0.40233035  0.80501205  0.39436061  1
  Rh  Rh200  1  0.59502369  0.79995509  0.00656076  1
  Rh  Rh201  1  0.58742496  0.20659942  0.61024230  1
  Rh  Rh202  1  -0.00063394  0.19229736  0.60054274  1
  Rh  Rh203  1  0.19813163  0.60436183  0.79020088  1
  Rh  Rh204  1  -0.01099774  0.79158118  0.79948341  1
  Rh  Rh205  1  0.79669088  0.39860608  0.58724801  1
  Rh  Rh206  1  0.40532222  0.39682510  0.39622310  1
  Rh  Rh207  1  0.79395409  0.80749069  0.60483575  1
  Rh  Rh208  1  0.00493566  0.79406134  0.59003074  1
  Rh  Rh209  1  0.20351162  0.19821337  0.01286119  1
  Rh  Rh210  1  0.40297110  0.59666334  -0.00907470  1
  Rh  Rh211  1  0.00712098  -0.00457978  0.40485303  1
  Rh  Rh212  1  -0.01020852  0.41596992  -0.01389229  1
  Rh  Rh213  1  0.60676481  0.40478942  0.40711104  1
  Rh  Rh214  1  0.20934615  0.80406436  0.79966318  1
  Rh  Rh215  1  0.19349315  0.20742086  0.79948177  1
  Rh  Rh216  1  0.39428442  0.79521145  0.80410830  1
  Rh  Rh217  1  0.19657203  0.39744806  0.20189911  1
  Rh  Rh218  1  0.20221863  0.00987722  0.20800726  1
  Rh  Rh219  1  0.59102612  0.19647305  0.39354918  1
  Rh  Rh220  1  0.00202131  0.60667885  0.40988802  1
  Rh  Rh221  1  0.21134515  0.39741991  0.00382914  1
  Rh  Rh222  1  0.59531602  0.78900006  0.59678094  1
  Rh  Rh223  1  0.80576034  0.20998405  0.01521742  1
  Rh  Rh224  1  0.38696290  0.00738538  0.78509726  1
  Rh  Rh225  1  0.00155143  0.19208282  0.20757569  1
  Rh  Rh226  1  0.59868617  0.60208986  0.80067799  1
  Rh  Rh227  1  0.60330187  0.78687955  0.79976136  1
  Rh  Rh228  1  0.20874515  0.21192066  0.59013192  1
  Rh  Rh229  1  0.01429107  0.59184656  0.18508775  1
  Rh  Rh230  1  0.80962513  0.20678327  0.39317671  1
  Rh  Rh231  1  -0.00336641  0.39848692  0.39262119  1
  Rh  Rh232  1  0.60136052  0.40878561  0.00068957  1
  Rh  Rh233  1  0.19460229  -0.00305664  0.40294148  1
  Rh  Rh234  1  0.80584350  0.39747291  0.20055034  1
  Rh  Rh235  1  0.58934086  0.40430716  0.19586433  1
  Rh  Rh236  1  0.40506459  0.19380986  0.78494192  1
  Rh  Rh237  1  0.20133428  0.59957431  0.39710854  1
  Rh  Rh238  1  0.20426432  -0.00625586  0.59428908  1
  Rh  Rh239  1  0.39627063  0.59969852  0.21199270  1
  Rh  Rh240  1  0.39023066  0.39593128  0.59843928  1
  Rh  Rh241  1  0.80175274  0.80801840  0.39508137  1
  Rh  Rh242  1  0.20168237  0.79738388  0.59830726  1
  Rh  Rh243  1  0.00444921  0.80058631  -0.00208105  1
  Rh  Rh244  1  0.19418263  0.39502522  0.40250932  1
  Rh  Rh245  1  0.79950022  0.61385870  0.79274341  1
  Rh  Rh246  1  0.60525544  0.39984979  0.59908298  1
  Rh  Rh247  1  0.40240325  0.00115781  0.00534090  1
  Rh  Rh248  1  0.39268269  0.80736244  0.59876722  1
  Rh  Rh249  1  -0.00169322  0.19532258  0.39733002  1
