# generated using pymatgen
data_ZrScNbPdRh
_symmetry_space_group_name_H-M   'P 1'
_cell_length_a   16.56236157
_cell_length_b   16.56114173
_cell_length_c   16.56591906
_cell_angle_alpha   90.01366331
_cell_angle_beta   89.98188188
_cell_angle_gamma   90.00439153
_symmetry_Int_Tables_number   1
_chemical_formula_structural   ZrScNbPdRh
_chemical_formula_sum   'Zr50 Sc50 Nb50 Pd50 Rh50'
_cell_volume   4543.89236361
_cell_formula_units_Z   50
loop_
 _symmetry_equiv_pos_site_id
 _symmetry_equiv_pos_as_xyz
  1  'x, y, z'
loop_
 _atom_site_type_symbol
 _atom_site_label
 _atom_site_symmetry_multiplicity
 _atom_site_fract_x
 _atom_site_fract_y
 _atom_site_fract_z
 _atom_site_occupancy
  Zr  Zr0  1  0.69892936  0.70045393  0.09207519  1
  Zr  Zr1  1  0.69851964  0.10500168  0.09753949  1
  Zr  Zr2  1  0.69944962  0.69090824  0.48560782  1
  Zr  Zr3  1  0.10679384  0.10275069  0.49443225  1
  Zr  Zr4  1  0.69450304  0.90007732  0.70745917  1
  Zr  Zr5  1  0.29805328  0.30938958  0.29870461  1
  Zr  Zr6  1  0.89886661  0.10535030  0.29623850  1
  Zr  Zr7  1  0.09155897  0.30470222  0.29966456  1
  Zr  Zr8  1  0.90136190  0.69392339  0.70318735  1
  Zr  Zr9  1  0.70191044  0.49715921  0.70754343  1
  Zr  Zr10  1  0.29920986  0.70103037  0.49242032  1
  Zr  Zr11  1  0.69242311  0.09667105  0.90059258  1
  Zr  Zr12  1  0.90142588  0.10700370  0.90807393  1
  Zr  Zr13  1  0.89178658  0.90624413  0.90329144  1
  Zr  Zr14  1  0.50476541  0.09917197  0.50986486  1
  Zr  Zr15  1  0.70317753  0.30855752  0.09682418  1
  Zr  Zr16  1  0.69875338  0.09785824  0.50065001  1
  Zr  Zr17  1  0.50038367  0.29395973  0.89564844  1
  Zr  Zr18  1  0.29869587  0.70025216  0.29991719  1
  Zr  Zr19  1  0.10182513  0.89891505  0.91642980  1
  Zr  Zr20  1  0.29981412  0.89699158  0.49697813  1
  Zr  Zr21  1  0.89334470  0.70042755  0.90718719  1
  Zr  Zr22  1  0.69469243  0.30133883  0.50087262  1
  Zr  Zr23  1  0.90384790  0.90264750  0.10133321  1
  Zr  Zr24  1  0.89874533  0.90373827  0.29958319  1
  Zr  Zr25  1  0.30769615  0.89641152  0.90155264  1
  Zr  Zr26  1  0.30707718  0.29964910  0.49977929  1
  Zr  Zr27  1  0.30793993  0.90083421  0.70211168  1
  Zr  Zr28  1  0.69430878  0.30447334  0.70132803  1
  Zr  Zr29  1  0.70561249  0.30259894  0.89470427  1
  Zr  Zr30  1  0.09592585  0.49835401  0.69803663  1
  Zr  Zr31  1  0.10558337  0.09696616  0.09377163  1
  Zr  Zr32  1  0.49902225  0.70538084  0.29799978  1
  Zr  Zr33  1  0.90394564  0.30360888  0.48230865  1
  Zr  Zr34  1  0.10045133  0.89279399  0.49734954  1
  Zr  Zr35  1  0.09493946  0.89840974  0.70064448  1
  Zr  Zr36  1  0.69569412  0.49458997  0.50369987  1
  Zr  Zr37  1  0.90316626  0.49892267  0.49888232  1
  Zr  Zr38  1  0.30743254  0.29425418  0.69282142  1
  Zr  Zr39  1  0.10728262  0.49981172  0.89206070  1
  Zr  Zr40  1  0.89802388  0.10164475  0.09681093  1
  Zr  Zr41  1  0.30319891  0.10204948  0.90112173  1
  Zr  Zr42  1  0.90080530  0.30079182  0.10535757  1
  Zr  Zr43  1  0.89287408  0.69478609  0.30924448  1
  Zr  Zr44  1  0.50070688  0.70405909  0.69533063  1
  Zr  Zr45  1  0.29759373  0.09620750  0.29940256  1
  Zr  Zr46  1  0.89998968  0.48949184  0.29902448  1
  Zr  Zr47  1  0.10206188  0.29857231  0.69777452  1
  Zr  Zr48  1  0.68987934  0.09837846  0.69610094  1
  Zr  Zr49  1  0.09032473  0.70193107  0.09089778  1
  Sc  Sc50  1  0.50233294  0.90065330  0.89907111  1
  Sc  Sc51  1  0.29911945  0.89853804  0.29972603  1
  Sc  Sc52  1  0.90479729  0.89440280  0.50139120  1
  Sc  Sc53  1  0.29687589  0.10378390  0.50094320  1
  Sc  Sc54  1  0.30791831  0.69681898  0.70314803  1
  Sc  Sc55  1  0.10368152  0.30380416  0.10540734  1
  Sc  Sc56  1  0.09649445  0.09450191  0.70409190  1
  Sc  Sc57  1  0.10870757  0.10617348  0.30116105  1
  Sc  Sc58  1  0.51189936  0.30514782  0.30506905  1
  Sc  Sc59  1  0.29988331  0.49951219  0.09996578  1
  Sc  Sc60  1  0.89332978  0.09103305  0.49155808  1
  Sc  Sc61  1  0.50270137  0.89442119  0.09923641  1
  Sc  Sc62  1  0.30121699  0.51282114  0.29765086  1
  Sc  Sc63  1  0.90489963  0.49826858  0.70130114  1
  Sc  Sc64  1  0.30817544  0.09700451  0.69346963  1
  Sc  Sc65  1  0.09663953  0.69453535  0.69597026  1
  Sc  Sc66  1  0.89602981  0.69589241  0.09698164  1
  Sc  Sc67  1  0.30761627  0.49930472  0.71253489  1
  Sc  Sc68  1  0.89135403  0.50414799  0.10391443  1
  Sc  Sc69  1  0.70550640  0.90346751  0.50209646  1
  Sc  Sc70  1  0.10078626  0.29850042  0.90181398  1
  Sc  Sc71  1  0.09503406  0.09708537  0.90134804  1
  Sc  Sc72  1  0.31137526  0.31017234  0.89954271  1
  Sc  Sc73  1  0.10112990  0.29483096  0.49335002  1
  Sc  Sc74  1  0.50083342  0.69436131  0.50201278  1
  Sc  Sc75  1  0.29426992  0.30247745  0.09454929  1
  Sc  Sc76  1  0.51129821  0.30188019  0.09499509  1
  Sc  Sc77  1  0.50056396  0.09477056  0.70333507  1
  Sc  Sc78  1  0.89122000  0.50389930  0.89517310  1
  Sc  Sc79  1  0.10556688  0.50521458  0.28655992  1
  Sc  Sc80  1  0.50542622  0.50518141  0.70037047  1
  Sc  Sc81  1  0.70510334  0.30175076  0.30168647  1
  Sc  Sc82  1  0.90009278  0.90207470  0.70166551  1
  Sc  Sc83  1  0.50101512  0.49903086  0.49514223  1
  Sc  Sc84  1  0.50241987  0.30695519  0.50243317  1
  Sc  Sc85  1  0.48926982  0.70796579  0.90684269  1
  Sc  Sc86  1  0.70417569  0.09802100  0.29753199  1
  Sc  Sc87  1  0.30929943  0.70346089  0.09821452  1
  Sc  Sc88  1  0.89568322  0.30335873  0.71459879  1
  Sc  Sc89  1  0.09926716  0.70820035  0.49974825  1
  Sc  Sc90  1  0.69751559  0.90312963  0.08990388  1
  Sc  Sc91  1  0.68974936  0.69157041  0.70728239  1
  Sc  Sc92  1  0.49441699  0.89105881  0.51214869  1
  Sc  Sc93  1  0.51151625  0.10018319  0.28610794  1
  Sc  Sc94  1  0.51315278  0.10395648  0.09664041  1
  Sc  Sc95  1  0.90276959  0.09268357  0.70996536  1
  Sc  Sc96  1  0.29597390  0.90380014  0.10068384  1
  Sc  Sc97  1  0.70136288  0.70312699  0.89907538  1
  Sc  Sc98  1  0.49685499  0.90175852  0.70187495  1
  Sc  Sc99  1  0.70196754  0.50234226  0.30606826  1
  Nb  Nb100  1  0.29704945  0.70306439  0.90262661  1
  Nb  Nb101  1  0.69552510  0.50376781  0.90047146  1
  Nb  Nb102  1  0.50264857  0.10078991  0.90248042  1
  Nb  Nb103  1  0.90154629  0.69757708  0.50282346  1
  Nb  Nb104  1  0.48363667  0.48981849  0.90733296  1
  Nb  Nb105  1  0.69455551  0.89101939  0.30419775  1
  Nb  Nb106  1  0.10031270  0.70332308  0.90389119  1
  Nb  Nb107  1  0.09514439  0.89510781  0.10306805  1
  Nb  Nb108  1  0.69305922  0.50146306  0.09651670  1
  Nb  Nb109  1  0.50007216  0.49985559  0.10182997  1
  Nb  Nb110  1  0.49822110  0.50114094  0.29701970  1
  Nb  Nb111  1  0.69838607  0.89823518  0.90469796  1
  Nb  Nb112  1  0.50019834  0.89845366  0.30152542  1
  Nb  Nb113  1  0.50012813  0.29800921  0.69854791  1
  Nb  Nb114  1  0.09951347  0.50032916  0.09471722  1
  Nb  Nb115  1  0.30306651  0.10241091  0.10452405  1
  Nb  Nb116  1  0.30013170  0.49960974  0.49312461  1
  Nb  Nb117  1  0.69564348  0.70297032  0.30132286  1
  Nb  Nb118  1  0.10019688  0.70058974  0.30200693  1
  Nb  Nb119  1  0.09426862  0.89256292  0.29979686  1
  Nb  Nb120  1  0.50203160  0.69614026  0.10070188  1
  Nb  Nb121  1  0.30654664  0.50404001  0.90058042  1
  Nb  Nb122  1  0.90605155  0.30465303  0.29707559  1
  Nb  Nb123  1  0.09852260  0.50155565  0.50093929  1
  Nb  Nb124  1  0.89995926  0.29568461  0.91148752  1
  Nb  Nb125  1  0.79892970  0.78831262  0.60070048  1
  Nb  Nb126  1  0.00352483  0.60092442  0.40009348  1
  Nb  Nb127  1  0.20294734  0.40611911  0.59532534  1
  Nb  Nb128  1  0.59550524  -0.00790784  0.39669003  1
  Nb  Nb129  1  0.79983886  0.60082805  0.59704081  1
  Nb  Nb130  1  0.40923838  0.00208056  0.39585385  1
  Nb  Nb131  1  0.19824934  -0.00630923  0.59842197  1
  Nb  Nb132  1  0.19695866  0.79600564  0.80807200  1
  Nb  Nb133  1  0.18734044  0.79920361  0.19854677  1
  Nb  Nb134  1  0.40638353  0.40173630  0.19903673  1
  Nb  Nb135  1  0.00547249  -0.00415751  0.39303266  1
  Nb  Nb136  1  0.40113067  0.00933928  0.00257555  1
  Nb  Nb137  1  0.20333963  0.59052811  0.59346428  1
  Nb  Nb138  1  -0.00866763  0.19932224  0.59702997  1
  Nb  Nb139  1  -0.00162015  0.40266369  0.00068796  1
  Nb  Nb140  1  0.40319010  0.19598917  0.39273226  1
  Nb  Nb141  1  0.20571131  0.19933315  0.79851808  1
  Nb  Nb142  1  0.20067841  0.40971922  0.40450972  1
  Nb  Nb143  1  0.40015568  0.20382830  0.19982644  1
  Nb  Nb144  1  0.79227805  0.79905411  0.20690287  1
  Nb  Nb145  1  0.59173010  0.59233550  0.00189257  1
  Nb  Nb146  1  0.00323521  0.79839139  0.80954788  1
  Nb  Nb147  1  0.20186530  0.60156139  -0.00849119  1
  Nb  Nb148  1  0.80289113  0.20212062  0.60030507  1
  Nb  Nb149  1  0.59712801  0.60080826  0.19671352  1
  Pd  Pd150  1  0.20076905  0.60973216  0.18361936  1
  Pd  Pd151  1  0.39518317  0.59569981  0.59808701  1
  Pd  Pd152  1  0.39937956  0.19486793  0.79489055  1
  Pd  Pd153  1  0.20630814  0.79412187  0.61228066  1
  Pd  Pd154  1  0.00502598  0.20165397  0.79761778  1
  Pd  Pd155  1  0.60184432  0.40453979  0.20635837  1
  Pd  Pd156  1  0.58661152  0.60048975  0.81656040  1
  Pd  Pd157  1  0.00655750  0.19441501  0.19535487  1
  Pd  Pd158  1  0.60602160  -0.00782695  0.19985801  1
  Pd  Pd159  1  0.59556391  0.19212130  0.39570597  1
  Pd  Pd160  1  0.40661701  0.60165907  0.39985117  1
  Pd  Pd161  1  0.00248381  0.00826931  0.58942340  1
  Pd  Pd162  1  0.19997039  0.20353291  -0.00748237  1
  Pd  Pd163  1  0.59432168  0.79845435  0.80730309  1
  Pd  Pd164  1  0.20235153  0.60771028  0.79624671  1
  Pd  Pd165  1  0.19276595  -0.00859151  0.20113182  1
  Pd  Pd166  1  0.80266764  0.80529127  0.40438235  1
  Pd  Pd167  1  0.20108554  -0.00011173  0.79622047  1
  Pd  Pd168  1  0.80993979  0.39733937  0.60239312  1
  Pd  Pd169  1  0.40343796  0.20097529  0.01063614  1
  Pd  Pd170  1  0.80669661  0.40743846  -0.00189495  1
  Pd  Pd171  1  -0.00275060  0.59950736  0.20423920  1
  Pd  Pd172  1  0.79521684  0.00528576  0.80211704  1
  Pd  Pd173  1  0.20301116  0.20444935  0.20029159  1
  Pd  Pd174  1  0.59742461  0.40176780  -0.01056078  1
  Pd  Pd175  1  0.80239731  0.79829687  0.79384322  1
  Pd  Pd176  1  0.78874853  -0.00788187  0.19970377  1
  Pd  Pd177  1  0.80317867  -0.00185978  0.60406565  1
  Pd  Pd178  1  0.79877953  0.20215943  0.40100355  1
  Pd  Pd179  1  0.59065830  0.40438495  0.80387306  1
  Pd  Pd180  1  0.01010383  0.01033901  0.20413135  1
  Pd  Pd181  1  0.61021867  0.79881592  0.59510385  1
  Pd  Pd182  1  0.20741165  0.00067901  0.00247138  1
  Pd  Pd183  1  0.59294036  0.80408596  0.41182744  1
  Pd  Pd184  1  0.21031990  0.39201616  0.79461931  1
  Pd  Pd185  1  -0.00117436  0.60415489  0.80911023  1
  Pd  Pd186  1  0.40721123  0.00471080  0.19591667  1
  Pd  Pd187  1  -0.00577433  0.39541524  0.81243440  1
  Pd  Pd188  1  0.00047630  0.38795616  0.59727009  1
  Pd  Pd189  1  0.60415030  0.79882632  0.19293854  1
  Pd  Pd190  1  0.78955778  0.60279786  0.20217236  1
  Pd  Pd191  1  0.40118647  0.40960956  0.60495104  1
  Pd  Pd192  1  0.79583728  0.20647614  0.20035906  1
  Pd  Pd193  1  0.00075713  0.58869701  -0.00740743  1
  Pd  Pd194  1  0.39696625  0.59945179  0.00358836  1
  Pd  Pd195  1  0.79782156  0.19359235  0.79562050  1
  Pd  Pd196  1  -0.00760132  0.78910695  0.20275375  1
  Pd  Pd197  1  0.19883759  0.40553960  -0.00163630  1
  Pd  Pd198  1  0.40954214  0.60520626  0.80483587  1
  Pd  Pd199  1  0.39355371  0.80572899  0.19604186  1
  Rh  Rh200  1  0.79361482  0.19994220  -0.00012503  1
  Rh  Rh201  1  0.39922082  0.39903289  0.38992572  1
  Rh  Rh202  1  0.79716588  0.59867604  0.79569515  1
  Rh  Rh203  1  0.39925012  0.39622243  0.01025893  1
  Rh  Rh204  1  0.79573696  0.39922932  0.39646948  1
  Rh  Rh205  1  0.78972745  0.59546139  -0.00325750  1
  Rh  Rh206  1  0.00016144  -0.00874049  0.81240185  1
  Rh  Rh207  1  0.59222632  0.59734721  0.39036668  1
  Rh  Rh208  1  0.59647797  0.19956957  0.79634807  1
  Rh  Rh209  1  -0.00545880  0.18812184  0.40151387  1
  Rh  Rh210  1  0.59735983  -0.00361924  0.80394797  1
  Rh  Rh211  1  0.79595804  0.00382889  -0.00006173  1
  Rh  Rh212  1  0.60401203  0.20877067  0.19807599  1
  Rh  Rh213  1  0.00082271  0.40687403  0.18983380  1
  Rh  Rh214  1  0.00232888  0.60488784  0.59136680  1
  Rh  Rh215  1  0.20539883  0.79394871  0.00749066  1
  Rh  Rh216  1  0.39250651  0.00136880  0.59002379  1
  Rh  Rh217  1  0.20047344  0.80040722  0.38854894  1
  Rh  Rh218  1  0.60637654  0.59708011  0.59781103  1
  Rh  Rh219  1  0.40555554  0.39900523  0.79438429  1
  Rh  Rh220  1  0.20844430  0.21488893  0.39514535  1
  Rh  Rh221  1  0.40741837  0.00506395  0.81040140  1
  Rh  Rh222  1  0.41181764  0.19995537  0.59448230  1
  Rh  Rh223  1  0.20531121  0.40731505  0.20268729  1
  Rh  Rh224  1  0.39777576  0.79744340  0.79878644  1
  Rh  Rh225  1  0.19718738  -0.01113861  0.40357571  1
  Rh  Rh226  1  0.80473540  0.59035591  0.40451713  1
  Rh  Rh227  1  0.60706217  0.20696916  -0.00522291  1
  Rh  Rh228  1  0.59120038  0.40160658  0.60526255  1
  Rh  Rh229  1  0.79512243  0.40067439  0.20106402  1
  Rh  Rh230  1  -0.00399461  0.79695056  0.39654093  1
  Rh  Rh231  1  -0.00133966  0.00110049  0.00301227  1
  Rh  Rh232  1  0.59801849  0.79555016  -0.00438161  1
  Rh  Rh233  1  0.01232932  0.41225595  0.39266898  1
  Rh  Rh234  1  0.60126934  0.20633431  0.60564798  1
  Rh  Rh235  1  -0.00934871  0.79686546  0.61112030  1
  Rh  Rh236  1  0.19052612  0.59942219  0.40633123  1
  Rh  Rh237  1  0.00691988  0.20933535  0.00793694  1
  Rh  Rh238  1  0.80056463  0.80425354  0.00933169  1
  Rh  Rh239  1  0.79806821  -0.00512394  0.39494347  1
  Rh  Rh240  1  0.80252441  0.40285505  0.80738029  1
  Rh  Rh241  1  -0.01166703  0.80422676  -0.00399622  1
  Rh  Rh242  1  0.18779907  0.19198127  0.60964139  1
  Rh  Rh243  1  0.39655880  0.79258437  0.60158130  1
  Rh  Rh244  1  0.40161072  0.80866284  0.00670639  1
  Rh  Rh245  1  0.59901129  -0.01058774  0.59688180  1
  Rh  Rh246  1  0.59353003  -0.00294089  -0.00301344  1
  Rh  Rh247  1  0.60128229  0.40477173  0.39924845  1
  Rh  Rh248  1  0.40446568  0.80308594  0.39983036  1
  Rh  Rh249  1  0.40575783  0.59623703  0.19872129  1
