# generated using pymatgen
data_ZrScNbPdRh
_symmetry_space_group_name_H-M   'P 1'
_cell_length_a   16.56052824
_cell_length_b   16.56416514
_cell_length_c   16.56324199
_cell_angle_alpha   90.00633641
_cell_angle_beta   90.03729664
_cell_angle_gamma   90.00139722
_symmetry_Int_Tables_number   1
_chemical_formula_structural   ZrScNbPdRh
_chemical_formula_sum   'Zr50 Sc50 Nb50 Pd50 Rh50'
_cell_volume   4543.48385694
_cell_formula_units_Z   50
loop_
 _symmetry_equiv_pos_site_id
 _symmetry_equiv_pos_as_xyz
  1  'x, y, z'
loop_
 _atom_site_type_symbol
 _atom_site_label
 _atom_site_symmetry_multiplicity
 _atom_site_fract_x
 _atom_site_fract_y
 _atom_site_fract_z
 _atom_site_occupancy
  Zr  Zr0  1  0.50517986  0.50056538  0.90578753  1
  Zr  Zr1  1  0.89770991  0.50064658  0.29771911  1
  Zr  Zr2  1  0.49693786  0.29561133  0.88873457  1
  Zr  Zr3  1  0.69714484  0.09879191  0.90060136  1
  Zr  Zr4  1  0.29976567  0.88440397  0.10320735  1
  Zr  Zr5  1  0.90443803  0.29884618  0.30017641  1
  Zr  Zr6  1  0.30053820  0.29775951  0.89672128  1
  Zr  Zr7  1  0.09415488  0.70678309  0.30370713  1
  Zr  Zr8  1  0.89174076  0.70932699  0.29731542  1
  Zr  Zr9  1  0.69993308  0.29612972  0.49880338  1
  Zr  Zr10  1  0.70336706  0.50113206  0.90508439  1
  Zr  Zr11  1  0.30654845  0.50763963  0.50751327  1
  Zr  Zr12  1  0.70324670  0.90418837  0.90375203  1
  Zr  Zr13  1  0.30044072  0.09778745  0.89749830  1
  Zr  Zr14  1  0.90236454  0.50478307  0.88712648  1
  Zr  Zr15  1  0.69938034  0.09514088  0.09703347  1
  Zr  Zr16  1  0.29651203  0.50625220  0.11123136  1
  Zr  Zr17  1  0.70392154  0.69228454  0.10088126  1
  Zr  Zr18  1  0.70637223  0.49864939  0.69808483  1
  Zr  Zr19  1  0.49868842  0.90236004  0.89166163  1
  Zr  Zr20  1  0.89927917  0.09773607  0.10169147  1
  Zr  Zr21  1  0.68853309  0.49810654  0.29996499  1
  Zr  Zr22  1  0.49999355  0.89939198  0.49823039  1
  Zr  Zr23  1  0.69552859  0.69579104  0.69765005  1
  Zr  Zr24  1  0.28749735  0.30129074  0.50081552  1
  Zr  Zr25  1  0.89938307  0.89401587  0.89160885  1
  Zr  Zr26  1  0.09973749  0.30359787  0.69263575  1
  Zr  Zr27  1  0.69482166  0.90875391  0.10544214  1
  Zr  Zr28  1  0.90625574  0.70572290  0.50040061  1
  Zr  Zr29  1  0.50357003  0.09977054  0.50555747  1
  Zr  Zr30  1  0.29772878  0.70776470  0.68923518  1
  Zr  Zr31  1  0.49883146  0.70912394  0.69761662  1
  Zr  Zr32  1  0.48960153  0.90488517  0.69614557  1
  Zr  Zr33  1  0.70447230  0.29402615  0.69490715  1
  Zr  Zr34  1  0.69393601  0.10525290  0.69486476  1
  Zr  Zr35  1  0.69303071  0.49879196  0.49691963  1
  Zr  Zr36  1  0.29947013  0.69754885  0.49843369  1
  Zr  Zr37  1  0.90084437  0.30166813  0.89681162  1
  Zr  Zr38  1  0.69800991  0.29502141  0.30654420  1
  Zr  Zr39  1  0.69752570  0.50054340  0.10081358  1
  Zr  Zr40  1  0.10339857  0.70320511  0.50861528  1
  Zr  Zr41  1  0.50645403  0.69432230  0.49992983  1
  Zr  Zr42  1  0.10509850  0.29705586  0.30494001  1
  Zr  Zr43  1  0.50614283  0.89473703  0.30257305  1
  Zr  Zr44  1  0.50128513  0.10853792  0.29529383  1
  Zr  Zr45  1  0.09867282  0.09548312  0.09741448  1
  Zr  Zr46  1  0.90810695  0.69954954  0.70738900  1
  Zr  Zr47  1  0.70091603  0.29416724  0.89321113  1
  Zr  Zr48  1  0.49797340  0.69721375  0.29990757  1
  Zr  Zr49  1  0.70209457  0.10366762  0.49740277  1
  Sc  Sc50  1  0.89950470  0.30802142  0.69584393  1
  Sc  Sc51  1  0.50529229  0.30187686  0.29512596  1
  Sc  Sc52  1  0.10543406  0.31336326  0.89756635  1
  Sc  Sc53  1  0.09437085  0.90761878  0.50466430  1
  Sc  Sc54  1  0.89338070  0.90372993  0.10768682  1
  Sc  Sc55  1  0.89492822  0.29669062  0.50448792  1
  Sc  Sc56  1  0.69299170  0.90193270  0.70614450  1
  Sc  Sc57  1  0.90200426  0.09437312  0.49909952  1
  Sc  Sc58  1  0.10328426  0.50180280  0.09738137  1
  Sc  Sc59  1  0.30089014  0.90238239  0.51306769  1
  Sc  Sc60  1  0.90909207  0.89864893  0.70076627  1
  Sc  Sc61  1  0.51212987  0.50035797  0.11025844  1
  Sc  Sc62  1  0.11446087  0.69894037  0.09388691  1
  Sc  Sc63  1  0.69963558  0.29479081  0.09449994  1
  Sc  Sc64  1  0.30165417  0.29668456  0.10194902  1
  Sc  Sc65  1  0.90309180  0.49799161  0.09771446  1
  Sc  Sc66  1  0.29366851  0.71127081  0.90728112  1
  Sc  Sc67  1  0.28958522  0.49176768  0.89670657  1
  Sc  Sc68  1  0.30372596  0.10144208  0.09297759  1
  Sc  Sc69  1  0.49777775  0.70549741  0.89824182  1
  Sc  Sc70  1  0.09863591  0.09176361  0.31107778  1
  Sc  Sc71  1  0.50129015  0.29328211  0.10853727  1
  Sc  Sc72  1  0.49558937  0.09954581  0.89642253  1
  Sc  Sc73  1  0.50552461  0.09752273  0.09968409  1
  Sc  Sc74  1  0.09943436  0.69883611  0.90273436  1
  Sc  Sc75  1  0.90129515  0.89789232  0.30370713  1
  Sc  Sc76  1  0.09851129  0.30776746  0.10647454  1
  Sc  Sc77  1  0.48926544  0.50140058  0.68925220  1
  Sc  Sc78  1  0.30919645  0.69606845  0.29419153  1
  Sc  Sc79  1  0.89903647  0.90495421  0.49916709  1
  Sc  Sc80  1  0.89666704  0.08833347  0.89800854  1
  Sc  Sc81  1  0.10903863  0.50342909  0.50891985  1
  Sc  Sc82  1  0.29767788  0.90221819  0.70116200  1
  Sc  Sc83  1  0.09948951  0.10373330  0.50611211  1
  Sc  Sc84  1  0.09745736  0.50012365  0.90336056  1
  Sc  Sc85  1  0.10193331  0.89830596  0.10448246  1
  Sc  Sc86  1  0.10439322  0.08422201  0.90083591  1
  Sc  Sc87  1  0.30589155  0.30994512  0.69836584  1
  Sc  Sc88  1  0.90405252  0.29817366  0.10495458  1
  Sc  Sc89  1  0.28834689  0.10047756  0.50941054  1
  Sc  Sc90  1  0.30084043  0.90327828  0.89557295  1
  Sc  Sc91  1  0.90300160  0.10127966  0.30217683  1
  Sc  Sc92  1  0.69909098  0.70565617  0.29802557  1
  Sc  Sc93  1  0.69566846  0.09923259  0.30293351  1
  Sc  Sc94  1  0.69802344  0.90355132  0.48724594  1
  Sc  Sc95  1  0.50119987  0.89822305  0.10247705  1
  Sc  Sc96  1  0.29956681  0.30395192  0.29553035  1
  Sc  Sc97  1  0.11022651  0.49444081  0.28888983  1
  Sc  Sc98  1  0.90238569  0.09265134  0.69248339  1
  Sc  Sc99  1  0.10060078  0.89642123  0.89791999  1
  Nb  Nb100  1  0.50168231  0.50090113  0.30795287  1
  Nb  Nb101  1  0.10922555  0.90125711  0.30104142  1
  Nb  Nb102  1  0.29694062  0.50819405  0.69928559  1
  Nb  Nb103  1  0.89153114  0.70246345  0.90349291  1
  Nb  Nb104  1  0.10316858  0.30022315  0.49734794  1
  Nb  Nb105  1  0.29749996  0.10028981  0.30311724  1
  Nb  Nb106  1  0.50148631  0.29621577  0.69432706  1
  Nb  Nb107  1  0.69648848  0.89796525  0.30046013  1
  Nb  Nb108  1  0.50267300  0.50052273  0.49354573  1
  Nb  Nb109  1  0.09303690  0.50352398  0.70618952  1
  Nb  Nb110  1  0.31093416  0.50155428  0.30163683  1
  Nb  Nb111  1  0.49735235  0.69849097  0.09973508  1
  Nb  Nb112  1  0.70142402  0.69691601  0.50240660  1
  Nb  Nb113  1  0.89452997  0.70103053  0.10637322  1
  Nb  Nb114  1  0.29222292  0.09365866  0.69885925  1
  Nb  Nb115  1  0.10202027  0.09491357  0.70005640  1
  Nb  Nb116  1  0.90013786  0.50124232  0.50184347  1
  Nb  Nb117  1  0.49109939  0.30010725  0.50453661  1
  Nb  Nb118  1  0.09690190  0.89955439  0.70291013  1
  Nb  Nb119  1  0.31102869  0.69603886  0.09815024  1
  Nb  Nb120  1  0.09829425  0.70729152  0.69458561  1
  Nb  Nb121  1  0.90622574  0.50291629  0.69365859  1
  Nb  Nb122  1  0.29754528  0.90369933  0.30037582  1
  Nb  Nb123  1  0.70709720  0.69509912  0.90101090  1
  Nb  Nb124  1  0.49476044  0.10520004  0.69517743  1
  Nb  Nb125  1  0.19905448  0.19272520  0.20364475  1
  Nb  Nb126  1  0.39833786  0.59779522  0.00188878  1
  Nb  Nb127  1  0.80169462  0.60107714  0.40541496  1
  Nb  Nb128  1  0.59863726  0.59712677  0.80110796  1
  Nb  Nb129  1  0.40252829  0.40375604  0.00134048  1
  Nb  Nb130  1  0.00739861  0.19629171  0.80093003  1
  Nb  Nb131  1  0.80695552  0.60060360  0.59695128  1
  Nb  Nb132  1  0.20116506  0.80681402  0.39647723  1
  Nb  Nb133  1  0.39564987  0.00461349  0.39671282  1
  Nb  Nb134  1  0.79612020  0.39912977  0.20349552  1
  Nb  Nb135  1  0.19661559  0.19619152  0.79453169  1
  Nb  Nb136  1  0.60565773  0.79526894  -0.00161859  1
  Nb  Nb137  1  0.39416139  -0.00279599  0.20805306  1
  Nb  Nb138  1  0.79780498  0.79411259  0.59804869  1
  Nb  Nb139  1  0.39597828  0.20164666  0.40269241  1
  Nb  Nb140  1  -0.00161382  0.59544563  0.39936719  1
  Nb  Nb141  1  -0.00297100  0.60879415  0.20122126  1
  Nb  Nb142  1  0.00453560  0.40233118  0.40592922  1
  Nb  Nb143  1  0.00328552  0.19761215  -0.00665545  1
  Nb  Nb144  1  -0.01237958  0.79227928  0.00189035  1
  Nb  Nb145  1  0.59823828  0.39932600  0.79161850  1
  Nb  Nb146  1  0.39454786  0.60198639  0.80150106  1
  Nb  Nb147  1  0.19973633  0.60205818  0.79121476  1
  Nb  Nb148  1  0.40202258  0.40246211  0.40201940  1
  Nb  Nb149  1  0.59249647  0.39492240  0.59832519  1
  Pd  Pd150  1  0.79784852  0.80656743  0.00867235  1
  Pd  Pd151  1  0.79621887  0.79887182  0.78984608  1
  Pd  Pd152  1  0.80047762  0.40052834  0.79715229  1
  Pd  Pd153  1  0.40696210  0.79990547  -0.00386796  1
  Pd  Pd154  1  -0.00092254  0.20257125  0.40901910  1
  Pd  Pd155  1  0.00646578  0.80811978  0.40540972  1
  Pd  Pd156  1  -0.00491020  0.60638446  0.00695182  1
  Pd  Pd157  1  0.79474882  -0.01106888  0.60252635  1
  Pd  Pd158  1  0.20326680  0.41118522  0.39812688  1
  Pd  Pd159  1  0.20644263  -0.01046464  0.00397453  1
  Pd  Pd160  1  0.81054124  0.59373797  0.00250158  1
  Pd  Pd161  1  0.60764275  0.81089926  0.59403528  1
  Pd  Pd162  1  0.79959948  0.00039594  0.21247357  1
  Pd  Pd163  1  0.20558205  0.00642246  0.19314652  1
  Pd  Pd164  1  0.59304660  0.20077537  -0.00078841  1
  Pd  Pd165  1  0.40167055  -0.00542131  0.00791997  1
  Pd  Pd166  1  0.19657112  0.60852824  0.20617270  1
  Pd  Pd167  1  -0.00270906  0.19829029  0.60241679  1
  Pd  Pd168  1  0.59308252  0.00948399  0.79671564  1
  Pd  Pd169  1  0.80917996  0.19792899  -0.00109038  1
  Pd  Pd170  1  0.20098325  0.40662406  0.60618805  1
  Pd  Pd171  1  0.80016236  0.00208344  0.79020056  1
  Pd  Pd172  1  0.00270268  0.40225437  0.59229587  1
  Pd  Pd173  1  0.00334759  0.80040773  0.19029112  1
  Pd  Pd174  1  0.00792283  0.60662492  0.80366613  1
  Pd  Pd175  1  0.80510224  0.39695668  0.00704335  1
  Pd  Pd176  1  0.39062231  0.19405720  0.78829455  1
  Pd  Pd177  1  0.79614647  0.20270572  0.20165916  1
  Pd  Pd178  1  0.80606276  0.40130359  0.39948392  1
  Pd  Pd179  1  0.60536714  -0.00574161  0.59975505  1
  Pd  Pd180  1  0.59417955  0.38650616  -0.00132364  1
  Pd  Pd181  1  0.60547304  0.79432167  0.80879745  1
  Pd  Pd182  1  0.40542079  0.40341221  0.19993518  1
  Pd  Pd183  1  0.19770612  0.79689639  0.79976015  1
  Pd  Pd184  1  0.80082021  0.00117508  0.39326378  1
  Pd  Pd185  1  -0.00599070  -0.00860524  -0.00195948  1
  Pd  Pd186  1  0.38804665  0.19698536  0.59922725  1
  Pd  Pd187  1  0.20418243  0.78965794  0.20492539  1
  Pd  Pd188  1  0.00950385  0.19599776  0.19577086  1
  Pd  Pd189  1  0.40423987  0.40966043  0.80106001  1
  Pd  Pd190  1  0.81304544  0.19120244  0.79359794  1
  Pd  Pd191  1  0.20630720  0.39965168  0.00918791  1
  Pd  Pd192  1  0.18944032  0.20457836  -0.00062073  1
  Pd  Pd193  1  0.40613691  0.20563805  0.00355147  1
  Pd  Pd194  1  0.19674771  0.60304380  0.39218047  1
  Pd  Pd195  1  0.60141551  0.79378787  0.19305991  1
  Pd  Pd196  1  -0.00149202  0.39634271  -0.00024928  1
  Pd  Pd197  1  0.20325434  -0.00429825  0.41149763  1
  Pd  Pd198  1  0.00103800  -0.00425067  0.20803254  1
  Pd  Pd199  1  0.39094257  0.80552870  0.40341778  1
  Rh  Rh200  1  0.40179287  0.80353175  0.20367563  1
  Rh  Rh201  1  0.59077188  0.20270746  0.40402976  1
  Rh  Rh202  1  -0.00360894  0.40790729  0.20546962  1
  Rh  Rh203  1  -0.00258658  0.80734372  0.60162233  1
  Rh  Rh204  1  0.79160842  0.80935393  0.19926733  1
  Rh  Rh205  1  0.60539848  0.60906669  0.39411440  1
  Rh  Rh206  1  0.40133286  0.79893150  0.59316783  1
  Rh  Rh207  1  0.19855760  0.00004314  0.79701114  1
  Rh  Rh208  1  0.19077453  0.59930378  0.61060058  1
  Rh  Rh209  1  -0.00066043  0.39669532  0.79745511  1
  Rh  Rh210  1  0.19418210  0.40298172  0.79067939  1
  Rh  Rh211  1  0.19478914  0.81035484  0.59480541  1
  Rh  Rh212  1  0.59689647  0.60463642  0.20616629  1
  Rh  Rh213  1  0.79635430  0.40511819  0.59597835  1
  Rh  Rh214  1  0.20564364  0.39423274  0.19840130  1
  Rh  Rh215  1  0.59838695  0.20434312  0.59659501  1
  Rh  Rh216  1  0.00171148  0.59819945  0.59762915  1
  Rh  Rh217  1  0.00352605  -0.00036901  0.60202336  1
  Rh  Rh218  1  0.19948892  0.20210033  0.60916850  1
  Rh  Rh219  1  0.80080387  0.59214413  0.20262103  1
  Rh  Rh220  1  0.60739978  0.39261871  0.19948543  1
  Rh  Rh221  1  0.59894831  0.59025621  0.60514024  1
  Rh  Rh222  1  0.59513826  0.00406008  0.39631982  1
  Rh  Rh223  1  0.00066476  -0.00308238  0.39893566  1
  Rh  Rh224  1  0.79216615  0.79934986  0.40472917  1
  Rh  Rh225  1  0.80465285  -0.00288880  0.00078763  1
  Rh  Rh226  1  0.61005319  0.19815329  0.19491707  1
  Rh  Rh227  1  0.60488463  0.79417076  0.40209150  1
  Rh  Rh228  1  0.21135072  0.59791282  -0.00890163  1
  Rh  Rh229  1  0.41062286  0.59438305  0.19488470  1
  Rh  Rh230  1  0.39039777  0.19146565  0.20364506  1
  Rh  Rh231  1  0.59449757  0.00207126  0.20770145  1
  Rh  Rh232  1  0.58799010  0.38762405  0.40702620  1
  Rh  Rh233  1  0.59351023  0.61411882  -0.00601838  1
  Rh  Rh234  1  0.40579523  0.60674249  0.60131373  1
  Rh  Rh235  1  0.19240728  0.80476440  -0.00044838  1
  Rh  Rh236  1  0.59260998  -0.00638897  -0.00621271  1
  Rh  Rh237  1  0.39784355  0.00747253  0.59889230  1
  Rh  Rh238  1  0.20199792  0.19742083  0.39597844  1
  Rh  Rh239  1  0.39216428  0.79824085  0.79873363  1
  Rh  Rh240  1  0.80559818  0.19372268  0.40150188  1
  Rh  Rh241  1  0.39903993  0.00523165  0.79323690  1
  Rh  Rh242  1  0.40171491  0.59609410  0.40105394  1
  Rh  Rh243  1  0.19281624  -0.00575502  0.60519205  1
  Rh  Rh244  1  0.00397893  0.00177805  0.79730049  1
  Rh  Rh245  1  0.79900195  0.60024079  0.79491183  1
  Rh  Rh246  1  0.00517179  0.79555814  0.80906999  1
  Rh  Rh247  1  0.80692870  0.19406548  0.59904021  1
  Rh  Rh248  1  0.40070955  0.40279816  0.59463089  1
  Rh  Rh249  1  0.59735911  0.19848854  0.79602183  1
