# generated using pymatgen
data_ZrScNbPdRh
_symmetry_space_group_name_H-M   'P 1'
_cell_length_a   16.55770228
_cell_length_b   16.55577724
_cell_length_c   16.55873429
_cell_angle_alpha   89.97188454
_cell_angle_beta   89.98217847
_cell_angle_gamma   90.03160494
_symmetry_Int_Tables_number   1
_chemical_formula_structural   ZrScNbPdRh
_chemical_formula_sum   'Zr50 Sc50 Nb50 Pd50 Rh50'
_cell_volume   4539.17202091
_cell_formula_units_Z   50
loop_
 _symmetry_equiv_pos_site_id
 _symmetry_equiv_pos_as_xyz
  1  'x, y, z'
loop_
 _atom_site_type_symbol
 _atom_site_label
 _atom_site_symmetry_multiplicity
 _atom_site_fract_x
 _atom_site_fract_y
 _atom_site_fract_z
 _atom_site_occupancy
  Zr  Zr0  1  0.89628459  0.70691668  0.30202795  1
  Zr  Zr1  1  0.70230789  0.69466908  0.89863607  1
  Zr  Zr2  1  0.10422661  0.48964525  0.69910605  1
  Zr  Zr3  1  0.49774598  0.49090316  0.69188761  1
  Zr  Zr4  1  0.30094035  0.89666221  0.90217969  1
  Zr  Zr5  1  0.90311564  0.49643159  0.70283853  1
  Zr  Zr6  1  0.30488200  0.10894220  0.70120152  1
  Zr  Zr7  1  0.09480841  0.09106732  0.90142542  1
  Zr  Zr8  1  0.90744176  0.90528765  0.90265468  1
  Zr  Zr9  1  0.30056272  0.30265144  0.10782901  1
  Zr  Zr10  1  0.30472831  0.11297003  0.30812447  1
  Zr  Zr11  1  0.29346440  0.10066724  0.89686014  1
  Zr  Zr12  1  0.10763500  0.30276943  0.70292735  1
  Zr  Zr13  1  0.31073747  0.70442837  0.89005490  1
  Zr  Zr14  1  0.90120815  0.10479267  0.28739427  1
  Zr  Zr15  1  0.10861170  0.10191232  0.50164676  1
  Zr  Zr16  1  0.10715271  0.71172446  0.69248336  1
  Zr  Zr17  1  0.09550007  0.69480924  0.10261107  1
  Zr  Zr18  1  0.89617731  0.70381889  0.49601881  1
  Zr  Zr19  1  0.30065586  0.49462389  0.10036223  1
  Zr  Zr20  1  0.10711651  0.70393167  0.90265947  1
  Zr  Zr21  1  0.29938726  0.29251239  0.50135341  1
  Zr  Zr22  1  0.10059660  0.30866958  0.09928006  1
  Zr  Zr23  1  0.88661184  0.29899745  0.89440303  1
  Zr  Zr24  1  0.70110531  0.70812763  0.49705111  1
  Zr  Zr25  1  0.30135915  0.09741868  0.50386303  1
  Zr  Zr26  1  0.48698649  0.29588451  0.29187164  1
  Zr  Zr27  1  0.89267422  0.70187956  0.90075271  1
  Zr  Zr28  1  0.89352018  0.70149605  0.09953385  1
  Zr  Zr29  1  0.69714654  0.90130273  0.69952870  1
  Zr  Zr30  1  0.10902134  0.09336407  0.70426631  1
  Zr  Zr31  1  0.49550968  0.29210164  0.70081101  1
  Zr  Zr32  1  0.50873072  0.50325849  0.30425647  1
  Zr  Zr33  1  0.10242579  0.89530248  0.30518760  1
  Zr  Zr34  1  0.30898645  0.49126344  0.29731200  1
  Zr  Zr35  1  0.50627059  0.70405586  0.30094957  1
  Zr  Zr36  1  0.51325088  0.90092149  0.69737324  1
  Zr  Zr37  1  0.70161100  0.10066079  0.09633109  1
  Zr  Zr38  1  0.89391258  0.09675187  0.90293898  1
  Zr  Zr39  1  0.50217831  0.09725733  0.30406893  1
  Zr  Zr40  1  0.89758334  0.90048368  0.29720657  1
  Zr  Zr41  1  0.70065343  0.29929507  0.90702322  1
  Zr  Zr42  1  0.89306520  0.89101275  0.49605043  1
  Zr  Zr43  1  0.10007802  0.50020229  0.28952321  1
  Zr  Zr44  1  0.50179656  0.70064909  0.49180991  1
  Zr  Zr45  1  0.50782989  0.31081258  0.51539313  1
  Zr  Zr46  1  0.69666772  0.10582602  0.50294368  1
  Zr  Zr47  1  0.30911920  0.49950491  0.50677396  1
  Zr  Zr48  1  0.09752783  0.09735522  0.29932276  1
  Zr  Zr49  1  0.10123722  0.49662576  0.08961984  1
  Sc  Sc50  1  0.89056967  0.49851709  0.90074641  1
  Sc  Sc51  1  0.30042684  0.90311705  0.49335698  1
  Sc  Sc52  1  0.50769957  0.29690617  0.90106123  1
  Sc  Sc53  1  0.29733964  0.09624846  0.10196584  1
  Sc  Sc54  1  0.89712082  0.30241830  0.10642848  1
  Sc  Sc55  1  0.29191720  0.69370095  0.50038930  1
  Sc  Sc56  1  0.90258834  0.29951273  0.50066631  1
  Sc  Sc57  1  0.50124886  0.09843367  0.69294208  1
  Sc  Sc58  1  0.30468108  0.70522353  0.08173317  1
  Sc  Sc59  1  0.69709838  0.30443140  0.69681896  1
  Sc  Sc60  1  0.68969869  0.70502333  0.09638214  1
  Sc  Sc61  1  0.09920501  0.09780475  0.10491377  1
  Sc  Sc62  1  0.88793228  0.90846752  0.10485521  1
  Sc  Sc63  1  0.89467827  0.89757658  0.70600675  1
  Sc  Sc64  1  0.11401866  0.50038119  0.50966351  1
  Sc  Sc65  1  0.89263449  0.49052821  0.29948652  1
  Sc  Sc66  1  0.50763453  0.29626306  0.09762175  1
  Sc  Sc67  1  0.69940622  0.30048675  0.09894632  1
  Sc  Sc68  1  0.89673276  0.11061987  0.50307587  1
  Sc  Sc69  1  0.69793117  0.70782316  0.70291707  1
  Sc  Sc70  1  0.89891939  0.29678243  0.29566525  1
  Sc  Sc71  1  0.10048521  0.90395336  0.10842879  1
  Sc  Sc72  1  0.29142317  0.89927024  0.69917732  1
  Sc  Sc73  1  0.30121201  0.90247901  0.30439535  1
  Sc  Sc74  1  0.49974208  0.09833549  0.50386519  1
  Sc  Sc75  1  0.69052102  0.90119255  0.29506680  1
  Sc  Sc76  1  0.30549144  0.90512300  0.09857933  1
  Sc  Sc77  1  0.90429907  0.30194252  0.69687525  1
  Sc  Sc78  1  0.09965335  0.29540109  0.51020627  1
  Sc  Sc79  1  0.10224348  0.70606698  0.29950730  1
  Sc  Sc80  1  0.70127882  0.29634369  0.49308886  1
  Sc  Sc81  1  0.50294256  0.09990783  0.90067969  1
  Sc  Sc82  1  0.09867722  0.29113380  0.29353231  1
  Sc  Sc83  1  0.69097484  0.90440995  0.90081494  1
  Sc  Sc84  1  0.90622863  0.49465701  0.10018661  1
  Sc  Sc85  1  0.10109040  0.90388535  0.88756463  1
  Sc  Sc86  1  0.69936031  0.49250880  0.90216229  1
  Sc  Sc87  1  0.69334035  0.69954063  0.30396945  1
  Sc  Sc88  1  0.69638406  0.49122853  0.47661414  1
  Sc  Sc89  1  0.49962559  0.69500814  0.71268439  1
  Sc  Sc90  1  0.11301080  0.30829594  0.89991266  1
  Sc  Sc91  1  0.88832426  0.70406504  0.70854641  1
  Sc  Sc92  1  0.69625049  0.49020408  0.10042879  1
  Sc  Sc93  1  0.50747791  0.50144021  0.09864235  1
  Sc  Sc94  1  0.69323056  0.89800530  0.50819760  1
  Sc  Sc95  1  0.88851487  0.09908436  0.70342606  1
  Sc  Sc96  1  0.50087184  0.09808110  0.10537242  1
  Sc  Sc97  1  0.29814334  0.70833795  0.31061976  1
  Sc  Sc98  1  0.69865452  0.50092970  0.71168916  1
  Sc  Sc99  1  0.29914399  0.50822094  0.90160974  1
  Nb  Nb100  1  0.70363361  0.10758925  0.89409206  1
  Nb  Nb101  1  0.90253520  0.50029687  0.49852299  1
  Nb  Nb102  1  0.30080156  0.30232366  0.29885507  1
  Nb  Nb103  1  0.51227835  0.90052379  0.10302463  1
  Nb  Nb104  1  0.90520503  0.09631261  0.09901377  1
  Nb  Nb105  1  0.30154734  0.69677227  0.69859011  1
  Nb  Nb106  1  0.09908827  0.90362342  0.69499397  1
  Nb  Nb107  1  0.49702975  0.89689110  0.49540260  1
  Nb  Nb108  1  0.49680900  0.89901801  0.30487539  1
  Nb  Nb109  1  0.30404038  0.29605557  0.89611185  1
  Nb  Nb110  1  0.29963164  0.30189128  0.70993025  1
  Nb  Nb111  1  0.70189987  0.49606735  0.29338281  1
  Nb  Nb112  1  0.70314230  0.11531425  0.30825418  1
  Nb  Nb113  1  0.09552666  0.70340844  0.49880524  1
  Nb  Nb114  1  0.09429049  0.89305828  0.50479411  1
  Nb  Nb115  1  0.68361315  0.89998379  0.09930026  1
  Nb  Nb116  1  0.49497718  0.50601573  0.89621632  1
  Nb  Nb117  1  0.50217056  0.69787788  0.10183123  1
  Nb  Nb118  1  0.50269297  0.50057465  0.50106614  1
  Nb  Nb119  1  0.49701024  0.90014448  0.89812048  1
  Nb  Nb120  1  0.49049908  0.68835266  0.90884703  1
  Nb  Nb121  1  0.69574766  0.09337788  0.70190356  1
  Nb  Nb122  1  0.10097289  0.50430460  0.89680459  1
  Nb  Nb123  1  0.71088681  0.30309436  0.29940231  1
  Nb  Nb124  1  0.29776618  0.50163939  0.69543965  1
  Nb  Nb125  1  0.60300018  0.59503368  0.59244485  1
  Nb  Nb126  1  0.40366351  -0.00443984  0.80235666  1
  Nb  Nb127  1  0.20871044  0.60086608  0.19603168  1
  Nb  Nb128  1  -0.00208596  0.60326799  0.59983220  1
  Nb  Nb129  1  0.80052310  0.41065792  0.59402164  1
  Nb  Nb130  1  -0.00289691  0.19841433  -0.00256210  1
  Nb  Nb131  1  0.00164757  0.19769351  0.80704379  1
  Nb  Nb132  1  0.40280819  0.79753967  0.59914839  1
  Nb  Nb133  1  0.79798038  0.59475490  0.59409458  1
  Nb  Nb134  1  -0.00287549  0.80062496  0.00165701  1
  Nb  Nb135  1  0.40109328  0.39757490  -0.00730586  1
  Nb  Nb136  1  0.00162039  0.59841629  0.40556376  1
  Nb  Nb137  1  0.00243728  -0.00550629  0.59666802  1
  Nb  Nb138  1  0.00837641  0.60017870  0.79899257  1
  Nb  Nb139  1  0.20222888  0.39528215  0.39608672  1
  Nb  Nb140  1  0.00684587  0.40547139  0.40268675  1
  Nb  Nb141  1  0.40187129  0.60758279  0.19787652  1
  Nb  Nb142  1  0.19988119  0.60134384  0.79316258  1
  Nb  Nb143  1  0.60867121  0.19336925  0.79920798  1
  Nb  Nb144  1  0.79859536  0.00696525  0.39653889  1
  Nb  Nb145  1  0.39440059  0.20385298  -0.00279735  1
  Nb  Nb146  1  0.79437697  0.59795762  0.20170437  1
  Nb  Nb147  1  0.39682218  0.40075355  0.80154203  1
  Nb  Nb148  1  -0.00336562  -0.00159249  0.40570176  1
  Nb  Nb149  1  0.41175713  0.80108149  0.19767957  1
  Pd  Pd150  1  -0.00905802  0.59880460  0.20833525  1
  Pd  Pd151  1  0.79338545  0.59072723  0.01056380  1
  Pd  Pd152  1  0.80100129  0.59636898  0.39496836  1
  Pd  Pd153  1  0.20562699  0.60204182  -0.00197201  1
  Pd  Pd154  1  0.19435783  -0.00673330  0.00222967  1
  Pd  Pd155  1  0.59131754  0.20997964  0.39997042  1
  Pd  Pd156  1  0.59650431  0.38811219  0.39079879  1
  Pd  Pd157  1  0.60552029  0.00858407  0.20652721  1
  Pd  Pd158  1  0.59645628  0.79301814  0.81113582  1
  Pd  Pd159  1  0.80609318  0.20114677  0.01050403  1
  Pd  Pd160  1  0.39851725  -0.00332695  0.20537262  1
  Pd  Pd161  1  0.19784287  0.20140151  0.00229446  1
  Pd  Pd162  1  0.19663286  -0.00217277  0.40106745  1
  Pd  Pd163  1  0.39830136  0.60194516  0.39460828  1
  Pd  Pd164  1  -0.00598744  0.60266044  -0.00867649  1
  Pd  Pd165  1  0.21506857  0.79356282  0.19364445  1
  Pd  Pd166  1  0.59525209  0.39350161  0.80317121  1
  Pd  Pd167  1  0.79466032  0.21086497  0.60502616  1
  Pd  Pd168  1  0.78602439  0.00542132  0.20477147  1
  Pd  Pd169  1  0.00061251  0.20242127  0.40092426  1
  Pd  Pd170  1  0.40594952  0.00627405  -0.00277397  1
  Pd  Pd171  1  0.78482494  0.79534892  0.19949719  1
  Pd  Pd172  1  0.60559538  0.20139512  0.20171381  1
  Pd  Pd173  1  0.79139499  -0.00473456  0.00003298  1
  Pd  Pd174  1  0.59901112  0.00630738  -0.00449739  1
  Pd  Pd175  1  0.40342590  0.80858132  0.78953538  1
  Pd  Pd176  1  0.20711263  0.00131796  0.20724805  1
  Pd  Pd177  1  0.79685414  -0.00695061  0.80443073  1
  Pd  Pd178  1  0.19501999  0.59252336  0.39458575  1
  Pd  Pd179  1  0.60003245  0.59935097  0.79878690  1
  Pd  Pd180  1  0.59829402  0.39194977  0.20414217  1
  Pd  Pd181  1  0.39966809  -0.01078879  0.60642836  1
  Pd  Pd182  1  0.19974743  0.19697030  0.19889261  1
  Pd  Pd183  1  -0.01206012  0.79917703  0.60820735  1
  Pd  Pd184  1  0.80424265  -0.00124784  0.59297502  1
  Pd  Pd185  1  -0.00055407  0.39652448  0.81045831  1
  Pd  Pd186  1  -0.00304174  0.80579091  0.19291098  1
  Pd  Pd187  1  0.40152710  0.39386866  0.40612061  1
  Pd  Pd188  1  0.41253254  0.80693555  0.00675183  1
  Pd  Pd189  1  0.60514847  -0.00270115  0.40482195  1
  Pd  Pd190  1  0.41123839  0.20370527  0.41169682  1
  Pd  Pd191  1  -0.00594838  0.39192974  -0.01016675  1
  Pd  Pd192  1  0.00100582  0.18998614  0.61409252  1
  Pd  Pd193  1  0.40949555  0.60903922  0.60166872  1
  Pd  Pd194  1  0.59143594  0.79510097  -0.00985109  1
  Pd  Pd195  1  0.21059640  0.80445787  0.59111980  1
  Pd  Pd196  1  0.60402214  0.59479010  -0.00101704  1
  Pd  Pd197  1  0.79814740  0.81201517  -0.00069267  1
  Pd  Pd198  1  0.19158943  0.80988345  0.00530112  1
  Pd  Pd199  1  0.00126490  0.79699136  0.80328280  1
  Rh  Rh200  1  0.78594997  0.81429816  0.39264875  1
  Rh  Rh201  1  0.60539908  0.19573067  0.60718372  1
  Rh  Rh202  1  0.00071633  0.20214363  0.18616733  1
  Rh  Rh203  1  0.21188672  0.41102862  0.80627441  1
  Rh  Rh204  1  0.20435308  0.20359167  0.60788983  1
  Rh  Rh205  1  0.19735472  -0.00470356  0.59609160  1
  Rh  Rh206  1  0.59569341  0.00776931  0.80302440  1
  Rh  Rh207  1  0.59930702  0.00267762  0.59200582  1
  Rh  Rh208  1  0.20904357  0.39185345  0.59351132  1
  Rh  Rh209  1  0.39155971  0.39362434  0.60631977  1
  Rh  Rh210  1  0.00180193  -0.00443374  0.20483319  1
  Rh  Rh211  1  0.60405906  0.59957954  0.20080916  1
  Rh  Rh212  1  0.79649621  0.19758626  0.19475982  1
  Rh  Rh213  1  -0.00244108  0.40365886  0.59061291  1
  Rh  Rh214  1  0.80089103  0.40017774  0.00625248  1
  Rh  Rh215  1  0.19739021  0.20710693  0.39634544  1
  Rh  Rh216  1  0.58938660  0.78942236  0.59925818  1
  Rh  Rh217  1  0.79727881  0.39680621  0.79081762  1
  Rh  Rh218  1  0.20931614  -0.00469591  0.79864021  1
  Rh  Rh219  1  0.78986168  0.80834370  0.80807191  1
  Rh  Rh220  1  0.79542819  0.20412335  0.78964788  1
  Rh  Rh221  1  0.80897937  0.39115301  0.40100788  1
  Rh  Rh222  1  0.60441385  0.59840750  0.40144560  1
  Rh  Rh223  1  0.39853108  0.20362703  0.59760187  1
  Rh  Rh224  1  0.19490896  0.60320601  0.60513347  1
  Rh  Rh225  1  0.39721050  0.19566552  0.19126871  1
  Rh  Rh226  1  0.40907554  0.19632252  0.80609628  1
  Rh  Rh227  1  0.39728634  0.80185575  0.40306288  1
  Rh  Rh228  1  0.80687630  0.20032672  0.39849102  1
  Rh  Rh229  1  0.80096127  0.59840052  0.79858858  1
  Rh  Rh230  1  0.41285970  0.40561197  0.19059815  1
  Rh  Rh231  1  0.19631891  0.40043383  0.20592444  1
  Rh  Rh232  1  0.20905690  0.40200826  -0.00868671  1
  Rh  Rh233  1  0.00561818  0.79707287  0.39596358  1
  Rh  Rh234  1  0.59267018  0.40368706  -0.00476204  1
  Rh  Rh235  1  0.79868455  0.40337748  0.19739691  1
  Rh  Rh236  1  0.39469476  0.59049590  0.79311022  1
  Rh  Rh237  1  0.59707800  0.19409685  -0.00428865  1
  Rh  Rh238  1  0.40248437  0.00376181  0.39819525  1
  Rh  Rh239  1  0.61623743  0.41281197  0.59505020  1
  Rh  Rh240  1  0.79938621  0.79537642  0.60573214  1
  Rh  Rh241  1  0.20177668  0.79935961  0.79683064  1
  Rh  Rh242  1  -0.00556920  0.00552838  0.78428225  1
  Rh  Rh243  1  -0.00059360  0.39661185  0.20653603  1
  Rh  Rh244  1  0.60215523  0.80951085  0.40038968  1
  Rh  Rh245  1  0.40205014  0.59229469  0.00792552  1
  Rh  Rh246  1  0.19842715  0.80131820  0.40759538  1
  Rh  Rh247  1  0.59743546  0.80116785  0.20129108  1
  Rh  Rh248  1  0.00255587  -0.00401732  0.01034060  1
  Rh  Rh249  1  0.19188598  0.19912283  0.80157208  1
