# generated using pymatgen
data_ZrScNbPdRh
_symmetry_space_group_name_H-M   'P 1'
_cell_length_a   16.56162956
_cell_length_b   16.55511252
_cell_length_c   16.55906813
_cell_angle_alpha   90.02135916
_cell_angle_beta   90.00669090
_cell_angle_gamma   90.02556170
_symmetry_Int_Tables_number   1
_chemical_formula_structural   ZrScNbPdRh
_chemical_formula_sum   'Zr50 Sc50 Nb50 Pd50 Rh50'
_cell_volume   4540.15855477
_cell_formula_units_Z   50
loop_
 _symmetry_equiv_pos_site_id
 _symmetry_equiv_pos_as_xyz
  1  'x, y, z'
loop_
 _atom_site_type_symbol
 _atom_site_label
 _atom_site_symmetry_multiplicity
 _atom_site_fract_x
 _atom_site_fract_y
 _atom_site_fract_z
 _atom_site_occupancy
  Zr  Zr0  1  0.70061531  0.09640629  0.09599176  1
  Zr  Zr1  1  0.29301392  0.09698925  0.10054469  1
  Zr  Zr2  1  0.70769781  0.70377891  0.89889067  1
  Zr  Zr3  1  0.90073417  0.89520214  0.49041101  1
  Zr  Zr4  1  0.09170884  0.90170618  0.29967181  1
  Zr  Zr5  1  0.90263791  0.71381993  0.30185334  1
  Zr  Zr6  1  0.69959652  0.49664085  0.30010163  1
  Zr  Zr7  1  0.69848010  0.49725950  0.09742120  1
  Zr  Zr8  1  0.30489979  0.09837369  0.50199701  1
  Zr  Zr9  1  0.70611081  0.90688129  0.50221599  1
  Zr  Zr10  1  0.69997982  0.29956763  0.89263669  1
  Zr  Zr11  1  0.49125266  0.69466489  0.49761293  1
  Zr  Zr12  1  0.29189599  0.89653436  0.69914827  1
  Zr  Zr13  1  0.89505650  0.31000926  0.70022845  1
  Zr  Zr14  1  0.70555349  0.10586732  0.90241212  1
  Zr  Zr15  1  0.09860154  0.50303355  0.49122841  1
  Zr  Zr16  1  0.29981466  0.69796788  0.10207306  1
  Zr  Zr17  1  0.69979970  0.89481806  0.90195675  1
  Zr  Zr18  1  0.30018136  0.09818584  0.29866886  1
  Zr  Zr19  1  0.10193527  0.50259848  0.70114569  1
  Zr  Zr20  1  0.90413008  0.89657554  0.10023955  1
  Zr  Zr21  1  0.50257539  0.50147052  0.10092267  1
  Zr  Zr22  1  0.70441690  0.49734873  0.49614094  1
  Zr  Zr23  1  0.89371645  0.09315965  0.70864783  1
  Zr  Zr24  1  0.69920870  0.10166635  0.70384202  1
  Zr  Zr25  1  0.09765637  0.50294922  0.11478464  1
  Zr  Zr26  1  0.89998208  0.49650997  0.09734728  1
  Zr  Zr27  1  0.90221900  0.49625066  0.30374570  1
  Zr  Zr28  1  0.10306907  0.89835265  0.70826745  1
  Zr  Zr29  1  0.50018148  0.30014640  0.10022881  1
  Zr  Zr30  1  0.09689000  0.30975853  0.89541692  1
  Zr  Zr31  1  0.50366236  0.69226848  0.29679667  1
  Zr  Zr32  1  0.49763735  0.29679610  0.49286687  1
  Zr  Zr33  1  0.49766089  0.29510165  0.90295628  1
  Zr  Zr34  1  0.90126335  0.09186616  0.50002887  1
  Zr  Zr35  1  0.09609485  0.29737296  0.68836728  1
  Zr  Zr36  1  0.90861132  0.30060267  0.50403332  1
  Zr  Zr37  1  0.70424017  0.30315568  0.30210532  1
  Zr  Zr38  1  0.09479199  0.11206011  0.50683794  1
  Zr  Zr39  1  0.70413184  0.90467754  0.09853360  1
  Zr  Zr40  1  0.10438190  0.90563556  0.09994837  1
  Zr  Zr41  1  0.09914096  0.30549611  0.29525037  1
  Zr  Zr42  1  0.50224346  0.69165805  0.70325666  1
  Zr  Zr43  1  0.50124538  0.90372461  0.49947460  1
  Zr  Zr44  1  0.10120011  0.10431844  0.89815749  1
  Zr  Zr45  1  0.30134443  0.89281657  0.90016683  1
  Zr  Zr46  1  0.49854007  0.49521600  0.30961382  1
  Zr  Zr47  1  0.30278427  0.89550372  0.50087195  1
  Zr  Zr48  1  0.90072623  0.49906801  0.50416276  1
  Zr  Zr49  1  0.29907388  0.49979404  0.10342109  1
  Sc  Sc50  1  0.11006456  0.89546899  0.49671771  1
  Sc  Sc51  1  0.50358390  0.69799938  0.89581753  1
  Sc  Sc52  1  0.89671737  0.50494759  0.69913563  1
  Sc  Sc53  1  0.29512215  0.29964463  0.50405484  1
  Sc  Sc54  1  0.29030022  0.90278583  0.31051296  1
  Sc  Sc55  1  0.30707179  0.30280802  0.29711503  1
  Sc  Sc56  1  0.70231783  0.49847131  0.89995118  1
  Sc  Sc57  1  0.69874430  0.09706845  0.28868263  1
  Sc  Sc58  1  0.29593978  0.50553431  0.70731967  1
  Sc  Sc59  1  0.09836954  0.31089310  0.50019273  1
  Sc  Sc60  1  0.89658300  0.29862763  0.29227404  1
  Sc  Sc61  1  0.50510481  0.10083474  0.49457138  1
  Sc  Sc62  1  0.50081692  0.29696915  0.70669672  1
  Sc  Sc63  1  0.30756528  0.69655921  0.89327294  1
  Sc  Sc64  1  0.29967210  0.29611672  0.10194928  1
  Sc  Sc65  1  0.10906463  0.10576862  0.10472211  1
  Sc  Sc66  1  0.50602040  0.90974268  0.30315807  1
  Sc  Sc67  1  0.09515269  0.89693767  0.89267178  1
  Sc  Sc68  1  0.90217746  0.90399359  0.29883772  1
  Sc  Sc69  1  0.90812584  0.09604503  0.29988988  1
  Sc  Sc70  1  0.88704386  0.10577760  0.10304855  1
  Sc  Sc71  1  0.29267274  0.50527178  0.49589459  1
  Sc  Sc72  1  0.49780041  0.69356608  0.09777344  1
  Sc  Sc73  1  0.89848797  0.70080209  0.50385382  1
  Sc  Sc74  1  0.90590491  0.69849245  0.90077136  1
  Sc  Sc75  1  0.29495910  0.11668019  0.90323005  1
  Sc  Sc76  1  0.09380405  0.50294665  0.88861314  1
  Sc  Sc77  1  0.70705326  0.29285999  0.09837490  1
  Sc  Sc78  1  0.09226876  0.69976323  0.10842495  1
  Sc  Sc79  1  0.50476361  0.89179964  0.70450102  1
  Sc  Sc80  1  0.70571278  0.90009441  0.70352988  1
  Sc  Sc81  1  0.29492415  0.69676926  0.69601150  1
  Sc  Sc82  1  0.29376451  0.70543870  0.49726233  1
  Sc  Sc83  1  0.90024449  0.89169126  0.89960873  1
  Sc  Sc84  1  0.69565252  0.30270209  0.49583968  1
  Sc  Sc85  1  0.49896835  0.11127729  0.69310868  1
  Sc  Sc86  1  0.28787924  0.49838159  0.29741363  1
  Sc  Sc87  1  0.28897696  0.10787893  0.69669542  1
  Sc  Sc88  1  0.50759796  0.10565754  0.09975918  1
  Sc  Sc89  1  0.10030658  0.69915599  0.30040547  1
  Sc  Sc90  1  0.70456513  0.89890420  0.29170822  1
  Sc  Sc91  1  0.71240863  0.69329844  0.70580910  1
  Sc  Sc92  1  0.50076457  0.88556333  0.90031530  1
  Sc  Sc93  1  0.69508157  0.70062527  0.10117198  1
  Sc  Sc94  1  0.50063520  0.49362062  0.90063989  1
  Sc  Sc95  1  0.89835320  0.89877589  0.71223773  1
  Sc  Sc96  1  0.50740966  0.89634369  0.09582700  1
  Sc  Sc97  1  0.10370555  0.69374467  0.71087674  1
  Sc  Sc98  1  0.29909481  0.30193227  0.70118018  1
  Sc  Sc99  1  0.90608852  0.70046137  0.09391135  1
  Nb  Nb100  1  0.50170373  0.49913981  0.50090935  1
  Nb  Nb101  1  0.09389055  0.09836826  0.70158215  1
  Nb  Nb102  1  0.10187279  0.09832755  0.30276389  1
  Nb  Nb103  1  0.49513361  0.10364514  0.29515557  1
  Nb  Nb104  1  0.89810036  0.10545993  0.89841964  1
  Nb  Nb105  1  0.09912115  0.49954371  0.30220795  1
  Nb  Nb106  1  0.90024624  0.30340767  0.90050357  1
  Nb  Nb107  1  0.90622405  0.48729081  0.89950202  1
  Nb  Nb108  1  0.90337918  0.30084962  0.09521743  1
  Nb  Nb109  1  0.70512462  0.09614928  0.50879509  1
  Nb  Nb110  1  0.30182522  0.90064423  0.09747937  1
  Nb  Nb111  1  0.70180093  0.30397602  0.70141193  1
  Nb  Nb112  1  0.70489972  0.70276727  0.50056695  1
  Nb  Nb113  1  0.09524594  0.30331141  0.09622052  1
  Nb  Nb114  1  0.50236089  0.29080415  0.29900313  1
  Nb  Nb115  1  0.70464153  0.49266299  0.69451995  1
  Nb  Nb116  1  0.90404005  0.69904131  0.70161627  1
  Nb  Nb117  1  0.10059453  0.70075115  0.50451680  1
  Nb  Nb118  1  0.29673008  0.30962356  0.90197263  1
  Nb  Nb119  1  0.30101313  0.70603577  0.29683767  1
  Nb  Nb120  1  0.50427654  0.50327415  0.69492479  1
  Nb  Nb121  1  0.50047935  0.10345660  0.89750058  1
  Nb  Nb122  1  0.09984800  0.70134811  0.90371354  1
  Nb  Nb123  1  0.29102639  0.49197858  0.90072148  1
  Nb  Nb124  1  0.69999931  0.69839416  0.29909889  1
  Nb  Nb125  1  0.59577869  0.39581255  0.20421397  1
  Nb  Nb126  1  0.19451303  0.19785672  0.39589321  1
  Nb  Nb127  1  0.39815999  -0.00215107  0.19492388  1
  Nb  Nb128  1  0.39822984  -0.00336583  0.60534659  1
  Nb  Nb129  1  0.80057340  0.60075330  0.20510924  1
  Nb  Nb130  1  0.39982039  0.00113212  -0.00361840  1
  Nb  Nb131  1  0.39610074  0.80506594  0.20172245  1
  Nb  Nb132  1  0.19640563  0.40400671  0.00096017  1
  Nb  Nb133  1  0.60419968  0.79097284  0.59446506  1
  Nb  Nb134  1  0.00329569  -0.00547353  0.60483720  1
  Nb  Nb135  1  -0.00232210  0.01034136  -0.00422833  1
  Nb  Nb136  1  -0.00461161  0.20409963  -0.00237315  1
  Nb  Nb137  1  0.00286425  0.79971539  0.60500200  1
  Nb  Nb138  1  -0.00499138  0.20149757  0.80221576  1
  Nb  Nb139  1  0.79960952  0.19347476  0.40709657  1
  Nb  Nb140  1  0.79704930  0.60664236  0.39608965  1
  Nb  Nb141  1  0.60695930  0.79521822  0.40386208  1
  Nb  Nb142  1  0.59466535  0.00534377  0.80611340  1
  Nb  Nb143  1  0.59741377  0.40481249  0.60241768  1
  Nb  Nb144  1  0.40251861  0.00472037  0.80198169  1
  Nb  Nb145  1  0.19766995  0.59881431  -0.00237450  1
  Nb  Nb146  1  0.19965147  0.79403345  0.00044455  1
  Nb  Nb147  1  0.40883353  0.40877666  0.59996699  1
  Nb  Nb148  1  0.60419154  0.59665045  0.59837133  1
  Nb  Nb149  1  0.79659286  0.19872676  0.59866536  1
  Pd  Pd150  1  0.20912814  0.00559768  0.80687868  1
  Pd  Pd151  1  0.60089565  0.60230778  -0.00709663  1
  Pd  Pd152  1  0.79589418  0.39477276  -0.00129292  1
  Pd  Pd153  1  0.39597910  0.59948992  0.20746352  1
  Pd  Pd154  1  0.40760581  0.80398008  0.38832859  1
  Pd  Pd155  1  0.60815558  0.59474313  0.79970732  1
  Pd  Pd156  1  0.80420210  0.80237016  0.60739301  1
  Pd  Pd157  1  0.39762841  0.19589731  0.00568727  1
  Pd  Pd158  1  0.59796733  0.40246383  0.79669293  1
  Pd  Pd159  1  0.59031445  -0.00046985  -0.00617834  1
  Pd  Pd160  1  0.38752517  0.59660031  0.39491868  1
  Pd  Pd161  1  -0.00614252  0.60820466  0.39847787  1
  Pd  Pd162  1  0.80765060  0.59228737  0.80535057  1
  Pd  Pd163  1  0.39302229  0.19812363  0.79644362  1
  Pd  Pd164  1  0.81066259  -0.00412306  -0.00466165  1
  Pd  Pd165  1  0.59244941  0.80305982  0.20518643  1
  Pd  Pd166  1  0.60559694  0.60447770  0.40588207  1
  Pd  Pd167  1  0.80395365  0.60223920  0.00250730  1
  Pd  Pd168  1  0.39551909  0.40154844  0.00191862  1
  Pd  Pd169  1  0.20063741  0.20769413  0.20556285  1
  Pd  Pd170  1  0.40092339  0.40309824  0.79342118  1
  Pd  Pd171  1  0.80147722  0.79478297  0.19236568  1
  Pd  Pd172  1  0.39358920  0.59528193  0.59830501  1
  Pd  Pd173  1  0.39072205  0.40088505  0.40605455  1
  Pd  Pd174  1  -0.00106538  0.20580900  0.39297097  1
  Pd  Pd175  1  0.60534161  0.20370914  0.19865107  1
  Pd  Pd176  1  0.59266668  -0.00536388  0.61148452  1
  Pd  Pd177  1  -0.00452392  0.39895837  0.20201503  1
  Pd  Pd178  1  0.79511081  0.00516879  0.38784199  1
  Pd  Pd179  1  0.19746403  0.00195169  0.59774128  1
  Pd  Pd180  1  0.19809301  -0.00609835  -0.01087140  1
  Pd  Pd181  1  0.39932215  0.79961493  0.79165762  1
  Pd  Pd182  1  0.60927573  0.18911517  0.39679547  1
  Pd  Pd183  1  0.40453363  0.80135932  0.60692413  1
  Pd  Pd184  1  0.20826311  0.40749291  0.60122486  1
  Pd  Pd185  1  0.19470347  0.20893584  0.79604068  1
  Pd  Pd186  1  0.39888470  0.59129329  0.80539590  1
  Pd  Pd187  1  0.20141601  0.60794950  0.39445938  1
  Pd  Pd188  1  0.59762979  0.79090303  0.00238080  1
  Pd  Pd189  1  0.19332216  0.00590992  0.40612586  1
  Pd  Pd190  1  0.39626509  0.59586819  -0.00998086  1
  Pd  Pd191  1  -0.00128183  0.19432163  0.19340696  1
  Pd  Pd192  1  0.39200169  0.20072893  0.39980377  1
  Pd  Pd193  1  0.40480163  0.39974750  0.20232184  1
  Pd  Pd194  1  0.60427932  0.20937038  0.59885569  1
  Pd  Pd195  1  0.00638605  0.59316042  -0.00343404  1
  Pd  Pd196  1  0.60776441  0.00334339  0.39400988  1
  Pd  Pd197  1  0.20093078  0.80443492  0.19881479  1
  Pd  Pd198  1  -0.00119845  0.01062821  0.18855792  1
  Pd  Pd199  1  0.00360981  0.60429634  0.60267576  1
  Rh  Rh200  1  -0.00085418  0.79043527  0.79599173  1
  Rh  Rh201  1  0.20112382  0.60320805  0.80967344  1
  Rh  Rh202  1  0.80380628  -0.00065813  0.20026880  1
  Rh  Rh203  1  0.40428398  0.00346338  0.39937685  1
  Rh  Rh204  1  0.39856819  0.20296726  0.59885914  1
  Rh  Rh205  1  -0.00650561  0.60046046  0.80396985  1
  Rh  Rh206  1  0.60042535  0.19746802  0.80138159  1
  Rh  Rh207  1  -0.00923599  0.60113704  0.20894070  1
  Rh  Rh208  1  0.60840887  0.79974052  0.79325288  1
  Rh  Rh209  1  0.80424471  0.20877427  0.79365946  1
  Rh  Rh210  1  0.19509131  0.79419584  0.39642968  1
  Rh  Rh211  1  0.00415084  0.41490211  0.60375696  1
  Rh  Rh212  1  0.00847104  -0.00315196  0.40804016  1
  Rh  Rh213  1  0.80063120  0.79548441  0.00413980  1
  Rh  Rh214  1  0.19883312  0.39315504  0.39627188  1
  Rh  Rh215  1  0.19455755  0.21728438  -0.00029274  1
  Rh  Rh216  1  0.00813494  0.79803576  0.40887481  1
  Rh  Rh217  1  0.79303977  0.39131763  0.59372884  1
  Rh  Rh218  1  0.19165461  0.79167273  0.60413779  1
  Rh  Rh219  1  0.80063847  0.40660465  0.80501946  1
  Rh  Rh220  1  0.60507552  0.59092307  0.19770288  1
  Rh  Rh221  1  0.79642008  0.40214653  0.19099545  1
  Rh  Rh222  1  0.80259285  0.19897310  0.20654966  1
  Rh  Rh223  1  -0.00051406  0.00647375  0.80321449  1
  Rh  Rh224  1  0.80963846  -0.00264944  0.60361419  1
  Rh  Rh225  1  0.39766048  0.80094885  0.00791941  1
  Rh  Rh226  1  -0.00083588  0.39628690  0.39620928  1
  Rh  Rh227  1  0.19999319  0.39718674  0.79804136  1
  Rh  Rh228  1  0.59297268  0.39269608  0.39732911  1
  Rh  Rh229  1  0.20136575  0.79078837  0.80645982  1
  Rh  Rh230  1  0.79061941  -0.00580073  0.81147626  1
  Rh  Rh231  1  0.19849206  0.39597600  0.19608133  1
  Rh  Rh232  1  0.79840923  0.60235924  0.59601829  1
  Rh  Rh233  1  0.19934794  0.20309850  0.59515933  1
  Rh  Rh234  1  -0.01394563  0.18941622  0.61403332  1
  Rh  Rh235  1  0.60143706  0.39378577  0.00472101  1
  Rh  Rh236  1  0.80496060  0.79611122  0.80042295  1
  Rh  Rh237  1  0.80426284  0.20736555  -0.00165005  1
  Rh  Rh238  1  0.60239842  0.20383604  -0.00256999  1
  Rh  Rh239  1  0.59326827  0.00094333  0.19763300  1
  Rh  Rh240  1  0.20260517  -0.00462921  0.20672653  1
  Rh  Rh241  1  0.00122340  0.80150892  0.19861156  1
  Rh  Rh242  1  0.00486187  0.40215472  0.00194315  1
  Rh  Rh243  1  0.81109855  0.39378476  0.40728475  1
  Rh  Rh244  1  0.19741030  0.60273189  0.20402921  1
  Rh  Rh245  1  0.00929669  0.81043606  0.00121699  1
  Rh  Rh246  1  0.19716880  0.60006058  0.59701493  1
  Rh  Rh247  1  -0.00372396  0.40040686  0.79057927  1
  Rh  Rh248  1  0.79311458  0.79960198  0.39634157  1
  Rh  Rh249  1  0.39996023  0.19181217  0.19597230  1
