# generated using pymatgen
data_ZrScNbPdRh
_symmetry_space_group_name_H-M   'P 1'
_cell_length_a   16.55180699
_cell_length_b   16.55388214
_cell_length_c   16.55105386
_cell_angle_alpha   89.99439470
_cell_angle_beta   90.01055464
_cell_angle_gamma   89.98699919
_symmetry_Int_Tables_number   1
_chemical_formula_structural   ZrScNbPdRh
_chemical_formula_sum   'Zr50 Sc50 Nb50 Pd50 Rh50'
_cell_volume   4534.93329799
_cell_formula_units_Z   50
loop_
 _symmetry_equiv_pos_site_id
 _symmetry_equiv_pos_as_xyz
  1  'x, y, z'
loop_
 _atom_site_type_symbol
 _atom_site_label
 _atom_site_symmetry_multiplicity
 _atom_site_fract_x
 _atom_site_fract_y
 _atom_site_fract_z
 _atom_site_occupancy
  Zr  Zr0  1  0.09650882  0.49812626  0.30184470  1
  Zr  Zr1  1  0.90138756  0.70047793  0.09831469  1
  Zr  Zr2  1  0.09537342  0.30501952  0.08499915  1
  Zr  Zr3  1  0.90443780  0.10256234  0.69559955  1
  Zr  Zr4  1  0.70030890  0.09782084  0.29988791  1
  Zr  Zr5  1  0.90688528  0.89756935  0.10220445  1
  Zr  Zr6  1  0.30065770  0.30210085  0.70426982  1
  Zr  Zr7  1  0.10130921  0.50353899  0.09845438  1
  Zr  Zr8  1  0.09873075  0.09458961  0.88445475  1
  Zr  Zr9  1  0.50265800  0.10067578  0.70308919  1
  Zr  Zr10  1  0.49188048  0.89153520  0.70151391  1
  Zr  Zr11  1  0.30260093  0.50150166  0.49752244  1
  Zr  Zr12  1  0.50076222  0.49794462  0.49826959  1
  Zr  Zr13  1  0.30504331  0.70309910  0.29310459  1
  Zr  Zr14  1  0.50143292  0.29874420  0.29855801  1
  Zr  Zr15  1  0.10397650  0.09357782  0.09921346  1
  Zr  Zr16  1  0.10065576  0.08871257  0.30330475  1
  Zr  Zr17  1  0.50914048  0.09547821  0.90360596  1
  Zr  Zr18  1  0.69309719  0.50206399  0.50572297  1
  Zr  Zr19  1  0.09725881  0.89829975  0.28902122  1
  Zr  Zr20  1  0.69847936  0.91431173  0.90386648  1
  Zr  Zr21  1  0.30417278  0.29451594  0.09145667  1
  Zr  Zr22  1  0.28021385  0.09210670  0.70078210  1
  Zr  Zr23  1  0.29840290  0.89193369  0.09443734  1
  Zr  Zr24  1  0.30333634  0.30316711  0.50122576  1
  Zr  Zr25  1  0.29674676  0.10252300  0.29590889  1
  Zr  Zr26  1  0.10000642  0.90949067  0.71280407  1
  Zr  Zr27  1  0.89371668  0.10270763  0.91269054  1
  Zr  Zr28  1  0.90366185  0.30068413  0.91764189  1
  Zr  Zr29  1  0.90016377  0.89664882  0.88955497  1
  Zr  Zr30  1  0.09901387  0.50595027  0.70452970  1
  Zr  Zr31  1  0.89929487  0.30001683  0.69482233  1
  Zr  Zr32  1  0.50170167  0.70657488  0.29910489  1
  Zr  Zr33  1  0.70695378  0.30007426  0.90508133  1
  Zr  Zr34  1  0.69335638  0.69108140  0.69865485  1
  Zr  Zr35  1  0.89653310  0.69495703  0.89916797  1
  Zr  Zr36  1  0.09831165  0.70717469  0.09682271  1
  Zr  Zr37  1  0.09628847  0.89116605  0.49441132  1
  Zr  Zr38  1  0.30048581  0.70078831  0.09632399  1
  Zr  Zr39  1  0.50278896  0.30844323  0.49974168  1
  Zr  Zr40  1  0.29990337  0.29620341  0.29747167  1
  Zr  Zr41  1  0.69283974  0.70456183  0.29869432  1
  Zr  Zr42  1  0.69891062  0.10401802  0.90426088  1
  Zr  Zr43  1  0.89532805  0.30280594  0.30534743  1
  Zr  Zr44  1  0.89817894  0.49959646  0.30656388  1
  Zr  Zr45  1  0.30236682  0.70360020  0.70369631  1
  Zr  Zr46  1  0.29690511  0.50365569  0.30138910  1
  Zr  Zr47  1  0.69642583  0.69419385  0.10266186  1
  Zr  Zr48  1  0.49388208  0.90377932  0.49315162  1
  Zr  Zr49  1  0.70601478  0.30715878  0.69582331  1
  Sc  Sc50  1  0.50051578  0.69781959  0.70994983  1
  Sc  Sc51  1  0.90820799  0.70273939  0.50376013  1
  Sc  Sc52  1  0.50275364  0.09335463  0.30109729  1
  Sc  Sc53  1  0.09249979  0.70131687  0.70442645  1
  Sc  Sc54  1  0.70710449  0.90233600  0.49977752  1
  Sc  Sc55  1  0.10660537  0.50328875  0.90308727  1
  Sc  Sc56  1  0.10615641  0.69934865  0.30489294  1
  Sc  Sc57  1  0.70272362  0.50625376  0.29804147  1
  Sc  Sc58  1  0.88731796  0.69686299  0.29555572  1
  Sc  Sc59  1  0.70306148  0.70186607  0.48928699  1
  Sc  Sc60  1  0.69964215  0.10259414  0.49916094  1
  Sc  Sc61  1  0.70143845  0.09317039  0.09295812  1
  Sc  Sc62  1  0.89164873  0.30067679  0.50028166  1
  Sc  Sc63  1  0.90828264  0.90013065  0.29540487  1
  Sc  Sc64  1  0.10366287  0.29722457  0.30093899  1
  Sc  Sc65  1  0.50255973  0.30684726  0.70166206  1
  Sc  Sc66  1  0.29556919  0.10094664  0.90788492  1
  Sc  Sc67  1  0.30709277  0.89523269  0.29909864  1
  Sc  Sc68  1  0.30414106  0.10322796  0.10258692  1
  Sc  Sc69  1  0.69777884  0.30321226  0.49977056  1
  Sc  Sc70  1  0.49821789  0.10435351  0.10001819  1
  Sc  Sc71  1  0.50547370  0.50269531  0.69801054  1
  Sc  Sc72  1  0.50931221  0.69775299  0.49214916  1
  Sc  Sc73  1  0.69490947  0.50559536  0.09673747  1
  Sc  Sc74  1  0.50204067  0.50162488  0.09362210  1
  Sc  Sc75  1  0.69374587  0.30379044  0.10374183  1
  Sc  Sc76  1  0.50049991  0.69253321  0.10050437  1
  Sc  Sc77  1  0.10532434  0.09625123  0.50174661  1
  Sc  Sc78  1  0.50118191  0.50371051  0.30705360  1
  Sc  Sc79  1  0.49962285  0.30234951  0.90804508  1
  Sc  Sc80  1  0.90468521  0.70795674  0.70144190  1
  Sc  Sc81  1  0.70323388  0.10516452  0.70380072  1
  Sc  Sc82  1  0.71593719  0.90470121  0.69998973  1
  Sc  Sc83  1  0.09799004  0.28090409  0.70096026  1
  Sc  Sc84  1  0.89488632  0.50538912  0.09756552  1
  Sc  Sc85  1  0.69735344  0.30390394  0.30329481  1
  Sc  Sc86  1  0.50296289  0.89931259  0.30005435  1
  Sc  Sc87  1  0.29831375  0.50506382  0.09359050  1
  Sc  Sc88  1  0.30244191  0.49991631  0.71501716  1
  Sc  Sc89  1  0.08737448  0.51132268  0.49274439  1
  Sc  Sc90  1  0.30265983  0.50317706  0.89815781  1
  Sc  Sc91  1  0.69937256  0.90499990  0.10776505  1
  Sc  Sc92  1  0.89456008  0.50141701  0.70519244  1
  Sc  Sc93  1  0.29503552  0.08598336  0.50202223  1
  Sc  Sc94  1  0.29314187  0.70989618  0.49105747  1
  Sc  Sc95  1  0.69558662  0.68988638  0.89515719  1
  Sc  Sc96  1  0.49399355  0.50309292  0.90362087  1
  Sc  Sc97  1  0.89954492  0.89548857  0.50300649  1
  Sc  Sc98  1  0.09835099  0.69936609  0.90173380  1
  Sc  Sc99  1  0.49991434  0.29714301  0.09620826  1
  Nb  Nb100  1  0.09640278  0.30320080  0.90234200  1
  Nb  Nb101  1  0.09356994  0.30265968  0.50000793  1
  Nb  Nb102  1  0.90016693  0.09908518  0.49642899  1
  Nb  Nb103  1  0.70447230  0.50000895  0.70214241  1
  Nb  Nb104  1  0.49665050  0.89656868  0.90165954  1
  Nb  Nb105  1  0.90280755  0.10033415  0.10028635  1
  Nb  Nb106  1  0.90417705  0.90078142  0.69514251  1
  Nb  Nb107  1  0.09829268  0.89052343  0.09385792  1
  Nb  Nb108  1  0.30482963  0.89228937  0.90403327  1
  Nb  Nb109  1  0.69627277  0.90310085  0.30578614  1
  Nb  Nb110  1  0.71449670  0.50264500  0.89404533  1
  Nb  Nb111  1  0.90635631  0.09752125  0.29911669  1
  Nb  Nb112  1  0.90597020  0.29302218  0.09925115  1
  Nb  Nb113  1  0.88745863  0.49606865  0.89915178  1
  Nb  Nb114  1  0.30666949  0.30516883  0.89830516  1
  Nb  Nb115  1  0.49359210  0.89938537  0.09009954  1
  Nb  Nb116  1  0.30689404  0.69748927  0.89909367  1
  Nb  Nb117  1  0.49937127  0.09825730  0.50082075  1
  Nb  Nb118  1  0.90046983  0.50378644  0.50141258  1
  Nb  Nb119  1  0.29975454  0.89834214  0.69655260  1
  Nb  Nb120  1  0.30083774  0.89624415  0.51434104  1
  Nb  Nb121  1  0.09631436  0.09571128  0.69734675  1
  Nb  Nb122  1  0.10042207  0.69838872  0.50688231  1
  Nb  Nb123  1  0.49572994  0.70575710  0.89899987  1
  Nb  Nb124  1  0.10184863  0.89703818  0.90593059  1
  Nb  Nb125  1  0.59502438  -0.00294970  0.59930246  1
  Nb  Nb126  1  0.80883554  0.19632555  0.19953151  1
  Nb  Nb127  1  -0.00076624  0.00117019  0.60280223  1
  Nb  Nb128  1  0.40021847  0.19481243  0.60030126  1
  Nb  Nb129  1  0.79961833  0.59682810  0.59894421  1
  Nb  Nb130  1  -0.00341877  0.39458843  0.19653371  1
  Nb  Nb131  1  0.39668192  0.39820007  0.19944420  1
  Nb  Nb132  1  0.79372719  0.79975083  -0.00094232  1
  Nb  Nb133  1  0.39550975  0.60198261  0.59849001  1
  Nb  Nb134  1  -0.00143259  0.39660789  0.80483015  1
  Nb  Nb135  1  0.19706741  0.40108615  0.40612323  1
  Nb  Nb136  1  0.19995968  0.60050369  0.59834237  1
  Nb  Nb137  1  0.40186375  0.19541758  0.40727335  1
  Nb  Nb138  1  0.19139760  0.40375080  0.59786783  1
  Nb  Nb139  1  0.59732050  0.80240290  -0.00479565  1
  Nb  Nb140  1  -0.00236290  0.19581761  0.39916015  1
  Nb  Nb141  1  0.61311921  0.40642956  0.80407677  1
  Nb  Nb142  1  0.80550531  0.00333529  0.39416272  1
  Nb  Nb143  1  0.39568346  -0.00538678  0.80323270  1
  Nb  Nb144  1  -0.00197349  0.19899816  0.20023026  1
  Nb  Nb145  1  0.00348829  -0.00508868  -0.00103311  1
  Nb  Nb146  1  0.00158394  0.40157237  0.60143055  1
  Nb  Nb147  1  0.60054268  0.80554982  0.60108316  1
  Nb  Nb148  1  0.39737102  0.19545593  0.79880676  1
  Nb  Nb149  1  0.20694864  0.80588340  0.80598765  1
  Pd  Pd150  1  -0.00662823  0.59270128  0.80591541  1
  Pd  Pd151  1  0.19885635  0.39564479  0.20039545  1
  Pd  Pd152  1  0.39210124  0.00217942  0.39569679  1
  Pd  Pd153  1  0.20273153  0.80624581  0.39442306  1
  Pd  Pd154  1  0.39933212  0.61099226  0.40469140  1
  Pd  Pd155  1  0.40091858  0.00613711  0.60766695  1
  Pd  Pd156  1  0.40205355  -0.00362092  0.19765620  1
  Pd  Pd157  1  0.60325566  0.40667514  -0.00761712  1
  Pd  Pd158  1  0.19085092  0.20374216  0.19368457  1
  Pd  Pd159  1  0.39686524  0.40715892  0.61161910  1
  Pd  Pd160  1  0.19917173  -0.00182027  -0.00118801  1
  Pd  Pd161  1  0.80316136  0.39796539  0.19300766  1
  Pd  Pd162  1  0.19073781  0.79808240  0.61037600  1
  Pd  Pd163  1  0.59559090  0.19910496  0.40155859  1
  Pd  Pd164  1  -0.00757455  0.20452489  0.80688099  1
  Pd  Pd165  1  0.60702892  0.19457045  0.19596251  1
  Pd  Pd166  1  -0.00130473  0.59937141  0.20467456  1
  Pd  Pd167  1  0.40983425  0.78589957  0.58944281  1
  Pd  Pd168  1  0.80760327  0.20272128  0.80201521  1
  Pd  Pd169  1  0.19882966  0.20226856  0.40928879  1
  Pd  Pd170  1  0.40577893  0.59160612  0.19741717  1
  Pd  Pd171  1  0.20427201  0.20664200  0.80854863  1
  Pd  Pd172  1  0.59771968  -0.00928655  0.78995186  1
  Pd  Pd173  1  0.59268809  -0.00029177  0.19475429  1
  Pd  Pd174  1  0.79529475  0.19714598  0.59476851  1
  Pd  Pd175  1  0.59629501  0.21409944  0.80377776  1
  Pd  Pd176  1  0.20121167  0.20284327  0.59409621  1
  Pd  Pd177  1  0.79228913  0.40616782  0.40678430  1
  Pd  Pd178  1  0.79139365  0.79490188  0.80270274  1
  Pd  Pd179  1  0.20733486  -0.01365080  0.40088040  1
  Pd  Pd180  1  0.20807999  0.40388009  -0.00673139  1
  Pd  Pd181  1  0.61016563  0.80735743  0.79923582  1
  Pd  Pd182  1  0.39799422  0.00647433  -0.00283861  1
  Pd  Pd183  1  0.19616122  0.20003706  -0.00773518  1
  Pd  Pd184  1  0.59367869  0.58987444  0.80800444  1
  Pd  Pd185  1  0.59129310  0.40796947  0.20267057  1
  Pd  Pd186  1  0.80243600  0.00058500  0.20367301  1
  Pd  Pd187  1  0.59886582  0.19796536  0.59872143  1
  Pd  Pd188  1  -0.00519626  0.79182862  0.39215597  1
  Pd  Pd189  1  0.79813930  0.80479507  0.19791556  1
  Pd  Pd190  1  0.59297669  0.80794583  0.19058515  1
  Pd  Pd191  1  -0.00116996  0.59411938  -0.00601104  1
  Pd  Pd192  1  0.20812417  -0.01025787  0.19513837  1
  Pd  Pd193  1  0.80477317  0.00920914  0.79682486  1
  Pd  Pd194  1  0.79712488  0.40107893  0.01422367  1
  Pd  Pd195  1  -0.00578485  0.61307333  0.39440225  1
  Pd  Pd196  1  0.19015192  0.39333101  0.79802566  1
  Pd  Pd197  1  0.79528337  0.78922258  0.60069238  1
  Pd  Pd198  1  0.80554762  0.80809243  0.39458980  1
  Pd  Pd199  1  0.19667632  0.60605949  0.19789946  1
  Rh  Rh200  1  0.00277565  0.78946353  0.20604466  1
  Rh  Rh201  1  0.39834761  0.80093266  0.40307801  1
  Rh  Rh202  1  0.80367622  0.39242569  0.80227637  1
  Rh  Rh203  1  0.81070639  -0.01094544  0.00469204  1
  Rh  Rh204  1  -0.00416238  0.00055097  0.41168592  1
  Rh  Rh205  1  0.40119405  0.60435791  -0.00290404  1
  Rh  Rh206  1  0.79646886  0.59779810  0.19812766  1
  Rh  Rh207  1  0.59884301  0.60682549  0.59624494  1
  Rh  Rh208  1  0.79677956  0.60581813  0.00201862  1
  Rh  Rh209  1  0.20250719  0.79138332  -0.00779289  1
  Rh  Rh210  1  0.00242521  0.39271524  0.40062279  1
  Rh  Rh211  1  0.40533093  0.59835097  0.79771493  1
  Rh  Rh212  1  0.40148396  0.19723150  -0.00990344  1
  Rh  Rh213  1  0.59970494  0.60373260  -0.00764229  1
  Rh  Rh214  1  0.39683664  0.39276003  0.38644253  1
  Rh  Rh215  1  0.21107346  -0.01003668  0.81040111  1
  Rh  Rh216  1  0.60383567  0.59887906  0.39492585  1
  Rh  Rh217  1  -0.01036924  0.00172390  0.80025935  1
  Rh  Rh218  1  0.78986472  0.20416585  0.01487101  1
  Rh  Rh219  1  0.20279032  0.61346401  0.80005864  1
  Rh  Rh220  1  0.80597284  0.60714381  0.78946400  1
  Rh  Rh221  1  -0.00954217  0.80311984  -0.00853679  1
  Rh  Rh222  1  0.80379538  0.00513992  0.59365147  1
  Rh  Rh223  1  0.60208370  0.80910328  0.40572063  1
  Rh  Rh224  1  0.20176653  0.60518236  -0.00329712  1
  Rh  Rh225  1  0.60316693  0.20000687  0.00476686  1
  Rh  Rh226  1  0.40575858  0.80219648  0.19406734  1
  Rh  Rh227  1  0.59450879  -0.00439054  0.00736851  1
  Rh  Rh228  1  0.39412602  0.80261554  0.80418014  1
  Rh  Rh229  1  0.60140202  0.40122998  0.60762112  1
  Rh  Rh230  1  0.00579837  0.80823565  0.60576445  1
  Rh  Rh231  1  0.00441264  0.00091598  0.18933740  1
  Rh  Rh232  1  -0.00322129  0.41391264  -0.00164577  1
  Rh  Rh233  1  0.80287464  0.19269249  0.39397817  1
  Rh  Rh234  1  0.60931073  -0.00186314  0.40792361  1
  Rh  Rh235  1  0.80098148  0.59917223  0.40886634  1
  Rh  Rh236  1  0.18757420  -0.01376818  0.59356969  1
  Rh  Rh237  1  0.00676856  0.80186994  0.80191219  1
  Rh  Rh238  1  0.01189831  0.18614811  -0.00056299  1
  Rh  Rh239  1  0.60579806  0.40464984  0.39610132  1
  Rh  Rh240  1  0.19992129  0.80008275  0.20042764  1
  Rh  Rh241  1  0.80638151  0.40878965  0.59373583  1
  Rh  Rh242  1  0.41210191  0.39544681  0.80536168  1
  Rh  Rh243  1  0.19786766  0.59718776  0.40586314  1
  Rh  Rh244  1  0.59693040  0.59713603  0.20484321  1
  Rh  Rh245  1  0.00198676  0.19551217  0.58802493  1
  Rh  Rh246  1  0.40492645  0.20161736  0.20737910  1
  Rh  Rh247  1  0.40753589  0.79062570  0.00530476  1
  Rh  Rh248  1  0.39613321  0.40199076  0.00652119  1
  Rh  Rh249  1  -0.00240948  0.59639438  0.60088958  1
