# generated using pymatgen
data_ZrScNbPdRh
_symmetry_space_group_name_H-M   'P 1'
_cell_length_a   16.55479840
_cell_length_b   16.55933615
_cell_length_c   16.55781659
_cell_angle_alpha   89.99060281
_cell_angle_beta   89.99738141
_cell_angle_gamma   89.97936470
_symmetry_Int_Tables_number   1
_chemical_formula_structural   ZrScNbPdRh
_chemical_formula_sum   'Zr50 Sc50 Nb50 Pd50 Rh50'
_cell_volume   4539.10105717
_cell_formula_units_Z   50
loop_
 _symmetry_equiv_pos_site_id
 _symmetry_equiv_pos_as_xyz
  1  'x, y, z'
loop_
 _atom_site_type_symbol
 _atom_site_label
 _atom_site_symmetry_multiplicity
 _atom_site_fract_x
 _atom_site_fract_y
 _atom_site_fract_z
 _atom_site_occupancy
  Zr  Zr0  1  0.89282671  0.49871632  0.30866034  1
  Zr  Zr1  1  0.90587336  0.89451527  0.89465756  1
  Zr  Zr2  1  0.49529253  0.29464147  0.08794007  1
  Zr  Zr3  1  0.89922247  0.30647534  0.91274762  1
  Zr  Zr4  1  0.71626735  0.69911637  0.89142948  1
  Zr  Zr5  1  0.49661563  0.89681458  0.89881737  1
  Zr  Zr6  1  0.10303812  0.69407587  0.30095969  1
  Zr  Zr7  1  0.49954437  0.70078199  0.89923813  1
  Zr  Zr8  1  0.90576047  0.30415918  0.69438989  1
  Zr  Zr9  1  0.49415497  0.09662509  0.30603347  1
  Zr  Zr10  1  0.09632586  0.10435959  0.70439618  1
  Zr  Zr11  1  0.10818832  0.49502040  0.29788704  1
  Zr  Zr12  1  0.09462888  0.30750520  0.89861511  1
  Zr  Zr13  1  0.49799731  0.30115717  0.89773772  1
  Zr  Zr14  1  0.09805872  0.70449184  0.90496877  1
  Zr  Zr15  1  0.69200551  0.50547079  0.88962414  1
  Zr  Zr16  1  0.70087706  0.29854067  0.90038652  1
  Zr  Zr17  1  0.10668020  0.88941819  0.50521247  1
  Zr  Zr18  1  0.90056856  0.50245143  0.90280348  1
  Zr  Zr19  1  0.69484015  0.70042439  0.50778435  1
  Zr  Zr20  1  0.70196682  0.69153413  0.30162734  1
  Zr  Zr21  1  0.29885944  0.69605172  0.10411032  1
  Zr  Zr22  1  0.89792939  0.69628819  0.09241513  1
  Zr  Zr23  1  0.50504766  0.89964269  0.10274794  1
  Zr  Zr24  1  0.89672965  0.09901612  0.70408311  1
  Zr  Zr25  1  0.29759750  0.09939141  0.30086774  1
  Zr  Zr26  1  0.30645025  0.09918625  0.70127468  1
  Zr  Zr27  1  0.10536088  0.69843035  0.49507179  1
  Zr  Zr28  1  0.69881111  0.90658445  0.49930995  1
  Zr  Zr29  1  0.69756329  0.09317238  0.50350104  1
  Zr  Zr30  1  0.91063904  0.10059626  0.10310897  1
  Zr  Zr31  1  0.29729246  0.70200527  0.89737817  1
  Zr  Zr32  1  0.90047793  0.90347304  0.50029715  1
  Zr  Zr33  1  0.10047995  0.09420857  0.90977253  1
  Zr  Zr34  1  0.10189374  0.09994933  0.49669639  1
  Zr  Zr35  1  0.29588842  0.49759148  0.90721321  1
  Zr  Zr36  1  0.29799325  0.70278244  0.30046481  1
  Zr  Zr37  1  0.69739568  0.90404035  0.10312624  1
  Zr  Zr38  1  0.09091358  0.29420948  0.09820151  1
  Zr  Zr39  1  0.50447291  0.10971800  0.50055385  1
  Zr  Zr40  1  0.89926866  0.69551031  0.29408007  1
  Zr  Zr41  1  0.70349798  0.09989051  0.09014769  1
  Zr  Zr42  1  0.10015013  0.69947361  0.69375488  1
  Zr  Zr43  1  0.69928899  0.50228135  0.50042364  1
  Zr  Zr44  1  0.71257374  0.51342867  0.69292784  1
  Zr  Zr45  1  0.10063226  0.70358653  0.09896344  1
  Zr  Zr46  1  0.30741457  0.90167544  0.29510236  1
  Zr  Zr47  1  0.29745331  0.49547749  0.49398770  1
  Zr  Zr48  1  0.69961999  0.10110521  0.69244832  1
  Zr  Zr49  1  0.89480507  0.10590429  0.50344702  1
  Sc  Sc50  1  0.70693897  0.90511037  0.91107833  1
  Sc  Sc51  1  0.30234888  0.89226578  0.69677980  1
  Sc  Sc52  1  0.48763621  0.10928071  0.89360715  1
  Sc  Sc53  1  0.70265834  0.29431114  0.08456252  1
  Sc  Sc54  1  0.52403459  0.49095431  0.70281521  1
  Sc  Sc55  1  0.69590512  0.50114732  0.30928787  1
  Sc  Sc56  1  0.11065137  0.49906643  0.10103197  1
  Sc  Sc57  1  0.29296325  0.31062709  0.31283731  1
  Sc  Sc58  1  0.49812023  0.70454932  0.30127263  1
  Sc  Sc59  1  0.50566177  0.89607113  0.50191422  1
  Sc  Sc60  1  0.09268489  0.09855886  0.29879448  1
  Sc  Sc61  1  0.50140079  0.70233605  0.49805327  1
  Sc  Sc62  1  0.29604849  0.70117796  0.49897337  1
  Sc  Sc63  1  0.31270960  0.10629033  0.49725613  1
  Sc  Sc64  1  0.09619552  0.49304245  0.69905026  1
  Sc  Sc65  1  0.09779367  0.30370522  0.70648647  1
  Sc  Sc66  1  0.71123145  0.10417978  0.89828634  1
  Sc  Sc67  1  0.28690083  0.09227119  0.09535732  1
  Sc  Sc68  1  0.09558587  0.89549372  0.90237482  1
  Sc  Sc69  1  0.70315506  0.90612597  0.69026158  1
  Sc  Sc70  1  0.28115738  0.49586522  0.70303911  1
  Sc  Sc71  1  0.29335480  0.89795099  0.10402262  1
  Sc  Sc72  1  0.50353153  0.29046803  0.69870946  1
  Sc  Sc73  1  0.30230516  0.29260421  0.90276533  1
  Sc  Sc74  1  0.09933125  0.90009463  0.29945991  1
  Sc  Sc75  1  0.89567361  0.90373994  0.29545957  1
  Sc  Sc76  1  0.49157789  0.90019618  0.69445784  1
  Sc  Sc77  1  0.70131473  0.51585039  0.10134634  1
  Sc  Sc78  1  0.29882809  0.89201188  0.89337678  1
  Sc  Sc79  1  0.49978958  0.50371975  0.31116357  1
  Sc  Sc80  1  0.50179502  0.10069823  0.09240428  1
  Sc  Sc81  1  0.29750755  0.50388213  0.29880071  1
  Sc  Sc82  1  0.89314447  0.90435306  0.10157490  1
  Sc  Sc83  1  0.70475819  0.70536788  0.10670319  1
  Sc  Sc84  1  0.89953055  0.30165402  0.31757716  1
  Sc  Sc85  1  0.91490075  0.68895613  0.50158458  1
  Sc  Sc86  1  0.69402842  0.29770561  0.70366075  1
  Sc  Sc87  1  0.90065672  0.09360312  0.30583629  1
  Sc  Sc88  1  0.29495927  0.29956940  0.70397985  1
  Sc  Sc89  1  0.49538894  0.10176173  0.69461668  1
  Sc  Sc90  1  0.49992961  0.69947302  0.10058814  1
  Sc  Sc91  1  0.50186231  0.30452887  0.31482041  1
  Sc  Sc92  1  0.90052746  0.50232922  0.09629644  1
  Sc  Sc93  1  0.29541251  0.30471794  0.09122881  1
  Sc  Sc94  1  0.69631143  0.09976455  0.31539366  1
  Sc  Sc95  1  0.10052806  0.90873593  0.09430479  1
  Sc  Sc96  1  0.69690010  0.90151297  0.29712296  1
  Sc  Sc97  1  0.69453359  0.29684349  0.49016638  1
  Sc  Sc98  1  0.30116791  0.89230694  0.50628679  1
  Sc  Sc99  1  0.50209644  0.71148379  0.69116959  1
  Nb  Nb100  1  0.49953660  0.50382914  0.89863636  1
  Nb  Nb101  1  0.10564628  0.29992674  0.30037459  1
  Nb  Nb102  1  0.49046542  0.30223183  0.50099484  1
  Nb  Nb103  1  0.90445042  0.70369771  0.89509929  1
  Nb  Nb104  1  0.89774174  0.30240050  0.10190216  1
  Nb  Nb105  1  0.89979296  0.48695173  0.51264223  1
  Nb  Nb106  1  0.90300335  0.50014311  0.68826123  1
  Nb  Nb107  1  0.09636046  0.49623684  0.89268256  1
  Nb  Nb108  1  0.49458307  0.50032198  0.09292358  1
  Nb  Nb109  1  0.30462079  0.69666259  0.70152960  1
  Nb  Nb110  1  0.49713332  0.90382623  0.29327772  1
  Nb  Nb111  1  0.09957832  0.09663714  0.10556516  1
  Nb  Nb112  1  0.90440491  0.31177351  0.50272560  1
  Nb  Nb113  1  0.69715177  0.30271556  0.29628156  1
  Nb  Nb114  1  0.09929269  0.90271425  0.69839363  1
  Nb  Nb115  1  0.10423616  0.29976681  0.48696420  1
  Nb  Nb116  1  0.90877781  0.89627644  0.70515556  1
  Nb  Nb117  1  0.29994463  0.09427663  0.89538265  1
  Nb  Nb118  1  0.50067357  0.49415996  0.50241775  1
  Nb  Nb119  1  0.90228070  0.08872151  0.89894268  1
  Nb  Nb120  1  0.09297479  0.50229518  0.50697354  1
  Nb  Nb121  1  0.71064065  0.70393430  0.70011013  1
  Nb  Nb122  1  0.30655201  0.49716651  0.10345143  1
  Nb  Nb123  1  0.89446593  0.69903218  0.70918156  1
  Nb  Nb124  1  0.30057951  0.29815519  0.49859119  1
  Nb  Nb125  1  0.19805589  0.00018686  0.79643896  1
  Nb  Nb126  1  0.20408219  -0.00119440  0.40206310  1
  Nb  Nb127  1  0.79854407  0.20694998  0.20188976  1
  Nb  Nb128  1  0.80742613  0.79730212  0.60172126  1
  Nb  Nb129  1  0.79670885  0.39310035  0.19936941  1
  Nb  Nb130  1  0.40457074  0.40003044  0.19468341  1
  Nb  Nb131  1  -0.00148557  0.79486484  0.19623072  1
  Nb  Nb132  1  0.19889406  0.20437817  0.59146569  1
  Nb  Nb133  1  0.59383687  0.40953676  0.00014123  1
  Nb  Nb134  1  0.19629922  0.20300090  0.20180004  1
  Nb  Nb135  1  0.00212690  -0.00178036  0.60526754  1
  Nb  Nb136  1  0.40050129  0.58888292  0.60639268  1
  Nb  Nb137  1  0.40163197  0.40252326  0.60128093  1
  Nb  Nb138  1  0.40052852  0.59452979  0.79344864  1
  Nb  Nb139  1  0.60098424  0.20638473  0.20187452  1
  Nb  Nb140  1  0.60800883  0.80431767  0.79822780  1
  Nb  Nb141  1  0.80047665  0.79630202  0.40552773  1
  Nb  Nb142  1  0.40312059  0.40816744  0.79883585  1
  Nb  Nb143  1  -0.00346629  0.60204167  0.79895722  1
  Nb  Nb144  1  0.39615995  -0.00292883  -0.00536645  1
  Nb  Nb145  1  0.80339661  0.40494809  0.79610450  1
  Nb  Nb146  1  -0.00382185  0.39322540  0.20232760  1
  Nb  Nb147  1  0.59787777  -0.00250137  0.79951864  1
  Nb  Nb148  1  0.39640135  0.20614602  0.20096410  1
  Nb  Nb149  1  0.59802642  0.39744961  0.19167620  1
  Pd  Pd150  1  -0.00373338  0.19510077  -0.00594885  1
  Pd  Pd151  1  0.19471297  0.59892652  0.80105836  1
  Pd  Pd152  1  0.60223296  0.39089326  0.59482682  1
  Pd  Pd153  1  0.00607945  0.40557792  0.39887700  1
  Pd  Pd154  1  0.79413477  0.21093863  0.59476042  1
  Pd  Pd155  1  0.19829183  0.59818651  0.00221400  1
  Pd  Pd156  1  0.39927135  -0.00971401  0.41137252  1
  Pd  Pd157  1  0.20130048  0.00795917  0.59960406  1
  Pd  Pd158  1  0.40194916  -0.00208866  0.59214934  1
  Pd  Pd159  1  0.00649500  -0.00584461  0.40518398  1
  Pd  Pd160  1  0.20052075  0.19905609  0.00320817  1
  Pd  Pd161  1  0.81024093  0.20930121  0.80162241  1
  Pd  Pd162  1  0.40128556  0.80276822  0.40306084  1
  Pd  Pd163  1  0.19194299  0.80446512  0.20067303  1
  Pd  Pd164  1  0.40089167  0.60324850  0.40686730  1
  Pd  Pd165  1  0.00237443  0.58839413  0.40094543  1
  Pd  Pd166  1  0.39344706  0.80497986  0.00809208  1
  Pd  Pd167  1  -0.00767147  0.20163948  0.81108688  1
  Pd  Pd168  1  -0.00439155  0.79889124  0.60249843  1
  Pd  Pd169  1  0.19764537  0.39121029  0.59459872  1
  Pd  Pd170  1  0.39938664  0.00872179  0.18529745  1
  Pd  Pd171  1  0.60275996  0.01298345  0.20463995  1
  Pd  Pd172  1  0.60377946  0.80308806  0.39230130  1
  Pd  Pd173  1  0.00014359  0.59267674  0.19669272  1
  Pd  Pd174  1  0.59931511  0.79681671  0.20561252  1
  Pd  Pd175  1  0.00746770  0.20303106  0.59485083  1
  Pd  Pd176  1  0.40477436  0.59504221  0.20523555  1
  Pd  Pd177  1  0.19571047  0.80507739  0.79411603  1
  Pd  Pd178  1  0.20089724  0.19694425  0.79927226  1
  Pd  Pd179  1  0.59130898  0.01075201  -0.01454728  1
  Pd  Pd180  1  0.59313876  0.59419544  0.20370201  1
  Pd  Pd181  1  0.80374578  0.60322459  0.41259941  1
  Pd  Pd182  1  0.20447175  0.59930486  0.59633322  1
  Pd  Pd183  1  -0.00624396  0.80234790  0.38925616  1
  Pd  Pd184  1  0.60942581  0.79179770  -0.00548015  1
  Pd  Pd185  1  0.00739176  0.59438623  -0.00361396  1
  Pd  Pd186  1  -0.00460311  0.20625401  0.21304312  1
  Pd  Pd187  1  0.59159643  0.60481520  0.60388550  1
  Pd  Pd188  1  0.59335950  0.61487905  0.78807440  1
  Pd  Pd189  1  0.39707394  0.60366068  -0.00459770  1
  Pd  Pd190  1  0.79322226  0.01311669  0.20531883  1
  Pd  Pd191  1  -0.00257885  0.20039881  0.39896275  1
  Pd  Pd192  1  0.19491826  0.39883526  -0.00017351  1
  Pd  Pd193  1  0.79276933  -0.00670517  0.79816771  1
  Pd  Pd194  1  0.78837214  0.41317003  0.00265653  1
  Pd  Pd195  1  0.60589798  0.60587490  0.00180057  1
  Pd  Pd196  1  0.79969132  0.20318239  0.40071283  1
  Pd  Pd197  1  0.78714622  0.38905871  0.60191699  1
  Pd  Pd198  1  0.59905703  0.18840777  0.80294015  1
  Pd  Pd199  1  0.80195699  0.80281328  0.00260702  1
  Rh  Rh200  1  0.80994645  0.60916096  0.59267612  1
  Rh  Rh201  1  0.39742882  -0.00404718  0.80366460  1
  Rh  Rh202  1  0.40019261  0.40077146  0.40081709  1
  Rh  Rh203  1  -0.01030823  0.40896471  0.79691885  1
  Rh  Rh204  1  0.60951649  0.80346985  0.60709904  1
  Rh  Rh205  1  0.00701236  -0.00063075  0.79835758  1
  Rh  Rh206  1  0.20198737  0.19234619  0.39941825  1
  Rh  Rh207  1  0.00658613  0.40822811  0.01109875  1
  Rh  Rh208  1  0.39600536  0.78855747  0.59552815  1
  Rh  Rh209  1  0.39260569  0.21195765  0.60446967  1
  Rh  Rh210  1  0.40506074  0.79852551  0.19682215  1
  Rh  Rh211  1  -0.00652198  0.80548378  0.00887206  1
  Rh  Rh212  1  0.20699566  0.80870971  0.39297832  1
  Rh  Rh213  1  0.38583587  0.18321321  0.00777730  1
  Rh  Rh214  1  0.20315297  0.80212676  0.00214810  1
  Rh  Rh215  1  -0.00414080  -0.00214211  0.00232191  1
  Rh  Rh216  1  0.80385513  0.79787590  0.20649017  1
  Rh  Rh217  1  0.01323927  0.39244249  0.59536122  1
  Rh  Rh218  1  -0.00024643  0.59973247  0.60600448  1
  Rh  Rh219  1  0.60198528  0.20311834  0.59471212  1
  Rh  Rh220  1  0.60111620  0.19897765  -0.00582602  1
  Rh  Rh221  1  0.20350907  0.39187778  0.19611520  1
  Rh  Rh222  1  0.80073329  0.59100559  0.20174076  1
  Rh  Rh223  1  0.00799129  0.79252364  0.79608713  1
  Rh  Rh224  1  0.81361312  0.18867888  0.00175020  1
  Rh  Rh225  1  0.19431071  0.40682447  0.40667903  1
  Rh  Rh226  1  0.20652407  -0.00863885  -0.01318861  1
  Rh  Rh227  1  0.60012843  0.40261794  0.40217944  1
  Rh  Rh228  1  0.20462618  0.79266977  0.60635025  1
  Rh  Rh229  1  0.59115221  -0.00606990  0.39714779  1
  Rh  Rh230  1  0.20580347  0.39458650  0.80990071  1
  Rh  Rh231  1  0.80874050  0.00127699  0.00032134  1
  Rh  Rh232  1  0.39921611  0.20769988  0.39234892  1
  Rh  Rh233  1  0.00244413  -0.01029929  0.19785081  1
  Rh  Rh234  1  0.59506712  0.60020938  0.40553210  1
  Rh  Rh235  1  0.60151115  0.39456240  0.80658835  1
  Rh  Rh236  1  0.40621047  0.79157172  0.79514145  1
  Rh  Rh237  1  0.79570868  0.81259957  0.79366300  1
  Rh  Rh238  1  0.81363269  -0.00601005  0.60665962  1
  Rh  Rh239  1  0.20442967  0.59910276  0.19775147  1
  Rh  Rh240  1  0.79471889  0.39958676  0.40325815  1
  Rh  Rh241  1  0.40216449  0.40466609  -0.00517662  1
  Rh  Rh242  1  0.81151749  0.59132260  0.79974417  1
  Rh  Rh243  1  0.39597952  0.20878700  0.79451056  1
  Rh  Rh244  1  0.59625731  0.20167551  0.39932637  1
  Rh  Rh245  1  0.79830522  -0.00553865  0.39726812  1
  Rh  Rh246  1  0.79713322  0.60310021  -0.00346576  1
  Rh  Rh247  1  0.19722684  0.59370787  0.40337951  1
  Rh  Rh248  1  0.58965533  0.00192579  0.60644525  1
  Rh  Rh249  1  0.19357559  0.00609532  0.20935320  1
