# generated using pymatgen
data_ZrScNbPdRh
_symmetry_space_group_name_H-M   'P 1'
_cell_length_a   16.55875794
_cell_length_b   16.55794278
_cell_length_c   16.55937423
_cell_angle_alpha   90.00367798
_cell_angle_beta   89.95131609
_cell_angle_gamma   89.98727435
_symmetry_Int_Tables_number   1
_chemical_formula_structural   ZrScNbPdRh
_chemical_formula_sum   'Zr50 Sc50 Nb50 Pd50 Rh50'
_cell_volume   4540.23035239
_cell_formula_units_Z   50
loop_
 _symmetry_equiv_pos_site_id
 _symmetry_equiv_pos_as_xyz
  1  'x, y, z'
loop_
 _atom_site_type_symbol
 _atom_site_label
 _atom_site_symmetry_multiplicity
 _atom_site_fract_x
 _atom_site_fract_y
 _atom_site_fract_z
 _atom_site_occupancy
  Zr  Zr0  1  0.70348595  0.31664485  0.89443282  1
  Zr  Zr1  1  0.50289839  0.49621761  0.29886378  1
  Zr  Zr2  1  0.69479033  0.69666578  0.10551444  1
  Zr  Zr3  1  0.69817751  0.89420684  0.49252337  1
  Zr  Zr4  1  0.09243055  0.69823366  0.30119393  1
  Zr  Zr5  1  0.89294733  0.29778943  0.70067925  1
  Zr  Zr6  1  0.70395957  0.70702171  0.30039952  1
  Zr  Zr7  1  0.30497207  0.89979505  0.29031880  1
  Zr  Zr8  1  0.29760318  0.09995047  0.89979444  1
  Zr  Zr9  1  0.69717244  0.49615378  0.71713298  1
  Zr  Zr10  1  0.89457119  0.90503562  0.49568566  1
  Zr  Zr11  1  0.30065647  0.90330473  0.09711631  1
  Zr  Zr12  1  0.10215926  0.50276526  0.69560929  1
  Zr  Zr13  1  0.90080061  0.09730800  0.89948405  1
  Zr  Zr14  1  0.69831758  0.69405101  0.70320212  1
  Zr  Zr15  1  0.49438806  0.50513343  0.69924391  1
  Zr  Zr16  1  0.89875400  0.09936118  0.10309782  1
  Zr  Zr17  1  0.69626465  0.29661472  0.50650573  1
  Zr  Zr18  1  0.89904479  0.70307543  0.90590936  1
  Zr  Zr19  1  0.49905860  0.09830155  0.29134821  1
  Zr  Zr20  1  0.10297633  0.50599750  0.30153670  1
  Zr  Zr21  1  0.51765704  0.29683192  0.69674186  1
  Zr  Zr22  1  0.09743338  0.89982445  0.10020229  1
  Zr  Zr23  1  0.70128246  0.30106525  0.09993812  1
  Zr  Zr24  1  0.89533525  0.89671793  0.29903525  1
  Zr  Zr25  1  0.29645588  0.29145893  0.69934738  1
  Zr  Zr26  1  0.10028374  0.89764462  0.70695412  1
  Zr  Zr27  1  0.10350455  0.70012457  0.70159024  1
  Zr  Zr28  1  0.30210894  0.08771325  0.69546113  1
  Zr  Zr29  1  0.49722803  0.90194087  0.11199348  1
  Zr  Zr30  1  0.29773832  0.29401690  0.29361735  1
  Zr  Zr31  1  0.90108392  0.30816090  0.10354328  1
  Zr  Zr32  1  0.09911525  0.30072430  0.29482644  1
  Zr  Zr33  1  0.09825268  0.69713534  0.49903875  1
  Zr  Zr34  1  0.10311819  0.69357036  0.90247571  1
  Zr  Zr35  1  0.09672288  0.69737292  0.09669728  1
  Zr  Zr36  1  0.90243802  0.69983334  0.10573232  1
  Zr  Zr37  1  0.51291815  0.09908634  0.10337403  1
  Zr  Zr38  1  0.10072626  0.89856496  0.89584668  1
  Zr  Zr39  1  0.90124089  0.29533193  0.90465413  1
  Zr  Zr40  1  0.50413376  0.49771747  0.90510064  1
  Zr  Zr41  1  0.30386127  0.90336619  0.89454820  1
  Zr  Zr42  1  0.09911578  0.10230925  0.50295684  1
  Zr  Zr43  1  0.30266047  0.89415113  0.70464519  1
  Zr  Zr44  1  0.49691419  0.69623753  0.90442810  1
  Zr  Zr45  1  0.89510395  0.29731732  0.50033919  1
  Zr  Zr46  1  0.90360223  0.50173790  0.69628482  1
  Zr  Zr47  1  0.89527742  0.10039700  0.29739835  1
  Zr  Zr48  1  0.49564334  0.29818700  0.29794954  1
  Zr  Zr49  1  0.89395351  0.49405885  0.90509198  1
  Sc  Sc50  1  0.10024645  0.09604297  0.09946563  1
  Sc  Sc51  1  0.68904620  0.49900013  0.48869274  1
  Sc  Sc52  1  0.10039407  0.09919628  0.90190573  1
  Sc  Sc53  1  0.49780708  0.30368941  0.90914665  1
  Sc  Sc54  1  0.09571195  0.50685600  0.50181669  1
  Sc  Sc55  1  0.89689891  0.10285032  0.70677225  1
  Sc  Sc56  1  0.70082267  0.49973055  0.28943827  1
  Sc  Sc57  1  0.29789507  0.29421747  0.48499653  1
  Sc  Sc58  1  0.50295885  0.70400014  0.09914255  1
  Sc  Sc59  1  0.09874043  0.30285676  0.09485940  1
  Sc  Sc60  1  0.49779781  0.90885150  0.70140915  1
  Sc  Sc61  1  0.49573774  0.30599525  0.10028258  1
  Sc  Sc62  1  0.90558127  0.90221630  0.71186264  1
  Sc  Sc63  1  0.70218549  0.30859062  0.30416171  1
  Sc  Sc64  1  0.50118594  0.90260493  0.90756389  1
  Sc  Sc65  1  0.49380315  0.69603695  0.68880636  1
  Sc  Sc66  1  0.70487268  0.09806723  0.10966111  1
  Sc  Sc67  1  0.90063707  0.89873728  0.90131153  1
  Sc  Sc68  1  0.91043175  0.50295751  0.50255038  1
  Sc  Sc69  1  0.69593992  0.90506309  0.09877640  1
  Sc  Sc70  1  0.30309997  0.50649676  0.09894295  1
  Sc  Sc71  1  0.09454469  0.28975229  0.69299384  1
  Sc  Sc72  1  0.30457448  0.69105174  0.70682304  1
  Sc  Sc73  1  0.50638979  0.09231880  0.89555118  1
  Sc  Sc74  1  0.30172515  0.29859246  0.08750377  1
  Sc  Sc75  1  0.29599621  0.09990516  0.10107122  1
  Sc  Sc76  1  0.70067601  0.09647233  0.49619411  1
  Sc  Sc77  1  0.70050564  0.90282047  0.30379313  1
  Sc  Sc78  1  0.10101362  0.10719638  0.28979975  1
  Sc  Sc79  1  0.30181118  0.50149060  0.49565515  1
  Sc  Sc80  1  0.30565939  0.89894111  0.51095383  1
  Sc  Sc81  1  0.29007444  0.69948571  0.29309084  1
  Sc  Sc82  1  0.90904665  0.70429830  0.49520848  1
  Sc  Sc83  1  0.51287453  0.70621983  0.28648968  1
  Sc  Sc84  1  0.70394503  0.90278893  0.90141694  1
  Sc  Sc85  1  0.89867869  0.70102414  0.70901602  1
  Sc  Sc86  1  0.90212239  0.90136075  0.10152033  1
  Sc  Sc87  1  0.09432313  0.50159002  0.08961377  1
  Sc  Sc88  1  0.30120846  0.50307062  0.29938037  1
  Sc  Sc89  1  0.89232730  0.10592863  0.50021505  1
  Sc  Sc90  1  0.69997043  0.09164662  0.89737780  1
  Sc  Sc91  1  0.30636659  0.70510939  0.51297245  1
  Sc  Sc92  1  0.30397154  0.69498755  0.09946106  1
  Sc  Sc93  1  0.50642965  0.89772815  0.50556886  1
  Sc  Sc94  1  0.10215733  0.89416749  0.29468869  1
  Sc  Sc95  1  0.50112609  0.50350820  0.09757384  1
  Sc  Sc96  1  0.30118479  0.51198690  0.90299974  1
  Sc  Sc97  1  0.09774575  0.89256817  0.50662011  1
  Sc  Sc98  1  0.50356635  0.50173266  0.50059234  1
  Sc  Sc99  1  0.10001818  0.09380484  0.70120413  1
  Nb  Nb100  1  0.69336922  0.70052571  0.50041796  1
  Nb  Nb101  1  0.69494446  0.10162624  0.29701736  1
  Nb  Nb102  1  0.10421030  0.30938034  0.90225115  1
  Nb  Nb103  1  0.30174794  0.49594020  0.69983415  1
  Nb  Nb104  1  0.68909896  0.09967771  0.70444194  1
  Nb  Nb105  1  0.30377690  0.09524507  0.49743737  1
  Nb  Nb106  1  0.09350745  0.30428183  0.49779160  1
  Nb  Nb107  1  0.29886265  0.10284227  0.30447158  1
  Nb  Nb108  1  0.09939041  0.49918950  0.90153325  1
  Nb  Nb109  1  0.89900727  0.49801727  0.29253330  1
  Nb  Nb110  1  0.50391898  0.29774380  0.50076742  1
  Nb  Nb111  1  0.49867411  0.09904901  0.50294866  1
  Nb  Nb112  1  0.70044818  0.49888647  0.09448956  1
  Nb  Nb113  1  0.70045654  0.69223923  0.89893539  1
  Nb  Nb114  1  0.29992606  0.29899846  0.89716384  1
  Nb  Nb115  1  0.89315556  0.49906678  0.10589895  1
  Nb  Nb116  1  0.29949867  0.70197685  0.89903763  1
  Nb  Nb117  1  0.69686964  0.50642651  0.90517221  1
  Nb  Nb118  1  0.70139440  0.29740413  0.69908332  1
  Nb  Nb119  1  0.89715441  0.69496130  0.29809219  1
  Nb  Nb120  1  0.49638863  0.90023461  0.29882592  1
  Nb  Nb121  1  0.50441039  0.10143538  0.69967729  1
  Nb  Nb122  1  0.69856694  0.90178241  0.70326834  1
  Nb  Nb123  1  0.50739635  0.69795642  0.49799555  1
  Nb  Nb124  1  0.90246000  0.30960840  0.29894164  1
  Nb  Nb125  1  0.40747672  0.79993371  0.39665566  1
  Nb  Nb126  1  0.40613299  0.19640819  0.59748283  1
  Nb  Nb127  1  0.19846995  0.40070691  0.19963068  1
  Nb  Nb128  1  0.60583599  0.20157503  0.00191796  1
  Nb  Nb129  1  0.60431044  0.79658169  0.80092487  1
  Nb  Nb130  1  0.79129583  -0.00455435  0.60899026  1
  Nb  Nb131  1  0.00410385  0.00342459  0.39847878  1
  Nb  Nb132  1  0.59337439  0.19795625  0.39984716  1
  Nb  Nb133  1  0.20191325  0.39681116  0.60064062  1
  Nb  Nb134  1  0.79468309  0.59832952  0.00291247  1
  Nb  Nb135  1  0.19990930  0.39985116  0.80090952  1
  Nb  Nb136  1  0.00391910  0.59293210  0.80658332  1
  Nb  Nb137  1  0.80332613  0.60289033  0.39712787  1
  Nb  Nb138  1  0.40273477  0.20024633  0.79539639  1
  Nb  Nb139  1  -0.00288263  0.39638446  0.39473934  1
  Nb  Nb140  1  0.39899185  0.00091710  0.39803351  1
  Nb  Nb141  1  0.00669641  0.39913755  0.80346977  1
  Nb  Nb142  1  0.79294116  0.80012860  0.60103886  1
  Nb  Nb143  1  0.20381128  0.79921350  -0.00553327  1
  Nb  Nb144  1  0.20413705  0.00316425  0.40044819  1
  Nb  Nb145  1  0.39366695  0.39524084  0.79724375  1
  Nb  Nb146  1  0.79294641  0.60178177  0.59314001  1
  Nb  Nb147  1  0.40888419  0.61258387  0.39930233  1
  Nb  Nb148  1  0.39844735  0.39128084  0.60155708  1
  Nb  Nb149  1  0.79472442  0.40325818  0.60214896  1
  Pd  Pd150  1  0.39575203  0.19706811  0.18899506  1
  Pd  Pd151  1  0.41243953  0.79698888  0.79702917  1
  Pd  Pd152  1  0.60418973  0.80180035  -0.00576690  1
  Pd  Pd153  1  0.60047202  0.39942404  0.19581326  1
  Pd  Pd154  1  0.20299771  0.79893747  0.60372310  1
  Pd  Pd155  1  0.60431084  0.00196017  0.59911015  1
  Pd  Pd156  1  0.00051808  0.80746168  0.39563941  1
  Pd  Pd157  1  0.00799342  0.20291384  0.80368052  1
  Pd  Pd158  1  0.20874293  0.40742362  0.00120894  1
  Pd  Pd159  1  0.19320050  0.19552899  0.40142157  1
  Pd  Pd160  1  0.39558970  0.79842834  0.00414049  1
  Pd  Pd161  1  0.59876792  0.80085798  0.60963948  1
  Pd  Pd162  1  0.00251835  0.59408506  0.19699428  1
  Pd  Pd163  1  0.38968393  0.40215202  0.19391930  1
  Pd  Pd164  1  0.60137781  0.60305511  0.38901680  1
  Pd  Pd165  1  -0.01045980  0.79917654  0.60629622  1
  Pd  Pd166  1  0.79826660  0.20754285  0.20815392  1
  Pd  Pd167  1  0.40426472  0.00798274  0.00300547  1
  Pd  Pd168  1  0.79080483  0.19509879  0.80272864  1
  Pd  Pd169  1  0.19848023  0.00360289  0.20504455  1
  Pd  Pd170  1  -0.01195468  0.00403106  0.59785093  1
  Pd  Pd171  1  0.19370180  0.19784185  0.00188680  1
  Pd  Pd172  1  0.20057508  0.79392076  0.18871597  1
  Pd  Pd173  1  0.19357805  0.40214834  0.40110890  1
  Pd  Pd174  1  0.40413202  0.40726776  0.40595492  1
  Pd  Pd175  1  0.79411537  0.79625588  0.00649030  1
  Pd  Pd176  1  0.59911828  0.20425004  0.81401952  1
  Pd  Pd177  1  0.79183663  0.19564037  -0.00362946  1
  Pd  Pd178  1  0.19684557  0.19812956  0.80229930  1
  Pd  Pd179  1  0.58869557  0.60607780  0.79863476  1
  Pd  Pd180  1  0.21097967  0.80558025  0.40576543  1
  Pd  Pd181  1  0.40598248  0.19466908  0.40313397  1
  Pd  Pd182  1  0.80000305  0.00030382  0.00274823  1
  Pd  Pd183  1  0.80610892  0.41220004  0.40785033  1
  Pd  Pd184  1  0.79499369  0.80416942  0.79930348  1
  Pd  Pd185  1  0.00125351  0.20023067  0.39687003  1
  Pd  Pd186  1  -0.00153634  0.20112140  0.19341227  1
  Pd  Pd187  1  0.19747153  -0.00721833  0.59515658  1
  Pd  Pd188  1  0.59301745  0.00361054  0.39580376  1
  Pd  Pd189  1  0.79101430  0.20024079  0.39215911  1
  Pd  Pd190  1  0.20819697  0.59658680  0.59502063  1
  Pd  Pd191  1  -0.00518744  0.19409964  0.60127588  1
  Pd  Pd192  1  0.21149994  0.60896230  0.40659468  1
  Pd  Pd193  1  0.60275376  0.41015113  0.60066224  1
  Pd  Pd194  1  0.00547081  0.20028689  0.00387437  1
  Pd  Pd195  1  -0.00156600  -0.00272579  -0.00101339  1
  Pd  Pd196  1  0.41029415  0.19138616  -0.00514719  1
  Pd  Pd197  1  0.79749489  0.80759646  0.19290728  1
  Pd  Pd198  1  0.20477731  0.20229367  0.58961669  1
  Pd  Pd199  1  0.40541729  0.60637719  0.20673556  1
  Rh  Rh200  1  0.59286237  0.39098194  0.39605233  1
  Rh  Rh201  1  -0.00491159  0.40055562  -0.00037886  1
  Rh  Rh202  1  0.19434241  0.59226538  0.19244385  1
  Rh  Rh203  1  0.20473394  0.79603685  0.80394850  1
  Rh  Rh204  1  0.60013852  0.59493010  0.19767030  1
  Rh  Rh205  1  0.80712504  0.40193147  0.79465224  1
  Rh  Rh206  1  -0.01370847  0.59420433  -0.00244796  1
  Rh  Rh207  1  0.00051312  0.00297348  0.80387292  1
  Rh  Rh208  1  0.60382592  0.18870094  0.59280180  1
  Rh  Rh209  1  0.60561711  0.59430447  0.60172292  1
  Rh  Rh210  1  0.20313880  0.20804603  0.19070650  1
  Rh  Rh211  1  0.79766655  -0.00218511  0.20319860  1
  Rh  Rh212  1  0.00147291  0.79177576  0.80388154  1
  Rh  Rh213  1  0.19951314  0.59605589  0.80190647  1
  Rh  Rh214  1  0.60382351  0.00625461  0.00247469  1
  Rh  Rh215  1  0.79731284  0.59706398  0.19929410  1
  Rh  Rh216  1  0.80151511  0.00207858  0.79537757  1
  Rh  Rh217  1  0.19952208  -0.00623514  -0.00208022  1
  Rh  Rh218  1  0.39949614  0.79319559  0.20162320  1
  Rh  Rh219  1  0.80917046  0.59612270  0.80616962  1
  Rh  Rh220  1  0.59826129  -0.01124335  0.80203018  1
  Rh  Rh221  1  0.60231876  0.60090586  0.00562951  1
  Rh  Rh222  1  0.20483190  0.60539998  0.00142800  1
  Rh  Rh223  1  0.80407748  0.00844818  0.40047292  1
  Rh  Rh224  1  0.40257307  0.60269383  0.00056909  1
  Rh  Rh225  1  0.79904301  0.40469156  0.00512882  1
  Rh  Rh226  1  0.60103113  0.39517869  0.00342627  1
  Rh  Rh227  1  -0.00119640  0.38931726  0.59735808  1
  Rh  Rh228  1  0.80134255  0.78864255  0.40739691  1
  Rh  Rh229  1  -0.00085725  -0.00138731  0.20685658  1
  Rh  Rh230  1  0.40464486  0.00064308  0.59683314  1
  Rh  Rh231  1  0.40862170  0.80206745  0.59760686  1
  Rh  Rh232  1  0.59207316  0.39888949  0.80438701  1
  Rh  Rh233  1  -0.00872356  0.59197523  0.39337622  1
  Rh  Rh234  1  0.78934108  0.19380910  0.60962016  1
  Rh  Rh235  1  0.19835897  0.00265860  0.79977936  1
  Rh  Rh236  1  0.00587231  0.80533440  0.00004063  1
  Rh  Rh237  1  0.60616807  -0.00637061  0.20575580  1
  Rh  Rh238  1  -0.00683748  0.61583408  0.60794412  1
  Rh  Rh239  1  0.39496800  0.00773229  0.19957736  1
  Rh  Rh240  1  0.60516260  0.80951650  0.19985957  1
  Rh  Rh241  1  0.79624511  0.39880747  0.19761555  1
  Rh  Rh242  1  0.59336562  0.80059110  0.39618691  1
  Rh  Rh243  1  0.00681438  0.40806159  0.20166415  1
  Rh  Rh244  1  0.39463023  0.40707157  -0.00621579  1
  Rh  Rh245  1  0.40397845  0.00545750  0.80022951  1
  Rh  Rh246  1  0.60420844  0.20729117  0.20168952  1
  Rh  Rh247  1  0.40055376  0.59705823  0.80512585  1
  Rh  Rh248  1  -0.00239960  0.79976857  0.20397647  1
  Rh  Rh249  1  0.39871250  0.59261196  0.58847147  1
