# generated using pymatgen
data_ZrScNbPdRh
_symmetry_space_group_name_H-M   'P 1'
_cell_length_a   16.55822947
_cell_length_b   16.55907471
_cell_length_c   16.55729972
_cell_angle_alpha   90.00200906
_cell_angle_beta   90.01358643
_cell_angle_gamma   90.00458994
_symmetry_Int_Tables_number   1
_chemical_formula_structural   ZrScNbPdRh
_chemical_formula_sum   'Zr50 Sc50 Nb50 Pd50 Rh50'
_cell_volume   4539.82862886
_cell_formula_units_Z   50
loop_
 _symmetry_equiv_pos_site_id
 _symmetry_equiv_pos_as_xyz
  1  'x, y, z'
loop_
 _atom_site_type_symbol
 _atom_site_label
 _atom_site_symmetry_multiplicity
 _atom_site_fract_x
 _atom_site_fract_y
 _atom_site_fract_z
 _atom_site_occupancy
  Zr  Zr0  1  0.30249331  0.29736666  0.11015765  1
  Zr  Zr1  1  0.89999110  0.70350484  0.90212168  1
  Zr  Zr2  1  0.29703848  0.29021382  0.30075884  1
  Zr  Zr3  1  0.08933589  0.90215465  0.69437616  1
  Zr  Zr4  1  0.69910372  0.49931842  0.69858688  1
  Zr  Zr5  1  0.89996282  0.09973069  0.09754160  1
  Zr  Zr6  1  0.29865793  0.69609723  0.50502320  1
  Zr  Zr7  1  0.10778408  0.70078937  0.70215057  1
  Zr  Zr8  1  0.49880270  0.89534199  0.29661013  1
  Zr  Zr9  1  0.09520860  0.09206365  0.89987334  1
  Zr  Zr10  1  0.89525112  0.09422162  0.49789134  1
  Zr  Zr11  1  0.09225243  0.50856849  0.90301773  1
  Zr  Zr12  1  0.31107902  0.89677149  0.10023838  1
  Zr  Zr13  1  0.49739088  0.29604280  0.69702326  1
  Zr  Zr14  1  0.50014186  0.29827010  0.10130291  1
  Zr  Zr15  1  0.70114089  0.10203342  0.51088004  1
  Zr  Zr16  1  0.30936995  0.10458414  0.30241166  1
  Zr  Zr17  1  0.09464181  0.70338156  0.09855891  1
  Zr  Zr18  1  0.10620141  0.10012900  0.70578058  1
  Zr  Zr19  1  0.90294663  0.29617388  0.10308625  1
  Zr  Zr20  1  0.48871220  0.29782568  0.29857283  1
  Zr  Zr21  1  0.91140858  0.89703531  0.51163312  1
  Zr  Zr22  1  0.10145081  0.29627241  0.69474691  1
  Zr  Zr23  1  0.30265170  0.50621715  0.69344191  1
  Zr  Zr24  1  0.70702420  0.30273206  0.49691541  1
  Zr  Zr25  1  0.29711540  0.90529380  0.49669548  1
  Zr  Zr26  1  0.48974270  0.90738619  0.90579175  1
  Zr  Zr27  1  0.69726018  0.69883026  0.50319183  1
  Zr  Zr28  1  0.10268234  0.50455032  0.10543106  1
  Zr  Zr29  1  0.48990277  0.51122056  0.09923095  1
  Zr  Zr30  1  0.70000680  0.30106991  0.90085230  1
  Zr  Zr31  1  0.30264750  0.29857216  0.70525272  1
  Zr  Zr32  1  0.89136092  0.30413075  0.29316327  1
  Zr  Zr33  1  0.90031737  0.49491325  0.49306063  1
  Zr  Zr34  1  0.70055624  0.30107301  0.69517729  1
  Zr  Zr35  1  0.09378807  0.30272728  0.50186637  1
  Zr  Zr36  1  0.50418090  0.49973974  0.69178267  1
  Zr  Zr37  1  0.89701804  0.30502987  0.69211802  1
  Zr  Zr38  1  0.69361744  0.10220531  0.90761158  1
  Zr  Zr39  1  0.89381878  0.89550597  0.09682024  1
  Zr  Zr40  1  0.89893810  0.30004640  0.50269617  1
  Zr  Zr41  1  0.31079185  0.68733564  0.09860407  1
  Zr  Zr42  1  0.30461494  0.09891921  0.49506638  1
  Zr  Zr43  1  0.30241595  0.91445270  0.29641796  1
  Zr  Zr44  1  0.09630958  0.50028157  0.48691649  1
  Zr  Zr45  1  0.50437912  0.50686682  0.49787449  1
  Zr  Zr46  1  0.89896663  0.49689801  0.70184056  1
  Zr  Zr47  1  0.88782346  0.70116004  0.10006392  1
  Zr  Zr48  1  0.89611720  0.29958696  0.90655138  1
  Zr  Zr49  1  0.69942796  0.69165845  0.90735342  1
  Sc  Sc50  1  0.89920945  0.70935915  0.70204275  1
  Sc  Sc51  1  0.89669169  0.08523332  0.69783238  1
  Sc  Sc52  1  0.09868761  0.10181732  0.09425256  1
  Sc  Sc53  1  0.09775245  0.30298142  0.29767660  1
  Sc  Sc54  1  0.50864768  0.29687104  0.89528828  1
  Sc  Sc55  1  0.50211532  0.89307816  0.49259960  1
  Sc  Sc56  1  0.09496922  0.70518026  0.49864787  1
  Sc  Sc57  1  0.90038406  0.49649099  0.10393260  1
  Sc  Sc58  1  0.10693746  0.10237251  0.29006572  1
  Sc  Sc59  1  0.30105064  0.10711233  0.69785665  1
  Sc  Sc60  1  0.29675732  0.29366384  0.49973912  1
  Sc  Sc61  1  0.70499515  0.29875391  0.09449134  1
  Sc  Sc62  1  0.89873000  0.89881794  0.29906176  1
  Sc  Sc63  1  0.89850376  0.50580723  0.90515372  1
  Sc  Sc64  1  0.29349041  0.09633383  0.11439724  1
  Sc  Sc65  1  0.89944683  0.69880424  0.29202300  1
  Sc  Sc66  1  0.70200068  0.49895656  0.89687612  1
  Sc  Sc67  1  0.89689995  0.09776033  0.29567425  1
  Sc  Sc68  1  0.10344686  0.28725265  0.90852646  1
  Sc  Sc69  1  0.09038914  0.69434798  0.29901217  1
  Sc  Sc70  1  0.31003077  0.69646617  0.30333027  1
  Sc  Sc71  1  0.28898872  0.50181207  0.29293846  1
  Sc  Sc72  1  0.09236753  0.89972551  0.29731615  1
  Sc  Sc73  1  0.70539507  0.50466840  0.09791421  1
  Sc  Sc74  1  0.70919126  0.09279454  0.29583405  1
  Sc  Sc75  1  0.30319771  0.90195424  0.90118425  1
  Sc  Sc76  1  0.09504887  0.70049780  0.89993464  1
  Sc  Sc77  1  0.89517042  0.08783064  0.90624461  1
  Sc  Sc78  1  0.50229318  0.69699679  0.48913329  1
  Sc  Sc79  1  0.70460214  0.69875930  0.30164080  1
  Sc  Sc80  1  0.10034360  0.50998263  0.70556409  1
  Sc  Sc81  1  0.09960992  0.90271974  0.89900268  1
  Sc  Sc82  1  0.30941203  0.88666809  0.70603852  1
  Sc  Sc83  1  0.69537093  0.50358569  0.49867435  1
  Sc  Sc84  1  0.09412877  0.29221508  0.10315492  1
  Sc  Sc85  1  0.29877140  0.71024355  0.90041622  1
  Sc  Sc86  1  0.70979089  0.90377025  0.89903180  1
  Sc  Sc87  1  0.51278514  0.08697104  0.08806392  1
  Sc  Sc88  1  0.70379616  0.08937364  0.09636755  1
  Sc  Sc89  1  0.50945867  0.50471131  0.89928350  1
  Sc  Sc90  1  0.29356693  0.09947329  0.88993270  1
  Sc  Sc91  1  0.10295577  0.90346008  0.09410973  1
  Sc  Sc92  1  0.50233196  0.70054057  0.91331534  1
  Sc  Sc93  1  0.71150191  0.49801181  0.30503456  1
  Sc  Sc94  1  0.69953436  0.89741094  0.29781943  1
  Sc  Sc95  1  0.70911930  0.69819197  0.70098441  1
  Sc  Sc96  1  0.50294047  0.30193837  0.50660248  1
  Sc  Sc97  1  0.10249514  0.09061517  0.51156801  1
  Sc  Sc98  1  0.30656364  0.51007864  0.90129912  1
  Sc  Sc99  1  0.70124055  0.90187649  0.50353283  1
  Nb  Nb100  1  0.50125993  0.50614486  0.30441678  1
  Nb  Nb101  1  0.30066618  0.50361406  0.49632546  1
  Nb  Nb102  1  0.50417367  0.10142015  0.69372506  1
  Nb  Nb103  1  0.69756561  0.70217089  0.10211261  1
  Nb  Nb104  1  0.50921190  0.88843567  0.09818883  1
  Nb  Nb105  1  0.30480612  0.70093756  0.70106376  1
  Nb  Nb106  1  0.49349390  0.10228643  0.30796185  1
  Nb  Nb107  1  0.90666792  0.49849831  0.29769455  1
  Nb  Nb108  1  0.49481925  0.71116647  0.70012922  1
  Nb  Nb109  1  0.50231858  0.09719613  0.89649172  1
  Nb  Nb110  1  0.50455358  0.69499907  0.30285682  1
  Nb  Nb111  1  0.29869066  0.49965100  0.09713805  1
  Nb  Nb112  1  0.70397012  0.90239300  0.70244391  1
  Nb  Nb113  1  0.69354899  0.89794749  0.10510847  1
  Nb  Nb114  1  0.08425625  0.50017564  0.30251831  1
  Nb  Nb115  1  0.49769971  0.90033801  0.70631356  1
  Nb  Nb116  1  0.88726188  0.89736218  0.70931821  1
  Nb  Nb117  1  0.50582261  0.70393940  0.10429102  1
  Nb  Nb118  1  0.69856613  0.09532782  0.69700532  1
  Nb  Nb119  1  0.09952690  0.89843377  0.49952058  1
  Nb  Nb120  1  0.89990979  0.90303614  0.88827792  1
  Nb  Nb121  1  0.69492469  0.30141076  0.29771448  1
  Nb  Nb122  1  0.89815707  0.70176759  0.50517255  1
  Nb  Nb123  1  0.30177802  0.30136774  0.90113961  1
  Nb  Nb124  1  0.50112161  0.10423531  0.50248839  1
  Nb  Nb125  1  0.00462082  0.39363646  0.80274250  1
  Nb  Nb126  1  0.40294172  0.60950425  0.79141417  1
  Nb  Nb127  1  0.59694135  0.60178547  0.20112050  1
  Nb  Nb128  1  -0.00405837  0.19974382  0.40181249  1
  Nb  Nb129  1  0.41055565  0.00058188  0.60249830  1
  Nb  Nb130  1  -0.00768719  0.19966130  0.79930917  1
  Nb  Nb131  1  0.39686467  0.40760323  0.39968077  1
  Nb  Nb132  1  0.19910065  0.80507142  0.39761513  1
  Nb  Nb133  1  0.79872694  0.19647911  0.79709285  1
  Nb  Nb134  1  0.59850975  0.80384551  0.61041654  1
  Nb  Nb135  1  0.80665607  0.79690114  0.41006981  1
  Nb  Nb136  1  0.59924911  0.20007404  0.20688962  1
  Nb  Nb137  1  -0.00483127  0.60261756  0.59637595  1
  Nb  Nb138  1  0.20623601  0.40217930  0.00089944  1
  Nb  Nb139  1  0.59762533  0.40260532  0.20490982  1
  Nb  Nb140  1  0.59890613  0.80577912  0.79756049  1
  Nb  Nb141  1  0.59557820  0.00104220  0.79298512  1
  Nb  Nb142  1  0.20086166  0.39986542  0.80506574  1
  Nb  Nb143  1  0.40058922  0.19962544  -0.00444942  1
  Nb  Nb144  1  0.39457923  0.39710957  0.00037714  1
  Nb  Nb145  1  0.20440118  0.79857099  0.20242746  1
  Nb  Nb146  1  0.60061801  0.19653461  0.39617153  1
  Nb  Nb147  1  0.20229796  0.40687648  0.60006824  1
  Nb  Nb148  1  -0.00359836  -0.00086629  0.19294896  1
  Nb  Nb149  1  0.59480859  0.00876742  0.40030283  1
  Pd  Pd150  1  0.39390834  0.80021987  0.40080095  1
  Pd  Pd151  1  0.60562942  0.19551098  0.79442037  1
  Pd  Pd152  1  0.00667921  0.00949711  0.39181864  1
  Pd  Pd153  1  0.59442300  -0.00940595  0.59756161  1
  Pd  Pd154  1  0.78999589  0.19766588  0.19424535  1
  Pd  Pd155  1  0.59411010  0.39614138  0.39629994  1
  Pd  Pd156  1  0.20937004  0.60113767  0.80863573  1
  Pd  Pd157  1  -0.00742513  0.60047405  0.19366390  1
  Pd  Pd158  1  0.18963234  0.59744345  0.59292785  1
  Pd  Pd159  1  0.40132722  0.41108527  0.80816778  1
  Pd  Pd160  1  0.39993389  0.41160050  0.20399013  1
  Pd  Pd161  1  0.59766126  0.39995713  0.79789088  1
  Pd  Pd162  1  0.80475662  0.60486481  0.39693042  1
  Pd  Pd163  1  0.80056657  0.40522826  0.00332192  1
  Pd  Pd164  1  0.18675043  0.19290407  0.40532494  1
  Pd  Pd165  1  0.59592258  0.40611133  0.00769767  1
  Pd  Pd166  1  0.18853239  -0.00007335  0.39401370  1
  Pd  Pd167  1  0.79415024  -0.01101214  0.40138645  1
  Pd  Pd168  1  0.19952619  0.80380118  0.59693398  1
  Pd  Pd169  1  0.40314487  0.19338054  0.80569782  1
  Pd  Pd170  1  0.39372768  0.39693616  0.58881829  1
  Pd  Pd171  1  0.79924402  0.19866349  0.39497744  1
  Pd  Pd172  1  0.19781567  0.60889794  0.39306310  1
  Pd  Pd173  1  -0.00071568  0.80654713  -0.00389467  1
  Pd  Pd174  1  0.60534478  0.80676127  -0.00916047  1
  Pd  Pd175  1  0.00306949  0.79983716  0.79931257  1
  Pd  Pd176  1  0.59440650  0.61109613  0.79336805  1
  Pd  Pd177  1  0.60584747  0.79279807  0.20843300  1
  Pd  Pd178  1  0.39051459  0.01300166  0.00458907  1
  Pd  Pd179  1  0.40487908  0.80355345  0.59016618  1
  Pd  Pd180  1  0.20848068  0.00266622  0.00189148  1
  Pd  Pd181  1  0.20524674  0.39993130  0.40116900  1
  Pd  Pd182  1  0.40913609  0.60764999  0.59924898  1
  Pd  Pd183  1  0.00847223  0.39849862  -0.00085768  1
  Pd  Pd184  1  0.20772674  -0.01089452  0.79227867  1
  Pd  Pd185  1  0.39821992  0.79436311  0.20161577  1
  Pd  Pd186  1  0.20054425  0.60142003  -0.00535264  1
  Pd  Pd187  1  0.20339357  0.79918176  0.00632180  1
  Pd  Pd188  1  0.80461834  0.60189228  0.80179708  1
  Pd  Pd189  1  0.79362129  0.80421703  -0.00398910  1
  Pd  Pd190  1  0.21230881  -0.00647668  0.61193214  1
  Pd  Pd191  1  -0.00606718  0.18618249  0.60081194  1
  Pd  Pd192  1  0.19740468  0.80652482  0.80158138  1
  Pd  Pd193  1  0.19728542  0.60815294  0.20691507  1
  Pd  Pd194  1  0.80546205  0.59553545  0.60007349  1
  Pd  Pd195  1  0.19210123  0.39776988  0.19804497  1
  Pd  Pd196  1  0.59587877  0.00544381  0.20743503  1
  Pd  Pd197  1  -0.00194129  0.79553891  0.39576440  1
  Pd  Pd198  1  0.41589899  0.00366462  0.19051767  1
  Pd  Pd199  1  0.20921763  0.19823974  0.00326973  1
  Rh  Rh200  1  -0.00505955  0.19347794  -0.00730190  1
  Rh  Rh201  1  0.19019251  -0.01007497  0.19835462  1
  Rh  Rh202  1  0.60363142  0.20672759  0.59695457  1
  Rh  Rh203  1  0.79911213  0.19757356  -0.00235314  1
  Rh  Rh204  1  0.80249027  0.19381399  0.60891875  1
  Rh  Rh205  1  0.59574399  0.20114568  0.00671346  1
  Rh  Rh206  1  0.40220913  0.60055328  -0.00934412  1
  Rh  Rh207  1  0.79256755  0.79541986  0.80601618  1
  Rh  Rh208  1  -0.00758691  0.38939773  0.38971144  1
  Rh  Rh209  1  0.40154341  0.01015330  0.79175143  1
  Rh  Rh210  1  0.80588091  0.39610048  0.80491451  1
  Rh  Rh211  1  0.40977934  -0.00352738  0.40859013  1
  Rh  Rh212  1  0.79407459  0.80099649  0.20594242  1
  Rh  Rh213  1  -0.00070050  0.19138885  0.20658326  1
  Rh  Rh214  1  0.60410346  0.39812314  0.59841413  1
  Rh  Rh215  1  0.40481051  0.59997752  0.20723483  1
  Rh  Rh216  1  0.60758855  0.60131820  0.39157492  1
  Rh  Rh217  1  -0.00218095  -0.00032482  0.60500750  1
  Rh  Rh218  1  0.40197513  0.79647654  0.00280049  1
  Rh  Rh219  1  0.41341023  0.18158074  0.18387851  1
  Rh  Rh220  1  0.60527431  -0.01294217  -0.00647424  1
  Rh  Rh221  1  0.39551746  0.59354634  0.39667217  1
  Rh  Rh222  1  -0.00484730  -0.00676224  0.00246756  1
  Rh  Rh223  1  0.19522486  0.20309731  0.19921420  1
  Rh  Rh224  1  -0.00904578  0.60546934  0.40370844  1
  Rh  Rh225  1  0.79158159  0.00849155  0.80220959  1
  Rh  Rh226  1  0.79417145  0.40336107  0.19847965  1
  Rh  Rh227  1  0.00239392  0.40018758  0.19944529  1
  Rh  Rh228  1  0.01423839  0.41710819  0.60927998  1
  Rh  Rh229  1  0.40642500  0.21101919  0.41184271  1
  Rh  Rh230  1  0.80290522  0.40078221  0.39784076  1
  Rh  Rh231  1  0.40677783  0.79271413  0.81319241  1
  Rh  Rh232  1  0.80484642  -0.00903010  0.19529356  1
  Rh  Rh233  1  0.79402911  0.80556929  0.59750820  1
  Rh  Rh234  1  0.00552873  0.80683231  0.19415268  1
  Rh  Rh235  1  0.79989856  0.59857064  0.00263329  1
  Rh  Rh236  1  -0.00796577  0.59968190  0.79295491  1
  Rh  Rh237  1  0.79106936  0.41038945  0.59202950  1
  Rh  Rh238  1  -0.00651843  0.60428508  0.00801058  1
  Rh  Rh239  1  0.59731939  0.61166225  0.60577907  1
  Rh  Rh240  1  0.60410329  0.59729115  0.01106674  1
  Rh  Rh241  1  0.80336569  -0.00740558  0.60027702  1
  Rh  Rh242  1  -0.00277411  0.00151920  0.79839027  1
  Rh  Rh243  1  0.39759453  0.19575779  0.59746522  1
  Rh  Rh244  1  0.00236114  0.79390603  0.60746445  1
  Rh  Rh245  1  0.79756165  -0.00821466  0.00204300  1
  Rh  Rh246  1  0.19374304  0.20458002  0.80233926  1
  Rh  Rh247  1  0.79602505  0.59778960  0.19961797  1
  Rh  Rh248  1  0.61031417  0.80279210  0.40260555  1
  Rh  Rh249  1  0.20334245  0.20304332  0.59598487  1
