# generated using pymatgen
data_ZrScNbPdRh
_symmetry_space_group_name_H-M   'P 1'
_cell_length_a   16.55570597
_cell_length_b   16.55570932
_cell_length_c   16.55572796
_cell_angle_alpha   90.00057472
_cell_angle_beta   90.00015039
_cell_angle_gamma   90.05564513
_symmetry_Int_Tables_number   1
_chemical_formula_structural   ZrScNbPdRh
_chemical_formula_sum   'Zr50 Sc50 Nb50 Pd50 Rh50'
_cell_volume   4537.78143653
_cell_formula_units_Z   50
loop_
 _symmetry_equiv_pos_site_id
 _symmetry_equiv_pos_as_xyz
  1  'x, y, z'
loop_
 _atom_site_type_symbol
 _atom_site_label
 _atom_site_symmetry_multiplicity
 _atom_site_fract_x
 _atom_site_fract_y
 _atom_site_fract_z
 _atom_site_occupancy
  Zr  Zr0  1  0.49929938  0.09509448  0.09889850  1
  Zr  Zr1  1  0.89809298  0.49678880  0.49961784  1
  Zr  Zr2  1  0.10503066  0.10609079  0.90184933  1
  Zr  Zr3  1  0.10950654  0.09127729  0.30521673  1
  Zr  Zr4  1  0.69541772  0.29971426  0.69848067  1
  Zr  Zr5  1  0.69818464  0.70309430  0.50118521  1
  Zr  Zr6  1  0.50680045  0.10469984  0.29807150  1
  Zr  Zr7  1  0.10597892  0.50406050  0.30417879  1
  Zr  Zr8  1  0.69444447  0.30013731  0.51045492  1
  Zr  Zr9  1  0.90095994  0.10580640  0.89700047  1
  Zr  Zr10  1  0.89786795  0.29515175  0.29403707  1
  Zr  Zr11  1  0.69432063  0.69575651  0.90333835  1
  Zr  Zr12  1  0.49907762  0.89777541  0.30714596  1
  Zr  Zr13  1  0.10844720  0.09226841  0.69444723  1
  Zr  Zr14  1  0.49920650  0.89662242  0.10323245  1
  Zr  Zr15  1  0.09316351  0.90255963  0.51118761  1
  Zr  Zr16  1  0.29570614  0.10261685  0.50052225  1
  Zr  Zr17  1  0.89878702  0.09169741  0.49553177  1
  Zr  Zr18  1  0.09926282  0.49846368  0.50312113  1
  Zr  Zr19  1  0.10592573  0.09909941  0.09618599  1
  Zr  Zr20  1  0.49345824  0.89986661  0.90642422  1
  Zr  Zr21  1  0.69833650  0.90651354  0.89307769  1
  Zr  Zr22  1  0.30445308  0.29825177  0.89632806  1
  Zr  Zr23  1  0.69937482  0.10639585  0.90557188  1
  Zr  Zr24  1  0.09816619  0.89395889  0.29739169  1
  Zr  Zr25  1  0.10023071  0.50687433  0.70581072  1
  Zr  Zr26  1  0.49723975  0.71115153  0.49804333  1
  Zr  Zr27  1  0.89651974  0.29895892  0.50618681  1
  Zr  Zr28  1  0.69242442  0.69916215  0.10162722  1
  Zr  Zr29  1  0.49904585  0.70693373  0.29267913  1
  Zr  Zr30  1  0.29259679  0.90163054  0.70048723  1
  Zr  Zr31  1  0.90055930  0.89692043  0.50254830  1
  Zr  Zr32  1  0.70251539  0.50280677  0.50153397  1
  Zr  Zr33  1  0.49295536  0.49999143  0.50299879  1
  Zr  Zr34  1  0.89495327  0.90283182  0.88884815  1
  Zr  Zr35  1  0.50660589  0.89784779  0.49648836  1
  Zr  Zr36  1  0.49866595  0.49813404  0.29329241  1
  Zr  Zr37  1  0.70191645  0.30074110  0.10021894  1
  Zr  Zr38  1  0.69547799  0.70010810  0.69912486  1
  Zr  Zr39  1  0.30427622  0.90100701  0.30265777  1
  Zr  Zr40  1  0.10165459  0.30164236  0.69259446  1
  Zr  Zr41  1  0.10663349  0.70585364  0.10668671  1
  Zr  Zr42  1  0.29976216  0.30285768  0.50790635  1
  Zr  Zr43  1  0.30322340  0.09773048  0.30296830  1
  Zr  Zr44  1  0.30801393  0.30611145  0.09751859  1
  Zr  Zr45  1  0.49877979  0.09062664  0.90131474  1
  Zr  Zr46  1  0.90654894  0.09951392  0.70172834  1
  Zr  Zr47  1  0.09546399  0.69679049  0.50001548  1
  Zr  Zr48  1  0.49753715  0.70411427  0.09540563  1
  Zr  Zr49  1  0.69182971  0.29840203  0.29399859  1
  Sc  Sc50  1  0.10718582  0.30312135  0.49872608  1
  Sc  Sc51  1  0.50276276  0.09162103  0.50755169  1
  Sc  Sc52  1  0.10650225  0.69730454  0.69472976  1
  Sc  Sc53  1  0.49329158  0.30022885  0.69340829  1
  Sc  Sc54  1  0.89751123  0.29579340  0.69880821  1
  Sc  Sc55  1  0.90314893  0.11276107  0.10620487  1
  Sc  Sc56  1  0.10483221  0.69078534  0.88956315  1
  Sc  Sc57  1  0.31751438  0.90028184  0.50143765  1
  Sc  Sc58  1  0.30373919  0.69606157  0.50998071  1
  Sc  Sc59  1  0.49064525  0.69836645  0.69911875  1
  Sc  Sc60  1  0.29985749  0.89768908  0.09108852  1
  Sc  Sc61  1  0.30344183  0.89861459  0.89807829  1
  Sc  Sc62  1  0.90493940  0.29371935  0.90163612  1
  Sc  Sc63  1  0.30067423  0.50276023  0.09153615  1
  Sc  Sc64  1  0.30325464  0.30713997  0.29833447  1
  Sc  Sc65  1  0.89403122  0.69571260  0.49354690  1
  Sc  Sc66  1  0.10133699  0.49747518  0.90071290  1
  Sc  Sc67  1  0.49715168  0.50459934  0.70238983  1
  Sc  Sc68  1  0.89015451  0.70200482  0.10694393  1
  Sc  Sc69  1  0.91194677  0.50030093  0.89626668  1
  Sc  Sc70  1  0.70521865  0.09379588  0.30091575  1
  Sc  Sc71  1  0.69618740  0.90474550  0.30559953  1
  Sc  Sc72  1  0.68573102  0.49656660  0.69306284  1
  Sc  Sc73  1  0.69504066  0.09837670  0.49897690  1
  Sc  Sc74  1  0.69456469  0.09890973  0.10428627  1
  Sc  Sc75  1  0.10563429  0.49196968  0.09773615  1
  Sc  Sc76  1  0.69674562  0.50902847  0.10826945  1
  Sc  Sc77  1  0.11439650  0.90851289  0.89627192  1
  Sc  Sc78  1  0.10003799  0.31026533  0.29696910  1
  Sc  Sc79  1  0.89690640  0.69743882  0.89464268  1
  Sc  Sc80  1  0.09622928  0.30302516  0.09324739  1
  Sc  Sc81  1  0.30577058  0.69667319  0.89782779  1
  Sc  Sc82  1  0.69626474  0.90547253  0.11226624  1
  Sc  Sc83  1  0.70821574  0.69590779  0.29850971  1
  Sc  Sc84  1  0.90081992  0.49696392  0.29809084  1
  Sc  Sc85  1  0.69262540  0.10158355  0.70004924  1
  Sc  Sc86  1  0.49221151  0.90381170  0.69407284  1
  Sc  Sc87  1  0.90786224  0.49319832  0.69742389  1
  Sc  Sc88  1  0.49636602  0.49847218  0.09998919  1
  Sc  Sc89  1  0.90848490  0.30741619  0.10276902  1
  Sc  Sc90  1  0.50075390  0.29926183  0.11200568  1
  Sc  Sc91  1  0.90005371  0.69940685  0.69987499  1
  Sc  Sc92  1  0.11113518  0.90009284  0.10025147  1
  Sc  Sc93  1  0.49259404  0.50302817  0.89250302  1
  Sc  Sc94  1  0.30022227  0.69906575  0.70282941  1
  Sc  Sc95  1  0.29979987  0.69521862  0.29327623  1
  Sc  Sc96  1  0.29809008  0.50105454  0.29619623  1
  Sc  Sc97  1  0.29822361  0.50102934  0.50077640  1
  Sc  Sc98  1  0.90034448  0.89667610  0.11425233  1
  Sc  Sc99  1  0.89406843  0.90261543  0.30630603  1
  Nb  Nb100  1  0.49726410  0.29947542  0.90174060  1
  Nb  Nb101  1  0.49869600  0.30034172  0.29743202  1
  Nb  Nb102  1  0.50140887  0.70664318  0.89420093  1
  Nb  Nb103  1  0.10318894  0.30529569  0.90450416  1
  Nb  Nb104  1  0.50034187  0.30178246  0.49629292  1
  Nb  Nb105  1  0.30063413  0.70053798  0.09767274  1
  Nb  Nb106  1  0.49420991  0.10383823  0.70365910  1
  Nb  Nb107  1  0.09977643  0.69869647  0.29980834  1
  Nb  Nb108  1  0.29781733  0.29090664  0.69899601  1
  Nb  Nb109  1  0.90089354  0.90020615  0.70121017  1
  Nb  Nb110  1  0.69969843  0.29875853  0.90033566  1
  Nb  Nb111  1  0.09749057  0.09862683  0.49569278  1
  Nb  Nb112  1  0.29905073  0.09786773  0.89944948  1
  Nb  Nb113  1  0.91076022  0.70413287  0.29609324  1
  Nb  Nb114  1  0.90126056  0.09390971  0.30441964  1
  Nb  Nb115  1  0.30606001  0.11122314  0.70395699  1
  Nb  Nb116  1  0.70738517  0.89063532  0.70131384  1
  Nb  Nb117  1  0.30038107  0.49358822  0.89657472  1
  Nb  Nb118  1  0.69501997  0.89485072  0.50624076  1
  Nb  Nb119  1  0.30183269  0.10133051  0.10048076  1
  Nb  Nb120  1  0.09393945  0.89810210  0.69683244  1
  Nb  Nb121  1  0.90622169  0.50201989  0.09561624  1
  Nb  Nb122  1  0.69564465  0.49870946  0.30363627  1
  Nb  Nb123  1  0.69372535  0.50085937  0.89834662  1
  Nb  Nb124  1  0.30168506  0.50456724  0.70532881  1
  Nb  Nb125  1  0.79749282  -0.01048012  0.60536020  1
  Nb  Nb126  1  0.20510795  0.19883288  0.19735789  1
  Nb  Nb127  1  0.00391387  0.60417695  0.20014131  1
  Nb  Nb128  1  0.59835744  0.59603225  0.39772509  1
  Nb  Nb129  1  0.79231657  0.58908226  0.80154266  1
  Nb  Nb130  1  0.59788648  0.80267018  0.79914200  1
  Nb  Nb131  1  0.00083067  0.60640876  0.00840883  1
  Nb  Nb132  1  0.79991601  0.80613891  -0.00213779  1
  Nb  Nb133  1  0.00120057  0.19292077  0.39903034  1
  Nb  Nb134  1  0.80675592  -0.00091709  0.00189947  1
  Nb  Nb135  1  0.59685694  0.39983385  0.39855829  1
  Nb  Nb136  1  0.59211370  0.20231456  0.80592006  1
  Nb  Nb137  1  0.79163502  0.40113835  0.80735328  1
  Nb  Nb138  1  0.00328927  0.00391469  0.20221826  1
  Nb  Nb139  1  0.00310580  0.80700275  0.79705754  1
  Nb  Nb140  1  0.79536124  0.40744150  -0.00551217  1
  Nb  Nb141  1  0.39914630  0.00162142  0.19907312  1
  Nb  Nb142  1  0.39869370  0.19626496  -0.00428286  1
  Nb  Nb143  1  0.60335539  0.39777980  -0.00729904  1
  Nb  Nb144  1  0.19586453  0.79640100  0.40146744  1
  Nb  Nb145  1  -0.00404611  -0.00355043  0.00140528  1
  Nb  Nb146  1  0.20758430  0.39603713  0.79819800  1
  Nb  Nb147  1  0.79131410  0.39711268  0.39778729  1
  Nb  Nb148  1  0.40712448  0.20620539  0.40122561  1
  Nb  Nb149  1  -0.00216914  0.80186048  -0.00519008  1
  Pd  Pd150  1  0.00194940  0.80167147  0.40313258  1
  Pd  Pd151  1  0.39575779  0.59863035  0.19302432  1
  Pd  Pd152  1  0.20213839  0.39768675  0.19597644  1
  Pd  Pd153  1  0.60416909  -0.00454941  0.60825499  1
  Pd  Pd154  1  0.21045914  0.80025822  0.20509443  1
  Pd  Pd155  1  0.39867607  0.39796660  0.39721043  1
  Pd  Pd156  1  0.19762488  0.79400366  -0.01189181  1
  Pd  Pd157  1  0.20423347  0.79999498  0.59381414  1
  Pd  Pd158  1  0.59034927  0.60501475  0.59406285  1
  Pd  Pd159  1  0.20165290  -0.01581380  0.41315810  1
  Pd  Pd160  1  0.00951051  -0.00196158  0.80514778  1
  Pd  Pd161  1  0.39791112  0.40330834  0.60761921  1
  Pd  Pd162  1  0.00990097  0.20614116  0.79813690  1
  Pd  Pd163  1  0.20024773  0.21201153  0.39278838  1
  Pd  Pd164  1  0.58985434  0.20560256  0.00237621  1
  Pd  Pd165  1  -0.00557692  0.39085024  0.40014866  1
  Pd  Pd166  1  0.00641623  0.19813632  0.59168141  1
  Pd  Pd167  1  0.79636202  0.80188269  0.39510891  1
  Pd  Pd168  1  0.40587886  0.19631357  0.59111659  1
  Pd  Pd169  1  0.20667314  0.20704559  0.00560960  1
  Pd  Pd170  1  0.79575759  0.19328035  0.20008651  1
  Pd  Pd171  1  0.01330422  0.19526159  0.20902897  1
  Pd  Pd172  1  0.79387546  0.80241779  0.20275485  1
  Pd  Pd173  1  0.19657266  0.59921817  -0.00187631  1
  Pd  Pd174  1  0.19636981  0.79798318  0.80101296  1
  Pd  Pd175  1  -0.00672370  0.59743160  0.39472534  1
  Pd  Pd176  1  0.58671281  0.59039868  -0.00179831  1
  Pd  Pd177  1  0.20772157  0.60667193  0.40427410  1
  Pd  Pd178  1  0.80110876  0.20338547  0.39877473  1
  Pd  Pd179  1  0.59705066  -0.00143668  0.79044785  1
  Pd  Pd180  1  0.80367641  0.59423819  0.61184156  1
  Pd  Pd181  1  0.60664493  0.80975402  -0.00244858  1
  Pd  Pd182  1  0.80677031  0.59549451  0.20650314  1
  Pd  Pd183  1  0.20445039  0.40897075  0.60804384  1
  Pd  Pd184  1  0.80058892  0.40834295  0.19636387  1
  Pd  Pd185  1  0.80709662  0.20372907  0.00720069  1
  Pd  Pd186  1  0.80730375  0.59864306  -0.00432306  1
  Pd  Pd187  1  0.79694206  0.18634634  0.60375052  1
  Pd  Pd188  1  0.79425230  0.01271145  0.79456854  1
  Pd  Pd189  1  0.80653651  0.79811090  0.60010330  1
  Pd  Pd190  1  0.39307832  -0.00256024  0.79630892  1
  Pd  Pd191  1  0.40397492  0.60225146  -0.00659292  1
  Pd  Pd192  1  0.19442996  0.20445889  0.79848472  1
  Pd  Pd193  1  0.00037760  0.39141323  0.80186015  1
  Pd  Pd194  1  0.59782266  0.20063342  0.40374644  1
  Pd  Pd195  1  0.59648842  0.39468179  0.80170941  1
  Pd  Pd196  1  -0.00461142  0.60312674  0.60237035  1
  Pd  Pd197  1  0.39786121  0.39798900  0.79140990  1
  Pd  Pd198  1  0.20747243  -0.00051256  0.59612324  1
  Pd  Pd199  1  0.40090595  0.60558518  0.39758942  1
  Rh  Rh200  1  0.79093075  -0.00732996  0.41263383  1
  Rh  Rh201  1  0.60905427  0.79138892  0.39478510  1
  Rh  Rh202  1  0.00140523  0.80126498  0.19627135  1
  Rh  Rh203  1  0.79167470  0.20475088  0.79355981  1
  Rh  Rh204  1  0.59630238  0.60341047  0.20519581  1
  Rh  Rh205  1  0.58936451  0.40063699  0.59621507  1
  Rh  Rh206  1  0.59894730  0.40300523  0.19641159  1
  Rh  Rh207  1  0.19758245  0.59780958  0.19460824  1
  Rh  Rh208  1  0.79700166  0.78605886  0.80193588  1
  Rh  Rh209  1  0.20435327  0.00108820  -0.00383559  1
  Rh  Rh210  1  0.20452583  0.00280064  0.19257386  1
  Rh  Rh211  1  0.40584217  0.19735903  0.80593090  1
  Rh  Rh212  1  0.20572285  0.00395659  0.79632349  1
  Rh  Rh213  1  0.39056274  0.00459149  0.00420770  1
  Rh  Rh214  1  0.20349972  0.40024275  -0.00807396  1
  Rh  Rh215  1  0.41016172  0.01158664  0.39670905  1
  Rh  Rh216  1  0.19692509  0.19475078  0.59910995  1
  Rh  Rh217  1  0.59771327  0.60863127  0.79872464  1
  Rh  Rh218  1  0.39313723  0.80479496  0.19380264  1
  Rh  Rh219  1  0.40472653  0.80203063  0.79918760  1
  Rh  Rh220  1  0.60635468  0.79837335  0.20633423  1
  Rh  Rh221  1  0.80194697  0.40333485  0.60505016  1
  Rh  Rh222  1  0.39843647  0.60266111  0.80304312  1
  Rh  Rh223  1  0.00184529  0.39807198  0.59846191  1
  Rh  Rh224  1  0.39682669  0.59776402  0.60448982  1
  Rh  Rh225  1  0.60256851  -0.00064792  0.40331229  1
  Rh  Rh226  1  0.59125348  -0.00153758  0.20526016  1
  Rh  Rh227  1  0.00284150  -0.00088409  0.39420874  1
  Rh  Rh228  1  0.39470936  0.79298533  -0.00035999  1
  Rh  Rh229  1  0.39490080  0.00824564  0.60755879  1
  Rh  Rh230  1  0.40809142  0.39699540  0.00066723  1
  Rh  Rh231  1  -0.00407881  0.40409155  -0.00174164  1
  Rh  Rh232  1  0.39732125  0.40565937  0.19856394  1
  Rh  Rh233  1  0.61157820  -0.00527128  0.00496326  1
  Rh  Rh234  1  0.39859996  0.80107467  0.60410616  1
  Rh  Rh235  1  0.59078745  0.19865901  0.60699301  1
  Rh  Rh236  1  0.38668424  0.78927739  0.39943546  1
  Rh  Rh237  1  0.20711439  0.59274075  0.80182202  1
  Rh  Rh238  1  0.80120198  0.59525406  0.39210634  1
  Rh  Rh239  1  0.20461158  0.40236258  0.40222832  1
  Rh  Rh240  1  -0.00545303  0.60846881  0.80147151  1
  Rh  Rh241  1  0.59266924  0.80284456  0.61035800  1
  Rh  Rh242  1  -0.00394122  0.79236502  0.60693946  1
  Rh  Rh243  1  0.60350243  0.19717172  0.19768652  1
  Rh  Rh244  1  0.00126167  0.19990636  -0.00320969  1
  Rh  Rh245  1  0.00322746  0.41033934  0.19935963  1
  Rh  Rh246  1  0.81104166  0.00755506  0.19457231  1
  Rh  Rh247  1  -0.00605093  0.00361323  0.60234851  1
  Rh  Rh248  1  0.39449202  0.19567987  0.20227837  1
  Rh  Rh249  1  0.20160520  0.59622336  0.60102362  1
