# generated using pymatgen
data_ZrScNbPdRh
_symmetry_space_group_name_H-M   'P 1'
_cell_length_a   16.56238782
_cell_length_b   16.55907561
_cell_length_c   16.55930016
_cell_angle_alpha   89.99173943
_cell_angle_beta   89.97872337
_cell_angle_gamma   89.98696655
_symmetry_Int_Tables_number   1
_chemical_formula_structural   ZrScNbPdRh
_chemical_formula_sum   'Zr50 Sc50 Nb50 Pd50 Rh50'
_cell_volume   4541.51728663
_cell_formula_units_Z   50
loop_
 _symmetry_equiv_pos_site_id
 _symmetry_equiv_pos_as_xyz
  1  'x, y, z'
loop_
 _atom_site_type_symbol
 _atom_site_label
 _atom_site_symmetry_multiplicity
 _atom_site_fract_x
 _atom_site_fract_y
 _atom_site_fract_z
 _atom_site_occupancy
  Zr  Zr0  1  0.50155665  0.89937994  0.09377819  1
  Zr  Zr1  1  0.29013808  0.50578236  0.90489980  1
  Zr  Zr2  1  0.49585232  0.69768694  0.30597103  1
  Zr  Zr3  1  0.50261492  0.89186829  0.30073942  1
  Zr  Zr4  1  0.50577381  0.10250269  0.70831893  1
  Zr  Zr5  1  0.89690054  0.69988274  0.09862831  1
  Zr  Zr6  1  0.30677357  0.09821195  0.90017123  1
  Zr  Zr7  1  0.30109207  0.30976613  0.31152225  1
  Zr  Zr8  1  0.68953258  0.29737251  0.08929546  1
  Zr  Zr9  1  0.90394723  0.29971571  0.49639444  1
  Zr  Zr10  1  0.10048128  0.31435191  0.90314510  1
  Zr  Zr11  1  0.30166367  0.09912641  0.50762693  1
  Zr  Zr12  1  0.10776756  0.09597180  0.09897956  1
  Zr  Zr13  1  0.09531061  0.30044103  0.10274141  1
  Zr  Zr14  1  0.29448833  0.70961755  0.49808411  1
  Zr  Zr15  1  0.70394960  0.90439384  0.09757872  1
  Zr  Zr16  1  0.48955375  0.89262245  0.49676619  1
  Zr  Zr17  1  0.30065174  0.30369565  0.89727180  1
  Zr  Zr18  1  0.91503477  0.10095726  0.70121731  1
  Zr  Zr19  1  0.90466314  0.49863652  0.30056876  1
  Zr  Zr20  1  0.90553848  0.69727914  0.30063993  1
  Zr  Zr21  1  0.70538323  0.71537052  0.89312729  1
  Zr  Zr22  1  0.49745069  0.10099569  0.50290171  1
  Zr  Zr23  1  0.89961595  0.69070243  0.69553102  1
  Zr  Zr24  1  0.49996700  0.30221645  0.49602126  1
  Zr  Zr25  1  0.29577099  0.90417205  0.69560178  1
  Zr  Zr26  1  0.90324333  0.29982363  0.30172578  1
  Zr  Zr27  1  0.68892334  0.10407579  0.89936888  1
  Zr  Zr28  1  0.49682667  0.50015565  0.68936612  1
  Zr  Zr29  1  0.09833531  0.49446197  0.09223041  1
  Zr  Zr30  1  0.50468241  0.29144952  0.90296817  1
  Zr  Zr31  1  0.70110283  0.29735245  0.89801872  1
  Zr  Zr32  1  0.69076589  0.49883567  0.49875191  1
  Zr  Zr33  1  0.69660010  0.10075667  0.50537005  1
  Zr  Zr34  1  0.10308470  0.09857619  0.88546641  1
  Zr  Zr35  1  0.71069399  0.89337134  0.49686929  1
  Zr  Zr36  1  0.29856943  0.51015866  0.09994007  1
  Zr  Zr37  1  0.10301995  0.28935735  0.70286734  1
  Zr  Zr38  1  0.50039100  0.49960677  0.09541412  1
  Zr  Zr39  1  0.10300828  0.69811990  0.30829898  1
  Zr  Zr40  1  0.70257591  0.49305674  0.89981533  1
  Zr  Zr41  1  0.30065009  0.71125260  0.70139341  1
  Zr  Zr42  1  0.29992912  0.09748777  0.09832577  1
  Zr  Zr43  1  0.50071402  0.50255993  0.31730769  1
  Zr  Zr44  1  0.70042058  0.49600763  0.09791724  1
  Zr  Zr45  1  0.90355377  0.30078189  0.89113081  1
  Zr  Zr46  1  0.69810884  0.89710784  0.69966660  1
  Zr  Zr47  1  0.09816994  0.50508686  0.49566001  1
  Zr  Zr48  1  0.29507049  0.10273020  0.70002651  1
  Zr  Zr49  1  0.49979363  0.72186703  0.90045774  1
  Sc  Sc50  1  0.50085601  0.10545252  0.30617701  1
  Sc  Sc51  1  0.68783462  0.70288371  0.30432821  1
  Sc  Sc52  1  0.30730029  0.08990497  0.29520357  1
  Sc  Sc53  1  0.90490227  0.90919561  0.69747845  1
  Sc  Sc54  1  0.30192325  0.49463242  0.49967598  1
  Sc  Sc55  1  0.70517392  0.10254066  0.09888386  1
  Sc  Sc56  1  0.29727369  0.51049132  0.30688381  1
  Sc  Sc57  1  0.30067835  0.89940151  0.50138539  1
  Sc  Sc58  1  0.90117585  0.90206818  0.31170721  1
  Sc  Sc59  1  0.49609372  0.09207615  0.08753711  1
  Sc  Sc60  1  0.10564120  0.09952548  0.69592522  1
  Sc  Sc61  1  0.49970962  0.90229023  0.70403962  1
  Sc  Sc62  1  0.09915804  0.50213670  0.70245204  1
  Sc  Sc63  1  0.90394410  0.89994348  0.49668873  1
  Sc  Sc64  1  0.10184425  0.30335617  0.50053314  1
  Sc  Sc65  1  0.90340649  0.29990358  0.69781655  1
  Sc  Sc66  1  0.69904361  0.50463740  0.29686049  1
  Sc  Sc67  1  0.89874313  0.10489590  0.30094877  1
  Sc  Sc68  1  0.10170704  0.91545500  0.70750600  1
  Sc  Sc69  1  0.10254699  0.89282962  0.29842384  1
  Sc  Sc70  1  0.48786501  0.49210284  0.89848394  1
  Sc  Sc71  1  0.90194652  0.30419302  0.10775443  1
  Sc  Sc72  1  0.09873472  0.90176105  0.49559469  1
  Sc  Sc73  1  0.30494169  0.49328643  0.69934995  1
  Sc  Sc74  1  0.69686710  0.28202871  0.30275143  1
  Sc  Sc75  1  0.50068966  0.69922528  0.10140639  1
  Sc  Sc76  1  0.89605619  0.09914560  0.89582100  1
  Sc  Sc77  1  0.11529416  0.70325747  0.89658911  1
  Sc  Sc78  1  0.70070137  0.29229129  0.69593705  1
  Sc  Sc79  1  0.69993148  0.50193195  0.68607434  1
  Sc  Sc80  1  0.09213207  0.10227678  0.50688483  1
  Sc  Sc81  1  0.90651738  0.09566781  0.49847072  1
  Sc  Sc82  1  0.90398188  0.69919078  0.49843452  1
  Sc  Sc83  1  0.89290820  0.50124660  0.10723614  1
  Sc  Sc84  1  0.10348620  0.71091478  0.11107193  1
  Sc  Sc85  1  0.89449555  0.09941566  0.10019088  1
  Sc  Sc86  1  0.08692501  0.30421794  0.30310409  1
  Sc  Sc87  1  0.70057909  0.69148792  0.10608159  1
  Sc  Sc88  1  0.30192738  0.30079835  0.50719267  1
  Sc  Sc89  1  0.89996970  0.49727223  0.50364756  1
  Sc  Sc90  1  0.90418363  0.49259839  0.89530171  1
  Sc  Sc91  1  0.89618742  0.89464777  0.09058834  1
  Sc  Sc92  1  0.28964253  0.90652327  0.10267719  1
  Sc  Sc93  1  0.10486954  0.69090705  0.69893909  1
  Sc  Sc94  1  0.90727299  0.49827942  0.69840552  1
  Sc  Sc95  1  0.70258487  0.29837983  0.50256308  1
  Sc  Sc96  1  0.08738491  0.10222612  0.29957239  1
  Sc  Sc97  1  0.30344882  0.29892953  0.69691872  1
  Sc  Sc98  1  0.30001052  0.89993640  0.30368580  1
  Sc  Sc99  1  0.49114758  0.69201599  0.49756960  1
  Nb  Nb100  1  0.50808476  0.91313491  0.90596558  1
  Nb  Nb101  1  0.09799788  0.70279280  0.50117485  1
  Nb  Nb102  1  0.50040535  0.08974419  0.89859274  1
  Nb  Nb103  1  0.69690412  0.09331173  0.30078007  1
  Nb  Nb104  1  0.29783362  0.30076871  0.10183575  1
  Nb  Nb105  1  0.50010906  0.49839719  0.49943917  1
  Nb  Nb106  1  0.70023726  0.89686225  0.30158442  1
  Nb  Nb107  1  0.10031128  0.90266827  0.09842939  1
  Nb  Nb108  1  0.30069099  0.70809692  0.90141091  1
  Nb  Nb109  1  0.49838627  0.29995048  0.30003056  1
  Nb  Nb110  1  0.70052487  0.90198464  0.90127940  1
  Nb  Nb111  1  0.29319522  0.70101357  0.29238149  1
  Nb  Nb112  1  0.10211599  0.50105267  0.29965551  1
  Nb  Nb113  1  0.89079524  0.89215820  0.90377637  1
  Nb  Nb114  1  0.89924236  0.70564005  0.90161270  1
  Nb  Nb115  1  0.69788519  0.09218796  0.70084565  1
  Nb  Nb116  1  0.29253633  0.88475173  0.89532940  1
  Nb  Nb117  1  0.10017478  0.89789556  0.90061393  1
  Nb  Nb118  1  0.29914838  0.70047196  0.10285457  1
  Nb  Nb119  1  0.69943157  0.69874257  0.69737221  1
  Nb  Nb120  1  0.71187837  0.69626737  0.50799162  1
  Nb  Nb121  1  0.49669755  0.30736986  0.70211081  1
  Nb  Nb122  1  0.09759604  0.50056901  0.90357224  1
  Nb  Nb123  1  0.49792254  0.30295894  0.09988691  1
  Nb  Nb124  1  0.50285650  0.70123480  0.70153977  1
  Nb  Nb125  1  0.79655631  0.80278760  0.20682333  1
  Nb  Nb126  1  0.00421707  0.19629527  -0.00295177  1
  Nb  Nb127  1  0.79238752  -0.00206975  0.80060546  1
  Nb  Nb128  1  0.60099570  0.59977771  -0.01369046  1
  Nb  Nb129  1  0.20118589  0.19634782  0.39648081  1
  Nb  Nb130  1  0.79587632  0.60470186  0.79987467  1
  Nb  Nb131  1  0.59031312  0.39213032  0.20141547  1
  Nb  Nb132  1  0.60568794  -0.00119770  0.20733912  1
  Nb  Nb133  1  0.00135406  0.60408206  -0.00663747  1
  Nb  Nb134  1  0.60281348  0.79109296  0.60024948  1
  Nb  Nb135  1  0.19947992  0.00821997  0.40051390  1
  Nb  Nb136  1  0.40031852  0.21019279  0.19695065  1
  Nb  Nb137  1  0.40119759  0.61170083  0.80234286  1
  Nb  Nb138  1  0.00112442  -0.00592590  0.19071023  1
  Nb  Nb139  1  0.00370083  -0.00459295  -0.00398807  1
  Nb  Nb140  1  0.59682612  0.40163096  0.79544704  1
  Nb  Nb141  1  0.60422985  -0.00450814  0.39921042  1
  Nb  Nb142  1  0.39491179  0.79527379  0.19929315  1
  Nb  Nb143  1  -0.00168099  0.80012864  0.80405367  1
  Nb  Nb144  1  0.59864710  0.60233349  0.79959304  1
  Nb  Nb145  1  0.00415195  0.79667669  0.60547300  1
  Nb  Nb146  1  0.20240620  0.40036935  0.20168779  1
  Nb  Nb147  1  0.40086004  0.39868557  0.20160612  1
  Nb  Nb148  1  0.79721449  0.60145310  0.40341400  1
  Nb  Nb149  1  0.20527969  0.20545475  0.20484174  1
  Pd  Pd150  1  0.80098379  0.40032311  0.60164909  1
  Pd  Pd151  1  0.39072607  0.60465824  0.60196685  1
  Pd  Pd152  1  0.41157115  -0.00300778  0.20130136  1
  Pd  Pd153  1  0.60244463  0.79537717  0.41389393  1
  Pd  Pd154  1  0.20364706  0.60184778  0.40614629  1
  Pd  Pd155  1  -0.00932179  0.80949918  0.20257219  1
  Pd  Pd156  1  0.00673339  0.39830634  0.60332937  1
  Pd  Pd157  1  0.59527975  -0.01212691  0.59132023  1
  Pd  Pd158  1  0.20173779  -0.00566780  -0.01098810  1
  Pd  Pd159  1  0.59710559  0.59343616  0.19790680  1
  Pd  Pd160  1  0.79324185  0.40667969  0.78525473  1
  Pd  Pd161  1  0.39259197  0.19590654  0.39695457  1
  Pd  Pd162  1  0.40444801  0.00013378  0.60637952  1
  Pd  Pd163  1  0.79926730  0.20365250  0.19837100  1
  Pd  Pd164  1  0.40677074  0.61016382  -0.00951542  1
  Pd  Pd165  1  0.81025750  0.39506812  0.00305784  1
  Pd  Pd166  1  0.80554746  -0.00659247  0.20482857  1
  Pd  Pd167  1  0.19612121  0.20491682  -0.00122778  1
  Pd  Pd168  1  0.78562066  0.38871175  0.20701656  1
  Pd  Pd169  1  0.80167560  0.59906329  -0.01029546  1
  Pd  Pd170  1  0.80689135  0.00509901  0.60361579  1
  Pd  Pd171  1  0.20872679  0.59911181  0.79539996  1
  Pd  Pd172  1  0.39595211  -0.00825036  0.80340385  1
  Pd  Pd173  1  0.80749949  0.19262436  0.60091274  1
  Pd  Pd174  1  0.40065394  0.20115054  0.79725348  1
  Pd  Pd175  1  0.79962482  0.19183245  0.79180289  1
  Pd  Pd176  1  0.40286626  0.19959503  0.00278498  1
  Pd  Pd177  1  0.81101002  0.20313174  0.00021520  1
  Pd  Pd178  1  0.39021363  0.80695772  0.00991007  1
  Pd  Pd179  1  0.80195568  0.19326159  0.40432486  1
  Pd  Pd180  1  0.19638933  0.40138004  0.60244170  1
  Pd  Pd181  1  0.40227391  0.59952465  0.20514349  1
  Pd  Pd182  1  0.00947730  0.79604162  -0.00515199  1
  Pd  Pd183  1  0.00716548  0.59743619  0.19095426  1
  Pd  Pd184  1  0.81017543  0.80303199  0.78632346  1
  Pd  Pd185  1  0.39318911  0.39886511  0.00219512  1
  Pd  Pd186  1  0.19025455  0.61269494  0.00713707  1
  Pd  Pd187  1  0.79280477  0.40456285  0.39489606  1
  Pd  Pd188  1  0.40379920  0.80907194  0.79696493  1
  Pd  Pd189  1  -0.00322111  0.60495649  0.80935034  1
  Pd  Pd190  1  0.79937460  0.00624592  0.40108765  1
  Pd  Pd191  1  0.80922799  0.80206881  0.60441066  1
  Pd  Pd192  1  0.59127364  0.19224346  0.19338698  1
  Pd  Pd193  1  0.59568330  0.60640242  0.59656173  1
  Pd  Pd194  1  0.59534358  0.20597936  0.60378796  1
  Pd  Pd195  1  0.20608290  0.59548357  0.59956944  1
  Pd  Pd196  1  0.60897462  0.79444291  0.00818856  1
  Pd  Pd197  1  0.19948002  0.40343737  0.79278185  1
  Pd  Pd198  1  0.60912636  0.39156229  0.39343611  1
  Pd  Pd199  1  0.18679294  0.80870940  0.60349063  1
  Rh  Rh200  1  0.20046839  0.20126299  0.59284598  1
  Rh  Rh201  1  0.20666446  0.80339052  0.19911594  1
  Rh  Rh202  1  0.40760792  0.79728164  0.60400112  1
  Rh  Rh203  1  0.40149782  0.40486223  0.40378491  1
  Rh  Rh204  1  0.80324149  0.78780981  0.39340512  1
  Rh  Rh205  1  0.19592829  0.00033370  0.59110558  1
  Rh  Rh206  1  -0.01003806  0.40229694  0.00116949  1
  Rh  Rh207  1  -0.01334052  -0.01170809  0.81365183  1
  Rh  Rh208  1  0.00446095  0.60328936  0.59386317  1
  Rh  Rh209  1  0.60578359  0.60701548  0.41052571  1
  Rh  Rh210  1  0.20659194  0.40032852  0.00398677  1
  Rh  Rh211  1  0.00275801  0.20312713  0.40501825  1
  Rh  Rh212  1  0.38922147  -0.01160636  -0.01040166  1
  Rh  Rh213  1  0.40360149  0.39715467  0.59294162  1
  Rh  Rh214  1  0.20577652  0.20286950  0.80184518  1
  Rh  Rh215  1  0.59131630  0.19102933  0.00360182  1
  Rh  Rh216  1  0.19070309  0.80334650  0.79242751  1
  Rh  Rh217  1  0.79104179  0.79474086  0.01125837  1
  Rh  Rh218  1  0.40165859  0.40182067  0.80046647  1
  Rh  Rh219  1  0.00479575  0.20340758  0.80430632  1
  Rh  Rh220  1  0.19964193  0.80556952  0.39894022  1
  Rh  Rh221  1  0.60863450  0.00552938  0.00600457  1
  Rh  Rh222  1  0.19122431  0.39746087  0.39610083  1
  Rh  Rh223  1  0.00700906  -0.00192704  0.39204229  1
  Rh  Rh224  1  0.00295501  -0.00819050  0.59618881  1
  Rh  Rh225  1  0.21032589  -0.00267226  0.80507869  1
  Rh  Rh226  1  0.18893010  0.00440938  0.21311440  1
  Rh  Rh227  1  0.59911312  0.20622425  0.79478620  1
  Rh  Rh228  1  0.59636729  0.40566982  -0.00434692  1
  Rh  Rh229  1  0.80529400  0.59226613  0.59775059  1
  Rh  Rh230  1  0.00713065  0.39987477  0.79285316  1
  Rh  Rh231  1  0.38869494  0.79242666  0.39065784  1
  Rh  Rh232  1  0.00161018  0.40457502  0.40236508  1
  Rh  Rh233  1  0.59635098  0.39333737  0.60149193  1
  Rh  Rh234  1  0.00400722  0.79886466  0.40796322  1
  Rh  Rh235  1  0.40647105  0.20240261  0.60812423  1
  Rh  Rh236  1  0.19262712  0.59600379  0.19751591  1
  Rh  Rh237  1  0.59621154  0.80579314  0.79419014  1
  Rh  Rh238  1  0.40043799  0.00122199  0.40182569  1
  Rh  Rh239  1  0.20246421  0.79841639  0.00607455  1
  Rh  Rh240  1  0.60498551  -0.00525036  0.80212783  1
  Rh  Rh241  1  0.60155965  0.19411698  0.40486498  1
  Rh  Rh242  1  0.60013359  0.80718310  0.19304837  1
  Rh  Rh243  1  0.00145746  0.18862599  0.18852710  1
  Rh  Rh244  1  0.38902102  0.60358875  0.40508199  1
  Rh  Rh245  1  0.00459066  0.40928144  0.20237524  1
  Rh  Rh246  1  -0.00092204  0.20401092  0.59841140  1
  Rh  Rh247  1  -0.00332693  0.59703191  0.40336874  1
  Rh  Rh248  1  0.80073395  0.00388095  -0.01256293  1
  Rh  Rh249  1  0.79665278  0.61161262  0.21525716  1
