# generated using pymatgen
data_ZrScNbPdRh
_symmetry_space_group_name_H-M   'P 1'
_cell_length_a   16.56060013
_cell_length_b   16.56663970
_cell_length_c   16.55802354
_cell_angle_alpha   89.97276652
_cell_angle_beta   89.98071800
_cell_angle_gamma   90.03467712
_symmetry_Int_Tables_number   1
_chemical_formula_structural   ZrScNbPdRh
_chemical_formula_sum   'Zr50 Sc50 Nb50 Pd50 Rh50'
_cell_volume   4542.75003545
_cell_formula_units_Z   50
loop_
 _symmetry_equiv_pos_site_id
 _symmetry_equiv_pos_as_xyz
  1  'x, y, z'
loop_
 _atom_site_type_symbol
 _atom_site_label
 _atom_site_symmetry_multiplicity
 _atom_site_fract_x
 _atom_site_fract_y
 _atom_site_fract_z
 _atom_site_occupancy
  Zr  Zr0  1  0.49678034  0.09880302  0.89863708  1
  Zr  Zr1  1  0.09547935  0.50272962  0.29716070  1
  Zr  Zr2  1  0.90694691  0.30501869  0.49980775  1
  Zr  Zr3  1  0.49776977  0.70141974  0.09716436  1
  Zr  Zr4  1  0.30101554  0.29348827  0.09880147  1
  Zr  Zr5  1  0.30065834  0.50220065  0.29734660  1
  Zr  Zr6  1  0.70465604  0.50124366  0.28652354  1
  Zr  Zr7  1  0.69586153  0.09750865  0.29604486  1
  Zr  Zr8  1  0.30550036  0.91340418  0.29300643  1
  Zr  Zr9  1  0.51501548  0.69789861  0.48706818  1
  Zr  Zr10  1  0.90744079  0.89794462  0.70388410  1
  Zr  Zr11  1  0.10026124  0.70220589  0.70198919  1
  Zr  Zr12  1  0.30901459  0.90337578  0.90559580  1
  Zr  Zr13  1  0.30610554  0.50463397  0.69736402  1
  Zr  Zr14  1  0.29824283  0.30388304  0.70358900  1
  Zr  Zr15  1  0.70550991  0.29744167  0.50593476  1
  Zr  Zr16  1  0.90705823  0.50655358  0.69679162  1
  Zr  Zr17  1  0.10264021  0.09952239  0.90648786  1
  Zr  Zr18  1  0.50667407  0.29917915  0.70663075  1
  Zr  Zr19  1  0.68583424  0.90394882  0.29636073  1
  Zr  Zr20  1  0.09665901  0.69659175  0.30062110  1
  Zr  Zr21  1  0.10424988  0.70474791  0.49890456  1
  Zr  Zr22  1  0.70497157  0.09625136  0.10817639  1
  Zr  Zr23  1  0.89302499  0.10661082  0.70051817  1
  Zr  Zr24  1  0.49919226  0.69417971  0.70135950  1
  Zr  Zr25  1  0.10045071  0.69263148  0.90042472  1
  Zr  Zr26  1  0.90556982  0.30404228  0.30016655  1
  Zr  Zr27  1  0.49745789  0.30394956  0.09010502  1
  Zr  Zr28  1  0.89182772  0.10660697  0.29334690  1
  Zr  Zr29  1  0.70073437  0.69185749  0.09391987  1
  Zr  Zr30  1  0.29768307  0.10059368  0.49913350  1
  Zr  Zr31  1  0.09916090  0.89621497  0.88683898  1
  Zr  Zr32  1  0.90096979  0.90089565  0.50397064  1
  Zr  Zr33  1  0.50268210  0.50491686  0.09893124  1
  Zr  Zr34  1  0.30458019  0.09381403  0.70334406  1
  Zr  Zr35  1  0.49432812  0.90696097  0.69333461  1
  Zr  Zr36  1  0.89078342  0.09642964  0.09305299  1
  Zr  Zr37  1  0.69913559  0.49599600  0.09279973  1
  Zr  Zr38  1  0.10063422  0.69925601  0.10418162  1
  Zr  Zr39  1  0.90128912  0.50223906  0.30402345  1
  Zr  Zr40  1  0.11049729  0.50919754  0.10055979  1
  Zr  Zr41  1  0.09922702  0.30416066  0.29967282  1
  Zr  Zr42  1  0.49964025  0.50125562  0.30120140  1
  Zr  Zr43  1  0.69123238  0.09469666  0.49860174  1
  Zr  Zr44  1  0.09883432  0.49685317  0.70221455  1
  Zr  Zr45  1  0.30751619  0.30248189  0.90383316  1
  Zr  Zr46  1  0.09526433  0.89327994  0.30589143  1
  Zr  Zr47  1  0.30110546  0.70046246  0.69964605  1
  Zr  Zr48  1  0.70118023  0.70927098  0.89676667  1
  Zr  Zr49  1  0.30035621  0.10042523  0.90731034  1
  Sc  Sc50  1  0.70295193  0.29011919  0.29237702  1
  Sc  Sc51  1  0.89364607  0.30611896  0.69206881  1
  Sc  Sc52  1  0.90126659  0.90103847  0.30699780  1
  Sc  Sc53  1  0.89469938  0.30192465  0.10024677  1
  Sc  Sc54  1  0.70078810  0.10848992  0.91458843  1
  Sc  Sc55  1  0.69793174  0.30117191  0.09599571  1
  Sc  Sc56  1  0.89232506  0.68919752  0.50556232  1
  Sc  Sc57  1  0.30354307  0.10585815  0.30082104  1
  Sc  Sc58  1  0.29136081  0.09112886  0.10091397  1
  Sc  Sc59  1  0.50436796  0.69546426  0.29125603  1
  Sc  Sc60  1  0.89655787  0.10274079  0.90619677  1
  Sc  Sc61  1  0.30557044  0.89786337  0.50476943  1
  Sc  Sc62  1  0.70082899  0.51509966  0.50291080  1
  Sc  Sc63  1  0.90035816  0.10007086  0.49379970  1
  Sc  Sc64  1  0.49612403  0.50002879  0.50111147  1
  Sc  Sc65  1  0.70618365  0.88325629  0.70483070  1
  Sc  Sc66  1  0.49799791  0.09301539  0.30514623  1
  Sc  Sc67  1  0.89804968  0.30174756  0.90904529  1
  Sc  Sc68  1  0.10054134  0.10482723  0.29675887  1
  Sc  Sc69  1  0.09241982  0.49847423  0.89613286  1
  Sc  Sc70  1  0.30875723  0.70266503  0.89749643  1
  Sc  Sc71  1  0.29846513  0.89335647  0.70801136  1
  Sc  Sc72  1  0.88915942  0.50035413  0.10454224  1
  Sc  Sc73  1  0.10633765  0.08451882  0.69837983  1
  Sc  Sc74  1  0.29751870  0.69539914  0.30308260  1
  Sc  Sc75  1  0.10667332  0.29276790  0.49524018  1
  Sc  Sc76  1  0.10064162  0.29859666  0.09934204  1
  Sc  Sc77  1  0.90290490  0.50220660  0.90859219  1
  Sc  Sc78  1  0.89452787  0.89840690  0.90029947  1
  Sc  Sc79  1  0.49867450  0.50025133  0.70011992  1
  Sc  Sc80  1  0.10279989  0.91067581  0.09989813  1
  Sc  Sc81  1  0.30338557  0.68720864  0.09458195  1
  Sc  Sc82  1  0.89647261  0.69491128  0.10066610  1
  Sc  Sc83  1  0.89889184  0.70601129  0.69793118  1
  Sc  Sc84  1  0.50361701  0.70279116  0.90298382  1
  Sc  Sc85  1  0.50203664  0.90984815  0.49984333  1
  Sc  Sc86  1  0.90205664  0.69472005  0.29960534  1
  Sc  Sc87  1  0.69254186  0.11223486  0.69235301  1
  Sc  Sc88  1  0.49364958  0.30153377  0.49363536  1
  Sc  Sc89  1  0.30254788  0.28976057  0.49384927  1
  Sc  Sc90  1  0.10392013  0.10125245  0.09541628  1
  Sc  Sc91  1  0.09233087  0.50608900  0.50323040  1
  Sc  Sc92  1  0.69905244  0.30009171  0.70048186  1
  Sc  Sc93  1  0.69078521  0.69389075  0.30625579  1
  Sc  Sc94  1  0.49241908  0.29142757  0.30227944  1
  Sc  Sc95  1  0.50944600  0.10444540  0.09528237  1
  Sc  Sc96  1  0.68667621  0.50101297  0.69709741  1
  Sc  Sc97  1  0.29614634  0.69537370  0.50385795  1
  Sc  Sc98  1  0.50177264  0.29800010  0.90214879  1
  Sc  Sc99  1  0.90261088  0.50304023  0.50366550  1
  Nb  Nb100  1  0.69839493  0.89838380  0.50165215  1
  Nb  Nb101  1  0.49627772  0.09370365  0.51248756  1
  Nb  Nb102  1  0.10979235  0.10041293  0.50579379  1
  Nb  Nb103  1  0.29905701  0.49400889  0.49959659  1
  Nb  Nb104  1  0.09445240  0.89220258  0.69977011  1
  Nb  Nb105  1  0.30182545  0.49837937  0.09605451  1
  Nb  Nb106  1  0.69886897  0.31076847  0.90014719  1
  Nb  Nb107  1  0.70428049  0.90624340  0.09906090  1
  Nb  Nb108  1  0.10151294  0.30439738  0.70116424  1
  Nb  Nb109  1  0.70232675  0.69751475  0.69544359  1
  Nb  Nb110  1  0.69747925  0.50228569  0.90224974  1
  Nb  Nb111  1  0.49685959  0.89648551  0.10539048  1
  Nb  Nb112  1  0.50440983  0.49765058  0.90041477  1
  Nb  Nb113  1  0.90081419  0.69781025  0.89868687  1
  Nb  Nb114  1  0.30170897  0.49974825  0.89813884  1
  Nb  Nb115  1  0.10610674  0.30483174  0.89421994  1
  Nb  Nb116  1  0.30272521  0.30040259  0.30460588  1
  Nb  Nb117  1  0.70268811  0.70255433  0.50350904  1
  Nb  Nb118  1  0.69750709  0.89822835  0.89926111  1
  Nb  Nb119  1  0.50245527  0.09497018  0.69834400  1
  Nb  Nb120  1  0.30011630  0.89651199  0.10215487  1
  Nb  Nb121  1  0.09582717  0.90645312  0.50339797  1
  Nb  Nb122  1  0.50373815  0.90173555  0.90814913  1
  Nb  Nb123  1  0.49531485  0.89458580  0.29323420  1
  Nb  Nb124  1  0.89307845  0.90400388  0.10202905  1
  Nb  Nb125  1  0.00777140  0.20515177  0.79707098  1
  Nb  Nb126  1  0.79524149  0.80537850  0.20083590  1
  Nb  Nb127  1  0.20325754  0.40034862  0.59583039  1
  Nb  Nb128  1  0.19271795  -0.00171746  0.40666959  1
  Nb  Nb129  1  0.20496381  0.40408641  -0.00401047  1
  Nb  Nb130  1  0.39451122  0.39935580  0.19765380  1
  Nb  Nb131  1  0.20357734  0.80317673  0.19606932  1
  Nb  Nb132  1  0.00071026  0.80019328  0.00177681  1
  Nb  Nb133  1  0.79656885  0.60092557  0.80182533  1
  Nb  Nb134  1  0.60821870  0.39972395  0.39738752  1
  Nb  Nb135  1  0.19533362  0.20333996  0.80087688  1
  Nb  Nb136  1  0.00997299  0.19809595  0.60489695  1
  Nb  Nb137  1  0.78998567  0.79992900  0.40250512  1
  Nb  Nb138  1  0.60322513  -0.00361920  0.80399904  1
  Nb  Nb139  1  0.60511278  0.79637839  0.59717707  1
  Nb  Nb140  1  -0.00717851  0.00118483  0.19742052  1
  Nb  Nb141  1  0.79425517  0.40920026  0.80447673  1
  Nb  Nb142  1  0.20462201  0.59644335  0.79913959  1
  Nb  Nb143  1  0.40493806  0.19298840  0.60649028  1
  Nb  Nb144  1  0.20462385  0.40184813  0.39956644  1
  Nb  Nb145  1  0.40716200  0.80479707  0.39221645  1
  Nb  Nb146  1  0.79593030  0.40177371  0.39927889  1
  Nb  Nb147  1  0.79594638  -0.00324676  0.60361139  1
  Nb  Nb148  1  0.78971379  0.00078264  0.79927807  1
  Nb  Nb149  1  0.19952233  0.80172069  0.00290324  1
  Pd  Pd150  1  -0.00281927  0.40559117  0.18842266  1
  Pd  Pd151  1  0.60335740  -0.00229686  0.00150975  1
  Pd  Pd152  1  -0.00164935  -0.00773793  0.00158654  1
  Pd  Pd153  1  0.39812498  0.38989511  0.59729479  1
  Pd  Pd154  1  0.60039776  0.80578175  0.00840757  1
  Pd  Pd155  1  0.40472455  0.59811242  -0.00837572  1
  Pd  Pd156  1  0.59422141  0.20277818  0.19942413  1
  Pd  Pd157  1  0.20569527  -0.01363497  0.60110960  1
  Pd  Pd158  1  0.40223121  0.19698716  0.19539621  1
  Pd  Pd159  1  -0.00536175  0.00854686  0.60211975  1
  Pd  Pd160  1  0.41179709  0.79218209  0.58601836  1
  Pd  Pd161  1  0.00753018  0.40094245  0.00687365  1
  Pd  Pd162  1  0.20664324  0.39674987  0.19886980  1
  Pd  Pd163  1  0.79636587  -0.00547409  0.40014632  1
  Pd  Pd164  1  0.00160803  0.20593696  -0.00189294  1
  Pd  Pd165  1  0.80577637  0.80184833  0.00474458  1
  Pd  Pd166  1  0.80154628  0.20701476  0.80630667  1
  Pd  Pd167  1  0.60744711  0.79621164  0.19133638  1
  Pd  Pd168  1  0.59779179  0.40067934  0.59127454  1
  Pd  Pd169  1  -0.00879601  0.00953666  0.80321496  1
  Pd  Pd170  1  0.59071945  0.20749097  0.59266051  1
  Pd  Pd171  1  0.20109372  0.19866952  0.20238547  1
  Pd  Pd172  1  0.79844623  0.20479459  0.40208928  1
  Pd  Pd173  1  0.19668838  0.59189599  0.40357833  1
  Pd  Pd174  1  0.79308094  0.41239024  0.60108552  1
  Pd  Pd175  1  0.60574371  0.19368443  0.80826603  1
  Pd  Pd176  1  0.39878088  0.60737599  0.40379755  1
  Pd  Pd177  1  0.59007668  0.80535519  0.79241282  1
  Pd  Pd178  1  0.19896258  0.80721422  0.60043440  1
  Pd  Pd179  1  0.21275749  0.80992055  0.39568390  1
  Pd  Pd180  1  -0.00465248  0.60074060  0.00745590  1
  Pd  Pd181  1  0.59154273  -0.00164902  0.39874361  1
  Pd  Pd182  1  -0.01278399  0.79044510  0.41044701  1
  Pd  Pd183  1  -0.00244629  0.19352060  0.18852094  1
  Pd  Pd184  1  0.40802684  0.01120205  0.19086678  1
  Pd  Pd185  1  -0.00412568  0.80747189  0.19194208  1
  Pd  Pd186  1  0.39072943  0.78816131  0.20210098  1
  Pd  Pd187  1  0.20218048  -0.00046773  0.80227554  1
  Pd  Pd188  1  0.00595719  0.01086543  0.39445319  1
  Pd  Pd189  1  0.40512346  0.60484547  0.58997901  1
  Pd  Pd190  1  -0.01568569  0.39306183  0.80249661  1
  Pd  Pd191  1  0.40905560  0.40441098  0.80200489  1
  Pd  Pd192  1  -0.00206711  0.79333850  0.59312733  1
  Pd  Pd193  1  0.60240598  0.59989497  0.80419627  1
  Pd  Pd194  1  0.59406828  0.20204715  0.40401452  1
  Pd  Pd195  1  0.40951767  0.80311723  0.80431510  1
  Pd  Pd196  1  0.39820691  0.19944501  0.79687843  1
  Pd  Pd197  1  0.00657441  0.19292536  0.40541709  1
  Pd  Pd198  1  0.40435014  0.00207932  0.01269580  1
  Pd  Pd199  1  0.59060061  0.38996411  0.20697565  1
  Rh  Rh200  1  0.80441354  -0.00830934  0.21112646  1
  Rh  Rh201  1  0.40054572  0.59677581  0.80636966  1
  Rh  Rh202  1  0.79856318  0.59980044  0.39744259  1
  Rh  Rh203  1  0.59759736  0.60177504  -0.00579019  1
  Rh  Rh204  1  -0.00455804  0.79457637  0.80553863  1
  Rh  Rh205  1  0.79746737  0.40137221  -0.00464842  1
  Rh  Rh206  1  0.60129814  0.60291938  0.19468011  1
  Rh  Rh207  1  0.61328815  -0.01089786  0.61401456  1
  Rh  Rh208  1  0.60291267  0.20716280  -0.00317926  1
  Rh  Rh209  1  0.79746319  0.80441737  0.59411575  1
  Rh  Rh210  1  0.59780441  0.80945530  0.40341425  1
  Rh  Rh211  1  0.39793303  -0.00315554  0.40252801  1
  Rh  Rh212  1  0.80750091  0.19192052  0.58924735  1
  Rh  Rh213  1  0.79870877  0.61082682  0.20257485  1
  Rh  Rh214  1  0.20427796  0.40552844  0.80100211  1
  Rh  Rh215  1  0.19894339  0.20953137  -0.00497279  1
  Rh  Rh216  1  0.80250683  0.39375378  0.20573114  1
  Rh  Rh217  1  0.59797996  0.40089630  -0.00543392  1
  Rh  Rh218  1  0.39959339  0.18862168  0.00549502  1
  Rh  Rh219  1  0.20233923  0.79276639  0.80529683  1
  Rh  Rh220  1  0.00300911  0.40360223  0.40420028  1
  Rh  Rh221  1  0.80609241  0.79717003  0.80223043  1
  Rh  Rh222  1  0.19783005  0.19934966  0.39034612  1
  Rh  Rh223  1  0.80045854  0.20539177  0.19337352  1
  Rh  Rh224  1  0.79332878  -0.00498861  -0.01084689  1
  Rh  Rh225  1  0.20540303  0.59665431  -0.01106550  1
  Rh  Rh226  1  0.79892014  0.59919328  -0.00889158  1
  Rh  Rh227  1  -0.00048619  0.60491913  0.40522671  1
  Rh  Rh228  1  0.01273605  0.39067072  0.59136195  1
  Rh  Rh229  1  -0.00523910  0.59372552  0.19571210  1
  Rh  Rh230  1  0.39091185  0.00238798  0.60048946  1
  Rh  Rh231  1  0.00423764  0.60958580  0.60038144  1
  Rh  Rh232  1  0.79866167  0.59624213  0.61127210  1
  Rh  Rh233  1  0.40837150  -0.00582690  0.80401257  1
  Rh  Rh234  1  0.20009767  -0.01073133  -0.00481512  1
  Rh  Rh235  1  0.39898180  0.59640670  0.19820516  1
  Rh  Rh236  1  0.39978274  0.40160000  0.39232456  1
  Rh  Rh237  1  0.39792826  0.80164867  0.00332311  1
  Rh  Rh238  1  0.60401112  0.58715426  0.39767584  1
  Rh  Rh239  1  -0.00277992  0.60480618  0.79712236  1
  Rh  Rh240  1  0.79508427  0.20741720  0.00288441  1
  Rh  Rh241  1  0.59058316  -0.00115578  0.19284296  1
  Rh  Rh242  1  0.18827723  -0.00480813  0.21089164  1
  Rh  Rh243  1  0.59543880  0.60564081  0.60037487  1
  Rh  Rh244  1  0.39936016  0.40809998  0.00140486  1
  Rh  Rh245  1  0.20565173  0.60852487  0.20114801  1
  Rh  Rh246  1  0.19830667  0.59267890  0.60573248  1
  Rh  Rh247  1  0.40557695  0.18989708  0.40873243  1
  Rh  Rh248  1  0.20087293  0.20705418  0.61171213  1
  Rh  Rh249  1  0.60109287  0.40182389  0.80235450  1
