# generated using pymatgen
data_ZrScNbPdRh
_symmetry_space_group_name_H-M   'P 1'
_cell_length_a   16.55222324
_cell_length_b   16.55259062
_cell_length_c   16.55933879
_cell_angle_alpha   90.00953157
_cell_angle_beta   89.95815362
_cell_angle_gamma   90.01887133
_symmetry_Int_Tables_number   1
_chemical_formula_structural   ZrScNbPdRh
_chemical_formula_sum   'Zr50 Sc50 Nb50 Pd50 Rh50'
_cell_volume   4536.96214062
_cell_formula_units_Z   50
loop_
 _symmetry_equiv_pos_site_id
 _symmetry_equiv_pos_as_xyz
  1  'x, y, z'
loop_
 _atom_site_type_symbol
 _atom_site_label
 _atom_site_symmetry_multiplicity
 _atom_site_fract_x
 _atom_site_fract_y
 _atom_site_fract_z
 _atom_site_occupancy
  Zr  Zr0  1  0.30451544  0.70480762  0.50004988  1
  Zr  Zr1  1  0.90118623  0.89267253  0.89680608  1
  Zr  Zr2  1  0.70178294  0.11398047  0.88876293  1
  Zr  Zr3  1  0.69602250  0.69409330  0.29851661  1
  Zr  Zr4  1  0.09974034  0.09746033  0.50123949  1
  Zr  Zr5  1  0.49070996  0.10025457  0.09971325  1
  Zr  Zr6  1  0.89570003  0.89366599  0.68731334  1
  Zr  Zr7  1  0.09583939  0.30108442  0.90145272  1
  Zr  Zr8  1  0.49921800  0.50233919  0.90593634  1
  Zr  Zr9  1  0.29596021  0.29912175  0.70031512  1
  Zr  Zr10  1  0.70776257  0.29306526  0.71867073  1
  Zr  Zr11  1  0.10435156  0.90008567  0.90365137  1
  Zr  Zr12  1  0.90696218  0.70449595  0.30811672  1
  Zr  Zr13  1  0.49873125  0.69521101  0.69413864  1
  Zr  Zr14  1  0.50430007  0.30516755  0.29381684  1
  Zr  Zr15  1  0.49938786  0.90536937  0.69854869  1
  Zr  Zr16  1  0.71018914  0.09801862  0.11108934  1
  Zr  Zr17  1  0.70265743  0.90083762  0.50995833  1
  Zr  Zr18  1  0.90467275  0.69980734  0.50319345  1
  Zr  Zr19  1  0.30489884  0.90142469  0.08547360  1
  Zr  Zr20  1  0.09854071  0.28909553  0.49861722  1
  Zr  Zr21  1  0.29621119  0.29772568  0.50318294  1
  Zr  Zr22  1  0.69699651  0.10495717  0.50339345  1
  Zr  Zr23  1  0.70323580  0.69576836  0.71109476  1
  Zr  Zr24  1  0.29959847  0.29980720  0.89860647  1
  Zr  Zr25  1  0.09578268  0.10119136  0.69773317  1
  Zr  Zr26  1  0.49119534  0.30636961  0.69876127  1
  Zr  Zr27  1  0.90306936  0.50008356  0.30118279  1
  Zr  Zr28  1  0.69097173  0.49178446  0.29946654  1
  Zr  Zr29  1  0.28950444  0.50301046  0.49207888  1
  Zr  Zr30  1  0.70404743  0.49975593  0.49680654  1
  Zr  Zr31  1  0.50111516  0.89350937  0.50501389  1
  Zr  Zr32  1  0.89997296  0.29545768  0.29714101  1
  Zr  Zr33  1  0.29411287  0.09812464  0.70195465  1
  Zr  Zr34  1  0.29723250  0.69613536  0.90751392  1
  Zr  Zr35  1  0.89948478  0.89705663  0.49857283  1
  Zr  Zr36  1  0.49962729  0.11142320  0.29526946  1
  Zr  Zr37  1  0.49379560  0.29751799  0.89701260  1
  Zr  Zr38  1  0.90038005  0.69883546  0.70213181  1
  Zr  Zr39  1  0.29756048  0.89813454  0.31068552  1
  Zr  Zr40  1  0.10469376  0.90125693  0.49693924  1
  Zr  Zr41  1  0.90587279  0.69749207  0.89931764  1
  Zr  Zr42  1  0.51607252  0.70953275  0.09762847  1
  Zr  Zr43  1  0.69508795  0.88603383  0.09635251  1
  Zr  Zr44  1  0.90642999  0.10459773  0.89706998  1
  Zr  Zr45  1  0.10011851  0.29245851  0.29714650  1
  Zr  Zr46  1  0.70012599  0.50408128  0.10449022  1
  Zr  Zr47  1  0.49272270  0.10208067  0.89341156  1
  Zr  Zr48  1  0.49698917  0.29441088  0.50407097  1
  Zr  Zr49  1  0.10147544  0.09796318  0.89509531  1
  Sc  Sc50  1  0.49269946  0.29907827  0.10364758  1
  Sc  Sc51  1  0.30147348  0.10499652  0.09969015  1
  Sc  Sc52  1  0.10095062  0.10296888  0.30219138  1
  Sc  Sc53  1  0.69503428  0.70721124  0.49297653  1
  Sc  Sc54  1  0.89851361  0.90647986  0.10753934  1
  Sc  Sc55  1  0.89522564  0.10034808  0.28524448  1
  Sc  Sc56  1  0.10066319  0.89855735  0.69461326  1
  Sc  Sc57  1  0.29305689  0.30095947  0.09889491  1
  Sc  Sc58  1  0.70148180  0.70605143  0.90947023  1
  Sc  Sc59  1  0.10014683  0.90306200  0.09426988  1
  Sc  Sc60  1  0.09735792  0.70440284  0.08572279  1
  Sc  Sc61  1  0.90507938  0.70092147  0.09899062  1
  Sc  Sc62  1  0.09729161  0.50548107  0.49907396  1
  Sc  Sc63  1  0.29451719  0.89773548  0.50349804  1
  Sc  Sc64  1  0.70258809  0.89342129  0.30704692  1
  Sc  Sc65  1  0.11023532  0.49657318  0.31251535  1
  Sc  Sc66  1  0.70340295  0.30157482  0.49400261  1
  Sc  Sc67  1  0.10318966  0.29812277  0.70200492  1
  Sc  Sc68  1  0.09657230  0.48866017  0.08752594  1
  Sc  Sc69  1  0.70741956  0.50711028  0.89426965  1
  Sc  Sc70  1  0.29017991  0.30183928  0.29714313  1
  Sc  Sc71  1  0.10244793  0.70101846  0.49493524  1
  Sc  Sc72  1  0.09409013  0.69923323  0.69891739  1
  Sc  Sc73  1  0.09990321  0.50382160  0.90024413  1
  Sc  Sc74  1  0.51165524  0.50118218  0.50998779  1
  Sc  Sc75  1  0.30753190  0.69746600  0.09118997  1
  Sc  Sc76  1  0.49627934  0.50194396  0.10642753  1
  Sc  Sc77  1  0.29990058  0.09551357  0.89990639  1
  Sc  Sc78  1  0.30348089  0.50201748  0.29651117  1
  Sc  Sc79  1  0.09643005  0.49752211  0.70392381  1
  Sc  Sc80  1  0.90291010  0.49326261  0.89906193  1
  Sc  Sc81  1  0.09647013  0.10179170  0.09579785  1
  Sc  Sc82  1  0.50194406  0.69633081  0.30942623  1
  Sc  Sc83  1  0.09653411  0.89827078  0.30852119  1
  Sc  Sc84  1  0.29446353  0.49518802  0.69610543  1
  Sc  Sc85  1  0.70170759  0.50669973  0.69772495  1
  Sc  Sc86  1  0.49080387  0.90668685  0.90649696  1
  Sc  Sc87  1  0.49913800  0.10134476  0.69866332  1
  Sc  Sc88  1  0.09983280  0.29867735  0.09980496  1
  Sc  Sc89  1  0.71035236  0.30404217  0.10252911  1
  Sc  Sc90  1  0.30723728  0.69506699  0.31092470  1
  Sc  Sc91  1  0.90504757  0.49326250  0.09640992  1
  Sc  Sc92  1  0.29547535  0.69690631  0.69054082  1
  Sc  Sc93  1  0.29804366  0.10850667  0.29593688  1
  Sc  Sc94  1  0.50159300  0.89355793  0.30253747  1
  Sc  Sc95  1  0.69317337  0.09592509  0.69690541  1
  Sc  Sc96  1  0.50752147  0.69552927  0.90598996  1
  Sc  Sc97  1  0.29904915  0.90029734  0.69250769  1
  Sc  Sc98  1  0.90256098  0.90059163  0.30059666  1
  Sc  Sc99  1  0.90484618  0.30159296  0.09626046  1
  Nb  Nb100  1  0.70338476  0.30509936  0.90116415  1
  Nb  Nb101  1  0.30339345  0.50310880  0.91213400  1
  Nb  Nb102  1  0.70074749  0.69871092  0.10109737  1
  Nb  Nb103  1  0.87864895  0.30306964  0.89166871  1
  Nb  Nb104  1  0.70295928  0.90349798  0.90094318  1
  Nb  Nb105  1  0.30089234  0.89470423  0.90097624  1
  Nb  Nb106  1  0.90428529  0.09523542  0.69403187  1
  Nb  Nb107  1  0.90136876  0.30060815  0.50590041  1
  Nb  Nb108  1  0.89437412  0.49763373  0.69171742  1
  Nb  Nb109  1  0.29639525  0.10010373  0.49758947  1
  Nb  Nb110  1  0.89857388  0.49567369  0.50485438  1
  Nb  Nb111  1  0.69940220  0.90247865  0.70011909  1
  Nb  Nb112  1  0.90371967  0.09842974  0.51177748  1
  Nb  Nb113  1  0.49601680  0.70378161  0.49885903  1
  Nb  Nb114  1  0.70233354  0.29068873  0.29703662  1
  Nb  Nb115  1  0.29707060  0.50488346  0.09096230  1
  Nb  Nb116  1  0.90124546  0.30714447  0.69932203  1
  Nb  Nb117  1  0.49887408  0.10259422  0.49806868  1
  Nb  Nb118  1  0.50033617  0.90379823  0.10244192  1
  Nb  Nb119  1  0.50659731  0.50401841  0.70666172  1
  Nb  Nb120  1  0.89775991  0.09710160  0.10044139  1
  Nb  Nb121  1  0.50056026  0.49360160  0.30328713  1
  Nb  Nb122  1  0.70204401  0.10360199  0.30025542  1
  Nb  Nb123  1  0.10094540  0.69858209  0.29942087  1
  Nb  Nb124  1  0.09422632  0.70371481  0.89507074  1
  Nb  Nb125  1  0.80376180  0.59480056  0.40147881  1
  Nb  Nb126  1  0.39920564  0.80255594  0.19620013  1
  Nb  Nb127  1  0.01149815  0.60102165  0.20302525  1
  Nb  Nb128  1  0.79639158  0.00963835  0.40349845  1
  Nb  Nb129  1  0.79710104  0.00180605  -0.00544777  1
  Nb  Nb130  1  0.39810582  0.79549277  0.80179392  1
  Nb  Nb131  1  0.81057422  0.20171761  0.60230281  1
  Nb  Nb132  1  0.80078807  -0.00234173  0.79747679  1
  Nb  Nb133  1  0.20410376  0.79681900  0.19910294  1
  Nb  Nb134  1  0.80152603  0.60370022  0.00522740  1
  Nb  Nb135  1  0.20223718  0.79638255  0.80680852  1
  Nb  Nb136  1  0.40398765  0.40054741  0.40060093  1
  Nb  Nb137  1  0.59759943  0.40220615  0.80282758  1
  Nb  Nb138  1  0.60067818  -0.00058538  0.20171288  1
  Nb  Nb139  1  0.60365663  0.20155072  -0.00193129  1
  Nb  Nb140  1  0.40485301  0.00820537  0.40485101  1
  Nb  Nb141  1  0.59912203  0.80796196  0.80037103  1
  Nb  Nb142  1  -0.00649425  0.39447142  0.40739498  1
  Nb  Nb143  1  0.60390588  0.39575115  -0.00419193  1
  Nb  Nb144  1  0.20423133  -0.00754269  0.19984047  1
  Nb  Nb145  1  0.19697053  0.60404362  0.19536487  1
  Nb  Nb146  1  0.79614658  0.79200345  0.19915735  1
  Nb  Nb147  1  0.59955680  0.00813487  0.39881091  1
  Nb  Nb148  1  0.60436709  0.00572125  0.00315493  1
  Nb  Nb149  1  0.39757698  0.59830481  0.80164862  1
  Pd  Pd150  1  0.80100501  0.19778601  0.00543415  1
  Pd  Pd151  1  0.19989300  0.19651373  -0.00143136  1
  Pd  Pd152  1  0.81391852  0.60459720  0.20049536  1
  Pd  Pd153  1  -0.00507543  0.80642732  0.00620170  1
  Pd  Pd154  1  0.40146857  0.39814120  0.00899525  1
  Pd  Pd155  1  0.20084241  0.40564971  0.80779362  1
  Pd  Pd156  1  0.20461956  0.60243092  0.79868605  1
  Pd  Pd157  1  0.60102316  0.20375901  0.39948118  1
  Pd  Pd158  1  0.60694152  0.60825639  0.59469352  1
  Pd  Pd159  1  -0.00457073  -0.01083315  0.79266281  1
  Pd  Pd160  1  0.18918669  0.60026325  0.00393492  1
  Pd  Pd161  1  0.80130035  0.39743770  0.20110172  1
  Pd  Pd162  1  -0.01008079  0.19512560  0.39737709  1
  Pd  Pd163  1  -0.00428405  0.20959963  0.79579113  1
  Pd  Pd164  1  0.59577204  0.39281611  0.40381463  1
  Pd  Pd165  1  0.00375194  0.79807131  0.19555653  1
  Pd  Pd166  1  0.79074627  0.39220530  0.60579631  1
  Pd  Pd167  1  -0.00543548  0.20588872  -0.00041163  1
  Pd  Pd168  1  0.39307532  0.20558266  0.39450040  1
  Pd  Pd169  1  0.60295632  0.20296374  0.18934200  1
  Pd  Pd170  1  -0.00592353  -0.00154391  0.00191240  1
  Pd  Pd171  1  0.20291732  -0.01009384  0.79805488  1
  Pd  Pd172  1  -0.00335525  0.39918196  0.80096183  1
  Pd  Pd173  1  0.18936522  0.40116533  0.59641603  1
  Pd  Pd174  1  0.01088747  0.40671882  0.20840963  1
  Pd  Pd175  1  0.39864511  -0.00706380  0.21030792  1
  Pd  Pd176  1  0.00388155  0.59881803  0.60134163  1
  Pd  Pd177  1  0.58853782  0.59819343  0.20320954  1
  Pd  Pd178  1  0.60558592  0.20756082  0.60769655  1
  Pd  Pd179  1  0.39794162  0.41229100  0.59270523  1
  Pd  Pd180  1  0.41026368  0.58800754  0.40831974  1
  Pd  Pd181  1  -0.00445372  0.59152921  0.79678392  1
  Pd  Pd182  1  0.39768104  0.00349889  0.59392793  1
  Pd  Pd183  1  0.00900636  0.39871257  0.59703124  1
  Pd  Pd184  1  0.19830076  0.41080171  0.19581313  1
  Pd  Pd185  1  0.60572344  0.79254054  0.60779504  1
  Pd  Pd186  1  0.79465693  0.80248226  0.80024201  1
  Pd  Pd187  1  0.80414554  0.39988760  0.39555936  1
  Pd  Pd188  1  0.61073470  0.39264687  0.61094134  1
  Pd  Pd189  1  0.01175316  0.00275858  0.20310852  1
  Pd  Pd190  1  0.81002519  0.19367319  0.40565102  1
  Pd  Pd191  1  -0.01130825  0.00845346  0.39554736  1
  Pd  Pd192  1  0.39736683  0.41179615  0.79929736  1
  Pd  Pd193  1  0.19123738  0.60152521  0.60090228  1
  Pd  Pd194  1  0.40028813  0.60804459  0.19636277  1
  Pd  Pd195  1  0.60176346  -0.00357273  0.80586236  1
  Pd  Pd196  1  0.39837022  0.59052198  0.60111432  1
  Pd  Pd197  1  0.38999548  0.40003752  0.20174662  1
  Pd  Pd198  1  0.39530704  0.19220673  0.60432756  1
  Pd  Pd199  1  0.79426951  0.60779802  0.59264970  1
  Rh  Rh200  1  0.81114982  0.59718445  0.80561019  1
  Rh  Rh201  1  0.20257525  0.19753503  0.39978808  1
  Rh  Rh202  1  0.58988498  0.20850987  0.79902318  1
  Rh  Rh203  1  0.80590865  0.20790933  0.19558940  1
  Rh  Rh204  1  0.20135592  0.39903473  -0.00530136  1
  Rh  Rh205  1  0.40427530  0.80599289  0.40059707  1
  Rh  Rh206  1  0.39891443  0.20146814  -0.00073580  1
  Rh  Rh207  1  0.79813424  0.00750603  0.60204446  1
  Rh  Rh208  1  0.79180306  -0.01370355  0.20514605  1
  Rh  Rh209  1  0.39761023  0.79975211  0.60323057  1
  Rh  Rh210  1  0.00526306  0.79995445  0.59565379  1
  Rh  Rh211  1  -0.00470754  0.59747207  0.00257126  1
  Rh  Rh212  1  0.40001642  0.00633427  -0.00445290  1
  Rh  Rh213  1  0.20005703  0.19474948  0.60135089  1
  Rh  Rh214  1  0.20852623  0.00835429  0.39412791  1
  Rh  Rh215  1  0.80210294  0.79869613  0.39604910  1
  Rh  Rh216  1  0.59990128  0.80186864  0.20849414  1
  Rh  Rh217  1  0.19764560  0.00311997  0.59824227  1
  Rh  Rh218  1  0.00642151  -0.00814594  0.59859019  1
  Rh  Rh219  1  0.19751218  0.79643865  0.60486488  1
  Rh  Rh220  1  0.59327549  0.81118859  -0.01325126  1
  Rh  Rh221  1  0.79429563  0.79031469  0.60185512  1
  Rh  Rh222  1  0.39178721  -0.00730756  0.79902775  1
  Rh  Rh223  1  0.40992686  0.79536935  -0.00013169  1
  Rh  Rh224  1  0.19850755  0.39271998  0.40480951  1
  Rh  Rh225  1  0.60996451  0.59035296  0.00057248  1
  Rh  Rh226  1  -0.00408942  0.20541687  0.60861532  1
  Rh  Rh227  1  0.81508812  0.18944734  0.78792508  1
  Rh  Rh228  1  0.39286784  0.19636417  0.79301606  1
  Rh  Rh229  1  0.60317603  0.39517815  0.19371962  1
  Rh  Rh230  1  0.20102860  0.60627783  0.39473802  1
  Rh  Rh231  1  0.40756479  0.60322523  0.00279059  1
  Rh  Rh232  1  -0.00154872  0.19435943  0.19237011  1
  Rh  Rh233  1  0.80808516  0.79752389  0.00772629  1
  Rh  Rh234  1  0.19728215  0.79735139  -0.00178282  1
  Rh  Rh235  1  0.79677747  0.41270173  0.79320396  1
  Rh  Rh236  1  0.59597238  0.80292151  0.40171902  1
  Rh  Rh237  1  0.20283275  0.00643790  0.00363269  1
  Rh  Rh238  1  0.59523434  0.00252316  0.59543192  1
  Rh  Rh239  1  0.19941134  0.79319806  0.39733460  1
  Rh  Rh240  1  0.00983519  0.80373823  0.79505788  1
  Rh  Rh241  1  0.19516435  0.19129684  0.19476739  1
  Rh  Rh242  1  -0.00295976  0.59228653  0.39868187  1
  Rh  Rh243  1  0.39165124  0.21135438  0.20053885  1
  Rh  Rh244  1  0.59970840  0.59779646  0.40406729  1
  Rh  Rh245  1  0.59618630  0.60261133  0.80491025  1
  Rh  Rh246  1  0.79704162  0.41015914  0.00091461  1
  Rh  Rh247  1  0.00534478  0.80195532  0.40434498  1
  Rh  Rh248  1  0.19888823  0.19998798  0.80357490  1
  Rh  Rh249  1  -0.00503819  0.39030452  -0.01098221  1
