# generated using pymatgen
data_ZrScNbPdRh
_symmetry_space_group_name_H-M   'P 1'
_cell_length_a   16.55183682
_cell_length_b   16.55156952
_cell_length_c   16.55623244
_cell_angle_alpha   89.98397036
_cell_angle_beta   89.98280837
_cell_angle_gamma   90.01763581
_symmetry_Int_Tables_number   1
_chemical_formula_structural   ZrScNbPdRh
_chemical_formula_sum   'Zr50 Sc50 Nb50 Pd50 Rh50'
_cell_volume   4535.72626331
_cell_formula_units_Z   50
loop_
 _symmetry_equiv_pos_site_id
 _symmetry_equiv_pos_as_xyz
  1  'x, y, z'
loop_
 _atom_site_type_symbol
 _atom_site_label
 _atom_site_symmetry_multiplicity
 _atom_site_fract_x
 _atom_site_fract_y
 _atom_site_fract_z
 _atom_site_occupancy
  Zr  Zr0  1  0.50170211  0.90810813  0.89258970  1
  Zr  Zr1  1  0.29437315  0.69804271  0.50517531  1
  Zr  Zr2  1  0.70051711  0.89751676  0.10059131  1
  Zr  Zr3  1  0.69867564  0.90195495  0.49988045  1
  Zr  Zr4  1  0.29795399  0.09094743  0.50297029  1
  Zr  Zr5  1  0.30450167  0.69883482  0.70125167  1
  Zr  Zr6  1  0.70389751  0.29661446  0.90107138  1
  Zr  Zr7  1  0.90372674  0.49626282  0.29966137  1
  Zr  Zr8  1  0.10553983  0.49255711  0.30210931  1
  Zr  Zr9  1  0.69632636  0.49963673  0.49673220  1
  Zr  Zr10  1  0.50206351  0.89939339  0.10552569  1
  Zr  Zr11  1  0.70514749  0.29790337  0.49938640  1
  Zr  Zr12  1  0.49921806  0.50622215  0.89369845  1
  Zr  Zr13  1  0.11449182  0.89770232  0.10619529  1
  Zr  Zr14  1  0.49339710  0.30839384  0.70256781  1
  Zr  Zr15  1  0.48975119  0.49275596  0.10902722  1
  Zr  Zr16  1  0.50230386  0.69853462  0.30185403  1
  Zr  Zr17  1  0.49975791  0.50456693  0.50242535  1
  Zr  Zr18  1  0.29114933  0.90292650  0.89669582  1
  Zr  Zr19  1  0.50192729  0.70352295  0.88694728  1
  Zr  Zr20  1  0.50592250  0.70441168  0.10272982  1
  Zr  Zr21  1  0.09509536  0.70579748  0.90495468  1
  Zr  Zr22  1  0.90123141  0.49507994  0.09137104  1
  Zr  Zr23  1  0.69589190  0.90263270  0.89311342  1
  Zr  Zr24  1  0.29944399  0.70498935  0.10561648  1
  Zr  Zr25  1  0.09762711  0.70299241  0.10095822  1
  Zr  Zr26  1  0.88595448  0.70408367  0.69958125  1
  Zr  Zr27  1  0.89431680  0.90687677  0.10491682  1
  Zr  Zr28  1  0.90071985  0.70082725  0.10109369  1
  Zr  Zr29  1  0.09328242  0.49391231  0.90008666  1
  Zr  Zr30  1  0.90037378  0.30007125  0.49614207  1
  Zr  Zr31  1  0.90183779  0.70137907  0.29683622  1
  Zr  Zr32  1  0.08696533  0.91122871  0.70767878  1
  Zr  Zr33  1  0.10149092  0.30240805  0.49413026  1
  Zr  Zr34  1  0.10764637  0.69955327  0.50518881  1
  Zr  Zr35  1  0.09203956  0.09944191  0.10617855  1
  Zr  Zr36  1  0.69587656  0.29444759  0.69584604  1
  Zr  Zr37  1  0.71785653  0.09712594  0.09692923  1
  Zr  Zr38  1  0.89543591  0.69791270  0.89845662  1
  Zr  Zr39  1  0.70529972  0.90063289  0.30155047  1
  Zr  Zr40  1  0.89407944  0.90450892  0.50690142  1
  Zr  Zr41  1  0.09730206  0.29295821  0.89243871  1
  Zr  Zr42  1  0.10714568  0.70104302  0.29556693  1
  Zr  Zr43  1  0.29925198  0.30954503  0.10056406  1
  Zr  Zr44  1  0.70104490  0.49973874  0.30021681  1
  Zr  Zr45  1  0.10887938  0.49033457  0.09714326  1
  Zr  Zr46  1  0.29606369  0.29748841  0.49997199  1
  Zr  Zr47  1  0.90155174  0.28501823  0.09988390  1
  Zr  Zr48  1  0.29759843  0.30098562  0.69998474  1
  Zr  Zr49  1  0.68955979  0.10305042  0.89906474  1
  Sc  Sc50  1  0.29843432  0.10078887  0.10130815  1
  Sc  Sc51  1  0.90079640  0.10457696  0.50245259  1
  Sc  Sc52  1  0.09789030  0.30452427  0.30102593  1
  Sc  Sc53  1  0.70240483  0.49838188  0.09349933  1
  Sc  Sc54  1  0.49986299  0.90763670  0.50199975  1
  Sc  Sc55  1  0.89538674  0.89981915  0.30137012  1
  Sc  Sc56  1  0.70439788  0.29615146  0.09898729  1
  Sc  Sc57  1  0.90734721  0.09638804  0.29022816  1
  Sc  Sc58  1  0.69744361  0.69283472  0.50695552  1
  Sc  Sc59  1  0.49784951  0.69330251  0.49916160  1
  Sc  Sc60  1  0.10626532  0.91176928  0.50932805  1
  Sc  Sc61  1  0.70885750  0.70247786  0.29853886  1
  Sc  Sc62  1  0.30233156  0.90699428  0.29322738  1
  Sc  Sc63  1  0.29356843  0.90680907  0.70151921  1
  Sc  Sc64  1  0.10116755  0.10067639  0.50028952  1
  Sc  Sc65  1  0.30008390  0.29949059  0.30708628  1
  Sc  Sc66  1  0.29221312  0.49781901  0.90755077  1
  Sc  Sc67  1  0.70668242  0.10178589  0.70061966  1
  Sc  Sc68  1  0.11526911  0.69733876  0.69664597  1
  Sc  Sc69  1  0.90948119  0.30193520  0.30554546  1
  Sc  Sc70  1  0.69256860  0.70517609  0.70031973  1
  Sc  Sc71  1  0.50123229  0.29911767  0.50110880  1
  Sc  Sc72  1  0.09984451  0.10195791  0.89740302  1
  Sc  Sc73  1  0.69674831  0.29027202  0.29954803  1
  Sc  Sc74  1  0.09682960  0.30042308  0.09881995  1
  Sc  Sc75  1  0.29708238  0.70224541  0.88957271  1
  Sc  Sc76  1  0.69831722  0.50573216  0.68531959  1
  Sc  Sc77  1  0.89839224  0.10393774  0.89872808  1
  Sc  Sc78  1  0.51243242  0.89693091  0.70441967  1
  Sc  Sc79  1  0.48867259  0.29621860  0.09931270  1
  Sc  Sc80  1  0.29731394  0.10427806  0.89319513  1
  Sc  Sc81  1  0.09699437  0.10606480  0.70048208  1
  Sc  Sc82  1  0.30352861  0.49948297  0.49458521  1
  Sc  Sc83  1  0.11516632  0.50274566  0.49842693  1
  Sc  Sc84  1  0.90200306  0.28814222  0.70135463  1
  Sc  Sc85  1  0.49747347  0.10444463  0.30388409  1
  Sc  Sc86  1  0.70690177  0.50955475  0.90822494  1
  Sc  Sc87  1  0.30925120  0.69743822  0.30718578  1
  Sc  Sc88  1  0.90521055  0.29908263  0.90116372  1
  Sc  Sc89  1  0.30403637  0.29384447  0.90244602  1
  Sc  Sc90  1  0.30246826  0.10250007  0.30523524  1
  Sc  Sc91  1  0.50593942  0.09731983  0.70869212  1
  Sc  Sc92  1  0.49753054  0.90402312  0.30319423  1
  Sc  Sc93  1  0.49771776  0.29638613  0.29147696  1
  Sc  Sc94  1  0.50316142  0.09369763  0.49553273  1
  Sc  Sc95  1  0.10132693  0.09029860  0.30172447  1
  Sc  Sc96  1  0.69693083  0.10543178  0.49418941  1
  Sc  Sc97  1  0.49522972  0.10778986  0.10046943  1
  Sc  Sc98  1  0.88870807  0.70370843  0.49986278  1
  Sc  Sc99  1  0.88635119  0.49429732  0.49723189  1
  Nb  Nb100  1  0.30141977  0.49775408  0.10365468  1
  Nb  Nb101  1  0.90984813  0.88984074  0.88930227  1
  Nb  Nb102  1  0.50031670  0.10531411  0.90293842  1
  Nb  Nb103  1  0.30847464  0.50067690  0.29437247  1
  Nb  Nb104  1  0.89575751  0.49710309  0.89624610  1
  Nb  Nb105  1  0.48779993  0.50683771  0.69892929  1
  Nb  Nb106  1  0.30830406  0.49905708  0.69731369  1
  Nb  Nb107  1  0.49840215  0.50463465  0.30154432  1
  Nb  Nb108  1  0.90567022  0.09696821  0.09907613  1
  Nb  Nb109  1  0.90607155  0.08757004  0.69836829  1
  Nb  Nb110  1  0.89287587  0.90289286  0.70432501  1
  Nb  Nb111  1  0.69890971  0.70002391  0.90694225  1
  Nb  Nb112  1  0.90152901  0.50084912  0.70234003  1
  Nb  Nb113  1  0.09680892  0.30503145  0.70120777  1
  Nb  Nb114  1  0.50467800  0.29106495  0.89936708  1
  Nb  Nb115  1  0.10296636  0.89790414  0.29951588  1
  Nb  Nb116  1  0.30318821  0.90381052  0.09687265  1
  Nb  Nb117  1  0.29756951  0.10398417  0.69679688  1
  Nb  Nb118  1  0.69043107  0.09779178  0.30245461  1
  Nb  Nb119  1  0.09056507  0.89825010  0.90523940  1
  Nb  Nb120  1  0.49173806  0.69245219  0.70415130  1
  Nb  Nb121  1  0.09876076  0.49860396  0.70055821  1
  Nb  Nb122  1  0.30146585  0.90034236  0.50591341  1
  Nb  Nb123  1  0.69822838  0.70277379  0.09497151  1
  Nb  Nb124  1  0.70992729  0.89707787  0.69871072  1
  Nb  Nb125  1  0.00286418  0.60431822  0.40409098  1
  Nb  Nb126  1  0.19815021  0.20161646  0.20136815  1
  Nb  Nb127  1  0.80048862  0.40412032  0.79809589  1
  Nb  Nb128  1  0.00290723  0.40455985  0.60529853  1
  Nb  Nb129  1  0.19631447  0.39974819  0.79247949  1
  Nb  Nb130  1  0.59367525  0.39568217  -0.00809819  1
  Nb  Nb131  1  0.39921779  0.60595850  0.00389480  1
  Nb  Nb132  1  -0.00328793  0.59544231  0.79603733  1
  Nb  Nb133  1  -0.00057564  -0.00767506  -0.00130149  1
  Nb  Nb134  1  0.79776755  0.79986966  -0.00554331  1
  Nb  Nb135  1  0.59987497  0.59952476  0.19884598  1
  Nb  Nb136  1  0.60233603  0.80031615  0.40215380  1
  Nb  Nb137  1  0.80426375  0.39810896  0.19956422  1
  Nb  Nb138  1  0.39521384  0.19458647  0.60429030  1
  Nb  Nb139  1  0.39927005  0.80071508  0.60403411  1
  Nb  Nb140  1  -0.00257998  0.59787565  0.60160573  1
  Nb  Nb141  1  0.39914301  -0.00286297  -0.00274804  1
  Nb  Nb142  1  0.39935788  0.80489591  -0.00246483  1
  Nb  Nb143  1  0.00747547  0.80111237  0.40522348  1
  Nb  Nb144  1  0.60617476  0.00381767  0.20016790  1
  Nb  Nb145  1  -0.00240250  0.80087853  0.60118415  1
  Nb  Nb146  1  0.60194388  0.40176558  0.80145531  1
  Nb  Nb147  1  0.59801475  0.40438177  0.39622970  1
  Nb  Nb148  1  0.19983694  0.80741944  0.40219977  1
  Nb  Nb149  1  0.20746467  0.59255790  0.19790298  1
  Pd  Pd150  1  0.00481680  0.19144994  0.39479835  1
  Pd  Pd151  1  0.59759237  0.80370559  -0.00860344  1
  Pd  Pd152  1  0.39476024  0.40249987  0.81023843  1
  Pd  Pd153  1  0.80503612  0.19443233  0.39140744  1
  Pd  Pd154  1  0.80461307  0.20141548  0.79899206  1
  Pd  Pd155  1  0.60994690  0.59437749  0.79307659  1
  Pd  Pd156  1  0.39712086  0.80261986  0.20243206  1
  Pd  Pd157  1  -0.00208217  0.80897572  0.20366841  1
  Pd  Pd158  1  0.80805443  0.39378252  0.60872344  1
  Pd  Pd159  1  -0.00117122  0.39143804  0.00057906  1
  Pd  Pd160  1  0.40497631  0.00887947  0.19768125  1
  Pd  Pd161  1  0.39887307  0.00423808  0.79914922  1
  Pd  Pd162  1  -0.00216891  -0.00507246  0.40349545  1
  Pd  Pd163  1  0.19949623  0.20011522  0.00720254  1
  Pd  Pd164  1  0.20556994  0.60539032  0.00417413  1
  Pd  Pd165  1  0.81057309  -0.00766693  -0.01583286  1
  Pd  Pd166  1  0.19186768  0.80546950  0.79518866  1
  Pd  Pd167  1  0.59101081  0.79465971  0.59546090  1
  Pd  Pd168  1  0.60173404  0.19332630  0.19319615  1
  Pd  Pd169  1  0.60001281  0.20312246  0.01151567  1
  Pd  Pd170  1  0.60664911  0.40182818  0.19686060  1
  Pd  Pd171  1  0.19898791  0.59162368  0.79988535  1
  Pd  Pd172  1  0.79281732  0.59533715  0.79549318  1
  Pd  Pd173  1  0.00591363  0.78626625  0.78598789  1
  Pd  Pd174  1  0.20575964  0.79709456  -0.00297300  1
  Pd  Pd175  1  0.01016676  0.59153858  0.20201924  1
  Pd  Pd176  1  0.79259330  0.00889884  0.59781487  1
  Pd  Pd177  1  0.59327655  0.40333023  0.60061443  1
  Pd  Pd178  1  0.19731619  0.19721836  0.59997218  1
  Pd  Pd179  1  0.20022330  0.40498926  0.60195256  1
  Pd  Pd180  1  0.80351340  0.60380351  0.40144804  1
  Pd  Pd181  1  0.20502456  -0.00505845  0.39719073  1
  Pd  Pd182  1  0.19242101  0.00659019  0.79907917  1
  Pd  Pd183  1  0.40546446  -0.00169374  0.60981168  1
  Pd  Pd184  1  0.60634080  0.00532503  0.60532058  1
  Pd  Pd185  1  0.40626408  0.39887718  0.39790761  1
  Pd  Pd186  1  0.40430811  0.40384567  -0.00922373  1
  Pd  Pd187  1  0.19815984  0.00758424  -0.00113078  1
  Pd  Pd188  1  0.40385131  0.19759145  0.40942033  1
  Pd  Pd189  1  -0.00192283  0.59745409  -0.00453075  1
  Pd  Pd190  1  0.58978710  0.19396970  0.59947010  1
  Pd  Pd191  1  0.59235381  0.00688951  0.00904394  1
  Pd  Pd192  1  0.40060997  0.80623240  0.40993746  1
  Pd  Pd193  1  0.59142965  0.59213860  0.00763860  1
  Pd  Pd194  1  0.80360542  0.19981254  0.20941022  1
  Pd  Pd195  1  0.80621315  0.01059309  0.39775712  1
  Pd  Pd196  1  0.80169620  0.00283518  0.80503052  1
  Pd  Pd197  1  0.40207979  0.19456118  0.79619794  1
  Pd  Pd198  1  0.79433787  0.59476596  0.19236464  1
  Pd  Pd199  1  0.00036636  0.20314099  0.60089660  1
  Rh  Rh200  1  0.80558695  0.19473644  0.60097515  1
  Rh  Rh201  1  0.80509771  0.19727348  -0.00454658  1
  Rh  Rh202  1  0.00283684  -0.00854617  0.19613394  1
  Rh  Rh203  1  0.20646774  0.39703863  0.20632047  1
  Rh  Rh204  1  0.20755573  0.39967337  0.39708683  1
  Rh  Rh205  1  0.79680484  0.39421169  -0.00110425  1
  Rh  Rh206  1  0.79782342  0.79588817  0.19148246  1
  Rh  Rh207  1  0.20312386  0.00615764  0.20219671  1
  Rh  Rh208  1  0.00782690  0.20174948  0.20533603  1
  Rh  Rh209  1  0.80356930  0.60787098  0.00386910  1
  Rh  Rh210  1  0.78952505  0.38968054  0.38852123  1
  Rh  Rh211  1  0.59858711  -0.00520941  0.39292046  1
  Rh  Rh212  1  0.80136225  0.60006130  0.59965106  1
  Rh  Rh213  1  0.19281348  0.19918234  0.39220695  1
  Rh  Rh214  1  0.60920148  0.00430683  0.79260363  1
  Rh  Rh215  1  0.60385655  0.60177384  0.39131096  1
  Rh  Rh216  1  0.40066457  0.80878228  0.79538227  1
  Rh  Rh217  1  0.40131133  0.60264453  0.19663450  1
  Rh  Rh218  1  -0.00949505  0.80930569  0.00983095  1
  Rh  Rh219  1  -0.00346949  0.19342717  0.79508851  1
  Rh  Rh220  1  -0.00762877  0.39695974  0.19262358  1
  Rh  Rh221  1  0.39757793  0.59797818  0.40461487  1
  Rh  Rh222  1  -0.00266541  -0.00182958  0.59837379  1
  Rh  Rh223  1  0.79531152  0.00966392  0.21039514  1
  Rh  Rh224  1  0.19689271  0.38975930  -0.01187141  1
  Rh  Rh225  1  0.39613038  0.39330249  0.20950928  1
  Rh  Rh226  1  0.19890483  0.20478456  0.79433045  1
  Rh  Rh227  1  0.00427387  0.41316560  0.41632067  1
  Rh  Rh228  1  0.60823624  0.79968512  0.21358751  1
  Rh  Rh229  1  0.79565897  0.79949474  0.40743574  1
  Rh  Rh230  1  0.00043355  0.19103868  -0.00279854  1
  Rh  Rh231  1  0.19740334  0.00450985  0.60798023  1
  Rh  Rh232  1  0.38624402  0.20287432  0.19966653  1
  Rh  Rh233  1  -0.00451296  0.40137170  0.79604410  1
  Rh  Rh234  1  -0.00433475  0.00711899  0.80894027  1
  Rh  Rh235  1  0.59729904  0.20278044  0.79543150  1
  Rh  Rh236  1  0.20174277  0.81346548  0.60139442  1
  Rh  Rh237  1  0.39687345  0.60433933  0.59542766  1
  Rh  Rh238  1  0.39751185  -0.00077774  0.40083660  1
  Rh  Rh239  1  0.21181910  0.79801500  0.20934667  1
  Rh  Rh240  1  0.20657830  0.58806874  0.60749042  1
  Rh  Rh241  1  0.59592476  0.20922812  0.40175709  1
  Rh  Rh242  1  0.79042067  0.80026057  0.80546350  1
  Rh  Rh243  1  0.39620996  0.19162992  -0.00328570  1
  Rh  Rh244  1  0.79866737  0.80316757  0.59893021  1
  Rh  Rh245  1  0.59133063  0.60289286  0.60790896  1
  Rh  Rh246  1  0.20326386  0.60171505  0.38735788  1
  Rh  Rh247  1  0.38816566  0.59322992  0.80860443  1
  Rh  Rh248  1  0.60472153  0.79768674  0.79646544  1
  Rh  Rh249  1  0.39933388  0.39560835  0.59362674  1
