# generated using pymatgen
data_ZrScNbPdRh
_symmetry_space_group_name_H-M   'P 1'
_cell_length_a   16.55871840
_cell_length_b   16.56017478
_cell_length_c   16.55476319
_cell_angle_alpha   89.98600854
_cell_angle_beta   90.00673886
_cell_angle_gamma   90.07318622
_symmetry_Int_Tables_number   1
_chemical_formula_structural   ZrScNbPdRh
_chemical_formula_sum   'Zr50 Sc50 Nb50 Pd50 Rh50'
_cell_volume   4539.56500116
_cell_formula_units_Z   50
loop_
 _symmetry_equiv_pos_site_id
 _symmetry_equiv_pos_as_xyz
  1  'x, y, z'
loop_
 _atom_site_type_symbol
 _atom_site_label
 _atom_site_symmetry_multiplicity
 _atom_site_fract_x
 _atom_site_fract_y
 _atom_site_fract_z
 _atom_site_occupancy
  Zr  Zr0  1  0.91230746  0.69781282  0.89552036  1
  Zr  Zr1  1  0.50425777  0.48689879  0.90265196  1
  Zr  Zr2  1  0.30203727  0.31162218  0.29714871  1
  Zr  Zr3  1  0.10158228  0.70170366  0.30147811  1
  Zr  Zr4  1  0.11695309  0.10162656  0.70505005  1
  Zr  Zr5  1  0.50176028  0.50806062  0.50162492  1
  Zr  Zr6  1  0.30004164  0.90379464  0.49770981  1
  Zr  Zr7  1  0.29147954  0.49608318  0.70270674  1
  Zr  Zr8  1  0.10552656  0.90271426  0.10006863  1
  Zr  Zr9  1  0.68963700  0.89854318  0.90209456  1
  Zr  Zr10  1  0.69618367  0.89920224  0.70400218  1
  Zr  Zr11  1  0.50154974  0.90174194  0.29805532  1
  Zr  Zr12  1  0.10308901  0.50185360  0.69929963  1
  Zr  Zr13  1  0.50159542  0.29095222  0.69576438  1
  Zr  Zr14  1  0.89121004  0.10400200  0.50039620  1
  Zr  Zr15  1  0.09705505  0.30323146  0.10001625  1
  Zr  Zr16  1  0.30861951  0.70666480  0.49715962  1
  Zr  Zr17  1  0.29383790  0.10074937  0.89029577  1
  Zr  Zr18  1  0.29422344  0.09249358  0.49899053  1
  Zr  Zr19  1  0.90460632  0.30149242  0.30269355  1
  Zr  Zr20  1  0.70642825  0.88669331  0.09589870  1
  Zr  Zr21  1  0.50302293  0.89957552  0.89760343  1
  Zr  Zr22  1  0.49941210  0.71454195  0.90277687  1
  Zr  Zr23  1  0.50142850  0.69615398  0.10785984  1
  Zr  Zr24  1  0.90227466  0.10466166  0.08908266  1
  Zr  Zr25  1  0.89288782  0.29695780  0.90538702  1
  Zr  Zr26  1  0.09136593  0.69512671  0.70622379  1
  Zr  Zr27  1  0.69926213  0.49690548  0.90547047  1
  Zr  Zr28  1  0.29203991  0.50246097  0.50289822  1
  Zr  Zr29  1  0.90458770  0.89236229  0.10339799  1
  Zr  Zr30  1  0.30651716  0.29998854  0.49848135  1
  Zr  Zr31  1  0.49296111  0.10575173  0.10219387  1
  Zr  Zr32  1  0.89811391  0.10489538  0.69768932  1
  Zr  Zr33  1  0.29981848  0.29361459  0.71151816  1
  Zr  Zr34  1  0.89089067  0.50146749  0.31550678  1
  Zr  Zr35  1  0.48992817  0.50549547  0.29046117  1
  Zr  Zr36  1  0.69991824  0.90190107  0.30160390  1
  Zr  Zr37  1  0.30139603  0.89890339  0.30132628  1
  Zr  Zr38  1  0.89984231  0.88925673  0.30524562  1
  Zr  Zr39  1  0.30365742  0.08755607  0.29306775  1
  Zr  Zr40  1  0.29183718  0.50538636  0.30143574  1
  Zr  Zr41  1  0.89648413  0.70311416  0.10245484  1
  Zr  Zr42  1  0.69300931  0.30578742  0.90140393  1
  Zr  Zr43  1  0.30770517  0.69533033  0.29742594  1
  Zr  Zr44  1  0.69789582  0.50415111  0.29661999  1
  Zr  Zr45  1  0.70644006  0.50609374  0.69333774  1
  Zr  Zr46  1  0.69557871  0.09498372  0.30796184  1
  Zr  Zr47  1  0.89988285  0.70394940  0.30113817  1
  Zr  Zr48  1  0.89367376  0.89839118  0.91349899  1
  Zr  Zr49  1  0.50477380  0.70143034  0.69986088  1
  Sc  Sc50  1  0.89841552  0.69809283  0.70338705  1
  Sc  Sc51  1  0.90330945  0.49627936  0.89838482  1
  Sc  Sc52  1  0.10362723  0.90240932  0.90914389  1
  Sc  Sc53  1  0.09974267  0.89882571  0.69550986  1
  Sc  Sc54  1  0.49283222  0.30463724  0.89820378  1
  Sc  Sc55  1  0.69432567  0.28145419  0.50015103  1
  Sc  Sc56  1  0.28959417  0.69365499  0.69657743  1
  Sc  Sc57  1  0.30071081  0.49555831  0.10032390  1
  Sc  Sc58  1  0.90040549  0.88857840  0.69322808  1
  Sc  Sc59  1  0.71211127  0.90443164  0.49088527  1
  Sc  Sc60  1  0.69944604  0.29833994  0.70092572  1
  Sc  Sc61  1  0.10404565  0.50122086  0.08847051  1
  Sc  Sc62  1  0.89466945  0.30591244  0.69583833  1
  Sc  Sc63  1  0.10234938  0.89330919  0.29863199  1
  Sc  Sc64  1  0.70101355  0.10184937  0.90178005  1
  Sc  Sc65  1  0.70075181  0.70136294  0.30744085  1
  Sc  Sc66  1  0.29848597  0.70197826  0.09617346  1
  Sc  Sc67  1  0.10582345  0.70688877  0.50593202  1
  Sc  Sc68  1  0.10573651  0.89554980  0.49875162  1
  Sc  Sc69  1  0.49636106  0.90220035  0.71098208  1
  Sc  Sc70  1  0.48999918  0.90082796  0.49541143  1
  Sc  Sc71  1  0.29724565  0.70261760  0.90615329  1
  Sc  Sc72  1  0.09974698  0.11427063  0.30725776  1
  Sc  Sc73  1  0.30150234  0.89870095  0.90089171  1
  Sc  Sc74  1  0.89784742  0.71154911  0.50024445  1
  Sc  Sc75  1  0.10142880  0.70137417  0.08791823  1
  Sc  Sc76  1  0.50733459  0.89007455  0.09436512  1
  Sc  Sc77  1  0.30088810  0.09386730  0.10187328  1
  Sc  Sc78  1  0.70907987  0.51012702  0.49612558  1
  Sc  Sc79  1  0.09256830  0.31385841  0.90261221  1
  Sc  Sc80  1  0.70925726  0.69563177  0.70019954  1
  Sc  Sc81  1  0.29614971  0.90215110  0.10265250  1
  Sc  Sc82  1  0.90451069  0.30283421  0.50144686  1
  Sc  Sc83  1  0.49520885  0.10687964  0.49660997  1
  Sc  Sc84  1  0.48889761  0.30438333  0.10348088  1
  Sc  Sc85  1  0.50071600  0.48801043  0.70444619  1
  Sc  Sc86  1  0.10219326  0.30177162  0.69864077  1
  Sc  Sc87  1  0.69884860  0.30204264  0.09802479  1
  Sc  Sc88  1  0.69998268  0.11055122  0.69356849  1
  Sc  Sc89  1  0.69656294  0.10708440  0.10747780  1
  Sc  Sc90  1  0.50332159  0.09411311  0.89146619  1
  Sc  Sc91  1  0.89496651  0.10905617  0.30063138  1
  Sc  Sc92  1  0.30014931  0.90976344  0.69731468  1
  Sc  Sc93  1  0.69536860  0.28959422  0.29459077  1
  Sc  Sc94  1  0.10132585  0.50967578  0.89521170  1
  Sc  Sc95  1  0.30544417  0.09610423  0.69871002  1
  Sc  Sc96  1  0.50331808  0.09771047  0.29563035  1
  Sc  Sc97  1  0.90233311  0.29901853  0.09429966  1
  Sc  Sc98  1  0.70768485  0.69805122  0.90142885  1
  Sc  Sc99  1  0.51180842  0.49878754  0.10380406  1
  Nb  Nb100  1  0.09628664  0.10450081  0.50302658  1
  Nb  Nb101  1  0.69752823  0.09307407  0.49857573  1
  Nb  Nb102  1  0.90180142  0.09897980  0.90085374  1
  Nb  Nb103  1  0.70225714  0.50920682  0.10207498  1
  Nb  Nb104  1  0.10212652  0.30704190  0.30314054  1
  Nb  Nb105  1  0.49342181  0.69950656  0.30860879  1
  Nb  Nb106  1  0.10346389  0.49898606  0.30463414  1
  Nb  Nb107  1  0.50182017  0.69979381  0.49863202  1
  Nb  Nb108  1  0.49600191  0.30616640  0.30248956  1
  Nb  Nb109  1  0.90550151  0.90381912  0.49742015  1
  Nb  Nb110  1  0.30770521  0.30038280  0.91033341  1
  Nb  Nb111  1  0.30697301  0.49698115  0.89915884  1
  Nb  Nb112  1  0.30105190  0.29477368  0.09242519  1
  Nb  Nb113  1  0.49685951  0.30376537  0.49795682  1
  Nb  Nb114  1  0.89997678  0.50035849  0.50469303  1
  Nb  Nb115  1  0.10303748  0.69646717  0.89729741  1
  Nb  Nb116  1  0.10260214  0.28899299  0.48643560  1
  Nb  Nb117  1  0.10564715  0.09926309  0.09838814  1
  Nb  Nb118  1  0.50339630  0.09186249  0.69636052  1
  Nb  Nb119  1  0.10251144  0.09759737  0.90041447  1
  Nb  Nb120  1  0.89697363  0.50419704  0.10917000  1
  Nb  Nb121  1  0.68848065  0.69561845  0.50557066  1
  Nb  Nb122  1  0.10100925  0.49387311  0.49917545  1
  Nb  Nb123  1  0.89598477  0.50164209  0.68751019  1
  Nb  Nb124  1  0.70287322  0.68579777  0.10397673  1
  Nb  Nb125  1  0.00119443  0.59310001  0.20683209  1
  Nb  Nb126  1  0.59790873  0.39718590  0.58999206  1
  Nb  Nb127  1  -0.00395680  0.00538449  0.80125037  1
  Nb  Nb128  1  0.20067932  0.20103025  0.00040620  1
  Nb  Nb129  1  -0.00057325  0.19396483  0.80518580  1
  Nb  Nb130  1  0.40431339  0.59566966  -0.00602981  1
  Nb  Nb131  1  0.20029938  0.20648185  0.19532310  1
  Nb  Nb132  1  0.59998592  0.80090326  0.59456172  1
  Nb  Nb133  1  0.59677241  0.59732009  0.80348080  1
  Nb  Nb134  1  0.80609517  0.00094100  0.80270685  1
  Nb  Nb135  1  0.80607375  -0.00311016  0.19850477  1
  Nb  Nb136  1  0.00322064  0.59378435  0.40533975  1
  Nb  Nb137  1  0.59229317  0.39739240  0.40051909  1
  Nb  Nb138  1  -0.00053378  0.59209172  0.59432449  1
  Nb  Nb139  1  0.80277664  0.40713842  0.19971548  1
  Nb  Nb140  1  0.00036730  0.00559494  0.59666825  1
  Nb  Nb141  1  -0.00240993  0.00297124  0.40354592  1
  Nb  Nb142  1  -0.00042122  0.00503211  0.20142007  1
  Nb  Nb143  1  0.00034037  0.40850343  0.20693118  1
  Nb  Nb144  1  0.60058012  -0.00013868  0.59633801  1
  Nb  Nb145  1  0.59251222  0.20285952  0.00038611  1
  Nb  Nb146  1  0.40245254  0.60025740  0.60307460  1
  Nb  Nb147  1  0.19337080  0.79558528  0.80252333  1
  Nb  Nb148  1  0.40314050  -0.00038143  -0.00307739  1
  Nb  Nb149  1  0.40177641  0.59700734  0.80305916  1
  Pd  Pd150  1  0.79058812  0.00611499  0.00389460  1
  Pd  Pd151  1  0.19556414  0.38755912  0.59424443  1
  Pd  Pd152  1  0.19741929  0.39933973  0.19512746  1
  Pd  Pd153  1  0.40418904  0.79992045  0.60743902  1
  Pd  Pd154  1  0.39905801  0.80296752  0.19642844  1
  Pd  Pd155  1  0.39693551  0.19327721  0.59989873  1
  Pd  Pd156  1  0.20537878  0.20429150  0.59679398  1
  Pd  Pd157  1  0.59090801  0.20037752  0.39711659  1
  Pd  Pd158  1  0.40165305  0.40354436  0.60476066  1
  Pd  Pd159  1  0.00613813  0.81362265  0.80682920  1
  Pd  Pd160  1  0.59705160  0.00899601  0.00845975  1
  Pd  Pd161  1  0.00372443  -0.00134205  0.00263320  1
  Pd  Pd162  1  0.00536915  0.20123059  0.20158033  1
  Pd  Pd163  1  0.80990489  0.60009485  -0.00573867  1
  Pd  Pd164  1  0.60576784  0.39456443  0.20149997  1
  Pd  Pd165  1  0.19520996  0.60834857  0.40815575  1
  Pd  Pd166  1  0.60510293  -0.00284401  0.18984558  1
  Pd  Pd167  1  0.60059314  0.80589059  0.40720515  1
  Pd  Pd168  1  -0.00700492  0.39905443  0.79485554  1
  Pd  Pd169  1  0.00755409  0.39760486  0.59773154  1
  Pd  Pd170  1  0.21186951  0.20045463  0.39107233  1
  Pd  Pd171  1  0.20128417  0.39613038  0.81099003  1
  Pd  Pd172  1  0.79941285  0.20551420  0.40139747  1
  Pd  Pd173  1  0.00328722  0.40122153  0.40274466  1
  Pd  Pd174  1  0.78280469  0.38876859  0.40156377  1
  Pd  Pd175  1  0.18680351  -0.00010593  0.39488270  1
  Pd  Pd176  1  0.59691457  0.59640395  0.39235124  1
  Pd  Pd177  1  0.00276431  0.20203439  0.60638575  1
  Pd  Pd178  1  0.39726160  0.19476151  0.39145786  1
  Pd  Pd179  1  0.80073516  0.40387729  0.79758387  1
  Pd  Pd180  1  0.79321190  0.79838394  0.59419581  1
  Pd  Pd181  1  0.59394340  0.60474930  -0.00681641  1
  Pd  Pd182  1  0.79907882  -0.00264618  0.60764861  1
  Pd  Pd183  1  0.78720697  0.39182236  0.58706281  1
  Pd  Pd184  1  0.80177148  0.40378578  0.00950697  1
  Pd  Pd185  1  0.38333320  0.79466836  0.79264377  1
  Pd  Pd186  1  0.40098846  0.41167842  0.40073465  1
  Pd  Pd187  1  0.40755302  0.19513349  0.80210632  1
  Pd  Pd188  1  0.59737238  0.19813630  0.80561444  1
  Pd  Pd189  1  0.39434838  0.20309648  0.20781502  1
  Pd  Pd190  1  0.20163121  0.40037437  -0.00716175  1
  Pd  Pd191  1  0.80146738  0.19809423  0.80312727  1
  Pd  Pd192  1  0.80153353  0.20278241  0.19495865  1
  Pd  Pd193  1  0.60554305  0.79028718  0.20382122  1
  Pd  Pd194  1  0.20225982  0.80246873  0.60858127  1
  Pd  Pd195  1  0.19435610  0.60185395  0.19014903  1
  Pd  Pd196  1  0.79942339  0.80404838  0.80575621  1
  Pd  Pd197  1  -0.00351798  0.59718463  0.00556244  1
  Pd  Pd198  1  0.00952820  0.20147225  -0.00821079  1
  Pd  Pd199  1  0.20125661  0.79400393  0.19778006  1
  Rh  Rh200  1  0.59491880  0.59977672  0.60869550  1
  Rh  Rh201  1  0.60959303  0.78701502  0.00499995  1
  Rh  Rh202  1  0.21141883  0.00604134  -0.00221458  1
  Rh  Rh203  1  0.80475925  0.61223736  0.40960750  1
  Rh  Rh204  1  0.19343787  -0.01413746  0.79931560  1
  Rh  Rh205  1  0.58981215  0.20706079  0.19577872  1
  Rh  Rh206  1  0.19674871  0.60218595  0.59451823  1
  Rh  Rh207  1  0.00097103  0.79929675  0.59678457  1
  Rh  Rh208  1  0.40167739  0.80215454  0.39537758  1
  Rh  Rh209  1  0.40805396  0.00313971  0.59816653  1
  Rh  Rh210  1  0.80165392  0.60091899  0.20596805  1
  Rh  Rh211  1  0.00599995  0.80067536  0.40691830  1
  Rh  Rh212  1  0.79105990  0.79797760  0.20336000  1
  Rh  Rh213  1  -0.00626277  0.40853380  0.00646597  1
  Rh  Rh214  1  0.20005759  0.39434287  0.40686985  1
  Rh  Rh215  1  0.59749856  0.39094891  0.01179939  1
  Rh  Rh216  1  0.19422667  -0.00004272  0.59663432  1
  Rh  Rh217  1  0.39611692  0.59846906  0.18917676  1
  Rh  Rh218  1  0.80891562  0.00203573  0.39023896  1
  Rh  Rh219  1  -0.00902004  0.58864473  0.78980032  1
  Rh  Rh220  1  0.59306266  -0.00130399  0.40962229  1
  Rh  Rh221  1  0.39746778  0.80331459  0.00671368  1
  Rh  Rh222  1  0.18558542  0.00902677  0.20848186  1
  Rh  Rh223  1  0.39820620  0.59709838  0.40580107  1
  Rh  Rh224  1  0.81105093  0.60967664  0.59362531  1
  Rh  Rh225  1  0.60052034  0.60822837  0.20825950  1
  Rh  Rh226  1  0.39788006  0.00029157  0.80436398  1
  Rh  Rh227  1  0.80038972  0.59235544  0.80293352  1
  Rh  Rh228  1  0.00436634  0.79714120  -0.00265903  1
  Rh  Rh229  1  0.61079113  0.78832322  0.79335853  1
  Rh  Rh230  1  0.19019741  0.21577211  0.81499611  1
  Rh  Rh231  1  0.19923344  0.80120806  -0.00558702  1
  Rh  Rh232  1  0.78910380  0.19946763  -0.00127924  1
  Rh  Rh233  1  0.39397801  0.39798883  0.79467282  1
  Rh  Rh234  1  0.20752747  0.79777956  0.39655633  1
  Rh  Rh235  1  0.41113771  -0.01195385  0.18932358  1
  Rh  Rh236  1  0.21012964  0.59701043  -0.00464195  1
  Rh  Rh237  1  0.39951112  0.18901490  -0.00917414  1
  Rh  Rh238  1  0.01065489  0.79546638  0.19300297  1
  Rh  Rh239  1  -0.00341509  0.19838203  0.40140099  1
  Rh  Rh240  1  0.40251226  0.40766029  0.00856280  1
  Rh  Rh241  1  0.61226310  0.40497420  0.78569933  1
  Rh  Rh242  1  0.79833071  0.20491413  0.59584769  1
  Rh  Rh243  1  0.20918840  0.60432715  0.80844782  1
  Rh  Rh244  1  0.40381094  0.00421529  0.39854961  1
  Rh  Rh245  1  0.59495217  0.19590455  0.59652925  1
  Rh  Rh246  1  0.79870547  0.78740070  -0.00245783  1
  Rh  Rh247  1  0.79345154  0.79528535  0.40627951  1
  Rh  Rh248  1  0.39505318  0.40409972  0.19576314  1
  Rh  Rh249  1  0.61259987  0.01023735  0.78860597  1
