# generated using pymatgen
data_ZrScNbPdRh
_symmetry_space_group_name_H-M   'P 1'
_cell_length_a   16.54792062
_cell_length_b   16.54785498
_cell_length_c   16.54860661
_cell_angle_alpha   89.97603533
_cell_angle_beta   90.00155919
_cell_angle_gamma   90.00386127
_symmetry_Int_Tables_number   1
_chemical_formula_structural   ZrScNbPdRh
_chemical_formula_sum   'Zr50 Sc50 Nb50 Pd50 Rh50'
_cell_volume   4531.54741031
_cell_formula_units_Z   50
loop_
 _symmetry_equiv_pos_site_id
 _symmetry_equiv_pos_as_xyz
  1  'x, y, z'
loop_
 _atom_site_type_symbol
 _atom_site_label
 _atom_site_symmetry_multiplicity
 _atom_site_fract_x
 _atom_site_fract_y
 _atom_site_fract_z
 _atom_site_occupancy
  Zr  Zr0  1  0.30341501  0.50157323  0.70051898  1
  Zr  Zr1  1  0.88895582  0.09493560  0.69460886  1
  Zr  Zr2  1  0.90504284  0.69934402  0.90707891  1
  Zr  Zr3  1  0.89685599  0.90036712  0.49496734  1
  Zr  Zr4  1  0.08890646  0.09330950  0.90212321  1
  Zr  Zr5  1  0.30230798  0.90586759  0.29871729  1
  Zr  Zr6  1  0.10733894  0.49402779  0.30010165  1
  Zr  Zr7  1  0.30332463  0.09983526  0.69723291  1
  Zr  Zr8  1  0.29948490  0.50046852  0.91113282  1
  Zr  Zr9  1  0.89694142  0.50574406  0.29439918  1
  Zr  Zr10  1  0.90032226  0.71289742  0.50256226  1
  Zr  Zr11  1  0.08899157  0.30365501  0.90056114  1
  Zr  Zr12  1  0.69910774  0.70565543  0.90288074  1
  Zr  Zr13  1  0.30222457  0.50112031  0.49350530  1
  Zr  Zr14  1  0.30935450  0.89635748  0.89472233  1
  Zr  Zr15  1  0.69480296  0.30397402  0.29911647  1
  Zr  Zr16  1  0.69702885  0.29993023  0.90335517  1
  Zr  Zr17  1  0.09515777  0.69912445  0.10073859  1
  Zr  Zr18  1  0.09937188  0.89642327  0.70734081  1
  Zr  Zr19  1  0.89578943  0.89624177  0.90338627  1
  Zr  Zr20  1  0.29836931  0.90587203  0.69637580  1
  Zr  Zr21  1  0.70044686  0.70051608  0.10290249  1
  Zr  Zr22  1  0.29904101  0.49836107  0.29899819  1
  Zr  Zr23  1  0.90498385  0.49381083  0.90242355  1
  Zr  Zr24  1  0.50046492  0.49449543  0.30196620  1
  Zr  Zr25  1  0.10236115  0.70596334  0.89505631  1
  Zr  Zr26  1  0.51063131  0.30169163  0.49571064  1
  Zr  Zr27  1  0.49555865  0.30481366  0.89851012  1
  Zr  Zr28  1  0.90577059  0.70372620  0.30114704  1
  Zr  Zr29  1  0.49787660  0.09867024  0.90915142  1
  Zr  Zr30  1  0.69515097  0.89999745  0.90027197  1
  Zr  Zr31  1  0.09395335  0.09507702  0.69844688  1
  Zr  Zr32  1  0.30323982  0.70744534  0.30235367  1
  Zr  Zr33  1  0.89875721  0.90214509  0.29726645  1
  Zr  Zr34  1  0.70209390  0.09388519  0.89264662  1
  Zr  Zr35  1  0.70016451  0.10102092  0.30561758  1
  Zr  Zr36  1  0.29643642  0.30068277  0.30153912  1
  Zr  Zr37  1  0.89860175  0.89551684  0.69037229  1
  Zr  Zr38  1  0.09704752  0.70250345  0.29570489  1
  Zr  Zr39  1  0.70656088  0.69170895  0.69805786  1
  Zr  Zr40  1  0.69271586  0.91363773  0.70325375  1
  Zr  Zr41  1  0.49181062  0.70971382  0.90625709  1
  Zr  Zr42  1  0.70186485  0.29124092  0.69762125  1
  Zr  Zr43  1  0.69415760  0.09633123  0.10558936  1
  Zr  Zr44  1  0.08966742  0.30312791  0.50016148  1
  Zr  Zr45  1  0.49652473  0.89687344  0.30779013  1
  Zr  Zr46  1  0.30094075  0.10465198  0.30733117  1
  Zr  Zr47  1  0.49062557  0.90894436  0.10476742  1
  Zr  Zr48  1  0.09778817  0.10676456  0.49461989  1
  Zr  Zr49  1  0.10103563  0.70883631  0.49704887  1
  Sc  Sc50  1  0.30078678  0.09648822  0.49529671  1
  Sc  Sc51  1  0.50583622  0.29684112  0.69852945  1
  Sc  Sc52  1  0.50192139  0.70128132  0.29760697  1
  Sc  Sc53  1  0.49878598  0.49720942  0.50065603  1
  Sc  Sc54  1  0.50107675  0.70286926  0.69463053  1
  Sc  Sc55  1  0.49211467  0.50564986  0.10033913  1
  Sc  Sc56  1  0.70607383  0.89806952  0.09567539  1
  Sc  Sc57  1  0.49560786  0.70199792  0.10765172  1
  Sc  Sc58  1  0.89807110  0.49105098  0.50535319  1
  Sc  Sc59  1  0.69946690  0.50109960  0.28925966  1
  Sc  Sc60  1  0.89094082  0.50123587  0.69887958  1
  Sc  Sc61  1  0.90577288  0.29863136  0.30486487  1
  Sc  Sc62  1  0.89737042  0.89535616  0.10507099  1
  Sc  Sc63  1  0.90031070  0.29245637  0.50196110  1
  Sc  Sc64  1  0.10401916  0.29842134  0.30373023  1
  Sc  Sc65  1  0.10378645  0.90296696  0.50051872  1
  Sc  Sc66  1  0.31724974  0.29965666  0.70759563  1
  Sc  Sc67  1  0.09839271  0.50244048  0.91161639  1
  Sc  Sc68  1  0.30990284  0.10215809  0.89649192  1
  Sc  Sc69  1  0.70050475  0.49584862  0.69215953  1
  Sc  Sc70  1  0.50398618  0.09937265  0.69569387  1
  Sc  Sc71  1  0.09527343  0.49746917  0.70548269  1
  Sc  Sc72  1  0.89913254  0.09690576  0.90201202  1
  Sc  Sc73  1  0.49695088  0.49081289  0.69604182  1
  Sc  Sc74  1  0.69905317  0.49031098  0.90279813  1
  Sc  Sc75  1  0.69809078  0.31833541  0.10577314  1
  Sc  Sc76  1  0.50266448  0.69999381  0.49418672  1
  Sc  Sc77  1  0.30760252  0.69241916  0.10075481  1
  Sc  Sc78  1  0.11071490  0.10259799  0.29963690  1
  Sc  Sc79  1  0.90523070  0.49467045  0.10432971  1
  Sc  Sc80  1  0.49827604  0.10512852  0.49829126  1
  Sc  Sc81  1  0.30867091  0.29830465  0.90287089  1
  Sc  Sc82  1  0.89935982  0.08445544  0.09776323  1
  Sc  Sc83  1  0.69633370  0.69905748  0.49721551  1
  Sc  Sc84  1  0.90565223  0.29929254  0.69543967  1
  Sc  Sc85  1  0.30916450  0.29457514  0.48972451  1
  Sc  Sc86  1  0.89459334  0.10486115  0.49560914  1
  Sc  Sc87  1  0.70038064  0.29519586  0.50165852  1
  Sc  Sc88  1  0.69916948  0.69486451  0.30075318  1
  Sc  Sc89  1  0.69851341  0.90305672  0.30387866  1
  Sc  Sc90  1  0.50840408  0.29852804  0.30497390  1
  Sc  Sc91  1  0.29608581  0.29893371  0.09010658  1
  Sc  Sc92  1  0.70387797  0.10326365  0.50091447  1
  Sc  Sc93  1  0.29942150  0.09014974  0.09942669  1
  Sc  Sc94  1  0.10881595  0.89761305  0.28963949  1
  Sc  Sc95  1  0.09802539  0.30510721  0.09927338  1
  Sc  Sc96  1  0.90749949  0.30043947  0.90868744  1
  Sc  Sc97  1  0.90530289  0.69807752  0.10896372  1
  Sc  Sc98  1  0.69344062  0.90229742  0.49642288  1
  Sc  Sc99  1  0.69580352  0.49662304  0.50370174  1
  Nb  Nb100  1  0.10278875  0.50164942  0.50154823  1
  Nb  Nb101  1  0.30014784  0.70344195  0.50293604  1
  Nb  Nb102  1  0.90215360  0.70252289  0.69862664  1
  Nb  Nb103  1  0.89893495  0.29661797  0.09980962  1
  Nb  Nb104  1  0.30824974  0.90017023  0.49349680  1
  Nb  Nb105  1  0.09975837  0.70431011  0.70162060  1
  Nb  Nb106  1  0.10980443  0.49954582  0.10240566  1
  Nb  Nb107  1  0.29835707  0.70044618  0.89541948  1
  Nb  Nb108  1  0.70639589  0.50047707  0.09955090  1
  Nb  Nb109  1  0.50010309  0.10291358  0.10444685  1
  Nb  Nb110  1  0.10014171  0.89629098  0.90116950  1
  Nb  Nb111  1  0.10031833  0.09648803  0.09549987  1
  Nb  Nb112  1  0.29313008  0.49446765  0.10337249  1
  Nb  Nb113  1  0.49969227  0.29499061  0.10147148  1
  Nb  Nb114  1  0.10022179  0.29946417  0.70145250  1
  Nb  Nb115  1  0.29149606  0.89861772  0.10934332  1
  Nb  Nb116  1  0.50370293  0.90019180  0.89139541  1
  Nb  Nb117  1  0.89670904  0.09820751  0.29773417  1
  Nb  Nb118  1  0.11599548  0.90908489  0.09737628  1
  Nb  Nb119  1  0.70330917  0.10083567  0.70218609  1
  Nb  Nb120  1  0.49519575  0.89669223  0.50515854  1
  Nb  Nb121  1  0.50612346  0.10097818  0.28700757  1
  Nb  Nb122  1  0.49901478  0.90285902  0.69428614  1
  Nb  Nb123  1  0.28926473  0.70198730  0.70475063  1
  Nb  Nb124  1  0.49756922  0.50471168  0.89768099  1
  Nb  Nb125  1  0.60113456  0.59833812  -0.00240782  1
  Nb  Nb126  1  0.79917931  0.39425766  0.80205157  1
  Nb  Nb127  1  -0.00344259  0.19243233  0.19464482  1
  Nb  Nb128  1  0.40495259  0.19991606  0.19764636  1
  Nb  Nb129  1  0.19978854  0.39851212  0.60190767  1
  Nb  Nb130  1  0.80394071  0.20037300  0.19717354  1
  Nb  Nb131  1  0.79855706  0.39859792  0.39594985  1
  Nb  Nb132  1  -0.00275724  0.00189455  0.39210961  1
  Nb  Nb133  1  0.19838556  0.39383998  0.79887914  1
  Nb  Nb134  1  -0.00121614  0.60838718  0.79506055  1
  Nb  Nb135  1  0.20228019  0.80511253  -0.00168048  1
  Nb  Nb136  1  0.19793943  0.20783717  0.60670337  1
  Nb  Nb137  1  0.39675837  0.60581526  0.80390221  1
  Nb  Nb138  1  0.79584666  0.59557145  0.00316493  1
  Nb  Nb139  1  0.39758250  0.39453699  0.19729538  1
  Nb  Nb140  1  0.00353937  0.59813663  0.40608253  1
  Nb  Nb141  1  0.59910513  0.20113186  0.00658382  1
  Nb  Nb142  1  0.19816394  0.60247993  0.60026699  1
  Nb  Nb143  1  0.80099894  0.79642207  0.79610203  1
  Nb  Nb144  1  0.39383379  0.80354647  0.59740735  1
  Nb  Nb145  1  0.00502325  0.60635672  0.60065470  1
  Nb  Nb146  1  0.79535081  0.20134655  0.00834808  1
  Nb  Nb147  1  0.59447191  0.59877943  0.80683811  1
  Nb  Nb148  1  0.19015330  0.19322647  -0.00659369  1
  Nb  Nb149  1  0.19457946  0.20211528  0.79938498  1
  Pd  Pd150  1  0.19966639  0.80755912  0.39744624  1
  Pd  Pd151  1  -0.00242955  0.00065097  0.58850745  1
  Pd  Pd152  1  -0.01033612  -0.00682463  0.80003263  1
  Pd  Pd153  1  0.78398735  0.80619507  0.60292533  1
  Pd  Pd154  1  0.79618745  0.79742973  0.20653375  1
  Pd  Pd155  1  0.20330139  0.80209973  0.59872392  1
  Pd  Pd156  1  0.60454567  0.40597480  0.79303240  1
  Pd  Pd157  1  0.20126763  0.60961680  0.00424966  1
  Pd  Pd158  1  -0.00588338  0.19761224  0.79482235  1
  Pd  Pd159  1  0.60068857  0.80673915  0.20046417  1
  Pd  Pd160  1  0.00159667  0.39412427  0.20070696  1
  Pd  Pd161  1  0.21032762  0.00071676  -0.01192771  1
  Pd  Pd162  1  0.00877148  0.00074365  0.20279534  1
  Pd  Pd163  1  0.40931605  0.00382077  0.79524586  1
  Pd  Pd164  1  0.39731820  0.39144264  0.59329616  1
  Pd  Pd165  1  0.80715739  0.59969196  0.58871042  1
  Pd  Pd166  1  0.59287819  0.00430456  0.40533047  1
  Pd  Pd167  1  0.59923503  0.79946746  0.60009500  1
  Pd  Pd168  1  0.40399920  0.40294508  0.00732874  1
  Pd  Pd169  1  0.39799844  0.60905111  0.60464822  1
  Pd  Pd170  1  0.20136919  0.00493347  0.80765345  1
  Pd  Pd171  1  0.59018500  0.80260705  0.01018092  1
  Pd  Pd172  1  -0.00446859  -0.01138038  0.00379554  1
  Pd  Pd173  1  0.19731952  0.60435583  0.40255859  1
  Pd  Pd174  1  0.79956685  0.59472561  0.80787062  1
  Pd  Pd175  1  0.60367930  -0.01077653  0.20186944  1
  Pd  Pd176  1  0.00593061  0.80804062  0.01030837  1
  Pd  Pd177  1  0.59977283  0.00901420  0.59259026  1
  Pd  Pd178  1  0.59187940  0.19378359  0.80521674  1
  Pd  Pd179  1  0.80526964  0.59332100  0.40801542  1
  Pd  Pd180  1  0.59882559  -0.00071116  0.00204266  1
  Pd  Pd181  1  0.20473024  0.60591348  0.20027887  1
  Pd  Pd182  1  0.39841318  0.20259049  0.59732091  1
  Pd  Pd183  1  0.81149456  0.20695839  0.80849068  1
  Pd  Pd184  1  0.60094979  0.59459041  0.39930123  1
  Pd  Pd185  1  0.59360408  0.59625988  0.60467164  1
  Pd  Pd186  1  0.59745267  0.59564980  0.19396171  1
  Pd  Pd187  1  0.78966572  0.79971359  0.39505495  1
  Pd  Pd188  1  0.20033769  0.19990862  0.18712320  1
  Pd  Pd189  1  0.60334203  0.79495619  0.79085486  1
  Pd  Pd190  1  0.20155159  0.00586090  0.59119919  1
  Pd  Pd191  1  0.19636426  0.59018541  0.79796810  1
  Pd  Pd192  1  0.40438183  0.60526224  0.39639207  1
  Pd  Pd193  1  0.40876760  0.00722781  0.39959048  1
  Pd  Pd194  1  0.00023656  0.40677828  0.60596988  1
  Pd  Pd195  1  0.58995613  0.40470814  0.00720759  1
  Pd  Pd196  1  -0.00704284  0.40660024  0.39832233  1
  Pd  Pd197  1  0.39565600  -0.00433710  0.00225850  1
  Pd  Pd198  1  0.40208165  0.79698372  0.78660441  1
  Pd  Pd199  1  0.39367233  0.80551719  0.00958245  1
  Rh  Rh200  1  0.59117987  0.00455645  0.79917720  1
  Rh  Rh201  1  0.20137911  0.39434946  0.41096825  1
  Rh  Rh202  1  -0.00378898  0.40764356  0.79467572  1
  Rh  Rh203  1  0.40261549  0.79603414  0.40540280  1
  Rh  Rh204  1  0.39862715  0.80318749  0.19944048  1
  Rh  Rh205  1  0.39944426  0.19691646  0.00836185  1
  Rh  Rh206  1  0.00431364  0.40638144  0.01251151  1
  Rh  Rh207  1  0.20421843  0.39386902  0.19609879  1
  Rh  Rh208  1  0.20210603  0.80779617  0.80542023  1
  Rh  Rh209  1  0.79237080  0.00139291  0.20079889  1
  Rh  Rh210  1  0.19534716  -0.00565014  0.39884828  1
  Rh  Rh211  1  0.80444506  0.00074777  0.40152437  1
  Rh  Rh212  1  -0.00028203  0.19086966  0.38767715  1
  Rh  Rh213  1  0.41192572  0.19763745  0.38933620  1
  Rh  Rh214  1  -0.00307491  0.19349179  0.01154236  1
  Rh  Rh215  1  0.00526965  0.80830633  0.39283410  1
  Rh  Rh216  1  0.60306133  0.20588973  0.19636324  1
  Rh  Rh217  1  0.20416986  0.00946020  0.20529265  1
  Rh  Rh218  1  0.80093947  0.19917564  0.59994577  1
  Rh  Rh219  1  0.39458336  0.40925389  0.80565573  1
  Rh  Rh220  1  0.80447529  -0.00905257  0.79952213  1
  Rh  Rh221  1  0.79792001  0.39114116  0.59959369  1
  Rh  Rh222  1  0.60022138  0.19318938  0.40152510  1
  Rh  Rh223  1  0.40120122  0.60015665  -0.00280991  1
  Rh  Rh224  1  0.80702192  0.39907945  -0.00279199  1
  Rh  Rh225  1  0.40328634  0.39688566  0.39427596  1
  Rh  Rh226  1  0.40268788  -0.00372576  0.59638729  1
  Rh  Rh227  1  0.00839543  0.80192552  0.60134050  1
  Rh  Rh228  1  0.19630351  0.20825325  0.41220257  1
  Rh  Rh229  1  0.80236868  0.60400005  0.19264768  1
  Rh  Rh230  1  0.58806391  0.40699953  0.19345634  1
  Rh  Rh231  1  0.79780235  0.20791231  0.39182726  1
  Rh  Rh232  1  0.00026315  0.19303168  0.60401348  1
  Rh  Rh233  1  0.00713704  0.81241196  0.19410880  1
  Rh  Rh234  1  0.39573597  0.00646159  0.20436639  1
  Rh  Rh235  1  0.20237824  0.79052289  0.19052584  1
  Rh  Rh236  1  0.60915130  0.40546441  0.40237062  1
  Rh  Rh237  1  0.00790360  0.59055958  0.20362758  1
  Rh  Rh238  1  0.80590601  0.39447635  0.20791066  1
  Rh  Rh239  1  0.39585189  0.59235819  0.20562387  1
  Rh  Rh240  1  0.19544124  0.39119415  -0.00547462  1
  Rh  Rh241  1  -0.00287561  0.59288961  0.00238200  1
  Rh  Rh242  1  -0.00821711  0.79964834  0.79850436  1
  Rh  Rh243  1  0.40481672  0.19542740  0.79734079  1
  Rh  Rh244  1  0.80411044  0.79207315  -0.00043924  1
  Rh  Rh245  1  0.59982615  0.39514104  0.60081013  1
  Rh  Rh246  1  0.79297945  -0.00061221  0.59451477  1
  Rh  Rh247  1  0.79852238  0.00310276  -0.00030782  1
  Rh  Rh248  1  0.59861785  0.79966743  0.39913139  1
  Rh  Rh249  1  0.60373671  0.19525883  0.59957278  1
