# generated using pymatgen
data_ZrScNbPdRh
_symmetry_space_group_name_H-M   'P 1'
_cell_length_a   16.55679259
_cell_length_b   16.56074821
_cell_length_c   16.56300954
_cell_angle_alpha   90.01390089
_cell_angle_beta   89.97626547
_cell_angle_gamma   89.98534683
_symmetry_Int_Tables_number   1
_chemical_formula_structural   ZrScNbPdRh
_chemical_formula_sum   'Zr50 Sc50 Nb50 Pd50 Rh50'
_cell_volume   4541.45850445
_cell_formula_units_Z   50
loop_
 _symmetry_equiv_pos_site_id
 _symmetry_equiv_pos_as_xyz
  1  'x, y, z'
loop_
 _atom_site_type_symbol
 _atom_site_label
 _atom_site_symmetry_multiplicity
 _atom_site_fract_x
 _atom_site_fract_y
 _atom_site_fract_z
 _atom_site_occupancy
  Zr  Zr0  1  0.90103947  0.69363926  0.28788021  1
  Zr  Zr1  1  0.10416700  0.89207730  0.29446534  1
  Zr  Zr2  1  0.90443234  0.90611467  0.30433524  1
  Zr  Zr3  1  0.50096783  0.70431982  0.70228193  1
  Zr  Zr4  1  0.29597124  0.48757504  0.28843226  1
  Zr  Zr5  1  0.50011570  0.70271778  0.29814621  1
  Zr  Zr6  1  0.30178337  0.68758107  0.09705391  1
  Zr  Zr7  1  0.70405764  0.29094475  0.09847247  1
  Zr  Zr8  1  0.51058110  0.49749420  0.49898270  1
  Zr  Zr9  1  0.51092713  0.30648207  0.09546940  1
  Zr  Zr10  1  0.09943241  0.69527749  0.29647079  1
  Zr  Zr11  1  0.30434398  0.09431739  0.90439973  1
  Zr  Zr12  1  0.90239784  0.89506219  0.49896376  1
  Zr  Zr13  1  0.29204617  0.29400753  0.49094079  1
  Zr  Zr14  1  0.10835117  0.10555766  0.69816839  1
  Zr  Zr15  1  0.70327644  0.89537441  0.50433687  1
  Zr  Zr16  1  0.10442889  0.50358872  0.70988535  1
  Zr  Zr17  1  0.30220940  0.30072220  0.70148736  1
  Zr  Zr18  1  0.09480083  0.49864215  0.48687702  1
  Zr  Zr19  1  0.30014141  0.10315022  0.70113132  1
  Zr  Zr20  1  0.48990257  0.09599194  0.29832198  1
  Zr  Zr21  1  0.69390075  0.90356528  0.09415930  1
  Zr  Zr22  1  0.28962098  0.10298182  0.50204806  1
  Zr  Zr23  1  0.90226110  0.50357868  0.30120487  1
  Zr  Zr24  1  0.90832177  0.89906208  0.90014717  1
  Zr  Zr25  1  0.50551130  0.90421680  0.50608363  1
  Zr  Zr26  1  0.30003719  0.90496468  0.50364548  1
  Zr  Zr27  1  0.09741723  0.70299502  0.09463055  1
  Zr  Zr28  1  0.69795762  0.31213645  0.50287394  1
  Zr  Zr29  1  0.90163183  0.30593307  0.69965507  1
  Zr  Zr30  1  0.10693803  0.09222917  0.89826952  1
  Zr  Zr31  1  0.89382514  0.70516045  0.50265331  1
  Zr  Zr32  1  0.89981789  0.09545220  0.49219916  1
  Zr  Zr33  1  0.69933385  0.09986233  0.70280674  1
  Zr  Zr34  1  0.70221231  0.50170811  0.30800308  1
  Zr  Zr35  1  0.29243381  0.50675145  0.90189522  1
  Zr  Zr36  1  0.70175094  0.30758905  0.28756956  1
  Zr  Zr37  1  0.30467572  0.90173028  0.90104112  1
  Zr  Zr38  1  0.90096108  0.89864270  0.10124829  1
  Zr  Zr39  1  0.10226996  0.70202611  0.48903584  1
  Zr  Zr40  1  0.10188508  0.09562090  0.10018447  1
  Zr  Zr41  1  0.50053056  0.10083043  0.49293501  1
  Zr  Zr42  1  0.90397735  0.30862139  0.50390790  1
  Zr  Zr43  1  0.69343544  0.10013407  0.50295041  1
  Zr  Zr44  1  0.49920442  0.49827332  0.30504900  1
  Zr  Zr45  1  0.10725740  0.29764291  0.09901597  1
  Zr  Zr46  1  0.89639063  0.10464954  0.70253876  1
  Zr  Zr47  1  0.89395522  0.50096641  0.49817899  1
  Zr  Zr48  1  0.49792366  0.30915939  0.70182959  1
  Zr  Zr49  1  0.90062958  0.70346635  0.69823231  1
  Sc  Sc50  1  0.29924207  0.90580817  0.29349989  1
  Sc  Sc51  1  0.50167659  0.29790883  0.89715398  1
  Sc  Sc52  1  0.08825080  0.89377105  0.70293996  1
  Sc  Sc53  1  0.28987620  0.70646934  0.29791753  1
  Sc  Sc54  1  0.49410034  0.89122334  0.09915968  1
  Sc  Sc55  1  0.10194241  0.89919969  0.09369974  1
  Sc  Sc56  1  0.90552180  0.50486458  0.89507683  1
  Sc  Sc57  1  0.89965133  0.30028938  0.88918776  1
  Sc  Sc58  1  0.49350985  0.70309638  0.90272201  1
  Sc  Sc59  1  0.69789755  0.50052812  0.69871241  1
  Sc  Sc60  1  0.89557057  0.49955649  0.70239838  1
  Sc  Sc61  1  0.29454263  0.29583424  0.90382652  1
  Sc  Sc62  1  0.31094804  0.90184722  0.70182972  1
  Sc  Sc63  1  0.29582315  0.89892112  0.09641771  1
  Sc  Sc64  1  0.11429807  0.30883480  0.31033736  1
  Sc  Sc65  1  0.30376441  0.51225968  0.50244958  1
  Sc  Sc66  1  0.69267252  0.47997572  0.11390842  1
  Sc  Sc67  1  0.89346674  0.09937286  0.10511019  1
  Sc  Sc68  1  0.70219017  0.09461113  0.30274646  1
  Sc  Sc69  1  0.89889375  0.29837394  0.29208875  1
  Sc  Sc70  1  0.70053117  0.30176712  0.70039249  1
  Sc  Sc71  1  0.10548232  0.30427253  0.49817601  1
  Sc  Sc72  1  0.49928607  0.10837389  0.70288602  1
  Sc  Sc73  1  0.50044338  0.89825606  0.70136957  1
  Sc  Sc74  1  0.69567229  0.09325818  0.90763146  1
  Sc  Sc75  1  0.09565062  0.69883753  0.70288659  1
  Sc  Sc76  1  0.09932444  0.08974343  0.29729203  1
  Sc  Sc77  1  0.89557477  0.09598571  0.89535952  1
  Sc  Sc78  1  0.69651487  0.49511556  0.89403906  1
  Sc  Sc79  1  0.90087310  0.89294600  0.69814754  1
  Sc  Sc80  1  0.90856178  0.51218893  0.10516780  1
  Sc  Sc81  1  0.49726809  0.10065842  0.90600688  1
  Sc  Sc82  1  0.11580192  0.50735851  0.09849570  1
  Sc  Sc83  1  0.70710683  0.69761767  0.29813257  1
  Sc  Sc84  1  0.68835534  0.89879136  0.69957306  1
  Sc  Sc85  1  0.69010924  0.30049124  0.90662378  1
  Sc  Sc86  1  0.09815040  0.90082925  0.48665746  1
  Sc  Sc87  1  0.89874670  0.09323565  0.29229227  1
  Sc  Sc88  1  0.70698952  0.89982379  0.29671263  1
  Sc  Sc89  1  0.50528854  0.49086340  0.89842146  1
  Sc  Sc90  1  0.50163820  0.30221963  0.50204626  1
  Sc  Sc91  1  0.49922965  0.68855276  0.50237084  1
  Sc  Sc92  1  0.89684870  0.28962552  0.10859268  1
  Sc  Sc93  1  0.30108399  0.69546979  0.69813888  1
  Sc  Sc94  1  0.09980632  0.50822597  0.89735236  1
  Sc  Sc95  1  0.70019658  0.69722232  0.69470517  1
  Sc  Sc96  1  0.49101444  0.30085502  0.30930343  1
  Sc  Sc97  1  0.91341254  0.69411634  0.90368667  1
  Sc  Sc98  1  0.68847553  0.69430559  0.89487726  1
  Sc  Sc99  1  0.30309174  0.70031550  0.90354282  1
  Nb  Nb100  1  0.09717657  0.30123146  0.89829028  1
  Nb  Nb101  1  0.89558505  0.69700797  0.09849021  1
  Nb  Nb102  1  0.30034138  0.30841104  0.10613744  1
  Nb  Nb103  1  0.69863218  0.70009839  0.10314202  1
  Nb  Nb104  1  0.29667493  0.70687272  0.49807603  1
  Nb  Nb105  1  0.10118328  0.70265562  0.89932016  1
  Nb  Nb106  1  0.49705733  0.09680485  0.09839994  1
  Nb  Nb107  1  0.50396111  0.89864806  0.90180587  1
  Nb  Nb108  1  0.69957619  0.69549110  0.50215218  1
  Nb  Nb109  1  0.10502063  0.89386734  0.90657247  1
  Nb  Nb110  1  0.31438348  0.10010086  0.10218444  1
  Nb  Nb111  1  0.69269491  0.09902005  0.10003451  1
  Nb  Nb112  1  0.09889248  0.30487717  0.70799291  1
  Nb  Nb113  1  0.70086896  0.51015024  0.49858165  1
  Nb  Nb114  1  0.29985567  0.29599383  0.29968233  1
  Nb  Nb115  1  0.29750643  0.49854948  0.70433950  1
  Nb  Nb116  1  0.09654579  0.50092287  0.29966522  1
  Nb  Nb117  1  0.49848307  0.69299805  0.10136526  1
  Nb  Nb118  1  0.49076984  0.49357288  0.69774449  1
  Nb  Nb119  1  0.30528047  0.49913132  0.09866952  1
  Nb  Nb120  1  0.49863397  0.89843152  0.30156682  1
  Nb  Nb121  1  0.69875810  0.89888121  0.90330549  1
  Nb  Nb122  1  0.30697801  0.10905757  0.29798194  1
  Nb  Nb123  1  0.10289143  0.10437888  0.50197917  1
  Nb  Nb124  1  0.49126611  0.50307112  0.10510898  1
  Nb  Nb125  1  0.00002872  0.00820198  0.59652041  1
  Nb  Nb126  1  0.59622046  0.60171759  0.19664400  1
  Nb  Nb127  1  0.59799000  0.59786830  0.01289516  1
  Nb  Nb128  1  0.79104970  0.59998418  0.00734042  1
  Nb  Nb129  1  0.00521764  0.20283002  -0.00500474  1
  Nb  Nb130  1  0.59182284  0.00143889  0.19664261  1
  Nb  Nb131  1  0.59723117  0.79878568  0.40190343  1
  Nb  Nb132  1  0.00082958  0.39524027  0.00313403  1
  Nb  Nb133  1  0.21376337  0.19909410  0.19946547  1
  Nb  Nb134  1  0.79647259  0.79305754  -0.00138620  1
  Nb  Nb135  1  0.79675045  0.80201020  0.81110112  1
  Nb  Nb136  1  0.00056278  0.19821448  0.40366379  1
  Nb  Nb137  1  0.19845876  0.80030763  0.80315469  1
  Nb  Nb138  1  0.20126929  0.40481331  0.60699195  1
  Nb  Nb139  1  0.20090594  0.79818429  0.59923984  1
  Nb  Nb140  1  0.40134076  0.59076264  0.79446042  1
  Nb  Nb141  1  0.00983410  0.40299981  0.19824185  1
  Nb  Nb142  1  0.40334340  0.80325754  0.40214352  1
  Nb  Nb143  1  0.39543013  0.40412221  0.00823394  1
  Nb  Nb144  1  0.80744546  0.40328811  0.00362107  1
  Nb  Nb145  1  0.00465605  0.20058696  0.59984370  1
  Nb  Nb146  1  -0.00004486  0.59969260  0.59482913  1
  Nb  Nb147  1  0.80097711  0.20308496  0.40274820  1
  Nb  Nb148  1  0.80269799  0.00048333  0.60003553  1
  Nb  Nb149  1  0.59522805  0.19199258  0.19714359  1
  Pd  Pd150  1  0.60235517  0.80035639  0.80253134  1
  Pd  Pd151  1  0.39184720  -0.00223519  0.40020159  1
  Pd  Pd152  1  0.20856516  0.00480668  0.19499545  1
  Pd  Pd153  1  0.00385094  0.00069206  0.79519383  1
  Pd  Pd154  1  0.60557446  -0.00849766  0.39153672  1
  Pd  Pd155  1  0.60200237  0.19979742  0.80441495  1
  Pd  Pd156  1  0.00031612  0.80164108  0.19770562  1
  Pd  Pd157  1  0.59490652  0.20459596  0.60385917  1
  Pd  Pd158  1  0.79483268  0.39709527  0.80635955  1
  Pd  Pd159  1  0.41106309  0.00232553  0.80068083  1
  Pd  Pd160  1  0.40543960  0.21120965  0.19433969  1
  Pd  Pd161  1  0.39683317  0.80018142  0.00217064  1
  Pd  Pd162  1  0.20285405  0.19329354  0.00505844  1
  Pd  Pd163  1  0.79941755  0.80477914  0.19602922  1
  Pd  Pd164  1  0.40136154  0.60053322  0.60399707  1
  Pd  Pd165  1  0.80232794  0.39496937  0.39699936  1
  Pd  Pd166  1  0.60652371  0.20871888  0.38938923  1
  Pd  Pd167  1  0.79676425  -0.01135371  0.79331562  1
  Pd  Pd168  1  0.01040773  0.40565640  0.60679848  1
  Pd  Pd169  1  0.19860713  0.40338692  -0.00486631  1
  Pd  Pd170  1  0.59834902  0.59603873  0.60653983  1
  Pd  Pd171  1  0.80210570  0.60848997  0.80903171  1
  Pd  Pd172  1  0.80333486  0.19954993  0.59410800  1
  Pd  Pd173  1  0.19778082  -0.01340088  0.79213212  1
  Pd  Pd174  1  0.18972069  -0.01426216  0.60764890  1
  Pd  Pd175  1  0.59977372  0.79287578  -0.00253753  1
  Pd  Pd176  1  0.19181508  0.60195911  0.59971735  1
  Pd  Pd177  1  0.40235684  0.21076376  0.00047362  1
  Pd  Pd178  1  0.39038703  0.60675689  0.39223920  1
  Pd  Pd179  1  0.39399924  0.40137946  0.81436415  1
  Pd  Pd180  1  0.79733673  0.79459492  0.39372320  1
  Pd  Pd181  1  0.58960341  0.59554665  0.80016701  1
  Pd  Pd182  1  0.80294159  -0.00271563  0.00167791  1
  Pd  Pd183  1  0.80858832  0.20389464  -0.00818239  1
  Pd  Pd184  1  -0.00407569  0.00789959  0.00181266  1
  Pd  Pd185  1  0.60213058  0.80143378  0.20472522  1
  Pd  Pd186  1  0.39124600  0.80048592  0.20061273  1
  Pd  Pd187  1  0.38994909  0.40027887  0.58961388  1
  Pd  Pd188  1  0.40304265  0.20143053  0.59499117  1
  Pd  Pd189  1  0.40769908  0.01005701  0.60412499  1
  Pd  Pd190  1  0.20305964  0.00339043  0.39332732  1
  Pd  Pd191  1  0.59246418  0.00189430  0.80376972  1
  Pd  Pd192  1  0.39769265  0.79599776  0.59637637  1
  Pd  Pd193  1  0.39323718  0.40248886  0.40887972  1
  Pd  Pd194  1  0.00202818  0.19719686  0.80157958  1
  Pd  Pd195  1  0.78869863  0.20577450  0.80999417  1
  Pd  Pd196  1  0.20885585  0.59441434  0.39158379  1
  Pd  Pd197  1  0.39654755  0.60174872  0.21125351  1
  Pd  Pd198  1  0.01487138  0.20579002  0.20777956  1
  Pd  Pd199  1  0.20410210  0.20241673  0.80471684  1
  Rh  Rh200  1  -0.00604073  0.79399507  0.39034477  1
  Rh  Rh201  1  0.20188069  0.79750225  0.19068207  1
  Rh  Rh202  1  0.20103547  0.60055718  0.20113615  1
  Rh  Rh203  1  0.80402260  0.59747929  0.59941362  1
  Rh  Rh204  1  0.79267098  0.40904463  0.60245269  1
  Rh  Rh205  1  0.58758097  0.39915244  0.21066384  1
  Rh  Rh206  1  0.00056920  0.79746292  0.80899631  1
  Rh  Rh207  1  0.59866412  0.79114546  0.59293472  1
  Rh  Rh208  1  0.19306379  0.18818366  0.38674902  1
  Rh  Rh209  1  0.39600438  0.79505826  0.80169926  1
  Rh  Rh210  1  0.00694046  0.00374337  0.39897642  1
  Rh  Rh211  1  0.39641982  0.19922463  0.80423331  1
  Rh  Rh212  1  0.40379369  -0.00691929  0.00207697  1
  Rh  Rh213  1  0.78814660  0.18919850  0.20879606  1
  Rh  Rh214  1  0.20046908  0.39613147  0.80085272  1
  Rh  Rh215  1  0.39771609  0.19889133  0.40726150  1
  Rh  Rh216  1  0.60715309  0.60894824  0.39383613  1
  Rh  Rh217  1  0.40108287  -0.00734164  0.19619474  1
  Rh  Rh218  1  0.19676115  0.60644077  -0.00157659  1
  Rh  Rh219  1  0.59584164  0.19230798  0.00223179  1
  Rh  Rh220  1  0.60214681  0.39796553  0.39916320  1
  Rh  Rh221  1  0.79257894  -0.00059689  0.19388866  1
  Rh  Rh222  1  0.19561483  0.39701385  0.19860935  1
  Rh  Rh223  1  -0.00428858  0.79738542  0.00077877  1
  Rh  Rh224  1  0.21091296  0.41172499  0.40696749  1
  Rh  Rh225  1  0.01341972  0.79828806  0.58927357  1
  Rh  Rh226  1  0.00027457  -0.00689565  0.19672044  1
  Rh  Rh227  1  0.21025533  0.80817008  0.40294482  1
  Rh  Rh228  1  0.78809235  0.59116185  0.19239915  1
  Rh  Rh229  1  0.00150645  0.40596153  0.80735067  1
  Rh  Rh230  1  0.20413590  0.79535066  -0.00426647  1
  Rh  Rh231  1  0.60337897  0.40609000  0.60290926  1
  Rh  Rh232  1  0.81830508  0.40910143  0.19090028  1
  Rh  Rh233  1  0.58965160  -0.00301520  0.00221647  1
  Rh  Rh234  1  0.60176899  0.39780093  0.79284671  1
  Rh  Rh235  1  -0.00317723  0.60233073  0.79099800  1
  Rh  Rh236  1  0.79307339  0.00332338  0.40641613  1
  Rh  Rh237  1  -0.00556782  0.39032715  0.38571604  1
  Rh  Rh238  1  0.00273888  0.59699856  0.00181778  1
  Rh  Rh239  1  0.80211847  0.60643752  0.40125137  1
  Rh  Rh240  1  0.40560959  0.39338875  0.19746403  1
  Rh  Rh241  1  0.19327820  0.21606069  0.60667892  1
  Rh  Rh242  1  -0.00840484  0.60825840  0.40344121  1
  Rh  Rh243  1  0.59970532  0.00770187  0.60855009  1
  Rh  Rh244  1  0.41085045  0.58864622  -0.01213323  1
  Rh  Rh245  1  0.20810790  0.61358778  0.80303154  1
  Rh  Rh246  1  0.79036429  0.80573131  0.61224128  1
  Rh  Rh247  1  0.20657198  0.00319856  0.00489976  1
  Rh  Rh248  1  0.60092355  0.40850749  -0.00047213  1
  Rh  Rh249  1  0.01247691  0.59676474  0.19373227  1
