# generated using pymatgen
data_ZrScNbPdRh
_symmetry_space_group_name_H-M   'P 1'
_cell_length_a   16.56059061
_cell_length_b   16.56101007
_cell_length_c   16.55562188
_cell_angle_alpha   89.99373915
_cell_angle_beta   89.99070218
_cell_angle_gamma   90.00389162
_symmetry_Int_Tables_number   1
_chemical_formula_structural   ZrScNbPdRh
_chemical_formula_sum   'Zr50 Sc50 Nb50 Pd50 Rh50'
_cell_volume   4540.54654493
_cell_formula_units_Z   50
loop_
 _symmetry_equiv_pos_site_id
 _symmetry_equiv_pos_as_xyz
  1  'x, y, z'
loop_
 _atom_site_type_symbol
 _atom_site_label
 _atom_site_symmetry_multiplicity
 _atom_site_fract_x
 _atom_site_fract_y
 _atom_site_fract_z
 _atom_site_occupancy
  Zr  Zr0  1  0.69885542  0.30076603  0.69777017  1
  Zr  Zr1  1  0.30255971  0.29747171  0.90576774  1
  Zr  Zr2  1  0.30113109  0.29997986  0.50497444  1
  Zr  Zr3  1  0.10247823  0.88551066  0.29726659  1
  Zr  Zr4  1  0.69970692  0.69665387  0.09444558  1
  Zr  Zr5  1  0.10253722  0.91219355  0.89812768  1
  Zr  Zr6  1  0.90118905  0.69956625  0.69634803  1
  Zr  Zr7  1  0.89924677  0.69448099  0.50282749  1
  Zr  Zr8  1  0.10355627  0.89416950  0.70188202  1
  Zr  Zr9  1  0.70455142  0.89772865  0.09203836  1
  Zr  Zr10  1  0.29512472  0.70510032  0.09349651  1
  Zr  Zr11  1  0.30210617  0.49565032  0.29927768  1
  Zr  Zr12  1  0.89230543  0.30586576  0.70613568  1
  Zr  Zr13  1  0.50130274  0.30674029  0.91046285  1
  Zr  Zr14  1  0.10117174  0.50921033  0.89726443  1
  Zr  Zr15  1  0.69576410  0.09316281  0.71274871  1
  Zr  Zr16  1  0.30232175  0.90195025  0.28645107  1
  Zr  Zr17  1  0.30030699  0.70125043  0.89244034  1
  Zr  Zr18  1  0.50447346  0.49816390  0.08459713  1
  Zr  Zr19  1  0.50409043  0.29521254  0.69736869  1
  Zr  Zr20  1  0.50562120  0.89795019  0.30333008  1
  Zr  Zr21  1  0.09408866  0.49615781  0.30687740  1
  Zr  Zr22  1  0.90014530  0.70315369  0.30717717  1
  Zr  Zr23  1  0.89955285  0.10358786  0.70156289  1
  Zr  Zr24  1  0.90448267  0.68936175  0.89838232  1
  Zr  Zr25  1  0.29743388  0.89603643  0.09767432  1
  Zr  Zr26  1  0.09346700  0.29949852  0.10311719  1
  Zr  Zr27  1  0.30130083  0.30464174  0.29509928  1
  Zr  Zr28  1  0.29580660  0.70989551  0.29606352  1
  Zr  Zr29  1  0.29813702  0.89902537  0.90166639  1
  Zr  Zr30  1  0.10361990  0.49910314  0.09825935  1
  Zr  Zr31  1  0.89627571  0.70635519  0.08811464  1
  Zr  Zr32  1  0.90321738  0.29998855  0.50804709  1
  Zr  Zr33  1  0.68804840  0.89668843  0.50775426  1
  Zr  Zr34  1  0.29831517  0.08791680  0.10734148  1
  Zr  Zr35  1  0.69631175  0.29879456  0.30662715  1
  Zr  Zr36  1  0.09799212  0.09631089  0.50361770  1
  Zr  Zr37  1  0.29421221  0.50496349  0.90527355  1
  Zr  Zr38  1  0.49730324  0.10376671  0.90704136  1
  Zr  Zr39  1  0.09808072  0.30563788  0.29805435  1
  Zr  Zr40  1  0.08898468  0.10281680  0.08749965  1
  Zr  Zr41  1  0.69827533  0.09813995  0.28834229  1
  Zr  Zr42  1  0.49726257  0.70077191  0.30100516  1
  Zr  Zr43  1  0.10162279  0.89893153  0.50727787  1
  Zr  Zr44  1  0.09913437  0.08621448  0.70360948  1
  Zr  Zr45  1  0.50577579  0.70979405  0.49904030  1
  Zr  Zr46  1  0.10118103  0.29769961  0.91660096  1
  Zr  Zr47  1  0.51637160  0.09919827  0.10104865  1
  Zr  Zr48  1  0.49446280  0.89738971  0.10391170  1
  Zr  Zr49  1  0.50152305  0.29941385  0.29530777  1
  Sc  Sc50  1  0.89852806  0.89544790  0.90366230  1
  Sc  Sc51  1  0.08557098  0.09603413  0.29856423  1
  Sc  Sc52  1  0.49159984  0.09726058  0.70009964  1
  Sc  Sc53  1  0.48875005  0.90414085  0.90196738  1
  Sc  Sc54  1  0.30629075  0.90151554  0.50587207  1
  Sc  Sc55  1  0.70472997  0.70359729  0.69834711  1
  Sc  Sc56  1  0.89390717  0.89348207  0.49682452  1
  Sc  Sc57  1  0.51218271  0.50582459  0.70835014  1
  Sc  Sc58  1  0.08987559  0.70422340  0.50415715  1
  Sc  Sc59  1  0.90053103  0.50604608  0.69714448  1
  Sc  Sc60  1  0.70914966  0.70960606  0.50003651  1
  Sc  Sc61  1  0.09542662  0.70148520  0.70203707  1
  Sc  Sc62  1  0.49636152  0.50239639  0.49547742  1
  Sc  Sc63  1  0.49875686  0.49704411  0.30026632  1
  Sc  Sc64  1  0.70364010  0.70132908  0.90251587  1
  Sc  Sc65  1  0.09880653  0.90129384  0.09064555  1
  Sc  Sc66  1  0.50746629  0.69584477  0.08810936  1
  Sc  Sc67  1  0.70525412  0.90679877  0.30333360  1
  Sc  Sc68  1  0.89405604  0.09552392  0.90335809  1
  Sc  Sc69  1  0.30569658  0.09117499  0.89849912  1
  Sc  Sc70  1  0.70156591  0.49067375  0.49916266  1
  Sc  Sc71  1  0.68852737  0.30266969  0.50435687  1
  Sc  Sc72  1  0.50851861  0.29368810  0.50263165  1
  Sc  Sc73  1  0.90289368  0.50232320  0.50392385  1
  Sc  Sc74  1  0.90317605  0.30537843  0.29638418  1
  Sc  Sc75  1  0.30509681  0.49948280  0.49637282  1
  Sc  Sc76  1  0.70252621  0.49279098  0.69990277  1
  Sc  Sc77  1  0.50194360  0.90216742  0.50276214  1
  Sc  Sc78  1  0.30147142  0.89845765  0.70663538  1
  Sc  Sc79  1  0.30076127  0.31099880  0.10170976  1
  Sc  Sc80  1  0.89786797  0.50094384  0.31244682  1
  Sc  Sc81  1  0.09658331  0.70581942  0.09036628  1
  Sc  Sc82  1  0.89660920  0.89524054  0.70719658  1
  Sc  Sc83  1  0.10254092  0.31175562  0.69195899  1
  Sc  Sc84  1  0.90210897  0.90085092  0.09633920  1
  Sc  Sc85  1  0.69696243  0.50128394  0.89902263  1
  Sc  Sc86  1  0.71815618  0.30086164  0.09633589  1
  Sc  Sc87  1  0.51032550  0.09986237  0.29799055  1
  Sc  Sc88  1  0.68387336  0.09937911  0.49326426  1
  Sc  Sc89  1  0.71123234  0.30961698  0.89852589  1
  Sc  Sc90  1  0.89463300  0.08760506  0.29478637  1
  Sc  Sc91  1  0.49460227  0.70003891  0.70115041  1
  Sc  Sc92  1  0.31507576  0.69660369  0.50098568  1
  Sc  Sc93  1  0.29855305  0.29964885  0.70308232  1
  Sc  Sc94  1  0.70448558  0.49698069  0.30518973  1
  Sc  Sc95  1  0.90902214  0.09427120  0.49652389  1
  Sc  Sc96  1  0.09412165  0.30817455  0.50015599  1
  Sc  Sc97  1  0.49569820  0.09616223  0.50882248  1
  Sc  Sc98  1  0.10144651  0.70146962  0.89782555  1
  Sc  Sc99  1  0.49594598  0.30030961  0.09615543  1
  Nb  Nb100  1  0.89518013  0.50562554  0.09248500  1
  Nb  Nb101  1  0.29679807  0.69445765  0.70216192  1
  Nb  Nb102  1  0.69584166  0.90177448  0.70228853  1
  Nb  Nb103  1  0.90232641  0.30714393  0.90323848  1
  Nb  Nb104  1  0.90420822  0.30167694  0.08634654  1
  Nb  Nb105  1  0.89952401  0.50131609  0.90127000  1
  Nb  Nb106  1  0.10482058  0.49929236  0.69896654  1
  Nb  Nb107  1  0.29510232  0.09844302  0.30212591  1
  Nb  Nb108  1  0.09721985  0.50164481  0.50896762  1
  Nb  Nb109  1  0.10041648  0.10217006  0.89926107  1
  Nb  Nb110  1  0.69657811  0.09072012  0.90773629  1
  Nb  Nb111  1  0.88881874  0.10390334  0.09889696  1
  Nb  Nb112  1  0.09897406  0.69598605  0.30166396  1
  Nb  Nb113  1  0.29127616  0.49668439  0.70362460  1
  Nb  Nb114  1  0.29961536  0.50414426  0.10283154  1
  Nb  Nb115  1  0.70120597  0.69576457  0.29786736  1
  Nb  Nb116  1  0.50783465  0.90347244  0.69350264  1
  Nb  Nb117  1  0.71125156  0.09343619  0.09639197  1
  Nb  Nb118  1  0.30384734  0.10217874  0.69545272  1
  Nb  Nb119  1  0.70380802  0.91132857  0.89091507  1
  Nb  Nb120  1  0.90079417  0.89974793  0.29456349  1
  Nb  Nb121  1  0.50719549  0.68879936  0.89060827  1
  Nb  Nb122  1  0.50216995  0.50369518  0.89832667  1
  Nb  Nb123  1  0.30193276  0.09868317  0.50067781  1
  Nb  Nb124  1  0.70129349  0.50185025  0.09960898  1
  Nb  Nb125  1  0.39225160  0.19410031  0.39770725  1
  Nb  Nb126  1  0.60720663  0.40342313  0.19324883  1
  Nb  Nb127  1  0.59979585  0.80797115  0.80052773  1
  Nb  Nb128  1  0.60038515  0.60428966  0.59343281  1
  Nb  Nb129  1  0.20127328  0.59577587  0.60100274  1
  Nb  Nb130  1  0.80230482  0.60038481  0.19686752  1
  Nb  Nb131  1  0.20138238  0.19234218  0.60069226  1
  Nb  Nb132  1  0.39512586  0.59883403  0.19394310  1
  Nb  Nb133  1  0.00427403  0.20601226  0.80735429  1
  Nb  Nb134  1  0.60347314  0.60667055  0.40096950  1
  Nb  Nb135  1  0.39999343  0.40579602  0.80193557  1
  Nb  Nb136  1  0.19750875  0.19759631  0.20454218  1
  Nb  Nb137  1  0.19492166  0.19380539  0.79855352  1
  Nb  Nb138  1  0.19476061  0.60207729  0.40127518  1
  Nb  Nb139  1  0.19670084  0.60146948  0.20393081  1
  Nb  Nb140  1  0.60575322  0.79544315  0.20114070  1
  Nb  Nb141  1  0.60214446  0.19672663  0.81060732  1
  Nb  Nb142  1  0.79207574  0.00207425  0.60405684  1
  Nb  Nb143  1  0.79873863  0.19853053  0.40326876  1
  Nb  Nb144  1  0.20128242  0.19420205  0.39972330  1
  Nb  Nb145  1  0.79606577  0.19317171  0.59732274  1
  Nb  Nb146  1  -0.00367131  0.60235984  0.19916425  1
  Nb  Nb147  1  0.20285247  0.00176911  0.39842290  1
  Nb  Nb148  1  -0.00018136  0.40151768  0.80605263  1
  Nb  Nb149  1  0.40079516  0.40343285  0.61127685  1
  Pd  Pd150  1  0.41110674  0.00731929  0.20404124  1
  Pd  Pd151  1  0.80359153  0.39096575  0.40780656  1
  Pd  Pd152  1  0.61488528  0.20916406  0.00077825  1
  Pd  Pd153  1  0.79583735  0.80521539  0.39733352  1
  Pd  Pd154  1  0.00218537  0.79937433  0.80553011  1
  Pd  Pd155  1  0.79892811  0.19919602  -0.01022114  1
  Pd  Pd156  1  0.59840121  0.80576762  -0.01012406  1
  Pd  Pd157  1  0.40003871  0.20566307  0.80044401  1
  Pd  Pd158  1  -0.00160971  0.80362985  0.40446334  1
  Pd  Pd159  1  0.58572233  -0.00028564  0.80534310  1
  Pd  Pd160  1  -0.00523377  0.20098050  0.39412418  1
  Pd  Pd161  1  0.39984095  0.80442223  0.60826488  1
  Pd  Pd162  1  0.59662238  0.39382734  0.80307713  1
  Pd  Pd163  1  0.79443210  0.59680540  0.79807734  1
  Pd  Pd164  1  0.40972038  0.38905602  0.40984682  1
  Pd  Pd165  1  0.79666151  0.79923673  0.20191505  1
  Pd  Pd166  1  0.39346851  0.19279087  0.01413861  1
  Pd  Pd167  1  -0.00053891  -0.00421230  0.19225373  1
  Pd  Pd168  1  0.40663531  0.79044821  -0.00651581  1
  Pd  Pd169  1  -0.01392181  -0.01324264  0.60221598  1
  Pd  Pd170  1  0.20738281  0.78731144  0.59756839  1
  Pd  Pd171  1  0.18286746  0.00375807  0.20256411  1
  Pd  Pd172  1  -0.00965741  0.00136336  0.80590882  1
  Pd  Pd173  1  0.20598718  0.79941555  0.41234684  1
  Pd  Pd174  1  0.79004221  0.59516016  0.59602716  1
  Pd  Pd175  1  -0.01337635  0.40953660  0.19500786  1
  Pd  Pd176  1  0.00390292  -0.01343737  0.39735539  1
  Pd  Pd177  1  0.61032934  0.21170788  0.18596322  1
  Pd  Pd178  1  0.00007761  0.41069650  -0.00183988  1
  Pd  Pd179  1  0.40089895  0.00195870  0.39721626  1
  Pd  Pd180  1  0.80303894  0.40629630  0.19785108  1
  Pd  Pd181  1  0.19763993  0.38963126  0.80770619  1
  Pd  Pd182  1  0.39563448  0.19382977  0.19976461  1
  Pd  Pd183  1  0.40203491  0.59124724  0.60862214  1
  Pd  Pd184  1  0.59943671  0.59579300  0.20602939  1
  Pd  Pd185  1  0.39895428  0.59233984  0.79508549  1
  Pd  Pd186  1  0.39401601  0.80856196  0.40075606  1
  Pd  Pd187  1  0.19714589  0.40216227  0.40817548  1
  Pd  Pd188  1  0.39974891  0.60475900  -0.00025256  1
  Pd  Pd189  1  0.00440591  0.20422333  0.61061384  1
  Pd  Pd190  1  0.79534766  0.00513190  0.40901034  1
  Pd  Pd191  1  0.20834504  -0.00101343  0.60086570  1
  Pd  Pd192  1  -0.00739314  0.19823585  0.20073627  1
  Pd  Pd193  1  0.40765984  0.80292350  0.79681556  1
  Pd  Pd194  1  0.00093633  0.79500782  0.19429506  1
  Pd  Pd195  1  0.21174269  0.19198371  0.00573622  1
  Pd  Pd196  1  0.79759538  0.19720062  0.80690832  1
  Pd  Pd197  1  0.80809331  0.20361811  0.20653455  1
  Pd  Pd198  1  0.79510129  0.79751513  0.80371006  1
  Pd  Pd199  1  0.59718480  -0.00977253  -0.00062292  1
  Rh  Rh200  1  -0.00462280  0.40143989  0.40897279  1
  Rh  Rh201  1  0.80260128  -0.00779306  0.19391094  1
  Rh  Rh202  1  0.59539317  0.19676063  0.39856993  1
  Rh  Rh203  1  0.80787338  0.41119462  0.80299130  1
  Rh  Rh204  1  0.00359471  0.59942316  0.40101814  1
  Rh  Rh205  1  0.80054438  0.40812930  -0.00180277  1
  Rh  Rh206  1  0.79557635  0.59605488  -0.00192029  1
  Rh  Rh207  1  0.80580105  -0.00171125  0.79862216  1
  Rh  Rh208  1  0.39757270  0.20519485  0.59502874  1
  Rh  Rh209  1  0.59810324  0.79205939  0.61240938  1
  Rh  Rh210  1  0.40011778  -0.00220320  0.79402869  1
  Rh  Rh211  1  0.20865310  0.00489529  0.79926597  1
  Rh  Rh212  1  0.79897394  0.80320802  -0.01018097  1
  Rh  Rh213  1  -0.00403935  0.40669965  0.60836795  1
  Rh  Rh214  1  0.59527912  -0.00013255  0.40014129  1
  Rh  Rh215  1  0.60653482  0.59766631  -0.01130668  1
  Rh  Rh216  1  0.40183962  0.00381186  0.00791241  1
  Rh  Rh217  1  0.41462493  0.41067533  0.18985155  1
  Rh  Rh218  1  0.00130510  0.59449295  0.79490019  1
  Rh  Rh219  1  0.58935805  0.41392838  0.59726735  1
  Rh  Rh220  1  0.18957037  0.79612825  0.19006099  1
  Rh  Rh221  1  0.60087915  0.00493934  0.60109034  1
  Rh  Rh222  1  0.00225365  0.60062534  0.00302605  1
  Rh  Rh223  1  0.00209893  0.80310326  -0.00874004  1
  Rh  Rh224  1  0.60637645  -0.01061488  0.19425179  1
  Rh  Rh225  1  0.19723125  0.60442644  0.00417550  1
  Rh  Rh226  1  -0.00692663  0.80232877  0.60222812  1
  Rh  Rh227  1  -0.00745432  0.00440891  -0.00121716  1
  Rh  Rh228  1  0.19837929  0.79768355  0.79997191  1
  Rh  Rh229  1  -0.01440343  0.19401429  -0.00484103  1
  Rh  Rh230  1  0.80118991  0.39488490  0.59831511  1
  Rh  Rh231  1  0.60850972  0.60979313  0.79275185  1
  Rh  Rh232  1  0.20240398  0.40262326  0.00388328  1
  Rh  Rh233  1  0.80486455  -0.00353981  0.00181610  1
  Rh  Rh234  1  0.59611573  0.40595320  0.39311280  1
  Rh  Rh235  1  0.19537855  0.80360447  -0.00802771  1
  Rh  Rh236  1  0.39385006  0.40759107  -0.00479582  1
  Rh  Rh237  1  0.60933162  0.79670070  0.39013491  1
  Rh  Rh238  1  0.39835203  0.60259625  0.38888231  1
  Rh  Rh239  1  0.20755904  0.40466933  0.59281035  1
  Rh  Rh240  1  0.20131936  0.00315852  -0.00145138  1
  Rh  Rh241  1  0.19615993  0.60794874  0.79289820  1
  Rh  Rh242  1  0.61198887  0.39869725  0.00536869  1
  Rh  Rh243  1  0.00733077  0.60013418  0.60520237  1
  Rh  Rh244  1  0.39904981  -0.00557426  0.60605822  1
  Rh  Rh245  1  0.60585147  0.19030481  0.61205489  1
  Rh  Rh246  1  0.41179124  0.78801581  0.19186405  1
  Rh  Rh247  1  0.79429522  0.59993416  0.39875509  1
  Rh  Rh248  1  0.19640450  0.39909189  0.19496264  1
  Rh  Rh249  1  0.80232809  0.80997948  0.60364660  1
