# generated using pymatgen
data_ZrScNbPdRh
_symmetry_space_group_name_H-M   'P 1'
_cell_length_a   16.55801645
_cell_length_b   16.56000411
_cell_length_c   16.55973368
_cell_angle_alpha   90.02892861
_cell_angle_beta   90.02143374
_cell_angle_gamma   89.96915968
_symmetry_Int_Tables_number   1
_chemical_formula_structural   ZrScNbPdRh
_chemical_formula_sum   'Zr50 Sc50 Nb50 Pd50 Rh50'
_cell_volume   4540.69100840
_cell_formula_units_Z   50
loop_
 _symmetry_equiv_pos_site_id
 _symmetry_equiv_pos_as_xyz
  1  'x, y, z'
loop_
 _atom_site_type_symbol
 _atom_site_label
 _atom_site_symmetry_multiplicity
 _atom_site_fract_x
 _atom_site_fract_y
 _atom_site_fract_z
 _atom_site_occupancy
  Zr  Zr0  1  0.69671038  0.10997205  0.30383705  1
  Zr  Zr1  1  0.89138857  0.30348456  0.69172742  1
  Zr  Zr2  1  0.10170397  0.49769103  0.90077533  1
  Zr  Zr3  1  0.90173630  0.10403555  0.70151287  1
  Zr  Zr4  1  0.30019442  0.10397352  0.89099886  1
  Zr  Zr5  1  0.50805905  0.10128373  0.49516971  1
  Zr  Zr6  1  0.69273057  0.90528677  0.89224971  1
  Zr  Zr7  1  0.30799714  0.90839602  0.89345793  1
  Zr  Zr8  1  0.29887073  0.90121726  0.49926610  1
  Zr  Zr9  1  0.09645232  0.91400987  0.50148631  1
  Zr  Zr10  1  0.69872507  0.10122649  0.90540748  1
  Zr  Zr11  1  0.90123797  0.29637702  0.10960891  1
  Zr  Zr12  1  0.90106172  0.69786846  0.10265277  1
  Zr  Zr13  1  0.50120690  0.49058209  0.69646821  1
  Zr  Zr14  1  0.89452286  0.90258431  0.89813679  1
  Zr  Zr15  1  0.69683545  0.90354269  0.50974038  1
  Zr  Zr16  1  0.09987132  0.29608630  0.70402102  1
  Zr  Zr17  1  0.70158133  0.30034687  0.30054002  1
  Zr  Zr18  1  0.30197307  0.90311170  0.10450146  1
  Zr  Zr19  1  0.69940714  0.49474693  0.10544761  1
  Zr  Zr20  1  0.29340392  0.30262088  0.49629066  1
  Zr  Zr21  1  0.10284801  0.69613270  0.89791519  1
  Zr  Zr22  1  0.30018101  0.89968201  0.30094846  1
  Zr  Zr23  1  0.09598074  0.10487279  0.11135280  1
  Zr  Zr24  1  0.50029843  0.90516587  0.49739780  1
  Zr  Zr25  1  0.50480319  0.70145035  0.89669725  1
  Zr  Zr26  1  0.89543063  0.48788718  0.50519251  1
  Zr  Zr27  1  0.89705779  0.69687803  0.69734929  1
  Zr  Zr28  1  0.50779851  0.70904868  0.10473655  1
  Zr  Zr29  1  0.89986682  0.49069734  0.70213551  1
  Zr  Zr30  1  0.10227349  0.50709008  0.09817623  1
  Zr  Zr31  1  0.69882601  0.49679957  0.90375458  1
  Zr  Zr32  1  0.29779411  0.69964200  0.10985742  1
  Zr  Zr33  1  0.30724176  0.49991893  0.29929094  1
  Zr  Zr34  1  0.10348953  0.89663499  0.11686034  1
  Zr  Zr35  1  0.68779756  0.69391907  0.10331156  1
  Zr  Zr36  1  0.50923855  0.50083250  0.10062519  1
  Zr  Zr37  1  0.70160866  0.10294070  0.10528730  1
  Zr  Zr38  1  0.70185420  0.49565944  0.69559998  1
  Zr  Zr39  1  0.09690725  0.69863454  0.29002803  1
  Zr  Zr40  1  0.50660838  0.30303658  0.29538395  1
  Zr  Zr41  1  0.29815027  0.69800599  0.69611489  1
  Zr  Zr42  1  0.30576102  0.69791504  0.30179297  1
  Zr  Zr43  1  0.49534893  0.11639847  0.69974579  1
  Zr  Zr44  1  0.30444193  0.49593488  0.50170515  1
  Zr  Zr45  1  0.50198723  0.90092503  0.70426070  1
  Zr  Zr46  1  0.89340690  0.69552668  0.31034533  1
  Zr  Zr47  1  0.69927493  0.69987148  0.69538358  1
  Zr  Zr48  1  0.89345761  0.09822575  0.89987639  1
  Zr  Zr49  1  0.90693666  0.10208515  0.50441624  1
  Sc  Sc50  1  0.89455566  0.70630740  0.89650149  1
  Sc  Sc51  1  0.30246128  0.49088150  0.09870949  1
  Sc  Sc52  1  0.50157460  0.69219390  0.49506803  1
  Sc  Sc53  1  0.89291232  0.90711199  0.10854207  1
  Sc  Sc54  1  0.49863915  0.30595376  0.50884127  1
  Sc  Sc55  1  0.88678694  0.49311519  0.30401440  1
  Sc  Sc56  1  0.10324154  0.30076603  0.90115860  1
  Sc  Sc57  1  0.09705785  0.70258628  0.51426833  1
  Sc  Sc58  1  0.49685109  0.09281244  0.89513289  1
  Sc  Sc59  1  0.29984800  0.89543693  0.69873157  1
  Sc  Sc60  1  0.89720891  0.10182231  0.29176004  1
  Sc  Sc61  1  0.09979391  0.10239648  0.30450944  1
  Sc  Sc62  1  0.89996711  0.30456755  0.89426578  1
  Sc  Sc63  1  0.11554044  0.29688537  0.10278002  1
  Sc  Sc64  1  0.89448513  0.29853936  0.31160743  1
  Sc  Sc65  1  0.29505531  0.10571831  0.09432244  1
  Sc  Sc66  1  0.70232666  0.90468483  0.29819170  1
  Sc  Sc67  1  0.30041977  0.69597014  0.88297311  1
  Sc  Sc68  1  0.70274021  0.69201931  0.50050094  1
  Sc  Sc69  1  0.90527081  0.90099452  0.30899183  1
  Sc  Sc70  1  0.10606575  0.10577024  0.88207391  1
  Sc  Sc71  1  0.30571834  0.50369714  0.89808377  1
  Sc  Sc72  1  0.51109777  0.10327664  0.30736596  1
  Sc  Sc73  1  0.49704679  0.89388160  0.30064737  1
  Sc  Sc74  1  0.90082438  0.48983551  0.90242693  1
  Sc  Sc75  1  0.89400494  0.70304577  0.50324222  1
  Sc  Sc76  1  0.50210801  0.90640761  0.89661141  1
  Sc  Sc77  1  0.89189869  0.09908839  0.10583795  1
  Sc  Sc78  1  0.50020855  0.30830856  0.09587355  1
  Sc  Sc79  1  0.49844908  0.49283477  0.89833649  1
  Sc  Sc80  1  0.09939007  0.69296862  0.10360163  1
  Sc  Sc81  1  0.10267422  0.89785043  0.87857978  1
  Sc  Sc82  1  0.69657856  0.10373611  0.69959253  1
  Sc  Sc83  1  0.10752237  0.70494044  0.70324832  1
  Sc  Sc84  1  0.89762728  0.90182742  0.69794578  1
  Sc  Sc85  1  0.50009289  0.69298931  0.29550275  1
  Sc  Sc86  1  0.69869707  0.70902123  0.90307845  1
  Sc  Sc87  1  0.69628335  0.50071227  0.30494036  1
  Sc  Sc88  1  0.09930460  0.48348235  0.50687393  1
  Sc  Sc89  1  0.10262292  0.09419892  0.69824069  1
  Sc  Sc90  1  0.31759804  0.30110683  0.69538420  1
  Sc  Sc91  1  0.90120059  0.49292944  0.09980495  1
  Sc  Sc92  1  0.50271074  0.10218881  0.08350588  1
  Sc  Sc93  1  0.29248381  0.30710294  0.29276341  1
  Sc  Sc94  1  0.90378052  0.90027957  0.50436827  1
  Sc  Sc95  1  0.69367149  0.29891461  0.10369875  1
  Sc  Sc96  1  0.49798284  0.30384590  0.89807477  1
  Sc  Sc97  1  0.49632893  0.70337955  0.70060943  1
  Sc  Sc98  1  0.69360186  0.89379193  0.09430060  1
  Sc  Sc99  1  0.09987523  0.49815300  0.69557454  1
  Nb  Nb100  1  0.29714316  0.30693997  0.91029114  1
  Nb  Nb101  1  0.49822643  0.90326298  0.09748240  1
  Nb  Nb102  1  0.10354945  0.10010006  0.50190730  1
  Nb  Nb103  1  0.10791176  0.90086310  0.69179153  1
  Nb  Nb104  1  0.69115607  0.50375473  0.49934641  1
  Nb  Nb105  1  0.71441659  0.29244788  0.49396076  1
  Nb  Nb106  1  0.50446604  0.50483491  0.49511591  1
  Nb  Nb107  1  0.30414023  0.29965418  0.09546792  1
  Nb  Nb108  1  0.89932732  0.30090586  0.50142183  1
  Nb  Nb109  1  0.69170868  0.89672754  0.69678921  1
  Nb  Nb110  1  0.29807989  0.10248200  0.69845301  1
  Nb  Nb111  1  0.69898900  0.30402778  0.89485291  1
  Nb  Nb112  1  0.69925857  0.69876475  0.30179599  1
  Nb  Nb113  1  0.49863750  0.49904252  0.30920599  1
  Nb  Nb114  1  0.09989747  0.89512094  0.30632688  1
  Nb  Nb115  1  0.30735606  0.10024561  0.30254749  1
  Nb  Nb116  1  0.09914898  0.29952963  0.30033804  1
  Nb  Nb117  1  0.30565010  0.50240140  0.70453513  1
  Nb  Nb118  1  0.29870642  0.09459823  0.49493908  1
  Nb  Nb119  1  0.09468751  0.29054271  0.49180191  1
  Nb  Nb120  1  0.69599650  0.10055612  0.49137328  1
  Nb  Nb121  1  0.69024571  0.30341259  0.70287594  1
  Nb  Nb122  1  0.50809621  0.30628980  0.70369940  1
  Nb  Nb123  1  0.10227331  0.50194617  0.29949135  1
  Nb  Nb124  1  0.29615661  0.69851009  0.50021319  1
  Nb  Nb125  1  0.39838920  0.19895452  0.20022595  1
  Nb  Nb126  1  0.60384813  0.59602830  0.79600883  1
  Nb  Nb127  1  0.79604945  0.59997560  0.00427544  1
  Nb  Nb128  1  0.40573174  0.60729346  0.00227528  1
  Nb  Nb129  1  0.00746957  -0.00029747  -0.00198432  1
  Nb  Nb130  1  0.19596597  0.60091963  0.40213480  1
  Nb  Nb131  1  0.39551792  0.19908217  0.39721218  1
  Nb  Nb132  1  0.00916225  0.39796824  0.20904724  1
  Nb  Nb133  1  0.79602742  0.00775747  0.40766953  1
  Nb  Nb134  1  0.59462425  0.00039382  0.19558896  1
  Nb  Nb135  1  0.79473776  0.79203544  0.20573761  1
  Nb  Nb136  1  0.20017510  0.80407249  -0.00214035  1
  Nb  Nb137  1  0.39639666  0.00936180  0.59813832  1
  Nb  Nb138  1  0.20963655  0.39947172  0.79892752  1
  Nb  Nb139  1  0.00442899  0.59329912  0.40177787  1
  Nb  Nb140  1  0.39788563  0.59400195  0.59822692  1
  Nb  Nb141  1  0.20058032  0.19467780  0.59101809  1
  Nb  Nb142  1  -0.00272351  0.59881486  0.79826951  1
  Nb  Nb143  1  -0.00103951  0.19278611  0.00061951  1
  Nb  Nb144  1  0.19107939  -0.00359014  -0.00202556  1
  Nb  Nb145  1  0.00600903  0.80881662  0.00034092  1
  Nb  Nb146  1  0.40491059  0.00874714  0.20063846  1
  Nb  Nb147  1  0.39705168  0.79889345  0.00070284  1
  Nb  Nb148  1  0.60642369  0.79673689  0.39716275  1
  Nb  Nb149  1  0.19561541  0.79699691  0.40111256  1
  Pd  Pd150  1  0.19610158  -0.00166630  0.39269984  1
  Pd  Pd151  1  0.40378104  0.79276124  0.40274126  1
  Pd  Pd152  1  0.40219124  0.20200873  -0.00119541  1
  Pd  Pd153  1  -0.00113790  0.79600670  0.79739898  1
  Pd  Pd154  1  0.20193425  0.59479812  0.59733991  1
  Pd  Pd155  1  0.40582281  0.59295391  0.19291103  1
  Pd  Pd156  1  0.00025938  0.40188771  0.39610046  1
  Pd  Pd157  1  0.60756311  0.39417091  0.58940215  1
  Pd  Pd158  1  0.59517954  0.79045175  0.59100504  1
  Pd  Pd159  1  0.79711304  0.39588223  0.00433756  1
  Pd  Pd160  1  0.79308822  0.81105572  0.40154102  1
  Pd  Pd161  1  0.39793341  0.21011906  0.80567050  1
  Pd  Pd162  1  -0.00099599  0.59628773  0.60028219  1
  Pd  Pd163  1  0.20406201  0.19812714  0.39626699  1
  Pd  Pd164  1  0.00708309  0.79074883  0.40630942  1
  Pd  Pd165  1  0.40369936  0.39093009  0.39854930  1
  Pd  Pd166  1  0.59910288  0.19938132  0.80937363  1
  Pd  Pd167  1  0.79248004  0.19674410  0.60122693  1
  Pd  Pd168  1  0.59739479  0.20698449  -0.00536677  1
  Pd  Pd169  1  0.80204365  0.59511863  0.59469890  1
  Pd  Pd170  1  0.80400042  0.79750419  0.00954918  1
  Pd  Pd171  1  -0.01275893  0.58599790  0.20920806  1
  Pd  Pd172  1  0.60637167  0.20780246  0.59481396  1
  Pd  Pd173  1  0.00701897  0.20205805  0.60158647  1
  Pd  Pd174  1  -0.01197411  0.80341268  0.19959387  1
  Pd  Pd175  1  -0.01168477  0.60613663  -0.01006985  1
  Pd  Pd176  1  0.80469513  0.21031536  -0.00011468  1
  Pd  Pd177  1  0.20495281  0.00921317  0.20467885  1
  Pd  Pd178  1  0.40274860  0.79735522  0.59577826  1
  Pd  Pd179  1  0.79606498  0.20601309  0.79883316  1
  Pd  Pd180  1  0.39534664  0.19817356  0.58926187  1
  Pd  Pd181  1  0.79181936  -0.00020970  0.78813541  1
  Pd  Pd182  1  -0.00302907  -0.00198521  0.20595877  1
  Pd  Pd183  1  -0.00510803  0.20334708  0.80451592  1
  Pd  Pd184  1  0.19233528  0.19266847  -0.00403513  1
  Pd  Pd185  1  0.80035067  0.59633712  0.81026350  1
  Pd  Pd186  1  0.60493227  0.39562256  0.40761564  1
  Pd  Pd187  1  -0.00567319  0.19485728  0.39485708  1
  Pd  Pd188  1  0.00131137  -0.00035359  0.79756858  1
  Pd  Pd189  1  0.79950748  0.59904425  0.19695604  1
  Pd  Pd190  1  0.19473073  0.40547061  0.39742926  1
  Pd  Pd191  1  0.00014037  0.80452929  0.60524338  1
  Pd  Pd192  1  0.21477561  0.60436941  -0.00245190  1
  Pd  Pd193  1  0.79485886  0.80529191  0.79236072  1
  Pd  Pd194  1  0.20110016  0.38988025  0.60920205  1
  Pd  Pd195  1  0.19826580  0.40402143  0.19630804  1
  Pd  Pd196  1  0.59302007  0.00827831  0.60911443  1
  Pd  Pd197  1  0.79800674  -0.00451688  0.00629322  1
  Pd  Pd198  1  0.80004074  0.00371492  0.59958144  1
  Pd  Pd199  1  0.00858089  0.38634939  0.01168752  1
  Rh  Rh200  1  0.00914705  0.40425767  0.79696430  1
  Rh  Rh201  1  0.00108953  0.00076036  0.60758942  1
  Rh  Rh202  1  0.39639363  0.59982952  0.40707056  1
  Rh  Rh203  1  0.60398854  0.79632275  0.79806592  1
  Rh  Rh204  1  0.59072227  0.60015160  0.60620010  1
  Rh  Rh205  1  0.39896686  0.80184743  0.80380878  1
  Rh  Rh206  1  0.58887596  0.19239786  0.18970470  1
  Rh  Rh207  1  0.20377406  -0.00327470  0.79495495  1
  Rh  Rh208  1  0.40195531  0.00458951  0.78450227  1
  Rh  Rh209  1  0.60629580  -0.01117510  0.39219389  1
  Rh  Rh210  1  0.20208267  0.40411924  -0.00202399  1
  Rh  Rh211  1  0.80310030  0.39310350  0.20324996  1
  Rh  Rh212  1  0.59367126  0.21666312  0.41010293  1
  Rh  Rh213  1  0.41325743  0.59672993  0.79571443  1
  Rh  Rh214  1  0.60221775  0.39352553  -0.00363008  1
  Rh  Rh215  1  0.80932406  0.19178753  0.40361925  1
  Rh  Rh216  1  0.20883446  0.19923567  0.20632307  1
  Rh  Rh217  1  0.40641451  0.00650734  0.39847096  1
  Rh  Rh218  1  0.59694542  0.59082980  0.21231947  1
  Rh  Rh219  1  0.40511689  0.80749052  0.19655534  1
  Rh  Rh220  1  0.78797237  0.39636784  0.59449606  1
  Rh  Rh221  1  0.60354198  0.80934441  0.20956278  1
  Rh  Rh222  1  0.60041284  0.60410972  0.39612175  1
  Rh  Rh223  1  0.80204652  0.59239213  0.40842457  1
  Rh  Rh224  1  0.60555541  -0.00020448  0.00249257  1
  Rh  Rh225  1  0.79843560  0.80198294  0.60343707  1
  Rh  Rh226  1  0.60292880  0.40252105  0.80317312  1
  Rh  Rh227  1  0.20648046  0.00404794  0.60474321  1
  Rh  Rh228  1  0.59878111  0.40591680  0.20506078  1
  Rh  Rh229  1  0.39462393  0.39442288  0.80368086  1
  Rh  Rh230  1  0.20107670  0.79579786  0.20655362  1
  Rh  Rh231  1  0.40397988  0.39555789  0.19785648  1
  Rh  Rh232  1  0.20671027  0.59327351  0.20460315  1
  Rh  Rh233  1  0.79483877  0.39382977  0.79872876  1
  Rh  Rh234  1  0.19766901  0.80675797  0.59279785  1
  Rh  Rh235  1  0.59048523  0.81065513  -0.00692491  1
  Rh  Rh236  1  0.79794237  0.20554019  0.20398326  1
  Rh  Rh237  1  0.60011741  0.59603365  -0.01104666  1
  Rh  Rh238  1  0.79093858  0.40470532  0.40755403  1
  Rh  Rh239  1  0.00372001  0.38677006  0.59882152  1
  Rh  Rh240  1  0.21401555  0.21460955  0.78970559  1
  Rh  Rh241  1  0.40368208  0.40468594  0.59826179  1
  Rh  Rh242  1  0.39159071  -0.00143069  0.00569870  1
  Rh  Rh243  1  0.20549718  0.80320551  0.79848807  1
  Rh  Rh244  1  0.79091620  -0.00360050  0.20641575  1
  Rh  Rh245  1  0.19064525  0.58778022  0.79415494  1
  Rh  Rh246  1  0.40019534  0.40779903  0.00035274  1
  Rh  Rh247  1  0.60030244  0.00852782  0.79353564  1
  Rh  Rh248  1  -0.00443175  0.00735588  0.39799265  1
  Rh  Rh249  1  0.00200301  0.20934928  0.20161915  1
