# generated using pymatgen
data_ZrScNbPdRh
_symmetry_space_group_name_H-M   'P 1'
_cell_length_a   16.55972316
_cell_length_b   16.56626539
_cell_length_c   16.56476031
_cell_angle_alpha   90.03179414
_cell_angle_beta   89.98764679
_cell_angle_gamma   90.02187925
_symmetry_Int_Tables_number   1
_chemical_formula_structural   ZrScNbPdRh
_chemical_formula_sum   'Zr50 Sc50 Nb50 Pd50 Rh50'
_cell_volume   4544.25542179
_cell_formula_units_Z   50
loop_
 _symmetry_equiv_pos_site_id
 _symmetry_equiv_pos_as_xyz
  1  'x, y, z'
loop_
 _atom_site_type_symbol
 _atom_site_label
 _atom_site_symmetry_multiplicity
 _atom_site_fract_x
 _atom_site_fract_y
 _atom_site_fract_z
 _atom_site_occupancy
  Zr  Zr0  1  0.89458930  0.10415946  0.90228427  1
  Zr  Zr1  1  0.29898029  0.90284341  0.69387088  1
  Zr  Zr2  1  0.90460000  0.49663813  0.70727462  1
  Zr  Zr3  1  0.50010502  0.49784065  0.49928402  1
  Zr  Zr4  1  0.70183948  0.69706815  0.09998121  1
  Zr  Zr5  1  0.10458409  0.31007112  0.89380145  1
  Zr  Zr6  1  0.09902861  0.89691981  0.10697735  1
  Zr  Zr7  1  0.89498447  0.30041841  0.90209580  1
  Zr  Zr8  1  0.49571167  0.30257877  0.09342216  1
  Zr  Zr9  1  0.70172720  0.09903065  0.30016505  1
  Zr  Zr10  1  0.90083975  0.70653003  0.50223177  1
  Zr  Zr11  1  0.10470450  0.49054328  0.70481523  1
  Zr  Zr12  1  0.30655395  0.70472048  0.11292120  1
  Zr  Zr13  1  0.30453355  0.30250384  0.90523808  1
  Zr  Zr14  1  0.70606795  0.48466871  0.90431114  1
  Zr  Zr15  1  0.89832222  0.29363475  0.10402967  1
  Zr  Zr16  1  0.90171415  0.90178385  0.90831128  1
  Zr  Zr17  1  0.49599017  0.89891541  0.50351324  1
  Zr  Zr18  1  0.10042689  0.31051742  0.30022994  1
  Zr  Zr19  1  0.69744918  0.90200810  0.50702810  1
  Zr  Zr20  1  0.29308328  0.49426792  0.89667989  1
  Zr  Zr21  1  0.10441499  0.29313871  0.68743958  1
  Zr  Zr22  1  0.50488008  0.69927193  0.10359277  1
  Zr  Zr23  1  0.30295191  0.49457140  0.10423947  1
  Zr  Zr24  1  0.70493233  0.30451187  0.49294629  1
  Zr  Zr25  1  0.10318422  0.70656183  0.50175825  1
  Zr  Zr26  1  0.89664222  0.50678551  0.49112365  1
  Zr  Zr27  1  0.49633636  0.69804282  0.49890787  1
  Zr  Zr28  1  0.90602613  0.69627170  0.90153089  1
  Zr  Zr29  1  0.90241639  0.90395957  0.49556330  1
  Zr  Zr30  1  0.89980708  0.70260195  0.69746920  1
  Zr  Zr31  1  0.90364908  0.09600235  0.09704909  1
  Zr  Zr32  1  0.30038803  0.50298755  0.49076685  1
  Zr  Zr33  1  0.69385857  0.90172611  0.69994850  1
  Zr  Zr34  1  0.30418853  0.29978928  0.70097164  1
  Zr  Zr35  1  0.69673175  0.69966758  0.29766921  1
  Zr  Zr36  1  0.49985328  0.89877066  0.90449591  1
  Zr  Zr37  1  0.48877685  0.49870729  0.89774352  1
  Zr  Zr38  1  0.50543184  0.90220928  0.30344050  1
  Zr  Zr39  1  0.69952835  0.70343566  0.69098319  1
  Zr  Zr40  1  0.49591706  0.89635572  0.09728032  1
  Zr  Zr41  1  0.09633122  0.50739438  0.89117518  1
  Zr  Zr42  1  0.89667842  0.09447005  0.29646341  1
  Zr  Zr43  1  0.10676802  0.48595508  0.48297330  1
  Zr  Zr44  1  0.69431256  0.50688066  0.50358201  1
  Zr  Zr45  1  0.70240065  0.29328602  0.89202720  1
  Zr  Zr46  1  0.70502507  0.89835820  0.09618627  1
  Zr  Zr47  1  0.90176474  0.49786440  0.90224893  1
  Zr  Zr48  1  0.90046216  0.09740370  0.69860539  1
  Zr  Zr49  1  0.29855349  0.49900794  0.29976100  1
  Sc  Sc50  1  0.49953698  0.50287528  0.09707511  1
  Sc  Sc51  1  0.49305530  0.10287657  0.50417306  1
  Sc  Sc52  1  0.70177739  0.70537698  0.90659134  1
  Sc  Sc53  1  0.29493662  0.10827588  0.09869998  1
  Sc  Sc54  1  0.10054689  0.10094447  0.10413463  1
  Sc  Sc55  1  0.09468206  0.90246892  0.29608639  1
  Sc  Sc56  1  0.30731584  0.49998001  0.70817378  1
  Sc  Sc57  1  0.29875138  0.69695024  0.69567551  1
  Sc  Sc58  1  0.50642299  0.90053732  0.69201591  1
  Sc  Sc59  1  0.89889120  0.09330447  0.50669696  1
  Sc  Sc60  1  0.09699038  0.70060445  0.70581064  1
  Sc  Sc61  1  0.70483807  0.09375581  0.50540650  1
  Sc  Sc62  1  0.50234948  0.29497154  0.89884013  1
  Sc  Sc63  1  0.29929084  0.89415380  0.50522730  1
  Sc  Sc64  1  0.69846623  0.89317693  0.90046866  1
  Sc  Sc65  1  0.30082717  0.68312777  0.89023822  1
  Sc  Sc66  1  0.70951452  0.09526565  0.10352169  1
  Sc  Sc67  1  0.29872618  0.89204526  0.29369055  1
  Sc  Sc68  1  0.30457112  0.90516490  0.09586004  1
  Sc  Sc69  1  0.70082970  0.90922873  0.30792529  1
  Sc  Sc70  1  0.10763344  0.29783996  0.10543413  1
  Sc  Sc71  1  0.70243184  0.69560110  0.49646715  1
  Sc  Sc72  1  0.90060805  0.89386928  0.69410325  1
  Sc  Sc73  1  0.90379332  0.70148075  0.09680848  1
  Sc  Sc74  1  0.49506132  0.70206898  0.29752276  1
  Sc  Sc75  1  0.30394078  0.70563521  0.49758738  1
  Sc  Sc76  1  0.49692246  0.69852745  0.69434799  1
  Sc  Sc77  1  0.69542617  0.10078136  0.69955909  1
  Sc  Sc78  1  0.69966804  0.30828408  0.09083525  1
  Sc  Sc79  1  0.89846469  0.28854898  0.70625155  1
  Sc  Sc80  1  0.89392135  0.50583140  0.10188898  1
  Sc  Sc81  1  0.90490991  0.70080724  0.31075095  1
  Sc  Sc82  1  0.10313726  0.70481493  0.28973400  1
  Sc  Sc83  1  0.30520036  0.70002389  0.30513910  1
  Sc  Sc84  1  0.69949934  0.50397745  0.10001909  1
  Sc  Sc85  1  0.09548116  0.09764922  0.29392112  1
  Sc  Sc86  1  0.50128134  0.09894148  0.70132043  1
  Sc  Sc87  1  0.08933527  0.09952518  0.51029260  1
  Sc  Sc88  1  0.90103487  0.90575820  0.09993264  1
  Sc  Sc89  1  0.09623054  0.09405528  0.69933238  1
  Sc  Sc90  1  0.50183747  0.69676658  0.90518471  1
  Sc  Sc91  1  0.70524532  0.50312215  0.30253268  1
  Sc  Sc92  1  0.90736356  0.49870608  0.29671698  1
  Sc  Sc93  1  0.30964236  0.30373221  0.29636972  1
  Sc  Sc94  1  0.30057486  0.11640506  0.29458591  1
  Sc  Sc95  1  0.30233192  0.10027646  0.69022240  1
  Sc  Sc96  1  0.09387753  0.09028498  0.90069010  1
  Sc  Sc97  1  0.29965137  0.09730535  0.90831744  1
  Sc  Sc98  1  0.29842130  0.30058831  0.50831780  1
  Sc  Sc99  1  0.09784437  0.90069771  0.50661145  1
  Nb  Nb100  1  0.69344187  0.09740293  0.89324869  1
  Nb  Nb101  1  0.10026433  0.29787348  0.50006752  1
  Nb  Nb102  1  0.50855686  0.49612136  0.69669546  1
  Nb  Nb103  1  0.69710937  0.30961040  0.69941081  1
  Nb  Nb104  1  0.10181845  0.70174596  0.09944026  1
  Nb  Nb105  1  0.50592567  0.09674623  0.90045984  1
  Nb  Nb106  1  0.90440893  0.90225484  0.29994504  1
  Nb  Nb107  1  0.09981446  0.70024213  0.90475340  1
  Nb  Nb108  1  0.49823389  0.10670092  0.30095066  1
  Nb  Nb109  1  0.69804887  0.49609244  0.69921122  1
  Nb  Nb110  1  0.89924728  0.29939825  0.49950648  1
  Nb  Nb111  1  0.50035493  0.30477349  0.49657444  1
  Nb  Nb112  1  0.10622718  0.49556336  0.29149569  1
  Nb  Nb113  1  0.88630955  0.29363719  0.30370111  1
  Nb  Nb114  1  0.50167062  0.10011447  0.09833265  1
  Nb  Nb115  1  0.48541105  0.48738746  0.30396343  1
  Nb  Nb116  1  0.10471513  0.89839641  0.70237722  1
  Nb  Nb117  1  0.10417350  0.89924745  0.89940051  1
  Nb  Nb118  1  0.49745295  0.29813731  0.30474638  1
  Nb  Nb119  1  0.50112443  0.31079401  0.69234979  1
  Nb  Nb120  1  0.29728229  0.30135624  0.09804172  1
  Nb  Nb121  1  0.70311866  0.29425325  0.29655556  1
  Nb  Nb122  1  0.30008412  0.10108581  0.49638952  1
  Nb  Nb123  1  0.30074271  0.90270276  0.90274917  1
  Nb  Nb124  1  0.09919439  0.50164462  0.11657319  1
  Nb  Nb125  1  0.40788010  0.00850681  0.20274215  1
  Nb  Nb126  1  0.39378386  0.80688657  0.80236037  1
  Nb  Nb127  1  0.39498372  0.00606871  0.39494641  1
  Nb  Nb128  1  -0.00416434  0.20714467  0.40129955  1
  Nb  Nb129  1  0.59783244  0.00514099  -0.00203210  1
  Nb  Nb130  1  0.79767170  0.00056430  0.80338709  1
  Nb  Nb131  1  0.20289985  0.19914747  0.79948169  1
  Nb  Nb132  1  0.80343244  0.80350084  0.20579200  1
  Nb  Nb133  1  0.40129711  -0.00408880  0.80661305  1
  Nb  Nb134  1  0.59471752  0.39231958  0.21024983  1
  Nb  Nb135  1  0.80219785  0.39960776  0.60050312  1
  Nb  Nb136  1  0.59814454  0.21491491  0.59672280  1
  Nb  Nb137  1  0.00395720  0.40329938  0.00625080  1
  Nb  Nb138  1  0.19213856  0.60251305  0.00903958  1
  Nb  Nb139  1  0.59694830  0.20590255  0.39845984  1
  Nb  Nb140  1  0.19817144  0.79532304  -0.00499741  1
  Nb  Nb141  1  0.79342291  0.59696657  0.79831676  1
  Nb  Nb142  1  0.19385998  0.19973982  0.40550174  1
  Nb  Nb143  1  0.59599919  0.20290788  0.20428709  1
  Nb  Nb144  1  0.00612463  0.59128381  0.59515874  1
  Nb  Nb145  1  0.20015260  0.80661188  0.80719060  1
  Nb  Nb146  1  -0.00391738  0.39630658  0.59151288  1
  Nb  Nb147  1  0.20523248  0.00820806  0.40129624  1
  Nb  Nb148  1  0.60582727  0.59158572  0.79491375  1
  Nb  Nb149  1  0.19343589  0.59415533  0.59613246  1
  Pd  Pd150  1  -0.00795508  0.39580678  0.19634410  1
  Pd  Pd151  1  0.00277450  0.80521348  0.00457302  1
  Pd  Pd152  1  0.19501127  -0.00368833  0.00721012  1
  Pd  Pd153  1  0.21141057  0.00359510  0.20622212  1
  Pd  Pd154  1  0.59087836  0.59922147  0.39031431  1
  Pd  Pd155  1  0.01266244  0.60152912  0.39662550  1
  Pd  Pd156  1  0.20468983  0.60411038  0.20160160  1
  Pd  Pd157  1  0.60151572  0.79679469  0.40443473  1
  Pd  Pd158  1  0.19729523  0.81103599  0.39611956  1
  Pd  Pd159  1  0.39002152  0.60223840  0.00346966  1
  Pd  Pd160  1  0.20785521  0.00519174  0.79917817  1
  Pd  Pd161  1  0.39811517  0.19206550  0.80070006  1
  Pd  Pd162  1  0.39409422  0.40721235  0.59785817  1
  Pd  Pd163  1  0.00885534  0.80434254  0.39731568  1
  Pd  Pd164  1  0.00586835  0.59106029  0.00932112  1
  Pd  Pd165  1  0.39954642  0.19560103  -0.00076774  1
  Pd  Pd166  1  0.38987557  0.78631433  -0.00894480  1
  Pd  Pd167  1  0.60845018  0.19523724  0.00691301  1
  Pd  Pd168  1  0.60311532  0.40047943  0.39352408  1
  Pd  Pd169  1  0.60536946  0.59428572  -0.00967864  1
  Pd  Pd170  1  0.40633294  0.20230368  0.59887103  1
  Pd  Pd171  1  -0.00849686  0.39454869  0.39662709  1
  Pd  Pd172  1  0.19637844  0.00369330  0.59311488  1
  Pd  Pd173  1  0.00964406  0.20019582  0.80282781  1
  Pd  Pd174  1  0.00085089  0.20252835  0.20793236  1
  Pd  Pd175  1  0.59566906  0.20404175  0.78818833  1
  Pd  Pd176  1  0.80975823  0.60944954  0.20570924  1
  Pd  Pd177  1  0.19183022  0.19719401  -0.00781805  1
  Pd  Pd178  1  0.59017730  0.78989744  0.79913722  1
  Pd  Pd179  1  0.59038103  0.58464298  0.20976162  1
  Pd  Pd180  1  0.19049340  0.41066020  0.00851561  1
  Pd  Pd181  1  0.59272559  0.40052115  0.80757249  1
  Pd  Pd182  1  -0.00853456  -0.00724699  0.79759601  1
  Pd  Pd183  1  0.60732696  0.80537086  0.20009130  1
  Pd  Pd184  1  0.59768467  0.00482196  0.19355418  1
  Pd  Pd185  1  0.79336344  0.40158454  0.19782851  1
  Pd  Pd186  1  0.80617320  0.59453166  0.60560983  1
  Pd  Pd187  1  0.59218761  0.01180401  0.41062156  1
  Pd  Pd188  1  0.01088895  0.20708938  -0.00142789  1
  Pd  Pd189  1  0.80106921  0.80088569  0.80252785  1
  Pd  Pd190  1  0.79332873  0.20504627  0.60434341  1
  Pd  Pd191  1  0.39343602  0.59434092  0.60206798  1
  Pd  Pd192  1  0.00392181  0.80389560  0.80049615  1
  Pd  Pd193  1  0.40132510  0.20135591  0.19097482  1
  Pd  Pd194  1  0.79566094  0.80381503  0.39668421  1
  Pd  Pd195  1  0.80042047  0.40748432  0.39780769  1
  Pd  Pd196  1  0.79046754  0.19650619  0.00401949  1
  Pd  Pd197  1  -0.00431491  0.60747971  0.20357228  1
  Pd  Pd198  1  0.19537019  0.60814427  0.39785261  1
  Pd  Pd199  1  0.80132155  0.18833005  0.40622305  1
  Rh  Rh200  1  0.80364126  0.39898130  0.79323149  1
  Rh  Rh201  1  0.19988511  0.20758797  0.20654757  1
  Rh  Rh202  1  -0.00944101  0.79784847  0.20102970  1
  Rh  Rh203  1  0.20090804  0.19219304  0.59946376  1
  Rh  Rh204  1  0.00501625  0.00661010  0.39809022  1
  Rh  Rh205  1  0.80425862  -0.00971022  0.20394816  1
  Rh  Rh206  1  0.59574063  0.60219586  0.60379870  1
  Rh  Rh207  1  0.39930526  0.80880405  0.39926911  1
  Rh  Rh208  1  0.59991798  0.79291216  0.59124342  1
  Rh  Rh209  1  0.80977413  0.39949356  0.01003006  1
  Rh  Rh210  1  0.39256885  0.39318826  0.40775988  1
  Rh  Rh211  1  0.59914733  -0.00401240  0.80447149  1
  Rh  Rh212  1  0.19634387  0.79167290  0.61011268  1
  Rh  Rh213  1  0.79161174  0.19256224  0.79419087  1
  Rh  Rh214  1  0.59643605  0.01247124  0.59788425  1
  Rh  Rh215  1  0.39962675  0.39994900  -0.00028151  1
  Rh  Rh216  1  0.60559355  0.39768668  0.59372048  1
  Rh  Rh217  1  0.60113260  0.80271658  0.00469494  1
  Rh  Rh218  1  0.79740649  0.60219805  -0.00756386  1
  Rh  Rh219  1  0.20769094  0.39141667  0.79345028  1
  Rh  Rh220  1  0.40431968  0.39760616  0.19387026  1
  Rh  Rh221  1  0.00746052  -0.00159679  0.00382902  1
  Rh  Rh222  1  0.39998178  0.80046800  0.60645442  1
  Rh  Rh223  1  0.40531898  0.59591996  0.20468644  1
  Rh  Rh224  1  -0.00565379  0.38616438  0.79910292  1
  Rh  Rh225  1  0.40547790  0.39602896  0.79902548  1
  Rh  Rh226  1  0.20132969  0.40792487  0.60052831  1
  Rh  Rh227  1  0.20754622  0.39455374  0.20052564  1
  Rh  Rh228  1  0.80444080  -0.00028520  0.40145995  1
  Rh  Rh229  1  0.41379401  0.60466573  0.79303782  1
  Rh  Rh230  1  0.40445809  0.60108994  0.39600828  1
  Rh  Rh231  1  0.79949220  0.60223013  0.39384454  1
  Rh  Rh232  1  0.40559447  0.01053770  0.00203063  1
  Rh  Rh233  1  0.20200679  0.80120276  0.19566612  1
  Rh  Rh234  1  0.40418431  0.80806189  0.20417643  1
  Rh  Rh235  1  0.79400414  0.20053239  0.19238788  1
  Rh  Rh236  1  0.40206394  -0.00119022  0.59800399  1
  Rh  Rh237  1  -0.00250304  -0.00066756  0.19688588  1
  Rh  Rh238  1  0.19566656  0.60639162  0.79563830  1
  Rh  Rh239  1  -0.00427406  0.60776062  0.79363222  1
  Rh  Rh240  1  0.80530912  0.79695334  0.00864970  1
  Rh  Rh241  1  0.79810911  0.80479972  0.59264019  1
  Rh  Rh242  1  0.59487130  0.40296253  0.00269406  1
  Rh  Rh243  1  0.79099200  0.00323099  -0.01196547  1
  Rh  Rh244  1  0.21013988  0.38825298  0.39343963  1
  Rh  Rh245  1  -0.00726655  0.20310390  0.59441245  1
  Rh  Rh246  1  0.39729467  0.20150979  0.40780119  1
  Rh  Rh247  1  0.00413910  0.79943551  0.60138945  1
  Rh  Rh248  1  0.00108305  -0.00944470  0.60597022  1
  Rh  Rh249  1  0.79986345  -0.00597520  0.61027886  1
