# generated using pymatgen
data_ZrScNbPdRh
_symmetry_space_group_name_H-M   'P 1'
_cell_length_a   16.55990649
_cell_length_b   16.56297539
_cell_length_c   16.55977982
_cell_angle_alpha   89.99541777
_cell_angle_beta   90.00202213
_cell_angle_gamma   89.98350329
_symmetry_Int_Tables_number   1
_chemical_formula_structural   ZrScNbPdRh
_chemical_formula_sum   'Zr50 Sc50 Nb50 Pd50 Rh50'
_cell_volume   4542.03812384
_cell_formula_units_Z   50
loop_
 _symmetry_equiv_pos_site_id
 _symmetry_equiv_pos_as_xyz
  1  'x, y, z'
loop_
 _atom_site_type_symbol
 _atom_site_label
 _atom_site_symmetry_multiplicity
 _atom_site_fract_x
 _atom_site_fract_y
 _atom_site_fract_z
 _atom_site_occupancy
  Zr  Zr0  1  0.29572896  0.49689966  0.09631241  1
  Zr  Zr1  1  0.90262568  0.30415868  0.50037327  1
  Zr  Zr2  1  0.70282787  0.09536297  0.29894481  1
  Zr  Zr3  1  0.70592558  0.09562713  0.90002265  1
  Zr  Zr4  1  0.89891236  0.70046579  0.30388353  1
  Zr  Zr5  1  0.30948458  0.69790873  0.70676954  1
  Zr  Zr6  1  0.30018661  0.70917527  0.30573563  1
  Zr  Zr7  1  0.69763295  0.90258134  0.89873745  1
  Zr  Zr8  1  0.49814193  0.09843028  0.50397142  1
  Zr  Zr9  1  0.70067453  0.69844844  0.70681667  1
  Zr  Zr10  1  0.90524063  0.09886161  0.29003783  1
  Zr  Zr11  1  0.89684947  0.50371388  0.70659382  1
  Zr  Zr12  1  0.50217229  0.69562590  0.30480243  1
  Zr  Zr13  1  0.49892565  0.50266535  0.70395264  1
  Zr  Zr14  1  0.89487431  0.30173571  0.10561814  1
  Zr  Zr15  1  0.50284007  0.90025289  0.89845911  1
  Zr  Zr16  1  0.30581966  0.89779447  0.50057919  1
  Zr  Zr17  1  0.90382748  0.09997718  0.49444460  1
  Zr  Zr18  1  0.90661934  0.70520641  0.49992339  1
  Zr  Zr19  1  0.69887555  0.70076426  0.50666257  1
  Zr  Zr20  1  0.10779204  0.90323949  0.28991282  1
  Zr  Zr21  1  0.50979056  0.29903381  0.09388402  1
  Zr  Zr22  1  0.10117107  0.69748005  0.90841840  1
  Zr  Zr23  1  0.09929762  0.30778712  0.29988658  1
  Zr  Zr24  1  0.69871749  0.10010148  0.50201540  1
  Zr  Zr25  1  0.49607678  0.90273395  0.09600251  1
  Zr  Zr26  1  0.70415718  0.89034665  0.70303315  1
  Zr  Zr27  1  0.10379528  0.49702359  0.48905992  1
  Zr  Zr28  1  0.30069223  0.50225720  0.50317733  1
  Zr  Zr29  1  0.90362897  0.29989615  0.29180746  1
  Zr  Zr30  1  0.10394342  0.69274513  0.31123726  1
  Zr  Zr31  1  0.70560815  0.89597811  0.29868506  1
  Zr  Zr32  1  0.90380641  0.90380222  0.30405916  1
  Zr  Zr33  1  0.28829271  0.69975298  0.09728959  1
  Zr  Zr34  1  0.69210892  0.29669243  0.90518417  1
  Zr  Zr35  1  0.70042037  0.50265583  0.70196581  1
  Zr  Zr36  1  0.90433598  0.10489625  0.09655710  1
  Zr  Zr37  1  0.70309000  0.30032758  0.50181845  1
  Zr  Zr38  1  0.70349388  0.49880674  0.49991606  1
  Zr  Zr39  1  0.70385260  0.10955513  0.09555157  1
  Zr  Zr40  1  0.89755064  0.71057026  0.70014909  1
  Zr  Zr41  1  0.89528904  0.50241686  0.50273264  1
  Zr  Zr42  1  0.69255754  0.89430582  0.09729692  1
  Zr  Zr43  1  0.90240274  0.69107510  0.89666438  1
  Zr  Zr44  1  0.28978888  0.49958219  0.29801356  1
  Zr  Zr45  1  0.69390652  0.29587553  0.70443543  1
  Zr  Zr46  1  0.29794323  0.10061933  0.29376666  1
  Zr  Zr47  1  0.50113973  0.50912550  0.49190972  1
  Zr  Zr48  1  0.50447687  0.69928239  0.70772008  1
  Zr  Zr49  1  0.09494957  0.70651425  0.70407967  1
  Sc  Sc50  1  0.89636851  0.49304777  0.30235210  1
  Sc  Sc51  1  0.50209856  0.50140160  0.29964321  1
  Sc  Sc52  1  0.31082479  0.30261039  0.09758282  1
  Sc  Sc53  1  0.49486264  0.10934757  0.69841927  1
  Sc  Sc54  1  0.49775668  0.28927539  0.50219509  1
  Sc  Sc55  1  0.09566230  0.89520064  0.49942744  1
  Sc  Sc56  1  0.29946604  0.10071553  0.09387982  1
  Sc  Sc57  1  0.90092030  0.90771172  0.09737596  1
  Sc  Sc58  1  0.29856761  0.49694116  0.70593211  1
  Sc  Sc59  1  0.70394151  0.48874698  0.09335357  1
  Sc  Sc60  1  0.30827440  0.91483429  0.89508261  1
  Sc  Sc61  1  0.10176319  0.09598469  0.70581093  1
  Sc  Sc62  1  0.49580912  0.10622228  0.09828063  1
  Sc  Sc63  1  0.10131921  0.48993364  0.70061253  1
  Sc  Sc64  1  0.91062543  0.29332792  0.89447150  1
  Sc  Sc65  1  0.29474167  0.90123106  0.11279038  1
  Sc  Sc66  1  0.09755181  0.10412065  0.28969774  1
  Sc  Sc67  1  0.90728439  0.09523292  0.90383827  1
  Sc  Sc68  1  0.89578981  0.90596131  0.89298922  1
  Sc  Sc69  1  0.90663822  0.69554804  0.08903357  1
  Sc  Sc70  1  0.90480673  0.30076581  0.69903834  1
  Sc  Sc71  1  0.29582526  0.30039326  0.70142437  1
  Sc  Sc72  1  0.28658714  0.29513899  0.50216636  1
  Sc  Sc73  1  0.09972970  0.29607467  0.10075705  1
  Sc  Sc74  1  0.29778464  0.29528419  0.29455249  1
  Sc  Sc75  1  0.70298570  0.30708695  0.29028556  1
  Sc  Sc76  1  0.10526943  0.10660695  0.50539924  1
  Sc  Sc77  1  0.70074443  0.10567001  0.70468658  1
  Sc  Sc78  1  0.29394188  0.49196579  0.90075845  1
  Sc  Sc79  1  0.90107262  0.10176116  0.71395743  1
  Sc  Sc80  1  0.10380815  0.70173640  0.09283090  1
  Sc  Sc81  1  0.69530867  0.50140180  0.30863798  1
  Sc  Sc82  1  0.09761153  0.29725674  0.69730797  1
  Sc  Sc83  1  0.10373217  0.90037301  0.09467882  1
  Sc  Sc84  1  0.30317655  0.91133477  0.70109710  1
  Sc  Sc85  1  0.49056180  0.69829959  0.50399043  1
  Sc  Sc86  1  0.49074185  0.09574074  0.90125092  1
  Sc  Sc87  1  0.49855836  0.89456724  0.70250348  1
  Sc  Sc88  1  0.30170971  0.10074392  0.51342079  1
  Sc  Sc89  1  0.71142532  0.50098894  0.89462693  1
  Sc  Sc90  1  0.51197730  0.70944489  0.10842737  1
  Sc  Sc91  1  0.49406039  0.48680797  0.09881864  1
  Sc  Sc92  1  0.49957791  0.49249680  0.89328701  1
  Sc  Sc93  1  0.49606371  0.89906607  0.50159584  1
  Sc  Sc94  1  0.49614473  0.30104302  0.28840736  1
  Sc  Sc95  1  0.09726677  0.90373385  0.70546574  1
  Sc  Sc96  1  0.09896951  0.30350668  0.50752723  1
  Sc  Sc97  1  0.49459777  0.30180144  0.89517164  1
  Sc  Sc98  1  0.49127696  0.10091503  0.30086600  1
  Sc  Sc99  1  0.89759311  0.49571276  0.09876626  1
  Nb  Nb100  1  0.10356132  0.29815206  0.90458857  1
  Nb  Nb101  1  0.29479460  0.30048829  0.90571068  1
  Nb  Nb102  1  0.90000793  0.89745197  0.69727200  1
  Nb  Nb103  1  0.69907542  0.90021575  0.49968740  1
  Nb  Nb104  1  0.49010907  0.89736083  0.30079809  1
  Nb  Nb105  1  0.10119077  0.69543630  0.50145002  1
  Nb  Nb106  1  0.49879031  0.70140951  0.89635359  1
  Nb  Nb107  1  0.70097675  0.29638557  0.09725233  1
  Nb  Nb108  1  0.30134746  0.70150335  0.90055409  1
  Nb  Nb109  1  0.29559666  0.09604729  0.70844839  1
  Nb  Nb110  1  0.10060752  0.49940433  0.29265690  1
  Nb  Nb111  1  0.89634862  0.89725204  0.50255940  1
  Nb  Nb112  1  0.10031872  0.91081269  0.89908937  1
  Nb  Nb113  1  0.09870334  0.49734429  0.90668250  1
  Nb  Nb114  1  0.50231777  0.30840715  0.70129976  1
  Nb  Nb115  1  0.30159463  0.90132252  0.30094771  1
  Nb  Nb116  1  0.90908993  0.50271437  0.90289562  1
  Nb  Nb117  1  0.69646160  0.70062835  0.90198861  1
  Nb  Nb118  1  0.29830388  0.69698615  0.49980448  1
  Nb  Nb119  1  0.29906246  0.10165505  0.89418049  1
  Nb  Nb120  1  0.69633744  0.70345254  0.10242027  1
  Nb  Nb121  1  0.69317529  0.70296688  0.28700634  1
  Nb  Nb122  1  0.09282150  0.09261725  0.09151660  1
  Nb  Nb123  1  0.10473822  0.50492773  0.10257382  1
  Nb  Nb124  1  0.09831649  0.09996823  0.90747114  1
  Nb  Nb125  1  0.60523189  0.19821243  0.39804641  1
  Nb  Nb126  1  0.00649940  0.40369589  -0.00301871  1
  Nb  Nb127  1  0.00163302  0.59835002  0.20222198  1
  Nb  Nb128  1  0.80193559  -0.00708469  0.59929965  1
  Nb  Nb129  1  0.20215546  0.79362864  0.60240504  1
  Nb  Nb130  1  0.39606623  0.39983735  0.40452607  1
  Nb  Nb131  1  0.59536801  0.39945552  0.60121764  1
  Nb  Nb132  1  0.79274011  0.79431623  -0.00232847  1
  Nb  Nb133  1  0.20622298  -0.00132180  0.39600608  1
  Nb  Nb134  1  0.60116050  0.80281487  0.39668457  1
  Nb  Nb135  1  0.59695232  -0.00346785  0.20292213  1
  Nb  Nb136  1  0.59827825  0.60520861  -0.00295060  1
  Nb  Nb137  1  0.40408125  0.60717587  -0.00000581  1
  Nb  Nb138  1  0.39885398  0.79477805  -0.00406657  1
  Nb  Nb139  1  0.40551875  0.40052510  0.59855360  1
  Nb  Nb140  1  0.39519886  0.60225941  0.19413390  1
  Nb  Nb141  1  0.20298182  0.80188070  0.80473608  1
  Nb  Nb142  1  -0.01039079  -0.00544743  0.59986038  1
  Nb  Nb143  1  0.00531446  0.60243384  0.59775501  1
  Nb  Nb144  1  0.19765262  0.60662455  0.59927532  1
  Nb  Nb145  1  0.60642147  -0.00371349  0.59873239  1
  Nb  Nb146  1  0.79580623  0.60664089  0.19805030  1
  Nb  Nb147  1  0.20081445  0.19664651  0.81268665  1
  Nb  Nb148  1  0.00127974  0.79516022  0.20270641  1
  Nb  Nb149  1  0.80058579  0.19966929  0.39631436  1
  Pd  Pd150  1  0.20989864  0.81705708  -0.01068963  1
  Pd  Pd151  1  0.79350202  0.60200882  0.00545802  1
  Pd  Pd152  1  0.80751506  0.19379826  0.60083592  1
  Pd  Pd153  1  0.00613250  0.80544591  0.39536750  1
  Pd  Pd154  1  0.19585287  0.19529518  0.39969935  1
  Pd  Pd155  1  0.59986794  0.40765545  -0.00757873  1
  Pd  Pd156  1  0.40016593  0.20651559  0.39703829  1
  Pd  Pd157  1  0.00275496  0.39810094  0.80350140  1
  Pd  Pd158  1  0.59065474  -0.00316304  0.39836111  1
  Pd  Pd159  1  0.59821585  0.19401162  0.20569399  1
  Pd  Pd160  1  0.59779856  0.01082723  0.00562240  1
  Pd  Pd161  1  0.39233467  0.20636030  0.60761677  1
  Pd  Pd162  1  0.80396215  0.00240759  0.40330143  1
  Pd  Pd163  1  0.19131867  -0.00714316  0.59489647  1
  Pd  Pd164  1  0.39664034  0.59059022  0.81025175  1
  Pd  Pd165  1  0.80363200  0.39295610  0.80604505  1
  Pd  Pd166  1  0.79365953  0.79451942  0.40219514  1
  Pd  Pd167  1  0.19558735  0.60165346  0.80082997  1
  Pd  Pd168  1  0.00387614  0.80902559  0.81218635  1
  Pd  Pd169  1  0.00270875  0.20256394  0.39704492  1
  Pd  Pd170  1  0.58940693  0.38840729  0.40436040  1
  Pd  Pd171  1  0.80423504  0.20301948  0.80654697  1
  Pd  Pd172  1  0.40246624  0.20297275  -0.00273234  1
  Pd  Pd173  1  0.81031242  0.39160079  -0.01113880  1
  Pd  Pd174  1  0.59777123  0.59706815  0.59967645  1
  Pd  Pd175  1  0.01329789  0.00144736  0.40478767  1
  Pd  Pd176  1  0.39278662  0.00485351  0.40292353  1
  Pd  Pd177  1  0.79353907  0.60557806  0.39379802  1
  Pd  Pd178  1  0.80842165  0.20518305  -0.00888029  1
  Pd  Pd179  1  0.59057600  0.19364589  0.80760598  1
  Pd  Pd180  1  -0.00079568  0.19067480  0.60844558  1
  Pd  Pd181  1  0.59507019  0.00646181  0.78809050  1
  Pd  Pd182  1  0.40261725  0.00442132  0.19555764  1
  Pd  Pd183  1  0.39433810  0.20623794  0.79787974  1
  Pd  Pd184  1  0.20821767  -0.00292611  0.00064838  1
  Pd  Pd185  1  0.60476754  0.40550716  0.19824592  1
  Pd  Pd186  1  -0.00211452  0.40238755  0.39963782  1
  Pd  Pd187  1  0.39876470  0.79347267  0.19344172  1
  Pd  Pd188  1  0.39789429  0.79886744  0.60448211  1
  Pd  Pd189  1  0.79712068  0.39679214  0.60964085  1
  Pd  Pd190  1  0.19906283  0.80774233  0.40624813  1
  Pd  Pd191  1  0.60000313  0.58624168  0.18832856  1
  Pd  Pd192  1  0.19676227  0.39145803  0.80026752  1
  Pd  Pd193  1  0.79591231  -0.00047558  0.19005712  1
  Pd  Pd194  1  0.20189471  0.39002152  0.19266612  1
  Pd  Pd195  1  -0.00736429  0.80897188  -0.00165274  1
  Pd  Pd196  1  0.20089682  0.19826373  0.00279641  1
  Pd  Pd197  1  0.00858837  0.59459845  0.79443426  1
  Pd  Pd198  1  0.19844505  0.19856474  0.18844704  1
  Pd  Pd199  1  0.81355455  0.79472534  0.18766695  1
  Rh  Rh200  1  0.79746661  0.20117379  0.20382269  1
  Rh  Rh201  1  0.40566004  0.79908782  0.40236877  1
  Rh  Rh202  1  0.00369087  0.40924345  0.19015242  1
  Rh  Rh203  1  0.40699514  0.00459997  0.79381560  1
  Rh  Rh204  1  0.00559972  0.80230007  0.59872827  1
  Rh  Rh205  1  0.80011221  0.00081868  0.79359266  1
  Rh  Rh206  1  0.19588837  0.00302080  0.80667319  1
  Rh  Rh207  1  0.59484404  0.19676709  -0.00653532  1
  Rh  Rh208  1  0.19946502  0.19722205  0.61461402  1
  Rh  Rh209  1  0.80881400  0.60801096  0.60354612  1
  Rh  Rh210  1  0.39216577  0.39502509  0.79799932  1
  Rh  Rh211  1  0.60543979  0.40188069  0.79876270  1
  Rh  Rh212  1  0.19177394  0.79339466  0.20215668  1
  Rh  Rh213  1  0.20316274  0.39326269  0.39738962  1
  Rh  Rh214  1  0.59701109  0.80499804  0.59333774  1
  Rh  Rh215  1  0.79326910  0.40885583  0.20186789  1
  Rh  Rh216  1  0.00478773  -0.00617217  0.19159979  1
  Rh  Rh217  1  0.60069674  0.79876967  0.80232891  1
  Rh  Rh218  1  0.39457930  0.59612952  0.60604286  1
  Rh  Rh219  1  0.20529757  0.40497137  0.60176944  1
  Rh  Rh220  1  0.60798723  0.61227901  0.40223185  1
  Rh  Rh221  1  0.20532199  0.59801282  0.40307819  1
  Rh  Rh222  1  0.39154237  0.59492035  0.38796708  1
  Rh  Rh223  1  0.59727722  0.79432897  -0.00821415  1
  Rh  Rh224  1  0.19837310  0.00867577  0.19933865  1
  Rh  Rh225  1  0.39691903  0.40687911  0.21021391  1
  Rh  Rh226  1  0.39510818  0.80605658  0.80591947  1
  Rh  Rh227  1  0.00304213  0.58966513  0.00844366  1
  Rh  Rh228  1  -0.00156505  0.58976805  0.39995842  1
  Rh  Rh229  1  0.39847174  0.20083639  0.19358419  1
  Rh  Rh230  1  -0.00289520  0.40894971  0.60026004  1
  Rh  Rh231  1  0.59807107  0.20076907  0.59881668  1
  Rh  Rh232  1  0.01192836  0.19608134  0.80346839  1
  Rh  Rh233  1  0.59185135  0.81159424  0.21056495  1
  Rh  Rh234  1  0.39462994  -0.00379237  0.00380132  1
  Rh  Rh235  1  0.79760764  0.80068486  0.59670397  1
  Rh  Rh236  1  0.00741947  0.19899991  0.19186491  1
  Rh  Rh237  1  0.80078588  0.79711878  0.81133302  1
  Rh  Rh238  1  0.19469324  0.39910474  0.00558026  1
  Rh  Rh239  1  0.39971226  0.40144590  -0.00768368  1
  Rh  Rh240  1  0.80130219  0.60312455  0.80152622  1
  Rh  Rh241  1  0.40835065  0.00220943  0.60801481  1
  Rh  Rh242  1  0.19799170  0.60614322  0.20256694  1
  Rh  Rh243  1  0.60290731  0.59745410  0.80897177  1
  Rh  Rh244  1  0.80383919  0.39024647  0.39399112  1
  Rh  Rh245  1  -0.00112406  -0.00467388  -0.00281644  1
  Rh  Rh246  1  0.00007309  0.00066478  0.79807233  1
  Rh  Rh247  1  0.79976660  -0.00545003  0.00120455  1
  Rh  Rh248  1  -0.00035404  0.20649565  0.00313834  1
  Rh  Rh249  1  0.20426981  0.59333633  -0.00820490  1
