# generated using pymatgen
data_ZrScNbPdRh
_symmetry_space_group_name_H-M   'P 1'
_cell_length_a   16.54986001
_cell_length_b   16.54817665
_cell_length_c   16.55327186
_cell_angle_alpha   90.01167665
_cell_angle_beta   89.97975154
_cell_angle_gamma   89.99003992
_symmetry_Int_Tables_number   1
_chemical_formula_structural   ZrScNbPdRh
_chemical_formula_sum   'Zr50 Sc50 Nb50 Pd50 Rh50'
_cell_volume   4533.44423375
_cell_formula_units_Z   50
loop_
 _symmetry_equiv_pos_site_id
 _symmetry_equiv_pos_as_xyz
  1  'x, y, z'
loop_
 _atom_site_type_symbol
 _atom_site_label
 _atom_site_symmetry_multiplicity
 _atom_site_fract_x
 _atom_site_fract_y
 _atom_site_fract_z
 _atom_site_occupancy
  Zr  Zr0  1  0.10389474  0.30412989  0.68808137  1
  Zr  Zr1  1  0.70480881  0.30133968  0.70247409  1
  Zr  Zr2  1  0.50257479  0.69303034  0.70786021  1
  Zr  Zr3  1  0.09890035  0.10102944  0.90139642  1
  Zr  Zr4  1  0.49035228  0.29923495  0.30230740  1
  Zr  Zr5  1  0.71137372  0.70025363  0.30654156  1
  Zr  Zr6  1  0.09628546  0.10977823  0.49866172  1
  Zr  Zr7  1  0.90047753  0.70782190  0.09106622  1
  Zr  Zr8  1  0.30729351  0.69931674  0.10216316  1
  Zr  Zr9  1  0.09838050  0.89839565  0.10281762  1
  Zr  Zr10  1  0.90603905  0.90164144  0.50752689  1
  Zr  Zr11  1  0.29428868  0.49533196  0.09742005  1
  Zr  Zr12  1  0.50193790  0.89643227  0.09673898  1
  Zr  Zr13  1  0.71418332  0.10423314  0.30056238  1
  Zr  Zr14  1  0.09861572  0.49474318  0.30878357  1
  Zr  Zr15  1  0.30178921  0.29852560  0.90475414  1
  Zr  Zr16  1  0.50205771  0.49197207  0.49718485  1
  Zr  Zr17  1  0.09187649  0.50206116  0.70044130  1
  Zr  Zr18  1  0.29930610  0.51068611  0.70068959  1
  Zr  Zr19  1  0.50375914  0.69828603  0.50607534  1
  Zr  Zr20  1  0.49536267  0.10270620  0.31061659  1
  Zr  Zr21  1  0.50280425  0.50054456  0.89189878  1
  Zr  Zr22  1  0.49849220  0.09824819  0.09118273  1
  Zr  Zr23  1  0.88859372  0.50071001  0.69644641  1
  Zr  Zr24  1  0.90083332  0.50928886  0.89351383  1
  Zr  Zr25  1  0.70517942  0.49718404  0.50203294  1
  Zr  Zr26  1  0.29941596  0.10414290  0.89689907  1
  Zr  Zr27  1  0.70284958  0.69479307  0.69282240  1
  Zr  Zr28  1  0.29850297  0.49839938  0.90260022  1
  Zr  Zr29  1  0.29208438  0.90406381  0.30302377  1
  Zr  Zr30  1  0.29891787  0.48364824  0.30075242  1
  Zr  Zr31  1  0.30110687  0.69825265  0.29740600  1
  Zr  Zr32  1  0.29718575  0.30200594  0.10067588  1
  Zr  Zr33  1  0.71004410  0.10041567  0.10020389  1
  Zr  Zr34  1  0.09191921  0.70752648  0.30700372  1
  Zr  Zr35  1  0.90083426  0.09284746  0.90283212  1
  Zr  Zr36  1  0.50526327  0.49378932  0.29701519  1
  Zr  Zr37  1  0.49602036  0.50413838  0.09434231  1
  Zr  Zr38  1  0.89885541  0.29114513  0.30120835  1
  Zr  Zr39  1  0.10487257  0.89321548  0.49985552  1
  Zr  Zr40  1  0.09489920  0.69706177  0.89409138  1
  Zr  Zr41  1  0.09886856  0.49997843  0.90830864  1
  Zr  Zr42  1  0.50706831  0.90525390  0.90141678  1
  Zr  Zr43  1  0.10753234  0.49391576  0.50356786  1
  Zr  Zr44  1  0.50371639  0.90950386  0.50044917  1
  Zr  Zr45  1  0.90270753  0.69473530  0.69814240  1
  Zr  Zr46  1  0.70187167  0.10255764  0.70804349  1
  Zr  Zr47  1  0.88907342  0.70044365  0.49641794  1
  Zr  Zr48  1  0.29761214  0.89592426  0.50429455  1
  Zr  Zr49  1  0.90019768  0.29299744  0.10429398  1
  Sc  Sc50  1  0.70022674  0.30220023  0.09249558  1
  Sc  Sc51  1  0.69551659  0.29985263  0.89715293  1
  Sc  Sc52  1  0.28864585  0.90214274  0.70350169  1
  Sc  Sc53  1  0.70420510  0.09839604  0.89750509  1
  Sc  Sc54  1  0.49730027  0.30003100  0.09264024  1
  Sc  Sc55  1  0.28729020  0.70138597  0.89322202  1
  Sc  Sc56  1  0.09911004  0.29899060  0.09739084  1
  Sc  Sc57  1  0.49923593  0.30330683  0.89922958  1
  Sc  Sc58  1  0.49294321  0.69428504  0.28406949  1
  Sc  Sc59  1  0.69943112  0.30230502  0.49905844  1
  Sc  Sc60  1  0.70124386  0.69950505  0.09081763  1
  Sc  Sc61  1  0.90651091  0.10012234  0.71479575  1
  Sc  Sc62  1  0.90944030  0.90384151  0.70313387  1
  Sc  Sc63  1  0.69183316  0.09570320  0.49125166  1
  Sc  Sc64  1  0.70127364  0.49996880  0.89749704  1
  Sc  Sc65  1  0.50138593  0.09918480  0.70173602  1
  Sc  Sc66  1  0.30243315  0.10084956  0.50129510  1
  Sc  Sc67  1  0.50610565  0.90326915  0.70520466  1
  Sc  Sc68  1  0.70375157  0.90323267  0.08906682  1
  Sc  Sc69  1  0.29764060  0.89664643  0.10066753  1
  Sc  Sc70  1  0.90221321  0.30607724  0.70079039  1
  Sc  Sc71  1  0.09841032  0.70398949  0.08997284  1
  Sc  Sc72  1  0.50450343  0.29713005  0.70564569  1
  Sc  Sc73  1  0.69919973  0.69733879  0.90156664  1
  Sc  Sc74  1  0.89660983  0.49560567  0.08624564  1
  Sc  Sc75  1  0.09749011  0.29551677  0.30468495  1
  Sc  Sc76  1  0.69912528  0.90590652  0.90247632  1
  Sc  Sc77  1  0.29524014  0.29711067  0.50422711  1
  Sc  Sc78  1  0.70670314  0.91232348  0.30546223  1
  Sc  Sc79  1  0.30440371  0.10500203  0.09503938  1
  Sc  Sc80  1  0.10231379  0.09857809  0.70575616  1
  Sc  Sc81  1  0.49971758  0.09986104  0.50401879  1
  Sc  Sc82  1  0.50115021  0.29678673  0.49346411  1
  Sc  Sc83  1  0.69866998  0.89974382  0.50576930  1
  Sc  Sc84  1  0.69786019  0.90830931  0.70501441  1
  Sc  Sc85  1  0.70191862  0.30853827  0.29816891  1
  Sc  Sc86  1  0.09676272  0.30095598  0.50150120  1
  Sc  Sc87  1  0.50230500  0.69472984  0.09835784  1
  Sc  Sc88  1  0.69484160  0.49666560  0.09840810  1
  Sc  Sc89  1  0.90079338  0.30269546  0.90157737  1
  Sc  Sc90  1  0.28721063  0.69607390  0.50393831  1
  Sc  Sc91  1  0.09811784  0.90000961  0.69613685  1
  Sc  Sc92  1  0.29349687  0.89846140  0.89367255  1
  Sc  Sc93  1  0.30320333  0.29343045  0.70133603  1
  Sc  Sc94  1  0.10041992  0.89642406  0.89460248  1
  Sc  Sc95  1  0.30031771  0.10286529  0.70094678  1
  Sc  Sc96  1  0.90679179  0.29909618  0.49842666  1
  Sc  Sc97  1  0.90306997  0.49594379  0.50002151  1
  Sc  Sc98  1  0.10036964  0.70168402  0.69770807  1
  Sc  Sc99  1  0.09941303  0.29774695  0.90514759  1
  Nb  Nb100  1  0.89703766  0.10544422  0.48949147  1
  Nb  Nb101  1  0.09737729  0.70373361  0.49919305  1
  Nb  Nb102  1  0.49743027  0.89785142  0.29816825  1
  Nb  Nb103  1  0.10400952  0.09343393  0.29627377  1
  Nb  Nb104  1  0.89994665  0.10071915  0.29600215  1
  Nb  Nb105  1  0.29883532  0.10135372  0.29738394  1
  Nb  Nb106  1  0.70399969  0.50159085  0.30215484  1
  Nb  Nb107  1  0.90078960  0.70038333  0.29899617  1
  Nb  Nb108  1  0.89411801  0.69831749  0.89890702  1
  Nb  Nb109  1  0.50340274  0.50239257  0.69980191  1
  Nb  Nb110  1  0.10014437  0.90400920  0.29893629  1
  Nb  Nb111  1  0.30700229  0.28890846  0.29481449  1
  Nb  Nb112  1  0.69981638  0.70284896  0.49757523  1
  Nb  Nb113  1  0.90714668  0.89824689  0.29402510  1
  Nb  Nb114  1  0.69550127  0.49792907  0.70155945  1
  Nb  Nb115  1  0.90104143  0.09994278  0.11028035  1
  Nb  Nb116  1  0.09861944  0.10057933  0.10299871  1
  Nb  Nb117  1  0.89809680  0.90327048  0.09805743  1
  Nb  Nb118  1  0.89786822  0.50093567  0.30252070  1
  Nb  Nb119  1  0.89263801  0.89968153  0.90474932  1
  Nb  Nb120  1  0.49359333  0.09699843  0.90241036  1
  Nb  Nb121  1  0.50532295  0.70715399  0.89963636  1
  Nb  Nb122  1  0.30032527  0.49621286  0.50037492  1
  Nb  Nb123  1  0.10194365  0.49346953  0.10649023  1
  Nb  Nb124  1  0.30052147  0.70467293  0.70106803  1
  Nb  Nb125  1  0.59716211  0.19457842  0.20051303  1
  Nb  Nb126  1  0.80267974  0.19243443  0.59850268  1
  Nb  Nb127  1  0.59636881  0.79724976  0.39536636  1
  Nb  Nb128  1  0.40081707  0.59609746  0.40219201  1
  Nb  Nb129  1  0.60254695  0.60246222  0.39871191  1
  Nb  Nb130  1  0.40149484  0.40878000  0.60295763  1
  Nb  Nb131  1  0.19449707  0.00525650  0.00289456  1
  Nb  Nb132  1  0.40374828  0.79651016  0.40361370  1
  Nb  Nb133  1  0.20038682  0.40397372  0.79947526  1
  Nb  Nb134  1  -0.00195393  0.00223609  0.20055918  1
  Nb  Nb135  1  0.40438796  0.79712249  -0.00861047  1
  Nb  Nb136  1  0.80600464  0.80224566  0.20056959  1
  Nb  Nb137  1  0.80587197  0.01149054  0.59918843  1
  Nb  Nb138  1  -0.00315644  0.59755695  0.20230025  1
  Nb  Nb139  1  0.60695850  0.80538834  0.20493695  1
  Nb  Nb140  1  0.20072149  0.19274723  0.20402828  1
  Nb  Nb141  1  0.59645859  0.00215408  0.20255254  1
  Nb  Nb142  1  0.80550272  0.79785138  0.80431107  1
  Nb  Nb143  1  0.19463250  0.79811422  0.20484728  1
  Nb  Nb144  1  0.40086124  0.00175603  0.20425595  1
  Nb  Nb145  1  -0.00047743  0.00220064  0.39241378  1
  Nb  Nb146  1  0.19149960  0.59807952  0.20148510  1
  Nb  Nb147  1  0.80768519  0.60047005  0.20379252  1
  Nb  Nb148  1  -0.00250887  0.40653117  0.20288526  1
  Nb  Nb149  1  0.39901603  0.79633180  0.60333408  1
  Pd  Pd150  1  0.79825276  0.39840173  0.80601023  1
  Pd  Pd151  1  0.39890093  -0.00168368  0.79468270  1
  Pd  Pd152  1  0.19710631  0.00699566  0.59957312  1
  Pd  Pd153  1  0.60040039  0.19752935  -0.00242181  1
  Pd  Pd154  1  -0.00015938  0.60175716  0.59067356  1
  Pd  Pd155  1  0.39812864  -0.00640110  0.61045509  1
  Pd  Pd156  1  0.39818093  0.80271578  0.79962055  1
  Pd  Pd157  1  -0.00040197  0.80615355  -0.01001890  1
  Pd  Pd158  1  0.59940570  0.39081433  0.19471437  1
  Pd  Pd159  1  0.00203196  0.20850698  0.79864692  1
  Pd  Pd160  1  0.60337558  0.59716568  -0.00576184  1
  Pd  Pd161  1  -0.00450047  0.80178447  0.80196270  1
  Pd  Pd162  1  0.79965453  0.81372102  0.39795977  1
  Pd  Pd163  1  -0.00762336  0.19648361  0.60659263  1
  Pd  Pd164  1  0.38713777  -0.00921726  0.00117622  1
  Pd  Pd165  1  0.60658970  0.20514005  0.39388191  1
  Pd  Pd166  1  0.60631935  0.19955442  0.59846922  1
  Pd  Pd167  1  0.39643558  -0.00214079  0.39984330  1
  Pd  Pd168  1  0.00262333  -0.00350084  0.00276746  1
  Pd  Pd169  1  0.40440999  0.39942268  0.19173408  1
  Pd  Pd170  1  0.19586340  0.00560271  0.41015608  1
  Pd  Pd171  1  0.39874659  0.60640416  0.80857656  1
  Pd  Pd172  1  -0.00059389  0.59758641  0.00606076  1
  Pd  Pd173  1  0.79741866  0.40007088  -0.00705350  1
  Pd  Pd174  1  0.61332510  0.60769412  0.20316206  1
  Pd  Pd175  1  0.80088066  0.81231145  0.61173345  1
  Pd  Pd176  1  0.19658076  0.20788914  0.79711391  1
  Pd  Pd177  1  0.40425661  0.20789844  0.59881175  1
  Pd  Pd178  1  0.20317453  0.38453379  0.40056171  1
  Pd  Pd179  1  0.60574937  0.59501691  0.59559935  1
  Pd  Pd180  1  0.80523438  0.39561496  0.40413138  1
  Pd  Pd181  1  0.19805053  0.60398558  0.00630340  1
  Pd  Pd182  1  0.59497239  0.39349083  0.60440930  1
  Pd  Pd183  1  0.80752643  -0.00645573  0.40765451  1
  Pd  Pd184  1  0.80480535  0.40528857  0.19565328  1
  Pd  Pd185  1  0.59401635  0.19667675  0.80899707  1
  Pd  Pd186  1  -0.00396947  0.20044618  0.00118423  1
  Pd  Pd187  1  0.39906276  0.60876487  -0.01266596  1
  Pd  Pd188  1  0.39629144  0.39864228  0.79138430  1
  Pd  Pd189  1  -0.00144685  0.01216105  0.59732220  1
  Pd  Pd190  1  -0.00309253  0.59887857  0.40517496  1
  Pd  Pd191  1  0.20327364  0.20228093  0.39722202  1
  Pd  Pd192  1  0.20376962  0.60140409  0.39709854  1
  Pd  Pd193  1  0.61312115  0.79993332  0.80002542  1
  Pd  Pd194  1  0.19476047  0.60300326  0.60155834  1
  Pd  Pd195  1  0.59655859  0.80542474  0.60245070  1
  Pd  Pd196  1  -0.00453363  0.80611424  0.40597867  1
  Pd  Pd197  1  0.39737473  0.60064999  0.59470464  1
  Pd  Pd198  1  0.00536953  0.39777235  0.80264349  1
  Pd  Pd199  1  0.80340689  0.19934973  -0.00625893  1
  Rh  Rh200  1  0.20228045  0.00090908  0.19030280  1
  Rh  Rh201  1  0.19414124  0.59791729  0.79566958  1
  Rh  Rh202  1  0.40294336  0.20465274  -0.00483652  1
  Rh  Rh203  1  0.39164403  0.39432621  0.40832769  1
  Rh  Rh204  1  0.79678969  0.80170117  -0.00397438  1
  Rh  Rh205  1  -0.00019843  0.80013001  0.19689793  1
  Rh  Rh206  1  0.19577779  0.00195994  0.80619027  1
  Rh  Rh207  1  0.40349631  0.40084154  0.00040866  1
  Rh  Rh208  1  0.40056481  0.19299308  0.19629861  1
  Rh  Rh209  1  0.38875535  0.58316335  0.20588944  1
  Rh  Rh210  1  0.79951146  0.59401202  0.40209461  1
  Rh  Rh211  1  0.80514929  0.20577002  0.79782222  1
  Rh  Rh212  1  0.19158551  0.38995166  0.20610060  1
  Rh  Rh213  1  0.59685812  0.00848298  0.80582274  1
  Rh  Rh214  1  0.60652375  0.00792882  -0.00076687  1
  Rh  Rh215  1  -0.00082362  0.39824394  0.00620230  1
  Rh  Rh216  1  0.79106139  0.20869283  0.19845940  1
  Rh  Rh217  1  -0.00335590  0.40265165  0.59623239  1
  Rh  Rh218  1  0.79799579  0.59707721  0.00275491  1
  Rh  Rh219  1  -0.00333540  0.39732371  0.39823742  1
  Rh  Rh220  1  0.39264744  0.20046075  0.40853084  1
  Rh  Rh221  1  0.00204259  -0.00637748  0.80599211  1
  Rh  Rh222  1  0.40633830  0.19535431  0.80365253  1
  Rh  Rh223  1  0.79260860  0.60487885  0.79811312  1
  Rh  Rh224  1  0.20053752  0.79526697  0.60453274  1
  Rh  Rh225  1  0.19358568  0.79798983  0.79305382  1
  Rh  Rh226  1  0.19913831  0.19524059  0.00856163  1
  Rh  Rh227  1  0.60822131  0.00604877  0.60376415  1
  Rh  Rh228  1  0.20676759  0.80507334  0.00411552  1
  Rh  Rh229  1  0.39944103  0.80964443  0.19566403  1
  Rh  Rh230  1  0.80167640  0.39177835  0.59921514  1
  Rh  Rh231  1  0.80297599  0.00426129  0.00104738  1
  Rh  Rh232  1  0.79667746  0.20701692  0.40578629  1
  Rh  Rh233  1  0.59702262  0.40474995  -0.00380832  1
  Rh  Rh234  1  0.79663026  0.59628527  0.59534937  1
  Rh  Rh235  1  0.20336279  0.79670391  0.39647271  1
  Rh  Rh236  1  0.19500059  0.39412792  -0.00619029  1
  Rh  Rh237  1  0.19907122  0.19503070  0.60077326  1
  Rh  Rh238  1  0.60551208  0.40210421  0.39419228  1
  Rh  Rh239  1  -0.00095999  0.60075398  0.79833509  1
  Rh  Rh240  1  0.80247912  -0.00745716  0.19558577  1
  Rh  Rh241  1  0.21138691  0.40211821  0.60853008  1
  Rh  Rh242  1  0.00161318  0.19438722  0.39337201  1
  Rh  Rh243  1  0.80494181  -0.00954360  0.79620633  1
  Rh  Rh244  1  0.00749195  0.19992462  0.20388765  1
  Rh  Rh245  1  0.59947262  -0.00362155  0.39575888  1
  Rh  Rh246  1  0.60478866  0.59911901  0.80151872  1
  Rh  Rh247  1  0.59742911  0.79663808  0.00401872  1
  Rh  Rh248  1  0.00028798  0.79176897  0.59712171  1
  Rh  Rh249  1  0.60144345  0.40270616  0.79679005  1
