# generated using pymatgen
data_ZrScNbPdRh
_symmetry_space_group_name_H-M   'P 1'
_cell_length_a   16.55945797
_cell_length_b   16.55956722
_cell_length_c   16.55949851
_cell_angle_alpha   89.96233614
_cell_angle_beta   90.00433769
_cell_angle_gamma   89.97311552
_symmetry_Int_Tables_number   1
_chemical_formula_structural   ZrScNbPdRh
_chemical_formula_sum   'Zr50 Sc50 Nb50 Pd50 Rh50'
_cell_volume   4540.90208418
_cell_formula_units_Z   50
loop_
 _symmetry_equiv_pos_site_id
 _symmetry_equiv_pos_as_xyz
  1  'x, y, z'
loop_
 _atom_site_type_symbol
 _atom_site_label
 _atom_site_symmetry_multiplicity
 _atom_site_fract_x
 _atom_site_fract_y
 _atom_site_fract_z
 _atom_site_occupancy
  Zr  Zr0  1  0.10245177  0.90483150  0.09017709  1
  Zr  Zr1  1  0.69361400  0.90192230  0.10293669  1
  Zr  Zr2  1  0.89697165  0.10448057  0.89685035  1
  Zr  Zr3  1  0.88586273  0.49884593  0.50422799  1
  Zr  Zr4  1  0.50333479  0.50375189  0.30938500  1
  Zr  Zr5  1  0.89262182  0.30590605  0.29018897  1
  Zr  Zr6  1  0.09889535  0.69358345  0.89891451  1
  Zr  Zr7  1  0.50215998  0.30017077  0.88966860  1
  Zr  Zr8  1  0.50048103  0.69914130  0.50201145  1
  Zr  Zr9  1  0.49967907  0.70262940  0.30056584  1
  Zr  Zr10  1  0.69073339  0.89212199  0.70404562  1
  Zr  Zr11  1  0.50785824  0.50172156  0.10188226  1
  Zr  Zr12  1  0.69114410  0.09567300  0.09621223  1
  Zr  Zr13  1  0.10545935  0.29584170  0.70042105  1
  Zr  Zr14  1  0.09776638  0.49387008  0.70042971  1
  Zr  Zr15  1  0.30184599  0.30065353  0.50182687  1
  Zr  Zr16  1  0.50469275  0.30782262  0.30500363  1
  Zr  Zr17  1  0.69253400  0.50842919  0.90333276  1
  Zr  Zr18  1  0.31148919  0.69238781  0.69254165  1
  Zr  Zr19  1  0.70721967  0.30077174  0.11683010  1
  Zr  Zr20  1  0.69642060  0.69984584  0.09798634  1
  Zr  Zr21  1  0.69927821  0.30342544  0.51075641  1
  Zr  Zr22  1  0.50141708  0.49700560  0.90123419  1
  Zr  Zr23  1  0.70146105  0.50265259  0.69378907  1
  Zr  Zr24  1  0.50008814  0.70319861  0.11125217  1
  Zr  Zr25  1  0.30133498  0.89321647  0.70230270  1
  Zr  Zr26  1  0.30557336  0.90535596  0.50114741  1
  Zr  Zr27  1  0.69242338  0.89762302  0.90141410  1
  Zr  Zr28  1  0.10074270  0.91472870  0.30260589  1
  Zr  Zr29  1  0.90353506  0.69764562  0.29753412  1
  Zr  Zr30  1  0.29925475  0.49689282  0.09408183  1
  Zr  Zr31  1  0.91483588  0.50920275  0.89510381  1
  Zr  Zr32  1  0.90408802  0.90160775  0.10377766  1
  Zr  Zr33  1  0.29082284  0.10350387  0.10107313  1
  Zr  Zr34  1  0.10367384  0.50322851  0.08829627  1
  Zr  Zr35  1  0.10138987  0.28738121  0.09467805  1
  Zr  Zr36  1  0.09397321  0.50265850  0.29394752  1
  Zr  Zr37  1  0.69642584  0.09871635  0.90270925  1
  Zr  Zr38  1  0.49833823  0.09880839  0.69962218  1
  Zr  Zr39  1  0.09744033  0.30547767  0.50341616  1
  Zr  Zr40  1  0.10398803  0.69856905  0.29761533  1
  Zr  Zr41  1  0.89558785  0.90471932  0.49401714  1
  Zr  Zr42  1  0.90284494  0.09890818  0.70095588  1
  Zr  Zr43  1  0.49736738  0.51015837  0.71024939  1
  Zr  Zr44  1  0.10002908  0.09736839  0.89651894  1
  Zr  Zr45  1  0.90187380  0.09876043  0.09599633  1
  Zr  Zr46  1  0.50682349  0.90550829  0.50754303  1
  Zr  Zr47  1  0.08606030  0.30034997  0.29471102  1
  Zr  Zr48  1  0.50261193  0.30664871  0.50129987  1
  Zr  Zr49  1  0.69576288  0.69533611  0.50192680  1
  Sc  Sc50  1  0.10243856  0.30250225  0.89769481  1
  Sc  Sc51  1  0.70298607  0.48754223  0.30241520  1
  Sc  Sc52  1  0.69153101  0.90237680  0.30683904  1
  Sc  Sc53  1  0.69258636  0.70552248  0.30794239  1
  Sc  Sc54  1  0.29972954  0.51180453  0.30408830  1
  Sc  Sc55  1  0.89398753  0.28886034  0.70378267  1
  Sc  Sc56  1  0.30306958  0.70862868  0.09965510  1
  Sc  Sc57  1  0.49913552  0.89566738  0.10002048  1
  Sc  Sc58  1  0.90224624  0.50389725  0.09521110  1
  Sc  Sc59  1  0.69573817  0.09331240  0.50813010  1
  Sc  Sc60  1  0.30231068  0.89837245  0.09079500  1
  Sc  Sc61  1  0.90865857  0.29123263  0.90034021  1
  Sc  Sc62  1  0.89320025  0.09069912  0.50554980  1
  Sc  Sc63  1  0.50233311  0.69604438  0.89251384  1
  Sc  Sc64  1  0.90485499  0.29291768  0.10090990  1
  Sc  Sc65  1  0.50004549  0.89983155  0.30191760  1
  Sc  Sc66  1  0.90752255  0.69938556  0.09245979  1
  Sc  Sc67  1  0.69588417  0.29399768  0.89237091  1
  Sc  Sc68  1  0.89101183  0.70003185  0.49941822  1
  Sc  Sc69  1  0.30835254  0.09880792  0.49966188  1
  Sc  Sc70  1  0.10113238  0.69730526  0.09798291  1
  Sc  Sc71  1  0.30611218  0.70654924  0.30511005  1
  Sc  Sc72  1  0.90026022  0.30388775  0.49944146  1
  Sc  Sc73  1  0.29215709  0.70382911  0.50575001  1
  Sc  Sc74  1  0.30571085  0.09542307  0.89433509  1
  Sc  Sc75  1  0.89585895  0.69715695  0.89610898  1
  Sc  Sc76  1  0.29816813  0.90011377  0.89819485  1
  Sc  Sc77  1  0.29724353  0.29815020  0.09325019  1
  Sc  Sc78  1  0.09887210  0.89627110  0.50492547  1
  Sc  Sc79  1  0.49972710  0.09468037  0.50481690  1
  Sc  Sc80  1  0.29580512  0.29627242  0.89916330  1
  Sc  Sc81  1  0.90761631  0.90558262  0.69168519  1
  Sc  Sc82  1  0.29998301  0.90532520  0.30591840  1
  Sc  Sc83  1  0.89688537  0.89238864  0.90452594  1
  Sc  Sc84  1  0.50374960  0.09515253  0.89612790  1
  Sc  Sc85  1  0.49807040  0.09817536  0.30399635  1
  Sc  Sc86  1  0.69803769  0.70122903  0.71010393  1
  Sc  Sc87  1  0.69381978  0.09288216  0.29058734  1
  Sc  Sc88  1  0.69411643  0.29825288  0.70041330  1
  Sc  Sc89  1  0.70174423  0.70575426  0.90193669  1
  Sc  Sc90  1  0.30978682  0.29441938  0.30441025  1
  Sc  Sc91  1  0.29893562  0.48815360  0.89920305  1
  Sc  Sc92  1  0.29964739  0.29861336  0.70344218  1
  Sc  Sc93  1  0.70235922  0.11193349  0.69582149  1
  Sc  Sc94  1  0.29781000  0.51151428  0.50741992  1
  Sc  Sc95  1  0.50803459  0.30079414  0.10449890  1
  Sc  Sc96  1  0.30258381  0.70753242  0.89734715  1
  Sc  Sc97  1  0.30413261  0.10224739  0.70314713  1
  Sc  Sc98  1  0.69778218  0.50136653  0.09815938  1
  Sc  Sc99  1  0.11159034  0.70784358  0.68394456  1
  Nb  Nb100  1  0.10227460  0.90566522  0.70211624  1
  Nb  Nb101  1  0.51358681  0.49880337  0.50313761  1
  Nb  Nb102  1  0.10710699  0.89610374  0.88995133  1
  Nb  Nb103  1  0.89937202  0.51277196  0.70424097  1
  Nb  Nb104  1  0.70126790  0.29473959  0.30071395  1
  Nb  Nb105  1  0.90117199  0.49810980  0.29921746  1
  Nb  Nb106  1  0.09565763  0.69575631  0.49774656  1
  Nb  Nb107  1  0.09034478  0.49643298  0.50078116  1
  Nb  Nb108  1  0.69123204  0.49974100  0.50558873  1
  Nb  Nb109  1  0.49417782  0.70825865  0.70210727  1
  Nb  Nb110  1  0.89847819  0.69942611  0.70135271  1
  Nb  Nb111  1  0.29243349  0.09503265  0.29958919  1
  Nb  Nb112  1  0.49804557  0.90362957  0.88758342  1
  Nb  Nb113  1  0.49920000  0.09757627  0.09973001  1
  Nb  Nb114  1  0.69487447  0.89480172  0.50289045  1
  Nb  Nb115  1  0.10612084  0.09968226  0.29844599  1
  Nb  Nb116  1  0.49733115  0.89504345  0.69993613  1
  Nb  Nb117  1  0.30123896  0.50565528  0.69982626  1
  Nb  Nb118  1  0.09517990  0.09043918  0.70048971  1
  Nb  Nb119  1  0.50374855  0.30095645  0.70102608  1
  Nb  Nb120  1  0.90744743  0.08861282  0.30508258  1
  Nb  Nb121  1  0.90121252  0.90206686  0.30195121  1
  Nb  Nb122  1  0.10114491  0.09824075  0.49611980  1
  Nb  Nb123  1  0.10167342  0.50051843  0.89304424  1
  Nb  Nb124  1  0.10279757  0.10257607  0.10428243  1
  Nb  Nb125  1  0.20148428  0.39967260  0.20252403  1
  Nb  Nb126  1  0.80411097  0.80187756  0.20395763  1
  Nb  Nb127  1  0.00685570  0.19242798  0.59642737  1
  Nb  Nb128  1  0.40596451  0.40745760  0.60433445  1
  Nb  Nb129  1  0.39481131  0.00832438  0.19632531  1
  Nb  Nb130  1  0.39860191  0.40491326  0.20151231  1
  Nb  Nb131  1  0.19497164  0.00227258  0.60457793  1
  Nb  Nb132  1  0.79688608  -0.00155946  0.80093624  1
  Nb  Nb133  1  0.80267958  0.60295613  0.20347737  1
  Nb  Nb134  1  0.40636831  0.19509436  0.00272731  1
  Nb  Nb135  1  0.79893258  0.19775829  0.39477116  1
  Nb  Nb136  1  0.19592270  0.80703050  0.20109017  1
  Nb  Nb137  1  0.19408605  0.19890956  0.39765391  1
  Nb  Nb138  1  0.19372829  0.39942900  0.39853992  1
  Nb  Nb139  1  0.20062129  0.59423766  0.79534278  1
  Nb  Nb140  1  -0.00178725  0.59672668  0.40456759  1
  Nb  Nb141  1  -0.00054826  0.79784002  0.39740646  1
  Nb  Nb142  1  0.80364432  0.40822798  0.80440049  1
  Nb  Nb143  1  0.40524399  0.59724739  0.00143833  1
  Nb  Nb144  1  -0.00249536  0.59902420  0.59835103  1
  Nb  Nb145  1  0.79544782  0.80174371  0.59915108  1
  Nb  Nb146  1  0.80192067  0.40124602  -0.00797828  1
  Nb  Nb147  1  0.00665738  0.80163248  0.79379842  1
  Nb  Nb148  1  -0.00245060  0.19191130  0.39788321  1
  Nb  Nb149  1  0.60724562  0.20491143  0.40075851  1
  Pd  Pd150  1  0.79916100  -0.00475423  -0.00479703  1
  Pd  Pd151  1  0.00438181  0.00542385  0.19643805  1
  Pd  Pd152  1  -0.00953035  -0.01001285  0.80991125  1
  Pd  Pd153  1  -0.01359244  0.39794514  0.61220317  1
  Pd  Pd154  1  0.38961509  0.41281244  0.40456628  1
  Pd  Pd155  1  0.39363033  0.59771866  0.19536395  1
  Pd  Pd156  1  0.79565889  0.39520509  0.40230644  1
  Pd  Pd157  1  0.19455330  0.59465983  0.40620065  1
  Pd  Pd158  1  -0.00765506  0.79507862  0.59785648  1
  Pd  Pd159  1  0.80128311  0.79877143  0.00902056  1
  Pd  Pd160  1  0.58971592  0.79902899  -0.00529667  1
  Pd  Pd161  1  0.20965592  0.40586032  0.59733087  1
  Pd  Pd162  1  0.21207103  0.60342251  -0.01077813  1
  Pd  Pd163  1  0.80443036  0.39470856  0.61361391  1
  Pd  Pd164  1  0.40416942  0.20654553  0.60300722  1
  Pd  Pd165  1  0.61296728  0.59634254  0.21051280  1
  Pd  Pd166  1  0.59356935  0.19572412  0.20670681  1
  Pd  Pd167  1  -0.00755546  0.39083440  0.79501696  1
  Pd  Pd168  1  0.40440002  0.39261703  0.00600842  1
  Pd  Pd169  1  0.79615599  0.59461904  0.39346633  1
  Pd  Pd170  1  0.40426567  0.80413116  0.40567307  1
  Pd  Pd171  1  0.20406738  0.21035487  0.20845216  1
  Pd  Pd172  1  -0.00156829  0.39672663  -0.00002963  1
  Pd  Pd173  1  0.39998890  0.60077271  0.41102599  1
  Pd  Pd174  1  0.19988706  0.19358881  0.80081778  1
  Pd  Pd175  1  0.61066743  0.38794600  0.00132080  1
  Pd  Pd176  1  0.40412796  0.19290818  0.40121594  1
  Pd  Pd177  1  0.79574561  0.21019965  0.00010487  1
  Pd  Pd178  1  0.19390011  0.80406673  0.39937902  1
  Pd  Pd179  1  0.78872900  -0.00784054  0.61098837  1
  Pd  Pd180  1  0.19933050  0.79008414  0.79535937  1
  Pd  Pd181  1  0.20168932  0.00301866  -0.00680449  1
  Pd  Pd182  1  0.00208800  0.40535599  0.18321953  1
  Pd  Pd183  1  0.19957812  0.18905983  0.59664540  1
  Pd  Pd184  1  0.60575461  0.00659696  0.79206190  1
  Pd  Pd185  1  0.59575289  0.60829746  0.61089390  1
  Pd  Pd186  1  0.20955252  0.60616077  0.19674747  1
  Pd  Pd187  1  0.80586695  0.18404403  0.20577421  1
  Pd  Pd188  1  0.40271105  0.20114768  0.19630822  1
  Pd  Pd189  1  0.00398981  0.80376452  0.20396464  1
  Pd  Pd190  1  0.59593188  0.20586098  0.00126514  1
  Pd  Pd191  1  0.79375029  0.59984981  0.80543910  1
  Pd  Pd192  1  0.80086910  0.80201508  0.39874535  1
  Pd  Pd193  1  0.00205242  0.00064728  -0.00835745  1
  Pd  Pd194  1  0.00451559  0.79784159  -0.00989437  1
  Pd  Pd195  1  0.40952322  0.79589356  -0.00840094  1
  Pd  Pd196  1  0.78746616  0.00583028  0.39626613  1
  Pd  Pd197  1  0.40415687  0.00362980  0.00069524  1
  Pd  Pd198  1  0.39474899  0.39689506  0.79399734  1
  Pd  Pd199  1  0.79887472  -0.00355428  0.20419236  1
  Rh  Rh200  1  0.60570350  0.59591277  0.39838328  1
  Rh  Rh201  1  0.60180681  0.60555735  0.79848296  1
  Rh  Rh202  1  0.59238369  0.40485577  0.61208153  1
  Rh  Rh203  1  0.00230645  0.60225324  -0.00064480  1
  Rh  Rh204  1  0.38971273  0.59918217  0.81271804  1
  Rh  Rh205  1  0.80030916  0.60953706  0.60223151  1
  Rh  Rh206  1  -0.00330173  0.40333472  0.39808343  1
  Rh  Rh207  1  0.79583573  0.19823339  0.80302058  1
  Rh  Rh208  1  0.41031547  0.59585446  0.59446393  1
  Rh  Rh209  1  0.60102469  -0.00026476  0.60750224  1
  Rh  Rh210  1  0.80003105  0.59718797  0.00354408  1
  Rh  Rh211  1  0.20532374  -0.00728335  0.19227040  1
  Rh  Rh212  1  0.59002760  0.79657634  0.80336016  1
  Rh  Rh213  1  0.80408363  0.41203231  0.18815630  1
  Rh  Rh214  1  0.60052919  0.00544450  0.40437630  1
  Rh  Rh215  1  0.20405304  0.81065709  0.59487772  1
  Rh  Rh216  1  0.19491715  0.79849759  0.00428512  1
  Rh  Rh217  1  0.39960513  -0.00488829  0.79579295  1
  Rh  Rh218  1  0.60200256  0.79354054  0.60221042  1
  Rh  Rh219  1  0.59216125  0.61044457  0.00022141  1
  Rh  Rh220  1  0.00253179  -0.00147583  0.40559674  1
  Rh  Rh221  1  0.00827474  0.20155402  0.79288224  1
  Rh  Rh222  1  0.00802479  0.00411307  0.59072734  1
  Rh  Rh223  1  0.40346296  0.20130417  0.80621394  1
  Rh  Rh224  1  0.20579484  0.00178122  0.79397475  1
  Rh  Rh225  1  0.60923160  0.40423014  0.79506919  1
  Rh  Rh226  1  0.40137464  0.00349149  0.39217952  1
  Rh  Rh227  1  0.59290156  0.19880826  0.59476130  1
  Rh  Rh228  1  0.40340694  0.80065248  0.59496351  1
  Rh  Rh229  1  0.38858402  0.81362945  0.20438761  1
  Rh  Rh230  1  0.18890734  0.59302323  0.60294894  1
  Rh  Rh231  1  0.20295918  0.19366909  -0.00950165  1
  Rh  Rh232  1  0.58675651  -0.00307989  0.19815590  1
  Rh  Rh233  1  0.80917821  0.20218653  0.58932062  1
  Rh  Rh234  1  0.59658780  0.19480962  0.79410450  1
  Rh  Rh235  1  0.59044487  -0.00753879  0.00088660  1
  Rh  Rh236  1  0.01439961  0.61461339  0.78435535  1
  Rh  Rh237  1  0.59262026  0.80284784  0.40496736  1
  Rh  Rh238  1  -0.00711645  0.59462828  0.19844681  1
  Rh  Rh239  1  0.20241495  0.40325620  0.79854431  1
  Rh  Rh240  1  0.60613083  0.80324464  0.20488436  1
  Rh  Rh241  1  0.20431895  0.00570356  0.41184347  1
  Rh  Rh242  1  0.61207839  0.39668452  0.40217786  1
  Rh  Rh243  1  0.00685174  0.19159599  -0.00202166  1
  Rh  Rh244  1  -0.00671669  0.18694116  0.20426115  1
  Rh  Rh245  1  0.59745512  0.40351055  0.20502890  1
  Rh  Rh246  1  0.39342287  -0.00247870  0.60931999  1
  Rh  Rh247  1  0.81491467  0.81175126  0.78734634  1
  Rh  Rh248  1  0.19116824  0.39440946  0.00048520  1
  Rh  Rh249  1  0.40204436  0.80237591  0.80312204  1
