# generated using pymatgen
data_ZrScNbPdRh
_symmetry_space_group_name_H-M   'P 1'
_cell_length_a   16.55962506
_cell_length_b   16.55928400
_cell_length_c   16.55592037
_cell_angle_alpha   90.00091385
_cell_angle_beta   89.99258980
_cell_angle_gamma   89.98097159
_symmetry_Int_Tables_number   1
_chemical_formula_structural   ZrScNbPdRh
_chemical_formula_sum   'Zr50 Sc50 Nb50 Pd50 Rh50'
_cell_volume   4539.89026156
_cell_formula_units_Z   50
loop_
 _symmetry_equiv_pos_site_id
 _symmetry_equiv_pos_as_xyz
  1  'x, y, z'
loop_
 _atom_site_type_symbol
 _atom_site_label
 _atom_site_symmetry_multiplicity
 _atom_site_fract_x
 _atom_site_fract_y
 _atom_site_fract_z
 _atom_site_occupancy
  Zr  Zr0  1  0.70003573  0.29130473  0.89998058  1
  Zr  Zr1  1  0.30319918  0.10498243  0.29837225  1
  Zr  Zr2  1  0.10254485  0.70434856  0.30148103  1
  Zr  Zr3  1  0.28069393  0.30023808  0.50076316  1
  Zr  Zr4  1  0.08980089  0.69659782  0.70633177  1
  Zr  Zr5  1  0.30278351  0.08614138  0.69988675  1
  Zr  Zr6  1  0.10192177  0.70351809  0.89847708  1
  Zr  Zr7  1  0.70634198  0.50566469  0.09910998  1
  Zr  Zr8  1  0.49607408  0.50755505  0.70295468  1
  Zr  Zr9  1  0.70786013  0.89302715  0.08745992  1
  Zr  Zr10  1  0.09843732  0.90496161  0.50059608  1
  Zr  Zr11  1  0.90116692  0.90379601  0.29070903  1
  Zr  Zr12  1  0.51247722  0.09488840  0.89999310  1
  Zr  Zr13  1  0.69753881  0.30011747  0.69816596  1
  Zr  Zr14  1  0.49945804  0.70089743  0.89293754  1
  Zr  Zr15  1  0.49707429  0.50629295  0.10152895  1
  Zr  Zr16  1  0.69141152  0.10257770  0.28491557  1
  Zr  Zr17  1  0.48991844  0.30785476  0.10236913  1
  Zr  Zr18  1  0.89844783  0.89289445  0.91017879  1
  Zr  Zr19  1  0.90447205  0.31322095  0.09611459  1
  Zr  Zr20  1  0.31009567  0.49830654  0.09552813  1
  Zr  Zr21  1  0.29869175  0.10036325  0.10965867  1
  Zr  Zr22  1  0.89716649  0.09329021  0.29744321  1
  Zr  Zr23  1  0.10250903  0.29887802  0.30888725  1
  Zr  Zr24  1  0.50092839  0.69534987  0.29353046  1
  Zr  Zr25  1  0.50477560  0.09608189  0.11274953  1
  Zr  Zr26  1  0.09008728  0.09092045  0.71029826  1
  Zr  Zr27  1  0.69763739  0.70713060  0.90003271  1
  Zr  Zr28  1  0.90432701  0.69928749  0.89165251  1
  Zr  Zr29  1  0.09530598  0.89331621  0.89933830  1
  Zr  Zr30  1  0.29709069  0.09919160  0.49702523  1
  Zr  Zr31  1  0.30663997  0.09599461  0.89691325  1
  Zr  Zr32  1  0.10220668  0.89732421  0.70262477  1
  Zr  Zr33  1  0.49429522  0.49579376  0.29757003  1
  Zr  Zr34  1  0.31848178  0.70273387  0.70692368  1
  Zr  Zr35  1  0.89896659  0.29101722  0.50147632  1
  Zr  Zr36  1  0.90208616  0.70236397  0.29777161  1
  Zr  Zr37  1  0.10394335  0.11600868  0.50540547  1
  Zr  Zr38  1  0.90527609  0.10070303  0.89490275  1
  Zr  Zr39  1  0.51394040  0.91204842  0.29631988  1
  Zr  Zr40  1  0.70124080  0.69653463  0.09916380  1
  Zr  Zr41  1  0.69782954  0.69376497  0.49860406  1
  Zr  Zr42  1  0.30716489  0.49462557  0.50146885  1
  Zr  Zr43  1  0.89441653  0.30550034  0.70659762  1
  Zr  Zr44  1  0.11196914  0.51008330  0.89695903  1
  Zr  Zr45  1  0.49296969  0.09028197  0.48927385  1
  Zr  Zr46  1  0.89568292  0.09404201  0.10222468  1
  Zr  Zr47  1  0.30323704  0.30415497  0.30319470  1
  Zr  Zr48  1  0.10180806  0.29332294  0.69507244  1
  Zr  Zr49  1  0.89321767  0.30406429  0.29538076  1
  Sc  Sc50  1  0.09701026  0.29682719  0.90914408  1
  Sc  Sc51  1  0.30804124  0.91376309  0.50725184  1
  Sc  Sc52  1  0.50099240  0.69659273  0.09574482  1
  Sc  Sc53  1  0.90289588  0.69593538  0.50379086  1
  Sc  Sc54  1  0.28472125  0.91233933  0.29121438  1
  Sc  Sc55  1  0.50092035  0.50031227  0.49802847  1
  Sc  Sc56  1  0.30002721  0.70535263  0.09455958  1
  Sc  Sc57  1  0.90803984  0.91079515  0.69235576  1
  Sc  Sc58  1  0.69246793  0.30719684  0.50129359  1
  Sc  Sc59  1  0.69242320  0.10132393  0.70412576  1
  Sc  Sc60  1  0.10540434  0.50318041  0.50064437  1
  Sc  Sc61  1  0.11148017  0.70724736  0.09403707  1
  Sc  Sc62  1  0.30457985  0.88949551  0.89254152  1
  Sc  Sc63  1  0.49883555  0.09590729  0.71012045  1
  Sc  Sc64  1  0.30741376  0.50201372  0.30913389  1
  Sc  Sc65  1  0.50575749  0.69610000  0.50584807  1
  Sc  Sc66  1  0.09544094  0.90165132  0.29879581  1
  Sc  Sc67  1  0.09857615  0.50384304  0.70707669  1
  Sc  Sc68  1  0.30415794  0.69545519  0.29970819  1
  Sc  Sc69  1  0.69744907  0.69491435  0.29134709  1
  Sc  Sc70  1  0.49535398  0.29652507  0.89347328  1
  Sc  Sc71  1  0.89758711  0.09469953  0.50372540  1
  Sc  Sc72  1  0.50374660  0.29470459  0.30410965  1
  Sc  Sc73  1  0.09194113  0.69665723  0.50164816  1
  Sc  Sc74  1  0.89397651  0.50173345  0.29278431  1
  Sc  Sc75  1  0.89689566  0.49814530  0.89722705  1
  Sc  Sc76  1  0.49351097  0.89478762  0.70043427  1
  Sc  Sc77  1  0.30140945  0.49871809  0.89898495  1
  Sc  Sc78  1  0.89931169  0.30241463  0.89671854  1
  Sc  Sc79  1  0.71158606  0.29593601  0.09859417  1
  Sc  Sc80  1  0.10675760  0.89518613  0.10986730  1
  Sc  Sc81  1  0.89669666  0.10004605  0.69882984  1
  Sc  Sc82  1  0.09365217  0.49616079  0.09626200  1
  Sc  Sc83  1  0.10560181  0.09379409  0.29916839  1
  Sc  Sc84  1  0.50220291  0.30234829  0.49759248  1
  Sc  Sc85  1  0.89587855  0.90858780  0.49866997  1
  Sc  Sc86  1  0.68640641  0.68908148  0.70643011  1
  Sc  Sc87  1  0.30019348  0.30787164  0.70035263  1
  Sc  Sc88  1  0.09363454  0.50631557  0.30400724  1
  Sc  Sc89  1  0.29466353  0.29436596  0.10034326  1
  Sc  Sc90  1  0.68802591  0.90469529  0.69619325  1
  Sc  Sc91  1  0.31375392  0.69182111  0.49780410  1
  Sc  Sc92  1  0.50153542  0.29747711  0.70191395  1
  Sc  Sc93  1  0.89591098  0.50431816  0.09741189  1
  Sc  Sc94  1  0.70028805  0.09775496  0.50933377  1
  Sc  Sc95  1  0.30031268  0.30612285  0.90069516  1
  Sc  Sc96  1  0.69116312  0.90418988  0.50153528  1
  Sc  Sc97  1  0.70830569  0.51460062  0.90022629  1
  Sc  Sc98  1  0.89506419  0.70550392  0.10055392  1
  Sc  Sc99  1  0.88805945  0.50841670  0.50624984  1
  Nb  Nb100  1  0.29947585  0.90206551  0.10061411  1
  Nb  Nb101  1  0.70047875  0.49755168  0.69788368  1
  Nb  Nb102  1  0.29205683  0.69440372  0.90732531  1
  Nb  Nb103  1  0.90496863  0.90028559  0.09893611  1
  Nb  Nb104  1  0.09654125  0.30220349  0.50196821  1
  Nb  Nb105  1  0.90154982  0.69306959  0.69826528  1
  Nb  Nb106  1  0.69899265  0.09978267  0.08150983  1
  Nb  Nb107  1  0.69644200  0.89949057  0.89949250  1
  Nb  Nb108  1  0.49693044  0.49410203  0.90578676  1
  Nb  Nb109  1  0.10617430  0.11207908  0.09268932  1
  Nb  Nb110  1  0.70126090  0.30573059  0.30225227  1
  Nb  Nb111  1  0.50190002  0.69684437  0.70200627  1
  Nb  Nb112  1  0.30322412  0.89895651  0.69890192  1
  Nb  Nb113  1  0.70066723  0.49199902  0.30388948  1
  Nb  Nb114  1  0.51257172  0.89651589  0.90309182  1
  Nb  Nb115  1  0.09992554  0.09930533  0.90268801  1
  Nb  Nb116  1  0.10168737  0.29464670  0.10314247  1
  Nb  Nb117  1  0.69846140  0.09123744  0.90880843  1
  Nb  Nb118  1  0.69344475  0.50223293  0.49900252  1
  Nb  Nb119  1  0.49836220  0.10273744  0.29509303  1
  Nb  Nb120  1  0.49557717  0.89937877  0.09668128  1
  Nb  Nb121  1  0.89672542  0.50603754  0.70064228  1
  Nb  Nb122  1  0.50028896  0.89795692  0.49349109  1
  Nb  Nb123  1  0.70571324  0.89202176  0.29964633  1
  Nb  Nb124  1  0.30010180  0.50208266  0.70009651  1
  Nb  Nb125  1  0.19884247  0.40268199  0.20153418  1
  Nb  Nb126  1  0.20721614  0.79713897  0.60119279  1
  Nb  Nb127  1  0.20680447  0.80239084  0.40868886  1
  Nb  Nb128  1  0.00674123  0.00160492  0.00590166  1
  Nb  Nb129  1  0.60174785  0.40835351  0.80426378  1
  Nb  Nb130  1  0.19720638  0.19254051  0.80241190  1
  Nb  Nb131  1  0.79356037  -0.00583792  0.80838974  1
  Nb  Nb132  1  0.39483461  0.19524033  0.59717744  1
  Nb  Nb133  1  0.40130478  0.81042918  0.20070182  1
  Nb  Nb134  1  0.60667318  0.40115383  0.19956306  1
  Nb  Nb135  1  0.20080521  0.00157476  0.00022270  1
  Nb  Nb136  1  0.20870263  0.60474094  0.60854616  1
  Nb  Nb137  1  0.60031247  0.40296505  -0.00117959  1
  Nb  Nb138  1  -0.00383653  0.40010025  0.59971297  1
  Nb  Nb139  1  0.00267498  0.20077637  0.19468853  1
  Nb  Nb140  1  0.40475887  0.80893085  0.39509238  1
  Nb  Nb141  1  0.79895164  0.80276929  0.79101765  1
  Nb  Nb142  1  -0.00375826  0.39629861  0.40968949  1
  Nb  Nb143  1  0.40183058  0.18978568  0.00225658  1
  Nb  Nb144  1  0.00327304  0.60602102  -0.00626705  1
  Nb  Nb145  1  0.79298653  0.20066315  0.39245619  1
  Nb  Nb146  1  0.40196709  -0.00438420  0.00345933  1
  Nb  Nb147  1  0.79771817  0.79608514  0.60307458  1
  Nb  Nb148  1  0.79705667  0.80175779  0.39983458  1
  Nb  Nb149  1  0.20222345  0.59461468  0.19753104  1
  Pd  Pd150  1  0.58857877  0.00355930  0.60247307  1
  Pd  Pd151  1  0.60110717  0.79664169  0.39896870  1
  Pd  Pd152  1  0.00438067  0.00821759  0.40383901  1
  Pd  Pd153  1  0.19495307  -0.00137046  0.60030156  1
  Pd  Pd154  1  0.39971559  0.80008927  -0.00064533  1
  Pd  Pd155  1  0.59140729  0.20959571  0.00585059  1
  Pd  Pd156  1  0.00767747  0.60851055  0.18693871  1
  Pd  Pd157  1  0.78985462  0.40568533  0.80537829  1
  Pd  Pd158  1  -0.00732427  0.19728373  0.39150966  1
  Pd  Pd159  1  0.80356836  0.39822278  0.41112409  1
  Pd  Pd160  1  0.39916712  0.20712002  0.40594518  1
  Pd  Pd161  1  0.19123926  0.41152723  0.60559286  1
  Pd  Pd162  1  0.58690368  0.19280618  0.59679529  1
  Pd  Pd163  1  0.20106139  -0.00262198  0.80784613  1
  Pd  Pd164  1  -0.00893301  0.59106218  0.40435296  1
  Pd  Pd165  1  0.80222874  0.20035630  0.19777255  1
  Pd  Pd166  1  0.40520457  0.39255187  0.60110201  1
  Pd  Pd167  1  -0.00429152  0.80093459  0.59832496  1
  Pd  Pd168  1  -0.00878504  0.19863548  0.00363024  1
  Pd  Pd169  1  0.39277915  0.20376346  0.79644201  1
  Pd  Pd170  1  0.80013158  0.60494563  0.39249870  1
  Pd  Pd171  1  -0.00513466  0.80419689  0.40496976  1
  Pd  Pd172  1  0.19598684  0.39231241  0.80013213  1
  Pd  Pd173  1  0.00277103  0.79566278  0.19363700  1
  Pd  Pd174  1  0.61003599  0.00784489  0.39838944  1
  Pd  Pd175  1  0.60147382  0.79585527  0.60393354  1
  Pd  Pd176  1  0.00718429  0.39811155  0.20853248  1
  Pd  Pd177  1  0.81012012  0.20169789  -0.00284633  1
  Pd  Pd178  1  0.59313885  0.40651178  0.60610172  1
  Pd  Pd179  1  0.00613106  0.40136278  0.79953828  1
  Pd  Pd180  1  0.78920267  0.00093775  0.40018231  1
  Pd  Pd181  1  0.79483172  0.18934163  0.80003278  1
  Pd  Pd182  1  0.59699724  0.59599745  0.39470640  1
  Pd  Pd183  1  0.60651943  0.19442857  0.40420234  1
  Pd  Pd184  1  0.40073336  0.80111504  0.59113595  1
  Pd  Pd185  1  0.39521427  -0.00774557  0.38659297  1
  Pd  Pd186  1  0.60238884  0.21183270  0.19177926  1
  Pd  Pd187  1  0.20314464  0.60499265  0.40233667  1
  Pd  Pd188  1  0.78895920  -0.00475395  0.19237749  1
  Pd  Pd189  1  0.61465894  -0.00920762  0.18727091  1
  Pd  Pd190  1  -0.00682779  0.19988636  0.60889430  1
  Pd  Pd191  1  0.19907384  0.40031639  0.00701898  1
  Pd  Pd192  1  0.20594169  0.79373077  0.79386548  1
  Pd  Pd193  1  0.79084740  0.60589507  0.60713461  1
  Pd  Pd194  1  0.59797779  0.59776929  -0.00665417  1
  Pd  Pd195  1  0.00295571  0.40877925  -0.00936052  1
  Pd  Pd196  1  0.79590006  0.19772977  0.59837665  1
  Pd  Pd197  1  0.59705393  0.80177897  0.19125493  1
  Pd  Pd198  1  0.80084516  0.40111036  0.59469379  1
  Pd  Pd199  1  0.39687150  0.59564222  0.81057401  1
  Rh  Rh200  1  0.59666189  -0.00718059  0.00656122  1
  Rh  Rh201  1  0.40977454  0.00196642  0.60311852  1
  Rh  Rh202  1  0.60208824  -0.00618082  0.80005271  1
  Rh  Rh203  1  0.81200771  0.60882720  -0.00270406  1
  Rh  Rh204  1  0.19120104  0.40881293  0.39476328  1
  Rh  Rh205  1  0.39896428  0.60594505  -0.00593168  1
  Rh  Rh206  1  0.60459407  0.20406905  0.79994132  1
  Rh  Rh207  1  0.80730306  0.00009510  -0.00414295  1
  Rh  Rh208  1  -0.00600028  0.58979757  0.80532871  1
  Rh  Rh209  1  0.40288823  0.39348145  0.40580725  1
  Rh  Rh210  1  0.60567780  0.58835322  0.20478688  1
  Rh  Rh211  1  0.79869816  0.60042124  0.20466121  1
  Rh  Rh212  1  0.20398327  0.81019421  -0.00488398  1
  Rh  Rh213  1  0.59796998  0.40370944  0.39425737  1
  Rh  Rh214  1  0.59976276  0.59376269  0.60062148  1
  Rh  Rh215  1  0.40179590  -0.00516344  0.20265680  1
  Rh  Rh216  1  0.00588442  0.20742752  0.80036890  1
  Rh  Rh217  1  0.40444053  0.40381945  0.79714116  1
  Rh  Rh218  1  0.39603098  0.39655955  0.20502305  1
  Rh  Rh219  1  0.21177052  0.60776005  0.79273798  1
  Rh  Rh220  1  0.20999309  0.79080014  0.21163503  1
  Rh  Rh221  1  0.79480936  0.40004899  -0.00460131  1
  Rh  Rh222  1  0.59978902  0.80296405  0.79456001  1
  Rh  Rh223  1  0.19434810  0.20717591  0.20930549  1
  Rh  Rh224  1  0.40223994  0.39191572  -0.00551865  1
  Rh  Rh225  1  0.21169638  0.19664625  -0.01103172  1
  Rh  Rh226  1  0.80092076  0.60473046  0.79312957  1
  Rh  Rh227  1  0.79302098  0.40487484  0.19521893  1
  Rh  Rh228  1  0.39071924  0.61070379  0.19276261  1
  Rh  Rh229  1  0.20036863  0.19638132  0.39527511  1
  Rh  Rh230  1  0.80242471  0.80195103  0.20372825  1
  Rh  Rh231  1  0.00422565  0.00739719  0.59309619  1
  Rh  Rh232  1  0.41091126  0.60577021  0.40199976  1
  Rh  Rh233  1  0.59682139  0.59151539  0.80462392  1
  Rh  Rh234  1  -0.01227942  0.80710868  0.78719481  1
  Rh  Rh235  1  0.40629041  0.80142333  0.80471226  1
  Rh  Rh236  1  0.19063026  0.00590036  0.19190114  1
  Rh  Rh237  1  0.00413965  0.79910011  0.01032597  1
  Rh  Rh238  1  0.00660420  0.58983939  0.60242736  1
  Rh  Rh239  1  0.19866719  0.59710392  0.00831728  1
  Rh  Rh240  1  0.40067087  0.59746539  0.59994196  1
  Rh  Rh241  1  0.00894200  0.00816922  0.18929663  1
  Rh  Rh242  1  0.59716863  0.79658705  0.00418661  1
  Rh  Rh243  1  0.19596322  -0.00196637  0.40448577  1
  Rh  Rh244  1  0.79572740  -0.00600291  0.61078566  1
  Rh  Rh245  1  -0.00895121  -0.00821111  0.81031510  1
  Rh  Rh246  1  0.20877188  0.19301224  0.61493408  1
  Rh  Rh247  1  0.80141648  0.79281411  -0.00433272  1
  Rh  Rh248  1  0.40304880  0.20510880  0.20023383  1
  Rh  Rh249  1  0.40995460  -0.01515320  0.80799534  1
