# generated using pymatgen
data_ZrScNbPdRh
_symmetry_space_group_name_H-M   'P 1'
_cell_length_a   16.55953513
_cell_length_b   16.55902474
_cell_length_c   16.56000457
_cell_angle_alpha   89.99452332
_cell_angle_beta   89.99479422
_cell_angle_gamma   90.03346999
_symmetry_Int_Tables_number   1
_chemical_formula_structural   ZrScNbPdRh
_chemical_formula_sum   'Zr50 Sc50 Nb50 Pd50 Rh50'
_cell_volume   4540.91393239
_cell_formula_units_Z   50
loop_
 _symmetry_equiv_pos_site_id
 _symmetry_equiv_pos_as_xyz
  1  'x, y, z'
loop_
 _atom_site_type_symbol
 _atom_site_label
 _atom_site_symmetry_multiplicity
 _atom_site_fract_x
 _atom_site_fract_y
 _atom_site_fract_z
 _atom_site_occupancy
  Zr  Zr0  1  0.29697855  0.09556906  0.69852741  1
  Zr  Zr1  1  0.50585661  0.70352411  0.10444854  1
  Zr  Zr2  1  0.29759051  0.49789311  0.09899379  1
  Zr  Zr3  1  0.89838786  0.49928366  0.30303053  1
  Zr  Zr4  1  0.09924732  0.90265153  0.49752527  1
  Zr  Zr5  1  0.50239360  0.68929492  0.89368982  1
  Zr  Zr6  1  0.50026777  0.70021122  0.69978866  1
  Zr  Zr7  1  0.10180476  0.30259314  0.50706497  1
  Zr  Zr8  1  0.10899370  0.89780785  0.70104920  1
  Zr  Zr9  1  0.30534436  0.89976249  0.50434346  1
  Zr  Zr10  1  0.70226325  0.71034744  0.50249143  1
  Zr  Zr11  1  0.89907650  0.69963311  0.70485383  1
  Zr  Zr12  1  0.49039641  0.69470866  0.50034200  1
  Zr  Zr13  1  0.70803333  0.50118535  0.29354172  1
  Zr  Zr14  1  0.09187934  0.10033120  0.30836031  1
  Zr  Zr15  1  0.29969251  0.09860674  0.91064006  1
  Zr  Zr16  1  0.10334521  0.50035479  0.89271621  1
  Zr  Zr17  1  0.49505380  0.09828900  0.09306606  1
  Zr  Zr18  1  0.09238257  0.29902300  0.28599802  1
  Zr  Zr19  1  0.49818401  0.29947846  0.48340578  1
  Zr  Zr20  1  0.89502759  0.29848626  0.29655762  1
  Zr  Zr21  1  0.10175942  0.10023955  0.50142846  1
  Zr  Zr22  1  0.68972788  0.90985754  0.50470217  1
  Zr  Zr23  1  0.09753072  0.89770632  0.30018823  1
  Zr  Zr24  1  0.31381883  0.69463078  0.29738990  1
  Zr  Zr25  1  0.90256383  0.11003538  0.29926101  1
  Zr  Zr26  1  0.50454143  0.70265394  0.29829137  1
  Zr  Zr27  1  0.69495142  0.30286676  0.29942683  1
  Zr  Zr28  1  0.69886116  0.30149033  0.69520220  1
  Zr  Zr29  1  0.70584876  0.09396706  0.90703888  1
  Zr  Zr30  1  0.69355378  0.69555914  0.29750552  1
  Zr  Zr31  1  0.49830443  0.89802230  0.30047935  1
  Zr  Zr32  1  0.10132097  0.50158616  0.70081068  1
  Zr  Zr33  1  0.30440753  0.90352785  0.30226003  1
  Zr  Zr34  1  0.09897469  0.50354521  0.50090165  1
  Zr  Zr35  1  0.30045719  0.89826387  0.70142760  1
  Zr  Zr36  1  0.69934904  0.69844111  0.90638947  1
  Zr  Zr37  1  0.29217676  0.29084019  0.10596412  1
  Zr  Zr38  1  0.49963618  0.10865637  0.89427588  1
  Zr  Zr39  1  0.30217912  0.10497647  0.10132978  1
  Zr  Zr40  1  0.69460178  0.50658156  0.90530408  1
  Zr  Zr41  1  0.10400856  0.50793179  0.09926922  1
  Zr  Zr42  1  0.89952861  0.69414374  0.49960470  1
  Zr  Zr43  1  0.10811110  0.10893332  0.09034951  1
  Zr  Zr44  1  0.50494399  0.89957895  0.09720226  1
  Zr  Zr45  1  0.69981683  0.30184432  0.10861994  1
  Zr  Zr46  1  0.90819334  0.29969000  0.89705036  1
  Zr  Zr47  1  0.30053732  0.29822985  0.49907609  1
  Zr  Zr48  1  0.89517398  0.09981525  0.49067470  1
  Zr  Zr49  1  0.71017955  0.10804946  0.30235454  1
  Sc  Sc50  1  0.69517599  0.50300425  0.69827518  1
  Sc  Sc51  1  0.89707931  0.09972642  0.08890314  1
  Sc  Sc52  1  0.90093206  0.69790641  0.89514149  1
  Sc  Sc53  1  0.30182953  0.09170539  0.49870756  1
  Sc  Sc54  1  0.50504294  0.50474098  0.30824526  1
  Sc  Sc55  1  0.70297532  0.09699554  0.70471438  1
  Sc  Sc56  1  0.89605788  0.89378589  0.70351890  1
  Sc  Sc57  1  0.89485100  0.69259051  0.30577138  1
  Sc  Sc58  1  0.69626002  0.89559674  0.69346260  1
  Sc  Sc59  1  0.70028046  0.49029514  0.50381416  1
  Sc  Sc60  1  0.49074388  0.10931222  0.30331245  1
  Sc  Sc61  1  0.10202970  0.69641600  0.51564043  1
  Sc  Sc62  1  0.08681058  0.69993392  0.29216371  1
  Sc  Sc63  1  0.69742179  0.50056244  0.10331954  1
  Sc  Sc64  1  0.89064031  0.89230691  0.50291224  1
  Sc  Sc65  1  0.10339418  0.90318347  0.90068688  1
  Sc  Sc66  1  0.29710517  0.69899663  0.69532032  1
  Sc  Sc67  1  0.09470582  0.50141173  0.29020632  1
  Sc  Sc68  1  0.10145553  0.31104406  0.70289427  1
  Sc  Sc69  1  0.90858866  0.30106884  0.10591344  1
  Sc  Sc70  1  0.50170819  0.50063883  0.50311610  1
  Sc  Sc71  1  0.30783072  0.29464687  0.29741995  1
  Sc  Sc72  1  0.69574825  0.90118978  0.08246120  1
  Sc  Sc73  1  0.90412085  0.89920283  0.09209241  1
  Sc  Sc74  1  0.09297984  0.89917084  0.09218396  1
  Sc  Sc75  1  0.69273772  0.89521621  0.30993064  1
  Sc  Sc76  1  0.30546835  0.91355026  0.09048834  1
  Sc  Sc77  1  0.90337182  0.49986587  0.49555683  1
  Sc  Sc78  1  0.69566337  0.28727546  0.90432956  1
  Sc  Sc79  1  0.30046664  0.68755380  0.88920050  1
  Sc  Sc80  1  0.49893192  0.90018204  0.70022828  1
  Sc  Sc81  1  0.89695893  0.30015546  0.70165386  1
  Sc  Sc82  1  0.89945625  0.90480315  0.90462415  1
  Sc  Sc83  1  0.90671063  0.51153126  0.89935000  1
  Sc  Sc84  1  0.29390825  0.29815942  0.70297299  1
  Sc  Sc85  1  0.10590604  0.70279360  0.70631258  1
  Sc  Sc86  1  0.91070717  0.70262882  0.09327823  1
  Sc  Sc87  1  0.30479711  0.50707551  0.50229480  1
  Sc  Sc88  1  0.90836687  0.89024867  0.30279277  1
  Sc  Sc89  1  0.50538020  0.29739131  0.09623372  1
  Sc  Sc90  1  0.50143599  0.09322192  0.70618981  1
  Sc  Sc91  1  0.50110585  0.50671298  0.70301017  1
  Sc  Sc92  1  0.49544179  0.28889497  0.71606483  1
  Sc  Sc93  1  0.69446183  0.70297513  0.70697682  1
  Sc  Sc94  1  0.30298414  0.68372848  0.10296226  1
  Sc  Sc95  1  0.90204132  0.50062981  0.10221776  1
  Sc  Sc96  1  0.89353693  0.30247656  0.49786716  1
  Sc  Sc97  1  0.69742222  0.89965172  0.89993835  1
  Sc  Sc98  1  0.29882195  0.90445346  0.89296886  1
  Sc  Sc99  1  0.31288341  0.30091654  0.89205479  1
  Nb  Nb100  1  0.10350983  0.30634187  0.09582037  1
  Nb  Nb101  1  0.49995474  0.09410199  0.50327632  1
  Nb  Nb102  1  0.90191890  0.10218351  0.70257124  1
  Nb  Nb103  1  0.49299733  0.48905145  0.90499304  1
  Nb  Nb104  1  0.49876469  0.90047658  0.90307244  1
  Nb  Nb105  1  0.30432599  0.49508131  0.89509005  1
  Nb  Nb106  1  0.70125222  0.09818406  0.10246881  1
  Nb  Nb107  1  0.69383320  0.29600574  0.50437537  1
  Nb  Nb108  1  0.29652498  0.69834657  0.49872355  1
  Nb  Nb109  1  0.29672737  0.10525187  0.29525969  1
  Nb  Nb110  1  0.10687722  0.69948144  0.09581830  1
  Nb  Nb111  1  0.09677558  0.10480777  0.90268721  1
  Nb  Nb112  1  0.90212786  0.10151568  0.89302588  1
  Nb  Nb113  1  0.89968583  0.50458717  0.71202720  1
  Nb  Nb114  1  0.49887114  0.91597213  0.50322870  1
  Nb  Nb115  1  0.50239622  0.30174000  0.89975758  1
  Nb  Nb116  1  0.10456278  0.69399147  0.90467386  1
  Nb  Nb117  1  0.49769723  0.30530613  0.29763307  1
  Nb  Nb118  1  0.29437841  0.50137991  0.29189384  1
  Nb  Nb119  1  0.09810192  0.30085909  0.90398878  1
  Nb  Nb120  1  0.69570026  0.70646096  0.10227497  1
  Nb  Nb121  1  0.69750849  0.10022735  0.50032506  1
  Nb  Nb122  1  0.50102749  0.48699866  0.08969067  1
  Nb  Nb123  1  0.10294385  0.10112384  0.69608241  1
  Nb  Nb124  1  0.29600200  0.49332499  0.71440341  1
  Nb  Nb125  1  0.40515051  0.19884687  0.59592236  1
  Nb  Nb126  1  0.20088573  0.80135765  0.19634109  1
  Nb  Nb127  1  -0.00112466  0.19355329  0.60461184  1
  Nb  Nb128  1  0.80352016  0.60153734  0.60415211  1
  Nb  Nb129  1  -0.00224418  0.00536324  0.60667195  1
  Nb  Nb130  1  0.79565648  0.40361186  0.80704467  1
  Nb  Nb131  1  0.79893578  -0.00390809  0.19804088  1
  Nb  Nb132  1  0.19916664  0.39764608  -0.00447492  1
  Nb  Nb133  1  0.19553274  0.00121466  0.20162209  1
  Nb  Nb134  1  0.19924292  0.20339626  0.39742962  1
  Nb  Nb135  1  0.60641443  0.00525827  0.19833979  1
  Nb  Nb136  1  0.59793552  0.19658052  0.59187887  1
  Nb  Nb137  1  0.20327181  0.60200140  0.39496872  1
  Nb  Nb138  1  0.80007321  0.39935598  -0.00518729  1
  Nb  Nb139  1  0.39978903  0.39455564  0.60524363  1
  Nb  Nb140  1  -0.00047202  0.00481860  0.19929422  1
  Nb  Nb141  1  0.59806207  0.39890271  0.80892462  1
  Nb  Nb142  1  0.20490500  0.79184774  0.39801401  1
  Nb  Nb143  1  0.20204555  0.40263718  0.39277779  1
  Nb  Nb144  1  0.40438252  0.40143451  0.20096579  1
  Nb  Nb145  1  0.40006909  0.79576758  -0.00541717  1
  Nb  Nb146  1  0.00122046  0.01200669  0.79769238  1
  Nb  Nb147  1  0.79476027  0.80110050  0.19424634  1
  Nb  Nb148  1  0.20541320  0.79175824  0.00191112  1
  Nb  Nb149  1  0.19079985  0.19634675  0.80607537  1
  Pd  Pd150  1  0.00566695  0.39769940  0.39627526  1
  Pd  Pd151  1  0.80382697  -0.00994094  0.39099381  1
  Pd  Pd152  1  0.00710557  0.78897549  0.40930890  1
  Pd  Pd153  1  0.79976530  0.80108346  0.39233173  1
  Pd  Pd154  1  0.20608230  0.00122637  0.39640394  1
  Pd  Pd155  1  0.41562222  0.58563509  0.19687347  1
  Pd  Pd156  1  0.58331446  0.38844538  0.61019339  1
  Pd  Pd157  1  0.00691690  0.79662208  -0.01024691  1
  Pd  Pd158  1  0.80596708  0.61060466  0.18939543  1
  Pd  Pd159  1  0.40418487  0.80132355  0.59914249  1
  Pd  Pd160  1  0.59363460  0.58974961  0.19358950  1
  Pd  Pd161  1  0.79479284  0.20477536  0.80085135  1
  Pd  Pd162  1  -0.00545275  0.59826021  0.60845993  1
  Pd  Pd163  1  0.40261295  0.00391700  0.20429265  1
  Pd  Pd164  1  -0.00565794  0.19995950  0.00422068  1
  Pd  Pd165  1  0.19542335  0.00662898  0.80550040  1
  Pd  Pd166  1  0.00044200  0.40871390  0.00121284  1
  Pd  Pd167  1  0.00755824  0.20251714  0.79197878  1
  Pd  Pd168  1  0.59296043  0.19472482  0.20090280  1
  Pd  Pd169  1  0.80284447  0.00136333  0.60492101  1
  Pd  Pd170  1  0.60079597  -0.00529885  0.80067021  1
  Pd  Pd171  1  0.60027170  0.80465042  0.80289238  1
  Pd  Pd172  1  0.40197421  0.60236506  -0.00134427  1
  Pd  Pd173  1  0.39128558  0.38738827  0.00843035  1
  Pd  Pd174  1  0.00442760  0.80583527  0.80789331  1
  Pd  Pd175  1  0.60118134  0.19753658  0.00306432  1
  Pd  Pd176  1  0.80268044  0.79752873  0.00187924  1
  Pd  Pd177  1  -0.00637390  0.60317702  0.19675752  1
  Pd  Pd178  1  0.80556627  0.20735982  0.00509437  1
  Pd  Pd179  1  0.80354386  -0.00711278  0.79922083  1
  Pd  Pd180  1  0.21001960  0.40997626  0.59628862  1
  Pd  Pd181  1  -0.01010276  0.39668005  0.60669315  1
  Pd  Pd182  1  0.79611251  0.80322838  0.80467696  1
  Pd  Pd183  1  0.80447879  0.59852114  0.00756865  1
  Pd  Pd184  1  0.60868676  0.60418698  0.59582922  1
  Pd  Pd185  1  0.39311361  0.41167387  0.39652101  1
  Pd  Pd186  1  0.79400491  0.39722280  0.40215640  1
  Pd  Pd187  1  -0.00123894  0.80619447  0.60164780  1
  Pd  Pd188  1  0.39198312  0.59209201  0.61003468  1
  Pd  Pd189  1  0.38940840  0.80404393  0.18457609  1
  Pd  Pd190  1  0.60788840  0.59586252  0.40998911  1
  Pd  Pd191  1  0.58861780  0.80106439  0.41287238  1
  Pd  Pd192  1  0.40298743  0.80158165  0.40663009  1
  Pd  Pd193  1  0.59444086  0.59828191  0.00746810  1
  Pd  Pd194  1  0.60103104  0.19391222  0.39992880  1
  Pd  Pd195  1  0.59484648  0.01036690  0.38913881  1
  Pd  Pd196  1  0.60515301  0.40635815  0.39697462  1
  Pd  Pd197  1  0.79941682  0.19487246  0.59715768  1
  Pd  Pd198  1  0.80831869  0.41088882  0.60835817  1
  Pd  Pd199  1  0.39640310  0.79922626  0.80522656  1
  Rh  Rh200  1  0.80459310  0.39986944  0.19326834  1
  Rh  Rh201  1  0.59683445  0.00641219  -0.00203278  1
  Rh  Rh202  1  0.01023848  0.60143335  0.40096549  1
  Rh  Rh203  1  0.80261537  -0.00001145  0.00010153  1
  Rh  Rh204  1  0.19936512  0.39052389  0.80996795  1
  Rh  Rh205  1  0.79289976  0.21153048  0.40668824  1
  Rh  Rh206  1  0.39669482  0.59505644  0.39921043  1
  Rh  Rh207  1  0.38843737  0.19119126  0.79608669  1
  Rh  Rh208  1  0.19819796  -0.00742571  0.59754487  1
  Rh  Rh209  1  0.20124534  0.59978435  0.79621545  1
  Rh  Rh210  1  0.40909572  0.40391000  0.79183201  1
  Rh  Rh211  1  0.40229457  0.00316069  0.60628808  1
  Rh  Rh212  1  0.19510209  0.61253747  0.20929264  1
  Rh  Rh213  1  -0.00514954  0.40134699  0.79828277  1
  Rh  Rh214  1  0.40573080  -0.00397365  -0.00958438  1
  Rh  Rh215  1  0.58926322  0.80177333  0.59634577  1
  Rh  Rh216  1  0.19000629  0.19323967  0.20839332  1
  Rh  Rh217  1  0.59203976  0.79407946  -0.00956699  1
  Rh  Rh218  1  0.59055462  0.40571690  0.20320935  1
  Rh  Rh219  1  0.60071155  0.00643509  0.60680610  1
  Rh  Rh220  1  0.20258318  0.80172483  0.59473126  1
  Rh  Rh221  1  0.79252826  0.59766896  0.79412665  1
  Rh  Rh222  1  0.20443226  0.21210058  -0.01227088  1
  Rh  Rh223  1  0.59812858  0.59185590  0.80207068  1
  Rh  Rh224  1  0.20517161  0.59441635  0.60292844  1
  Rh  Rh225  1  -0.00118451  0.00724808  -0.00475349  1
  Rh  Rh226  1  0.00325972  0.60060930  -0.00117652  1
  Rh  Rh227  1  0.19496050  -0.00751591  0.00429754  1
  Rh  Rh228  1  0.60863014  0.20212373  0.79512014  1
  Rh  Rh229  1  0.20188110  0.19902188  0.60137605  1
  Rh  Rh230  1  0.79832535  0.79368165  0.60579200  1
  Rh  Rh231  1  -0.00244987  0.40566802  0.19599418  1
  Rh  Rh232  1  0.20481051  0.39725554  0.19885170  1
  Rh  Rh233  1  0.40121931  0.20624037  -0.00115286  1
  Rh  Rh234  1  0.40000359  0.59297507  0.79576289  1
  Rh  Rh235  1  0.20435946  0.59527485  -0.00808004  1
  Rh  Rh236  1  0.40823319  0.20791377  0.19712052  1
  Rh  Rh237  1  0.60934634  0.39539575  -0.00521085  1
  Rh  Rh238  1  0.79250271  0.59604143  0.41227872  1
  Rh  Rh239  1  0.61185901  0.81414364  0.19680313  1
  Rh  Rh240  1  0.00488486  0.21344547  0.41180667  1
  Rh  Rh241  1  0.40180889  0.00525171  0.39644367  1
  Rh  Rh242  1  0.00943553  0.60692968  0.79972355  1
  Rh  Rh243  1  0.80404849  0.19717034  0.19196706  1
  Rh  Rh244  1  -0.00228858  0.80505600  0.19040708  1
  Rh  Rh245  1  0.00259311  0.19304221  0.18819332  1
  Rh  Rh246  1  0.20152548  0.79451349  0.81039534  1
  Rh  Rh247  1  0.40187659  0.00079896  0.80274988  1
  Rh  Rh248  1  0.39144789  0.19098289  0.40461493  1
  Rh  Rh249  1  -0.01308713  -0.00759158  0.40471756  1
