# generated using pymatgen
data_ZrScNbPdRh
_symmetry_space_group_name_H-M   'P 1'
_cell_length_a   16.55521854
_cell_length_b   16.55535606
_cell_length_c   16.55308851
_cell_angle_alpha   90.00242642
_cell_angle_beta   89.98064903
_cell_angle_gamma   89.97862929
_symmetry_Int_Tables_number   1
_chemical_formula_structural   ZrScNbPdRh
_chemical_formula_sum   'Zr50 Sc50 Nb50 Pd50 Rh50'
_cell_volume   4536.82916086
_cell_formula_units_Z   50
loop_
 _symmetry_equiv_pos_site_id
 _symmetry_equiv_pos_as_xyz
  1  'x, y, z'
loop_
 _atom_site_type_symbol
 _atom_site_label
 _atom_site_symmetry_multiplicity
 _atom_site_fract_x
 _atom_site_fract_y
 _atom_site_fract_z
 _atom_site_occupancy
  Zr  Zr0  1  0.09756809  0.50662530  0.29281755  1
  Zr  Zr1  1  0.69103326  0.70569442  0.10955329  1
  Zr  Zr2  1  0.90310421  0.49270349  0.29770654  1
  Zr  Zr3  1  0.10350231  0.31078832  0.69790001  1
  Zr  Zr4  1  0.49524649  0.69438306  0.90879401  1
  Zr  Zr5  1  0.50048623  0.70840664  0.29280671  1
  Zr  Zr6  1  0.49680161  0.90187733  0.90088697  1
  Zr  Zr7  1  0.49240553  0.49737328  0.30615673  1
  Zr  Zr8  1  0.90139718  0.09213437  0.29680390  1
  Zr  Zr9  1  0.10559935  0.68708502  0.69813807  1
  Zr  Zr10  1  0.09518752  0.30324904  0.89918163  1
  Zr  Zr11  1  0.30930053  0.70521413  0.10066707  1
  Zr  Zr12  1  0.09311838  0.29528796  0.50797129  1
  Zr  Zr13  1  0.70892526  0.90193114  0.29004518  1
  Zr  Zr14  1  0.90093911  0.29541779  0.68633421  1
  Zr  Zr15  1  0.69680408  0.70409336  0.29791686  1
  Zr  Zr16  1  0.10555524  0.09874715  0.10679316  1
  Zr  Zr17  1  0.09766836  0.09910938  0.89649837  1
  Zr  Zr18  1  0.49256265  0.29882343  0.70523157  1
  Zr  Zr19  1  0.10481267  0.10467662  0.49111355  1
  Zr  Zr20  1  0.50388549  0.49753828  0.89859882  1
  Zr  Zr21  1  0.90438169  0.10350934  0.89464090  1
  Zr  Zr22  1  0.90002315  0.89663462  0.69789659  1
  Zr  Zr23  1  0.30568853  0.90158350  0.50494121  1
  Zr  Zr24  1  0.50649863  0.89179283  0.09680724  1
  Zr  Zr25  1  0.10547183  0.89725848  0.90083096  1
  Zr  Zr26  1  0.10336104  0.70322223  0.50225193  1
  Zr  Zr27  1  0.50188495  0.89492813  0.50370237  1
  Zr  Zr28  1  0.29570837  0.89346303  0.90057420  1
  Zr  Zr29  1  0.09855571  0.50522869  0.90354958  1
  Zr  Zr30  1  0.10018588  0.69434062  0.29824504  1
  Zr  Zr31  1  0.29843770  0.49396513  0.29195863  1
  Zr  Zr32  1  0.89578049  0.49118213  0.50356152  1
  Zr  Zr33  1  0.30014643  0.69149317  0.30324497  1
  Zr  Zr34  1  0.70194640  0.88485068  0.49752984  1
  Zr  Zr35  1  0.10140175  0.89714938  0.70219168  1
  Zr  Zr36  1  0.50781927  0.09406137  0.09263119  1
  Zr  Zr37  1  0.50253138  0.49452387  0.50045246  1
  Zr  Zr38  1  0.49801566  0.49624276  0.70156313  1
  Zr  Zr39  1  0.29443452  0.09599214  0.10766203  1
  Zr  Zr40  1  0.29811043  0.30902327  0.10537403  1
  Zr  Zr41  1  0.69281722  0.11335490  0.90261184  1
  Zr  Zr42  1  0.70951835  0.29805781  0.49991406  1
  Zr  Zr43  1  0.10011795  0.29808113  0.29525621  1
  Zr  Zr44  1  0.69117463  0.89797028  0.90323208  1
  Zr  Zr45  1  0.50550326  0.10218815  0.30793415  1
  Zr  Zr46  1  0.89461606  0.30093322  0.91220127  1
  Zr  Zr47  1  0.30191849  0.69471052  0.69815248  1
  Zr  Zr48  1  0.88917583  0.70652416  0.50789729  1
  Zr  Zr49  1  0.89850797  0.90319413  0.49412940  1
  Sc  Sc50  1  0.29530802  0.49826677  0.70015492  1
  Sc  Sc51  1  0.49747424  0.50240518  0.09116630  1
  Sc  Sc52  1  0.29757873  0.49731467  0.09550698  1
  Sc  Sc53  1  0.49421438  0.30390674  0.31498807  1
  Sc  Sc54  1  0.89774313  0.49840545  0.09943363  1
  Sc  Sc55  1  0.70001378  0.50042207  0.09817564  1
  Sc  Sc56  1  0.70044467  0.09967046  0.29837538  1
  Sc  Sc57  1  0.49934193  0.09513461  0.49674124  1
  Sc  Sc58  1  0.50585991  0.30238271  0.89604041  1
  Sc  Sc59  1  0.29547077  0.30355874  0.70037865  1
  Sc  Sc60  1  0.90214246  0.69334228  0.29470466  1
  Sc  Sc61  1  0.49812210  0.31082737  0.08594041  1
  Sc  Sc62  1  0.69750144  0.09900314  0.10221606  1
  Sc  Sc63  1  0.90187369  0.11213620  0.49647068  1
  Sc  Sc64  1  0.70606660  0.29942553  0.09565145  1
  Sc  Sc65  1  0.69502896  0.10716466  0.49827623  1
  Sc  Sc66  1  0.70358674  0.29983047  0.30394251  1
  Sc  Sc67  1  0.70350495  0.49372797  0.89907790  1
  Sc  Sc68  1  0.70365820  0.50580471  0.70833775  1
  Sc  Sc69  1  0.91007227  0.89983922  0.89892193  1
  Sc  Sc70  1  0.09504309  0.30601734  0.09964124  1
  Sc  Sc71  1  0.70215408  0.69468033  0.69509559  1
  Sc  Sc72  1  0.29781558  0.69840360  0.89698528  1
  Sc  Sc73  1  0.89792736  0.10884072  0.10815453  1
  Sc  Sc74  1  0.09579540  0.68811407  0.09467936  1
  Sc  Sc75  1  0.30084878  0.70411938  0.49864904  1
  Sc  Sc76  1  0.30374487  0.50700387  0.49289657  1
  Sc  Sc77  1  0.89583178  0.68953550  0.69780247  1
  Sc  Sc78  1  0.69585983  0.49405338  0.50909631  1
  Sc  Sc79  1  0.10916296  0.90773502  0.09888380  1
  Sc  Sc80  1  0.30125454  0.10212882  0.70638022  1
  Sc  Sc81  1  0.29435416  0.10800117  0.30909318  1
  Sc  Sc82  1  0.30143606  0.90088110  0.09701766  1
  Sc  Sc83  1  0.69012278  0.89284950  0.69409461  1
  Sc  Sc84  1  0.50890733  0.30086714  0.49889820  1
  Sc  Sc85  1  0.30686597  0.89197668  0.70310911  1
  Sc  Sc86  1  0.30594315  0.30653470  0.89280705  1
  Sc  Sc87  1  0.29048568  0.28829347  0.49968467  1
  Sc  Sc88  1  0.89377618  0.49816429  0.89863520  1
  Sc  Sc89  1  0.89952417  0.69583574  0.10016856  1
  Sc  Sc90  1  0.09559445  0.11275899  0.70280384  1
  Sc  Sc91  1  0.10310404  0.09417412  0.29749537  1
  Sc  Sc92  1  0.30152503  0.08921286  0.89669642  1
  Sc  Sc93  1  0.90482157  0.68969790  0.90860338  1
  Sc  Sc94  1  0.69686650  0.50157517  0.29349629  1
  Sc  Sc95  1  0.50460919  0.70290794  0.70516607  1
  Sc  Sc96  1  0.69983624  0.28933383  0.70293707  1
  Sc  Sc97  1  0.69506694  0.68967306  0.89459501  1
  Sc  Sc98  1  0.09563920  0.50081875  0.50463377  1
  Sc  Sc99  1  0.30557735  0.89468213  0.30335642  1
  Nb  Nb100  1  0.29769162  0.10343067  0.50504024  1
  Nb  Nb101  1  0.69853074  0.30123668  0.90717106  1
  Nb  Nb102  1  0.50416278  0.10483397  0.70470934  1
  Nb  Nb103  1  0.90349568  0.90575102  0.29417280  1
  Nb  Nb104  1  0.09588381  0.90553807  0.30095047  1
  Nb  Nb105  1  0.70123341  0.90247738  0.09747622  1
  Nb  Nb106  1  0.50084174  0.90273243  0.69497866  1
  Nb  Nb107  1  0.89695903  0.30253149  0.29164354  1
  Nb  Nb108  1  0.09454855  0.49861623  0.69826349  1
  Nb  Nb109  1  0.89832875  0.09477324  0.70032698  1
  Nb  Nb110  1  0.09729112  0.70150107  0.89900595  1
  Nb  Nb111  1  0.49699075  0.10521695  0.89615864  1
  Nb  Nb112  1  0.69789105  0.69995960  0.49806177  1
  Nb  Nb113  1  0.70161760  0.10104125  0.70054656  1
  Nb  Nb114  1  0.50056855  0.70060357  0.10492112  1
  Nb  Nb115  1  0.89850639  0.30356396  0.49551402  1
  Nb  Nb116  1  0.89558992  0.30477415  0.11639111  1
  Nb  Nb117  1  0.50353711  0.90519980  0.30005924  1
  Nb  Nb118  1  0.89459794  0.90371185  0.10566307  1
  Nb  Nb119  1  0.50568206  0.70039701  0.49747155  1
  Nb  Nb120  1  0.31494180  0.50727342  0.90121523  1
  Nb  Nb121  1  0.90161841  0.50001569  0.69959668  1
  Nb  Nb122  1  0.09952149  0.90335108  0.49781298  1
  Nb  Nb123  1  0.10370040  0.50104049  0.10309206  1
  Nb  Nb124  1  0.30117164  0.30109018  0.29660837  1
  Nb  Nb125  1  0.00219902  0.80895535  0.20174017  1
  Nb  Nb126  1  0.80368335  0.80171361  0.80631569  1
  Nb  Nb127  1  0.80208491  -0.00296938  -0.00302263  1
  Nb  Nb128  1  0.00206766  0.80656661  0.39586335  1
  Nb  Nb129  1  0.79775079  0.80524780  0.00198464  1
  Nb  Nb130  1  0.60154295  0.60574607  0.40246666  1
  Nb  Nb131  1  0.59443142  0.39512440  0.20040999  1
  Nb  Nb132  1  0.40219512  0.19554346  0.60170610  1
  Nb  Nb133  1  0.59601589  0.00678528  0.79497348  1
  Nb  Nb134  1  0.40272004  0.60168248  0.19958785  1
  Nb  Nb135  1  0.19703127  0.39636094  0.39409796  1
  Nb  Nb136  1  0.40439882  0.20083213  0.19783405  1
  Nb  Nb137  1  0.80025727  0.00467326  0.60447697  1
  Nb  Nb138  1  0.19364801  0.79719571  0.20497579  1
  Nb  Nb139  1  -0.00414054  0.00170368  0.00383602  1
  Nb  Nb140  1  0.00387208  0.79098417  0.80060649  1
  Nb  Nb141  1  0.19657251  0.00117988  0.59611596  1
  Nb  Nb142  1  0.40813454  0.60151625  0.59599276  1
  Nb  Nb143  1  0.40809640  0.00286869  0.20460472  1
  Nb  Nb144  1  0.20375206  0.20204509  -0.00169835  1
  Nb  Nb145  1  0.79326283  0.00043389  0.79875871  1
  Nb  Nb146  1  0.79399885  0.60106531  0.40501142  1
  Nb  Nb147  1  0.00189961  0.00212085  0.59718564  1
  Nb  Nb148  1  0.39679505  0.19631352  0.00039160  1
  Nb  Nb149  1  0.59123913  0.20743081  0.19912020  1
  Pd  Pd150  1  0.40387541  0.79560702  0.80185938  1
  Pd  Pd151  1  0.20231646  0.59321378  0.80461559  1
  Pd  Pd152  1  0.79363081  0.40746584  0.39424831  1
  Pd  Pd153  1  0.80433647  0.19732354  0.39245100  1
  Pd  Pd154  1  0.40397860  0.79900082  0.40176202  1
  Pd  Pd155  1  0.20309501  0.39867848  -0.00892030  1
  Pd  Pd156  1  -0.00409863  0.21254368  0.79521635  1
  Pd  Pd157  1  0.59454032  0.20082417  0.59728372  1
  Pd  Pd158  1  0.19682112  0.79147351  0.00936472  1
  Pd  Pd159  1  0.39540630  0.00749464  0.60743414  1
  Pd  Pd160  1  0.79471711  0.00708797  0.40787608  1
  Pd  Pd161  1  0.00129143  0.80084736  0.60047764  1
  Pd  Pd162  1  0.60528017  0.59849333  0.00112072  1
  Pd  Pd163  1  0.19623656  0.80551052  0.39585624  1
  Pd  Pd164  1  0.60874675  0.39515644  0.79664406  1
  Pd  Pd165  1  0.20513513  0.60349279  0.00022603  1
  Pd  Pd166  1  -0.00399096  0.80415776  0.00486621  1
  Pd  Pd167  1  0.60196817  0.79922577  0.79853878  1
  Pd  Pd168  1  0.80924804  0.79406123  0.38654306  1
  Pd  Pd169  1  -0.00553342  0.40546816  0.00624937  1
  Pd  Pd170  1  -0.00445118  0.20382137  0.39079000  1
  Pd  Pd171  1  0.60851103  0.39256139  0.60990443  1
  Pd  Pd172  1  -0.00955519  0.39828164  0.79818535  1
  Pd  Pd173  1  0.59700079  0.60219523  0.60063383  1
  Pd  Pd174  1  0.20776203  -0.00412996  0.40008768  1
  Pd  Pd175  1  0.20553223  0.40753753  0.58819368  1
  Pd  Pd176  1  0.20290275  0.41130149  0.80813629  1
  Pd  Pd177  1  0.40329325  -0.00225357  0.79333360  1
  Pd  Pd178  1  0.00047350  0.19859562  0.20316477  1
  Pd  Pd179  1  0.20547443  0.20302854  0.80537251  1
  Pd  Pd180  1  0.20393881  0.80480780  0.60247428  1
  Pd  Pd181  1  0.19611035  0.59113285  0.40650631  1
  Pd  Pd182  1  0.79341910  0.60584677  0.00167611  1
  Pd  Pd183  1  0.60585907  0.00233988  0.60028170  1
  Pd  Pd184  1  0.80210388  0.19571318  0.00846562  1
  Pd  Pd185  1  0.38966797  0.39574344  0.59340077  1
  Pd  Pd186  1  -0.00442162  0.59708897  0.59523457  1
  Pd  Pd187  1  0.80292483  0.20303763  0.79987168  1
  Pd  Pd188  1  0.80163702  0.39219520  0.79576546  1
  Pd  Pd189  1  0.20122909  0.00070122  0.79163898  1
  Pd  Pd190  1  0.79272457  0.40139699  0.61148041  1
  Pd  Pd191  1  0.00586573  0.39451654  0.39989082  1
  Pd  Pd192  1  -0.01067906  0.60736438  0.41064959  1
  Pd  Pd193  1  -0.00473043  0.60027458  0.80162919  1
  Pd  Pd194  1  0.38711255  0.38916031  0.41276362  1
  Pd  Pd195  1  0.80205604  0.59705275  0.20339345  1
  Pd  Pd196  1  0.39520177  0.00413921  0.39591151  1
  Pd  Pd197  1  0.60976259  -0.00620903  0.40295617  1
  Pd  Pd198  1  0.39778165  0.00114020  0.00384735  1
  Pd  Pd199  1  0.00413075  0.19760538  0.01030504  1
  Rh  Rh200  1  0.20532714  0.19251590  0.60970898  1
  Rh  Rh201  1  0.41005336  0.60855270  0.40081505  1
  Rh  Rh202  1  0.20822419  0.59446921  0.59710462  1
  Rh  Rh203  1  0.79308175  0.80276089  0.61070129  1
  Rh  Rh204  1  0.79197849  0.20048289  0.20377940  1
  Rh  Rh205  1  0.80773582  0.79715115  0.19542274  1
  Rh  Rh206  1  0.40184886  0.59729449  0.79145240  1
  Rh  Rh207  1  0.19443357  0.00824051  -0.00587859  1
  Rh  Rh208  1  0.80377832  0.60345908  0.80193385  1
  Rh  Rh209  1  0.00243179  0.40452723  0.19436129  1
  Rh  Rh210  1  0.40163948  0.79968814  -0.00495589  1
  Rh  Rh211  1  0.59752420  0.00080721  0.20274839  1
  Rh  Rh212  1  0.40903370  0.40140927  0.19630902  1
  Rh  Rh213  1  0.79757278  0.00675631  0.19344046  1
  Rh  Rh214  1  0.60268415  0.20470800  0.39697267  1
  Rh  Rh215  1  0.20487159  0.20615283  0.19625798  1
  Rh  Rh216  1  0.39794439  0.20036772  0.40611030  1
  Rh  Rh217  1  -0.00193295  0.40261482  0.60244251  1
  Rh  Rh218  1  0.80115748  0.39837913  0.00426437  1
  Rh  Rh219  1  0.58615107  0.58642628  0.20477920  1
  Rh  Rh220  1  0.59904760  0.20259412  0.80203177  1
  Rh  Rh221  1  0.39815222  0.60092766  0.00688993  1
  Rh  Rh222  1  0.79844062  0.59243173  0.59487488  1
  Rh  Rh223  1  0.60040895  0.81253402  0.20328490  1
  Rh  Rh224  1  -0.00261235  0.19535240  0.59918739  1
  Rh  Rh225  1  0.21041928  0.60498717  0.18789491  1
  Rh  Rh226  1  0.00197646  -0.00239097  0.19071338  1
  Rh  Rh227  1  0.39774600  0.20110865  0.80100682  1
  Rh  Rh228  1  0.19715958  0.20717678  0.39494809  1
  Rh  Rh229  1  0.00046529  0.59041122  0.00159772  1
  Rh  Rh230  1  -0.00452470  0.59719769  0.18979743  1
  Rh  Rh231  1  0.39755944  0.40561578  0.80168230  1
  Rh  Rh232  1  0.21266176  -0.01177253  0.21204090  1
  Rh  Rh233  1  0.40808600  0.79112271  0.60055313  1
  Rh  Rh234  1  0.39707372  0.80497712  0.20051291  1
  Rh  Rh235  1  0.39768370  0.39809192  -0.00902318  1
  Rh  Rh236  1  0.60259854  0.78999065  -0.00037853  1
  Rh  Rh237  1  0.59670100  0.79406354  0.60213657  1
  Rh  Rh238  1  0.59707628  0.59691007  0.80030906  1
  Rh  Rh239  1  0.00026829  -0.00612304  0.79888658  1
  Rh  Rh240  1  -0.00076458  -0.00005826  0.40450935  1
  Rh  Rh241  1  0.59250076  0.20666336  0.00364186  1
  Rh  Rh242  1  0.59815757  0.80185143  0.39382556  1
  Rh  Rh243  1  0.60751020  0.40051264  0.00305080  1
  Rh  Rh244  1  0.60410239  0.00485727  -0.00946467  1
  Rh  Rh245  1  0.19172940  0.40093877  0.20307621  1
  Rh  Rh246  1  0.60752863  0.40582671  0.39394141  1
  Rh  Rh247  1  0.79064988  0.39971473  0.19950788  1
  Rh  Rh248  1  0.19611330  0.79033464  0.79680619  1
  Rh  Rh249  1  0.80235659  0.19443416  0.59563322  1
