# generated using pymatgen
data_ZrScNbPdRh
_symmetry_space_group_name_H-M   'P 1'
_cell_length_a   16.56072855
_cell_length_b   16.55786546
_cell_length_c   16.56593672
_cell_angle_alpha   90.02898563
_cell_angle_beta   90.00312517
_cell_angle_gamma   90.01735505
_symmetry_Int_Tables_number   1
_chemical_formula_structural   ZrScNbPdRh
_chemical_formula_sum   'Zr50 Sc50 Nb50 Pd50 Rh50'
_cell_volume   4542.54993427
_cell_formula_units_Z   50
loop_
 _symmetry_equiv_pos_site_id
 _symmetry_equiv_pos_as_xyz
  1  'x, y, z'
loop_
 _atom_site_type_symbol
 _atom_site_label
 _atom_site_symmetry_multiplicity
 _atom_site_fract_x
 _atom_site_fract_y
 _atom_site_fract_z
 _atom_site_occupancy
  Zr  Zr0  1  0.70065143  0.49510384  0.30206358  1
  Zr  Zr1  1  0.29450249  0.90048111  0.90200733  1
  Zr  Zr2  1  0.30348967  0.50429633  0.30293932  1
  Zr  Zr3  1  0.69344254  0.30092115  0.91032768  1
  Zr  Zr4  1  0.31376990  0.69847694  0.69443881  1
  Zr  Zr5  1  0.90839986  0.90044804  0.50179243  1
  Zr  Zr6  1  0.10241726  0.50228615  0.50076000  1
  Zr  Zr7  1  0.29390806  0.29906434  0.69583776  1
  Zr  Zr8  1  0.09470329  0.29790021  0.30609062  1
  Zr  Zr9  1  0.69946056  0.89596500  0.49779238  1
  Zr  Zr10  1  0.49130842  0.09988243  0.10271354  1
  Zr  Zr11  1  0.49886448  0.69185513  0.88966527  1
  Zr  Zr12  1  0.10542950  0.90269202  0.89608108  1
  Zr  Zr13  1  0.30059512  0.90630709  0.30368459  1
  Zr  Zr14  1  0.70019790  0.70318625  0.50052985  1
  Zr  Zr15  1  0.08223296  0.70448994  0.29814278  1
  Zr  Zr16  1  0.90003221  0.50609141  0.70089315  1
  Zr  Zr17  1  0.30689998  0.29028491  0.10172160  1
  Zr  Zr18  1  0.29116663  0.09125884  0.91307080  1
  Zr  Zr19  1  0.89978995  0.29969067  0.49686863  1
  Zr  Zr20  1  0.50494934  0.10284603  0.70241296  1
  Zr  Zr21  1  0.30112340  0.30307169  0.90448667  1
  Zr  Zr22  1  0.69852703  0.09657206  0.90246375  1
  Zr  Zr23  1  0.09460999  0.09575986  0.70464120  1
  Zr  Zr24  1  0.90536127  0.89306353  0.29486032  1
  Zr  Zr25  1  0.09125632  0.28743416  0.90501001  1
  Zr  Zr26  1  0.90675999  0.89727084  0.69639011  1
  Zr  Zr27  1  0.10120902  0.10112953  0.50462682  1
  Zr  Zr28  1  0.70248692  0.49681918  0.89656850  1
  Zr  Zr29  1  0.29377743  0.69981006  0.89563123  1
  Zr  Zr30  1  0.50159587  0.89848523  0.49496773  1
  Zr  Zr31  1  0.50328316  0.29536104  0.09218220  1
  Zr  Zr32  1  0.69398768  0.90729027  0.10526497  1
  Zr  Zr33  1  0.29602995  0.09669224  0.49655799  1
  Zr  Zr34  1  0.30635022  0.91129496  0.10210390  1
  Zr  Zr35  1  0.49973455  0.49158120  0.10456932  1
  Zr  Zr36  1  0.29634079  0.50045489  0.89567767  1
  Zr  Zr37  1  0.50487509  0.90435262  0.90762261  1
  Zr  Zr38  1  0.29152697  0.29974237  0.29646726  1
  Zr  Zr39  1  0.88860991  0.90733573  0.10448665  1
  Zr  Zr40  1  0.90196059  0.09446177  0.69915662  1
  Zr  Zr41  1  0.09665266  0.90084585  0.30590339  1
  Zr  Zr42  1  0.69433591  0.90012255  0.90917234  1
  Zr  Zr43  1  0.70806244  0.69749955  0.70034938  1
  Zr  Zr44  1  0.49439836  0.69876904  0.30454052  1
  Zr  Zr45  1  0.89942099  0.49948650  0.89846780  1
  Zr  Zr46  1  0.69793734  0.31061773  0.49695978  1
  Zr  Zr47  1  0.70723746  0.49839697  0.69932243  1
  Zr  Zr48  1  0.49815102  0.50908822  0.70623823  1
  Zr  Zr49  1  0.10841322  0.89885277  0.50070703  1
  Sc  Sc50  1  0.69058303  0.70130985  0.29768695  1
  Sc  Sc51  1  0.10677311  0.29883839  0.10968793  1
  Sc  Sc52  1  0.90741848  0.69803924  0.51177280  1
  Sc  Sc53  1  0.50101046  0.48667285  0.89334181  1
  Sc  Sc54  1  0.30581975  0.70499208  0.10542997  1
  Sc  Sc55  1  0.69743066  0.30125754  0.69278245  1
  Sc  Sc56  1  0.69607531  0.10502095  0.29878371  1
  Sc  Sc57  1  0.10212355  0.51130117  0.89706763  1
  Sc  Sc58  1  0.29496369  0.48773857  0.09815901  1
  Sc  Sc59  1  0.90355009  0.30235478  0.29703025  1
  Sc  Sc60  1  0.09785835  0.89626951  0.09535605  1
  Sc  Sc61  1  0.09107913  0.69881336  0.08794672  1
  Sc  Sc62  1  0.28902728  0.50017096  0.69976413  1
  Sc  Sc63  1  0.50484410  0.90701145  0.29640238  1
  Sc  Sc64  1  0.90226788  0.69836772  0.10532712  1
  Sc  Sc65  1  0.90292068  0.10337835  0.50526277  1
  Sc  Sc66  1  0.09543129  0.69837393  0.69622337  1
  Sc  Sc67  1  0.50918152  0.10133623  0.90717657  1
  Sc  Sc68  1  0.71592474  0.90103030  0.70257695  1
  Sc  Sc69  1  0.70053781  0.69612500  0.89909511  1
  Sc  Sc70  1  0.89720513  0.29816012  0.90227715  1
  Sc  Sc71  1  0.90444452  0.70137533  0.70358958  1
  Sc  Sc72  1  0.10054364  0.89960643  0.69895059  1
  Sc  Sc73  1  0.29160675  0.89174534  0.69800602  1
  Sc  Sc74  1  0.90554375  0.29725927  0.70106762  1
  Sc  Sc75  1  0.10225450  0.70108320  0.50071014  1
  Sc  Sc76  1  0.70187671  0.29627515  0.30248903  1
  Sc  Sc77  1  0.30157474  0.09573996  0.29435446  1
  Sc  Sc78  1  0.49989794  0.50241045  0.29644444  1
  Sc  Sc79  1  0.70489495  0.48850641  0.09796783  1
  Sc  Sc80  1  0.50281376  0.10371698  0.49588103  1
  Sc  Sc81  1  0.50269418  0.70533018  0.11101297  1
  Sc  Sc82  1  0.10469045  0.10549692  0.30017509  1
  Sc  Sc83  1  0.50662130  0.50335522  0.49211512  1
  Sc  Sc84  1  0.30472667  0.69750697  0.30056089  1
  Sc  Sc85  1  0.50304211  0.29970265  0.29016038  1
  Sc  Sc86  1  0.09284534  0.49579570  0.30290725  1
  Sc  Sc87  1  0.69519870  0.70183424  0.09981665  1
  Sc  Sc88  1  0.29261304  0.09782865  0.69225306  1
  Sc  Sc89  1  0.49909572  0.10341367  0.30374469  1
  Sc  Sc90  1  0.89297293  0.49999353  0.10236754  1
  Sc  Sc91  1  0.89833966  0.10981447  0.29779152  1
  Sc  Sc92  1  0.90294099  0.49772809  0.29606924  1
  Sc  Sc93  1  0.10159397  0.29903547  0.69476945  1
  Sc  Sc94  1  0.50120137  0.70483907  0.50430472  1
  Sc  Sc95  1  0.90701929  0.69565646  0.90098691  1
  Sc  Sc96  1  0.90475599  0.89673569  0.89053570  1
  Sc  Sc97  1  0.50106532  0.30022342  0.69648733  1
  Sc  Sc98  1  0.70383219  0.11345031  0.49546522  1
  Sc  Sc99  1  0.10686462  0.11150349  0.09689182  1
  Nb  Nb100  1  0.71386440  0.10077312  0.09764022  1
  Nb  Nb101  1  0.09667994  0.50237176  0.09424426  1
  Nb  Nb102  1  0.50150565  0.70198794  0.69908894  1
  Nb  Nb103  1  0.71061869  0.29622411  0.09590884  1
  Nb  Nb104  1  0.30254918  0.69754448  0.49911846  1
  Nb  Nb105  1  0.09651555  0.09833567  0.89949236  1
  Nb  Nb106  1  0.49497195  0.89524639  0.69539626  1
  Nb  Nb107  1  0.70735843  0.90405828  0.30012603  1
  Nb  Nb108  1  0.29789937  0.50439258  0.49740064  1
  Nb  Nb109  1  0.50039863  0.89873736  0.09539317  1
  Nb  Nb110  1  0.29772845  0.89824406  0.49996571  1
  Nb  Nb111  1  0.28790538  0.30006230  0.50400551  1
  Nb  Nb112  1  0.89757671  0.70055462  0.30372974  1
  Nb  Nb113  1  0.30116614  0.10031195  0.10281401  1
  Nb  Nb114  1  0.89423964  0.49759408  0.50611803  1
  Nb  Nb115  1  0.70167769  0.09844549  0.70315523  1
  Nb  Nb116  1  0.89781618  0.29461153  0.09814465  1
  Nb  Nb117  1  0.49778020  0.29137270  0.90398771  1
  Nb  Nb118  1  0.71061527  0.49954237  0.50561581  1
  Nb  Nb119  1  0.09541632  0.70370666  0.90146038  1
  Nb  Nb120  1  0.09283552  0.49742701  0.69720927  1
  Nb  Nb121  1  0.89579356  0.10658406  0.09628005  1
  Nb  Nb122  1  0.49547939  0.30085250  0.50008287  1
  Nb  Nb123  1  0.10414207  0.29971452  0.49926956  1
  Nb  Nb124  1  0.91045965  0.11068036  0.89944013  1
  Nb  Nb125  1  0.80213017  0.60048474  0.40301545  1
  Nb  Nb126  1  0.60531134  0.60040749  0.60352247  1
  Nb  Nb127  1  0.00194627  0.40409418  0.59464425  1
  Nb  Nb128  1  0.00099877  0.40073846  0.00516878  1
  Nb  Nb129  1  0.40582681  0.79985941  -0.00033526  1
  Nb  Nb130  1  0.20059862  0.19569257  0.80600391  1
  Nb  Nb131  1  -0.00503137  0.00684525  0.19217020  1
  Nb  Nb132  1  0.60149322  0.00006749  0.60544864  1
  Nb  Nb133  1  0.19184361  0.60123916  0.19765473  1
  Nb  Nb134  1  0.79750561  0.80440077  0.00271405  1
  Nb  Nb135  1  0.39586903  0.19675709  0.80499314  1
  Nb  Nb136  1  0.39370019  0.21199673  0.40642091  1
  Nb  Nb137  1  0.59537091  0.80042107  0.79345564  1
  Nb  Nb138  1  0.80406904  0.79833406  0.39576453  1
  Nb  Nb139  1  -0.00300090  0.01006134  -0.00100081  1
  Nb  Nb140  1  0.39397501  0.40151140  0.58990052  1
  Nb  Nb141  1  0.59342038  0.59382117  -0.00086946  1
  Nb  Nb142  1  0.39559183  0.80310229  0.40424636  1
  Nb  Nb143  1  0.40316059  0.60053694  -0.00180530  1
  Nb  Nb144  1  0.79595652  0.19183014  0.80048138  1
  Nb  Nb145  1  0.40124538  0.00081936  0.79631353  1
  Nb  Nb146  1  0.40431672  -0.00619336  0.60078357  1
  Nb  Nb147  1  0.39328388  0.39604032  0.40694543  1
  Nb  Nb148  1  0.80105386  -0.00626118  0.39505731  1
  Nb  Nb149  1  0.19692072  0.79792551  0.20329537  1
  Pd  Pd150  1  0.79337269  0.00456728  0.58852190  1
  Pd  Pd151  1  0.59111788  0.41003516  0.59965017  1
  Pd  Pd152  1  0.19499005  0.60773644  0.38984319  1
  Pd  Pd153  1  0.20025606  0.40301405  0.39870104  1
  Pd  Pd154  1  0.59887122  0.39108606  0.79685662  1
  Pd  Pd155  1  0.40170646  0.40445856  -0.00117320  1
  Pd  Pd156  1  0.18802476  -0.00277936  0.19504325  1
  Pd  Pd157  1  0.18787648  0.39263719  0.80382070  1
  Pd  Pd158  1  0.59772295  0.80509093  0.20627175  1
  Pd  Pd159  1  0.40363068  0.80859193  0.80666715  1
  Pd  Pd160  1  -0.00530122  0.01097437  0.39213717  1
  Pd  Pd161  1  0.60229581  0.20795369  0.80043992  1
  Pd  Pd162  1  0.00541357  0.39843357  0.80270746  1
  Pd  Pd163  1  0.80730695  0.40336303  0.39309312  1
  Pd  Pd164  1  0.19870756  0.60500429  0.60478244  1
  Pd  Pd165  1  0.60670081  0.59965816  0.40527912  1
  Pd  Pd166  1  0.20700148  0.60645494  0.00883320  1
  Pd  Pd167  1  0.19320645  0.79140854  0.79139219  1
  Pd  Pd168  1  0.20483773  0.79045063  0.39408042  1
  Pd  Pd169  1  0.60669580  0.80168787  0.60877846  1
  Pd  Pd170  1  0.79814713  0.79603305  0.80922680  1
  Pd  Pd171  1  0.79966952  0.20410573  0.60612438  1
  Pd  Pd172  1  -0.00861284  0.59752861  0.40631339  1
  Pd  Pd173  1  0.19468545  0.60674562  0.79075410  1
  Pd  Pd174  1  0.59246142  0.39711750  0.39647386  1
  Pd  Pd175  1  -0.00176461  0.39754870  0.19087756  1
  Pd  Pd176  1  0.60575248  0.59473570  0.19185033  1
  Pd  Pd177  1  0.80955982  -0.00251185  -0.01193379  1
  Pd  Pd178  1  0.60447067  0.19631713  0.19177854  1
  Pd  Pd179  1  0.59763893  -0.01058594  0.79144972  1
  Pd  Pd180  1  0.79394395  0.79141632  0.19875042  1
  Pd  Pd181  1  0.60905882  0.00643724  0.40448446  1
  Pd  Pd182  1  0.60324041  0.19712385  0.59495158  1
  Pd  Pd183  1  0.79462571  0.60181951  0.20680288  1
  Pd  Pd184  1  0.18936978  0.39517353  -0.00233623  1
  Pd  Pd185  1  0.19443233  0.40701290  0.20336571  1
  Pd  Pd186  1  0.80848676  0.00387108  0.80810336  1
  Pd  Pd187  1  0.39802605  0.19865862  0.59937203  1
  Pd  Pd188  1  -0.00119883  0.19584594  0.40250784  1
  Pd  Pd189  1  -0.01118748  0.80857400  0.00113937  1
  Pd  Pd190  1  0.40035105  0.39352950  0.79018480  1
  Pd  Pd191  1  0.79530424  0.60646623  0.00245253  1
  Pd  Pd192  1  0.20654471  0.79664295  0.01003477  1
  Pd  Pd193  1  0.80033078  0.20505084  0.20534408  1
  Pd  Pd194  1  0.39206309  0.59389830  0.18995568  1
  Pd  Pd195  1  0.59868843  0.00839842  0.19864420  1
  Pd  Pd196  1  0.00040213  0.59713969  0.19568218  1
  Pd  Pd197  1  0.60824593  0.39337273  0.19879779  1
  Pd  Pd198  1  0.40846707  0.59245195  0.59218097  1
  Pd  Pd199  1  0.80079791  0.38596289  0.79636021  1
  Rh  Rh200  1  0.81001705  0.39601086  0.00253353  1
  Rh  Rh201  1  0.19165803  0.19541968  0.60498556  1
  Rh  Rh202  1  0.59685982  0.40170216  0.00021053  1
  Rh  Rh203  1  0.39212987  0.59433218  0.80172991  1
  Rh  Rh204  1  0.20344172  0.79262211  0.60044616  1
  Rh  Rh205  1  0.60567243  0.19579670  0.00993514  1
  Rh  Rh206  1  0.40264007  0.60165931  0.40682426  1
  Rh  Rh207  1  0.60827730  0.60307741  0.79664345  1
  Rh  Rh208  1  0.80897279  0.79884149  0.59601119  1
  Rh  Rh209  1  0.00591281  0.80184144  0.60075632  1
  Rh  Rh210  1  0.39906242  0.39713188  0.20664161  1
  Rh  Rh211  1  0.80288414  0.01300217  0.20953375  1
  Rh  Rh212  1  0.00099318  0.19805722  0.19579190  1
  Rh  Rh213  1  0.40343537  -0.00010208  -0.00318814  1
  Rh  Rh214  1  0.79848307  0.20069597  -0.00817274  1
  Rh  Rh215  1  0.20336730  0.20202211  -0.00081700  1
  Rh  Rh216  1  0.39878491  0.00078785  0.40565806  1
  Rh  Rh217  1  0.59583148  0.80111211  0.38871542  1
  Rh  Rh218  1  0.59788539  0.78627767  -0.00677138  1
  Rh  Rh219  1  0.39844977  0.19936031  0.20880675  1
  Rh  Rh220  1  -0.00004364  0.20092466  0.79318511  1
  Rh  Rh221  1  0.39318407  0.80298514  0.59062934  1
  Rh  Rh222  1  -0.00180233  0.40145208  0.40895474  1
  Rh  Rh223  1  0.00714603  0.79712137  0.79949939  1
  Rh  Rh224  1  0.79948416  0.39292653  0.20070200  1
  Rh  Rh225  1  0.40706034  0.00079478  0.20233360  1
  Rh  Rh226  1  0.00499187  0.60390218  0.80171290  1
  Rh  Rh227  1  0.79896229  0.60588058  0.59630251  1
  Rh  Rh228  1  0.00201357  0.59327268  0.60074680  1
  Rh  Rh229  1  0.81029207  0.39275777  0.60552282  1
  Rh  Rh230  1  0.59287666  0.20900407  0.40072876  1
  Rh  Rh231  1  -0.00452698  0.79432131  0.41136005  1
  Rh  Rh232  1  0.00640922  -0.00252355  0.59937431  1
  Rh  Rh233  1  0.19799849  0.00500893  0.40037816  1
  Rh  Rh234  1  0.20283727  -0.00383819  0.60153004  1
  Rh  Rh235  1  0.39611318  0.81207384  0.20366750  1
  Rh  Rh236  1  0.20502094  0.00545197  0.79458597  1
  Rh  Rh237  1  0.80253274  0.19894421  0.39878421  1
  Rh  Rh238  1  0.39783767  0.19258629  -0.00571458  1
  Rh  Rh239  1  0.18761652  0.00059301  0.01061901  1
  Rh  Rh240  1  0.00418600  0.80514944  0.19022648  1
  Rh  Rh241  1  0.20326249  0.19661625  0.39811934  1
  Rh  Rh242  1  0.19643966  0.40642501  0.59850881  1
  Rh  Rh243  1  0.20310800  0.19580120  0.20229126  1
  Rh  Rh244  1  0.00450066  0.20751372  0.59823992  1
  Rh  Rh245  1  -0.00375644  0.59163237  -0.00232139  1
  Rh  Rh246  1  0.80630637  0.60350505  0.80413369  1
  Rh  Rh247  1  0.60044295  0.01294663  0.01585888  1
  Rh  Rh248  1  -0.00159350  -0.00370461  0.80550693  1
  Rh  Rh249  1  -0.00046261  0.20249510  0.01150472  1
