# generated using pymatgen
data_ZrScNbPdRh
_symmetry_space_group_name_H-M   'P 1'
_cell_length_a   16.56042354
_cell_length_b   16.56033149
_cell_length_c   16.55656658
_cell_angle_alpha   89.98314164
_cell_angle_beta   89.99471676
_cell_angle_gamma   90.00658940
_symmetry_Int_Tables_number   1
_chemical_formula_structural   ZrScNbPdRh
_chemical_formula_sum   'Zr50 Sc50 Nb50 Pd50 Rh50'
_cell_volume   4540.57362725
_cell_formula_units_Z   50
loop_
 _symmetry_equiv_pos_site_id
 _symmetry_equiv_pos_as_xyz
  1  'x, y, z'
loop_
 _atom_site_type_symbol
 _atom_site_label
 _atom_site_symmetry_multiplicity
 _atom_site_fract_x
 _atom_site_fract_y
 _atom_site_fract_z
 _atom_site_occupancy
  Zr  Zr0  1  0.90800874  0.49892175  0.70723630  1
  Zr  Zr1  1  0.68917530  0.08602716  0.50632053  1
  Zr  Zr2  1  0.10571392  0.69325005  0.89679912  1
  Zr  Zr3  1  0.10314654  0.89612535  0.89807207  1
  Zr  Zr4  1  0.10057033  0.30326638  0.71417529  1
  Zr  Zr5  1  0.89304106  0.90458395  0.30032703  1
  Zr  Zr6  1  0.30506321  0.29541222  0.30694399  1
  Zr  Zr7  1  0.70313654  0.29980648  0.50242193  1
  Zr  Zr8  1  0.29997545  0.09837011  0.30071217  1
  Zr  Zr9  1  0.89262072  0.70295050  0.29367712  1
  Zr  Zr10  1  0.90409995  0.09801842  0.29369951  1
  Zr  Zr11  1  0.49973550  0.29867834  0.29093226  1
  Zr  Zr12  1  0.29859941  0.30114600  0.69848127  1
  Zr  Zr13  1  0.90253728  0.90154933  0.91052634  1
  Zr  Zr14  1  0.70496013  0.69942800  0.10560881  1
  Zr  Zr15  1  0.90591742  0.09554356  0.48679722  1
  Zr  Zr16  1  0.50044412  0.11243894  0.09538849  1
  Zr  Zr17  1  0.70944790  0.09250059  0.30386313  1
  Zr  Zr18  1  0.29898846  0.31302894  0.50175577  1
  Zr  Zr19  1  0.50095418  0.30344489  0.10020367  1
  Zr  Zr20  1  0.11386361  0.50557915  0.50866542  1
  Zr  Zr21  1  0.90598096  0.09183620  0.70797182  1
  Zr  Zr22  1  0.89847415  0.90118789  0.70348187  1
  Zr  Zr23  1  0.70406746  0.29656865  0.29948891  1
  Zr  Zr24  1  0.90315252  0.09881910  0.90479414  1
  Zr  Zr25  1  0.49812667  0.30141978  0.70000738  1
  Zr  Zr26  1  0.10775235  0.49737601  0.09527819  1
  Zr  Zr27  1  0.69420365  0.30644176  0.09908879  1
  Zr  Zr28  1  0.49855966  0.50699784  0.90308574  1
  Zr  Zr29  1  0.49720243  0.29931469  0.50627818  1
  Zr  Zr30  1  0.90457225  0.69837052  0.70080584  1
  Zr  Zr31  1  0.69724039  0.69859512  0.49962822  1
  Zr  Zr32  1  0.90193596  0.30315742  0.70262308  1
  Zr  Zr33  1  0.89906117  0.69325848  0.90987308  1
  Zr  Zr34  1  0.30275144  0.69541292  0.30176651  1
  Zr  Zr35  1  0.49569806  0.10434923  0.30222889  1
  Zr  Zr36  1  0.69109133  0.50033438  0.50397328  1
  Zr  Zr37  1  0.49355397  0.69988211  0.69713824  1
  Zr  Zr38  1  0.68896466  0.29923477  0.69846119  1
  Zr  Zr39  1  0.89769206  0.29323537  0.30910822  1
  Zr  Zr40  1  0.90107957  0.70733796  0.50090583  1
  Zr  Zr41  1  0.10006123  0.10741800  0.89159075  1
  Zr  Zr42  1  0.89913808  0.29543482  0.49505012  1
  Zr  Zr43  1  0.29689818  0.09651697  0.70214209  1
  Zr  Zr44  1  0.29335661  0.50349351  0.90416755  1
  Zr  Zr45  1  0.09988798  0.90503356  0.09817852  1
  Zr  Zr46  1  0.29829436  0.88997190  0.29110430  1
  Zr  Zr47  1  0.70419374  0.50697538  0.89875767  1
  Zr  Zr48  1  0.49450987  0.50509657  0.50028980  1
  Zr  Zr49  1  0.09092199  0.09962814  0.10006423  1
  Sc  Sc50  1  0.08989851  0.69124992  0.09448734  1
  Sc  Sc51  1  0.10117427  0.91349450  0.70348193  1
  Sc  Sc52  1  0.90357433  0.48656457  0.50112584  1
  Sc  Sc53  1  0.89930229  0.89590233  0.49962637  1
  Sc  Sc54  1  0.50156577  0.69352826  0.29869369  1
  Sc  Sc55  1  0.31376392  0.89887377  0.50039668  1
  Sc  Sc56  1  0.90101562  0.51428112  0.09978688  1
  Sc  Sc57  1  0.29916698  0.69263124  0.49871753  1
  Sc  Sc58  1  0.09562313  0.30501344  0.48914557  1
  Sc  Sc59  1  0.09933491  0.30387424  0.09574273  1
  Sc  Sc60  1  0.50949232  0.88245227  0.09292455  1
  Sc  Sc61  1  0.10493559  0.90370711  0.30083129  1
  Sc  Sc62  1  0.69513620  0.50723968  0.29402962  1
  Sc  Sc63  1  0.30493968  0.70323740  0.89504392  1
  Sc  Sc64  1  0.10032733  0.70354723  0.49941724  1
  Sc  Sc65  1  0.50263038  0.50656269  0.69569969  1
  Sc  Sc66  1  0.30626294  0.29987487  0.09842771  1
  Sc  Sc67  1  0.70272570  0.89773928  0.30047978  1
  Sc  Sc68  1  0.29336690  0.29421081  0.89808429  1
  Sc  Sc69  1  0.50005325  0.10835339  0.69642732  1
  Sc  Sc70  1  0.10542868  0.50718025  0.28752919  1
  Sc  Sc71  1  0.49886176  0.70141186  0.90566843  1
  Sc  Sc72  1  0.49322135  0.69157014  0.50389127  1
  Sc  Sc73  1  0.49773023  0.29470186  0.90342084  1
  Sc  Sc74  1  0.30021054  0.89953062  0.89068178  1
  Sc  Sc75  1  0.69806803  0.90353651  0.91639083  1
  Sc  Sc76  1  0.49978904  0.89518285  0.30560916  1
  Sc  Sc77  1  0.50578398  0.69670453  0.09797306  1
  Sc  Sc78  1  0.91087683  0.29612317  0.09979846  1
  Sc  Sc79  1  0.31188748  0.70556639  0.10517654  1
  Sc  Sc80  1  0.48355276  0.90468960  0.69428502  1
  Sc  Sc81  1  0.69519460  0.50051039  0.09213238  1
  Sc  Sc82  1  0.10764428  0.70231980  0.30119269  1
  Sc  Sc83  1  0.30051917  0.10160612  0.49119093  1
  Sc  Sc84  1  0.30188071  0.70488327  0.69800955  1
  Sc  Sc85  1  0.69955536  0.31631289  0.89773239  1
  Sc  Sc86  1  0.30037628  0.10361344  0.89928861  1
  Sc  Sc87  1  0.90817227  0.30723495  0.89651274  1
  Sc  Sc88  1  0.69626233  0.09484139  0.90835281  1
  Sc  Sc89  1  0.90153346  0.50176616  0.29199463  1
  Sc  Sc90  1  0.49798215  0.49693792  0.09899121  1
  Sc  Sc91  1  0.09464347  0.30498967  0.29786068  1
  Sc  Sc92  1  0.49625339  0.09059621  0.50247826  1
  Sc  Sc93  1  0.70233113  0.09754282  0.09938258  1
  Sc  Sc94  1  0.49612092  0.50383054  0.29524003  1
  Sc  Sc95  1  0.09949561  0.68981950  0.69884909  1
  Sc  Sc96  1  0.29527260  0.10187547  0.09329049  1
  Sc  Sc97  1  0.70244323  0.89660722  0.10363214  1
  Sc  Sc98  1  0.29735188  0.90071184  0.70236121  1
  Sc  Sc99  1  0.69759937  0.69263402  0.70088461  1
  Nb  Nb100  1  0.28553305  0.49031312  0.68399058  1
  Nb  Nb101  1  0.09698722  0.30292799  0.89988060  1
  Nb  Nb102  1  0.10687057  0.49952623  0.70707568  1
  Nb  Nb103  1  0.69932385  0.69965283  0.90212867  1
  Nb  Nb104  1  0.29789157  0.50708661  0.30193023  1
  Nb  Nb105  1  0.89377564  0.49929335  0.89570113  1
  Nb  Nb106  1  0.29963387  0.50072647  0.50186352  1
  Nb  Nb107  1  0.10028774  0.09698158  0.30752843  1
  Nb  Nb108  1  0.29926267  0.50105382  0.10830143  1
  Nb  Nb109  1  0.09769726  0.09120568  0.49945189  1
  Nb  Nb110  1  0.70128943  0.90652545  0.69724711  1
  Nb  Nb111  1  0.09615699  0.90769142  0.50306631  1
  Nb  Nb112  1  0.09871303  0.09983252  0.69495276  1
  Nb  Nb113  1  0.70095821  0.70351705  0.29978269  1
  Nb  Nb114  1  0.70128003  0.09658083  0.70108676  1
  Nb  Nb115  1  0.90273466  0.09211768  0.09983646  1
  Nb  Nb116  1  0.90054618  0.70639377  0.10141813  1
  Nb  Nb117  1  0.50217621  0.09267314  0.90476470  1
  Nb  Nb118  1  0.50615389  0.90087784  0.90361353  1
  Nb  Nb119  1  0.10310685  0.49727002  0.89580693  1
  Nb  Nb120  1  0.70079116  0.49552475  0.70076186  1
  Nb  Nb121  1  0.30160377  0.89791840  0.09628225  1
  Nb  Nb122  1  0.90476341  0.90626331  0.09930689  1
  Nb  Nb123  1  0.50816406  0.90205319  0.50286999  1
  Nb  Nb124  1  0.69383501  0.90059702  0.50310309  1
  Nb  Nb125  1  0.59755635  0.39617231  0.39891683  1
  Nb  Nb126  1  0.19604221  0.80663308  0.59753864  1
  Nb  Nb127  1  0.60254913  0.79903644  0.40727208  1
  Nb  Nb128  1  0.80017363  0.39658569  0.19795467  1
  Nb  Nb129  1  0.59835782  -0.00369304  0.79885069  1
  Nb  Nb130  1  0.19601418  0.19549118  0.20574513  1
  Nb  Nb131  1  0.00347053  0.19414460  0.59935041  1
  Nb  Nb132  1  0.80191918  0.60348422  0.40280127  1
  Nb  Nb133  1  0.60024268  0.20146114  0.40205855  1
  Nb  Nb134  1  0.40550000  -0.00549524  0.00108184  1
  Nb  Nb135  1  0.40228556  -0.00511605  0.19025133  1
  Nb  Nb136  1  0.59968340  0.80671536  0.60239900  1
  Nb  Nb137  1  0.79535407  0.80080645  0.80413818  1
  Nb  Nb138  1  0.18969064  0.19588790  0.59754321  1
  Nb  Nb139  1  -0.00356775  0.60251268  0.40033824  1
  Nb  Nb140  1  0.79633071  0.19794730  0.79957632  1
  Nb  Nb141  1  -0.00613576  0.80299329  0.19386733  1
  Nb  Nb142  1  0.80182545  0.59416186  0.59990206  1
  Nb  Nb143  1  0.39344590  0.40482975  0.79647091  1
  Nb  Nb144  1  0.80247494  0.19189581  0.60615138  1
  Nb  Nb145  1  0.80486520  0.20191852  -0.00294825  1
  Nb  Nb146  1  0.60438780  0.80762092  0.79801274  1
  Nb  Nb147  1  -0.00524576  0.79675973  0.80494027  1
  Nb  Nb148  1  0.20175754  0.80136745  0.00225720  1
  Nb  Nb149  1  0.59146339  0.00014868  0.19967320  1
  Pd  Pd150  1  0.00481308  0.80062249  0.38994398  1
  Pd  Pd151  1  -0.00285039  0.59386205  0.59154184  1
  Pd  Pd152  1  0.79672110  0.79979214  0.00237494  1
  Pd  Pd153  1  0.40531524  0.00215747  0.80469463  1
  Pd  Pd154  1  0.19609650  0.40859367  0.39038685  1
  Pd  Pd155  1  0.01125917  0.80856661  0.61081205  1
  Pd  Pd156  1  0.19285636  0.20234374  0.40122114  1
  Pd  Pd157  1  0.79208134  0.79522225  0.60853961  1
  Pd  Pd158  1  0.39575533  0.39917972  -0.00756765  1
  Pd  Pd159  1  0.59841497  0.59871762  0.19609093  1
  Pd  Pd160  1  0.20782858  0.39038672  0.20282462  1
  Pd  Pd161  1  0.20079498  0.80653177  0.41133602  1
  Pd  Pd162  1  0.78986995  -0.00238784  0.81192637  1
  Pd  Pd163  1  0.38880810  0.59012172  0.79025682  1
  Pd  Pd164  1  0.21110725  0.61146880  0.00942225  1
  Pd  Pd165  1  0.40845601  0.79265118  0.40489626  1
  Pd  Pd166  1  -0.00393983  0.40981410  -0.00213192  1
  Pd  Pd167  1  0.81126741  0.39734210  0.00785968  1
  Pd  Pd168  1  0.39542349  0.60195735  0.00763936  1
  Pd  Pd169  1  0.40813014  0.80288279  0.80393337  1
  Pd  Pd170  1  0.79322575  0.41434635  0.38950784  1
  Pd  Pd171  1  0.20619224  -0.00319499  -0.00857508  1
  Pd  Pd172  1  0.39335418  0.40449143  0.20381337  1
  Pd  Pd173  1  0.00511182  0.20059539  0.20382066  1
  Pd  Pd174  1  0.60881714  0.19096141  0.20498743  1
  Pd  Pd175  1  0.40530692  0.40657264  0.39483292  1
  Pd  Pd176  1  0.80012504  0.40012596  0.60655289  1
  Pd  Pd177  1  0.00739950  0.41537205  0.39103743  1
  Pd  Pd178  1  0.38862819  0.19485427  0.59444196  1
  Pd  Pd179  1  0.40071954  0.20221846  0.80509216  1
  Pd  Pd180  1  0.59856998  0.60595419  0.79997316  1
  Pd  Pd181  1  0.00974273  0.39486689  0.60085042  1
  Pd  Pd182  1  0.20903032  -0.00186558  0.59323808  1
  Pd  Pd183  1  0.18973385  0.79132880  0.18744466  1
  Pd  Pd184  1  0.80897935  0.00215959  0.59303324  1
  Pd  Pd185  1  -0.00626423  0.40155813  0.19853692  1
  Pd  Pd186  1  0.21018629  0.60108209  0.79146095  1
  Pd  Pd187  1  0.20316435  0.61045656  0.19105276  1
  Pd  Pd188  1  0.41229181  0.80072587  0.19937804  1
  Pd  Pd189  1  0.20484623  0.39306356  -0.00160754  1
  Pd  Pd190  1  0.20677783  -0.01022958  0.40481093  1
  Pd  Pd191  1  0.79969891  0.60335245  0.79432766  1
  Pd  Pd192  1  0.58900222  0.40633690  0.80391654  1
  Pd  Pd193  1  0.20498674  0.00615787  0.19769522  1
  Pd  Pd194  1  0.19535399  0.20471381  0.00653533  1
  Pd  Pd195  1  0.80312483  0.20380334  0.18672438  1
  Pd  Pd196  1  0.60980514  0.20664798  -0.00878027  1
  Pd  Pd197  1  0.00038539  0.58925681  -0.00572332  1
  Pd  Pd198  1  0.60478507  0.19180584  0.80893904  1
  Pd  Pd199  1  0.39968869  -0.00640241  0.39344195  1
  Rh  Rh200  1  0.20393032  0.61000399  0.60323964  1
  Rh  Rh201  1  0.00337606  0.40902072  0.80795793  1
  Rh  Rh202  1  0.59019421  -0.00452956  0.61461943  1
  Rh  Rh203  1  0.00602720  -0.00474874  0.80741709  1
  Rh  Rh204  1  0.00638763  0.00413017  -0.00558530  1
  Rh  Rh205  1  0.39198781  0.80588270  -0.00725585  1
  Rh  Rh206  1  -0.00245699  0.20008999  -0.00310222  1
  Rh  Rh207  1  0.40577823  0.40874517  0.60778384  1
  Rh  Rh208  1  0.39810610  0.79907262  0.59538151  1
  Rh  Rh209  1  0.79797625  0.60064764  0.00415731  1
  Rh  Rh210  1  0.19984259  0.00639123  0.80315854  1
  Rh  Rh211  1  0.00168172  -0.00877124  0.39425110  1
  Rh  Rh212  1  0.59838422  -0.00260346  0.38965290  1
  Rh  Rh213  1  0.00215305  -0.00527432  0.20747920  1
  Rh  Rh214  1  0.20507147  0.40214062  0.80842272  1
  Rh  Rh215  1  0.39660438  0.00472460  0.59873420  1
  Rh  Rh216  1  0.79077302  0.79968882  0.40138237  1
  Rh  Rh217  1  0.00919812  0.80084206  0.00297945  1
  Rh  Rh218  1  0.38538627  0.19383606  0.19350939  1
  Rh  Rh219  1  0.00155051  0.59599816  0.81012921  1
  Rh  Rh220  1  0.59256906  -0.00102332  0.00935115  1
  Rh  Rh221  1  0.38848770  0.59481008  0.60345379  1
  Rh  Rh222  1  0.60161548  0.60261059  0.00069846  1
  Rh  Rh223  1  0.40669027  0.20296967  0.40823356  1
  Rh  Rh224  1  0.80086758  0.00527768  0.00674273  1
  Rh  Rh225  1  0.00150952  0.61136625  0.20784732  1
  Rh  Rh226  1  0.00884573  0.19608891  0.39965131  1
  Rh  Rh227  1  0.18813034  0.38807590  0.59861295  1
  Rh  Rh228  1  0.79917730  -0.00563525  0.40724691  1
  Rh  Rh229  1  0.19943294  0.19744800  0.79441081  1
  Rh  Rh230  1  0.60730582  0.79126922  -0.00466702  1
  Rh  Rh231  1  0.79769570  0.39731644  0.79563694  1
  Rh  Rh232  1  0.59120115  0.40423515  -0.00560669  1
  Rh  Rh233  1  0.78866696  0.18548345  0.41485306  1
  Rh  Rh234  1  0.59296669  0.40469642  0.59776308  1
  Rh  Rh235  1  0.60341080  0.60156174  0.39379877  1
  Rh  Rh236  1  0.80448570  0.80696154  0.19433936  1
  Rh  Rh237  1  -0.00345679  0.20060500  0.79870351  1
  Rh  Rh238  1  0.39892648  0.59698087  0.19711370  1
  Rh  Rh239  1  0.39861246  0.19532360  -0.00491177  1
  Rh  Rh240  1  0.60351718  0.19523020  0.59397232  1
  Rh  Rh241  1  0.79682782  0.59573159  0.19970103  1
  Rh  Rh242  1  0.19684773  0.59616973  0.39980287  1
  Rh  Rh243  1  0.39577930  0.59714448  0.39739434  1
  Rh  Rh244  1  0.60528056  0.40503944  0.20355155  1
  Rh  Rh245  1  0.79513959  -0.00356847  0.19296509  1
  Rh  Rh246  1  -0.00608007  -0.00041843  0.59659534  1
  Rh  Rh247  1  0.60087785  0.80279100  0.21195374  1
  Rh  Rh248  1  0.18951769  0.79702439  0.79461487  1
  Rh  Rh249  1  0.60348785  0.60339153  0.60689725  1
