# generated using pymatgen
data_ZrScNbPdRh
_symmetry_space_group_name_H-M   'P 1'
_cell_length_a   16.55483961
_cell_length_b   16.55231129
_cell_length_c   16.55062800
_cell_angle_alpha   90.02249400
_cell_angle_beta   90.02574383
_cell_angle_gamma   90.00265436
_symmetry_Int_Tables_number   1
_chemical_formula_structural   ZrScNbPdRh
_chemical_formula_sum   'Zr50 Sc50 Nb50 Pd50 Rh50'
_cell_volume   4535.21648424
_cell_formula_units_Z   50
loop_
 _symmetry_equiv_pos_site_id
 _symmetry_equiv_pos_as_xyz
  1  'x, y, z'
loop_
 _atom_site_type_symbol
 _atom_site_label
 _atom_site_symmetry_multiplicity
 _atom_site_fract_x
 _atom_site_fract_y
 _atom_site_fract_z
 _atom_site_occupancy
  Zr  Zr0  1  0.10900892  0.51207543  0.29768322  1
  Zr  Zr1  1  0.30860979  0.49282286  0.70323384  1
  Zr  Zr2  1  0.49760674  0.89976155  0.70141226  1
  Zr  Zr3  1  0.69433842  0.29443757  0.50214982  1
  Zr  Zr4  1  0.28801414  0.70206093  0.30781627  1
  Zr  Zr5  1  0.70227850  0.30313394  0.29700585  1
  Zr  Zr6  1  0.90355892  0.08935402  0.90175950  1
  Zr  Zr7  1  0.29002750  0.49935467  0.09877358  1
  Zr  Zr8  1  0.89614894  0.08782402  0.50317827  1
  Zr  Zr9  1  0.30722793  0.89725052  0.09540263  1
  Zr  Zr10  1  0.30446710  0.49083883  0.29774017  1
  Zr  Zr11  1  0.90021897  0.10771509  0.09537121  1
  Zr  Zr12  1  0.89605270  0.50469458  0.09324247  1
  Zr  Zr13  1  0.10464352  0.09695031  0.89759680  1
  Zr  Zr14  1  0.10755876  0.90595093  0.50226012  1
  Zr  Zr15  1  0.70115523  0.09959925  0.90372487  1
  Zr  Zr16  1  0.89796074  0.29970569  0.29533572  1
  Zr  Zr17  1  0.10598752  0.70297612  0.70639129  1
  Zr  Zr18  1  0.90074711  0.09536467  0.69708040  1
  Zr  Zr19  1  0.09719355  0.09318157  0.70284574  1
  Zr  Zr20  1  0.10563644  0.28461039  0.70308859  1
  Zr  Zr21  1  0.70086796  0.50097055  0.49400963  1
  Zr  Zr22  1  0.88587162  0.49604961  0.30484729  1
  Zr  Zr23  1  0.48721966  0.50229470  0.10452748  1
  Zr  Zr24  1  0.89581189  0.30296450  0.90513001  1
  Zr  Zr25  1  0.49289523  0.69615363  0.30072606  1
  Zr  Zr26  1  0.69351933  0.10463919  0.69009959  1
  Zr  Zr27  1  0.09920524  0.50531459  0.70395627  1
  Zr  Zr28  1  0.89946420  0.69993257  0.89716627  1
  Zr  Zr29  1  0.29755383  0.09537228  0.48857625  1
  Zr  Zr30  1  0.89399874  0.30078287  0.10239563  1
  Zr  Zr31  1  0.50449752  0.10608426  0.09530072  1
  Zr  Zr32  1  0.10844623  0.69139377  0.89826481  1
  Zr  Zr33  1  0.69501602  0.90754959  0.10105469  1
  Zr  Zr34  1  0.50607670  0.09403207  0.50570065  1
  Zr  Zr35  1  0.90053746  0.50583028  0.50425474  1
  Zr  Zr36  1  0.89177436  0.89571707  0.50325192  1
  Zr  Zr37  1  0.89649616  0.90038018  0.90210261  1
  Zr  Zr38  1  0.10435809  0.88718209  0.29297708  1
  Zr  Zr39  1  0.30841073  0.09566789  0.09686856  1
  Zr  Zr40  1  0.30050501  0.30319672  0.48869329  1
  Zr  Zr41  1  0.49273675  0.89981395  0.10141815  1
  Zr  Zr42  1  0.49320239  0.69579045  0.50414029  1
  Zr  Zr43  1  0.50614887  0.50019273  0.69771936  1
  Zr  Zr44  1  0.09901405  0.09951141  0.09469390  1
  Zr  Zr45  1  0.69657143  0.09001918  0.29615194  1
  Zr  Zr46  1  0.70404408  0.50216228  0.09854467  1
  Zr  Zr47  1  0.50026757  0.29848216  0.49724106  1
  Zr  Zr48  1  0.10051043  0.70743998  0.10553691  1
  Zr  Zr49  1  0.90079750  0.30549986  0.70863343  1
  Sc  Sc50  1  0.90107666  0.49566045  0.90247638  1
  Sc  Sc51  1  0.51014771  0.69968567  0.89786493  1
  Sc  Sc52  1  0.89913519  0.50957376  0.70625044  1
  Sc  Sc53  1  0.50868586  0.89465452  0.29800602  1
  Sc  Sc54  1  0.89261210  0.69569843  0.50302746  1
  Sc  Sc55  1  0.30388425  0.30699656  0.88859470  1
  Sc  Sc56  1  0.49915022  0.30254000  0.71060776  1
  Sc  Sc57  1  0.50041603  0.09733028  0.29757725  1
  Sc  Sc58  1  0.69894666  0.30632942  0.89556561  1
  Sc  Sc59  1  0.70456852  0.29338602  0.09948076  1
  Sc  Sc60  1  0.49306692  0.70370914  0.10464440  1
  Sc  Sc61  1  0.30220352  0.89195973  0.50385451  1
  Sc  Sc62  1  0.10057710  0.09866372  0.51199462  1
  Sc  Sc63  1  0.70685399  0.89819050  0.89944155  1
  Sc  Sc64  1  0.89614446  0.70044237  0.09489559  1
  Sc  Sc65  1  0.70124001  0.50280075  0.89659359  1
  Sc  Sc66  1  0.70459855  0.69534123  0.09057171  1
  Sc  Sc67  1  0.10390186  0.30821421  0.30712379  1
  Sc  Sc68  1  0.69777085  0.88809209  0.69687626  1
  Sc  Sc69  1  0.30904604  0.09682403  0.89616961  1
  Sc  Sc70  1  0.10111616  0.90603376  0.89079985  1
  Sc  Sc71  1  0.51399913  0.69995205  0.69650156  1
  Sc  Sc72  1  0.49389480  0.90322208  0.90172148  1
  Sc  Sc73  1  0.49593187  0.29870150  0.30098528  1
  Sc  Sc74  1  0.70091100  0.90076131  0.49653832  1
  Sc  Sc75  1  0.29539487  0.89239411  0.69481375  1
  Sc  Sc76  1  0.69500494  0.09335498  0.50367235  1
  Sc  Sc77  1  0.29477681  0.10595412  0.70790496  1
  Sc  Sc78  1  0.90237095  0.89796927  0.09761911  1
  Sc  Sc79  1  0.69892239  0.10232943  0.10222408  1
  Sc  Sc80  1  0.09557783  0.50443061  0.49296503  1
  Sc  Sc81  1  0.89610586  0.90426328  0.30588162  1
  Sc  Sc82  1  0.69002834  0.30268412  0.70406849  1
  Sc  Sc83  1  0.31463789  0.30592674  0.10494289  1
  Sc  Sc84  1  0.30366518  0.90365443  0.90592196  1
  Sc  Sc85  1  0.89784213  0.90011947  0.70267937  1
  Sc  Sc86  1  0.30321024  0.89860443  0.30682444  1
  Sc  Sc87  1  0.49703945  0.90172411  0.50491576  1
  Sc  Sc88  1  0.10800377  0.69239836  0.49311821  1
  Sc  Sc89  1  0.49313693  0.10341473  0.70291337  1
  Sc  Sc90  1  0.89862467  0.70735088  0.29832812  1
  Sc  Sc91  1  0.70227891  0.70437609  0.50489183  1
  Sc  Sc92  1  0.89839786  0.09796575  0.29653468  1
  Sc  Sc93  1  0.49572342  0.50040403  0.49852617  1
  Sc  Sc94  1  0.69116824  0.70018139  0.30765683  1
  Sc  Sc95  1  0.89700754  0.30882629  0.49701207  1
  Sc  Sc96  1  0.70141925  0.70360305  0.89511710  1
  Sc  Sc97  1  0.10622193  0.89855514  0.09351114  1
  Sc  Sc98  1  0.10311845  0.09453360  0.31305496  1
  Sc  Sc99  1  0.09260501  0.30149438  0.09936214  1
  Nb  Nb100  1  0.29725622  0.70018834  0.89596026  1
  Nb  Nb101  1  0.29822276  0.29618158  0.69489122  1
  Nb  Nb102  1  0.30146702  0.71207632  0.08927077  1
  Nb  Nb103  1  0.10226733  0.89604430  0.69417588  1
  Nb  Nb104  1  0.09926095  0.30022070  0.50658722  1
  Nb  Nb105  1  0.09839826  0.70542192  0.29837013  1
  Nb  Nb106  1  0.09723202  0.50660018  0.09420617  1
  Nb  Nb107  1  0.69450880  0.49708073  0.29655772  1
  Nb  Nb108  1  0.90594575  0.69583660  0.69434979  1
  Nb  Nb109  1  0.50057323  0.10846762  0.89113920  1
  Nb  Nb110  1  0.29730960  0.10299038  0.29863482  1
  Nb  Nb111  1  0.70602839  0.69083289  0.69608924  1
  Nb  Nb112  1  0.10354590  0.30179698  0.89842411  1
  Nb  Nb113  1  0.30306513  0.69800359  0.50902295  1
  Nb  Nb114  1  0.29833553  0.69816398  0.70193621  1
  Nb  Nb115  1  0.50466864  0.30180348  0.09870412  1
  Nb  Nb116  1  0.69978928  0.50104934  0.69758825  1
  Nb  Nb117  1  0.50366531  0.29822000  0.89815332  1
  Nb  Nb118  1  0.30400959  0.50143778  0.50467920  1
  Nb  Nb119  1  0.11231940  0.49903187  0.91523726  1
  Nb  Nb120  1  0.70025950  0.89981396  0.29981429  1
  Nb  Nb121  1  0.49297460  0.49608533  0.89790493  1
  Nb  Nb122  1  0.50261468  0.50612188  0.29370184  1
  Nb  Nb123  1  0.29959681  0.29599722  0.30243594  1
  Nb  Nb124  1  0.29356691  0.50459011  0.90100060  1
  Nb  Nb125  1  0.20668735  0.19844835  0.20222559  1
  Nb  Nb126  1  0.00211093  0.59882249  0.20064902  1
  Nb  Nb127  1  0.39354842  0.20321953  0.59693079  1
  Nb  Nb128  1  0.79095403  0.80626573  0.20223387  1
  Nb  Nb129  1  0.20269807  0.20295064  -0.00005014  1
  Nb  Nb130  1  0.00408615  0.79627566  0.60036216  1
  Nb  Nb131  1  0.00158058  0.79654249  -0.00744739  1
  Nb  Nb132  1  0.59905370  0.80430635  0.00303946  1
  Nb  Nb133  1  0.39238007  0.60086416  -0.00732983  1
  Nb  Nb134  1  0.39713469  0.60057134  0.80319745  1
  Nb  Nb135  1  0.80093365  0.19720525  0.40130235  1
  Nb  Nb136  1  0.20973066  0.59526582  0.60129047  1
  Nb  Nb137  1  0.00349395  0.79996948  0.40428245  1
  Nb  Nb138  1  -0.00349614  0.20185571  0.40707287  1
  Nb  Nb139  1  0.79931300  0.40530084  0.60373836  1
  Nb  Nb140  1  0.59763270  0.00362103  0.80158196  1
  Nb  Nb141  1  0.19880923  0.39831918  0.59835411  1
  Nb  Nb142  1  0.39661711  0.79051372  0.79960839  1
  Nb  Nb143  1  0.59656283  0.40556845  0.19684205  1
  Nb  Nb144  1  0.80138461  0.19636308  0.79931065  1
  Nb  Nb145  1  0.00348588  0.39913092  0.60351700  1
  Nb  Nb146  1  0.00768188  -0.00028429  0.19825021  1
  Nb  Nb147  1  0.20409185  0.00383660  0.20053504  1
  Nb  Nb148  1  -0.00036654  0.41389596  0.19908936  1
  Nb  Nb149  1  0.58940918  0.40120092  0.00234932  1
  Pd  Pd150  1  0.39905828  0.40003821  -0.00685808  1
  Pd  Pd151  1  0.40030076  0.39122947  0.59835850  1
  Pd  Pd152  1  0.00132397  0.59275180  0.81117264  1
  Pd  Pd153  1  0.00043229  0.80474527  0.79840545  1
  Pd  Pd154  1  0.20354488  0.38704132  0.00475169  1
  Pd  Pd155  1  0.59192456  0.60004415  0.00148350  1
  Pd  Pd156  1  0.40247641  0.80274393  0.40187853  1
  Pd  Pd157  1  0.00056633  0.39963265  0.00282386  1
  Pd  Pd158  1  0.59603044  0.80159641  0.40786362  1
  Pd  Pd159  1  0.59997510  0.80053510  0.59362255  1
  Pd  Pd160  1  0.60426995  0.19266011  0.39398470  1
  Pd  Pd161  1  0.00878546  0.40544406  0.80350846  1
  Pd  Pd162  1  0.80594989  0.20978442  0.60015808  1
  Pd  Pd163  1  0.00529296  0.20525674  -0.00929358  1
  Pd  Pd164  1  0.19623181  0.39985464  0.79550152  1
  Pd  Pd165  1  0.20275838  0.60936475  0.19346577  1
  Pd  Pd166  1  0.01415353  0.19791477  0.21378747  1
  Pd  Pd167  1  0.59248302  0.40391104  0.39239841  1
  Pd  Pd168  1  0.60352704  0.60325940  0.19579743  1
  Pd  Pd169  1  0.60277949  0.40065627  0.59967716  1
  Pd  Pd170  1  -0.00554846  0.19725531  0.80851486  1
  Pd  Pd171  1  0.40152679  0.20278357  0.20293620  1
  Pd  Pd172  1  0.19309558  0.39016849  0.19394686  1
  Pd  Pd173  1  0.39554457  0.20556751  -0.00782411  1
  Pd  Pd174  1  0.60561167  0.79086688  0.19291089  1
  Pd  Pd175  1  0.80011223  0.61130819  0.20631752  1
  Pd  Pd176  1  0.18956646  0.20032853  0.40094375  1
  Pd  Pd177  1  0.60554997  0.20784212  -0.00326386  1
  Pd  Pd178  1  -0.00654157  0.60937389  0.39228822  1
  Pd  Pd179  1  0.19903738  0.40791362  0.40573297  1
  Pd  Pd180  1  0.79977216  0.79501683  0.79142138  1
  Pd  Pd181  1  0.59486741  -0.00289541  -0.00677651  1
  Pd  Pd182  1  0.20945353  0.00478003  0.60549814  1
  Pd  Pd183  1  0.78801392  0.00307620  0.79051768  1
  Pd  Pd184  1  0.20883910  -0.00722642  0.79605760  1
  Pd  Pd185  1  0.80015370  0.60089493  0.80166709  1
  Pd  Pd186  1  0.00182717  -0.00327030  0.39708360  1
  Pd  Pd187  1  0.39008412  0.00813709  0.60730806  1
  Pd  Pd188  1  0.38342966  0.61010844  0.19412851  1
  Pd  Pd189  1  -0.01042710  0.20554003  0.59388656  1
  Pd  Pd190  1  0.00135186  0.39921241  0.39932247  1
  Pd  Pd191  1  0.59854775  0.60122882  0.40558963  1
  Pd  Pd192  1  0.80939504  -0.00311897  0.19409997  1
  Pd  Pd193  1  0.79549066  0.60855904  0.39567728  1
  Pd  Pd194  1  0.40641512  0.19308261  0.40142294  1
  Pd  Pd195  1  0.40016095  -0.00375751  0.20840362  1
  Pd  Pd196  1  0.59881292  0.59699827  0.80018731  1
  Pd  Pd197  1  0.40619347  -0.00460062  0.39571737  1
  Pd  Pd198  1  0.39466687  0.59448646  0.39808312  1
  Pd  Pd199  1  0.19369905  0.80607038  -0.01097680  1
  Rh  Rh200  1  0.21310064  0.80441783  0.19662945  1
  Rh  Rh201  1  0.80657662  0.79284905  0.60707901  1
  Rh  Rh202  1  0.78986445  0.39924988  0.00093358  1
  Rh  Rh203  1  0.00263218  0.60705632  0.00045730  1
  Rh  Rh204  1  0.79288753  0.39755110  0.79238427  1
  Rh  Rh205  1  0.40721431  0.39544239  0.20897512  1
  Rh  Rh206  1  0.40368735  -0.00701439  0.79845323  1
  Rh  Rh207  1  0.79741914  0.19939201  -0.00795615  1
  Rh  Rh208  1  0.79286949  -0.00772482  0.60412509  1
  Rh  Rh209  1  0.60122634  -0.00749657  0.60948471  1
  Rh  Rh210  1  0.39412702  0.79640460  0.21103441  1
  Rh  Rh211  1  0.40534238  0.40600937  0.39459003  1
  Rh  Rh212  1  0.00960874  0.60381383  0.60101361  1
  Rh  Rh213  1  0.60508323  0.59943678  0.59402835  1
  Rh  Rh214  1  0.19450394  0.78911476  0.59506595  1
  Rh  Rh215  1  0.59691271  -0.00526732  0.40073184  1
  Rh  Rh216  1  0.80056100  0.59903139  -0.01274808  1
  Rh  Rh217  1  0.59941894  0.40789943  0.80816708  1
  Rh  Rh218  1  0.00013787  -0.01170504  0.60534822  1
  Rh  Rh219  1  0.59891188  0.20580677  0.20151758  1
  Rh  Rh220  1  0.20336648  -0.00663945  0.39576170  1
  Rh  Rh221  1  0.20996736  0.20084320  0.59047670  1
  Rh  Rh222  1  0.60666681  0.19448127  0.80018749  1
  Rh  Rh223  1  0.40462450  0.79296363  0.60852113  1
  Rh  Rh224  1  0.59201769  0.00132791  0.19986706  1
  Rh  Rh225  1  -0.01135751  0.80103533  0.20009000  1
  Rh  Rh226  1  0.00144703  -0.01152139  0.00405201  1
  Rh  Rh227  1  0.39962689  0.60477466  0.60910700  1
  Rh  Rh228  1  0.19741226  0.80054442  0.40945544  1
  Rh  Rh229  1  0.58222603  0.20468686  0.60673957  1
  Rh  Rh230  1  0.40934051  0.78783314  -0.01170082  1
  Rh  Rh231  1  0.79406548  0.19228475  0.20739834  1
  Rh  Rh232  1  0.80174442  0.00266228  0.00829223  1
  Rh  Rh233  1  0.59362060  0.81139036  0.80880988  1
  Rh  Rh234  1  0.79150164  0.39392606  0.40759227  1
  Rh  Rh235  1  0.20782733  0.80884684  0.80388882  1
  Rh  Rh236  1  0.39781624  0.20647278  0.79545821  1
  Rh  Rh237  1  0.20371960  0.20075742  0.81233409  1
  Rh  Rh238  1  0.20364603  0.00526685  0.00156312  1
  Rh  Rh239  1  0.79789767  0.80277247  0.00720769  1
  Rh  Rh240  1  0.79208701  0.00519743  0.40200513  1
  Rh  Rh241  1  0.40210237  0.40077573  0.80153783  1
  Rh  Rh242  1  0.20510082  0.59143388  0.79596066  1
  Rh  Rh243  1  0.79711153  0.40281447  0.19339627  1
  Rh  Rh244  1  0.00139065  -0.00665930  0.79393602  1
  Rh  Rh245  1  0.20456670  0.60754585  0.00857671  1
  Rh  Rh246  1  0.21129416  0.59471993  0.40716472  1
  Rh  Rh247  1  0.80241950  0.80010308  0.39320058  1
  Rh  Rh248  1  0.79581152  0.59495674  0.60220250  1
  Rh  Rh249  1  0.40946417  0.01049429  -0.00517770  1
