# generated using pymatgen
data_ZrScNbPdRh
_symmetry_space_group_name_H-M   'P 1'
_cell_length_a   16.55968895
_cell_length_b   16.55601170
_cell_length_c   16.56092139
_cell_angle_alpha   90.00849004
_cell_angle_beta   89.97647103
_cell_angle_gamma   90.00268231
_symmetry_Int_Tables_number   1
_chemical_formula_structural   ZrScNbPdRh
_chemical_formula_sum   'Zr50 Sc50 Nb50 Pd50 Rh50'
_cell_volume   4540.38158596
_cell_formula_units_Z   50
loop_
 _symmetry_equiv_pos_site_id
 _symmetry_equiv_pos_as_xyz
  1  'x, y, z'
loop_
 _atom_site_type_symbol
 _atom_site_label
 _atom_site_symmetry_multiplicity
 _atom_site_fract_x
 _atom_site_fract_y
 _atom_site_fract_z
 _atom_site_occupancy
  Zr  Zr0  1  0.09530352  0.69780819  0.10370616  1
  Zr  Zr1  1  0.30854364  0.89910899  0.89849214  1
  Zr  Zr2  1  0.70129834  0.30219605  0.30370468  1
  Zr  Zr3  1  0.71258108  0.10812480  0.90179714  1
  Zr  Zr4  1  0.49767517  0.09752694  0.69522290  1
  Zr  Zr5  1  0.89850951  0.89279337  0.69799682  1
  Zr  Zr6  1  0.09268830  0.50274925  0.69075497  1
  Zr  Zr7  1  0.88961682  0.88887849  0.31356385  1
  Zr  Zr8  1  0.70512652  0.49227538  0.90073746  1
  Zr  Zr9  1  0.50821450  0.29853631  0.10484853  1
  Zr  Zr10  1  0.09469213  0.88392399  0.49843569  1
  Zr  Zr11  1  0.49795935  0.69847817  0.49730263  1
  Zr  Zr12  1  0.28986630  0.09997510  0.30023499  1
  Zr  Zr13  1  0.88694850  0.30439806  0.89637191  1
  Zr  Zr14  1  0.69533954  0.89864381  0.10816499  1
  Zr  Zr15  1  0.89900899  0.30629933  0.10862196  1
  Zr  Zr16  1  0.90182968  0.70305198  0.91228599  1
  Zr  Zr17  1  0.09890265  0.89397696  0.70223921  1
  Zr  Zr18  1  0.89953296  0.90328371  0.90365569  1
  Zr  Zr19  1  0.09819204  0.10222387  0.50221920  1
  Zr  Zr20  1  0.30829407  0.09790770  0.69300305  1
  Zr  Zr21  1  0.49821582  0.69158473  0.10062043  1
  Zr  Zr22  1  0.49440693  0.49722933  0.70495016  1
  Zr  Zr23  1  0.89874082  0.09300205  0.09733176  1
  Zr  Zr24  1  0.70095302  0.10386575  0.70598652  1
  Zr  Zr25  1  0.50304646  0.30716945  0.89582302  1
  Zr  Zr26  1  0.69727225  0.10047687  0.29609353  1
  Zr  Zr27  1  0.29982977  0.69763768  0.10814150  1
  Zr  Zr28  1  0.29556014  0.30261458  0.10535372  1
  Zr  Zr29  1  0.30017126  0.89979757  0.10727144  1
  Zr  Zr30  1  0.09828326  0.09270965  0.70202129  1
  Zr  Zr31  1  0.50253337  0.50049071  0.90398289  1
  Zr  Zr32  1  0.50364417  0.50430101  0.10355779  1
  Zr  Zr33  1  0.29845865  0.09539773  0.89442379  1
  Zr  Zr34  1  0.50061209  0.10435919  0.30260181  1
  Zr  Zr35  1  0.90039144  0.69020404  0.30033926  1
  Zr  Zr36  1  0.49713126  0.90150076  0.09634907  1
  Zr  Zr37  1  0.50290021  0.90443435  0.69891550  1
  Zr  Zr38  1  0.09658220  0.50503489  0.90136261  1
  Zr  Zr39  1  0.49327772  0.10283425  0.50723443  1
  Zr  Zr40  1  0.50802066  0.89840163  0.29876111  1
  Zr  Zr41  1  0.89934770  0.49780686  0.29939260  1
  Zr  Zr42  1  0.89147863  0.89942375  0.50201934  1
  Zr  Zr43  1  0.51037499  0.70331888  0.69310245  1
  Zr  Zr44  1  0.89903017  0.50807164  0.10088934  1
  Zr  Zr45  1  0.09472033  0.30649687  0.90726682  1
  Zr  Zr46  1  0.09584696  0.10196411  0.29966967  1
  Zr  Zr47  1  0.50456122  0.89802979  0.50334106  1
  Zr  Zr48  1  0.89639575  0.69267330  0.69240383  1
  Zr  Zr49  1  0.89846560  0.30444288  0.30107657  1
  Sc  Sc50  1  0.70268260  0.70139635  0.69861654  1
  Sc  Sc51  1  0.50084711  0.30300722  0.30041851  1
  Sc  Sc52  1  0.69762923  0.89320905  0.69386235  1
  Sc  Sc53  1  0.09743785  0.09225948  0.89888623  1
  Sc  Sc54  1  0.70286282  0.89810817  0.88977694  1
  Sc  Sc55  1  0.90179648  0.09163247  0.69699085  1
  Sc  Sc56  1  0.69883452  0.29828503  0.90495555  1
  Sc  Sc57  1  0.71283241  0.30706375  0.70953595  1
  Sc  Sc58  1  0.09932084  0.69326763  0.30333247  1
  Sc  Sc59  1  0.30076622  0.69601327  0.89454556  1
  Sc  Sc60  1  0.30222868  0.10623893  0.49701642  1
  Sc  Sc61  1  0.09894664  0.70205880  0.89094826  1
  Sc  Sc62  1  0.29927190  0.90732928  0.70485358  1
  Sc  Sc63  1  0.09745544  0.30752300  0.30007411  1
  Sc  Sc64  1  0.10228936  0.69797496  0.69764748  1
  Sc  Sc65  1  0.10866495  0.89838365  0.29979656  1
  Sc  Sc66  1  0.50563264  0.49527362  0.29908511  1
  Sc  Sc67  1  0.09509386  0.49502043  0.10494974  1
  Sc  Sc68  1  0.70237502  0.09380057  0.48795441  1
  Sc  Sc69  1  0.50189177  0.69114934  0.90011644  1
  Sc  Sc70  1  0.29656205  0.50977095  0.69929018  1
  Sc  Sc71  1  0.30748960  0.30746479  0.69600819  1
  Sc  Sc72  1  0.51377818  0.09639647  0.90319556  1
  Sc  Sc73  1  0.71339781  0.50821484  0.69330795  1
  Sc  Sc74  1  0.50474648  0.69001009  0.30428013  1
  Sc  Sc75  1  0.09861365  0.89836878  0.88899593  1
  Sc  Sc76  1  0.70486918  0.69428247  0.10693524  1
  Sc  Sc77  1  0.50234292  0.50786615  0.48663863  1
  Sc  Sc78  1  0.29525991  0.30515888  0.90434159  1
  Sc  Sc79  1  0.30027741  0.30370938  0.49252726  1
  Sc  Sc80  1  0.29927998  0.10266626  0.10619221  1
  Sc  Sc81  1  0.51120946  0.09633222  0.10457168  1
  Sc  Sc82  1  0.09728297  0.10024153  0.10855356  1
  Sc  Sc83  1  0.70228326  0.69945879  0.30177226  1
  Sc  Sc84  1  0.70180742  0.70096062  0.88975116  1
  Sc  Sc85  1  0.90404810  0.31541386  0.69260402  1
  Sc  Sc86  1  0.90541855  0.70388932  0.49474385  1
  Sc  Sc87  1  0.29475068  0.49809508  0.30551231  1
  Sc  Sc88  1  0.09991162  0.30547125  0.10292286  1
  Sc  Sc89  1  0.09720205  0.49902926  0.30700281  1
  Sc  Sc90  1  0.49958228  0.30162042  0.69875157  1
  Sc  Sc91  1  0.09547225  0.31703646  0.50376248  1
  Sc  Sc92  1  0.90085195  0.49949784  0.90673966  1
  Sc  Sc93  1  0.49784375  0.30024782  0.48689372  1
  Sc  Sc94  1  0.30039538  0.50086099  0.10884081  1
  Sc  Sc95  1  0.09706245  0.90542201  0.10910704  1
  Sc  Sc96  1  0.90130391  0.50072297  0.50136865  1
  Sc  Sc97  1  0.89795706  0.10723587  0.29218393  1
  Sc  Sc98  1  0.70044244  0.49521369  0.10511324  1
  Sc  Sc99  1  0.30528941  0.50327167  0.89279197  1
  Nb  Nb100  1  0.29509195  0.50206155  0.49730920  1
  Nb  Nb101  1  0.70039744  0.49990467  0.30381273  1
  Nb  Nb102  1  0.29767344  0.71178868  0.30718940  1
  Nb  Nb103  1  0.90117954  0.70171946  0.10147782  1
  Nb  Nb104  1  0.70454607  0.30372612  0.49761257  1
  Nb  Nb105  1  0.90188740  0.09926680  0.50131145  1
  Nb  Nb106  1  0.29654402  0.88756539  0.48807451  1
  Nb  Nb107  1  0.10810276  0.50623618  0.49624761  1
  Nb  Nb108  1  0.89520625  0.30352937  0.49798712  1
  Nb  Nb109  1  0.09738533  0.30315566  0.69986299  1
  Nb  Nb110  1  0.70512009  0.89669347  0.48406144  1
  Nb  Nb111  1  0.70248279  0.90320283  0.30898275  1
  Nb  Nb112  1  0.09943289  0.69273537  0.49781380  1
  Nb  Nb113  1  0.29709912  0.70046483  0.49326451  1
  Nb  Nb114  1  0.69850590  0.10450246  0.10081066  1
  Nb  Nb115  1  0.89628422  0.89332111  0.09967260  1
  Nb  Nb116  1  0.30130093  0.70467010  0.70032591  1
  Nb  Nb117  1  0.89951498  0.50318422  0.69233090  1
  Nb  Nb118  1  0.70066343  0.49431444  0.49466282  1
  Nb  Nb119  1  0.70057039  0.29388379  0.10761190  1
  Nb  Nb120  1  0.29836397  0.30456209  0.30016414  1
  Nb  Nb121  1  0.69294451  0.69047394  0.50526020  1
  Nb  Nb122  1  0.29853767  0.89517958  0.30323057  1
  Nb  Nb123  1  0.50134807  0.89395387  0.90082667  1
  Nb  Nb124  1  0.89982689  0.10337066  0.89867769  1
  Nb  Nb125  1  0.19608142  0.20132919  0.60593759  1
  Nb  Nb126  1  0.39465387  -0.00823386  0.39746935  1
  Nb  Nb127  1  0.39825548  0.19910014  0.80445817  1
  Nb  Nb128  1  -0.00631671  0.20166745  0.40880232  1
  Nb  Nb129  1  0.19668657  0.20547500  0.79471477  1
  Nb  Nb130  1  0.40468286  0.39742681  0.00503359  1
  Nb  Nb131  1  0.80264986  0.20304030  0.59199174  1
  Nb  Nb132  1  0.61008503  0.20770376  0.59459873  1
  Nb  Nb133  1  -0.00050266  0.20344512  0.80105066  1
  Nb  Nb134  1  0.39117759  0.79651652  0.59822360  1
  Nb  Nb135  1  0.20039772  -0.00353892  0.59195938  1
  Nb  Nb136  1  -0.00484171  0.00356425  0.40333505  1
  Nb  Nb137  1  0.60308608  0.39955731  0.59280298  1
  Nb  Nb138  1  0.20152427  0.80017599  0.00205761  1
  Nb  Nb139  1  0.40652203  0.79998383  0.79334852  1
  Nb  Nb140  1  0.19120219  0.39895224  0.79475097  1
  Nb  Nb141  1  0.19857188  0.60462283  0.00253019  1
  Nb  Nb142  1  -0.01034886  0.79838463  0.19885361  1
  Nb  Nb143  1  -0.00721041  0.19880995  -0.00437157  1
  Nb  Nb144  1  0.40364648  0.41023493  0.59098988  1
  Nb  Nb145  1  0.79642236  -0.00667863  0.19914763  1
  Nb  Nb146  1  0.40285275  0.20435088  -0.00144455  1
  Nb  Nb147  1  0.39853624  0.79863943  0.20860309  1
  Nb  Nb148  1  0.59655170  0.80081512  0.00044461  1
  Nb  Nb149  1  0.20347665  -0.00650876  0.00047437  1
  Pd  Pd150  1  0.78765667  0.79799299  -0.00146247  1
  Pd  Pd151  1  0.61275320  0.60676352  -0.00140656  1
  Pd  Pd152  1  0.39563700  0.19954369  0.39437324  1
  Pd  Pd153  1  -0.00782416  0.79196130  0.79625298  1
  Pd  Pd154  1  0.39941904  -0.00179146  0.20864391  1
  Pd  Pd155  1  0.39707484  0.60172330  0.21422218  1
  Pd  Pd156  1  0.20859446  0.41513988  -0.00298535  1
  Pd  Pd157  1  0.80392570  0.20627915  0.00944585  1
  Pd  Pd158  1  0.80244125  -0.00323738  0.79503088  1
  Pd  Pd159  1  0.39666335  0.60027132  0.59703038  1
  Pd  Pd160  1  0.60298242  -0.00067170  0.80297113  1
  Pd  Pd161  1  0.40073761  0.78953203  -0.00132215  1
  Pd  Pd162  1  0.60105892  0.58807741  0.60176377  1
  Pd  Pd163  1  0.80759355  0.59872971  0.80565016  1
  Pd  Pd164  1  0.19641592  0.59484647  0.20470011  1
  Pd  Pd165  1  0.19738927  -0.00248910  0.40518517  1
  Pd  Pd166  1  0.61377606  0.00444738  0.59334397  1
  Pd  Pd167  1  0.79367640  0.79321758  0.59286145  1
  Pd  Pd168  1  0.19265706  0.20773353  0.20283670  1
  Pd  Pd169  1  0.18922687  0.21381203  0.40707703  1
  Pd  Pd170  1  0.79051770  0.00408274  0.59935179  1
  Pd  Pd171  1  0.79889556  0.59940179  0.40565846  1
  Pd  Pd172  1  0.80387840  0.19557446  0.40147676  1
  Pd  Pd173  1  0.60374946  0.39782842  0.00676292  1
  Pd  Pd174  1  0.19521614  0.18940655  -0.00333855  1
  Pd  Pd175  1  0.40122621  0.19976663  0.19748755  1
  Pd  Pd176  1  -0.00385743  0.20661597  0.60229488  1
  Pd  Pd177  1  -0.00743934  0.60294367  0.79991308  1
  Pd  Pd178  1  0.59405603  0.79177356  0.19744089  1
  Pd  Pd179  1  0.20487113  0.80120364  0.60251391  1
  Pd  Pd180  1  0.00728749  -0.00090949  -0.00088266  1
  Pd  Pd181  1  0.59593554  0.20402278  0.79386916  1
  Pd  Pd182  1  0.61018341  0.40635130  0.78917485  1
  Pd  Pd183  1  0.79332279  0.60160802  0.00064061  1
  Pd  Pd184  1  0.59197076  0.00462739  0.40368062  1
  Pd  Pd185  1  -0.01310571  -0.01320117  0.21403603  1
  Pd  Pd186  1  -0.00274652  0.40243251  0.80019409  1
  Pd  Pd187  1  0.39351551  0.59695494  0.39287429  1
  Pd  Pd188  1  0.40387795  0.60883611  0.79667737  1
  Pd  Pd189  1  0.40005080  0.40143285  0.20238347  1
  Pd  Pd190  1  0.00361300  -0.01034620  0.59497669  1
  Pd  Pd191  1  0.80104773  0.79807135  0.20308787  1
  Pd  Pd192  1  0.79157272  -0.00429223  0.00381047  1
  Pd  Pd193  1  0.61116034  -0.00535187  -0.00612326  1
  Pd  Pd194  1  0.60635601  0.59459714  0.79579070  1
  Pd  Pd195  1  0.01039816  0.80780436  0.00501508  1
  Pd  Pd196  1  0.20220801  0.60635022  0.59866023  1
  Pd  Pd197  1  0.60440133  0.79200058  0.40102286  1
  Pd  Pd198  1  0.39960701  0.01227199  0.00017211  1
  Pd  Pd199  1  0.20754606  0.39834491  0.60184805  1
  Rh  Rh200  1  0.60647233  0.00141183  0.20276033  1
  Rh  Rh201  1  0.79434742  0.40412401  0.20187423  1
  Rh  Rh202  1  -0.00987982  0.39670667  0.00511057  1
  Rh  Rh203  1  0.60541695  0.80111775  0.59125799  1
  Rh  Rh204  1  -0.00929533  0.00013543  0.80238997  1
  Rh  Rh205  1  0.00500930  0.79929205  0.39043700  1
  Rh  Rh206  1  0.81479630  0.20015563  0.78433096  1
  Rh  Rh207  1  0.19639450  -0.00117612  0.79940523  1
  Rh  Rh208  1  0.79820889  0.59576676  0.20150067  1
  Rh  Rh209  1  0.38473185  -0.01652955  0.58149575  1
  Rh  Rh210  1  0.00193723  0.20755117  0.19776966  1
  Rh  Rh211  1  0.20044566  0.39984405  0.39893148  1
  Rh  Rh212  1  0.79066443  0.78328107  0.40771428  1
  Rh  Rh213  1  0.60110106  0.20253865  0.20499827  1
  Rh  Rh214  1  0.60684302  0.39990163  0.20469818  1
  Rh  Rh215  1  -0.00143478  0.40896393  0.59331412  1
  Rh  Rh216  1  0.80650822  0.79750839  0.79889995  1
  Rh  Rh217  1  0.79774848  0.19389934  0.19575330  1
  Rh  Rh218  1  0.20148107  0.60336182  0.39930322  1
  Rh  Rh219  1  0.39598070  0.40506031  0.40164708  1
  Rh  Rh220  1  0.59433116  0.79813113  0.80487434  1
  Rh  Rh221  1  0.40279231  0.21506904  0.60257457  1
  Rh  Rh222  1  0.79550891  0.39772072  0.00750188  1
  Rh  Rh223  1  0.80829490  0.00914127  0.39184304  1
  Rh  Rh224  1  0.60104138  0.39947655  0.40087110  1
  Rh  Rh225  1  0.80103547  0.60187007  0.58972001  1
  Rh  Rh226  1  0.79685450  0.40031895  0.59686856  1
  Rh  Rh227  1  0.21060236  0.80029284  0.80386268  1
  Rh  Rh228  1  0.00042690  0.60014578  0.59245410  1
  Rh  Rh229  1  0.80550716  0.41213187  0.79618767  1
  Rh  Rh230  1  0.18786147  0.79056370  0.39576558  1
  Rh  Rh231  1  0.60668906  0.59542704  0.20566011  1
  Rh  Rh232  1  0.19641551  0.59503997  0.80175620  1
  Rh  Rh233  1  0.60757298  0.59920937  0.39727810  1
  Rh  Rh234  1  0.80238354  0.40647265  0.39915086  1
  Rh  Rh235  1  0.40712701  0.80160859  0.39934820  1
  Rh  Rh236  1  0.60112813  0.20085378  0.00152759  1
  Rh  Rh237  1  -0.00214610  0.40097322  0.40489271  1
  Rh  Rh238  1  0.39100972  0.58789670  0.00110837  1
  Rh  Rh239  1  0.41505518  0.00076193  0.80784847  1
  Rh  Rh240  1  0.19726744  0.79871016  0.20087338  1
  Rh  Rh241  1  0.20216175  0.00133017  0.19661218  1
  Rh  Rh242  1  -0.00020667  0.60112555  0.20054203  1
  Rh  Rh243  1  0.60110813  0.20081871  0.40302243  1
  Rh  Rh244  1  0.19856187  0.40123942  0.20791060  1
  Rh  Rh245  1  0.00267058  0.59427191  0.40526778  1
  Rh  Rh246  1  0.00126896  0.40481331  0.20279366  1
  Rh  Rh247  1  0.39055537  0.39485811  0.80272431  1
  Rh  Rh248  1  0.00527465  0.60153787  0.00190807  1
  Rh  Rh249  1  -0.00062443  0.79052763  0.60292540  1
