# generated using pymatgen
data_ZrScNbPdRh
_symmetry_space_group_name_H-M   'P 1'
_cell_length_a   16.55963595
_cell_length_b   16.55890514
_cell_length_c   16.56376382
_cell_angle_alpha   90.01691600
_cell_angle_beta   89.95526732
_cell_angle_gamma   90.01378076
_symmetry_Int_Tables_number   1
_chemical_formula_structural   ZrScNbPdRh
_chemical_formula_sum   'Zr50 Sc50 Nb50 Pd50 Rh50'
_cell_volume   4541.93870170
_cell_formula_units_Z   50
loop_
 _symmetry_equiv_pos_site_id
 _symmetry_equiv_pos_as_xyz
  1  'x, y, z'
loop_
 _atom_site_type_symbol
 _atom_site_label
 _atom_site_symmetry_multiplicity
 _atom_site_fract_x
 _atom_site_fract_y
 _atom_site_fract_z
 _atom_site_occupancy
  Zr  Zr0  1  0.09431683  0.69754757  0.49354058  1
  Zr  Zr1  1  0.49874227  0.70525661  0.09907672  1
  Zr  Zr2  1  0.29979762  0.29530574  0.70323159  1
  Zr  Zr3  1  0.09897858  0.49525880  0.49405936  1
  Zr  Zr4  1  0.29631198  0.29627114  0.90966428  1
  Zr  Zr5  1  0.89616747  0.09702388  0.49408489  1
  Zr  Zr6  1  0.90678975  0.69881596  0.90010281  1
  Zr  Zr7  1  0.69445653  0.49212853  0.30200120  1
  Zr  Zr8  1  0.69710794  0.70168143  0.10056075  1
  Zr  Zr9  1  0.30377611  0.50388997  0.71032199  1
  Zr  Zr10  1  0.10185249  0.29402134  0.30075409  1
  Zr  Zr11  1  0.90350571  0.10323335  0.29173091  1
  Zr  Zr12  1  0.49528930  0.90654417  0.48579077  1
  Zr  Zr13  1  0.29780450  0.90325928  0.50144321  1
  Zr  Zr14  1  0.30165300  0.69750354  0.70202821  1
  Zr  Zr15  1  0.70111423  0.10314328  0.30640397  1
  Zr  Zr16  1  0.70319522  0.49868222  0.89487198  1
  Zr  Zr17  1  0.49052277  0.29930015  0.69917829  1
  Zr  Zr18  1  0.30482613  0.29450478  0.50234200  1
  Zr  Zr19  1  0.70077093  0.30081703  0.49816487  1
  Zr  Zr20  1  0.49042504  0.29909546  0.09829084  1
  Zr  Zr21  1  0.30049364  0.91071929  0.90682501  1
  Zr  Zr22  1  0.69531787  0.11269874  0.49712455  1
  Zr  Zr23  1  0.48870801  0.90130331  0.10414458  1
  Zr  Zr24  1  0.49845591  0.10322889  0.70365416  1
  Zr  Zr25  1  0.49698782  0.50015467  0.89773192  1
  Zr  Zr26  1  0.69762029  0.70247773  0.68687273  1
  Zr  Zr27  1  0.09308115  0.49941574  0.10003126  1
  Zr  Zr28  1  0.10387320  0.69512955  0.30169336  1
  Zr  Zr29  1  0.69419850  0.90224019  0.30184400  1
  Zr  Zr30  1  0.88633814  0.70372682  0.49864262  1
  Zr  Zr31  1  0.08599454  0.09914469  0.09886555  1
  Zr  Zr32  1  0.49118435  0.09859300  0.89905816  1
  Zr  Zr33  1  0.70447438  0.49793914  0.10927500  1
  Zr  Zr34  1  0.89624942  0.70081178  0.69490404  1
  Zr  Zr35  1  0.69805900  0.30042671  0.30541326  1
  Zr  Zr36  1  0.10622794  0.89890146  0.49569951  1
  Zr  Zr37  1  0.49576391  0.70313650  0.90715025  1
  Zr  Zr38  1  0.69955036  0.49592514  0.70086025  1
  Zr  Zr39  1  0.91297839  0.29536522  0.10381077  1
  Zr  Zr40  1  0.29456380  0.09933853  0.50311068  1
  Zr  Zr41  1  0.90604473  0.49356845  0.50981633  1
  Zr  Zr42  1  0.68819175  0.89691801  0.09846855  1
  Zr  Zr43  1  0.30620281  0.69962088  0.10082073  1
  Zr  Zr44  1  0.90719801  0.90388244  0.89542720  1
  Zr  Zr45  1  0.69496146  0.10680386  0.09646743  1
  Zr  Zr46  1  0.50110319  0.29478578  0.50039392  1
  Zr  Zr47  1  0.49891645  0.10291776  0.49683545  1
  Zr  Zr48  1  0.70730981  0.69547845  0.30783117  1
  Zr  Zr49  1  0.10216032  0.50500238  0.90525608  1
  Sc  Sc50  1  0.49405159  0.10027207  0.09895707  1
  Sc  Sc51  1  0.89691523  0.49627003  0.28518064  1
  Sc  Sc52  1  0.70662528  0.88375991  0.49569722  1
  Sc  Sc53  1  0.09904218  0.69999897  0.70195092  1
  Sc  Sc54  1  0.10431767  0.10143570  0.70099782  1
  Sc  Sc55  1  0.30432293  0.50199155  0.90622178  1
  Sc  Sc56  1  0.50141796  0.90259093  0.70786718  1
  Sc  Sc57  1  0.31058518  0.50339243  0.29931928  1
  Sc  Sc58  1  0.30448348  0.90286187  0.30047160  1
  Sc  Sc59  1  0.91533751  0.91384131  0.09983568  1
  Sc  Sc60  1  0.50479547  0.69751737  0.50067119  1
  Sc  Sc61  1  0.09139136  0.29526547  0.69999967  1
  Sc  Sc62  1  0.90097787  0.30132037  0.50124673  1
  Sc  Sc63  1  0.70586219  0.29979951  0.88798995  1
  Sc  Sc64  1  0.68859644  0.70075214  0.89921975  1
  Sc  Sc65  1  0.10565443  0.91290516  0.90405497  1
  Sc  Sc66  1  0.70813617  0.29312734  0.69902338  1
  Sc  Sc67  1  0.49024061  0.29655048  0.89929343  1
  Sc  Sc68  1  0.29841579  0.68765886  0.90794585  1
  Sc  Sc69  1  0.90677297  0.09922260  0.89549087  1
  Sc  Sc70  1  0.90636148  0.90877855  0.70320283  1
  Sc  Sc71  1  0.50166401  0.30583455  0.29544109  1
  Sc  Sc72  1  0.90316038  0.29860666  0.88696071  1
  Sc  Sc73  1  0.30713908  0.49811538  0.49203751  1
  Sc  Sc74  1  0.49767544  0.50297900  0.70179600  1
  Sc  Sc75  1  0.69656095  0.50145911  0.49398295  1
  Sc  Sc76  1  0.89801356  0.49175502  0.70105480  1
  Sc  Sc77  1  0.49128661  0.49708817  0.10279826  1
  Sc  Sc78  1  0.29743117  0.10345069  0.30118651  1
  Sc  Sc79  1  0.10523986  0.29270271  0.09481663  1
  Sc  Sc80  1  0.49273902  0.70216154  0.30373671  1
  Sc  Sc81  1  0.50283249  0.50522995  0.49283379  1
  Sc  Sc82  1  0.68933375  0.90051685  0.89461689  1
  Sc  Sc83  1  0.69400525  0.89446363  0.70368651  1
  Sc  Sc84  1  0.30562375  0.70650223  0.50080700  1
  Sc  Sc85  1  0.90091079  0.69419137  0.30338262  1
  Sc  Sc86  1  0.30318269  0.29418925  0.29708155  1
  Sc  Sc87  1  0.49728613  0.90552255  0.90404498  1
  Sc  Sc88  1  0.29964433  0.69262301  0.29510059  1
  Sc  Sc89  1  0.50266278  0.69927065  0.69575116  1
  Sc  Sc90  1  0.69545157  0.10152588  0.88779786  1
  Sc  Sc91  1  0.10039204  0.29264538  0.90170380  1
  Sc  Sc92  1  0.11367075  0.69157844  0.10206968  1
  Sc  Sc93  1  0.90298949  0.10345162  0.70330027  1
  Sc  Sc94  1  0.29860192  0.90826239  0.69595985  1
  Sc  Sc95  1  0.09603761  0.29918423  0.49472798  1
  Sc  Sc96  1  0.09895645  0.90616060  0.70396344  1
  Sc  Sc97  1  0.29595842  0.09998502  0.90044293  1
  Sc  Sc98  1  0.89599310  0.90566860  0.30764181  1
  Sc  Sc99  1  0.68809893  0.29757086  0.11164765  1
  Nb  Nb100  1  0.10802175  0.10196802  0.90305502  1
  Nb  Nb101  1  0.10522618  0.09843068  0.30132936  1
  Nb  Nb102  1  0.69829294  0.09799055  0.69559611  1
  Nb  Nb103  1  0.30310054  0.29878683  0.10483795  1
  Nb  Nb104  1  0.29546192  0.10660364  0.10507652  1
  Nb  Nb105  1  0.11228665  0.49905265  0.29869896  1
  Nb  Nb106  1  0.10354696  0.69685874  0.90102033  1
  Nb  Nb107  1  0.49923198  0.91375751  0.29919622  1
  Nb  Nb108  1  0.90131956  0.50311945  0.09420842  1
  Nb  Nb109  1  0.89819537  0.30430124  0.69544259  1
  Nb  Nb110  1  0.89914504  0.10130283  0.09745485  1
  Nb  Nb111  1  0.50233965  0.07718505  0.30920207  1
  Nb  Nb112  1  0.10345042  0.90170690  0.10090294  1
  Nb  Nb113  1  0.29995649  0.10290583  0.70591721  1
  Nb  Nb114  1  0.50303475  0.50438939  0.30003174  1
  Nb  Nb115  1  0.69998400  0.69732898  0.50015380  1
  Nb  Nb116  1  0.90407586  0.69800264  0.10180331  1
  Nb  Nb117  1  0.10080667  0.49905063  0.69745195  1
  Nb  Nb118  1  0.30136805  0.49555710  0.10241394  1
  Nb  Nb119  1  0.29467983  0.90597596  0.09841712  1
  Nb  Nb120  1  0.10440087  0.09797511  0.49002393  1
  Nb  Nb121  1  0.90116433  0.49987133  0.90571813  1
  Nb  Nb122  1  0.89892587  0.90153934  0.50165421  1
  Nb  Nb123  1  0.90014082  0.29585168  0.30010419  1
  Nb  Nb124  1  0.10019461  0.90050417  0.29804074  1
  Nb  Nb125  1  0.39144302  0.79958419  0.80390861  1
  Nb  Nb126  1  0.79363094  0.00138395  0.59823083  1
  Nb  Nb127  1  0.19783486  0.59368860  0.59963323  1
  Nb  Nb128  1  0.20034009  0.40410597  0.60408251  1
  Nb  Nb129  1  0.20342028  0.79812371  0.80603553  1
  Nb  Nb130  1  0.80325704  0.39910028  0.00299298  1
  Nb  Nb131  1  0.80823510  0.80292989  0.00107990  1
  Nb  Nb132  1  0.00160049  0.59482690  0.80317941  1
  Nb  Nb133  1  0.79963013  0.00205996  0.00277727  1
  Nb  Nb134  1  0.19740030  0.40285557  0.79708196  1
  Nb  Nb135  1  0.80285032  0.20003938  0.00139291  1
  Nb  Nb136  1  0.60528038  0.00408095  0.59695582  1
  Nb  Nb137  1  0.59865914  0.59949617  0.20480135  1
  Nb  Nb138  1  0.00691526  0.79791725  0.00569419  1
  Nb  Nb139  1  0.19385527  -0.00068114  0.19698251  1
  Nb  Nb140  1  0.00421288  0.80154739  0.19812962  1
  Nb  Nb141  1  -0.00258938  0.80280538  0.59214968  1
  Nb  Nb142  1  0.80280667  0.79779968  0.80264242  1
  Nb  Nb143  1  0.60376826  0.40044195  -0.00213579  1
  Nb  Nb144  1  0.79736593  0.00148768  0.19223502  1
  Nb  Nb145  1  0.80615827  0.59901366  0.00302665  1
  Nb  Nb146  1  0.59873463  0.39572639  0.60046233  1
  Nb  Nb147  1  0.00867061  0.00117733  0.40041288  1
  Nb  Nb148  1  0.20327230  0.40146948  0.19795215  1
  Nb  Nb149  1  0.80750114  0.80440142  0.19284671  1
  Pd  Pd150  1  0.59034811  0.81077981  0.59225447  1
  Pd  Pd151  1  -0.00122587  0.00012913  0.59443133  1
  Pd  Pd152  1  0.39636598  0.80429982  0.20678445  1
  Pd  Pd153  1  0.20904232  0.39439032  0.39607756  1
  Pd  Pd154  1  0.00359915  0.60478784  0.60462074  1
  Pd  Pd155  1  0.80345550  0.60548057  0.80374352  1
  Pd  Pd156  1  0.79873903  0.20185422  0.19572184  1
  Pd  Pd157  1  0.40941469  0.18958653  0.20935501  1
  Pd  Pd158  1  0.39673368  0.80006503  0.39544444  1
  Pd  Pd159  1  -0.00689052  0.80597060  0.39703962  1
  Pd  Pd160  1  0.40204344  0.40934721  0.59766659  1
  Pd  Pd161  1  0.59542194  0.79652439  0.39741450  1
  Pd  Pd162  1  0.59626064  0.60589878  0.79508947  1
  Pd  Pd163  1  0.40290735  0.19541859  0.39097914  1
  Pd  Pd164  1  0.40650946  0.00189326  0.60322088  1
  Pd  Pd165  1  -0.00305199  0.39066844  -0.00583921  1
  Pd  Pd166  1  0.59862832  0.20541704  0.79880133  1
  Pd  Pd167  1  0.20003765  0.40177069  0.00245184  1
  Pd  Pd168  1  0.00427678  0.40435363  0.80054821  1
  Pd  Pd169  1  0.00261951  0.19644754  0.79987404  1
  Pd  Pd170  1  0.79465955  -0.00381165  0.79818183  1
  Pd  Pd171  1  0.20951613  0.79708314  0.39273575  1
  Pd  Pd172  1  0.58609922  0.19099381  0.20927369  1
  Pd  Pd173  1  0.60548172  0.21106358  -0.01104022  1
  Pd  Pd174  1  0.39741702  0.59647696  0.59458821  1
  Pd  Pd175  1  0.21032733  0.60181599  0.40715992  1
  Pd  Pd176  1  0.60181179  0.00727897  0.19490569  1
  Pd  Pd177  1  0.80461846  0.38618910  0.19400164  1
  Pd  Pd178  1  -0.00627881  0.40374775  0.38843370  1
  Pd  Pd179  1  -0.00235853  0.19508353  0.40060068  1
  Pd  Pd180  1  0.00649420  0.79659946  0.79972610  1
  Pd  Pd181  1  0.19254680  0.79477434  0.60785446  1
  Pd  Pd182  1  0.60234812  0.58922240  0.00892018  1
  Pd  Pd183  1  0.80913137  0.40241218  0.40022029  1
  Pd  Pd184  1  0.80671989  0.58584824  0.40236310  1
  Pd  Pd185  1  0.19178458  0.20547163  0.60010416  1
  Pd  Pd186  1  0.20075151  0.80454922  0.20330262  1
  Pd  Pd187  1  0.00911717  0.39779864  0.20537234  1
  Pd  Pd188  1  0.19559962  0.00402209  0.60526820  1
  Pd  Pd189  1  0.00042630  0.19772974  0.59518356  1
  Pd  Pd190  1  0.59588006  0.39156741  0.79790855  1
  Pd  Pd191  1  0.40436107  0.39900856  0.39424337  1
  Pd  Pd192  1  0.19900338  0.79844136  -0.00505722  1
  Pd  Pd193  1  -0.00758953  0.58688115  0.39172004  1
  Pd  Pd194  1  0.00313109  0.60335156  0.20404556  1
  Pd  Pd195  1  0.80742590  0.19649757  0.60279760  1
  Pd  Pd196  1  0.79526963  0.58985528  0.59598604  1
  Pd  Pd197  1  0.59931229  0.00180289  -0.00399465  1
  Pd  Pd198  1  0.59862694  0.79293334  0.21355954  1
  Pd  Pd199  1  0.40829628  0.80675345  0.60651892  1
  Rh  Rh200  1  0.80719100  0.20806094  0.39815641  1
  Rh  Rh201  1  0.59547079  0.80793173  -0.00499794  1
  Rh  Rh202  1  0.00595429  0.39171659  0.60154690  1
  Rh  Rh203  1  0.20086018  0.01241342  0.01092246  1
  Rh  Rh204  1  0.19491248  0.19984079  0.19619831  1
  Rh  Rh205  1  0.39931506  0.59462301  0.00645573  1
  Rh  Rh206  1  0.79878869  -0.00050652  0.40191059  1
  Rh  Rh207  1  0.61275420  -0.00464923  0.41261784  1
  Rh  Rh208  1  0.20454066  0.59525527  0.00902063  1
  Rh  Rh209  1  0.39490522  0.00674789  0.00831124  1
  Rh  Rh210  1  0.58867326  0.20260765  0.38855215  1
  Rh  Rh211  1  0.40074778  0.60495273  0.40128211  1
  Rh  Rh212  1  0.20405087  0.58880010  0.19711521  1
  Rh  Rh213  1  0.80544369  0.19703942  0.79891428  1
  Rh  Rh214  1  0.39496512  -0.00287407  0.79813089  1
  Rh  Rh215  1  0.39147892  0.19468306  0.00228024  1
  Rh  Rh216  1  0.20064383  -0.00045305  0.79720148  1
  Rh  Rh217  1  0.59078791  0.40788097  0.19497073  1
  Rh  Rh218  1  0.59692413  0.00322202  0.79431399  1
  Rh  Rh219  1  0.38936262  0.00386717  0.19706454  1
  Rh  Rh220  1  0.39242212  0.19726867  0.80585209  1
  Rh  Rh221  1  0.00106521  0.60674783  -0.00189195  1
  Rh  Rh222  1  0.20040021  -0.00101117  0.39220090  1
  Rh  Rh223  1  0.00634431  0.20171609  0.20390880  1
  Rh  Rh224  1  0.80704069  0.39705865  0.79948653  1
  Rh  Rh225  1  0.39296617  0.80486238  -0.00266227  1
  Rh  Rh226  1  0.39026655  0.39694701  0.80838975  1
  Rh  Rh227  1  0.60452944  0.59158202  0.59810096  1
  Rh  Rh228  1  0.59290566  0.79541729  0.80405637  1
  Rh  Rh229  1  0.20092229  0.19472910  0.00618013  1
  Rh  Rh230  1  0.80821748  0.81430980  0.61219761  1
  Rh  Rh231  1  0.59274388  0.39712797  0.40698666  1
  Rh  Rh232  1  0.59882461  0.60563261  0.39483110  1
  Rh  Rh233  1  0.00111808  -0.00366046  0.21051932  1
  Rh  Rh234  1  0.40664407  0.59933383  0.19772785  1
  Rh  Rh235  1  0.20376951  0.20368981  0.40329818  1
  Rh  Rh236  1  0.40865101  0.60954580  0.80474049  1
  Rh  Rh237  1  0.39439661  0.40077520  0.20377485  1
  Rh  Rh238  1  0.79638084  0.60793783  0.19545504  1
  Rh  Rh239  1  0.79214763  0.40009116  0.59999702  1
  Rh  Rh240  1  0.80397325  0.80086696  0.39134619  1
  Rh  Rh241  1  0.01281454  0.01085703  0.80379812  1
  Rh  Rh242  1  0.59671298  0.20367519  0.60863969  1
  Rh  Rh243  1  -0.00500692  0.19870572  -0.00919000  1
  Rh  Rh244  1  0.00076496  0.00108903  -0.00789405  1
  Rh  Rh245  1  0.19965413  0.20299593  0.80184833  1
  Rh  Rh246  1  0.39609432  0.19009286  0.60140920  1
  Rh  Rh247  1  0.38540071  0.00409791  0.40046889  1
  Rh  Rh248  1  0.40382736  0.39931439  -0.00068511  1
  Rh  Rh249  1  0.19200717  0.60017301  0.79559462  1
