# generated using pymatgen
data_ZrScNbPdRh
_symmetry_space_group_name_H-M   'P 1'
_cell_length_a   16.55859829
_cell_length_b   16.56139030
_cell_length_c   16.55916956
_cell_angle_alpha   89.98690429
_cell_angle_beta   89.97647618
_cell_angle_gamma   89.99383723
_symmetry_Int_Tables_number   1
_chemical_formula_structural   ZrScNbPdRh
_chemical_formula_sum   'Zr50 Sc50 Nb50 Pd50 Rh50'
_cell_volume   4541.07699377
_cell_formula_units_Z   50
loop_
 _symmetry_equiv_pos_site_id
 _symmetry_equiv_pos_as_xyz
  1  'x, y, z'
loop_
 _atom_site_type_symbol
 _atom_site_label
 _atom_site_symmetry_multiplicity
 _atom_site_fract_x
 _atom_site_fract_y
 _atom_site_fract_z
 _atom_site_occupancy
  Zr  Zr0  1  0.69920332  0.10499446  0.70089478  1
  Zr  Zr1  1  0.10608967  0.70435282  0.09360760  1
  Zr  Zr2  1  0.89376716  0.29339894  0.49292195  1
  Zr  Zr3  1  0.50760904  0.49108919  0.10477891  1
  Zr  Zr4  1  0.68719069  0.09618059  0.29831301  1
  Zr  Zr5  1  0.49898279  0.50380118  0.88866214  1
  Zr  Zr6  1  0.10598526  0.09476524  0.09660232  1
  Zr  Zr7  1  0.90762435  0.49946166  0.70266956  1
  Zr  Zr8  1  0.91084030  0.90816972  0.70544179  1
  Zr  Zr9  1  0.49978726  0.70619041  0.10252118  1
  Zr  Zr10  1  0.09503178  0.30207533  0.70977192  1
  Zr  Zr11  1  0.29575637  0.69774878  0.89692239  1
  Zr  Zr12  1  0.49943824  0.09895717  0.49648108  1
  Zr  Zr13  1  0.89037468  0.71016249  0.48860496  1
  Zr  Zr14  1  0.89511865  0.10090837  0.91247247  1
  Zr  Zr15  1  0.30149500  0.09661665  0.90077963  1
  Zr  Zr16  1  0.49859224  0.10195601  0.69572908  1
  Zr  Zr17  1  0.29654773  0.29343542  0.49497667  1
  Zr  Zr18  1  0.89054982  0.30389649  0.70347541  1
  Zr  Zr19  1  0.89790348  0.50280190  0.28719630  1
  Zr  Zr20  1  0.10170236  0.29805969  0.09971670  1
  Zr  Zr21  1  0.09288443  0.50371631  0.69377993  1
  Zr  Zr22  1  0.29492528  0.49790096  0.09645285  1
  Zr  Zr23  1  0.49905330  0.30400829  0.70175702  1
  Zr  Zr24  1  0.10402540  0.70188022  0.90007115  1
  Zr  Zr25  1  0.29789386  0.70785225  0.30460859  1
  Zr  Zr26  1  0.69594702  0.49597738  0.70249863  1
  Zr  Zr27  1  0.90809996  0.89347781  0.29940638  1
  Zr  Zr28  1  0.10486379  0.90471773  0.30401442  1
  Zr  Zr29  1  0.09447157  0.08600851  0.70425000  1
  Zr  Zr30  1  0.70146629  0.10007821  0.49455282  1
  Zr  Zr31  1  0.89845584  0.49868831  0.50200072  1
  Zr  Zr32  1  0.90224405  0.90553196  0.49275248  1
  Zr  Zr33  1  0.50496055  0.29839511  0.89895710  1
  Zr  Zr34  1  0.10180050  0.09733178  0.29765485  1
  Zr  Zr35  1  0.89580953  0.50742870  0.10033820  1
  Zr  Zr36  1  0.29373959  0.29176616  0.89859595  1
  Zr  Zr37  1  0.49988082  0.49774242  0.69928324  1
  Zr  Zr38  1  0.09787244  0.29433169  0.29587778  1
  Zr  Zr39  1  0.70717343  0.90471553  0.10408269  1
  Zr  Zr40  1  0.50183841  0.89692297  0.09953058  1
  Zr  Zr41  1  0.70570088  0.89426554  0.70380195  1
  Zr  Zr42  1  0.70503689  0.69829670  0.31451350  1
  Zr  Zr43  1  0.30514764  0.90351056  0.30788058  1
  Zr  Zr44  1  0.89969736  0.70159187  0.10892417  1
  Zr  Zr45  1  0.50809727  0.69742664  0.49819127  1
  Zr  Zr46  1  0.70624313  0.29614547  0.89679312  1
  Zr  Zr47  1  0.90252938  0.09204845  0.31071772  1
  Zr  Zr48  1  0.09891606  0.50708034  0.88835538  1
  Zr  Zr49  1  0.70529447  0.50197087  0.09879615  1
  Sc  Sc50  1  0.09254814  0.28823249  0.49362045  1
  Sc  Sc51  1  0.90389430  0.30812699  0.08917503  1
  Sc  Sc52  1  0.30265199  0.49558480  0.30223980  1
  Sc  Sc53  1  0.29925864  0.90637425  0.09732807  1
  Sc  Sc54  1  0.09924036  0.69594646  0.70561319  1
  Sc  Sc55  1  0.50046892  0.49922129  0.50629730  1
  Sc  Sc56  1  0.09776033  0.09278961  0.49367778  1
  Sc  Sc57  1  0.49088447  0.29743396  0.50021068  1
  Sc  Sc58  1  0.29053389  0.50290606  0.89756723  1
  Sc  Sc59  1  0.70177474  0.49566730  0.90534136  1
  Sc  Sc60  1  0.10976624  0.90076912  0.70009890  1
  Sc  Sc61  1  0.10325531  0.30279609  0.90504553  1
  Sc  Sc62  1  0.30244709  0.29282048  0.30331522  1
  Sc  Sc63  1  0.69782838  0.29929511  0.70334815  1
  Sc  Sc64  1  0.49363483  0.89867753  0.69613005  1
  Sc  Sc65  1  0.70231614  0.88905103  0.90052192  1
  Sc  Sc66  1  0.50298903  0.48842877  0.29810408  1
  Sc  Sc67  1  0.29837215  0.09347497  0.70789825  1
  Sc  Sc68  1  0.50157903  0.29644785  0.29785530  1
  Sc  Sc69  1  0.30043865  0.09690861  0.30314162  1
  Sc  Sc70  1  0.51461188  0.08749640  0.09716132  1
  Sc  Sc71  1  0.69532050  0.50579892  0.48937613  1
  Sc  Sc72  1  0.70070385  0.70830013  0.70732095  1
  Sc  Sc73  1  0.70242725  0.49346558  0.29685736  1
  Sc  Sc74  1  0.70207700  0.70344582  0.89792476  1
  Sc  Sc75  1  0.10939386  0.69944701  0.49691880  1
  Sc  Sc76  1  0.29002384  0.29945438  0.09883730  1
  Sc  Sc77  1  0.70301959  0.70038387  0.10955443  1
  Sc  Sc78  1  0.30410294  0.09930725  0.49823339  1
  Sc  Sc79  1  0.30400342  0.29465768  0.70642114  1
  Sc  Sc80  1  0.30593318  0.90049441  0.89435740  1
  Sc  Sc81  1  0.30537341  0.51161964  0.70124969  1
  Sc  Sc82  1  0.49642590  0.69516681  0.70821687  1
  Sc  Sc83  1  0.50745214  0.72158575  0.29674307  1
  Sc  Sc84  1  0.90188661  0.70639100  0.90391194  1
  Sc  Sc85  1  0.89347637  0.29929032  0.30104323  1
  Sc  Sc86  1  0.29817086  0.51171105  0.50178457  1
  Sc  Sc87  1  0.90154798  0.70758238  0.70104097  1
  Sc  Sc88  1  0.10132794  0.90315865  0.10150674  1
  Sc  Sc89  1  0.69472204  0.90184471  0.30305983  1
  Sc  Sc90  1  0.09785801  0.89857100  0.90067578  1
  Sc  Sc91  1  0.30015730  0.71200884  0.50551199  1
  Sc  Sc92  1  0.09877820  0.71190939  0.29876362  1
  Sc  Sc93  1  0.70672573  0.89930374  0.49739295  1
  Sc  Sc94  1  0.68672007  0.30288330  0.09234307  1
  Sc  Sc95  1  0.89409055  0.49457163  0.90507597  1
  Sc  Sc96  1  0.09366656  0.49096629  0.10548985  1
  Sc  Sc97  1  0.70513906  0.30106591  0.49430016  1
  Sc  Sc98  1  0.69916715  0.29806032  0.30171411  1
  Sc  Sc99  1  0.49052245  0.90654324  0.50243272  1
  Nb  Nb100  1  0.49849023  0.09138817  0.30080546  1
  Nb  Nb101  1  0.49779148  0.09142633  0.89984580  1
  Nb  Nb102  1  0.50373617  0.89693495  0.90468806  1
  Nb  Nb103  1  0.89920198  0.30035095  0.89476914  1
  Nb  Nb104  1  0.09482771  0.50181111  0.29749413  1
  Nb  Nb105  1  0.10531559  0.89914637  0.50611473  1
  Nb  Nb106  1  0.29805412  0.69312719  0.09649393  1
  Nb  Nb107  1  0.10478806  0.10315279  0.89882121  1
  Nb  Nb108  1  0.90040313  0.90616332  0.09412878  1
  Nb  Nb109  1  0.90378489  0.69745726  0.30163279  1
  Nb  Nb110  1  0.69887164  0.10012455  0.90389858  1
  Nb  Nb111  1  0.50021000  0.70739639  0.90403694  1
  Nb  Nb112  1  0.71136306  0.09577301  0.09528717  1
  Nb  Nb113  1  0.29481135  0.89869305  0.51595396  1
  Nb  Nb114  1  0.90045734  0.09855927  0.70406502  1
  Nb  Nb115  1  0.50020489  0.91512329  0.29653621  1
  Nb  Nb116  1  0.30117595  0.09781539  0.09201087  1
  Nb  Nb117  1  0.70362953  0.70365997  0.50216930  1
  Nb  Nb118  1  0.49613729  0.30029574  0.09664842  1
  Nb  Nb119  1  0.89964266  0.09993927  0.50095301  1
  Nb  Nb120  1  0.29915199  0.71465528  0.70221205  1
  Nb  Nb121  1  0.30054232  0.89151349  0.68430227  1
  Nb  Nb122  1  0.90028812  0.89965465  0.90451120  1
  Nb  Nb123  1  0.09760793  0.50177006  0.49981118  1
  Nb  Nb124  1  0.89756631  0.08692891  0.10196087  1
  Nb  Nb125  1  0.80273806  0.59791145  0.79546608  1
  Nb  Nb126  1  0.00072665  0.59848692  0.39461877  1
  Nb  Nb127  1  0.40515304  0.60042229  0.00196713  1
  Nb  Nb128  1  0.80089117  0.18902106  0.19164044  1
  Nb  Nb129  1  0.40324591  0.60714886  0.39262968  1
  Nb  Nb130  1  0.40533941  0.19681772  0.00289802  1
  Nb  Nb131  1  0.39689509  0.60503457  0.19930405  1
  Nb  Nb132  1  0.80643077  0.00523258  0.60514697  1
  Nb  Nb133  1  0.00248833  0.80620462  0.59321207  1
  Nb  Nb134  1  0.19004048  0.40483103  0.40381029  1
  Nb  Nb135  1  0.40534301  0.19234446  0.18956911  1
  Nb  Nb136  1  0.40109976  0.39767622  -0.00170789  1
  Nb  Nb137  1  0.60312669  0.79651151  0.59744903  1
  Nb  Nb138  1  -0.00962130  0.19019485  0.19251162  1
  Nb  Nb139  1  0.79661880  0.60533234  0.60059957  1
  Nb  Nb140  1  0.19112029  0.19923889  0.60502995  1
  Nb  Nb141  1  0.59335185  0.60371170  -0.00021979  1
  Nb  Nb142  1  0.00278221  0.40694858  0.39660591  1
  Nb  Nb143  1  0.00011355  0.60324049  0.00364716  1
  Nb  Nb144  1  0.79894580  0.00507139  0.80423037  1
  Nb  Nb145  1  -0.00567498  0.19198843  0.60651862  1
  Nb  Nb146  1  0.19446956  0.39774421  0.59490811  1
  Nb  Nb147  1  0.59900516  0.00053800  0.80674730  1
  Nb  Nb148  1  -0.00578544  0.19595298  0.80451081  1
  Nb  Nb149  1  0.20171646  0.60146654  0.20126453  1
  Pd  Pd150  1  0.60029156  0.19802179  0.19317386  1
  Pd  Pd151  1  0.00402445  0.38649681  0.59017702  1
  Pd  Pd152  1  -0.00850994  0.61700064  0.58761640  1
  Pd  Pd153  1  0.60756846  -0.01015688  0.60346287  1
  Pd  Pd154  1  0.38736121  0.40148546  0.59746163  1
  Pd  Pd155  1  0.00361975  0.80477846  0.19423109  1
  Pd  Pd156  1  0.59572288  0.19476546  0.80153718  1
  Pd  Pd157  1  0.59638172  0.39590046  0.40338602  1
  Pd  Pd158  1  0.20652777  0.80319687  0.19729397  1
  Pd  Pd159  1  0.59786625  0.60140037  0.20468890  1
  Pd  Pd160  1  0.40383605  -0.00752230  0.79540035  1
  Pd  Pd161  1  0.80073007  -0.00104495  0.21248247  1
  Pd  Pd162  1  0.60384509  0.39377404  0.59174865  1
  Pd  Pd163  1  0.60877979  -0.00756124  -0.00540784  1
  Pd  Pd164  1  0.59420855  0.20518176  0.40288360  1
  Pd  Pd165  1  0.40285772  0.80253009  0.79964828  1
  Pd  Pd166  1  0.79787162  0.80139155  0.20796806  1
  Pd  Pd167  1  0.39453457  0.40767093  0.40778162  1
  Pd  Pd168  1  0.59782687  0.81303367  0.40732156  1
  Pd  Pd169  1  0.39085888  0.40095914  0.80525722  1
  Pd  Pd170  1  0.79061820  0.40662759  0.59588401  1
  Pd  Pd171  1  0.60814311  0.60492655  0.80564526  1
  Pd  Pd172  1  0.80086627  0.19757410  0.60026674  1
  Pd  Pd173  1  0.00039090  0.19791977  0.00080539  1
  Pd  Pd174  1  0.61059701  0.79453313  0.00571762  1
  Pd  Pd175  1  0.00434175  0.80051590  0.79629620  1
  Pd  Pd176  1  0.00728201  -0.00369083  -0.00205044  1
  Pd  Pd177  1  0.39314568  0.80334450  0.19758544  1
  Pd  Pd178  1  0.20712167  0.81187823  -0.00398532  1
  Pd  Pd179  1  0.39784365  0.00532584  0.19317975  1
  Pd  Pd180  1  0.60063536  0.20998409  0.59197685  1
  Pd  Pd181  1  0.60861170  0.60710767  0.60683422  1
  Pd  Pd182  1  0.20663578  0.40596150  0.78876923  1
  Pd  Pd183  1  0.40429907  0.80410505  0.40751376  1
  Pd  Pd184  1  0.39777242  0.60932200  0.59571949  1
  Pd  Pd185  1  0.79952671  0.79633782  0.00292491  1
  Pd  Pd186  1  0.80075652  0.20816240  0.00848066  1
  Pd  Pd187  1  0.20371647  0.60272026  0.60487802  1
  Pd  Pd188  1  0.59140356  0.59514763  0.38878823  1
  Pd  Pd189  1  0.20681706  0.19228485  0.19878885  1
  Pd  Pd190  1  0.20096657  0.59776333  0.39192021  1
  Pd  Pd191  1  0.79608084  0.38464225  0.19186549  1
  Pd  Pd192  1  0.39413047  0.39189590  0.19680397  1
  Pd  Pd193  1  0.00438784  0.40856515  -0.00650033  1
  Pd  Pd194  1  0.20430159  -0.00948363  0.80283244  1
  Pd  Pd195  1  0.20349035  0.40244900  0.20999208  1
  Pd  Pd196  1  0.59727533  0.19374555  0.00193878  1
  Pd  Pd197  1  0.38996282  0.19582681  0.60502428  1
  Pd  Pd198  1  0.39132131  0.79935514  0.00014927  1
  Pd  Pd199  1  0.20618123  -0.00056032  0.40832326  1
  Rh  Rh200  1  0.80532423  0.59374460  0.40089558  1
  Rh  Rh201  1  0.79631675  -0.00021808  0.40066054  1
  Rh  Rh202  1  -0.00531139  0.38494668  0.20579516  1
  Rh  Rh203  1  0.79572165  -0.00974598  -0.00874333  1
  Rh  Rh204  1  0.80459217  0.19511672  0.80528515  1
  Rh  Rh205  1  0.40594013  0.19362460  0.38681999  1
  Rh  Rh206  1  0.19861422  -0.00212643  -0.00757144  1
  Rh  Rh207  1  0.20401781  0.60402577  0.78851810  1
  Rh  Rh208  1  -0.00577120  0.00630191  0.81977387  1
  Rh  Rh209  1  0.60333557  -0.00339345  0.19518815  1
  Rh  Rh210  1  0.01231511  0.61319169  0.19739880  1
  Rh  Rh211  1  0.79518264  0.19166864  0.38902126  1
  Rh  Rh212  1  0.79758692  0.40669082  0.80242247  1
  Rh  Rh213  1  0.60586360  0.39091416  0.20317943  1
  Rh  Rh214  1  0.39573954  0.60777488  0.80454449  1
  Rh  Rh215  1  0.79138211  0.60598852  0.20822543  1
  Rh  Rh216  1  0.40245508  0.00060341  0.00089041  1
  Rh  Rh217  1  0.20035074  0.80394573  0.79834298  1
  Rh  Rh218  1  0.20046438  0.80935622  0.40438824  1
  Rh  Rh219  1  -0.00463793  0.80105636  0.00636529  1
  Rh  Rh220  1  0.19901320  0.40294229  -0.00521851  1
  Rh  Rh221  1  0.20684581  0.00038588  0.20001969  1
  Rh  Rh222  1  0.58738192  0.80843756  0.79494417  1
  Rh  Rh223  1  0.40738438  0.19573241  0.80532951  1
  Rh  Rh224  1  0.00088380  -0.00091979  0.19876687  1
  Rh  Rh225  1  0.18945344  0.58946059  0.00766970  1
  Rh  Rh226  1  0.59506742  -0.00405059  0.40585811  1
  Rh  Rh227  1  -0.01140320  0.60276994  0.81249253  1
  Rh  Rh228  1  0.20377807  0.19648266  0.00072647  1
  Rh  Rh229  1  0.79711711  0.39340596  0.00108075  1
  Rh  Rh230  1  0.20521236  0.00922162  0.59913090  1
  Rh  Rh231  1  -0.00289979  0.39542862  0.80807505  1
  Rh  Rh232  1  0.79790057  0.80872805  0.39007272  1
  Rh  Rh233  1  0.59570008  0.40725037  -0.00670442  1
  Rh  Rh234  1  -0.00385321  0.20101096  0.39579387  1
  Rh  Rh235  1  0.18935789  0.79257020  0.60533006  1
  Rh  Rh236  1  0.60472768  0.80985827  0.20095643  1
  Rh  Rh237  1  -0.00346701  -0.00082000  0.59201503  1
  Rh  Rh238  1  0.41144871  0.79393459  0.59785737  1
  Rh  Rh239  1  0.79980975  0.60428804  -0.00686101  1
  Rh  Rh240  1  0.80426418  0.40540971  0.39700841  1
  Rh  Rh241  1  0.60423375  0.39671580  0.80171681  1
  Rh  Rh242  1  0.39339810  0.00564321  0.60220494  1
  Rh  Rh243  1  0.00952655  0.79544076  0.40701469  1
  Rh  Rh244  1  0.81268927  0.80157909  0.80416345  1
  Rh  Rh245  1  0.80300271  0.80356173  0.60115545  1
  Rh  Rh246  1  0.19783378  0.19874699  0.40462060  1
  Rh  Rh247  1  0.18957715  0.19489582  0.79500421  1
  Rh  Rh248  1  0.39637540  -0.00262890  0.40660441  1
  Rh  Rh249  1  0.00658981  -0.00373980  0.40305195  1
