# generated using pymatgen
data_ZrScNbPdRh
_symmetry_space_group_name_H-M   'P 1'
_cell_length_a   16.55869764
_cell_length_b   16.56066974
_cell_length_c   16.56051063
_cell_angle_alpha   90.01991020
_cell_angle_beta   89.97180498
_cell_angle_gamma   89.98292367
_symmetry_Int_Tables_number   1
_chemical_formula_structural   ZrScNbPdRh
_chemical_formula_sum   'Zr50 Sc50 Nb50 Pd50 Rh50'
_cell_volume   4541.27391515
_cell_formula_units_Z   50
loop_
 _symmetry_equiv_pos_site_id
 _symmetry_equiv_pos_as_xyz
  1  'x, y, z'
loop_
 _atom_site_type_symbol
 _atom_site_label
 _atom_site_symmetry_multiplicity
 _atom_site_fract_x
 _atom_site_fract_y
 _atom_site_fract_z
 _atom_site_occupancy
  Zr  Zr0  1  0.30218619  0.49741191  0.29732140  1
  Zr  Zr1  1  0.70207251  0.90706937  0.49372332  1
  Zr  Zr2  1  0.70094086  0.90580483  0.89640734  1
  Zr  Zr3  1  0.50074163  0.11005092  0.89895031  1
  Zr  Zr4  1  0.90483387  0.49892879  0.69750929  1
  Zr  Zr5  1  0.90080876  0.89731370  0.10577945  1
  Zr  Zr6  1  0.49967866  0.09668875  0.10676414  1
  Zr  Zr7  1  0.88261159  0.09331897  0.89662924  1
  Zr  Zr8  1  0.09898430  0.10539224  0.90241431  1
  Zr  Zr9  1  0.31164512  0.29727505  0.89632792  1
  Zr  Zr10  1  0.49489105  0.89983902  0.50297187  1
  Zr  Zr11  1  0.89697093  0.89654644  0.89206228  1
  Zr  Zr12  1  0.68572314  0.70430539  0.70332161  1
  Zr  Zr13  1  0.09387604  0.30572937  0.09821985  1
  Zr  Zr14  1  0.09949492  0.90538453  0.11165818  1
  Zr  Zr15  1  0.29983856  0.09480607  0.10686623  1
  Zr  Zr16  1  0.30399306  0.69993222  0.10156018  1
  Zr  Zr17  1  0.10013604  0.89563568  0.90126135  1
  Zr  Zr18  1  0.09417796  0.50034745  0.90291028  1
  Zr  Zr19  1  0.30957315  0.90026267  0.69500010  1
  Zr  Zr20  1  0.09537620  0.09990157  0.49591367  1
  Zr  Zr21  1  0.69750446  0.10445279  0.10486185  1
  Zr  Zr22  1  0.09700566  0.29735953  0.69576260  1
  Zr  Zr23  1  0.09511639  0.10071416  0.68878154  1
  Zr  Zr24  1  0.09408219  0.29731135  0.50049659  1
  Zr  Zr25  1  0.50383969  0.70155644  0.50280518  1
  Zr  Zr26  1  0.50429671  0.88977418  0.69639896  1
  Zr  Zr27  1  0.89265613  0.70772394  0.70242998  1
  Zr  Zr28  1  0.09228352  0.50661383  0.50875491  1
  Zr  Zr29  1  0.69304804  0.29830049  0.69735098  1
  Zr  Zr30  1  0.30080097  0.70060429  0.48549091  1
  Zr  Zr31  1  0.10046482  0.70187311  0.49107864  1
  Zr  Zr32  1  0.88848412  0.30210486  0.49677296  1
  Zr  Zr33  1  0.90334337  0.50138226  0.89904403  1
  Zr  Zr34  1  0.09725287  0.49929882  0.70421840  1
  Zr  Zr35  1  0.90245982  0.69464678  0.50207013  1
  Zr  Zr36  1  0.50184290  0.49031569  0.91108729  1
  Zr  Zr37  1  0.30732922  0.30334719  0.69788147  1
  Zr  Zr38  1  0.30641720  0.88726328  0.29602555  1
  Zr  Zr39  1  0.09667142  0.90050621  0.69851581  1
  Zr  Zr40  1  0.69779111  0.89652982  0.09815520  1
  Zr  Zr41  1  0.31423040  0.49794516  0.10140995  1
  Zr  Zr42  1  0.50285279  0.09925681  0.29646251  1
  Zr  Zr43  1  0.30283845  0.10380923  0.90026985  1
  Zr  Zr44  1  0.88893621  0.30280782  0.89894058  1
  Zr  Zr45  1  0.50317501  0.30691309  0.70112472  1
  Zr  Zr46  1  0.70031380  0.10771156  0.49654541  1
  Zr  Zr47  1  0.69225858  0.09852946  0.30083272  1
  Zr  Zr48  1  0.10625949  0.09267897  0.29483055  1
  Zr  Zr49  1  0.49862693  0.49967187  0.30134097  1
  Sc  Sc50  1  0.30015576  0.10543294  0.69535304  1
  Sc  Sc51  1  0.89219483  0.10259207  0.09991349  1
  Sc  Sc52  1  0.30919007  0.50196078  0.50225080  1
  Sc  Sc53  1  0.89848328  0.30176765  0.10042714  1
  Sc  Sc54  1  0.89404522  0.51096947  0.29586940  1
  Sc  Sc55  1  0.70212072  0.69459674  0.50388869  1
  Sc  Sc56  1  0.89490455  0.69526409  0.12290706  1
  Sc  Sc57  1  0.10167324  0.49829095  0.10051978  1
  Sc  Sc58  1  0.69663361  0.29342573  0.09726884  1
  Sc  Sc59  1  0.29925856  0.89982477  0.49874153  1
  Sc  Sc60  1  0.48018676  0.70219409  0.30657371  1
  Sc  Sc61  1  0.69096228  0.49943449  0.69908194  1
  Sc  Sc62  1  0.49858598  0.30233142  0.09384939  1
  Sc  Sc63  1  0.69536935  0.48636850  0.90076143  1
  Sc  Sc64  1  0.30742595  0.89498667  0.10150274  1
  Sc  Sc65  1  0.89667676  0.30279850  0.29854873  1
  Sc  Sc66  1  0.09458526  0.68842445  0.69720572  1
  Sc  Sc67  1  0.30313321  0.30433085  0.48702424  1
  Sc  Sc68  1  0.09959363  0.90611274  0.49618509  1
  Sc  Sc69  1  0.91110295  0.49659441  0.10494460  1
  Sc  Sc70  1  0.50308930  0.10036643  0.69512479  1
  Sc  Sc71  1  0.09362765  0.89475420  0.30225891  1
  Sc  Sc72  1  0.50070855  0.70008349  0.89753738  1
  Sc  Sc73  1  0.10124630  0.68951713  0.90420655  1
  Sc  Sc74  1  0.89385853  0.30363372  0.69517297  1
  Sc  Sc75  1  0.50647124  0.49866071  0.49741540  1
  Sc  Sc76  1  0.10318801  0.29993751  0.90858173  1
  Sc  Sc77  1  0.70166184  0.49877465  0.49562533  1
  Sc  Sc78  1  0.10462650  0.69421489  0.10927576  1
  Sc  Sc79  1  0.49935579  0.89161960  0.90407225  1
  Sc  Sc80  1  0.49334842  0.50336620  0.69978976  1
  Sc  Sc81  1  0.50412103  0.10681279  0.49141812  1
  Sc  Sc82  1  0.91245285  0.70422052  0.30546409  1
  Sc  Sc83  1  0.30610010  0.50970479  0.90128660  1
  Sc  Sc84  1  0.49696431  0.29589259  0.30989867  1
  Sc  Sc85  1  0.30326172  0.10999013  0.29815299  1
  Sc  Sc86  1  0.89457388  0.10877006  0.30527280  1
  Sc  Sc87  1  0.70137787  0.89534750  0.70231810  1
  Sc  Sc88  1  0.72352909  0.69574451  0.29433154  1
  Sc  Sc89  1  0.70089256  0.29372442  0.30512022  1
  Sc  Sc90  1  0.30048995  0.09567010  0.49931876  1
  Sc  Sc91  1  0.70480583  0.10179253  0.70843429  1
  Sc  Sc92  1  0.90183624  0.10167199  0.50349776  1
  Sc  Sc93  1  0.70152607  0.50248895  0.31109540  1
  Sc  Sc94  1  0.29864187  0.30486111  0.10365187  1
  Sc  Sc95  1  0.30609520  0.89134115  0.90862919  1
  Sc  Sc96  1  0.90037959  0.90482749  0.69763568  1
  Sc  Sc97  1  0.11098453  0.30589715  0.30029424  1
  Sc  Sc98  1  0.69566513  0.49980051  0.09174470  1
  Sc  Sc99  1  0.90349271  0.89737141  0.49663170  1
  Nb  Nb100  1  0.90202228  0.10267847  0.70281893  1
  Nb  Nb101  1  0.28975228  0.69740338  0.30070190  1
  Nb  Nb102  1  0.50145473  0.49939966  0.10241809  1
  Nb  Nb103  1  0.50904368  0.29993394  0.50569172  1
  Nb  Nb104  1  0.50782250  0.70260193  0.09582418  1
  Nb  Nb105  1  0.69736319  0.90189217  0.30132897  1
  Nb  Nb106  1  0.68934294  0.30462983  0.49993071  1
  Nb  Nb107  1  0.09540025  0.50098602  0.29390898  1
  Nb  Nb108  1  0.69956262  0.70550997  0.90174331  1
  Nb  Nb109  1  0.49733726  0.70368452  0.70413846  1
  Nb  Nb110  1  0.89846076  0.69964411  0.90044776  1
  Nb  Nb111  1  0.50709498  0.29862027  0.89666149  1
  Nb  Nb112  1  0.30481466  0.30556166  0.29991512  1
  Nb  Nb113  1  0.69754412  0.69956098  0.09679319  1
  Nb  Nb114  1  0.30047639  0.50165607  0.69861201  1
  Nb  Nb115  1  0.69812773  0.10117437  0.90299901  1
  Nb  Nb116  1  0.89766146  0.49638026  0.49893924  1
  Nb  Nb117  1  0.50425646  0.90305009  0.29487609  1
  Nb  Nb118  1  0.30450588  0.70397441  0.89614230  1
  Nb  Nb119  1  0.09977888  0.09889424  0.10148203  1
  Nb  Nb120  1  0.11124713  0.69436794  0.30296237  1
  Nb  Nb121  1  0.68703812  0.28976060  0.89616362  1
  Nb  Nb122  1  0.49904450  0.89698875  0.10562829  1
  Nb  Nb123  1  0.89422149  0.88963322  0.29520888  1
  Nb  Nb124  1  0.31048140  0.68954915  0.70995277  1
  Nb  Nb125  1  0.60178485  0.80316932  0.39065897  1
  Nb  Nb126  1  0.20735730  0.79491799  0.79506352  1
  Nb  Nb127  1  0.59939638  0.00386038  0.00044075  1
  Nb  Nb128  1  0.00042630  -0.00108756  0.00184004  1
  Nb  Nb129  1  0.20229251  0.40441263  0.60487238  1
  Nb  Nb130  1  0.79586092  0.60446909  0.80649362  1
  Nb  Nb131  1  0.80130100  0.79294667  -0.00004100  1
  Nb  Nb132  1  0.19609604  0.00114795  0.00040519  1
  Nb  Nb133  1  -0.00199402  0.40850400  0.39986330  1
  Nb  Nb134  1  0.40585169  -0.00326124  0.39196927  1
  Nb  Nb135  1  0.20398063  0.40358686  0.79542306  1
  Nb  Nb136  1  0.59932394  0.79536362  0.20273689  1
  Nb  Nb137  1  0.59819977  0.40547854  0.20101573  1
  Nb  Nb138  1  0.20370667  -0.00390764  0.80263440  1
  Nb  Nb139  1  -0.00603836  0.79844771  0.00415582  1
  Nb  Nb140  1  0.79623542  -0.00595644  0.20700580  1
  Nb  Nb141  1  0.79920276  0.60678606  -0.00355111  1
  Nb  Nb142  1  0.40688341  0.20902311  0.59398276  1
  Nb  Nb143  1  0.20464177  0.79177827  0.60643242  1
  Nb  Nb144  1  0.79184436  0.40235222  0.20031732  1
  Nb  Nb145  1  0.59678653  0.60380849  0.19589296  1
  Nb  Nb146  1  0.39860687  -0.00118989  0.79926487  1
  Nb  Nb147  1  -0.00710606  0.19678182  0.79990924  1
  Nb  Nb148  1  0.60292763  -0.00005804  0.59608025  1
  Nb  Nb149  1  0.00709547  0.19865488  0.19711057  1
  Pd  Pd150  1  0.21169897  0.20792831  0.58818157  1
  Pd  Pd151  1  0.60309896  0.59889992  -0.00329453  1
  Pd  Pd152  1  0.79901967  0.40413196  0.00738961  1
  Pd  Pd153  1  0.81039175  0.00149466  0.39431364  1
  Pd  Pd154  1  0.39190893  0.78663881  0.59797337  1
  Pd  Pd155  1  0.79442105  0.80288356  0.59603218  1
  Pd  Pd156  1  0.79134734  0.40504204  0.60120886  1
  Pd  Pd157  1  0.00290494  0.00709006  0.80303403  1
  Pd  Pd158  1  0.59507606  0.59584263  0.60068607  1
  Pd  Pd159  1  -0.00764068  0.60888301  0.01377290  1
  Pd  Pd160  1  0.79058213  0.40385826  0.79518474  1
  Pd  Pd161  1  0.20127264  0.59934197  0.80444622  1
  Pd  Pd162  1  -0.00861247  -0.00231904  0.39351104  1
  Pd  Pd163  1  -0.01429516  0.01016544  0.20467699  1
  Pd  Pd164  1  0.79722043  0.20307967  0.00048799  1
  Pd  Pd165  1  0.59286154  0.00049154  0.79882975  1
  Pd  Pd166  1  0.19323079  0.40904655  0.40774364  1
  Pd  Pd167  1  0.40753349  0.40107582  0.40498756  1
  Pd  Pd168  1  0.20649092  0.19910729  0.00940302  1
  Pd  Pd169  1  0.20495680  0.59787573  0.00338924  1
  Pd  Pd170  1  0.40371701  -0.00398972  -0.00418535  1
  Pd  Pd171  1  0.00516381  0.38747977  0.80631509  1
  Pd  Pd172  1  0.79693654  0.79514821  0.40398586  1
  Pd  Pd173  1  0.40458452  0.60484940  0.59715690  1
  Pd  Pd174  1  0.59805812  0.59567480  0.80750756  1
  Pd  Pd175  1  0.20572695  0.60205670  0.59890303  1
  Pd  Pd176  1  0.20956423  0.40558128  -0.00737912  1
  Pd  Pd177  1  0.40390790  0.21013811  0.19799755  1
  Pd  Pd178  1  0.19680214  0.20686188  0.19755039  1
  Pd  Pd179  1  0.21095415  -0.00502812  0.39022055  1
  Pd  Pd180  1  0.00277033  0.20859470  0.38803438  1
  Pd  Pd181  1  0.20168496  0.58546556  0.39913532  1
  Pd  Pd182  1  0.19763915  0.80000977  0.20078003  1
  Pd  Pd183  1  0.19334080  0.20225621  0.79752676  1
  Pd  Pd184  1  0.20097266  0.40497760  0.19769482  1
  Pd  Pd185  1  0.19562328  0.79899930  0.00021706  1
  Pd  Pd186  1  0.79711888  0.59585017  0.60810853  1
  Pd  Pd187  1  0.39927733  0.20429054  0.00895142  1
  Pd  Pd188  1  0.79861118  0.19898721  0.60083666  1
  Pd  Pd189  1  0.79732214  0.00241151  0.60420244  1
  Pd  Pd190  1  0.60334440  0.61572433  0.38776139  1
  Pd  Pd191  1  0.19922032  -0.00529318  0.60206782  1
  Pd  Pd192  1  0.00680385  0.80098410  0.59488301  1
  Pd  Pd193  1  -0.01092431  0.19549057  -0.00034988  1
  Pd  Pd194  1  0.39943952  0.40907159  0.80400834  1
  Pd  Pd195  1  0.01037617  0.78815969  0.80474039  1
  Pd  Pd196  1  -0.00283955  0.59513356  0.39431767  1
  Pd  Pd197  1  0.20406398  0.19919532  0.40020602  1
  Pd  Pd198  1  0.40534859  0.60806997  -0.00295104  1
  Pd  Pd199  1  0.40373013  0.60637873  0.20069871  1
  Rh  Rh200  1  0.60804972  0.80599354  0.58872101  1
  Rh  Rh201  1  0.20882578  -0.00491586  0.20100887  1
  Rh  Rh202  1  0.60042659  0.39021102  0.00514895  1
  Rh  Rh203  1  0.59939505  0.19464794  0.60214690  1
  Rh  Rh204  1  -0.00071900  0.39544938  0.59108218  1
  Rh  Rh205  1  0.00972403  0.79084582  0.20316267  1
  Rh  Rh206  1  0.39850991  0.39627069  0.59356601  1
  Rh  Rh207  1  0.41109051  0.01524402  0.59416065  1
  Rh  Rh208  1  -0.00520630  0.00067581  0.59480045  1
  Rh  Rh209  1  0.79438869  0.79796588  0.80068972  1
  Rh  Rh210  1  0.20313015  0.59070476  0.19980836  1
  Rh  Rh211  1  0.39923397  0.39484154  -0.00155972  1
  Rh  Rh212  1  0.00837410  0.60316964  0.20434409  1
  Rh  Rh213  1  0.59306338  0.21281543  0.20297386  1
  Rh  Rh214  1  0.39712859  0.59563840  0.39950869  1
  Rh  Rh215  1  -0.00577462  0.39447984  0.21059952  1
  Rh  Rh216  1  0.59941238  0.19696394  0.79480533  1
  Rh  Rh217  1  0.40854630  0.59619268  0.80528353  1
  Rh  Rh218  1  0.40679160  0.79192697  0.19568474  1
  Rh  Rh219  1  0.60074402  0.40758496  0.59739860  1
  Rh  Rh220  1  -0.01207182  0.20218753  0.60354877  1
  Rh  Rh221  1  0.60060886  0.39585502  0.39552959  1
  Rh  Rh222  1  0.79639292  -0.00171065  0.79087412  1
  Rh  Rh223  1  -0.00945226  0.60524402  0.79497561  1
  Rh  Rh224  1  0.40374330  0.79284729  0.00539301  1
  Rh  Rh225  1  0.60034323  0.80629385  0.00061839  1
  Rh  Rh226  1  0.60559843  -0.00619374  0.19152693  1
  Rh  Rh227  1  0.40399783  0.80646669  0.40050636  1
  Rh  Rh228  1  0.78957582  0.58475168  0.18831136  1
  Rh  Rh229  1  0.79594688  -0.00518506  0.00814192  1
  Rh  Rh230  1  0.59771478  0.19633369  0.00203650  1
  Rh  Rh231  1  0.60190931  0.20653443  0.39791970  1
  Rh  Rh232  1  0.79569165  0.20257894  0.40285892  1
  Rh  Rh233  1  0.80664424  0.60228033  0.40735376  1
  Rh  Rh234  1  0.39511832  -0.00285810  0.20746420  1
  Rh  Rh235  1  0.59823146  0.40113305  0.80046046  1
  Rh  Rh236  1  0.80555020  0.20184289  0.20084544  1
  Rh  Rh237  1  0.19573317  0.80574119  0.40359499  1
  Rh  Rh238  1  0.59121419  -0.00593865  0.40696885  1
  Rh  Rh239  1  -0.00879768  0.60335434  0.60300831  1
  Rh  Rh240  1  0.80005972  0.20431967  0.79935400  1
  Rh  Rh241  1  -0.00342348  0.40006203  -0.00376888  1
  Rh  Rh242  1  0.39905790  0.80189724  0.80015168  1
  Rh  Rh243  1  0.40812232  0.39305531  0.20351068  1
  Rh  Rh244  1  0.79271562  0.80468952  0.19847217  1
  Rh  Rh245  1  0.59651673  0.80086728  0.80588354  1
  Rh  Rh246  1  0.39570956  0.19590911  0.40492491  1
  Rh  Rh247  1  0.00358207  0.80114629  0.39896059  1
  Rh  Rh248  1  0.40943388  0.19525495  0.78765704  1
  Rh  Rh249  1  0.80367982  0.40137349  0.39402861  1
