# generated using pymatgen
data_ZrScNbPdRh
_symmetry_space_group_name_H-M   'P 1'
_cell_length_a   16.55573355
_cell_length_b   16.55305934
_cell_length_c   16.55624038
_cell_angle_alpha   89.97685069
_cell_angle_beta   90.03246420
_cell_angle_gamma   89.99948223
_symmetry_Int_Tables_number   1
_chemical_formula_structural   ZrScNbPdRh
_chemical_formula_sum   'Zr50 Sc50 Nb50 Pd50 Rh50'
_cell_volume   4537.20412677
_cell_formula_units_Z   50
loop_
 _symmetry_equiv_pos_site_id
 _symmetry_equiv_pos_as_xyz
  1  'x, y, z'
loop_
 _atom_site_type_symbol
 _atom_site_label
 _atom_site_symmetry_multiplicity
 _atom_site_fract_x
 _atom_site_fract_y
 _atom_site_fract_z
 _atom_site_occupancy
  Zr  Zr0  1  0.70459995  0.10094090  0.70368696  1
  Zr  Zr1  1  0.30973921  0.09834422  0.30075132  1
  Zr  Zr2  1  0.10636617  0.30207662  0.89836961  1
  Zr  Zr3  1  0.69549421  0.29820659  0.70160127  1
  Zr  Zr4  1  0.49927210  0.69181242  0.09757461  1
  Zr  Zr5  1  0.89884847  0.70070862  0.50335956  1
  Zr  Zr6  1  0.89341779  0.50041008  0.90008768  1
  Zr  Zr7  1  0.10227888  0.70544335  0.50178380  1
  Zr  Zr8  1  0.70090757  0.29967736  0.89631533  1
  Zr  Zr9  1  0.89624787  0.70134739  0.69922000  1
  Zr  Zr10  1  0.50189918  0.09776843  0.90234450  1
  Zr  Zr11  1  0.70473822  0.89795817  0.08869398  1
  Zr  Zr12  1  0.29861160  0.90341795  0.10133361  1
  Zr  Zr13  1  0.49803251  0.49844486  0.90823615  1
  Zr  Zr14  1  0.70655733  0.29736813  0.29821416  1
  Zr  Zr15  1  0.10606261  0.28910767  0.70427302  1
  Zr  Zr16  1  0.10164367  0.70435566  0.90301502  1
  Zr  Zr17  1  0.50220450  0.49962864  0.10532456  1
  Zr  Zr18  1  0.10017950  0.89981525  0.90410421  1
  Zr  Zr19  1  0.69884030  0.49026432  0.89852689  1
  Zr  Zr20  1  0.09897439  0.89483208  0.10483859  1
  Zr  Zr21  1  0.49936882  0.90519821  0.09225562  1
  Zr  Zr22  1  0.88768441  0.10290007  0.30072632  1
  Zr  Zr23  1  0.49696605  0.29699084  0.69382818  1
  Zr  Zr24  1  0.90755442  0.09844109  0.69761378  1
  Zr  Zr25  1  0.30134451  0.90042210  0.49376958  1
  Zr  Zr26  1  0.10772224  0.49524691  0.49360874  1
  Zr  Zr27  1  0.50558979  0.29942428  0.89645286  1
  Zr  Zr28  1  0.49441878  0.30074805  0.30052247  1
  Zr  Zr29  1  0.68927124  0.49899816  0.10470623  1
  Zr  Zr30  1  0.50058956  0.50124260  0.69140393  1
  Zr  Zr31  1  0.49496890  0.90797836  0.29824049  1
  Zr  Zr32  1  0.90472786  0.89550675  0.30121682  1
  Zr  Zr33  1  0.09869033  0.09077683  0.29806790  1
  Zr  Zr34  1  0.69727821  0.69768033  0.69569179  1
  Zr  Zr35  1  0.30186363  0.09828766  0.09904532  1
  Zr  Zr36  1  0.89861715  0.89969161  0.89726369  1
  Zr  Zr37  1  0.29324397  0.29717056  0.89370190  1
  Zr  Zr38  1  0.89576860  0.50961122  0.70191757  1
  Zr  Zr39  1  0.08925150  0.70097307  0.29603874  1
  Zr  Zr40  1  0.30524589  0.49724184  0.31216587  1
  Zr  Zr41  1  0.69763462  0.09403770  0.09941774  1
  Zr  Zr42  1  0.90012389  0.89742738  0.50121323  1
  Zr  Zr43  1  0.30061381  0.70229318  0.49788015  1
  Zr  Zr44  1  0.69414030  0.70404447  0.09623480  1
  Zr  Zr45  1  0.10235758  0.08784728  0.09490217  1
  Zr  Zr46  1  0.70193127  0.50222353  0.70386520  1
  Zr  Zr47  1  0.30059878  0.89170386  0.30293807  1
  Zr  Zr48  1  0.10312773  0.70355154  0.09726670  1
  Zr  Zr49  1  0.49238272  0.08916034  0.69635422  1
  Sc  Sc50  1  0.69519387  0.28725909  0.49756822  1
  Sc  Sc51  1  0.69787771  0.71379335  0.90202852  1
  Sc  Sc52  1  0.49344359  0.49835141  0.50309411  1
  Sc  Sc53  1  0.50201984  0.10126381  0.50380245  1
  Sc  Sc54  1  0.68834743  0.70058221  0.30793205  1
  Sc  Sc55  1  0.91315433  0.50073435  0.51059487  1
  Sc  Sc56  1  0.90157636  0.89940857  0.09041404  1
  Sc  Sc57  1  0.50153257  0.10170414  0.29196894  1
  Sc  Sc58  1  0.09729914  0.70755200  0.70396098  1
  Sc  Sc59  1  0.30342215  0.50358463  0.49941301  1
  Sc  Sc60  1  0.89887176  0.29386975  0.50229064  1
  Sc  Sc61  1  0.09338420  0.49570913  0.69559278  1
  Sc  Sc62  1  0.49700160  0.09844467  0.09979944  1
  Sc  Sc63  1  0.69908486  0.10267236  0.30124382  1
  Sc  Sc64  1  0.30574687  0.70378133  0.09860566  1
  Sc  Sc65  1  0.09647417  0.29478798  0.51044653  1
  Sc  Sc66  1  0.50361905  0.30131491  0.50058059  1
  Sc  Sc67  1  0.69561202  0.90649551  0.30922910  1
  Sc  Sc68  1  0.09021812  0.50783183  0.10533832  1
  Sc  Sc69  1  0.29443089  0.70833180  0.69514710  1
  Sc  Sc70  1  0.50386968  0.50049853  0.29626125  1
  Sc  Sc71  1  0.29913986  0.49451905  0.91029486  1
  Sc  Sc72  1  0.49497912  0.71475736  0.90295369  1
  Sc  Sc73  1  0.50062502  0.30266354  0.10420277  1
  Sc  Sc74  1  0.91104390  0.49846252  0.28661099  1
  Sc  Sc75  1  0.90279703  0.70061503  0.89490307  1
  Sc  Sc76  1  0.10201330  0.50478022  0.90986040  1
  Sc  Sc77  1  0.30169009  0.89844277  0.89183284  1
  Sc  Sc78  1  0.50812637  0.91060891  0.50589915  1
  Sc  Sc79  1  0.11141137  0.29409215  0.10094885  1
  Sc  Sc80  1  0.90590929  0.29323526  0.69765588  1
  Sc  Sc81  1  0.89757520  0.49475697  0.10246830  1
  Sc  Sc82  1  0.30859282  0.30515995  0.49285029  1
  Sc  Sc83  1  0.30435710  0.29700972  0.10232327  1
  Sc  Sc84  1  0.30469734  0.50309800  0.68778947  1
  Sc  Sc85  1  0.89444021  0.08725650  0.09919792  1
  Sc  Sc86  1  0.91260730  0.70048467  0.09696051  1
  Sc  Sc87  1  0.68643839  0.89866220  0.70363265  1
  Sc  Sc88  1  0.10538745  0.29804848  0.30099094  1
  Sc  Sc89  1  0.10185078  0.89906353  0.70654728  1
  Sc  Sc90  1  0.89697267  0.09181532  0.89015272  1
  Sc  Sc91  1  0.10302613  0.09698423  0.89313033  1
  Sc  Sc92  1  0.69804599  0.70889850  0.50542243  1
  Sc  Sc93  1  0.30199978  0.09498085  0.90175461  1
  Sc  Sc94  1  0.69061237  0.50861265  0.50267381  1
  Sc  Sc95  1  0.69930515  0.90506775  0.89690302  1
  Sc  Sc96  1  0.49422443  0.69941907  0.29906847  1
  Sc  Sc97  1  0.70254959  0.30700029  0.10490081  1
  Sc  Sc98  1  0.31537684  0.50360391  0.10323359  1
  Sc  Sc99  1  0.50727902  0.69678737  0.50684020  1
  Nb  Nb100  1  0.10329778  0.90496812  0.49049616  1
  Nb  Nb101  1  0.30126297  0.30098444  0.30260821  1
  Nb  Nb102  1  0.30732810  0.90958318  0.69951363  1
  Nb  Nb103  1  0.70257388  0.49999561  0.29823127  1
  Nb  Nb104  1  0.89627149  0.69946436  0.30070447  1
  Nb  Nb105  1  0.69736334  0.90785845  0.50491158  1
  Nb  Nb106  1  0.90184097  0.09807260  0.50031058  1
  Nb  Nb107  1  0.70431588  0.10439622  0.89730415  1
  Nb  Nb108  1  0.89695810  0.30186136  0.90638294  1
  Nb  Nb109  1  0.49419822  0.89929774  0.70786868  1
  Nb  Nb110  1  0.29894285  0.09658094  0.50126742  1
  Nb  Nb111  1  0.29594532  0.10470738  0.69320388  1
  Nb  Nb112  1  0.10199676  0.89440476  0.30116547  1
  Nb  Nb113  1  0.29694362  0.29588229  0.70008100  1
  Nb  Nb114  1  0.49981615  0.70761522  0.70263293  1
  Nb  Nb115  1  0.89630523  0.29880573  0.10554842  1
  Nb  Nb116  1  0.29871955  0.69609409  0.89576821  1
  Nb  Nb117  1  0.70393056  0.09394273  0.50418690  1
  Nb  Nb118  1  0.10477290  0.49849832  0.30173483  1
  Nb  Nb119  1  0.49765994  0.90351818  0.88281573  1
  Nb  Nb120  1  0.89600207  0.29784557  0.29628558  1
  Nb  Nb121  1  0.30007078  0.70167984  0.29981942  1
  Nb  Nb122  1  0.89735928  0.90185000  0.70461780  1
  Nb  Nb123  1  0.10557574  0.10881238  0.68679283  1
  Nb  Nb124  1  0.09665200  0.09911056  0.50285326  1
  Nb  Nb125  1  0.79548193  0.59949708  0.00414834  1
  Nb  Nb126  1  0.80243389  0.20147685  -0.00204803  1
  Nb  Nb127  1  0.40344822  0.80836349  0.60581690  1
  Nb  Nb128  1  0.80225060  -0.00113408  0.59839736  1
  Nb  Nb129  1  0.79884962  0.40136042  0.59701682  1
  Nb  Nb130  1  0.80502210  0.40488771  0.39962754  1
  Nb  Nb131  1  -0.00085295  0.39658601  0.80759351  1
  Nb  Nb132  1  0.79784137  0.79448916  0.20332118  1
  Nb  Nb133  1  0.20299112  0.59999167  0.20927242  1
  Nb  Nb134  1  0.39945441  0.60187268  0.79976102  1
  Nb  Nb135  1  -0.00654917  0.20197734  0.00321411  1
  Nb  Nb136  1  -0.00472117  0.19908654  0.19869499  1
  Nb  Nb137  1  0.19704877  0.00545924  0.59647259  1
  Nb  Nb138  1  -0.00074901  0.19539658  0.39757146  1
  Nb  Nb139  1  -0.00158888  0.39323213  0.39376078  1
  Nb  Nb140  1  0.20558589  0.60170976  0.80254891  1
  Nb  Nb141  1  0.20436004  0.40718172  0.20963699  1
  Nb  Nb142  1  0.19962438  0.19308202  0.40477561  1
  Nb  Nb143  1  0.60039204  0.80489539  0.19554664  1
  Nb  Nb144  1  0.79690292  0.60550340  0.20222490  1
  Nb  Nb145  1  0.59222576  0.60395469  0.79926601  1
  Nb  Nb146  1  0.20318487  0.39172549  0.60252250  1
  Nb  Nb147  1  -0.00374951  0.39045502  0.00033760  1
  Nb  Nb148  1  0.80438431  0.59575891  0.39455048  1
  Nb  Nb149  1  0.39727722  0.39962914  0.79457170  1
  Pd  Pd150  1  0.59847920  0.19284439  0.39955128  1
  Pd  Pd151  1  0.80997760  0.38972552  0.78801326  1
  Pd  Pd152  1  0.60361167  0.60344987  -0.01292033  1
  Pd  Pd153  1  0.01093536  0.59515290  0.80361436  1
  Pd  Pd154  1  0.60504745  0.40171473  0.40018671  1
  Pd  Pd155  1  0.19828742  0.60982229  0.39572906  1
  Pd  Pd156  1  0.20819564  0.59574079  0.00872171  1
  Pd  Pd157  1  0.00320299  -0.00937242  0.60320733  1
  Pd  Pd158  1  0.20249985  0.41540402  0.79068309  1
  Pd  Pd159  1  0.01189669  0.38900664  0.19746918  1
  Pd  Pd160  1  0.79387268  0.81097396  0.60681207  1
  Pd  Pd161  1  0.39789189  0.20245115  0.59183464  1
  Pd  Pd162  1  0.00986529  0.60410518  0.60281256  1
  Pd  Pd163  1  0.20937180  0.80408102  -0.00371348  1
  Pd  Pd164  1  0.59840230  0.59804472  0.40030074  1
  Pd  Pd165  1  0.40667930  0.79873530  0.19558913  1
  Pd  Pd166  1  0.60815773  0.39763490  0.59322512  1
  Pd  Pd167  1  0.39962947  0.38905349  -0.00254719  1
  Pd  Pd168  1  0.00450522  0.80838936  0.60317685  1
  Pd  Pd169  1  0.41408066  0.80001017  0.41219899  1
  Pd  Pd170  1  0.20495236  -0.00476951  0.20606150  1
  Pd  Pd171  1  0.40090027  0.19598132  0.40545948  1
  Pd  Pd172  1  0.60103226  0.20323841  0.19615495  1
  Pd  Pd173  1  0.20273807  0.81397407  0.60277917  1
  Pd  Pd174  1  0.59508249  0.01057221  0.39856836  1
  Pd  Pd175  1  0.00792738  0.00100651  0.79620987  1
  Pd  Pd176  1  0.39645654  0.19758952  0.80025883  1
  Pd  Pd177  1  -0.00418456  0.00210865  0.39828545  1
  Pd  Pd178  1  0.00274115  0.79995647  0.40317794  1
  Pd  Pd179  1  0.80030886  0.19956382  0.59798891  1
  Pd  Pd180  1  0.59344587  0.80500471  0.39930437  1
  Pd  Pd181  1  0.39703556  0.80594133  -0.00428749  1
  Pd  Pd182  1  -0.00185528  0.20079808  0.80920581  1
  Pd  Pd183  1  0.79553577  -0.01255303  0.20273683  1
  Pd  Pd184  1  0.19412483  0.59502031  0.60690153  1
  Pd  Pd185  1  0.19576088  0.40948878  0.01875954  1
  Pd  Pd186  1  0.79229244  0.79544977  0.39750064  1
  Pd  Pd187  1  0.20029621  0.00401156  0.79247311  1
  Pd  Pd188  1  0.40110018  0.20437830  0.00071252  1
  Pd  Pd189  1  0.80002654  -0.00181286  0.40419472  1
  Pd  Pd190  1  0.60040129  -0.00236857  -0.00885925  1
  Pd  Pd191  1  0.60739589  0.20497047  0.00797828  1
  Pd  Pd192  1  -0.00593921  0.59145671  0.39848399  1
  Pd  Pd193  1  0.40811939  0.60163059  0.40158388  1
  Pd  Pd194  1  0.20056896  0.20110675  0.20746096  1
  Pd  Pd195  1  0.20226112  0.00284805  0.39918424  1
  Pd  Pd196  1  0.19630329  0.19244693  -0.00322944  1
  Pd  Pd197  1  0.59405937  0.19183465  0.79326065  1
  Pd  Pd198  1  -0.00566087  -0.00129870  0.19978942  1
  Pd  Pd199  1  0.79582080  0.80085848  0.79700553  1
  Rh  Rh200  1  0.19321948  0.79561169  0.39480579  1
  Rh  Rh201  1  0.79544623  -0.00434448  0.79306002  1
  Rh  Rh202  1  0.59788086  0.60218706  0.60437813  1
  Rh  Rh203  1  0.20409240  0.79805937  0.79975034  1
  Rh  Rh204  1  0.60694425  0.00332133  0.60637659  1
  Rh  Rh205  1  0.00078283  0.60366581  0.19852546  1
  Rh  Rh206  1  0.79885017  0.40113173  0.00896507  1
  Rh  Rh207  1  0.78416453  0.61046372  0.81345832  1
  Rh  Rh208  1  0.39464812  0.60114114  0.20635825  1
  Rh  Rh209  1  0.39970154  0.20101201  0.19702401  1
  Rh  Rh210  1  0.20276281  -0.00550898  -0.00276905  1
  Rh  Rh211  1  0.39336098  -0.00354908  0.59517846  1
  Rh  Rh212  1  0.59859944  0.19305529  0.60217722  1
  Rh  Rh213  1  0.60112524  0.60762880  0.20755460  1
  Rh  Rh214  1  0.79786684  0.40849266  0.20476906  1
  Rh  Rh215  1  0.60254582  -0.00556276  0.19861301  1
  Rh  Rh216  1  0.58721129  0.40740807  0.79746922  1
  Rh  Rh217  1  0.80059359  0.59354866  0.58578683  1
  Rh  Rh218  1  -0.00117430  0.80280123  -0.00514820  1
  Rh  Rh219  1  0.60009277  0.00598017  0.80166814  1
  Rh  Rh220  1  0.58955919  0.81081418  -0.00363139  1
  Rh  Rh221  1  0.39140440  0.79616745  0.79353276  1
  Rh  Rh222  1  0.39560736  0.00842339  0.80181418  1
  Rh  Rh223  1  0.39903468  0.60443956  -0.00663791  1
  Rh  Rh224  1  0.39514431  0.39837187  0.20527199  1
  Rh  Rh225  1  0.59297976  0.80698521  0.60065546  1
  Rh  Rh226  1  0.80039581  0.19196665  0.18798824  1
  Rh  Rh227  1  0.39889688  0.61669095  0.60200133  1
  Rh  Rh228  1  -0.00104836  0.00344316  -0.00677684  1
  Rh  Rh229  1  0.39791901  0.00113315  0.19779692  1
  Rh  Rh230  1  0.00060779  0.39358687  0.60614289  1
  Rh  Rh231  1  0.40744397  0.00409667  0.40246215  1
  Rh  Rh232  1  -0.00401889  0.80337144  0.79862936  1
  Rh  Rh233  1  0.20550943  0.18748333  0.80288962  1
  Rh  Rh234  1  -0.00496152  0.19917434  0.59355252  1
  Rh  Rh235  1  -0.00636300  0.80270982  0.19806976  1
  Rh  Rh236  1  0.80528433  0.20227870  0.80482509  1
  Rh  Rh237  1  0.19301301  0.38609238  0.40466377  1
  Rh  Rh238  1  0.39232599  0.39262405  0.60221964  1
  Rh  Rh239  1  0.21071254  0.20176202  0.58908847  1
  Rh  Rh240  1  0.39928825  -0.00495474  -0.00662339  1
  Rh  Rh241  1  0.81114816  0.79101919  0.00423469  1
  Rh  Rh242  1  -0.01057693  0.59321707  -0.00108803  1
  Rh  Rh243  1  0.20023922  0.79291929  0.20554423  1
  Rh  Rh244  1  0.59943956  0.79751217  0.80203874  1
  Rh  Rh245  1  0.41020558  0.40138866  0.40065084  1
  Rh  Rh246  1  0.79897918  0.00798342  -0.00931148  1
  Rh  Rh247  1  0.59912032  0.39269355  0.00432640  1
  Rh  Rh248  1  0.59827764  0.39421418  0.20830693  1
  Rh  Rh249  1  0.80218048  0.20257179  0.40732427  1
