# generated using pymatgen
data_ZrScNbPdRh
_symmetry_space_group_name_H-M   'P 1'
_cell_length_a   16.55115910
_cell_length_b   16.54876350
_cell_length_c   16.54847370
_cell_angle_alpha   89.99887157
_cell_angle_beta   89.98956187
_cell_angle_gamma   90.00631145
_symmetry_Int_Tables_number   1
_chemical_formula_structural   ZrScNbPdRh
_chemical_formula_sum   'Zr50 Sc50 Nb50 Pd50 Rh50'
_cell_volume   4532.64699245
_cell_formula_units_Z   50
loop_
 _symmetry_equiv_pos_site_id
 _symmetry_equiv_pos_as_xyz
  1  'x, y, z'
loop_
 _atom_site_type_symbol
 _atom_site_label
 _atom_site_symmetry_multiplicity
 _atom_site_fract_x
 _atom_site_fract_y
 _atom_site_fract_z
 _atom_site_occupancy
  Zr  Zr0  1  0.90682437  0.30292043  0.70278294  1
  Zr  Zr1  1  0.69859556  0.50860160  0.10178572  1
  Zr  Zr2  1  0.69987793  0.09752129  0.70566190  1
  Zr  Zr3  1  0.89878575  0.50433941  0.31259206  1
  Zr  Zr4  1  0.48308244  0.31202844  0.90087149  1
  Zr  Zr5  1  0.10864006  0.90675006  0.89768990  1
  Zr  Zr6  1  0.30391709  0.50804107  0.30333376  1
  Zr  Zr7  1  0.29318751  0.10397311  0.49795065  1
  Zr  Zr8  1  0.69842931  0.49286202  0.90910139  1
  Zr  Zr9  1  0.90832253  0.30341533  0.30208114  1
  Zr  Zr10  1  0.49834006  0.10070652  0.10316517  1
  Zr  Zr11  1  0.88729695  0.69165341  0.69770380  1
  Zr  Zr12  1  0.50111571  0.09539597  0.29547495  1
  Zr  Zr13  1  0.29386082  0.70034519  0.29822025  1
  Zr  Zr14  1  0.09821280  0.09982799  0.50296874  1
  Zr  Zr15  1  0.70115331  0.09604888  0.10328372  1
  Zr  Zr16  1  0.11078475  0.30443886  0.70034986  1
  Zr  Zr17  1  0.90711872  0.51153194  0.50333433  1
  Zr  Zr18  1  0.88746697  0.30291890  0.90092157  1
  Zr  Zr19  1  0.29797896  0.69512123  0.49974740  1
  Zr  Zr20  1  0.31134858  0.48496048  0.89555895  1
  Zr  Zr21  1  0.50424994  0.90182520  0.30492551  1
  Zr  Zr22  1  0.90494073  0.10069683  0.49838932  1
  Zr  Zr23  1  0.30970029  0.69810480  0.69534479  1
  Zr  Zr24  1  0.49164649  0.28748833  0.29535248  1
  Zr  Zr25  1  0.89620287  0.49954160  0.89435604  1
  Zr  Zr26  1  0.49807609  0.29837887  0.09617381  1
  Zr  Zr27  1  0.30176632  0.30205618  0.71198760  1
  Zr  Zr28  1  0.30577256  0.10320765  0.30210467  1
  Zr  Zr29  1  0.50748956  0.29439985  0.51054561  1
  Zr  Zr30  1  0.49539683  0.69031710  0.29730048  1
  Zr  Zr31  1  0.50407969  0.69677720  0.90462756  1
  Zr  Zr32  1  0.69994584  0.90202525  0.49186289  1
  Zr  Zr33  1  0.10431238  0.29572110  0.49841732  1
  Zr  Zr34  1  0.10497714  0.69677213  0.90573478  1
  Zr  Zr35  1  0.10069390  0.71220431  0.29062590  1
  Zr  Zr36  1  0.71440134  0.30160594  0.29702697  1
  Zr  Zr37  1  0.10152648  0.29512324  0.90797149  1
  Zr  Zr38  1  0.10139190  0.89435030  0.10446569  1
  Zr  Zr39  1  0.10073207  0.71217174  0.49609027  1
  Zr  Zr40  1  0.28902107  0.49887152  0.69836446  1
  Zr  Zr41  1  0.29326827  0.29221671  0.89667244  1
  Zr  Zr42  1  0.49328612  0.09781139  0.49824880  1
  Zr  Zr43  1  0.50271963  0.50334826  0.08630390  1
  Zr  Zr44  1  0.89527960  0.09949370  0.90346787  1
  Zr  Zr45  1  0.89746096  0.09255457  0.09878416  1
  Zr  Zr46  1  0.90658393  0.89489987  0.49536020  1
  Zr  Zr47  1  0.90825008  0.29947075  0.49491742  1
  Zr  Zr48  1  0.49932196  0.10103794  0.70011199  1
  Zr  Zr49  1  0.29526892  0.89128857  0.71437215  1
  Sc  Sc50  1  0.70101502  0.10037180  0.49960161  1
  Sc  Sc51  1  0.50482312  0.90099595  0.49825038  1
  Sc  Sc52  1  0.09964612  0.89595111  0.30297388  1
  Sc  Sc53  1  0.30295097  0.29300149  0.09395523  1
  Sc  Sc54  1  0.29225726  0.50696040  0.10585664  1
  Sc  Sc55  1  0.70700740  0.30680138  0.09733087  1
  Sc  Sc56  1  0.70283431  0.89534502  0.09094727  1
  Sc  Sc57  1  0.70032501  0.70038259  0.09589245  1
  Sc  Sc58  1  0.29587962  0.50571377  0.50113000  1
  Sc  Sc59  1  0.29182450  0.70054589  0.09214920  1
  Sc  Sc60  1  0.89234285  0.09573496  0.29736794  1
  Sc  Sc61  1  0.70624341  0.29863585  0.50293436  1
  Sc  Sc62  1  0.28981049  0.09851795  0.90373733  1
  Sc  Sc63  1  0.70632550  0.69631761  0.29455623  1
  Sc  Sc64  1  0.50032575  0.69459760  0.09074512  1
  Sc  Sc65  1  0.09203520  0.09742877  0.09094597  1
  Sc  Sc66  1  0.89639844  0.50612305  0.08860889  1
  Sc  Sc67  1  0.69284369  0.89836962  0.70701280  1
  Sc  Sc68  1  0.09594351  0.10053288  0.70299510  1
  Sc  Sc69  1  0.71191969  0.50390148  0.29624826  1
  Sc  Sc70  1  0.29141961  0.30169566  0.30453386  1
  Sc  Sc71  1  0.30034870  0.09614450  0.09649411  1
  Sc  Sc72  1  0.10400746  0.08852266  0.30299434  1
  Sc  Sc73  1  0.12055166  0.70181845  0.69725463  1
  Sc  Sc74  1  0.09319500  0.50109769  0.90718262  1
  Sc  Sc75  1  0.50917805  0.50436055  0.69513126  1
  Sc  Sc76  1  0.89741439  0.90189071  0.10070387  1
  Sc  Sc77  1  0.69256607  0.70423077  0.49390874  1
  Sc  Sc78  1  0.90786945  0.89942823  0.70047185  1
  Sc  Sc79  1  0.70133722  0.90231502  0.30776913  1
  Sc  Sc80  1  0.70071770  0.71131237  0.89411839  1
  Sc  Sc81  1  0.89436018  0.90259415  0.90490489  1
  Sc  Sc82  1  0.30164405  0.10547114  0.70425404  1
  Sc  Sc83  1  0.49533203  0.90384128  0.70125593  1
  Sc  Sc84  1  0.29832783  0.89740066  0.49807396  1
  Sc  Sc85  1  0.69437186  0.90578906  0.90311150  1
  Sc  Sc86  1  0.30277773  0.70798155  0.90135829  1
  Sc  Sc87  1  0.70797608  0.49673746  0.49286860  1
  Sc  Sc88  1  0.49624731  0.90287939  0.90370047  1
  Sc  Sc89  1  0.49855598  0.50322853  0.50453862  1
  Sc  Sc90  1  0.10082149  0.50095744  0.50460609  1
  Sc  Sc91  1  0.50026376  0.90703003  0.08862640  1
  Sc  Sc92  1  0.89172924  0.70479874  0.10082096  1
  Sc  Sc93  1  0.89907095  0.10286181  0.70223604  1
  Sc  Sc94  1  0.10732597  0.49097174  0.29392436  1
  Sc  Sc95  1  0.90315029  0.29455937  0.10783192  1
  Sc  Sc96  1  0.70358650  0.51414360  0.70445264  1
  Sc  Sc97  1  0.28639222  0.90533570  0.29403144  1
  Sc  Sc98  1  0.49681838  0.70000524  0.50939592  1
  Sc  Sc99  1  0.70049186  0.29410669  0.69391093  1
  Nb  Nb100  1  0.09893270  0.30845209  0.11096135  1
  Nb  Nb101  1  0.70052043  0.10330990  0.89727509  1
  Nb  Nb102  1  0.09875535  0.69261131  0.09689489  1
  Nb  Nb103  1  0.50360695  0.50152537  0.90127307  1
  Nb  Nb104  1  0.49642676  0.50081284  0.29670727  1
  Nb  Nb105  1  0.30066350  0.89962642  0.08696915  1
  Nb  Nb106  1  0.09951419  0.90073768  0.50753331  1
  Nb  Nb107  1  0.09566803  0.10229145  0.90257057  1
  Nb  Nb108  1  0.90522567  0.70151225  0.30361511  1
  Nb  Nb109  1  0.90200816  0.69771154  0.49212128  1
  Nb  Nb110  1  0.68964348  0.70380469  0.70105608  1
  Nb  Nb111  1  0.69814348  0.29723854  0.89864972  1
  Nb  Nb112  1  0.90473340  0.50222158  0.69912479  1
  Nb  Nb113  1  0.10170815  0.89492815  0.69892713  1
  Nb  Nb114  1  0.51043945  0.69406624  0.70250708  1
  Nb  Nb115  1  0.50681684  0.09511193  0.90031913  1
  Nb  Nb116  1  0.09960572  0.50440369  0.10085088  1
  Nb  Nb117  1  0.09697468  0.30680774  0.29074379  1
  Nb  Nb118  1  0.69699513  0.09905064  0.30057469  1
  Nb  Nb119  1  0.29945642  0.89943630  0.91223869  1
  Nb  Nb120  1  0.09740757  0.49980952  0.70105881  1
  Nb  Nb121  1  0.29777362  0.29788762  0.50520017  1
  Nb  Nb122  1  0.90217554  0.88727103  0.29844975  1
  Nb  Nb123  1  0.90632354  0.70238862  0.89821434  1
  Nb  Nb124  1  0.50066466  0.29720478  0.70300615  1
  Nb  Nb125  1  0.81217738  0.40703939  0.60427600  1
  Nb  Nb126  1  0.00443391  0.79362142  0.80178262  1
  Nb  Nb127  1  0.59427228  0.40376626  0.20431537  1
  Nb  Nb128  1  0.60118492  0.20061752  0.39342512  1
  Nb  Nb129  1  0.39792754  0.79576585  0.39203884  1
  Nb  Nb130  1  0.59267816  0.79856188  0.20063649  1
  Nb  Nb131  1  0.40885852  0.59979386  0.79878624  1
  Nb  Nb132  1  0.00156770  0.60373011  0.19688629  1
  Nb  Nb133  1  0.40279504  0.39668930  0.40376463  1
  Nb  Nb134  1  0.80275598  -0.00795164  0.59617536  1
  Nb  Nb135  1  0.00306932  0.79573678  -0.00256005  1
  Nb  Nb136  1  0.19414288  0.39789283  0.00828511  1
  Nb  Nb137  1  0.59621775  0.20357606  0.80653646  1
  Nb  Nb138  1  0.00003346  0.20240756  0.80913992  1
  Nb  Nb139  1  0.59778760  0.39541170  0.80275090  1
  Nb  Nb140  1  0.59474698  0.39788918  0.39080302  1
  Nb  Nb141  1  -0.00066722  0.60149771  0.79414938  1
  Nb  Nb142  1  0.79887686  0.79760218  0.59893775  1
  Nb  Nb143  1  0.40227503  0.40281798  0.20349652  1
  Nb  Nb144  1  0.19463364  -0.00689348  0.60430794  1
  Nb  Nb145  1  0.39971688  0.80299945  0.19709745  1
  Nb  Nb146  1  0.59634047  0.59229258  0.39295568  1
  Nb  Nb147  1  0.19106891  0.20500876  0.19838445  1
  Nb  Nb148  1  0.39746712  0.39355807  0.60032437  1
  Nb  Nb149  1  0.60124460  0.19993051  -0.00741850  1
  Pd  Pd150  1  0.19893875  0.00738335  0.19072374  1
  Pd  Pd151  1  0.00831258  0.19576671  0.38702439  1
  Pd  Pd152  1  -0.01126095  0.41644807  0.19684340  1
  Pd  Pd153  1  0.39309903  -0.00960977  0.39933849  1
  Pd  Pd154  1  0.19161419  0.20127067  0.38951506  1
  Pd  Pd155  1  0.79687045  0.61027993  -0.00936413  1
  Pd  Pd156  1  0.01504308  0.59999005  0.39022012  1
  Pd  Pd157  1  0.40843125  0.79443571  0.80479680  1
  Pd  Pd158  1  -0.00080775  0.00183042  0.60521325  1
  Pd  Pd159  1  0.40151729  0.80725222  0.59598282  1
  Pd  Pd160  1  0.80439545  0.80706480  0.79592063  1
  Pd  Pd161  1  0.60165314  0.80626289  0.60134964  1
  Pd  Pd162  1  0.80443203  0.19880535  0.60149503  1
  Pd  Pd163  1  0.79553828  -0.00946027  0.20485231  1
  Pd  Pd164  1  0.00685004  0.40100244  0.80455700  1
  Pd  Pd165  1  -0.00138955  -0.00262622  0.20411324  1
  Pd  Pd166  1  0.01087252  0.61226172  0.60765536  1
  Pd  Pd167  1  0.00478950  0.18837373  0.20560381  1
  Pd  Pd168  1  0.60950434  0.40625405  0.60373999  1
  Pd  Pd169  1  0.80674501  0.40875563  0.19415790  1
  Pd  Pd170  1  -0.00190325  0.00004127  0.80360331  1
  Pd  Pd171  1  0.79235634  0.80316395  0.20056034  1
  Pd  Pd172  1  0.20317984  0.40136543  0.40438539  1
  Pd  Pd173  1  0.39511177  -0.00915198  0.19643848  1
  Pd  Pd174  1  0.00251890  0.39885895  0.59503005  1
  Pd  Pd175  1  -0.00204562  -0.00555326  0.39275639  1
  Pd  Pd176  1  0.78772888  0.40032218  0.78839734  1
  Pd  Pd177  1  0.60670956  -0.01324740  0.19565937  1
  Pd  Pd178  1  0.18868896  0.59905849  0.39644686  1
  Pd  Pd179  1  0.58977160  0.80821221  0.80341035  1
  Pd  Pd180  1  0.38675143  -0.00698740  0.60266786  1
  Pd  Pd181  1  0.40290871  0.18957779  -0.00851763  1
  Pd  Pd182  1  0.20915597  0.58851770  -0.01006482  1
  Pd  Pd183  1  -0.00442874  0.20408149  0.00180255  1
  Pd  Pd184  1  0.80200695  -0.00782173  0.79548086  1
  Pd  Pd185  1  0.79969987  0.79389996  0.40023752  1
  Pd  Pd186  1  0.60969378  0.59572912  0.58831253  1
  Pd  Pd187  1  0.39504377  0.00376904  0.80831355  1
  Pd  Pd188  1  -0.00482774  0.78835340  0.60908280  1
  Pd  Pd189  1  0.61191785  0.20826071  0.19652569  1
  Pd  Pd190  1  0.78941914  0.60364095  0.59059098  1
  Pd  Pd191  1  0.79555442  0.20039203  0.00767119  1
  Pd  Pd192  1  0.39377885  0.20297507  0.60312031  1
  Pd  Pd193  1  0.20118818  0.00603511  0.79567962  1
  Pd  Pd194  1  -0.00205383  0.39745628  0.00462680  1
  Pd  Pd195  1  0.79709804  0.19590450  0.39967794  1
  Pd  Pd196  1  0.79562142  0.60275669  0.80833321  1
  Pd  Pd197  1  0.20343105  0.59556386  0.80827746  1
  Pd  Pd198  1  0.60520305  -0.00014354  0.59816759  1
  Pd  Pd199  1  0.39723829  0.60302179  0.18539005  1
  Rh  Rh200  1  0.60089693  0.59551172  0.80543919  1
  Rh  Rh201  1  0.60232796  0.19064670  0.60167149  1
  Rh  Rh202  1  0.00284290  0.80351466  0.39924836  1
  Rh  Rh203  1  0.19126368  0.60277262  0.20310208  1
  Rh  Rh204  1  0.40202217  0.80013176  0.00483720  1
  Rh  Rh205  1  0.41245592  0.41335405  0.78308410  1
  Rh  Rh206  1  0.80539689  0.80028376  -0.00488217  1
  Rh  Rh207  1  0.19490728  0.80249289  0.00217627  1
  Rh  Rh208  1  0.20307884  0.80614641  0.40293688  1
  Rh  Rh209  1  0.79394465  0.60894040  0.40372811  1
  Rh  Rh210  1  0.61195855  0.60793646  -0.00839892  1
  Rh  Rh211  1  0.40640832  0.60108384  0.41194388  1
  Rh  Rh212  1  0.19251208  0.20173005  0.01146906  1
  Rh  Rh213  1  0.21211553  0.39407177  0.19308700  1
  Rh  Rh214  1  0.60134078  0.01223233  0.40296567  1
  Rh  Rh215  1  0.60217148  0.39204483  0.00117782  1
  Rh  Rh216  1  0.80671176  0.00018468  0.40064598  1
  Rh  Rh217  1  0.18862219  0.40606575  0.81396453  1
  Rh  Rh218  1  0.38619500  0.40847038  0.01578667  1
  Rh  Rh219  1  0.00511778  0.20372898  0.61030919  1
  Rh  Rh220  1  0.38345188  0.20245363  0.19916625  1
  Rh  Rh221  1  0.40011151  0.59170111  0.60844321  1
  Rh  Rh222  1  0.58906666  0.78587381  0.39087725  1
  Rh  Rh223  1  0.19517322  0.60015433  0.59618988  1
  Rh  Rh224  1  0.00127255  -0.01133794  -0.00231422  1
  Rh  Rh225  1  0.59819831  0.80029543  0.00432699  1
  Rh  Rh226  1  0.80250719  0.39808987  0.00581568  1
  Rh  Rh227  1  0.60341602  0.00695682  0.00133411  1
  Rh  Rh228  1  0.20626996  0.80646986  0.59684954  1
  Rh  Rh229  1  0.40302342  0.20410303  0.40723896  1
  Rh  Rh230  1  0.19089545  0.19206954  0.79907929  1
  Rh  Rh231  1  0.19623111  0.00220104  0.00370522  1
  Rh  Rh232  1  0.19901594  0.79793049  0.80792863  1
  Rh  Rh233  1  0.00752495  0.40306950  0.40322662  1
  Rh  Rh234  1  -0.00686115  0.60647567  0.00197327  1
  Rh  Rh235  1  0.19726625  -0.00365238  0.41166359  1
  Rh  Rh236  1  0.80408183  0.39868844  0.41052834  1
  Rh  Rh237  1  0.39228793  0.59758016  -0.00835186  1
  Rh  Rh238  1  -0.00548465  0.79542899  0.19153448  1
  Rh  Rh239  1  0.20348145  0.40093787  0.59476493  1
  Rh  Rh240  1  0.20767442  0.80085662  0.18826010  1
  Rh  Rh241  1  0.39827315  0.00500998  -0.00533345  1
  Rh  Rh242  1  0.80165532  0.19613986  0.19880106  1
  Rh  Rh243  1  0.60354650  0.60035306  0.20208560  1
  Rh  Rh244  1  0.79538083  0.00106389  -0.00157663  1
  Rh  Rh245  1  0.20090384  0.19360931  0.60669824  1
  Rh  Rh246  1  0.40580672  0.19100079  0.80795750  1
  Rh  Rh247  1  0.59768224  0.00208435  0.80094996  1
  Rh  Rh248  1  0.80135914  0.20119206  0.79697723  1
  Rh  Rh249  1  0.81433808  0.60157653  0.20279375  1
