# generated using pymatgen
data_ZrScNbPdRh
_symmetry_space_group_name_H-M   'P 1'
_cell_length_a   16.56017270
_cell_length_b   16.55930500
_cell_length_c   16.55386709
_cell_angle_alpha   90.00101968
_cell_angle_beta   89.98460352
_cell_angle_gamma   90.02922064
_symmetry_Int_Tables_number   1
_chemical_formula_structural   ZrScNbPdRh
_chemical_formula_sum   'Zr50 Sc50 Nb50 Pd50 Rh50'
_cell_volume   4539.48262969
_cell_formula_units_Z   50
loop_
 _symmetry_equiv_pos_site_id
 _symmetry_equiv_pos_as_xyz
  1  'x, y, z'
loop_
 _atom_site_type_symbol
 _atom_site_label
 _atom_site_symmetry_multiplicity
 _atom_site_fract_x
 _atom_site_fract_y
 _atom_site_fract_z
 _atom_site_occupancy
  Zr  Zr0  1  0.30160220  0.69807967  0.49776349  1
  Zr  Zr1  1  0.70601803  0.69930294  0.70366397  1
  Zr  Zr2  1  0.11616451  0.69695818  0.10341716  1
  Zr  Zr3  1  0.49530768  0.89554856  0.89273142  1
  Zr  Zr4  1  0.10197007  0.89832942  0.49489320  1
  Zr  Zr5  1  0.89993763  0.29497979  0.10472205  1
  Zr  Zr6  1  0.89976160  0.29597875  0.49407235  1
  Zr  Zr7  1  0.09992159  0.09799097  0.50492957  1
  Zr  Zr8  1  0.89744194  0.50503186  0.69913110  1
  Zr  Zr9  1  0.30064980  0.30264543  0.90373106  1
  Zr  Zr10  1  0.50075133  0.50655459  0.09853210  1
  Zr  Zr11  1  0.49516958  0.49761384  0.49830935  1
  Zr  Zr12  1  0.09426515  0.50015571  0.29603740  1
  Zr  Zr13  1  0.89851535  0.09193700  0.70533130  1
  Zr  Zr14  1  0.69955276  0.88934276  0.89697750  1
  Zr  Zr15  1  0.30485262  0.90503867  0.70017485  1
  Zr  Zr16  1  0.10116858  0.30231826  0.90775773  1
  Zr  Zr17  1  0.70539647  0.30034104  0.09324732  1
  Zr  Zr18  1  0.29384609  0.09599497  0.70172346  1
  Zr  Zr19  1  0.10429727  0.90842961  0.10545017  1
  Zr  Zr20  1  0.50011948  0.50318599  0.70034641  1
  Zr  Zr21  1  0.48793805  0.70000517  0.09847038  1
  Zr  Zr22  1  0.90538834  0.49607460  0.29683603  1
  Zr  Zr23  1  0.70102959  0.90632560  0.28915069  1
  Zr  Zr24  1  0.09928212  0.69507527  0.30330381  1
  Zr  Zr25  1  0.09228372  0.51186169  0.70782928  1
  Zr  Zr26  1  0.09890160  0.70476693  0.70384752  1
  Zr  Zr27  1  0.50211673  0.10033850  0.29569408  1
  Zr  Zr28  1  0.69530585  0.70421792  0.29401304  1
  Zr  Zr29  1  0.09833085  0.90994048  0.31075110  1
  Zr  Zr30  1  0.70427433  0.50449191  0.70819188  1
  Zr  Zr31  1  0.29836273  0.29663449  0.09956518  1
  Zr  Zr32  1  0.90022821  0.69697714  0.70055342  1
  Zr  Zr33  1  0.68991275  0.50456912  0.29879406  1
  Zr  Zr34  1  0.09606492  0.29941434  0.49805226  1
  Zr  Zr35  1  0.90262708  0.50414543  0.50464014  1
  Zr  Zr36  1  0.10304429  0.49948759  0.90448636  1
  Zr  Zr37  1  0.69230452  0.09589575  0.09850368  1
  Zr  Zr38  1  0.50266827  0.70334216  0.90239082  1
  Zr  Zr39  1  0.69827889  0.49820428  0.90240288  1
  Zr  Zr40  1  0.69623206  0.29546583  0.69951731  1
  Zr  Zr41  1  0.51067907  0.90940998  0.31462012  1
  Zr  Zr42  1  0.10237992  0.69664072  0.89697413  1
  Zr  Zr43  1  0.89784136  0.90098496  0.09600863  1
  Zr  Zr44  1  0.49784578  0.50101531  0.90273770  1
  Zr  Zr45  1  0.30542113  0.30927276  0.48574765  1
  Zr  Zr46  1  0.30001196  0.49933092  0.89902102  1
  Zr  Zr47  1  0.10689339  0.90625245  0.70340248  1
  Zr  Zr48  1  0.50052936  0.10176358  0.49275250  1
  Zr  Zr49  1  0.89932224  0.90231011  0.30197367  1
  Sc  Sc50  1  0.50543758  0.70195572  0.28818562  1
  Sc  Sc51  1  0.70128068  0.10907406  0.69713881  1
  Sc  Sc52  1  0.09409276  0.29495335  0.09125130  1
  Sc  Sc53  1  0.89974554  0.71044328  0.09800915  1
  Sc  Sc54  1  0.50183995  0.70895791  0.50544805  1
  Sc  Sc55  1  0.89709431  0.10564868  0.29849143  1
  Sc  Sc56  1  0.90427723  0.69913877  0.50548030  1
  Sc  Sc57  1  0.09441651  0.28954344  0.69288371  1
  Sc  Sc58  1  0.08533850  0.30197383  0.30264729  1
  Sc  Sc59  1  0.69952294  0.89794987  0.49923227  1
  Sc  Sc60  1  0.10443530  0.70080072  0.49713781  1
  Sc  Sc61  1  0.69847933  0.70039870  0.89544343  1
  Sc  Sc62  1  0.09373887  0.89453901  0.90118996  1
  Sc  Sc63  1  0.50021104  0.30105734  0.69839252  1
  Sc  Sc64  1  0.30582079  0.50541192  0.69452673  1
  Sc  Sc65  1  0.29321840  0.70168067  0.91274486  1
  Sc  Sc66  1  0.89130231  0.10271590  0.50412904  1
  Sc  Sc67  1  0.70152729  0.29989283  0.89803006  1
  Sc  Sc68  1  0.50551620  0.89998647  0.08620362  1
  Sc  Sc69  1  0.70384147  0.70513032  0.51319853  1
  Sc  Sc70  1  0.29967037  0.90260160  0.89845918  1
  Sc  Sc71  1  0.31097088  0.29266134  0.69780995  1
  Sc  Sc72  1  0.69222555  0.11166592  0.89960055  1
  Sc  Sc73  1  0.90300834  0.48408749  0.10553636  1
  Sc  Sc74  1  0.30937548  0.10133272  0.30442397  1
  Sc  Sc75  1  0.89503396  0.30068662  0.70444824  1
  Sc  Sc76  1  0.30055571  0.48962601  0.30687770  1
  Sc  Sc77  1  0.48932696  0.30139131  0.09731976  1
  Sc  Sc78  1  0.30067832  0.89676043  0.30457549  1
  Sc  Sc79  1  0.90074346  0.90225338  0.50223177  1
  Sc  Sc80  1  0.70430612  0.29463203  0.29870533  1
  Sc  Sc81  1  0.50492503  0.70562889  0.69857191  1
  Sc  Sc82  1  0.48988068  0.11184244  0.69430452  1
  Sc  Sc83  1  0.90514781  0.48795522  0.88931879  1
  Sc  Sc84  1  0.30595159  0.50523367  0.09241003  1
  Sc  Sc85  1  0.69354486  0.71213261  0.09736535  1
  Sc  Sc86  1  0.09812815  0.50206318  0.49247785  1
  Sc  Sc87  1  0.90597014  0.10193619  0.10145282  1
  Sc  Sc88  1  0.48175334  0.29849593  0.30111723  1
  Sc  Sc89  1  0.69988333  0.11356419  0.49817200  1
  Sc  Sc90  1  0.30358217  0.89675509  0.50050231  1
  Sc  Sc91  1  0.68469874  0.50061645  0.49843681  1
  Sc  Sc92  1  0.70587089  0.88950996  0.69758861  1
  Sc  Sc93  1  0.50181985  0.29851558  0.89398758  1
  Sc  Sc94  1  0.29185931  0.69928737  0.69462071  1
  Sc  Sc95  1  0.69847192  0.09280977  0.30236531  1
  Sc  Sc96  1  0.30502492  0.10100352  0.50532655  1
  Sc  Sc97  1  0.10225096  0.08741872  0.91487050  1
  Sc  Sc98  1  0.89739530  0.90086427  0.71169796  1
  Sc  Sc99  1  0.30031633  0.50120567  0.49861315  1
  Nb  Nb100  1  0.70480591  0.49608618  0.10069849  1
  Nb  Nb101  1  0.10152808  0.09741725  0.70421736  1
  Nb  Nb102  1  0.89698709  0.30478087  0.29502107  1
  Nb  Nb103  1  0.29407482  0.29713711  0.29665714  1
  Nb  Nb104  1  0.50269778  0.50789971  0.29714997  1
  Nb  Nb105  1  0.50519400  0.29817250  0.50051396  1
  Nb  Nb106  1  0.10425684  0.09872218  0.29921653  1
  Nb  Nb107  1  0.29888022  0.10010021  0.90216578  1
  Nb  Nb108  1  0.90174860  0.90136019  0.90286125  1
  Nb  Nb109  1  0.30329731  0.70902441  0.10893821  1
  Nb  Nb110  1  0.30142894  0.88853801  0.10222725  1
  Nb  Nb111  1  0.49916897  0.90168572  0.69754070  1
  Nb  Nb112  1  0.90308605  0.08706018  0.89774195  1
  Nb  Nb113  1  0.69983304  0.30011050  0.50170093  1
  Nb  Nb114  1  0.30650981  0.69724740  0.28813916  1
  Nb  Nb115  1  0.90565285  0.71529224  0.90544512  1
  Nb  Nb116  1  0.29609565  0.09373584  0.09788620  1
  Nb  Nb117  1  0.90564879  0.29177638  0.90414785  1
  Nb  Nb118  1  0.10644572  0.09853490  0.10940859  1
  Nb  Nb119  1  0.50025914  0.09833148  0.09485710  1
  Nb  Nb120  1  0.50121205  0.90309962  0.50953472  1
  Nb  Nb121  1  0.50142050  0.09769507  0.90476304  1
  Nb  Nb122  1  0.09969007  0.49632657  0.09900742  1
  Nb  Nb123  1  0.70595944  0.90497234  0.09807122  1
  Nb  Nb124  1  0.90410226  0.69782161  0.30189528  1
  Nb  Nb125  1  0.79830209  0.40136162  0.40182763  1
  Nb  Nb126  1  0.79933092  0.60096856  0.39456448  1
  Nb  Nb127  1  0.79988172  0.59990629  0.19744113  1
  Nb  Nb128  1  0.00589336  0.80391752  0.60525734  1
  Nb  Nb129  1  0.59363343  0.20157876  0.19341494  1
  Nb  Nb130  1  0.00345047  0.80120131  0.20751988  1
  Nb  Nb131  1  0.39835314  0.18673221  -0.00080884  1
  Nb  Nb132  1  0.40073694  -0.00150934  0.18995108  1
  Nb  Nb133  1  0.19776222  0.39422074  0.19793843  1
  Nb  Nb134  1  0.80054717  -0.00299794  -0.00586516  1
  Nb  Nb135  1  0.19672283  0.39879885  0.60333410  1
  Nb  Nb136  1  0.80579565  0.59785109  0.00418914  1
  Nb  Nb137  1  0.80310204  0.79445514  0.39263750  1
  Nb  Nb138  1  0.59376797  -0.00092850  0.60286845  1
  Nb  Nb139  1  0.19758298  0.19991182  0.39445446  1
  Nb  Nb140  1  0.00213646  0.19003974  0.80741504  1
  Nb  Nb141  1  0.19591209  0.19588250  0.80440014  1
  Nb  Nb142  1  0.59234948  0.00061867  0.79419227  1
  Nb  Nb143  1  0.19810163  0.19703862  0.20194069  1
  Nb  Nb144  1  0.40431107  0.60336379  0.39207403  1
  Nb  Nb145  1  -0.00259633  0.59907991  0.00172399  1
  Nb  Nb146  1  0.40179883  0.60254319  0.80331459  1
  Nb  Nb147  1  0.59788694  0.39979246  0.19809762  1
  Nb  Nb148  1  0.79409290  0.39873404  0.59475770  1
  Nb  Nb149  1  0.19942389  0.39507659  0.79136251  1
  Pd  Pd150  1  0.59353196  0.39356448  0.00409548  1
  Pd  Pd151  1  0.61004432  0.60585901  0.00417281  1
  Pd  Pd152  1  0.59145296  0.81199150  0.19201386  1
  Pd  Pd153  1  0.59697019  0.38914997  0.38951636  1
  Pd  Pd154  1  0.80977229  0.40261446  -0.00814841  1
  Pd  Pd155  1  0.00073534  0.18828146  -0.00189234  1
  Pd  Pd156  1  0.81011099  0.60546434  0.81730160  1
  Pd  Pd157  1  0.40464007  0.79269693  0.39440311  1
  Pd  Pd158  1  -0.00276941  -0.00521490  0.60234245  1
  Pd  Pd159  1  0.20516928  -0.00384884  0.59238788  1
  Pd  Pd160  1  0.41284442  0.81525960  0.20696910  1
  Pd  Pd161  1  0.60769165  -0.00546360  -0.01223968  1
  Pd  Pd162  1  0.39419935  -0.00433949  0.00232572  1
  Pd  Pd163  1  0.78823532  -0.00117602  0.59967568  1
  Pd  Pd164  1  -0.00825109  0.01269993  0.40498898  1
  Pd  Pd165  1  0.01376084  0.79651795  0.01136538  1
  Pd  Pd166  1  0.59647998  0.61458738  0.40752148  1
  Pd  Pd167  1  0.79172190  0.19181258  0.20150988  1
  Pd  Pd168  1  0.39802141  0.19597609  0.80694399  1
  Pd  Pd169  1  0.80613034  0.19987576  0.80643766  1
  Pd  Pd170  1  0.80574146  0.79601399  0.20278267  1
  Pd  Pd171  1  0.78359282  0.00236339  0.80625166  1
  Pd  Pd172  1  0.20612937  0.79548547  0.39436146  1
  Pd  Pd173  1  -0.00584612  0.00008927  0.20122765  1
  Pd  Pd174  1  0.21362561  0.00119756  0.20988200  1
  Pd  Pd175  1  0.39519733  -0.00274933  0.40083649  1
  Pd  Pd176  1  0.20752775  0.80157745  0.80442655  1
  Pd  Pd177  1  0.39608419  0.39726912  0.60117995  1
  Pd  Pd178  1  0.60235977  0.39920452  0.60458901  1
  Pd  Pd179  1  0.80451382  0.19011531  -0.00499255  1
  Pd  Pd180  1  0.60006998  0.60327113  0.59994977  1
  Pd  Pd181  1  -0.00050870  0.19194279  0.39475063  1
  Pd  Pd182  1  0.20942710  0.59920104  0.39293470  1
  Pd  Pd183  1  0.59989728  0.39818765  0.80010550  1
  Pd  Pd184  1  0.21227257  0.58588266  0.20194874  1
  Pd  Pd185  1  -0.01045833  0.19356775  0.60790289  1
  Pd  Pd186  1  0.60609554  0.79747986  0.40550402  1
  Pd  Pd187  1  0.20336060  -0.01016356  -0.00148221  1
  Pd  Pd188  1  0.59877170  0.20766682  0.38969824  1
  Pd  Pd189  1  -0.00040853  0.40116686  0.60411228  1
  Pd  Pd190  1  0.40544186  0.00875516  0.79781244  1
  Pd  Pd191  1  0.79650260  -0.00268870  0.40569348  1
  Pd  Pd192  1  0.39814982  0.40830098  0.20137855  1
  Pd  Pd193  1  0.19370287  0.80677093  0.21200004  1
  Pd  Pd194  1  0.39088291  0.78865665  0.79652896  1
  Pd  Pd195  1  0.00672996  0.38748245  0.79422559  1
  Pd  Pd196  1  -0.00761065  0.60731349  0.18632890  1
  Pd  Pd197  1  0.39624523  0.79639292  0.60501771  1
  Pd  Pd198  1  0.20694833  0.20682508  0.59742841  1
  Pd  Pd199  1  0.19507973  0.59182132  0.59813394  1
  Rh  Rh200  1  0.59280466  -0.00002294  0.19462321  1
  Rh  Rh201  1  0.80080343  0.20581376  0.39512382  1
  Rh  Rh202  1  0.59939876  0.80388741  0.79284020  1
  Rh  Rh203  1  0.60577469  0.59710337  0.18597106  1
  Rh  Rh204  1  0.79505920  0.80100798  -0.00377869  1
  Rh  Rh205  1  0.40429138  0.60637131  0.59693355  1
  Rh  Rh206  1  0.41004883  0.40607054  0.39539759  1
  Rh  Rh207  1  0.58913061  0.20949394  0.00456823  1
  Rh  Rh208  1  0.39705782  0.40977729  0.79653403  1
  Rh  Rh209  1  -0.00271549  0.00118081  0.00630038  1
  Rh  Rh210  1  0.39463837  0.60927916  -0.00375499  1
  Rh  Rh211  1  0.60128293  0.80817744  0.60445388  1
  Rh  Rh212  1  0.40124695  0.20664170  0.58930651  1
  Rh  Rh213  1  0.19967859  0.80490156  0.00241584  1
  Rh  Rh214  1  0.80715091  0.79553970  0.80316532  1
  Rh  Rh215  1  0.20228785  0.40616550  0.00514977  1
  Rh  Rh216  1  0.39450176  0.80198253  -0.00158617  1
  Rh  Rh217  1  0.59366431  0.19475966  0.79649653  1
  Rh  Rh218  1  0.40404363  0.39380135  -0.00356445  1
  Rh  Rh219  1  0.80303090  0.20703249  0.60240682  1
  Rh  Rh220  1  0.18816135  0.39345628  0.39769605  1
  Rh  Rh221  1  0.59498274  0.19754994  0.59763228  1
  Rh  Rh222  1  -0.00634346  0.79613226  0.40457684  1
  Rh  Rh223  1  0.00452839  0.20116118  0.20208190  1
  Rh  Rh224  1  -0.00613618  0.40238105  0.40143737  1
  Rh  Rh225  1  0.59986131  0.80062736  0.00093544  1
  Rh  Rh226  1  0.40401777  0.00184831  0.59964331  1
  Rh  Rh227  1  0.39494187  0.59337619  0.20411239  1
  Rh  Rh228  1  0.60837888  0.00183384  0.41441378  1
  Rh  Rh229  1  0.01077861  0.61043905  0.59632791  1
  Rh  Rh230  1  -0.00901633  0.60699179  0.81379114  1
  Rh  Rh231  1  0.78887295  0.58865078  0.59064054  1
  Rh  Rh232  1  0.00806932  -0.00041868  0.80361070  1
  Rh  Rh233  1  0.20660376  0.00997487  0.40344269  1
  Rh  Rh234  1  0.19657829  0.80580087  0.59754717  1
  Rh  Rh235  1  0.21152271  0.59392020  0.79742842  1
  Rh  Rh236  1  0.78889099  0.40402693  0.21058037  1
  Rh  Rh237  1  0.20432743  0.19284144  0.00178640  1
  Rh  Rh238  1  0.19619828  0.00379975  0.80848504  1
  Rh  Rh239  1  0.39704425  0.18782584  0.19046817  1
  Rh  Rh240  1  0.80331868  0.00722612  0.19032537  1
  Rh  Rh241  1  0.59233022  0.60264212  0.80008323  1
  Rh  Rh242  1  -0.00606068  0.40349211  0.00232744  1
  Rh  Rh243  1  0.39666786  0.20061641  0.40408453  1
  Rh  Rh244  1  -0.00231822  0.80301178  0.79489520  1
  Rh  Rh245  1  0.81295464  0.80216348  0.59499184  1
  Rh  Rh246  1  0.19975864  0.59763595  0.00594925  1
  Rh  Rh247  1  0.79766401  0.39180621  0.79914409  1
  Rh  Rh248  1  -0.00338681  0.60037791  0.40497764  1
  Rh  Rh249  1  0.00963864  0.38880605  0.19143561  1
