# generated using pymatgen
data_ZrScNbPdRh
_symmetry_space_group_name_H-M   'P 1'
_cell_length_a   16.56308189
_cell_length_b   16.55867618
_cell_length_c   16.56119901
_cell_angle_alpha   89.99013401
_cell_angle_beta   89.97566530
_cell_angle_gamma   89.97998048
_symmetry_Int_Tables_number   1
_chemical_formula_structural   ZrScNbPdRh
_chemical_formula_sum   'Zr50 Sc50 Nb50 Pd50 Rh50'
_cell_volume   4542.11855936
_cell_formula_units_Z   50
loop_
 _symmetry_equiv_pos_site_id
 _symmetry_equiv_pos_as_xyz
  1  'x, y, z'
loop_
 _atom_site_type_symbol
 _atom_site_label
 _atom_site_symmetry_multiplicity
 _atom_site_fract_x
 _atom_site_fract_y
 _atom_site_fract_z
 _atom_site_occupancy
  Zr  Zr0  1  0.90135464  0.89858965  0.90049987  1
  Zr  Zr1  1  0.30263128  0.89156642  0.89324386  1
  Zr  Zr2  1  0.30338883  0.10391876  0.69934296  1
  Zr  Zr3  1  0.89637048  0.90450544  0.69900739  1
  Zr  Zr4  1  0.89437127  0.10204351  0.10562784  1
  Zr  Zr5  1  0.69686800  0.50300136  0.09740770  1
  Zr  Zr6  1  0.09572251  0.09507926  0.48999332  1
  Zr  Zr7  1  0.10667754  0.70120495  0.30138243  1
  Zr  Zr8  1  0.30509236  0.69742118  0.90484302  1
  Zr  Zr9  1  0.48921680  0.30447937  0.69415838  1
  Zr  Zr10  1  0.10071861  0.70230971  0.89742873  1
  Zr  Zr11  1  0.49518341  0.69302452  0.09997526  1
  Zr  Zr12  1  0.89745720  0.29900991  0.09817906  1
  Zr  Zr13  1  0.90530183  0.70180375  0.29981052  1
  Zr  Zr14  1  0.31084743  0.49451870  0.90082436  1
  Zr  Zr15  1  0.09491405  0.68967952  0.70202149  1
  Zr  Zr16  1  0.70158995  0.90041205  0.69143170  1
  Zr  Zr17  1  0.49913230  0.70116331  0.29803148  1
  Zr  Zr18  1  0.90173300  0.89958474  0.30084645  1
  Zr  Zr19  1  0.08526613  0.50310292  0.89767208  1
  Zr  Zr20  1  0.30071072  0.30531768  0.70687124  1
  Zr  Zr21  1  0.10006651  0.69799615  0.10081959  1
  Zr  Zr22  1  0.50967844  0.89863545  0.29327060  1
  Zr  Zr23  1  0.09908093  0.29518166  0.10209376  1
  Zr  Zr24  1  0.51287440  0.09961630  0.29642783  1
  Zr  Zr25  1  0.69941366  0.89607422  0.09922872  1
  Zr  Zr26  1  0.68260676  0.89961454  0.89812934  1
  Zr  Zr27  1  0.50455026  0.31393433  0.49155691  1
  Zr  Zr28  1  0.50030942  0.90004693  0.71183130  1
  Zr  Zr29  1  0.09913974  0.70117027  0.50127909  1
  Zr  Zr30  1  0.29096064  0.49508281  0.30208172  1
  Zr  Zr31  1  0.90097686  0.30570028  0.89744949  1
  Zr  Zr32  1  0.29558034  0.49524887  0.70048066  1
  Zr  Zr33  1  0.89100380  0.30281780  0.49758905  1
  Zr  Zr34  1  0.90090687  0.30935629  0.30590701  1
  Zr  Zr35  1  0.30234541  0.89011528  0.29279759  1
  Zr  Zr36  1  0.29961443  0.70007968  0.10687092  1
  Zr  Zr37  1  0.69984977  0.70054389  0.50912232  1
  Zr  Zr38  1  0.30793157  0.50050622  0.49308283  1
  Zr  Zr39  1  0.69418561  0.90123121  0.29655228  1
  Zr  Zr40  1  0.69588726  0.10734908  0.09899096  1
  Zr  Zr41  1  0.09430746  0.28939785  0.49976064  1
  Zr  Zr42  1  0.70007571  0.10233756  0.49486436  1
  Zr  Zr43  1  0.10233198  0.89723368  0.89972710  1
  Zr  Zr44  1  0.30348354  0.69208712  0.29324190  1
  Zr  Zr45  1  0.50581112  0.48599874  0.09587718  1
  Zr  Zr46  1  0.69414680  0.30330052  0.09428604  1
  Zr  Zr47  1  0.89533512  0.50332509  0.10033350  1
  Zr  Zr48  1  0.90307298  0.69396307  0.90468728  1
  Zr  Zr49  1  0.49401597  0.49357119  0.30582485  1
  Sc  Sc50  1  0.30905555  0.50332235  0.10756317  1
  Sc  Sc51  1  0.69796844  0.51033486  0.90075888  1
  Sc  Sc52  1  0.90409835  0.89966822  0.50583493  1
  Sc  Sc53  1  0.89778957  0.30421275  0.70073743  1
  Sc  Sc54  1  0.29733667  0.29734018  0.11079732  1
  Sc  Sc55  1  0.70356450  0.69418189  0.09474763  1
  Sc  Sc56  1  0.49707744  0.10120934  0.70175332  1
  Sc  Sc57  1  0.10841879  0.50845393  0.49557702  1
  Sc  Sc58  1  0.90514221  0.69931092  0.50968868  1
  Sc  Sc59  1  0.50609665  0.10064415  0.49557327  1
  Sc  Sc60  1  0.09566329  0.10366492  0.10786896  1
  Sc  Sc61  1  0.89471313  0.70126838  0.09814017  1
  Sc  Sc62  1  0.70444458  0.09378367  0.69966955  1
  Sc  Sc63  1  0.29072988  0.10111412  0.29360655  1
  Sc  Sc64  1  0.09338007  0.90039063  0.70372717  1
  Sc  Sc65  1  0.70817305  0.29995738  0.90170080  1
  Sc  Sc66  1  0.29608102  0.89121172  0.09744036  1
  Sc  Sc67  1  0.29086684  0.10009741  0.49998131  1
  Sc  Sc68  1  0.09609557  0.90207636  0.49289864  1
  Sc  Sc69  1  0.69493404  0.48924140  0.51065438  1
  Sc  Sc70  1  0.70044620  0.29984140  0.31394341  1
  Sc  Sc71  1  0.70009638  0.10608756  0.90084564  1
  Sc  Sc72  1  0.90021252  0.09959769  0.29139562  1
  Sc  Sc73  1  0.09461587  0.30615169  0.90714829  1
  Sc  Sc74  1  0.51232853  0.09546497  0.89856700  1
  Sc  Sc75  1  0.89511248  0.50301109  0.70801429  1
  Sc  Sc76  1  0.50020984  0.50650374  0.90874380  1
  Sc  Sc77  1  0.89939116  0.89599821  0.10786659  1
  Sc  Sc78  1  0.70149810  0.49526438  0.29172286  1
  Sc  Sc79  1  0.29975201  0.10382085  0.90350965  1
  Sc  Sc80  1  0.69554033  0.69820613  0.28915962  1
  Sc  Sc81  1  0.90081249  0.09501853  0.69650141  1
  Sc  Sc82  1  0.49853445  0.50634660  0.69013563  1
  Sc  Sc83  1  0.30050936  0.30456681  0.50506586  1
  Sc  Sc84  1  0.30450639  0.69240381  0.50266060  1
  Sc  Sc85  1  0.28576234  0.10294958  0.09947576  1
  Sc  Sc86  1  0.89820442  0.09908073  0.89571129  1
  Sc  Sc87  1  0.09470066  0.89729651  0.30251854  1
  Sc  Sc88  1  0.10173578  0.89881033  0.09841325  1
  Sc  Sc89  1  0.10213239  0.09988439  0.91621754  1
  Sc  Sc90  1  0.49369820  0.31438568  0.90335684  1
  Sc  Sc91  1  0.90618618  0.10082146  0.50372574  1
  Sc  Sc92  1  0.09684684  0.10307497  0.67997989  1
  Sc  Sc93  1  0.69832422  0.68460467  0.69859211  1
  Sc  Sc94  1  0.29229124  0.90100403  0.49728791  1
  Sc  Sc95  1  0.89986758  0.49820764  0.90268975  1
  Sc  Sc96  1  0.50359204  0.30341736  0.29275686  1
  Sc  Sc97  1  0.71256599  0.31141058  0.69253433  1
  Sc  Sc98  1  0.51505936  0.89371374  0.50564853  1
  Sc  Sc99  1  0.30321309  0.69837367  0.70894210  1
  Nb  Nb100  1  0.50643226  0.90491863  0.09642405  1
  Nb  Nb101  1  0.50576209  0.29503688  0.09577902  1
  Nb  Nb102  1  0.49610878  0.69809138  0.68714096  1
  Nb  Nb103  1  0.10413192  0.49930754  0.29824413  1
  Nb  Nb104  1  0.30056117  0.90094647  0.70178814  1
  Nb  Nb105  1  0.69892625  0.09294995  0.30174892  1
  Nb  Nb106  1  0.89352086  0.70532104  0.69950698  1
  Nb  Nb107  1  0.09437633  0.10679255  0.30048712  1
  Nb  Nb108  1  0.09643355  0.49350806  0.70118316  1
  Nb  Nb109  1  0.10853473  0.30316197  0.30043591  1
  Nb  Nb110  1  0.50536707  0.70496318  0.89657164  1
  Nb  Nb111  1  0.90310481  0.49696922  0.48659855  1
  Nb  Nb112  1  0.69608795  0.49710440  0.70382238  1
  Nb  Nb113  1  0.70079208  0.70373438  0.90142159  1
  Nb  Nb114  1  0.49776515  0.68976238  0.50743624  1
  Nb  Nb115  1  0.70531650  0.90067871  0.50015406  1
  Nb  Nb116  1  0.50497199  0.10775096  0.09896285  1
  Nb  Nb117  1  0.90057785  0.50023604  0.30370902  1
  Nb  Nb118  1  0.29511220  0.30241433  0.30247199  1
  Nb  Nb119  1  0.30174923  0.30258064  0.90274666  1
  Nb  Nb120  1  0.09904384  0.30640437  0.70034349  1
  Nb  Nb121  1  0.69774999  0.29921869  0.50053337  1
  Nb  Nb122  1  0.49686718  0.50373939  0.49825172  1
  Nb  Nb123  1  0.50154286  0.89973625  0.90425563  1
  Nb  Nb124  1  0.10022476  0.49659418  0.10093263  1
  Nb  Nb125  1  0.20279647  0.00481399  0.79619479  1
  Nb  Nb126  1  0.40706117  0.00285199  0.19259236  1
  Nb  Nb127  1  0.39879333  0.19949846  0.39281838  1
  Nb  Nb128  1  0.59909538  0.59826271  0.40675785  1
  Nb  Nb129  1  0.20105543  0.40527845  0.00294673  1
  Nb  Nb130  1  0.79591171  -0.00308361  0.00297564  1
  Nb  Nb131  1  0.79886990  0.59868484  0.40120214  1
  Nb  Nb132  1  0.00383971  0.40398848  0.20665953  1
  Nb  Nb133  1  0.60200983  0.40286506  0.79376464  1
  Nb  Nb134  1  0.40664162  0.80012743  0.40254623  1
  Nb  Nb135  1  0.19490047  0.20370594  0.79966799  1
  Nb  Nb136  1  0.00880230  0.20432473  0.79570284  1
  Nb  Nb137  1  0.60040841  0.21256945  0.79121281  1
  Nb  Nb138  1  0.40295981  -0.00280873  0.39555936  1
  Nb  Nb139  1  0.40549657  0.19860595  0.00642174  1
  Nb  Nb140  1  0.60389391  0.20979827  0.59919022  1
  Nb  Nb141  1  0.19890276  0.59316347  0.00056147  1
  Nb  Nb142  1  0.00325782  0.59136692  0.20432832  1
  Nb  Nb143  1  0.20090410  0.79999139  0.60714168  1
  Nb  Nb144  1  0.79622101  0.79929918  0.40385800  1
  Nb  Nb145  1  0.79558545  -0.00423533  0.39797994  1
  Nb  Nb146  1  0.00313841  0.40546261  0.59822525  1
  Nb  Nb147  1  0.79692641  0.79487880  0.80016068  1
  Nb  Nb148  1  0.39763707  -0.00589846  0.59860041  1
  Nb  Nb149  1  0.40801577  -0.00023819  0.00406686  1
  Pd  Pd150  1  0.40942638  0.59798375  0.79759247  1
  Pd  Pd151  1  -0.00888028  0.00048924  0.00845136  1
  Pd  Pd152  1  0.80628537  0.18987753  0.39503270  1
  Pd  Pd153  1  0.81018144  0.41095283  0.59746475  1
  Pd  Pd154  1  0.40649238  0.79326758  0.79849126  1
  Pd  Pd155  1  0.19378797  0.40047729  0.59103690  1
  Pd  Pd156  1  0.79499891  0.40737216  -0.00549158  1
  Pd  Pd157  1  0.59340426  0.00824943  0.60283695  1
  Pd  Pd158  1  0.40631749  0.19232000  0.58475053  1
  Pd  Pd159  1  0.79811800  0.19544057  0.60461577  1
  Pd  Pd160  1  -0.00849705  0.58985272  0.60399700  1
  Pd  Pd161  1  0.20277212  -0.00149842  0.38863948  1
  Pd  Pd162  1  0.19748836  -0.00432806  0.20371344  1
  Pd  Pd163  1  0.79224525  -0.00583260  0.80967526  1
  Pd  Pd164  1  -0.00683270  0.79628951  0.79653411  1
  Pd  Pd165  1  0.60172431  0.78972981  0.40453980  1
  Pd  Pd166  1  0.79784153  0.79472438  0.20377432  1
  Pd  Pd167  1  0.00683266  0.80479339  0.60200858  1
  Pd  Pd168  1  -0.00679385  0.19692983  -0.00644801  1
  Pd  Pd169  1  0.80578483  0.58910718  0.59413713  1
  Pd  Pd170  1  0.59137831  0.59999397  0.79919977  1
  Pd  Pd171  1  0.00024071  0.60297754  0.39745479  1
  Pd  Pd172  1  0.20036380  0.59356031  0.80764766  1
  Pd  Pd173  1  0.79937038  0.39565265  0.20139407  1
  Pd  Pd174  1  0.00632843  -0.00209046  0.19949454  1
  Pd  Pd175  1  0.59692278  0.79035806  0.00598110  1
  Pd  Pd176  1  0.59472551  0.59328039  0.20410674  1
  Pd  Pd177  1  0.20916742  0.79283100  0.40743817  1
  Pd  Pd178  1  0.61080720  0.20864876  0.20834730  1
  Pd  Pd179  1  0.39940622  0.39594754  0.19786017  1
  Pd  Pd180  1  0.19943454  -0.00805129  0.60424438  1
  Pd  Pd181  1  0.39638148  0.19386638  0.20059742  1
  Pd  Pd182  1  0.01369480  0.01601978  0.79837480  1
  Pd  Pd183  1  0.60340921  0.78829587  0.78810797  1
  Pd  Pd184  1  0.20183112  0.20605390  0.60432468  1
  Pd  Pd185  1  0.40534641  0.20022193  0.81464601  1
  Pd  Pd186  1  0.19473916  0.39754640  0.81144474  1
  Pd  Pd187  1  0.39805719  0.00521059  0.80635972  1
  Pd  Pd188  1  0.79275177  0.20806060  0.20853512  1
  Pd  Pd189  1  0.60093074  0.79677104  0.60818125  1
  Pd  Pd190  1  0.40414590  0.80329802  0.00390385  1
  Pd  Pd191  1  0.01301855  0.40098334  0.40290427  1
  Pd  Pd192  1  0.80172303  0.60198059  0.80430406  1
  Pd  Pd193  1  0.80097421  0.20167210  0.79329515  1
  Pd  Pd194  1  0.20578235  0.20091602  0.39870730  1
  Pd  Pd195  1  -0.00188688  0.80191812  0.00734783  1
  Pd  Pd196  1  -0.00913806  0.19731137  0.39378696  1
  Pd  Pd197  1  0.20997432  -0.00568784  -0.00506188  1
  Pd  Pd198  1  0.39324162  0.80621452  0.59375350  1
  Pd  Pd199  1  0.20553600  0.60416726  0.60407812  1
  Rh  Rh200  1  0.59896865  0.79300794  0.18663852  1
  Rh  Rh201  1  0.79325101  0.40718721  0.80524154  1
  Rh  Rh202  1  0.19939231  0.79129113  -0.00051678  1
  Rh  Rh203  1  0.19322339  0.19876543  0.20609832  1
  Rh  Rh204  1  0.80699558  0.19193297  -0.00246617  1
  Rh  Rh205  1  0.00420569  0.79428326  0.19705121  1
  Rh  Rh206  1  0.19597072  0.59600452  0.19507688  1
  Rh  Rh207  1  -0.00441673  0.39657176  0.79279463  1
  Rh  Rh208  1  0.40696533  0.58902803  0.20203984  1
  Rh  Rh209  1  0.79794853  0.60015842  -0.00363667  1
  Rh  Rh210  1  0.40544591  0.60634178  0.39586655  1
  Rh  Rh211  1  0.40914692  0.80717221  0.19809236  1
  Rh  Rh212  1  0.19275937  0.80397539  0.19984925  1
  Rh  Rh213  1  0.19747329  0.39693025  0.40693576  1
  Rh  Rh214  1  0.60304945  0.00345342  0.18846698  1
  Rh  Rh215  1  0.59809030  0.60655175  -0.00231025  1
  Rh  Rh216  1  -0.00869490  0.00375823  0.39552119  1
  Rh  Rh217  1  0.80411012  0.00392781  0.58857337  1
  Rh  Rh218  1  0.41016831  0.40948806  0.79726589  1
  Rh  Rh219  1  0.00198806  0.59991596  0.00852905  1
  Rh  Rh220  1  0.78970601  0.41073949  0.40371825  1
  Rh  Rh221  1  0.60624527  0.39836689  -0.01096459  1
  Rh  Rh222  1  0.20327438  0.60405749  0.39874304  1
  Rh  Rh223  1  0.39798983  0.40856678  0.59792476  1
  Rh  Rh224  1  0.00179424  0.21030814  0.20951177  1
  Rh  Rh225  1  0.59193517  0.20921942  -0.01591769  1
  Rh  Rh226  1  0.60288832  -0.00200889  0.40672317  1
  Rh  Rh227  1  0.19791904  0.39829876  0.19627870  1
  Rh  Rh228  1  0.80821932  0.60252695  0.20626887  1
  Rh  Rh229  1  -0.00722894  0.79956581  0.40613608  1
  Rh  Rh230  1  0.60388363  0.39520614  0.20071027  1
  Rh  Rh231  1  0.60026618  0.59431305  0.59632803  1
  Rh  Rh232  1  0.19715649  0.80583605  0.79273201  1
  Rh  Rh233  1  0.39394311  0.38994976  0.39653047  1
  Rh  Rh234  1  0.39100254  0.38856988  0.01337601  1
  Rh  Rh235  1  0.60289564  0.00410270  0.00280791  1
  Rh  Rh236  1  -0.00789225  0.60088197  0.79461329  1
  Rh  Rh237  1  0.60584876  0.40953486  0.39847315  1
  Rh  Rh238  1  0.40008080  0.60307668  0.00126664  1
  Rh  Rh239  1  0.39163316  0.59580521  0.60598223  1
  Rh  Rh240  1  0.60211264  0.00796594  0.79410470  1
  Rh  Rh241  1  -0.00794037  0.21197490  0.60588508  1
  Rh  Rh242  1  0.20787457  0.21271624  -0.00466195  1
  Rh  Rh243  1  0.79938384  0.79883260  0.60329004  1
  Rh  Rh244  1  0.00119086  0.39924184  0.01067202  1
  Rh  Rh245  1  0.59388950  0.20308513  0.40218614  1
  Rh  Rh246  1  0.79767422  0.80621498  -0.01063982  1
  Rh  Rh247  1  0.00155715  -0.00449580  0.59661079  1
  Rh  Rh248  1  0.79177426  0.00136436  0.19791933  1
  Rh  Rh249  1  0.59587172  0.39705909  0.60546773  1
