# generated using pymatgen
data_ZrScNbPdRh
_symmetry_space_group_name_H-M   'P 1'
_cell_length_a   16.55367358
_cell_length_b   16.55630319
_cell_length_c   16.55424162
_cell_angle_alpha   90.01838362
_cell_angle_beta   89.97489296
_cell_angle_gamma   90.02043623
_symmetry_Int_Tables_number   1
_chemical_formula_structural   ZrScNbPdRh
_chemical_formula_sum   'Zr50 Sc50 Nb50 Pd50 Rh50'
_cell_volume   4536.98095583
_cell_formula_units_Z   50
loop_
 _symmetry_equiv_pos_site_id
 _symmetry_equiv_pos_as_xyz
  1  'x, y, z'
loop_
 _atom_site_type_symbol
 _atom_site_label
 _atom_site_symmetry_multiplicity
 _atom_site_fract_x
 _atom_site_fract_y
 _atom_site_fract_z
 _atom_site_occupancy
  Zr  Zr0  1  0.10077513  0.69307388  0.30860281  1
  Zr  Zr1  1  0.31105125  0.30730446  0.70596388  1
  Zr  Zr2  1  0.10057214  0.89577747  0.89700088  1
  Zr  Zr3  1  0.70441590  0.30280094  0.10578401  1
  Zr  Zr4  1  0.50085530  0.71033560  0.90308229  1
  Zr  Zr5  1  0.50294454  0.70743521  0.69175317  1
  Zr  Zr6  1  0.90053395  0.09526670  0.09970835  1
  Zr  Zr7  1  0.89918063  0.69853107  0.30646376  1
  Zr  Zr8  1  0.49808520  0.50524479  0.90486971  1
  Zr  Zr9  1  0.10912482  0.30375124  0.09453752  1
  Zr  Zr10  1  0.49502117  0.09933762  0.29805891  1
  Zr  Zr11  1  0.30135143  0.10020497  0.10083793  1
  Zr  Zr12  1  0.09717870  0.70646851  0.50927639  1
  Zr  Zr13  1  0.50754082  0.30125592  0.50660456  1
  Zr  Zr14  1  0.10172307  0.90429509  0.09972312  1
  Zr  Zr15  1  0.29038635  0.29960961  0.90032033  1
  Zr  Zr16  1  0.69662640  0.09212860  0.89851378  1
  Zr  Zr17  1  0.89514725  0.09935268  0.90598282  1
  Zr  Zr18  1  0.11235278  0.49876735  0.10563402  1
  Zr  Zr19  1  0.90326703  0.88629409  0.89958498  1
  Zr  Zr20  1  0.70146960  0.08011123  0.30159359  1
  Zr  Zr21  1  0.49616351  0.30197605  0.11142924  1
  Zr  Zr22  1  0.09964631  0.10286908  0.09496058  1
  Zr  Zr23  1  0.89799206  0.70858765  0.09689731  1
  Zr  Zr24  1  0.48969720  0.48408257  0.69709812  1
  Zr  Zr25  1  0.09572482  0.49173215  0.30333047  1
  Zr  Zr26  1  0.30662602  0.69948627  0.49886586  1
  Zr  Zr27  1  0.69925566  0.09617274  0.69764752  1
  Zr  Zr28  1  0.69823266  0.69993836  0.69607508  1
  Zr  Zr29  1  0.50008138  0.90637726  0.90032124  1
  Zr  Zr30  1  0.29583233  0.29451635  0.49650424  1
  Zr  Zr31  1  0.49622422  0.90754202  0.70424626  1
  Zr  Zr32  1  0.89812290  0.89976304  0.69760292  1
  Zr  Zr33  1  0.69894324  0.90173368  0.49451125  1
  Zr  Zr34  1  0.69876086  0.70193667  0.29825533  1
  Zr  Zr35  1  0.90083504  0.11258415  0.69719885  1
  Zr  Zr36  1  0.29617171  0.50119481  0.69806212  1
  Zr  Zr37  1  0.50077245  0.09863221  0.09416928  1
  Zr  Zr38  1  0.09976752  0.50280999  0.50355523  1
  Zr  Zr39  1  0.49653424  0.10165080  0.50546190  1
  Zr  Zr40  1  0.09734308  0.51096140  0.89705612  1
  Zr  Zr41  1  0.10689264  0.09448746  0.70330579  1
  Zr  Zr42  1  0.90173509  0.10488767  0.50078695  1
  Zr  Zr43  1  0.69387534  0.50174013  0.10324676  1
  Zr  Zr44  1  0.50983033  0.10741912  0.89185881  1
  Zr  Zr45  1  0.10086541  0.10452859  0.49743086  1
  Zr  Zr46  1  0.29170808  0.70226496  0.90142723  1
  Zr  Zr47  1  0.49485298  0.69017147  0.09962027  1
  Zr  Zr48  1  0.30478047  0.10318789  0.30903842  1
  Zr  Zr49  1  0.29267846  0.91096775  0.70067681  1
  Sc  Sc50  1  0.49794348  0.89372010  0.50450650  1
  Sc  Sc51  1  0.69581098  0.28105372  0.90704369  1
  Sc  Sc52  1  0.50040497  0.29602843  0.30629825  1
  Sc  Sc53  1  0.90336321  0.31541589  0.30106371  1
  Sc  Sc54  1  0.90177818  0.29766499  0.09622899  1
  Sc  Sc55  1  0.10476532  0.69896083  0.08509302  1
  Sc  Sc56  1  0.70094938  0.70534658  0.90038002  1
  Sc  Sc57  1  0.29278968  0.49763542  0.89306337  1
  Sc  Sc58  1  0.30503640  0.90710205  0.29810842  1
  Sc  Sc59  1  0.69686199  0.09740145  0.50558161  1
  Sc  Sc60  1  0.09933431  0.89859739  0.69752135  1
  Sc  Sc61  1  0.49723208  0.89281776  0.09829304  1
  Sc  Sc62  1  0.68537480  0.69492076  0.49740973  1
  Sc  Sc63  1  0.70686273  0.09584117  0.08645669  1
  Sc  Sc64  1  0.30018274  0.90648603  0.50776308  1
  Sc  Sc65  1  0.89614676  0.49433236  0.10903701  1
  Sc  Sc66  1  0.09945374  0.29010517  0.71254894  1
  Sc  Sc67  1  0.30086822  0.10394419  0.70192689  1
  Sc  Sc68  1  0.70909205  0.49509908  0.30230070  1
  Sc  Sc69  1  0.29682704  0.09778397  0.50269832  1
  Sc  Sc70  1  0.29575452  0.70035580  0.68879933  1
  Sc  Sc71  1  0.10189048  0.10860699  0.89810698  1
  Sc  Sc72  1  0.89678604  0.91015071  0.29389284  1
  Sc  Sc73  1  0.29970901  0.69658689  0.10455464  1
  Sc  Sc74  1  0.91075607  0.69681393  0.49882720  1
  Sc  Sc75  1  0.90096429  0.29229396  0.50504165  1
  Sc  Sc76  1  0.49455032  0.70178815  0.30459297  1
  Sc  Sc77  1  0.50052156  0.49987438  0.49626557  1
  Sc  Sc78  1  0.30445130  0.90511850  0.90163739  1
  Sc  Sc79  1  0.29586931  0.50840449  0.29770390  1
  Sc  Sc80  1  0.89892632  0.90216833  0.09460266  1
  Sc  Sc81  1  0.89637295  0.50521480  0.49742069  1
  Sc  Sc82  1  0.69928496  0.89549885  0.68990040  1
  Sc  Sc83  1  0.29900910  0.49745570  0.50727937  1
  Sc  Sc84  1  0.10028274  0.09118044  0.31034077  1
  Sc  Sc85  1  0.69778385  0.70602954  0.10070315  1
  Sc  Sc86  1  0.49604022  0.50014162  0.29426725  1
  Sc  Sc87  1  0.10003448  0.29749992  0.49284962  1
  Sc  Sc88  1  0.10180133  0.50828879  0.70186822  1
  Sc  Sc89  1  0.89796484  0.50833003  0.69717883  1
  Sc  Sc90  1  0.90048784  0.70560544  0.69798176  1
  Sc  Sc91  1  0.90317569  0.89262313  0.50153572  1
  Sc  Sc92  1  0.69605619  0.89579804  0.90851182  1
  Sc  Sc93  1  0.70238316  0.29465247  0.68544818  1
  Sc  Sc94  1  0.30731402  0.69737591  0.29929511  1
  Sc  Sc95  1  0.29922624  0.90267749  0.09653652  1
  Sc  Sc96  1  0.70598616  0.50394385  0.69116382  1
  Sc  Sc97  1  0.90836789  0.28864143  0.89213168  1
  Sc  Sc98  1  0.50527322  0.89593922  0.29769474  1
  Sc  Sc99  1  0.69827668  0.49605093  0.49360896  1
  Nb  Nb100  1  0.09983846  0.30262847  0.90665507  1
  Nb  Nb101  1  0.30215146  0.10247759  0.90240006  1
  Nb  Nb102  1  0.50621937  0.11007484  0.70190466  1
  Nb  Nb103  1  0.10266443  0.29636316  0.30087640  1
  Nb  Nb104  1  0.09368967  0.70207657  0.89602391  1
  Nb  Nb105  1  0.89935514  0.50161695  0.89448212  1
  Nb  Nb106  1  0.30048365  0.30217321  0.10170645  1
  Nb  Nb107  1  0.90199869  0.29887977  0.69705359  1
  Nb  Nb108  1  0.69587056  0.30130677  0.48781524  1
  Nb  Nb109  1  0.90991990  0.69775259  0.90378994  1
  Nb  Nb110  1  0.49758504  0.70060342  0.49400147  1
  Nb  Nb111  1  0.70118794  0.89422853  0.29565151  1
  Nb  Nb112  1  0.49435700  0.49921277  0.09896909  1
  Nb  Nb113  1  0.30776813  0.29294041  0.29785154  1
  Nb  Nb114  1  0.10033653  0.90281227  0.49699459  1
  Nb  Nb115  1  0.69989230  0.49931841  0.89626149  1
  Nb  Nb116  1  0.71004040  0.89311552  0.11055086  1
  Nb  Nb117  1  0.69883569  0.30012474  0.30419568  1
  Nb  Nb118  1  0.10184539  0.70075386  0.69797631  1
  Nb  Nb119  1  0.49919543  0.29331027  0.70821083  1
  Nb  Nb120  1  0.09931655  0.89746862  0.30692523  1
  Nb  Nb121  1  0.90057839  0.50824769  0.30188570  1
  Nb  Nb122  1  0.30699533  0.49374983  0.10547498  1
  Nb  Nb123  1  0.89996777  0.10581654  0.29964784  1
  Nb  Nb124  1  0.49743040  0.30085452  0.89525279  1
  Nb  Nb125  1  0.79972676  0.39785939  0.80212143  1
  Nb  Nb126  1  0.00261788  0.00320153  0.59733514  1
  Nb  Nb127  1  -0.00004739  0.40490226  -0.00836355  1
  Nb  Nb128  1  0.00092067  0.60122403  0.20283415  1
  Nb  Nb129  1  0.80003569  0.40417850  -0.01212611  1
  Nb  Nb130  1  0.80519345  0.59546549  -0.00800075  1
  Nb  Nb131  1  0.59559409  0.59571379  0.79780221  1
  Nb  Nb132  1  0.19276268  0.80201981  0.20746995  1
  Nb  Nb133  1  0.20102605  0.20335787  0.20343655  1
  Nb  Nb134  1  0.00368040  0.20106211  0.20630801  1
  Nb  Nb135  1  0.80075821  -0.00141614  0.79979840  1
  Nb  Nb136  1  0.19445675  0.79611043  0.79914320  1
  Nb  Nb137  1  0.00683626  0.79834213  0.20434857  1
  Nb  Nb138  1  0.59656537  0.40112308  -0.00168385  1
  Nb  Nb139  1  0.39544054  0.39473036  0.39795448  1
  Nb  Nb140  1  0.80072454  0.19805967  0.20865296  1
  Nb  Nb141  1  0.79494121  0.20103804  0.39384539  1
  Nb  Nb142  1  0.60440019  0.39751900  0.80324243  1
  Nb  Nb143  1  0.19688222  0.80447459  0.40068307  1
  Nb  Nb144  1  0.39887058  0.20641090  -0.00283724  1
  Nb  Nb145  1  0.39926993  0.39883468  0.00448919  1
  Nb  Nb146  1  0.40470499  0.60492051  0.79739177  1
  Nb  Nb147  1  0.79474720  0.80098400  0.39429874  1
  Nb  Nb148  1  -0.00192679  0.39575662  0.60681695  1
  Nb  Nb149  1  0.60965688  0.19540289  0.20457256  1
  Pd  Pd150  1  0.60231151  -0.00028032  0.18975749  1
  Pd  Pd151  1  0.79704463  0.78941588  0.58408873  1
  Pd  Pd152  1  0.40631766  0.59874134  0.59998910  1
  Pd  Pd153  1  -0.00348197  0.39996902  0.79787188  1
  Pd  Pd154  1  0.20763447  0.59469738  0.00229073  1
  Pd  Pd155  1  0.20919277  0.39450397  0.21170130  1
  Pd  Pd156  1  0.19993228  0.00227846  0.20772426  1
  Pd  Pd157  1  0.80771101  -0.00229315  0.40555303  1
  Pd  Pd158  1  0.59742549  0.59357202  0.39166884  1
  Pd  Pd159  1  0.39626604  0.80584621  0.60225019  1
  Pd  Pd160  1  0.59147943  0.79510919  0.19630417  1
  Pd  Pd161  1  0.80297871  0.60095856  0.19379992  1
  Pd  Pd162  1  0.38758859  0.79552637  0.79329991  1
  Pd  Pd163  1  -0.00732205  0.59100529  0.01107966  1
  Pd  Pd164  1  -0.00706696  0.39929778  0.41199008  1
  Pd  Pd165  1  -0.00607297  0.00508715  0.79674187  1
  Pd  Pd166  1  0.19953335  0.20634000  0.60607064  1
  Pd  Pd167  1  0.40290715  -0.00612053  0.19670638  1
  Pd  Pd168  1  0.20410296  0.60383475  0.40798160  1
  Pd  Pd169  1  0.59601199  0.60164826  0.20704870  1
  Pd  Pd170  1  0.58947406  -0.00553915  0.40384401  1
  Pd  Pd171  1  0.60376212  -0.01102258  0.00978833  1
  Pd  Pd172  1  0.39338427  0.80707189  0.39771662  1
  Pd  Pd173  1  0.79446655  0.20151421  0.80011493  1
  Pd  Pd174  1  0.18887508  0.40024709  0.79655185  1
  Pd  Pd175  1  -0.00823718  -0.00344624  0.40467888  1
  Pd  Pd176  1  -0.00107839  0.39853441  0.19362339  1
  Pd  Pd177  1  0.20008204  0.00207904  -0.00755434  1
  Pd  Pd178  1  0.59872480  0.39830904  0.20587867  1
  Pd  Pd179  1  -0.00463093  0.60762137  0.79088775  1
  Pd  Pd180  1  0.79987939  0.60788586  0.58832593  1
  Pd  Pd181  1  0.39996357  0.01216598  0.80019455  1
  Pd  Pd182  1  0.40474536  -0.00754189  0.40622321  1
  Pd  Pd183  1  0.18888063  0.39047127  0.60783375  1
  Pd  Pd184  1  0.79584196  0.80162264  0.80249701  1
  Pd  Pd185  1  0.80568458  0.39730084  0.59896727  1
  Pd  Pd186  1  0.79701608  0.60283840  0.80193733  1
  Pd  Pd187  1  0.60524681  0.40178284  0.60422483  1
  Pd  Pd188  1  0.59322900  0.59123039  0.60216918  1
  Pd  Pd189  1  0.00183192  -0.00241144  -0.00866057  1
  Pd  Pd190  1  0.00340122  0.00163437  0.20363567  1
  Pd  Pd191  1  0.60806593  0.60273148  -0.00300461  1
  Pd  Pd192  1  0.20869155  0.39994732  0.39426167  1
  Pd  Pd193  1  0.39360459  0.80108226  0.00531190  1
  Pd  Pd194  1  0.39766991  0.20086547  0.60163221  1
  Pd  Pd195  1  0.38664883  0.59590792  -0.00515823  1
  Pd  Pd196  1  0.60347568  0.19150201  0.39664877  1
  Pd  Pd197  1  0.60569136  0.80348791  0.79871198  1
  Pd  Pd198  1  0.80775577  0.39656262  0.40451735  1
  Pd  Pd199  1  0.59492215  -0.00345842  0.60077912  1
  Rh  Rh200  1  0.80612940  0.20458497  0.00498178  1
  Rh  Rh201  1  0.20296277  -0.00261042  0.80803638  1
  Rh  Rh202  1  0.01102693  0.20202597  0.60387996  1
  Rh  Rh203  1  0.19278426  0.00194937  0.59475752  1
  Rh  Rh204  1  0.40019577  0.19565766  0.19554050  1
  Rh  Rh205  1  0.00468046  0.79318475  0.79205605  1
  Rh  Rh206  1  0.20003772  0.40959566  -0.00477476  1
  Rh  Rh207  1  0.19853449  0.19710393  0.39283503  1
  Rh  Rh208  1  0.81047550  0.00353031  0.60452030  1
  Rh  Rh209  1  0.40145608  0.60003830  0.20180830  1
  Rh  Rh210  1  0.59113563  0.40404499  0.39482593  1
  Rh  Rh211  1  0.19620209  0.60677582  0.19782219  1
  Rh  Rh212  1  0.60955777  0.20812593  0.79134005  1
  Rh  Rh213  1  0.39241340  0.79985537  0.19864577  1
  Rh  Rh214  1  0.19978467  0.80220933  -0.00169818  1
  Rh  Rh215  1  0.79894628  -0.01195753  -0.00477536  1
  Rh  Rh216  1  0.40449641  0.00755157  0.60661839  1
  Rh  Rh217  1  0.79754189  0.79577416  -0.00281404  1
  Rh  Rh218  1  -0.00013128  0.20694630  0.00423948  1
  Rh  Rh219  1  0.40223474  0.40480331  0.80982868  1
  Rh  Rh220  1  0.39506810  0.40325105  0.20793375  1
  Rh  Rh221  1  0.40474285  0.20447696  0.41056748  1
  Rh  Rh222  1  0.20556824  -0.00504711  0.40289362  1
  Rh  Rh223  1  0.39451618  0.19556962  0.80478336  1
  Rh  Rh224  1  0.00267294  0.80698793  0.60358001  1
  Rh  Rh225  1  0.40097982  0.59052317  0.40278848  1
  Rh  Rh226  1  0.60290143  0.80152488  0.40097068  1
  Rh  Rh227  1  0.80982456  0.80216889  0.20690798  1
  Rh  Rh228  1  0.19869481  0.80401640  0.59891742  1
  Rh  Rh229  1  0.79015252  0.20413873  0.58609216  1
  Rh  Rh230  1  0.39702097  0.39097669  0.58836887  1
  Rh  Rh231  1  0.00539098  0.80218705  0.00726783  1
  Rh  Rh232  1  -0.00648524  0.20629086  0.39063360  1
  Rh  Rh233  1  0.00138019  0.59437202  0.60411757  1
  Rh  Rh234  1  0.79496546  0.60715522  0.40306237  1
  Rh  Rh235  1  0.00096506  0.59050349  0.40069195  1
  Rh  Rh236  1  0.60817539  -0.00742974  0.79290639  1
  Rh  Rh237  1  -0.00494808  0.80723206  0.39517194  1
  Rh  Rh238  1  0.79974509  0.00155527  0.19452866  1
  Rh  Rh239  1  0.80284584  0.39835381  0.20218722  1
  Rh  Rh240  1  0.19844968  0.60207287  0.59584100  1
  Rh  Rh241  1  0.60009461  0.80100099  0.00925070  1
  Rh  Rh242  1  0.20655297  0.19653913  0.00337642  1
  Rh  Rh243  1  0.20404981  0.19959137  0.80250988  1
  Rh  Rh244  1  0.59768939  0.80187169  0.59331823  1
  Rh  Rh245  1  0.00364433  0.19554764  0.80278398  1
  Rh  Rh246  1  0.60275864  0.20119440  0.60036213  1
  Rh  Rh247  1  0.20531012  0.61172532  0.79413896  1
  Rh  Rh248  1  0.59026726  0.20846102  0.01184070  1
  Rh  Rh249  1  0.40368797  0.00778486  -0.00565782  1
