# generated using pymatgen
data_ZrScNbPdRh
_symmetry_space_group_name_H-M   'P 1'
_cell_length_a   16.54976751
_cell_length_b   16.55486420
_cell_length_c   16.55802335
_cell_angle_alpha   89.99393368
_cell_angle_beta   89.98595538
_cell_angle_gamma   90.02467771
_symmetry_Int_Tables_number   1
_chemical_formula_structural   ZrScNbPdRh
_chemical_formula_sum   'Zr50 Sc50 Nb50 Pd50 Rh50'
_cell_volume   4536.55264336
_cell_formula_units_Z   50
loop_
 _symmetry_equiv_pos_site_id
 _symmetry_equiv_pos_as_xyz
  1  'x, y, z'
loop_
 _atom_site_type_symbol
 _atom_site_label
 _atom_site_symmetry_multiplicity
 _atom_site_fract_x
 _atom_site_fract_y
 _atom_site_fract_z
 _atom_site_occupancy
  Zr  Zr0  1  0.09291205  0.09625732  0.09913527  1
  Zr  Zr1  1  0.30664229  0.09452351  0.11112748  1
  Zr  Zr2  1  0.30468408  0.70252617  0.09520180  1
  Zr  Zr3  1  0.70439785  0.89966898  0.69724614  1
  Zr  Zr4  1  0.09555671  0.51109314  0.90184568  1
  Zr  Zr5  1  0.89398997  0.29654357  0.90140213  1
  Zr  Zr6  1  0.69697875  0.50128152  0.50497669  1
  Zr  Zr7  1  0.30651628  0.09571717  0.89424847  1
  Zr  Zr8  1  0.89589840  0.50223155  0.90399384  1
  Zr  Zr9  1  0.89015614  0.09367579  0.70435248  1
  Zr  Zr10  1  0.49772647  0.50111778  0.50448389  1
  Zr  Zr11  1  0.10523754  0.10562146  0.29914935  1
  Zr  Zr12  1  0.30632304  0.29473999  0.50586651  1
  Zr  Zr13  1  0.90044658  0.89525981  0.09629993  1
  Zr  Zr14  1  0.10143018  0.89569578  0.51050214  1
  Zr  Zr15  1  0.69778471  0.10005173  0.70507641  1
  Zr  Zr16  1  0.90003851  0.50450314  0.29657281  1
  Zr  Zr17  1  0.50614054  0.90013239  0.30153458  1
  Zr  Zr18  1  0.09631851  0.70678908  0.09518060  1
  Zr  Zr19  1  0.69521254  0.49518061  0.70483907  1
  Zr  Zr20  1  0.10768904  0.08897435  0.70183404  1
  Zr  Zr21  1  0.70877618  0.09460997  0.49302076  1
  Zr  Zr22  1  0.89401396  0.10000626  0.08804133  1
  Zr  Zr23  1  0.09784873  0.10084835  0.89943247  1
  Zr  Zr24  1  0.69730806  0.69833106  0.69899555  1
  Zr  Zr25  1  0.70535082  0.69983147  0.49991261  1
  Zr  Zr26  1  0.30588528  0.30286738  0.09596840  1
  Zr  Zr27  1  0.30388668  0.89992878  0.70754821  1
  Zr  Zr28  1  0.89985827  0.30259216  0.29739829  1
  Zr  Zr29  1  0.10351207  0.09790040  0.50128768  1
  Zr  Zr30  1  0.29589274  0.28937117  0.29991617  1
  Zr  Zr31  1  0.50261246  0.90709146  0.69641098  1
  Zr  Zr32  1  0.49927379  0.29644702  0.50269074  1
  Zr  Zr33  1  0.49003719  0.89511910  0.89659993  1
  Zr  Zr34  1  0.50061837  0.51068237  0.10420325  1
  Zr  Zr35  1  0.30196403  0.49936294  0.90386181  1
  Zr  Zr36  1  0.89334600  0.10306496  0.90210511  1
  Zr  Zr37  1  0.48969128  0.29731673  0.89930475  1
  Zr  Zr38  1  0.10424387  0.29295170  0.50072916  1
  Zr  Zr39  1  0.30568585  0.70792689  0.90565370  1
  Zr  Zr40  1  0.09893144  0.30104836  0.29875803  1
  Zr  Zr41  1  0.89673379  0.50034989  0.50302596  1
  Zr  Zr42  1  0.69736454  0.29921646  0.89258861  1
  Zr  Zr43  1  0.70505353  0.69745951  0.30268516  1
  Zr  Zr44  1  0.29995829  0.88358580  0.49139401  1
  Zr  Zr45  1  0.90212416  0.70205675  0.90639602  1
  Zr  Zr46  1  0.30055625  0.50034512  0.09960724  1
  Zr  Zr47  1  0.89818456  0.29794166  0.09714040  1
  Zr  Zr48  1  0.50102794  0.29390933  0.69997463  1
  Zr  Zr49  1  0.69655633  0.50339465  0.10301308  1
  Sc  Sc50  1  0.50348934  0.09789706  0.29800588  1
  Sc  Sc51  1  0.89593786  0.69814404  0.09978992  1
  Sc  Sc52  1  0.29239813  0.69181235  0.49717302  1
  Sc  Sc53  1  0.69598402  0.89701921  0.30796714  1
  Sc  Sc54  1  0.68881846  0.09841608  0.08428712  1
  Sc  Sc55  1  0.50793138  0.69783542  0.30076213  1
  Sc  Sc56  1  0.09518016  0.89810037  0.89798619  1
  Sc  Sc57  1  0.90183002  0.89792743  0.69951196  1
  Sc  Sc58  1  0.10025578  0.30891275  0.10742783  1
  Sc  Sc59  1  0.89475315  0.89037310  0.29340561  1
  Sc  Sc60  1  0.90119439  0.50922174  0.10462257  1
  Sc  Sc61  1  0.70270632  0.50420770  0.30140930  1
  Sc  Sc62  1  0.50881183  0.51013655  0.30193153  1
  Sc  Sc63  1  0.30601461  0.09694933  0.69783677  1
  Sc  Sc64  1  0.69801549  0.30204724  0.30319102  1
  Sc  Sc65  1  0.29442321  0.50700190  0.30288595  1
  Sc  Sc66  1  0.49754942  0.69423645  0.49582294  1
  Sc  Sc67  1  0.09766188  0.69683569  0.29869511  1
  Sc  Sc68  1  0.90157099  0.69400687  0.50478009  1
  Sc  Sc69  1  0.50322753  0.09372738  0.90113944  1
  Sc  Sc70  1  0.89703123  0.69638515  0.29602587  1
  Sc  Sc71  1  0.09839021  0.89499753  0.09872691  1
  Sc  Sc72  1  0.90559739  0.49950287  0.69848063  1
  Sc  Sc73  1  0.09470883  0.51503643  0.50464990  1
  Sc  Sc74  1  0.90113739  0.10512541  0.30381765  1
  Sc  Sc75  1  0.50130725  0.10204077  0.50318985  1
  Sc  Sc76  1  0.88980499  0.31253435  0.70245661  1
  Sc  Sc77  1  0.69916524  0.89925845  0.90827223  1
  Sc  Sc78  1  0.49777506  0.70344124  0.90673176  1
  Sc  Sc79  1  0.69764878  0.70363918  0.09197972  1
  Sc  Sc80  1  0.90175921  0.70896339  0.70260460  1
  Sc  Sc81  1  0.69022409  0.50182642  0.89936015  1
  Sc  Sc82  1  0.10229577  0.89504800  0.28156217  1
  Sc  Sc83  1  0.09625065  0.69701915  0.69648621  1
  Sc  Sc84  1  0.51384513  0.90607950  0.09516006  1
  Sc  Sc85  1  0.89381367  0.09884944  0.50056740  1
  Sc  Sc86  1  0.50551108  0.29118756  0.30415031  1
  Sc  Sc87  1  0.69915034  0.30034928  0.50322013  1
  Sc  Sc88  1  0.50003122  0.69572384  0.69810736  1
  Sc  Sc89  1  0.50631851  0.50149766  0.69600613  1
  Sc  Sc90  1  0.50425175  0.50086930  0.89715310  1
  Sc  Sc91  1  0.89339799  0.89463339  0.89437018  1
  Sc  Sc92  1  0.30334857  0.10767788  0.49824613  1
  Sc  Sc93  1  0.09183725  0.30894182  0.90859233  1
  Sc  Sc94  1  0.29484625  0.89784138  0.10290018  1
  Sc  Sc95  1  0.29771518  0.70655634  0.30879063  1
  Sc  Sc96  1  0.89199532  0.29914314  0.50370831  1
  Sc  Sc97  1  0.29868967  0.69842650  0.69285150  1
  Sc  Sc98  1  0.09798057  0.50108072  0.29373472  1
  Sc  Sc99  1  0.09868300  0.89525806  0.69910420  1
  Nb  Nb100  1  0.71189836  0.09969169  0.89744536  1
  Nb  Nb101  1  0.70533753  0.09793674  0.30196936  1
  Nb  Nb102  1  0.69769773  0.30528595  0.70494257  1
  Nb  Nb103  1  0.69114367  0.30170225  0.10065334  1
  Nb  Nb104  1  0.50463088  0.90093151  0.49654955  1
  Nb  Nb105  1  0.30239678  0.89722129  0.89948358  1
  Nb  Nb106  1  0.70291407  0.89949243  0.49710473  1
  Nb  Nb107  1  0.30361596  0.30165541  0.70604555  1
  Nb  Nb108  1  0.09977760  0.70496273  0.89974134  1
  Nb  Nb109  1  0.50645666  0.29616167  0.10261025  1
  Nb  Nb110  1  0.10058689  0.30314178  0.70121530  1
  Nb  Nb111  1  0.70194505  0.90300592  0.09650224  1
  Nb  Nb112  1  0.10046622  0.70712521  0.50206568  1
  Nb  Nb113  1  0.89852655  0.89901452  0.49808711  1
  Nb  Nb114  1  0.49568458  0.70297107  0.10051584  1
  Nb  Nb115  1  0.30332957  0.08965738  0.29716028  1
  Nb  Nb116  1  0.70254754  0.70302121  0.89773252  1
  Nb  Nb117  1  0.10250778  0.49647082  0.70344253  1
  Nb  Nb118  1  0.29945232  0.50307240  0.69674623  1
  Nb  Nb119  1  0.29986285  0.49989346  0.50298063  1
  Nb  Nb120  1  0.30284526  0.30003297  0.89599513  1
  Nb  Nb121  1  0.30417610  0.90310544  0.29218549  1
  Nb  Nb122  1  0.10306740  0.50181271  0.10330075  1
  Nb  Nb123  1  0.50042201  0.09581805  0.70089353  1
  Nb  Nb124  1  0.49924751  0.10331655  0.09846356  1
  Nb  Nb125  1  0.00309727  0.20254298  0.79346468  1
  Nb  Nb126  1  0.00303810  0.39973520  0.40173588  1
  Nb  Nb127  1  0.39750993  -0.00587274  0.39598822  1
  Nb  Nb128  1  0.20344894  0.00294098  -0.00379587  1
  Nb  Nb129  1  0.40552220  0.80242548  0.20113108  1
  Nb  Nb130  1  0.00526252  -0.00861148  0.40082911  1
  Nb  Nb131  1  0.79633503  0.60484394  0.80442078  1
  Nb  Nb132  1  0.20276198  -0.00360149  0.39249813  1
  Nb  Nb133  1  0.20213801  0.40224576  0.79632785  1
  Nb  Nb134  1  0.40413958  0.39790917  0.20361508  1
  Nb  Nb135  1  0.40391692  0.80449375  0.59427686  1
  Nb  Nb136  1  0.20064035  0.21048583  0.80176396  1
  Nb  Nb137  1  0.39583296  0.40048715  0.40001692  1
  Nb  Nb138  1  0.20207397  0.79586348  0.80578117  1
  Nb  Nb139  1  0.20226508  0.40344851  0.60542983  1
  Nb  Nb140  1  0.79148534  0.39800795  0.00439572  1
  Nb  Nb141  1  0.79221477  0.00435623  0.19590092  1
  Nb  Nb142  1  0.19959674  0.60234603  0.19142577  1
  Nb  Nb143  1  0.00032312  0.80374679  0.40571503  1
  Nb  Nb144  1  0.00214711  0.19936737  0.61175930  1
  Nb  Nb145  1  0.20114918  0.40262539  0.40950003  1
  Nb  Nb146  1  0.79039225  0.19582003  0.19505582  1
  Nb  Nb147  1  0.20589848  0.19910337  -0.00392688  1
  Nb  Nb148  1  0.39362616  0.59792278  0.79842706  1
  Nb  Nb149  1  0.60164826  0.80023703  0.79995742  1
  Pd  Pd150  1  0.00002452  -0.00919616  -0.00684692  1
  Pd  Pd151  1  0.18766145  0.80374777  0.38865128  1
  Pd  Pd152  1  0.60731543  0.00490241  0.59240149  1
  Pd  Pd153  1  0.39310046  0.60595993  0.21113633  1
  Pd  Pd154  1  0.00089999  0.60349451  0.40013233  1
  Pd  Pd155  1  0.60556726  0.00621504  0.19852066  1
  Pd  Pd156  1  0.80930477  -0.00832369  0.38984888  1
  Pd  Pd157  1  0.59668596  0.39888557  -0.00209796  1
  Pd  Pd158  1  0.59365830  0.40218523  0.39830825  1
  Pd  Pd159  1  0.79698497  0.39672012  0.19426213  1
  Pd  Pd160  1  0.40303274  0.40981591  0.79419193  1
  Pd  Pd161  1  0.19538925  0.60034247  0.59924648  1
  Pd  Pd162  1  0.59347743  0.79650026  0.59857919  1
  Pd  Pd163  1  0.60151787  0.79568443  0.19499352  1
  Pd  Pd164  1  0.39536064  -0.00334874  0.58748696  1
  Pd  Pd165  1  0.80531385  0.80174720  0.59636884  1
  Pd  Pd166  1  0.20159507  0.20166753  0.61147327  1
  Pd  Pd167  1  -0.01124645  0.00039250  0.20807803  1
  Pd  Pd168  1  0.00517582  0.39574801  0.59315656  1
  Pd  Pd169  1  0.80078828  0.20450261  0.60747600  1
  Pd  Pd170  1  -0.00741567  0.19728291  0.19452548  1
  Pd  Pd171  1  -0.00772450  0.60510371  0.79493806  1
  Pd  Pd172  1  0.80378434  0.59759784  0.61236736  1
  Pd  Pd173  1  0.59211899  0.40200770  0.20865119  1
  Pd  Pd174  1  -0.00853349  0.19977092  0.41065571  1
  Pd  Pd175  1  0.20481193  0.60433645  0.79957303  1
  Pd  Pd176  1  0.39965604  0.40147242  0.60163371  1
  Pd  Pd177  1  0.41277557  0.40348794  0.00755375  1
  Pd  Pd178  1  0.19788665  0.39638320  -0.00542172  1
  Pd  Pd179  1  0.59578125  0.19535397  0.80475145  1
  Pd  Pd180  1  0.19947582  0.19838273  0.18934991  1
  Pd  Pd181  1  0.60693281  0.19505254  0.59922875  1
  Pd  Pd182  1  -0.00510253  -0.00090874  0.80204261  1
  Pd  Pd183  1  0.59721378  0.60748704  -0.00132429  1
  Pd  Pd184  1  0.39884972  0.19545784  0.00103428  1
  Pd  Pd185  1  0.00092430  0.39806470  0.80231800  1
  Pd  Pd186  1  0.39808114  -0.00602903  0.00851372  1
  Pd  Pd187  1  0.40712053  0.20302485  0.20394016  1
  Pd  Pd188  1  0.80322218  0.40075100  0.40217022  1
  Pd  Pd189  1  0.60484483  -0.00591234  0.80807381  1
  Pd  Pd190  1  0.39748671  0.59658536  0.39632745  1
  Pd  Pd191  1  0.79198052  0.80232928  0.19548416  1
  Pd  Pd192  1  0.19696357  0.60375937  0.00323437  1
  Pd  Pd193  1  0.21462463  -0.00540435  0.59187597  1
  Pd  Pd194  1  0.59982743  0.79370073  0.40597987  1
  Pd  Pd195  1  0.59867941  0.19834201  -0.00963553  1
  Pd  Pd196  1  -0.00793092  0.00477336  0.59692444  1
  Pd  Pd197  1  0.60415983  0.19342013  0.40338611  1
  Pd  Pd198  1  0.60595192  0.19130348  0.20064805  1
  Pd  Pd199  1  -0.00722995  0.40812969  0.00991443  1
  Rh  Rh200  1  0.40617247  0.81131711  0.01513154  1
  Rh  Rh201  1  0.20342032  -0.00829883  0.80714587  1
  Rh  Rh202  1  0.59962179  0.00205831  -0.00781444  1
  Rh  Rh203  1  0.20901632  0.78901086  0.20016930  1
  Rh  Rh204  1  0.40782826  0.59559360  -0.00826943  1
  Rh  Rh205  1  0.19265746  0.59649546  0.39771062  1
  Rh  Rh206  1  0.41022589  0.80317713  0.39662199  1
  Rh  Rh207  1  0.60662737  0.60087630  0.40466780  1
  Rh  Rh208  1  0.19621748  0.81025911  -0.00804849  1
  Rh  Rh209  1  0.79375097  0.60482857  0.19547816  1
  Rh  Rh210  1  0.79782334  -0.00560628  0.59799070  1
  Rh  Rh211  1  0.79759218  0.20604366  0.39286844  1
  Rh  Rh212  1  0.59093126  0.39430973  0.79902604  1
  Rh  Rh213  1  -0.00440817  0.79592057  0.59531951  1
  Rh  Rh214  1  -0.00343073  0.80076926  -0.00231412  1
  Rh  Rh215  1  0.59734144  0.61115730  0.80431554  1
  Rh  Rh216  1  0.40508898  0.00357059  0.79813880  1
  Rh  Rh217  1  0.79828874  -0.00630009  0.00088422  1
  Rh  Rh218  1  0.01058397  0.20518003  -0.00150338  1
  Rh  Rh219  1  0.80736835  0.79747023  0.40413019  1
  Rh  Rh220  1  0.00316218  0.60197666  0.00522849  1
  Rh  Rh221  1  0.00733050  0.60361677  0.19328053  1
  Rh  Rh222  1  0.59845614  0.60104665  0.59552522  1
  Rh  Rh223  1  0.80191409  0.59933084  0.40080401  1
  Rh  Rh224  1  -0.00284195  0.40538271  0.20189914  1
  Rh  Rh225  1  0.79661293  0.41131496  0.80686153  1
  Rh  Rh226  1  0.40094485  0.60563122  0.60288137  1
  Rh  Rh227  1  0.20570509  0.79798237  0.61052423  1
  Rh  Rh228  1  0.78440326  0.20958317  0.00579703  1
  Rh  Rh229  1  0.79557834  -0.00779379  0.80390669  1
  Rh  Rh230  1  -0.00542869  0.79394026  0.20478122  1
  Rh  Rh231  1  0.40095971  0.19202050  0.79467504  1
  Rh  Rh232  1  0.19351540  0.00157400  0.19436675  1
  Rh  Rh233  1  0.79273574  0.79731063  0.80009600  1
  Rh  Rh234  1  0.79952094  0.80130137  0.00231516  1
  Rh  Rh235  1  0.41480137  -0.00690777  0.19921514  1
  Rh  Rh236  1  0.40111349  0.79023523  0.78882255  1
  Rh  Rh237  1  0.79339055  0.59462781  -0.00450468  1
  Rh  Rh238  1  0.59747719  0.00396672  0.40541673  1
  Rh  Rh239  1  0.00113364  0.60335403  0.60524364  1
  Rh  Rh240  1  0.20607653  0.19407165  0.39721066  1
  Rh  Rh241  1  0.20823275  0.40973222  0.20735978  1
  Rh  Rh242  1  0.40039928  0.19405696  0.39459003  1
  Rh  Rh243  1  0.00862059  0.79836555  0.79952404  1
  Rh  Rh244  1  0.80246562  0.20348558  0.79291595  1
  Rh  Rh245  1  0.60086422  0.39409589  0.60094309  1
  Rh  Rh246  1  0.79206602  0.40197265  0.60318862  1
  Rh  Rh247  1  0.60669621  0.60913355  0.19798444  1
  Rh  Rh248  1  0.59890463  0.80003645  -0.00343411  1
  Rh  Rh249  1  0.40400390  0.19471689  0.60915297  1
