# generated using pymatgen
data_ZrScNbPdRh
_symmetry_space_group_name_H-M   'P 1'
_cell_length_a   16.56016756
_cell_length_b   16.56333840
_cell_length_c   16.55712806
_cell_angle_alpha   90.00639115
_cell_angle_beta   90.01897407
_cell_angle_gamma   90.03042126
_symmetry_Int_Tables_number   1
_chemical_formula_structural   ZrScNbPdRh
_chemical_formula_sum   'Zr50 Sc50 Nb50 Pd50 Rh50'
_cell_volume   4541.48121125
_cell_formula_units_Z   50
loop_
 _symmetry_equiv_pos_site_id
 _symmetry_equiv_pos_as_xyz
  1  'x, y, z'
loop_
 _atom_site_type_symbol
 _atom_site_label
 _atom_site_symmetry_multiplicity
 _atom_site_fract_x
 _atom_site_fract_y
 _atom_site_fract_z
 _atom_site_occupancy
  Zr  Zr0  1  0.91156404  0.89884987  0.69846401  1
  Zr  Zr1  1  0.90093618  0.89320860  0.89654931  1
  Zr  Zr2  1  0.31000505  0.10159172  0.50928242  1
  Zr  Zr3  1  0.09763098  0.50540327  0.10213974  1
  Zr  Zr4  1  0.10059819  0.30308527  0.30852998  1
  Zr  Zr5  1  0.29103823  0.11160836  0.69881212  1
  Zr  Zr6  1  0.90485527  0.50280012  0.89627640  1
  Zr  Zr7  1  0.09382309  0.49368483  0.49619459  1
  Zr  Zr8  1  0.69894135  0.10127115  0.49761052  1
  Zr  Zr9  1  0.48664584  0.89997187  0.90247351  1
  Zr  Zr10  1  0.49955672  0.50484413  0.69993429  1
  Zr  Zr11  1  0.09361468  0.69893696  0.89991199  1
  Zr  Zr12  1  0.09643905  0.09842097  0.10229281  1
  Zr  Zr13  1  0.70217830  0.89819641  0.69265908  1
  Zr  Zr14  1  0.69143210  0.49840418  0.90524342  1
  Zr  Zr15  1  0.50721844  0.70090193  0.49975424  1
  Zr  Zr16  1  0.10724995  0.49607130  0.30108159  1
  Zr  Zr17  1  0.69224244  0.50265255  0.70293670  1
  Zr  Zr18  1  0.30237904  0.91898338  0.69989366  1
  Zr  Zr19  1  0.90267345  0.49992800  0.69795508  1
  Zr  Zr20  1  0.09609392  0.90254478  0.89292346  1
  Zr  Zr21  1  0.70710303  0.29571727  0.09525201  1
  Zr  Zr22  1  0.90692825  0.89487423  0.50570939  1
  Zr  Zr23  1  0.31090217  0.89015480  0.09465319  1
  Zr  Zr24  1  0.90524858  0.70462697  0.89782280  1
  Zr  Zr25  1  0.49836657  0.89976199  0.29189016  1
  Zr  Zr26  1  0.49930848  0.89973805  0.69555813  1
  Zr  Zr27  1  0.70469111  0.70326280  0.89419876  1
  Zr  Zr28  1  0.10401488  0.09272386  0.70921079  1
  Zr  Zr29  1  0.29893448  0.69666367  0.50052802  1
  Zr  Zr30  1  0.70444141  0.90667549  0.90713104  1
  Zr  Zr31  1  0.70208934  0.10773158  0.90284586  1
  Zr  Zr32  1  0.90441678  0.69861440  0.09815245  1
  Zr  Zr33  1  0.50127694  0.70228157  0.10683030  1
  Zr  Zr34  1  0.48816133  0.10125548  0.68803356  1
  Zr  Zr35  1  0.49809773  0.50270555  0.50413999  1
  Zr  Zr36  1  0.30180867  0.90194489  0.28995783  1
  Zr  Zr37  1  0.30641361  0.49816487  0.69854657  1
  Zr  Zr38  1  0.89955634  0.30086279  0.90706307  1
  Zr  Zr39  1  0.09768759  0.69631841  0.49979817  1
  Zr  Zr40  1  0.89582170  0.91141848  0.30528255  1
  Zr  Zr41  1  0.29544718  0.68579242  0.70162747  1
  Zr  Zr42  1  0.50405590  0.69275949  0.69613493  1
  Zr  Zr43  1  0.69736682  0.69540064  0.10285012  1
  Zr  Zr44  1  0.30242416  0.30894298  0.30292151  1
  Zr  Zr45  1  0.89880340  0.69570395  0.50224119  1
  Zr  Zr46  1  0.69841505  0.50579256  0.10745581  1
  Zr  Zr47  1  0.09626901  0.90008499  0.30066174  1
  Zr  Zr48  1  0.88742353  0.49837529  0.30582682  1
  Zr  Zr49  1  0.10989737  0.90121786  0.10321578  1
  Sc  Sc50  1  0.69810812  0.90797942  0.29553479  1
  Sc  Sc51  1  0.09369766  0.70569203  0.10346000  1
  Sc  Sc52  1  0.30019195  0.49689484  0.50197178  1
  Sc  Sc53  1  0.50478787  0.50026492  0.89542381  1
  Sc  Sc54  1  0.29827342  0.08589039  0.10696169  1
  Sc  Sc55  1  0.90256007  0.09817584  0.69350513  1
  Sc  Sc56  1  0.89277550  0.89542012  0.10273708  1
  Sc  Sc57  1  0.31046386  0.29897308  0.10415963  1
  Sc  Sc58  1  0.49897707  0.10544699  0.90742836  1
  Sc  Sc59  1  0.49420893  0.29120451  0.30361305  1
  Sc  Sc60  1  0.70115603  0.68478825  0.29647812  1
  Sc  Sc61  1  0.29795688  0.70327076  0.30409270  1
  Sc  Sc62  1  0.70036315  0.69949025  0.69114940  1
  Sc  Sc63  1  0.49645638  0.69782984  0.89807882  1
  Sc  Sc64  1  0.90567449  0.10617464  0.89653977  1
  Sc  Sc65  1  0.89694074  0.31555804  0.50117042  1
  Sc  Sc66  1  0.90178618  0.49280343  0.10312939  1
  Sc  Sc67  1  0.89836752  0.30262791  0.69620005  1
  Sc  Sc68  1  0.89905599  0.70134465  0.29391466  1
  Sc  Sc69  1  0.50360057  0.30396416  0.90998671  1
  Sc  Sc70  1  0.51055025  0.50244408  0.10087405  1
  Sc  Sc71  1  0.49528641  0.49160289  0.30827686  1
  Sc  Sc72  1  0.50353282  0.70229708  0.30473253  1
  Sc  Sc73  1  0.89925542  0.10821758  0.11248800  1
  Sc  Sc74  1  0.09317935  0.50051165  0.89418440  1
  Sc  Sc75  1  0.89955156  0.50078699  0.50014365  1
  Sc  Sc76  1  0.50907137  0.89650379  0.49161249  1
  Sc  Sc77  1  0.30337269  0.30568913  0.91277785  1
  Sc  Sc78  1  0.49719954  0.10321539  0.48949504  1
  Sc  Sc79  1  0.09828227  0.69172316  0.69844486  1
  Sc  Sc80  1  0.09168433  0.29653853  0.89649242  1
  Sc  Sc81  1  0.29402126  0.09556394  0.89614848  1
  Sc  Sc82  1  0.29538411  0.48473318  0.10319241  1
  Sc  Sc83  1  0.49644453  0.31517982  0.69946998  1
  Sc  Sc84  1  0.29631361  0.30015997  0.50334746  1
  Sc  Sc85  1  0.89554683  0.70247544  0.69854968  1
  Sc  Sc86  1  0.10163036  0.50422954  0.69988724  1
  Sc  Sc87  1  0.08505915  0.30134202  0.10110944  1
  Sc  Sc88  1  0.89861461  0.08664671  0.49644067  1
  Sc  Sc89  1  0.50603766  0.10138639  0.30062894  1
  Sc  Sc90  1  0.50039084  0.10182080  0.10600409  1
  Sc  Sc91  1  0.30379025  0.09282242  0.31024869  1
  Sc  Sc92  1  0.10613124  0.29495804  0.70411090  1
  Sc  Sc93  1  0.09994766  0.69887223  0.29937229  1
  Sc  Sc94  1  0.30275112  0.70424552  0.89631055  1
  Sc  Sc95  1  0.69922881  0.09406915  0.10324239  1
  Sc  Sc96  1  0.49121370  0.29599864  0.49301020  1
  Sc  Sc97  1  0.29848338  0.90965836  0.48894176  1
  Sc  Sc98  1  0.11403841  0.09510964  0.49852913  1
  Sc  Sc99  1  0.69796349  0.89974807  0.49997070  1
  Nb  Nb100  1  0.70077647  0.30096827  0.89440873  1
  Nb  Nb101  1  0.70448886  0.30259989  0.50034367  1
  Nb  Nb102  1  0.09238150  0.10075423  0.29463629  1
  Nb  Nb103  1  0.69354582  0.90416668  0.10063784  1
  Nb  Nb104  1  0.70708568  0.49499943  0.48704128  1
  Nb  Nb105  1  0.70933327  0.10248144  0.30095075  1
  Nb  Nb106  1  0.90010129  0.29688324  0.10523751  1
  Nb  Nb107  1  0.29695806  0.50413357  0.90131306  1
  Nb  Nb108  1  0.09886148  0.90308323  0.69613318  1
  Nb  Nb109  1  0.89708439  0.29272770  0.28991317  1
  Nb  Nb110  1  0.69960641  0.10390817  0.69898782  1
  Nb  Nb111  1  0.29952101  0.49461870  0.29407682  1
  Nb  Nb112  1  0.69857322  0.70294623  0.49684078  1
  Nb  Nb113  1  0.09527916  0.30158621  0.49284351  1
  Nb  Nb114  1  0.49941970  0.29922659  0.11165369  1
  Nb  Nb115  1  0.89775192  0.10101925  0.30130775  1
  Nb  Nb116  1  0.09540905  0.89506220  0.50910236  1
  Nb  Nb117  1  0.30183147  0.30155581  0.70259032  1
  Nb  Nb118  1  0.70534477  0.29911729  0.69525457  1
  Nb  Nb119  1  0.30269644  0.69876517  0.09723680  1
  Nb  Nb120  1  0.69888080  0.49375213  0.30250414  1
  Nb  Nb121  1  0.70060977  0.29855403  0.30750068  1
  Nb  Nb122  1  0.09840472  0.10483520  0.90001836  1
  Nb  Nb123  1  0.50314944  0.89964583  0.10493165  1
  Nb  Nb124  1  0.29950244  0.89542787  0.89916291  1
  Nb  Nb125  1  0.60528940  0.39194153  0.20721735  1
  Nb  Nb126  1  0.80112102  0.59975791  -0.00088981  1
  Nb  Nb127  1  0.39929289  0.20672574  0.79787163  1
  Nb  Nb128  1  0.79496625  0.00257095  0.79720856  1
  Nb  Nb129  1  0.60555532  0.20700578  0.60129296  1
  Nb  Nb130  1  0.60064976  0.80917391  0.80332925  1
  Nb  Nb131  1  0.19533570  0.19726518  0.20274292  1
  Nb  Nb132  1  0.20107009  0.80768573  0.79412385  1
  Nb  Nb133  1  0.79774920  0.79717447  0.40255192  1
  Nb  Nb134  1  0.59872773  0.80788293  0.00310805  1
  Nb  Nb135  1  0.79321088  0.39716604  0.80244948  1
  Nb  Nb136  1  0.20055304  0.80627323  0.60334081  1
  Nb  Nb137  1  0.60912369  0.39773013  0.59236041  1
  Nb  Nb138  1  0.20397058  0.59934742  0.00140209  1
  Nb  Nb139  1  0.60219121  0.00584983  0.79737708  1
  Nb  Nb140  1  0.39311943  0.79884252  0.59969345  1
  Nb  Nb141  1  0.20818794  0.40171017  0.80168399  1
  Nb  Nb142  1  0.39320207  0.59838028  0.00591660  1
  Nb  Nb143  1  0.00551524  0.20168040  0.58785990  1
  Nb  Nb144  1  -0.00331569  0.19975993  0.39852609  1
  Nb  Nb145  1  0.19412104  0.19673178  0.00566427  1
  Nb  Nb146  1  0.80316258  0.20195864  0.39588059  1
  Nb  Nb147  1  0.60117307  0.20276882  0.79254502  1
  Nb  Nb148  1  0.39348229  0.59619136  0.19892359  1
  Nb  Nb149  1  0.00385241  0.00217752  -0.00177594  1
  Pd  Pd150  1  0.00280218  0.40145380  -0.00098993  1
  Pd  Pd151  1  0.20195103  0.79253550  0.20143893  1
  Pd  Pd152  1  0.79504258  0.39595293  0.20045374  1
  Pd  Pd153  1  0.39660095  0.79529937  0.78907161  1
  Pd  Pd154  1  0.19633646  0.80509811  0.40481710  1
  Pd  Pd155  1  0.80712212  0.19382222  0.00441387  1
  Pd  Pd156  1  0.19463985  0.38666319  0.19225628  1
  Pd  Pd157  1  0.59871163  0.20365677  0.00180803  1
  Pd  Pd158  1  -0.00548903  0.20255045  0.78747146  1
  Pd  Pd159  1  -0.00144154  0.40326844  0.20820984  1
  Pd  Pd160  1  0.20359121  0.59293960  0.40103879  1
  Pd  Pd161  1  0.79486233  0.79421929  0.00715570  1
  Pd  Pd162  1  -0.00754487  -0.00620588  0.19158556  1
  Pd  Pd163  1  0.60544347  0.20212678  0.20102556  1
  Pd  Pd164  1  0.19325725  0.20601760  0.59502909  1
  Pd  Pd165  1  -0.00609185  0.79671974  0.39512457  1
  Pd  Pd166  1  -0.00284753  0.59758240  0.39247037  1
  Pd  Pd167  1  0.18797942  0.39729506  -0.00489131  1
  Pd  Pd168  1  0.39769878  0.39811912  0.81020110  1
  Pd  Pd169  1  0.80166458  0.40628546  -0.00236740  1
  Pd  Pd170  1  0.80769079  0.19851792  0.58917688  1
  Pd  Pd171  1  0.80354810  0.20093449  0.79657916  1
  Pd  Pd172  1  -0.00423938  0.59551578  0.20813464  1
  Pd  Pd173  1  0.19776849  0.79326210  -0.00798651  1
  Pd  Pd174  1  0.20624430  0.60481088  0.19416105  1
  Pd  Pd175  1  0.39517898  0.59700711  0.39205939  1
  Pd  Pd176  1  0.79466278  0.59459633  0.59483784  1
  Pd  Pd177  1  0.59160568  -0.00018403  -0.00083583  1
  Pd  Pd178  1  0.40341392  0.01365637  0.80552268  1
  Pd  Pd179  1  0.19771434  0.00272974  -0.00614026  1
  Pd  Pd180  1  0.19472167  -0.00256892  0.39586830  1
  Pd  Pd181  1  0.00877903  0.00459463  0.40763497  1
  Pd  Pd182  1  0.80163190  -0.00073640  0.60167659  1
  Pd  Pd183  1  0.39993462  0.00595204  0.00382160  1
  Pd  Pd184  1  0.19461097  0.39948913  0.60522257  1
  Pd  Pd185  1  0.38997824  0.19074938  0.20622654  1
  Pd  Pd186  1  0.39092920  0.19320139  -0.00016327  1
  Pd  Pd187  1  0.59716362  0.39298410  0.01086849  1
  Pd  Pd188  1  0.59344700  0.39225603  0.40151504  1
  Pd  Pd189  1  0.60194186  0.59767880  0.39867906  1
  Pd  Pd190  1  0.79342147  0.80178439  0.20795600  1
  Pd  Pd191  1  0.00840523  0.39347688  0.60774686  1
  Pd  Pd192  1  0.40984327  0.41016302  0.00539162  1
  Pd  Pd193  1  0.60885376  0.79995418  0.20338890  1
  Pd  Pd194  1  0.20158129  0.19674995  0.39693373  1
  Pd  Pd195  1  0.81448874  0.01011886  0.00102007  1
  Pd  Pd196  1  0.60061043  -0.00027923  0.39368799  1
  Pd  Pd197  1  0.59454760  0.00783342  0.59728182  1
  Pd  Pd198  1  0.40016484  0.80468771  0.40376140  1
  Pd  Pd199  1  0.79888110  0.59492399  0.80173660  1
  Rh  Rh200  1  0.79747265  0.60653595  0.40297661  1
  Rh  Rh201  1  0.60033084  0.61238537  -0.00795705  1
  Rh  Rh202  1  0.19664631  0.59788770  0.81037347  1
  Rh  Rh203  1  0.79869709  0.00146913  0.19690373  1
  Rh  Rh204  1  0.59911969  0.61150751  0.80492969  1
  Rh  Rh205  1  0.40787781  -0.01196695  0.58282387  1
  Rh  Rh206  1  0.19676383  -0.00474842  0.59646728  1
  Rh  Rh207  1  0.20683255  0.40584985  0.40643184  1
  Rh  Rh208  1  0.39785914  0.79214904  0.20217398  1
  Rh  Rh209  1  0.39473955  0.39967672  0.40371358  1
  Rh  Rh210  1  -0.00796630  0.00401943  0.80440297  1
  Rh  Rh211  1  0.59470533  0.79720639  0.60274576  1
  Rh  Rh212  1  0.60508697  0.39099050  0.79177763  1
  Rh  Rh213  1  0.40283042  0.59558170  0.80845432  1
  Rh  Rh214  1  0.58681642  0.58493963  0.21691832  1
  Rh  Rh215  1  -0.00165762  0.59877124  0.60072568  1
  Rh  Rh216  1  0.21127096  0.21449044  0.81749886  1
  Rh  Rh217  1  0.20030283  -0.00472072  0.80656724  1
  Rh  Rh218  1  -0.00345117  0.60391727  0.79263582  1
  Rh  Rh219  1  0.00447950  0.81352172  0.00993937  1
  Rh  Rh220  1  0.79669054  0.80870205  0.79005639  1
  Rh  Rh221  1  0.40631515  0.00243730  0.19983406  1
  Rh  Rh222  1  0.80459575  0.39205287  0.39562146  1
  Rh  Rh223  1  0.80736638  0.59691654  0.19318170  1
  Rh  Rh224  1  0.41315154  0.40691100  0.19707766  1
  Rh  Rh225  1  0.61170884  0.59059353  0.58569077  1
  Rh  Rh226  1  0.39895745  0.60454787  0.59530164  1
  Rh  Rh227  1  0.40888184  -0.00294541  0.39742679  1
  Rh  Rh228  1  -0.00095717  0.39693945  0.79496711  1
  Rh  Rh229  1  0.60876257  0.20221435  0.40532779  1
  Rh  Rh230  1  0.00960457  0.01185091  0.59710772  1
  Rh  Rh231  1  0.00705947  0.79056407  0.60498423  1
  Rh  Rh232  1  0.00787309  0.79421123  0.78919810  1
  Rh  Rh233  1  0.60103614  0.00584035  0.20200521  1
  Rh  Rh234  1  0.79431959  -0.00233413  0.40210165  1
  Rh  Rh235  1  -0.00162116  0.80619749  0.20215250  1
  Rh  Rh236  1  0.79299388  0.41188855  0.60693725  1
  Rh  Rh237  1  0.00447164  0.20424750  0.20673693  1
  Rh  Rh238  1  0.80118460  0.79869641  0.59164151  1
  Rh  Rh239  1  0.61324784  0.79833888  0.39221653  1
  Rh  Rh240  1  0.19502922  0.59616236  0.59059081  1
  Rh  Rh241  1  0.39074449  0.19887279  0.39725609  1
  Rh  Rh242  1  0.40514189  0.39732096  0.59433952  1
  Rh  Rh243  1  0.20001206  0.00569761  0.21158537  1
  Rh  Rh244  1  -0.00026525  0.59689136  0.00295100  1
  Rh  Rh245  1  0.40465993  0.21278296  0.60427514  1
  Rh  Rh246  1  0.40757632  0.79336054  0.00286305  1
  Rh  Rh247  1  -0.00091469  0.19566494  0.00564708  1
  Rh  Rh248  1  0.79258342  0.20023497  0.20241632  1
  Rh  Rh249  1  -0.01053099  0.39657544  0.39185553  1
