# generated using pymatgen
data_ZrScNbPdRh
_symmetry_space_group_name_H-M   'P 1'
_cell_length_a   16.56143906
_cell_length_b   16.55640697
_cell_length_c   16.56261743
_cell_angle_alpha   89.96392729
_cell_angle_beta   90.04236232
_cell_angle_gamma   90.01505222
_symmetry_Int_Tables_number   1
_chemical_formula_structural   ZrScNbPdRh
_chemical_formula_sum   'Zr50 Sc50 Nb50 Pd50 Rh50'
_cell_volume   4541.43303465
_cell_formula_units_Z   50
loop_
 _symmetry_equiv_pos_site_id
 _symmetry_equiv_pos_as_xyz
  1  'x, y, z'
loop_
 _atom_site_type_symbol
 _atom_site_label
 _atom_site_symmetry_multiplicity
 _atom_site_fract_x
 _atom_site_fract_y
 _atom_site_fract_z
 _atom_site_occupancy
  Zr  Zr0  1  0.50243279  0.08798135  0.50064894  1
  Zr  Zr1  1  0.49690520  0.50472242  0.09915302  1
  Zr  Zr2  1  0.70111479  0.09764879  0.69305445  1
  Zr  Zr3  1  0.69842386  0.70576129  0.08746310  1
  Zr  Zr4  1  0.09724114  0.90047029  0.69779045  1
  Zr  Zr5  1  0.29449337  0.90416081  0.30173516  1
  Zr  Zr6  1  0.50020841  0.30001828  0.49395350  1
  Zr  Zr7  1  0.49863768  0.89241041  0.10075312  1
  Zr  Zr8  1  0.08855916  0.10107362  0.89354107  1
  Zr  Zr9  1  0.70357081  0.90692894  0.09732337  1
  Zr  Zr10  1  0.09580981  0.50790043  0.49725483  1
  Zr  Zr11  1  0.90204637  0.10886916  0.49636826  1
  Zr  Zr12  1  0.70669724  0.30654420  0.89787314  1
  Zr  Zr13  1  0.31330202  0.09550787  0.89580044  1
  Zr  Zr14  1  0.90606821  0.49879270  0.29846567  1
  Zr  Zr15  1  0.49494110  0.50401515  0.48957731  1
  Zr  Zr16  1  0.10750950  0.70223140  0.31120933  1
  Zr  Zr17  1  0.11060213  0.29988202  0.70519272  1
  Zr  Zr18  1  0.89905605  0.90183857  0.10262620  1
  Zr  Zr19  1  0.30274087  0.49774222  0.30414573  1
  Zr  Zr20  1  0.30386229  0.10443910  0.70077383  1
  Zr  Zr21  1  0.50621380  0.49073945  0.70334928  1
  Zr  Zr22  1  0.29695515  0.49290654  0.49630751  1
  Zr  Zr23  1  0.30742695  0.49272014  0.11012265  1
  Zr  Zr24  1  0.30178337  0.70200593  0.29983744  1
  Zr  Zr25  1  0.89779388  0.49915652  0.10177701  1
  Zr  Zr26  1  0.90583386  0.69420664  0.50043337  1
  Zr  Zr27  1  0.30197388  0.89875010  0.10930729  1
  Zr  Zr28  1  0.10654745  0.49981337  0.30335296  1
  Zr  Zr29  1  0.30320964  0.70179885  0.69247485  1
  Zr  Zr30  1  0.10075712  0.90218033  0.89872833  1
  Zr  Zr31  1  0.49331366  0.90611556  0.30344945  1
  Zr  Zr32  1  0.09368468  0.29690735  0.90017509  1
  Zr  Zr33  1  0.09851173  0.10068340  0.70256829  1
  Zr  Zr34  1  0.70421519  0.69839494  0.30566343  1
  Zr  Zr35  1  0.90340737  0.50261826  0.49958020  1
  Zr  Zr36  1  0.29906033  0.10344141  0.09576816  1
  Zr  Zr37  1  0.90085822  0.90914127  0.30043164  1
  Zr  Zr38  1  0.90312874  0.69648339  0.09770951  1
  Zr  Zr39  1  0.09672866  0.10121206  0.30676518  1
  Zr  Zr40  1  0.70039314  0.49153747  0.10043549  1
  Zr  Zr41  1  0.29684625  0.90256005  0.70381108  1
  Zr  Zr42  1  0.90181941  0.90505784  0.89926446  1
  Zr  Zr43  1  0.90499492  0.09914696  0.30292043  1
  Zr  Zr44  1  0.10188043  0.70288813  0.09459654  1
  Zr  Zr45  1  0.69672870  0.09140460  0.90300985  1
  Zr  Zr46  1  0.29132067  0.10414350  0.49997887  1
  Zr  Zr47  1  0.50671395  0.69597981  0.91060998  1
  Zr  Zr48  1  0.09932160  0.69882530  0.90742676  1
  Zr  Zr49  1  0.49864748  0.70088225  0.68636740  1
  Sc  Sc50  1  0.70539408  0.29778666  0.10561154  1
  Sc  Sc51  1  0.71405808  0.90584202  0.30506574  1
  Sc  Sc52  1  0.50547905  0.91290335  0.90133835  1
  Sc  Sc53  1  0.90075720  0.89999772  0.50154804  1
  Sc  Sc54  1  0.50585951  0.10345845  0.30656432  1
  Sc  Sc55  1  0.30153047  0.69383725  0.50462267  1
  Sc  Sc56  1  0.29473539  0.69976650  0.90602474  1
  Sc  Sc57  1  0.30665719  0.69991458  0.09936371  1
  Sc  Sc58  1  0.30248536  0.90389685  0.49729972  1
  Sc  Sc59  1  0.89186278  0.70217585  0.68901633  1
  Sc  Sc60  1  0.49088931  0.30209431  0.89668419  1
  Sc  Sc61  1  0.49198238  0.30374941  0.10075298  1
  Sc  Sc62  1  0.10194332  0.49765256  0.69849701  1
  Sc  Sc63  1  0.91074355  0.09964759  0.68770191  1
  Sc  Sc64  1  0.90879561  0.29624036  0.29315121  1
  Sc  Sc65  1  0.69193557  0.49769510  0.90275180  1
  Sc  Sc66  1  0.69393878  0.29836456  0.29891232  1
  Sc  Sc67  1  0.89937939  0.30311751  0.10189924  1
  Sc  Sc68  1  0.50255558  0.68457668  0.30217109  1
  Sc  Sc69  1  0.70237728  0.10280121  0.30372048  1
  Sc  Sc70  1  0.09159099  0.50881557  0.10277904  1
  Sc  Sc71  1  0.69928796  0.29544207  0.49846313  1
  Sc  Sc72  1  0.49573378  0.69856164  0.10078752  1
  Sc  Sc73  1  0.70520097  0.69965783  0.69735027  1
  Sc  Sc74  1  0.09176020  0.10758975  0.50194169  1
  Sc  Sc75  1  0.89519017  0.30825784  0.69685474  1
  Sc  Sc76  1  0.89559956  0.70695240  0.30959293  1
  Sc  Sc77  1  0.90297515  0.30121050  0.90039174  1
  Sc  Sc78  1  0.50037064  0.49837686  0.90547026  1
  Sc  Sc79  1  0.89888593  0.50015288  0.68782277  1
  Sc  Sc80  1  0.49803101  0.49558396  0.30126731  1
  Sc  Sc81  1  0.50398816  0.30333961  0.30402933  1
  Sc  Sc82  1  0.49235766  0.09706112  0.09142831  1
  Sc  Sc83  1  0.10439976  0.30141437  0.49721282  1
  Sc  Sc84  1  0.89455675  0.10217986  0.10368655  1
  Sc  Sc85  1  0.70359509  0.89706884  0.69199900  1
  Sc  Sc86  1  0.10332218  0.70344250  0.68661804  1
  Sc  Sc87  1  0.10033394  0.49936862  0.89931119  1
  Sc  Sc88  1  0.29384649  0.49998953  0.69713623  1
  Sc  Sc89  1  0.30316136  0.29256991  0.89651673  1
  Sc  Sc90  1  0.89769764  0.49146821  0.90540360  1
  Sc  Sc91  1  0.09586712  0.10984464  0.10143843  1
  Sc  Sc92  1  0.70268554  0.89452972  0.90505126  1
  Sc  Sc93  1  0.30048599  0.50302537  0.90199713  1
  Sc  Sc94  1  0.29473240  0.89790039  0.89544396  1
  Sc  Sc95  1  0.69249593  0.49888159  0.30208183  1
  Sc  Sc96  1  0.70197418  0.49964978  0.49766422  1
  Sc  Sc97  1  0.70208885  0.09821038  0.49547479  1
  Sc  Sc98  1  0.71355693  0.69513803  0.49784879  1
  Sc  Sc99  1  0.88943048  0.70435215  0.90640282  1
  Nb  Nb100  1  0.10147717  0.88647605  0.50346768  1
  Nb  Nb101  1  0.10946893  0.29606875  0.10394963  1
  Nb  Nb102  1  0.90073770  0.30205276  0.49612686  1
  Nb  Nb103  1  0.50618174  0.89638048  0.50448048  1
  Nb  Nb104  1  0.29483859  0.29747453  0.50093644  1
  Nb  Nb105  1  0.49798766  0.09419576  0.70738140  1
  Nb  Nb106  1  0.49815078  0.69931806  0.50258417  1
  Nb  Nb107  1  0.69103175  0.30740349  0.70494899  1
  Nb  Nb108  1  0.69853426  0.70278700  0.89419853  1
  Nb  Nb109  1  0.09988461  0.70865889  0.49965487  1
  Nb  Nb110  1  0.90070796  0.10441388  0.88785663  1
  Nb  Nb111  1  0.50016527  0.89899423  0.68873930  1
  Nb  Nb112  1  0.29336544  0.29761261  0.10830477  1
  Nb  Nb113  1  0.10239757  0.90073388  0.09753999  1
  Nb  Nb114  1  0.30189019  0.29665748  0.69173095  1
  Nb  Nb115  1  0.90127907  0.89659325  0.70168530  1
  Nb  Nb116  1  0.29934008  0.09565785  0.30820651  1
  Nb  Nb117  1  0.49815278  0.29742178  0.70064982  1
  Nb  Nb118  1  0.50044972  0.10319429  0.89564556  1
  Nb  Nb119  1  0.69204664  0.90860654  0.49657839  1
  Nb  Nb120  1  0.69521542  0.10084402  0.10033197  1
  Nb  Nb121  1  0.69902526  0.49098439  0.70587837  1
  Nb  Nb122  1  0.29042819  0.30542099  0.30091345  1
  Nb  Nb123  1  0.10731442  0.29829051  0.29100038  1
  Nb  Nb124  1  0.10406079  0.89754324  0.30090905  1
  Nb  Nb125  1  0.59960648  0.59615145  0.60009887  1
  Nb  Nb126  1  0.19625219  0.00102852  0.00141972  1
  Nb  Nb127  1  0.19941102  0.39053924  0.00881028  1
  Nb  Nb128  1  0.40438483  0.60648912  0.79582924  1
  Nb  Nb129  1  0.79957620  0.59956497  0.19724235  1
  Nb  Nb130  1  0.60273845  0.80439523  0.20761411  1
  Nb  Nb131  1  0.00834538  0.80719611  0.20208423  1
  Nb  Nb132  1  0.38830209  0.20172093  0.20892753  1
  Nb  Nb133  1  0.40926575  0.79896826  0.40550333  1
  Nb  Nb134  1  0.59859592  0.19916135  0.79800253  1
  Nb  Nb135  1  0.59405997  0.20124159  0.60966072  1
  Nb  Nb136  1  0.40999536  0.79839485  0.79568656  1
  Nb  Nb137  1  0.59817907  0.80214992  0.40412539  1
  Nb  Nb138  1  0.59964677  0.19592915  -0.00574401  1
  Nb  Nb139  1  0.19423216  0.00043712  0.60127912  1
  Nb  Nb140  1  0.59568125  0.79806708  0.79614045  1
  Nb  Nb141  1  0.79686635  0.59685106  0.79981444  1
  Nb  Nb142  1  0.80897937  0.39627133  0.40042036  1
  Nb  Nb143  1  0.80572964  0.00283906  0.79683106  1
  Nb  Nb144  1  -0.00747943  0.60708979  0.79845809  1
  Nb  Nb145  1  0.38847914  0.20067283  0.39821220  1
  Nb  Nb146  1  0.60264231  -0.00155050  0.19691319  1
  Nb  Nb147  1  0.79560733  0.19644888  0.79622790  1
  Nb  Nb148  1  -0.00334528  0.79696498  0.79813484  1
  Nb  Nb149  1  0.39825733  0.39030468  0.59981544  1
  Pd  Pd150  1  0.19201306  0.00818236  0.19514381  1
  Pd  Pd151  1  -0.00376400  0.61431663  0.21196606  1
  Pd  Pd152  1  0.19700285  0.79680466  0.19639212  1
  Pd  Pd153  1  0.00803993  0.39561753  0.19471760  1
  Pd  Pd154  1  0.39339807  -0.00167266  0.59874785  1
  Pd  Pd155  1  0.59590395  0.40020426  0.59029885  1
  Pd  Pd156  1  0.39222909  0.40650446  0.79492624  1
  Pd  Pd157  1  0.20258081  0.18793193  0.20902023  1
  Pd  Pd158  1  0.79803446  0.80482139  0.59072560  1
  Pd  Pd159  1  0.60585130  -0.00774760  0.79199087  1
  Pd  Pd160  1  0.61334173  0.79221887  0.59563784  1
  Pd  Pd161  1  0.60554519  0.60595808  0.19380287  1
  Pd  Pd162  1  0.40581266  0.01234838  0.20314848  1
  Pd  Pd163  1  0.00678106  -0.00684180  0.41057267  1
  Pd  Pd164  1  -0.00332473  0.80545515  0.39618161  1
  Pd  Pd165  1  0.19594386  0.59771005  0.59666430  1
  Pd  Pd166  1  0.60178886  0.60452081  0.79361364  1
  Pd  Pd167  1  0.80654114  -0.00276730  0.59814322  1
  Pd  Pd168  1  0.59499408  0.39654482  0.19898703  1
  Pd  Pd169  1  0.39657837  0.80516949  -0.01086582  1
  Pd  Pd170  1  0.20487476  0.19646577  0.80611043  1
  Pd  Pd171  1  0.80108820  0.19858362  0.20560284  1
  Pd  Pd172  1  -0.00540518  0.40893313  0.79402565  1
  Pd  Pd173  1  0.19811970  0.60556515  0.79733047  1
  Pd  Pd174  1  0.20776203  0.39946225  0.80892316  1
  Pd  Pd175  1  0.79461050  0.59383373  -0.00477538  1
  Pd  Pd176  1  -0.00501985  0.80221901  -0.00070836  1
  Pd  Pd177  1  0.80036556  0.20828941  0.39291454  1
  Pd  Pd178  1  0.20353072  0.59995351  0.19584949  1
  Pd  Pd179  1  0.79918280  0.20019332  -0.00491085  1
  Pd  Pd180  1  0.19684281  0.78898253  0.79791892  1
  Pd  Pd181  1  -0.00928323  0.20017482  0.00627922  1
  Pd  Pd182  1  0.80207798  0.79475684  0.19864909  1
  Pd  Pd183  1  0.20144495  0.19691562  -0.01072192  1
  Pd  Pd184  1  0.00268586  0.39206661  0.39792857  1
  Pd  Pd185  1  0.58716016  0.19442802  0.18990055  1
  Pd  Pd186  1  0.00273219  0.21392602  0.60345313  1
  Pd  Pd187  1  0.79425733  0.39760670  0.59203370  1
  Pd  Pd188  1  0.18709021  -0.00283847  0.41135995  1
  Pd  Pd189  1  0.39023054  0.39451432  -0.00143910  1
  Pd  Pd190  1  0.00798716  0.39920228  0.00677338  1
  Pd  Pd191  1  0.80711791  0.00600600  -0.00332175  1
  Pd  Pd192  1  0.39465513  -0.00967843  -0.00258280  1
  Pd  Pd193  1  0.00862407  0.39520362  0.60103315  1
  Pd  Pd194  1  0.40738623  0.19954584  0.59261394  1
  Pd  Pd195  1  0.00054337  0.00935360  0.00614739  1
  Pd  Pd196  1  0.00744313  -0.00075121  0.19597944  1
  Pd  Pd197  1  0.59636269  0.38897526  0.00075257  1
  Pd  Pd198  1  0.20464566  0.58765210  0.00822243  1
  Pd  Pd199  1  0.79436846  0.20854293  0.60485889  1
  Rh  Rh200  1  -0.00673866  -0.00604714  0.79285561  1
  Rh  Rh201  1  0.20781524  0.80984026  0.00664411  1
  Rh  Rh202  1  0.40379467  0.39243818  0.20867363  1
  Rh  Rh203  1  0.59595420  0.19557894  0.40941870  1
  Rh  Rh204  1  0.40458891  0.20550939  0.00681696  1
  Rh  Rh205  1  0.19778123  0.20405459  0.39591048  1
  Rh  Rh206  1  0.39378177  0.38961747  0.40094537  1
  Rh  Rh207  1  0.19964766  0.00958646  0.80224583  1
  Rh  Rh208  1  0.00467280  -0.00630906  0.59462868  1
  Rh  Rh209  1  0.39393405  0.60591364  0.39782713  1
  Rh  Rh210  1  0.40592966  -0.01041405  0.79762208  1
  Rh  Rh211  1  0.61070623  0.39907977  0.40063573  1
  Rh  Rh212  1  0.59523061  0.39317251  0.81120780  1
  Rh  Rh213  1  0.79887192  0.40506375  0.21063768  1
  Rh  Rh214  1  0.21119959  0.79995781  0.40682690  1
  Rh  Rh215  1  0.20319002  0.60373301  0.40747640  1
  Rh  Rh216  1  0.00535165  0.60433142  0.60417385  1
  Rh  Rh217  1  0.80296170  0.58602672  0.39056800  1
  Rh  Rh218  1  0.59551635  0.00420152  0.00878673  1
  Rh  Rh219  1  0.00009848  0.20188906  0.19855940  1
  Rh  Rh220  1  0.40758534  0.57987212  0.60599596  1
  Rh  Rh221  1  0.19326566  0.19662558  0.60217295  1
  Rh  Rh222  1  0.39716020  0.59905534  -0.00490045  1
  Rh  Rh223  1  0.00298018  0.60627526  0.39804921  1
  Rh  Rh224  1  -0.01141041  0.21198803  0.79047408  1
  Rh  Rh225  1  0.19299710  0.40831368  0.19543423  1
  Rh  Rh226  1  0.40070029  0.00034199  0.40600982  1
  Rh  Rh227  1  0.60416386  0.59694073  0.00521887  1
  Rh  Rh228  1  0.40435444  0.20166673  0.79667096  1
  Rh  Rh229  1  0.79271128  0.01129618  0.20112197  1
  Rh  Rh230  1  0.59817208  0.80340666  -0.00234570  1
  Rh  Rh231  1  0.79552409  0.80966236  0.41016805  1
  Rh  Rh232  1  0.41083748  0.79024433  0.21356245  1
  Rh  Rh233  1  0.19350201  0.39781917  0.40143380  1
  Rh  Rh234  1  0.60406722  0.60594840  0.41223359  1
  Rh  Rh235  1  0.40069531  0.59796209  0.20239361  1
  Rh  Rh236  1  0.80192484  0.80356162  -0.00043367  1
  Rh  Rh237  1  0.20133397  0.39796111  0.59760557  1
  Rh  Rh238  1  0.59913058  0.00423801  0.60459272  1
  Rh  Rh239  1  0.80514743  0.00464413  0.40771740  1
  Rh  Rh240  1  0.79985362  0.39653577  0.00279941  1
  Rh  Rh241  1  -0.00635937  0.79804559  0.60398538  1
  Rh  Rh242  1  0.39334656  0.80974849  0.59561404  1
  Rh  Rh243  1  0.20873226  0.80640048  0.59315237  1
  Rh  Rh244  1  0.78821626  0.58808680  0.60920441  1
  Rh  Rh245  1  0.00380454  0.20909213  0.39679791  1
  Rh  Rh246  1  -0.00229751  0.59458358  -0.01330067  1
  Rh  Rh247  1  0.79874647  0.80160219  0.80121577  1
  Rh  Rh248  1  0.60390414  -0.00418193  0.39046316  1
  Rh  Rh249  1  0.80315099  0.40436907  0.80011858  1
