# generated using pymatgen
data_ZrScNbPdRh
_symmetry_space_group_name_H-M   'P 1'
_cell_length_a   16.55721084
_cell_length_b   16.55514774
_cell_length_c   16.55419201
_cell_angle_alpha   90.00574032
_cell_angle_beta   89.99077832
_cell_angle_gamma   90.01858702
_symmetry_Int_Tables_number   1
_chemical_formula_structural   ZrScNbPdRh
_chemical_formula_sum   'Zr50 Sc50 Nb50 Pd50 Rh50'
_cell_volume   4537.62077573
_cell_formula_units_Z   50
loop_
 _symmetry_equiv_pos_site_id
 _symmetry_equiv_pos_as_xyz
  1  'x, y, z'
loop_
 _atom_site_type_symbol
 _atom_site_label
 _atom_site_symmetry_multiplicity
 _atom_site_fract_x
 _atom_site_fract_y
 _atom_site_fract_z
 _atom_site_occupancy
  Zr  Zr0  1  0.71152487  0.30047330  0.70757738  1
  Zr  Zr1  1  0.50639944  0.29167700  0.49969696  1
  Zr  Zr2  1  0.90319005  0.09773269  0.50140113  1
  Zr  Zr3  1  0.90399222  0.50326813  0.49980258  1
  Zr  Zr4  1  0.10167528  0.09731641  0.90671557  1
  Zr  Zr5  1  0.89811024  0.70339769  0.70378804  1
  Zr  Zr6  1  0.09584850  0.69587897  0.49889399  1
  Zr  Zr7  1  0.29793409  0.30294352  0.09241662  1
  Zr  Zr8  1  0.68492214  0.50620098  0.29772623  1
  Zr  Zr9  1  0.30658265  0.09854056  0.70198519  1
  Zr  Zr10  1  0.89679078  0.09970752  0.70005899  1
  Zr  Zr11  1  0.70258958  0.10696095  0.09271915  1
  Zr  Zr12  1  0.30246420  0.48420694  0.89985160  1
  Zr  Zr13  1  0.89277782  0.30449106  0.89310210  1
  Zr  Zr14  1  0.30523256  0.89463559  0.09794693  1
  Zr  Zr15  1  0.69364775  0.09759511  0.51207919  1
  Zr  Zr16  1  0.49192351  0.70552866  0.08406339  1
  Zr  Zr17  1  0.10310035  0.29952445  0.90111911  1
  Zr  Zr18  1  0.69332876  0.69840170  0.29895102  1
  Zr  Zr19  1  0.29845342  0.29533406  0.89968662  1
  Zr  Zr20  1  0.69764661  0.90136054  0.08667852  1
  Zr  Zr21  1  0.10725316  0.90698216  0.10645261  1
  Zr  Zr22  1  0.29901355  0.29901023  0.30074724  1
  Zr  Zr23  1  0.69866787  0.30273465  0.09437910  1
  Zr  Zr24  1  0.70108776  0.29644060  0.90418669  1
  Zr  Zr25  1  0.69649806  0.70763954  0.89907807  1
  Zr  Zr26  1  0.29556994  0.29119070  0.50093262  1
  Zr  Zr27  1  0.69601568  0.09978876  0.70624592  1
  Zr  Zr28  1  0.49764618  0.49904366  0.30674891  1
  Zr  Zr29  1  0.30024507  0.09776798  0.09546404  1
  Zr  Zr30  1  0.70120176  0.10701594  0.29335934  1
  Zr  Zr31  1  0.28916233  0.90192463  0.29656220  1
  Zr  Zr32  1  0.90412919  0.30205959  0.50243483  1
  Zr  Zr33  1  0.69518085  0.70099873  0.49310429  1
  Zr  Zr34  1  0.29372403  0.70450103  0.50724595  1
  Zr  Zr35  1  0.11300525  0.69502209  0.70493302  1
  Zr  Zr36  1  0.89494450  0.69503123  0.89869005  1
  Zr  Zr37  1  0.70355890  0.70024627  0.09304531  1
  Zr  Zr38  1  0.09049189  0.70472292  0.29475439  1
  Zr  Zr39  1  0.30708643  0.09422215  0.49974061  1
  Zr  Zr40  1  0.10242269  0.90557479  0.90489695  1
  Zr  Zr41  1  0.50038581  0.10087208  0.50688788  1
  Zr  Zr42  1  0.49527784  0.10358116  0.30832396  1
  Zr  Zr43  1  0.10488536  0.29995024  0.49581832  1
  Zr  Zr44  1  0.29487325  0.69781913  0.29398847  1
  Zr  Zr45  1  0.49998450  0.89280167  0.30397755  1
  Zr  Zr46  1  0.70159227  0.89457989  0.29404538  1
  Zr  Zr47  1  0.29632064  0.49971141  0.70654016  1
  Zr  Zr48  1  0.30744455  0.70593037  0.70155078  1
  Zr  Zr49  1  0.10134106  0.50214982  0.30573160  1
  Sc  Sc50  1  0.90914137  0.30518133  0.29302089  1
  Sc  Sc51  1  0.90997477  0.89996213  0.29732294  1
  Sc  Sc52  1  0.49749617  0.29976727  0.09633980  1
  Sc  Sc53  1  0.89910583  0.90630150  0.90332557  1
  Sc  Sc54  1  0.29724868  0.50464523  0.49122512  1
  Sc  Sc55  1  0.30143921  0.30032251  0.70692083  1
  Sc  Sc56  1  0.50134742  0.09673037  0.69887827  1
  Sc  Sc57  1  0.49124973  0.30492550  0.89994768  1
  Sc  Sc58  1  0.70206830  0.50926079  0.50326250  1
  Sc  Sc59  1  0.49394834  0.28887378  0.70335603  1
  Sc  Sc60  1  0.50350141  0.50262521  0.10169022  1
  Sc  Sc61  1  0.89922576  0.29481775  0.09401199  1
  Sc  Sc62  1  0.11215941  0.29708225  0.69699752  1
  Sc  Sc63  1  0.89009626  0.49930078  0.70530476  1
  Sc  Sc64  1  0.50309353  0.30039612  0.30416839  1
  Sc  Sc65  1  0.49874787  0.51903983  0.70522350  1
  Sc  Sc66  1  0.30022319  0.89729245  0.70066508  1
  Sc  Sc67  1  0.90130647  0.89234658  0.50693790  1
  Sc  Sc68  1  0.70386915  0.50382502  0.90782187  1
  Sc  Sc69  1  0.90655586  0.69917161  0.50094476  1
  Sc  Sc70  1  0.09963463  0.50252751  0.49549234  1
  Sc  Sc71  1  0.89232265  0.90006376  0.10199497  1
  Sc  Sc72  1  0.90319785  0.49939513  0.09442128  1
  Sc  Sc73  1  0.10301520  0.50432623  0.09732596  1
  Sc  Sc74  1  0.10959653  0.90213058  0.70926509  1
  Sc  Sc75  1  0.91172357  0.50346401  0.30096890  1
  Sc  Sc76  1  0.90306445  0.09853610  0.91002278  1
  Sc  Sc77  1  0.49789100  0.09800378  0.89362345  1
  Sc  Sc78  1  0.70043086  0.69538402  0.70957549  1
  Sc  Sc79  1  0.30165194  0.69456799  0.89348930  1
  Sc  Sc80  1  0.09952350  0.89260359  0.48922263  1
  Sc  Sc81  1  0.10865431  0.09858918  0.69894840  1
  Sc  Sc82  1  0.30204105  0.50271937  0.09916567  1
  Sc  Sc83  1  0.30022267  0.49845425  0.29741718  1
  Sc  Sc84  1  0.11316440  0.10275708  0.49913187  1
  Sc  Sc85  1  0.50516254  0.69152947  0.30186626  1
  Sc  Sc86  1  0.10203612  0.30834616  0.30108397  1
  Sc  Sc87  1  0.50064177  0.10584845  0.09171285  1
  Sc  Sc88  1  0.49561392  0.69492474  0.50534083  1
  Sc  Sc89  1  0.49285549  0.89744551  0.70908105  1
  Sc  Sc90  1  0.09891012  0.29535258  0.09619114  1
  Sc  Sc91  1  0.49397360  0.50593541  0.90063583  1
  Sc  Sc92  1  0.70678144  0.90895864  0.69758229  1
  Sc  Sc93  1  0.49864303  0.90121958  0.50498328  1
  Sc  Sc94  1  0.89543103  0.89743390  0.70299174  1
  Sc  Sc95  1  0.90145179  0.49855367  0.89170253  1
  Sc  Sc96  1  0.10479116  0.50451258  0.89288747  1
  Sc  Sc97  1  0.09214029  0.09902782  0.09394993  1
  Sc  Sc98  1  0.29822046  0.09661206  0.31206700  1
  Sc  Sc99  1  0.49836265  0.89687924  0.90450319  1
  Nb  Nb100  1  0.90193590  0.30210363  0.70470755  1
  Nb  Nb101  1  0.70052625  0.09884555  0.90194684  1
  Nb  Nb102  1  0.89632246  0.70396871  0.29082746  1
  Nb  Nb103  1  0.30432151  0.89895814  0.49515929  1
  Nb  Nb104  1  0.90046584  0.10197900  0.29863296  1
  Nb  Nb105  1  0.89844641  0.10489572  0.10305761  1
  Nb  Nb106  1  0.49958215  0.70645567  0.70927218  1
  Nb  Nb107  1  0.90611874  0.69770430  0.10701349  1
  Nb  Nb108  1  0.69603682  0.49919861  0.70150088  1
  Nb  Nb109  1  0.69862245  0.30247812  0.30462386  1
  Nb  Nb110  1  0.49641350  0.49486949  0.50462995  1
  Nb  Nb111  1  0.69845123  0.89930658  0.49938303  1
  Nb  Nb112  1  0.50241682  0.70198150  0.88154037  1
  Nb  Nb113  1  0.09881603  0.49347796  0.70356768  1
  Nb  Nb114  1  0.10417560  0.90699160  0.29820875  1
  Nb  Nb115  1  0.29234613  0.70346410  0.10124880  1
  Nb  Nb116  1  0.10005411  0.69702818  0.09648424  1
  Nb  Nb117  1  0.29683340  0.90838244  0.89800315  1
  Nb  Nb118  1  0.70354402  0.90627257  0.90385640  1
  Nb  Nb119  1  0.09996197  0.08634392  0.29697892  1
  Nb  Nb120  1  0.10140845  0.70060242  0.90154022  1
  Nb  Nb121  1  0.49718682  0.90083474  0.09786378  1
  Nb  Nb122  1  0.30010461  0.09321714  0.90174557  1
  Nb  Nb123  1  0.69988203  0.49898870  0.10331943  1
  Nb  Nb124  1  0.69952165  0.29614662  0.50123110  1
  Nb  Nb125  1  0.80106865  0.20189868  0.40064811  1
  Nb  Nb126  1  0.59937388  0.79810879  0.60539582  1
  Nb  Nb127  1  0.79968799  0.59949482  0.19715427  1
  Nb  Nb128  1  0.79823898  0.00011183  0.39928958  1
  Nb  Nb129  1  0.80092827  0.20376804  0.59975897  1
  Nb  Nb130  1  0.40532632  0.40255549  0.59893079  1
  Nb  Nb131  1  -0.00059582  0.19147019  0.39205099  1
  Nb  Nb132  1  0.79511434  0.39679119  0.39599934  1
  Nb  Nb133  1  0.60176801  0.40430884  0.79420377  1
  Nb  Nb134  1  0.00167122  0.39804477  -0.00843237  1
  Nb  Nb135  1  0.59579232  -0.00229220  0.19760686  1
  Nb  Nb136  1  0.00588333  0.79592012  0.80892763  1
  Nb  Nb137  1  0.39240189  0.79970535  0.40231695  1
  Nb  Nb138  1  0.59609403  0.80290436  0.18628125  1
  Nb  Nb139  1  0.19893964  0.19414404  0.20217335  1
  Nb  Nb140  1  0.40538561  -0.00379143  0.19834074  1
  Nb  Nb141  1  0.00211174  -0.00016515  0.60054665  1
  Nb  Nb142  1  -0.00191809  0.20264325  0.79794272  1
  Nb  Nb143  1  0.19902012  0.79404099  0.00128627  1
  Nb  Nb144  1  0.00486454  0.79208284  0.00247466  1
  Nb  Nb145  1  0.59918153  0.40159119  0.60465415  1
  Nb  Nb146  1  0.60565328  -0.00129278  0.39821526  1
  Nb  Nb147  1  0.79895242  0.80087303  0.39665381  1
  Nb  Nb148  1  0.79138547  0.40572196  0.20265965  1
  Nb  Nb149  1  0.00108797  0.39904374  0.60857225  1
  Pd  Pd150  1  0.20775294  0.59967270  -0.00563507  1
  Pd  Pd151  1  0.79173931  0.79388702  0.59649073  1
  Pd  Pd152  1  -0.00734713  0.00054657  0.19345536  1
  Pd  Pd153  1  -0.00054593  0.40380628  0.18742274  1
  Pd  Pd154  1  0.80801043  0.60024696  0.39087771  1
  Pd  Pd155  1  0.40401612  0.40041567  0.19664393  1
  Pd  Pd156  1  0.59482586  0.20589063  0.80502280  1
  Pd  Pd157  1  0.39845206  0.60701156  0.40155206  1
  Pd  Pd158  1  0.40495108  0.79616727  0.20659096  1
  Pd  Pd159  1  0.79963602  0.60781441  0.60369563  1
  Pd  Pd160  1  0.00027473  0.59176636  0.61179000  1
  Pd  Pd161  1  0.01000594  0.80769094  0.61410570  1
  Pd  Pd162  1  0.79905411  0.00055799  0.19835310  1
  Pd  Pd163  1  0.81066406  0.80117143  -0.00351948  1
  Pd  Pd164  1  0.80286838  0.21328586  0.20259786  1
  Pd  Pd165  1  0.40277835  -0.00749819  0.60651161  1
  Pd  Pd166  1  0.40286707  0.19796964  -0.00771379  1
  Pd  Pd167  1  0.79993621  0.39988846  0.59482750  1
  Pd  Pd168  1  0.60984464  0.81420309  0.79528073  1
  Pd  Pd169  1  0.00946449  0.19825330  0.20388255  1
  Pd  Pd170  1  0.39479395  0.39422630  0.40642394  1
  Pd  Pd171  1  0.19337197  0.80853457  0.59998328  1
  Pd  Pd172  1  0.39591004  0.59762326  0.60246356  1
  Pd  Pd173  1  0.80178317  0.00247693  0.80793476  1
  Pd  Pd174  1  0.59662694  0.60050484  -0.00486851  1
  Pd  Pd175  1  0.59838869  0.60388156  0.60055531  1
  Pd  Pd176  1  -0.00202936  0.59525316  -0.00355367  1
  Pd  Pd177  1  0.00218586  0.19938682  0.60299477  1
  Pd  Pd178  1  0.20052581  0.59196298  0.59894093  1
  Pd  Pd179  1  0.00396259  0.80732261  0.19354773  1
  Pd  Pd180  1  0.39425995  0.60062363  -0.00395156  1
  Pd  Pd181  1  0.00039986  0.00075736  0.79303959  1
  Pd  Pd182  1  -0.00011175  -0.00063694  0.40625351  1
  Pd  Pd183  1  0.19625416  -0.00879759  0.59329024  1
  Pd  Pd184  1  0.19945053  0.79547770  0.39685298  1
  Pd  Pd185  1  0.40413820  0.60164629  0.19638441  1
  Pd  Pd186  1  0.59336628  0.00557249  -0.00273460  1
  Pd  Pd187  1  0.59403054  0.20217951  0.19708686  1
  Pd  Pd188  1  0.20259558  0.40585784  0.59640672  1
  Pd  Pd189  1  0.19716620  0.39633354  0.19449278  1
  Pd  Pd190  1  0.59678129  0.39197867  0.19811481  1
  Pd  Pd191  1  0.80493844  0.59529196  0.00370493  1
  Pd  Pd192  1  0.39382851  0.19363878  0.20247877  1
  Pd  Pd193  1  0.19520804  0.59690621  0.20101114  1
  Pd  Pd194  1  0.60605563  0.40641592  0.41154409  1
  Pd  Pd195  1  0.59332604  0.40364603  -0.00870000  1
  Pd  Pd196  1  0.19786851  0.19450940  0.80056720  1
  Pd  Pd197  1  0.00104193  0.60286510  0.79456832  1
  Pd  Pd198  1  0.59729058  -0.00748921  0.80370888  1
  Pd  Pd199  1  0.39120593  0.79780256  -0.01471997  1
  Rh  Rh200  1  0.60733990  0.20870342  0.61403872  1
  Rh  Rh201  1  -0.00665418  0.79824097  0.39374136  1
  Rh  Rh202  1  0.79313209  0.59701505  0.80099924  1
  Rh  Rh203  1  0.20443607  0.40353236  0.39979090  1
  Rh  Rh204  1  0.20784743  0.00988080  0.19748897  1
  Rh  Rh205  1  0.20165129  0.19523334  0.00615078  1
  Rh  Rh206  1  0.59687203  0.19966955  -0.00824561  1
  Rh  Rh207  1  -0.00198377  0.39531614  0.40784899  1
  Rh  Rh208  1  0.39331127  0.80394064  0.80593075  1
  Rh  Rh209  1  0.18899819  0.19564317  0.38583866  1
  Rh  Rh210  1  0.79393174  0.79191962  0.19982933  1
  Rh  Rh211  1  0.39578844  0.60013661  0.80235038  1
  Rh  Rh212  1  0.20145828  0.80258051  0.81070300  1
  Rh  Rh213  1  0.20411549  0.59644367  0.80214235  1
  Rh  Rh214  1  0.78954428  0.41010122  0.80583883  1
  Rh  Rh215  1  0.00895367  0.39211161  0.79756803  1
  Rh  Rh216  1  0.80658910  0.18996700  0.80303957  1
  Rh  Rh217  1  0.39829397  -0.00174211  0.80373447  1
  Rh  Rh218  1  0.19148818  0.79618685  0.19528515  1
  Rh  Rh219  1  0.59821152  0.61207023  0.18480348  1
  Rh  Rh220  1  0.60473916  0.19157398  0.39880240  1
  Rh  Rh221  1  -0.00126092  0.59634730  0.19975122  1
  Rh  Rh222  1  0.80092706  0.80653586  0.80657258  1
  Rh  Rh223  1  0.19321606  0.40386496  0.00156198  1
  Rh  Rh224  1  0.19748365  0.39816206  0.80081394  1
  Rh  Rh225  1  0.39513688  0.20436809  0.60093644  1
  Rh  Rh226  1  0.80772673  0.00204197  0.59485314  1
  Rh  Rh227  1  0.21029157  0.19508758  0.60492047  1
  Rh  Rh228  1  0.60385150  0.59533877  0.80724541  1
  Rh  Rh229  1  0.19759168  -0.00206150  0.40620271  1
  Rh  Rh230  1  0.40311914  0.40364793  0.00660445  1
  Rh  Rh231  1  0.40439144  -0.00957007  0.39568200  1
  Rh  Rh232  1  0.59346444  -0.01212020  0.60338581  1
  Rh  Rh233  1  0.80274674  0.19647179  -0.00502091  1
  Rh  Rh234  1  -0.00579422  0.20624631  -0.00817628  1
  Rh  Rh235  1  0.80711283  0.40326690  0.00518954  1
  Rh  Rh236  1  0.58941626  0.59311231  0.41183284  1
  Rh  Rh237  1  0.59622008  0.79979706  -0.00578577  1
  Rh  Rh238  1  0.39730148  0.19323369  0.80446331  1
  Rh  Rh239  1  -0.00272628  0.60824559  0.39509198  1
  Rh  Rh240  1  0.59498706  0.80387812  0.40964382  1
  Rh  Rh241  1  0.40004874  0.20630229  0.40307261  1
  Rh  Rh242  1  0.80334792  0.00793686  0.00257683  1
  Rh  Rh243  1  0.40690295  0.80107458  0.59683816  1
  Rh  Rh244  1  0.20490749  -0.00302946  0.00284944  1
  Rh  Rh245  1  0.41232366  0.40433143  0.78809388  1
  Rh  Rh246  1  0.40096222  0.00161655  -0.00012497  1
  Rh  Rh247  1  0.19732022  0.60491999  0.39587521  1
  Rh  Rh248  1  -0.00898288  -0.00622585  0.01124698  1
  Rh  Rh249  1  0.20503300  0.00551721  0.79993777  1
