# generated using pymatgen
data_ZrScNbPdRh
_symmetry_space_group_name_H-M   'P 1'
_cell_length_a   16.56081612
_cell_length_b   16.55595224
_cell_length_c   16.55942782
_cell_angle_alpha   89.99034221
_cell_angle_beta   89.97835580
_cell_angle_gamma   89.99542935
_symmetry_Int_Tables_number   1
_chemical_formula_structural   ZrScNbPdRh
_chemical_formula_sum   'Zr50 Sc50 Nb50 Pd50 Rh50'
_cell_volume   4540.26485340
_cell_formula_units_Z   50
loop_
 _symmetry_equiv_pos_site_id
 _symmetry_equiv_pos_as_xyz
  1  'x, y, z'
loop_
 _atom_site_type_symbol
 _atom_site_label
 _atom_site_symmetry_multiplicity
 _atom_site_fract_x
 _atom_site_fract_y
 _atom_site_fract_z
 _atom_site_occupancy
  Zr  Zr0  1  0.09942235  0.50465700  0.11420517  1
  Zr  Zr1  1  0.89937172  0.90632733  0.29997113  1
  Zr  Zr2  1  0.31196915  0.50439312  0.09792746  1
  Zr  Zr3  1  0.69784765  0.70637551  0.10532059  1
  Zr  Zr4  1  0.50364179  0.09485773  0.09448082  1
  Zr  Zr5  1  0.09064782  0.90254317  0.70126799  1
  Zr  Zr6  1  0.29491892  0.50241235  0.70728288  1
  Zr  Zr7  1  0.70031076  0.49956643  0.87931234  1
  Zr  Zr8  1  0.50807670  0.90388805  0.10337402  1
  Zr  Zr9  1  0.70306721  0.50541067  0.49736740  1
  Zr  Zr10  1  0.70280157  0.30746409  0.71183741  1
  Zr  Zr11  1  0.89870565  0.10255994  0.10914822  1
  Zr  Zr12  1  0.28465219  0.89576120  0.10054074  1
  Zr  Zr13  1  0.50294314  0.30611932  0.30260095  1
  Zr  Zr14  1  0.49662026  0.30091496  0.09946150  1
  Zr  Zr15  1  0.09231365  0.89969982  0.90777761  1
  Zr  Zr16  1  0.29318975  0.10754868  0.89094668  1
  Zr  Zr17  1  0.70225544  0.69776497  0.69988254  1
  Zr  Zr18  1  0.70744365  0.90074380  0.89668297  1
  Zr  Zr19  1  0.69816463  0.69889122  0.29915113  1
  Zr  Zr20  1  0.69613156  0.50108541  0.30359757  1
  Zr  Zr21  1  0.89968664  0.29368330  0.69852366  1
  Zr  Zr22  1  0.69820492  0.89934042  0.70182703  1
  Zr  Zr23  1  0.70216661  0.29891606  0.09832682  1
  Zr  Zr24  1  0.70999546  0.70021601  0.89968768  1
  Zr  Zr25  1  0.50228002  0.50861747  0.31048191  1
  Zr  Zr26  1  0.10167394  0.68418337  0.28865396  1
  Zr  Zr27  1  0.89799935  0.29880762  0.09807242  1
  Zr  Zr28  1  0.30152624  0.50164214  0.50128326  1
  Zr  Zr29  1  0.49632303  0.09677432  0.89707034  1
  Zr  Zr30  1  0.49619760  0.70504003  0.70194529  1
  Zr  Zr31  1  0.09955353  0.49864089  0.90173254  1
  Zr  Zr32  1  0.11190683  0.30778052  0.30023561  1
  Zr  Zr33  1  0.30030989  0.90366513  0.30762326  1
  Zr  Zr34  1  0.29393633  0.09884565  0.10399087  1
  Zr  Zr35  1  0.09763608  0.29767668  0.50044027  1
  Zr  Zr36  1  0.10062030  0.89875734  0.50201319  1
  Zr  Zr37  1  0.90555100  0.90623381  0.09493055  1
  Zr  Zr38  1  0.89794362  0.49816863  0.29829200  1
  Zr  Zr39  1  0.49419916  0.69709390  0.49026835  1
  Zr  Zr40  1  0.88862101  0.10339554  0.49491189  1
  Zr  Zr41  1  0.28752477  0.49833967  0.30400413  1
  Zr  Zr42  1  0.30839916  0.49265345  0.90041807  1
  Zr  Zr43  1  0.29416352  0.29388475  0.50500771  1
  Zr  Zr44  1  0.10605775  0.70873727  0.09370548  1
  Zr  Zr45  1  0.29653042  0.90545291  0.49456153  1
  Zr  Zr46  1  0.09772768  0.49221332  0.50032593  1
  Zr  Zr47  1  0.51952195  0.50136380  0.70589823  1
  Zr  Zr48  1  0.89397357  0.08891969  0.90244991  1
  Zr  Zr49  1  0.69498891  0.09407369  0.49844884  1
  Sc  Sc50  1  0.31342423  0.90231191  0.69668273  1
  Sc  Sc51  1  0.90171683  0.90013924  0.70255833  1
  Sc  Sc52  1  0.29704961  0.90577363  0.90145981  1
  Sc  Sc53  1  0.90536169  0.69409219  0.69682737  1
  Sc  Sc54  1  0.70710583  0.09360134  0.30587446  1
  Sc  Sc55  1  0.71406738  0.69888968  0.49828897  1
  Sc  Sc56  1  0.11578056  0.30209733  0.90190735  1
  Sc  Sc57  1  0.50328872  0.10287859  0.50551353  1
  Sc  Sc58  1  0.09884970  0.51100383  0.70072413  1
  Sc  Sc59  1  0.30006943  0.69699546  0.69812715  1
  Sc  Sc60  1  0.90389968  0.88875407  0.49046414  1
  Sc  Sc61  1  0.10116399  0.10218718  0.29435077  1
  Sc  Sc62  1  0.70744817  0.50671754  0.69553665  1
  Sc  Sc63  1  0.69952119  0.50045472  0.11401913  1
  Sc  Sc64  1  0.30397826  0.10805669  0.70298136  1
  Sc  Sc65  1  0.50033925  0.69279806  0.10473013  1
  Sc  Sc66  1  0.70386579  0.29248009  0.89991930  1
  Sc  Sc67  1  0.29984065  0.69748125  0.10591875  1
  Sc  Sc68  1  0.49567876  0.29926800  0.69448061  1
  Sc  Sc69  1  0.69789352  0.09575848  0.70255984  1
  Sc  Sc70  1  0.10048496  0.70260324  0.51209549  1
  Sc  Sc71  1  0.50474909  0.90526602  0.89540403  1
  Sc  Sc72  1  0.49021987  0.30715548  0.89492395  1
  Sc  Sc73  1  0.89852779  0.09457355  0.70098246  1
  Sc  Sc74  1  0.89116961  0.70836156  0.29943630  1
  Sc  Sc75  1  0.70051858  0.09733658  0.90335599  1
  Sc  Sc76  1  0.09917274  0.29480237  0.69274678  1
  Sc  Sc77  1  0.10429316  0.90632520  0.30638768  1
  Sc  Sc78  1  0.69968544  0.29080163  0.49550964  1
  Sc  Sc79  1  0.69639123  0.89955827  0.10108364  1
  Sc  Sc80  1  0.49809867  0.50421481  0.10654288  1
  Sc  Sc81  1  0.09900145  0.30535445  0.10375262  1
  Sc  Sc82  1  0.90917054  0.49827952  0.09921543  1
  Sc  Sc83  1  0.30364235  0.69500742  0.30866507  1
  Sc  Sc84  1  0.49662390  0.09241104  0.29226500  1
  Sc  Sc85  1  0.48976250  0.91147788  0.50125745  1
  Sc  Sc86  1  0.08923885  0.70211276  0.90108231  1
  Sc  Sc87  1  0.29196990  0.29989379  0.10251127  1
  Sc  Sc88  1  0.89568916  0.30332612  0.29070948  1
  Sc  Sc89  1  0.30859601  0.69373645  0.89520452  1
  Sc  Sc90  1  0.10392597  0.10738995  0.50033286  1
  Sc  Sc91  1  0.28955279  0.09745611  0.29716349  1
  Sc  Sc92  1  0.88937975  0.29309573  0.89734053  1
  Sc  Sc93  1  0.89832978  0.69645939  0.09790045  1
  Sc  Sc94  1  0.70235115  0.89781490  0.29462592  1
  Sc  Sc95  1  0.50228889  0.30696160  0.50158144  1
  Sc  Sc96  1  0.69788478  0.31275104  0.29777633  1
  Sc  Sc97  1  0.49667632  0.09196387  0.69757056  1
  Sc  Sc98  1  0.49800326  0.69912661  0.89631690  1
  Sc  Sc99  1  0.29721986  0.70539300  0.50151747  1
  Nb  Nb100  1  0.90317403  0.49619937  0.70098004  1
  Nb  Nb101  1  0.09729663  0.49842953  0.30052349  1
  Nb  Nb102  1  0.09916854  0.89582018  0.09574481  1
  Nb  Nb103  1  0.90050675  0.50746392  0.89346626  1
  Nb  Nb104  1  0.89874850  0.69139991  0.49193842  1
  Nb  Nb105  1  0.50016946  0.89673838  0.29855848  1
  Nb  Nb106  1  0.10100444  0.09556789  0.70618196  1
  Nb  Nb107  1  0.90118522  0.89524590  0.90102951  1
  Nb  Nb108  1  0.49965944  0.50383833  0.90633651  1
  Nb  Nb109  1  0.30196317  0.30262726  0.89189987  1
  Nb  Nb110  1  0.29665903  0.10133582  0.50097755  1
  Nb  Nb111  1  0.50017606  0.70126870  0.30054215  1
  Nb  Nb112  1  0.89886887  0.69254739  0.90167782  1
  Nb  Nb113  1  0.90322510  0.09868236  0.30260801  1
  Nb  Nb114  1  0.10100928  0.09772112  0.89312740  1
  Nb  Nb115  1  0.90181608  0.49794346  0.50257166  1
  Nb  Nb116  1  0.29773372  0.30081532  0.71069481  1
  Nb  Nb117  1  0.50375680  0.90398399  0.69758794  1
  Nb  Nb118  1  0.69272382  0.10442772  0.09820534  1
  Nb  Nb119  1  0.69720512  0.90004106  0.49701546  1
  Nb  Nb120  1  0.09790449  0.09427345  0.09470102  1
  Nb  Nb121  1  0.10477956  0.70332349  0.70192174  1
  Nb  Nb122  1  0.29816673  0.29626538  0.29972979  1
  Nb  Nb123  1  0.90667831  0.30174015  0.50637374  1
  Nb  Nb124  1  0.50276864  0.50054295  0.50212695  1
  Nb  Nb125  1  0.60416628  0.59476092  -0.00424518  1
  Nb  Nb126  1  -0.00296275  0.59525477  0.40191340  1
  Nb  Nb127  1  0.19968166  0.00500674  0.60236451  1
  Nb  Nb128  1  0.59851092  0.80542467  0.59474497  1
  Nb  Nb129  1  0.40774646  0.59280321  0.59931328  1
  Nb  Nb130  1  0.60145541  0.19738442  0.19620548  1
  Nb  Nb131  1  0.19396264  0.80009936  0.79709565  1
  Nb  Nb132  1  0.39697924  0.39928520  0.20869168  1
  Nb  Nb133  1  0.40091141  0.80433429  0.00834505  1
  Nb  Nb134  1  -0.00770502  0.20272556  0.39631436  1
  Nb  Nb135  1  0.40362663  0.80316867  0.20361850  1
  Nb  Nb136  1  0.00555265  0.19181822  -0.00374725  1
  Nb  Nb137  1  0.39222636  0.20095754  -0.00452273  1
  Nb  Nb138  1  0.59551992  0.19915510  0.80118483  1
  Nb  Nb139  1  0.59662175  0.80268336  0.40166163  1
  Nb  Nb140  1  0.00510364  0.19499794  0.80543199  1
  Nb  Nb141  1  0.79515608  -0.00684965  0.59165755  1
  Nb  Nb142  1  0.79693235  0.40850036  -0.00599683  1
  Nb  Nb143  1  0.39360273  0.20138303  0.39852005  1
  Nb  Nb144  1  0.20155649  0.59742716  0.00008117  1
  Nb  Nb145  1  -0.00328561  0.39809668  0.80058249  1
  Nb  Nb146  1  0.00576062  0.80522794  0.19561059  1
  Nb  Nb147  1  0.20352594  0.39826820  0.60385981  1
  Nb  Nb148  1  0.81018925  0.39889314  0.59674946  1
  Nb  Nb149  1  0.60157230  0.40733608  -0.00445976  1
  Pd  Pd150  1  -0.00060368  0.18682571  0.60066213  1
  Pd  Pd151  1  -0.00306387  0.79462876  0.80103842  1
  Pd  Pd152  1  0.59146385  0.19441667  0.39031055  1
  Pd  Pd153  1  0.40339087  0.79819443  0.59453088  1
  Pd  Pd154  1  0.00872513  -0.00444388  0.20163612  1
  Pd  Pd155  1  0.19892983  0.20088674  0.00239874  1
  Pd  Pd156  1  0.00749429  0.20428265  0.20075828  1
  Pd  Pd157  1  0.81246500  0.79575569  0.79693818  1
  Pd  Pd158  1  -0.00844427  0.38923176  -0.01090085  1
  Pd  Pd159  1  0.00447061  0.01076348  0.40631016  1
  Pd  Pd160  1  0.19158898  0.79063561  0.39527715  1
  Pd  Pd161  1  0.59932848  0.79880860  0.79872289  1
  Pd  Pd162  1  0.80397817  0.21001553  0.39049956  1
  Pd  Pd163  1  0.20078275  0.80114711  0.21327969  1
  Pd  Pd164  1  0.00894940  0.78615247  0.38947507  1
  Pd  Pd165  1  0.79161930  0.19799167  0.60491035  1
  Pd  Pd166  1  0.79991229  0.39377210  0.40756095  1
  Pd  Pd167  1  0.00527023  0.60160121  0.00287214  1
  Pd  Pd168  1  0.20494830  0.40659112  0.00732589  1
  Pd  Pd169  1  0.39405718  -0.00056591  -0.00077141  1
  Pd  Pd170  1  -0.00430697  0.00580103  0.59081466  1
  Pd  Pd171  1  0.39363981  -0.00659834  0.19797269  1
  Pd  Pd172  1  0.20567403  0.80942094  0.61012784  1
  Pd  Pd173  1  -0.00804895  0.79555814  0.59889495  1
  Pd  Pd174  1  0.39562540  0.39555845  0.39898156  1
  Pd  Pd175  1  0.19045267  0.60564924  0.41073244  1
  Pd  Pd176  1  0.79209552  0.59069352  0.00556976  1
  Pd  Pd177  1  -0.00008837  0.60199315  0.59670663  1
  Pd  Pd178  1  0.78977225  0.19815307  0.20922486  1
  Pd  Pd179  1  0.80394547  0.59900164  0.19851358  1
  Pd  Pd180  1  0.80250346  0.80320806  0.59582848  1
  Pd  Pd181  1  0.39672128  0.40650198  0.60894871  1
  Pd  Pd182  1  0.19753321  0.00345579  -0.00300213  1
  Pd  Pd183  1  0.60363312  0.20266750  0.61004310  1
  Pd  Pd184  1  0.59514740  -0.00447389  0.39385091  1
  Pd  Pd185  1  -0.00451055  0.39569707  0.39233735  1
  Pd  Pd186  1  0.59892042  0.61153075  0.59209079  1
  Pd  Pd187  1  0.59305418  0.79386361  -0.00477328  1
  Pd  Pd188  1  0.80498937  0.80139117  0.00479682  1
  Pd  Pd189  1  0.39493777  0.80920216  0.80863317  1
  Pd  Pd190  1  0.20517848  -0.01039055  0.79050064  1
  Pd  Pd191  1  0.40038077  0.19869843  0.59714203  1
  Pd  Pd192  1  0.61359918  0.39534755  0.59567251  1
  Pd  Pd193  1  0.79298001  0.00093759  0.00961080  1
  Pd  Pd194  1  0.40287365  0.01237409  0.40045650  1
  Pd  Pd195  1  0.59090088  0.20841739  -0.00687760  1
  Pd  Pd196  1  0.40943160  0.40603990  0.79093711  1
  Pd  Pd197  1  0.19527494  0.60935766  0.81043957  1
  Pd  Pd198  1  0.79326103  0.00063145  0.19512497  1
  Pd  Pd199  1  0.40230193  0.20268179  0.20097670  1
  Rh  Rh200  1  0.59419299  0.38986436  0.80711181  1
  Rh  Rh201  1  0.19478496  0.00809094  0.40852674  1
  Rh  Rh202  1  0.20878775  0.59657501  0.19455171  1
  Rh  Rh203  1  0.40599797  0.20072698  0.80258596  1
  Rh  Rh204  1  0.40373587  0.61052784  -0.00099511  1
  Rh  Rh205  1  0.20600052  0.59696050  0.59951432  1
  Rh  Rh206  1  -0.01269543  0.60743691  0.20786290  1
  Rh  Rh207  1  0.80946087  0.59391342  0.60244969  1
  Rh  Rh208  1  0.00029670  0.39591160  0.20397327  1
  Rh  Rh209  1  0.19298286  0.19770114  0.19661949  1
  Rh  Rh210  1  0.39630952  0.59702353  0.40388425  1
  Rh  Rh211  1  0.20721247  0.40502037  0.19593478  1
  Rh  Rh212  1  0.19922612  0.19730228  0.39378879  1
  Rh  Rh213  1  0.39828318  0.59961416  0.21405189  1
  Rh  Rh214  1  0.00193246  0.00537296  -0.00333906  1
  Rh  Rh215  1  0.59006525  0.39749603  0.19440360  1
  Rh  Rh216  1  0.79231160  0.80403518  0.39875709  1
  Rh  Rh217  1  0.60847631  -0.00562441  -0.00520065  1
  Rh  Rh218  1  0.21240724  0.78851388  -0.01589301  1
  Rh  Rh219  1  0.39879180  -0.00198973  0.79730862  1
  Rh  Rh220  1  0.60006305  0.00615373  0.80151477  1
  Rh  Rh221  1  0.19263755  -0.00276170  0.19789815  1
  Rh  Rh222  1  0.80222268  -0.00779840  0.40393054  1
  Rh  Rh223  1  0.60516447  0.60773854  0.40486460  1
  Rh  Rh224  1  0.00002513  0.59877663  0.79861200  1
  Rh  Rh225  1  -0.01151115  0.79574801  0.00365974  1
  Rh  Rh226  1  0.60565167  0.40228278  0.40986929  1
  Rh  Rh227  1  0.79577064  0.18792304  0.79845182  1
  Rh  Rh228  1  0.20365014  0.39754384  0.40908626  1
  Rh  Rh229  1  0.40088174  0.39256146  0.00619605  1
  Rh  Rh230  1  -0.00514580  0.00148596  0.80740453  1
  Rh  Rh231  1  0.80437995  0.40498579  0.19016053  1
  Rh  Rh232  1  0.60358517  -0.00621813  0.60117327  1
  Rh  Rh233  1  0.59919143  0.61052968  0.80710119  1
  Rh  Rh234  1  0.59404382  0.79769883  0.20714374  1
  Rh  Rh235  1  0.60738952  0.00730895  0.20465282  1
  Rh  Rh236  1  0.19273678  0.20605963  0.79430050  1
  Rh  Rh237  1  0.18881188  0.39435841  0.79052075  1
  Rh  Rh238  1  0.81055949  0.40303909  0.79922143  1
  Rh  Rh239  1  0.81013159  0.80811434  0.19462299  1
  Rh  Rh240  1  0.40424912  0.80334341  0.39462623  1
  Rh  Rh241  1  0.00206315  0.40305512  0.61042151  1
  Rh  Rh242  1  0.59872670  0.60124740  0.19798948  1
  Rh  Rh243  1  0.80707804  0.19688670  0.00316023  1
  Rh  Rh244  1  0.20287421  0.19777754  0.61074934  1
  Rh  Rh245  1  0.80245921  -0.00436372  0.79394139  1
  Rh  Rh246  1  0.39283992  0.00649621  0.59939620  1
  Rh  Rh247  1  0.80844980  0.60603720  0.79240176  1
  Rh  Rh248  1  0.80635307  0.59673367  0.39456297  1
  Rh  Rh249  1  0.40753863  0.59248352  0.79041202  1
