# generated using pymatgen
data_ZrScNbPdRh
_symmetry_space_group_name_H-M   'P 1'
_cell_length_a   16.56095414
_cell_length_b   16.56052024
_cell_length_c   16.55763299
_cell_angle_alpha   89.99564272
_cell_angle_beta   89.99335369
_cell_angle_gamma   90.02569550
_symmetry_Int_Tables_number   1
_chemical_formula_structural   ZrScNbPdRh
_chemical_formula_sum   'Zr50 Sc50 Nb50 Pd50 Rh50'
_cell_volume   4541.06307647
_cell_formula_units_Z   50
loop_
 _symmetry_equiv_pos_site_id
 _symmetry_equiv_pos_as_xyz
  1  'x, y, z'
loop_
 _atom_site_type_symbol
 _atom_site_label
 _atom_site_symmetry_multiplicity
 _atom_site_fract_x
 _atom_site_fract_y
 _atom_site_fract_z
 _atom_site_occupancy
  Zr  Zr0  1  0.09824179  0.49720899  0.90425066  1
  Zr  Zr1  1  0.50559954  0.29444050  0.70329168  1
  Zr  Zr2  1  0.89855354  0.50596156  0.10522278  1
  Zr  Zr3  1  0.10334228  0.30161928  0.30728698  1
  Zr  Zr4  1  0.89839499  0.88769537  0.90549001  1
  Zr  Zr5  1  0.30155026  0.09989398  0.10683148  1
  Zr  Zr6  1  0.90163866  0.09633828  0.90442694  1
  Zr  Zr7  1  0.70530679  0.49442615  0.10548866  1
  Zr  Zr8  1  0.30385219  0.29722998  0.90754760  1
  Zr  Zr9  1  0.08582391  0.30099602  0.11008339  1
  Zr  Zr10  1  0.69942929  0.09809731  0.29989166  1
  Zr  Zr11  1  0.09715526  0.10511453  0.49965086  1
  Zr  Zr12  1  0.91201461  0.30434688  0.29488077  1
  Zr  Zr13  1  0.48957120  0.50384732  0.09494657  1
  Zr  Zr14  1  0.50241436  0.70040823  0.50383121  1
  Zr  Zr15  1  0.69481500  0.29647249  0.09704112  1
  Zr  Zr16  1  0.70294986  0.50310085  0.29387476  1
  Zr  Zr17  1  0.90433856  0.89814671  0.69255336  1
  Zr  Zr18  1  0.89787389  0.29353554  0.89611353  1
  Zr  Zr19  1  0.89863378  0.49722975  0.70064874  1
  Zr  Zr20  1  0.09967988  0.09036763  0.70470480  1
  Zr  Zr21  1  0.09099810  0.49971652  0.09561181  1
  Zr  Zr22  1  0.49542200  0.09874995  0.70329610  1
  Zr  Zr23  1  0.30557432  0.50221644  0.50231663  1
  Zr  Zr24  1  0.50395019  0.49743988  0.30855812  1
  Zr  Zr25  1  0.29649001  0.70590164  0.90041892  1
  Zr  Zr26  1  0.29743627  0.09475741  0.69674886  1
  Zr  Zr27  1  0.29378012  0.70255296  0.49699747  1
  Zr  Zr28  1  0.70811136  0.09710092  0.09735457  1
  Zr  Zr29  1  0.50441723  0.69955951  0.90829266  1
  Zr  Zr30  1  0.29581317  0.70574250  0.70228576  1
  Zr  Zr31  1  0.30487476  0.49649746  0.91271223  1
  Zr  Zr32  1  0.29946622  0.10432522  0.50066976  1
  Zr  Zr33  1  0.50768392  0.69747843  0.10214177  1
  Zr  Zr34  1  0.09897260  0.10442872  0.28642163  1
  Zr  Zr35  1  0.49970042  0.09371307  0.09132168  1
  Zr  Zr36  1  0.89760912  0.71099039  0.50223196  1
  Zr  Zr37  1  0.90324546  0.09755897  0.69710928  1
  Zr  Zr38  1  0.90538941  0.70761123  0.70192261  1
  Zr  Zr39  1  0.90261513  0.49381036  0.49863594  1
  Zr  Zr40  1  0.90349653  0.70625499  0.30538556  1
  Zr  Zr41  1  0.90222118  0.09084380  0.49951596  1
  Zr  Zr42  1  0.29404704  0.49976971  0.69456607  1
  Zr  Zr43  1  0.09275053  0.90273471  0.10498342  1
  Zr  Zr44  1  0.50019901  0.29823415  0.30010015  1
  Zr  Zr45  1  0.50372409  0.89886179  0.29201226  1
  Zr  Zr46  1  0.29845764  0.29676020  0.69536741  1
  Zr  Zr47  1  0.30083180  0.29106838  0.30298892  1
  Zr  Zr48  1  0.49740046  0.49532029  0.69637493  1
  Zr  Zr49  1  0.50221447  0.30194023  0.48860071  1
  Sc  Sc50  1  0.29727108  0.90307429  0.50523456  1
  Sc  Sc51  1  0.29026919  0.89604435  0.09909969  1
  Sc  Sc52  1  0.30563532  0.50925805  0.29902097  1
  Sc  Sc53  1  0.70465729  0.30300171  0.71163795  1
  Sc  Sc54  1  0.28436478  0.69675581  0.29762414  1
  Sc  Sc55  1  0.10894807  0.71560759  0.10461913  1
  Sc  Sc56  1  0.49383532  0.89693792  0.69947353  1
  Sc  Sc57  1  0.90285383  0.08863888  0.29937979  1
  Sc  Sc58  1  0.69738196  0.48555473  0.89983543  1
  Sc  Sc59  1  0.10240362  0.89608098  0.70022406  1
  Sc  Sc60  1  0.09587020  0.69923531  0.89428495  1
  Sc  Sc61  1  0.49958253  0.90622796  0.90249836  1
  Sc  Sc62  1  0.90138850  0.30490114  0.69857416  1
  Sc  Sc63  1  0.49742073  0.89880515  0.50578218  1
  Sc  Sc64  1  0.89577062  0.50187857  0.29985367  1
  Sc  Sc65  1  0.69357501  0.90461920  0.09939647  1
  Sc  Sc66  1  0.49639308  0.10470106  0.50162575  1
  Sc  Sc67  1  0.70155430  0.29644844  0.90555550  1
  Sc  Sc68  1  0.69640092  0.09511764  0.50218693  1
  Sc  Sc69  1  0.10074408  0.50923508  0.30810295  1
  Sc  Sc70  1  0.70213714  0.10027792  0.90824275  1
  Sc  Sc71  1  0.10283437  0.89659377  0.89577544  1
  Sc  Sc72  1  0.10296839  0.89582875  0.49820977  1
  Sc  Sc73  1  0.09878609  0.50120402  0.70115803  1
  Sc  Sc74  1  0.30218906  0.90792810  0.29489063  1
  Sc  Sc75  1  0.69547841  0.90417595  0.69141931  1
  Sc  Sc76  1  0.90874822  0.50430885  0.90932748  1
  Sc  Sc77  1  0.31299532  0.30714896  0.09779760  1
  Sc  Sc78  1  0.09262811  0.30317677  0.68952440  1
  Sc  Sc79  1  0.69749898  0.69375746  0.09760882  1
  Sc  Sc80  1  0.50833061  0.29909898  0.90689650  1
  Sc  Sc81  1  0.29308121  0.90129686  0.69920521  1
  Sc  Sc82  1  0.71052433  0.49723695  0.49425914  1
  Sc  Sc83  1  0.70402503  0.70853255  0.49583425  1
  Sc  Sc84  1  0.51352348  0.69272344  0.29809106  1
  Sc  Sc85  1  0.30932842  0.09631509  0.89844329  1
  Sc  Sc86  1  0.90751931  0.90359757  0.30267659  1
  Sc  Sc87  1  0.10297618  0.70687263  0.48901977  1
  Sc  Sc88  1  0.10630814  0.49341276  0.50068898  1
  Sc  Sc89  1  0.70560396  0.70710602  0.68799997  1
  Sc  Sc90  1  0.70622621  0.49154327  0.70456943  1
  Sc  Sc91  1  0.89596435  0.30972920  0.10238759  1
  Sc  Sc92  1  0.90409898  0.08761411  0.09759175  1
  Sc  Sc93  1  0.70461705  0.89794082  0.29412485  1
  Sc  Sc94  1  0.70359690  0.89758938  0.50185340  1
  Sc  Sc95  1  0.68635883  0.30550277  0.29917830  1
  Sc  Sc96  1  0.29446692  0.89604879  0.89192977  1
  Sc  Sc97  1  0.69432595  0.09833289  0.69817105  1
  Sc  Sc98  1  0.48490819  0.10253890  0.30061662  1
  Sc  Sc99  1  0.70107885  0.69988843  0.29581600  1
  Nb  Nb100  1  0.29622334  0.10147881  0.30253774  1
  Nb  Nb101  1  0.10080936  0.89189809  0.29932678  1
  Nb  Nb102  1  0.89378220  0.70063582  0.90404773  1
  Nb  Nb103  1  0.28055820  0.30163327  0.49864614  1
  Nb  Nb104  1  0.09337671  0.30176201  0.49640194  1
  Nb  Nb105  1  0.50094294  0.70145116  0.70485660  1
  Nb  Nb106  1  0.30477964  0.69492988  0.10335666  1
  Nb  Nb107  1  0.49768294  0.10126640  0.90018002  1
  Nb  Nb108  1  0.90218491  0.70061887  0.09135931  1
  Nb  Nb109  1  0.09678819  0.09918251  0.09633381  1
  Nb  Nb110  1  0.49783888  0.89508961  0.10202598  1
  Nb  Nb111  1  0.49892688  0.50095442  0.50082205  1
  Nb  Nb112  1  0.70030755  0.29558064  0.49399257  1
  Nb  Nb113  1  0.89980060  0.90211016  0.49803524  1
  Nb  Nb114  1  0.30056173  0.50753539  0.10461788  1
  Nb  Nb115  1  0.50440184  0.29680315  0.09747885  1
  Nb  Nb116  1  0.09767813  0.71367970  0.30204452  1
  Nb  Nb117  1  0.70245444  0.89681814  0.89809032  1
  Nb  Nb118  1  0.70149049  0.70709463  0.90032334  1
  Nb  Nb119  1  0.09743878  0.70166457  0.69558439  1
  Nb  Nb120  1  0.90207483  0.89787522  0.10020688  1
  Nb  Nb121  1  0.09884351  0.29819395  0.90601665  1
  Nb  Nb122  1  0.50022917  0.50029674  0.89683399  1
  Nb  Nb123  1  0.09271749  0.10318971  0.90321036  1
  Nb  Nb124  1  0.90801513  0.29809671  0.49917966  1
  Nb  Nb125  1  -0.00027664  0.61390571  0.20035949  1
  Nb  Nb126  1  0.80334892  0.20363486  0.59050460  1
  Nb  Nb127  1  0.60345864  0.79644355  0.80293638  1
  Nb  Nb128  1  0.59810203  0.59479108  0.60203059  1
  Nb  Nb129  1  0.40091252  0.79795612  0.39312812  1
  Nb  Nb130  1  0.39857531  0.40144774  0.80213364  1
  Nb  Nb131  1  0.60277154  0.60400612  0.79786929  1
  Nb  Nb132  1  0.60022498  0.40043084  0.59196610  1
  Nb  Nb133  1  0.20108226  0.39299258  0.80600610  1
  Nb  Nb134  1  0.40181596  0.79512095  0.19816607  1
  Nb  Nb135  1  0.19282448  0.20064477  0.80788749  1
  Nb  Nb136  1  0.80061264  -0.00623228  0.80350403  1
  Nb  Nb137  1  0.19815767  0.00766520  0.39222014  1
  Nb  Nb138  1  0.79966605  0.19899461  0.20475689  1
  Nb  Nb139  1  0.40148794  0.79778268  0.00785598  1
  Nb  Nb140  1  0.59529626  -0.00134935  0.39654460  1
  Nb  Nb141  1  0.20390720  0.60030154  0.00712606  1
  Nb  Nb142  1  0.81079697  0.79934919  0.19138707  1
  Nb  Nb143  1  0.19154949  0.19763993  0.00115110  1
  Nb  Nb144  1  0.80219902  0.20386119  0.40094754  1
  Nb  Nb145  1  0.20281204  0.40592629  0.19679638  1
  Nb  Nb146  1  0.19131820  0.01033990  -0.00091253  1
  Nb  Nb147  1  0.79839627  0.60972773  0.80779390  1
  Nb  Nb148  1  -0.00116241  0.60526478  0.59901533  1
  Nb  Nb149  1  0.40435570  0.59871848  0.80073786  1
  Pd  Pd150  1  0.39951129  0.20687324  0.59123208  1
  Pd  Pd151  1  0.39537551  0.80076913  0.59679969  1
  Pd  Pd152  1  0.79218541  -0.00240872  0.40099288  1
  Pd  Pd153  1  0.61138278  0.58861898  -0.00445552  1
  Pd  Pd154  1  0.80068606  0.39116505  0.39084022  1
  Pd  Pd155  1  0.79034826  0.80349609  0.01122014  1
  Pd  Pd156  1  0.39871842  0.40226182  0.20337750  1
  Pd  Pd157  1  0.20739907  0.40868294  0.39196330  1
  Pd  Pd158  1  0.60424458  -0.00463787  0.80430693  1
  Pd  Pd159  1  0.60837759  0.20570542  0.59892670  1
  Pd  Pd160  1  0.40283008  0.38803714  0.59754102  1
  Pd  Pd161  1  0.00296103  0.39645635  0.80310047  1
  Pd  Pd162  1  0.79982882  0.60005211  0.60507057  1
  Pd  Pd163  1  0.59159792  0.40498030  0.19398526  1
  Pd  Pd164  1  0.59739491  0.80768551  0.40034077  1
  Pd  Pd165  1  0.80429525  0.39950900  -0.00360757  1
  Pd  Pd166  1  0.79202618  0.59437934  -0.00588265  1
  Pd  Pd167  1  0.00195558  0.60173018  0.40426820  1
  Pd  Pd168  1  -0.00636138  0.60224468  0.79671807  1
  Pd  Pd169  1  0.79383200  0.80328712  0.79052444  1
  Pd  Pd170  1  0.00951191  0.79721183  -0.00336152  1
  Pd  Pd171  1  0.00427287  0.20568961  0.79183567  1
  Pd  Pd172  1  0.60979514  0.59774958  0.41045912  1
  Pd  Pd173  1  0.38864021  -0.01090416  0.00142001  1
  Pd  Pd174  1  0.18721171  0.59767605  0.19616839  1
  Pd  Pd175  1  0.40403113  0.19980859  0.19441577  1
  Pd  Pd176  1  0.60115978  -0.00239532  -0.00549007  1
  Pd  Pd177  1  0.79633170  0.18880530  0.79281355  1
  Pd  Pd178  1  -0.00753250  0.20356357  0.00999939  1
  Pd  Pd179  1  0.39847478  0.20374553  0.80485511  1
  Pd  Pd180  1  0.00875243  -0.00893242  0.59487863  1
  Pd  Pd181  1  0.39870377  -0.00712000  0.40245343  1
  Pd  Pd182  1  0.59296466  -0.00074619  0.59351419  1
  Pd  Pd183  1  0.79832212  0.60495812  0.40027458  1
  Pd  Pd184  1  0.39781733  -0.00792882  0.79862929  1
  Pd  Pd185  1  0.38975086  0.39698536  0.40057422  1
  Pd  Pd186  1  0.18882366  0.60482377  0.59317342  1
  Pd  Pd187  1  0.39911105  0.61106539  0.39329071  1
  Pd  Pd188  1  -0.00532800  0.19448361  0.39456247  1
  Pd  Pd189  1  0.59932827  0.19029184  0.19876544  1
  Pd  Pd190  1  0.19809257  -0.00331323  0.19922499  1
  Pd  Pd191  1  0.18951754  0.20009088  0.60615154  1
  Pd  Pd192  1  0.20363280  0.21166216  0.18897023  1
  Pd  Pd193  1  0.20412452  0.59440355  0.80768189  1
  Pd  Pd194  1  0.40198167  0.60837332  0.60493885  1
  Pd  Pd195  1  0.59507433  0.00694507  0.20247828  1
  Pd  Pd196  1  -0.00480705  -0.01073678  0.80761282  1
  Pd  Pd197  1  0.19768021  0.39709696  0.00853830  1
  Pd  Pd198  1  0.60609751  0.19444935  0.80934417  1
  Pd  Pd199  1  0.79467731  0.38975554  0.59894934  1
  Rh  Rh200  1  0.39447909  0.60787849  -0.00447938  1
  Rh  Rh201  1  0.59836793  0.79506300  0.60490787  1
  Rh  Rh202  1  0.00166148  0.40414209  0.39964561  1
  Rh  Rh203  1  -0.01499431  0.19075398  0.19474097  1
  Rh  Rh204  1  0.80597486  0.20125034  0.01194259  1
  Rh  Rh205  1  0.59611657  0.40233441  0.00639234  1
  Rh  Rh206  1  0.59926616  0.59037234  0.19744055  1
  Rh  Rh207  1  0.60104640  0.18810165  0.39759325  1
  Rh  Rh208  1  0.80179139  0.80715201  0.39126918  1
  Rh  Rh209  1  0.00440661  -0.00958403  -0.00514651  1
  Rh  Rh210  1  0.39866748  -0.00355545  0.19454361  1
  Rh  Rh211  1  0.40407350  0.19760514  0.00268279  1
  Rh  Rh212  1  0.00270532  0.40797670  0.59619148  1
  Rh  Rh213  1  0.59437089  0.40094278  0.79462591  1
  Rh  Rh214  1  0.81149209  0.40762191  0.81100258  1
  Rh  Rh215  1  0.19199890  0.79751901  0.79382835  1
  Rh  Rh216  1  0.60817053  0.79716486  0.19433811  1
  Rh  Rh217  1  0.79490407  0.38868797  0.20657870  1
  Rh  Rh218  1  0.19655898  0.19500253  0.40209633  1
  Rh  Rh219  1  0.40026881  0.00091972  0.60554079  1
  Rh  Rh220  1  0.81012778  0.61408719  0.19985460  1
  Rh  Rh221  1  0.41298074  0.39597193  -0.00087791  1
  Rh  Rh222  1  0.01394427  -0.00537465  0.39792574  1
  Rh  Rh223  1  0.79890160  0.00349411  0.60599227  1
  Rh  Rh224  1  0.00836202  0.41868451  0.21179604  1
  Rh  Rh225  1  -0.01081225  0.39194502  -0.00488442  1
  Rh  Rh226  1  0.19941341  0.59832538  0.40493688  1
  Rh  Rh227  1  0.80466636  -0.00520016  0.19447293  1
  Rh  Rh228  1  0.60576076  0.40900689  0.40568947  1
  Rh  Rh229  1  0.80209873  -0.00827806  -0.00492762  1
  Rh  Rh230  1  -0.00389385  0.20063457  0.60110450  1
  Rh  Rh231  1  0.39418895  0.20415037  0.40631322  1
  Rh  Rh232  1  0.20442817  0.79991123  0.00008570  1
  Rh  Rh233  1  0.00601672  0.79758386  0.59269723  1
  Rh  Rh234  1  -0.00600700  0.79882856  0.19922008  1
  Rh  Rh235  1  0.00025152  -0.00174890  0.20204898  1
  Rh  Rh236  1  0.00274058  0.79867189  0.80334437  1
  Rh  Rh237  1  0.40706664  0.60538902  0.20872888  1
  Rh  Rh238  1  0.20830605  0.80396278  0.20449717  1
  Rh  Rh239  1  0.19621073  -0.00052929  0.59167358  1
  Rh  Rh240  1  0.19766091  0.79820625  0.60262148  1
  Rh  Rh241  1  0.80092664  0.80914581  0.59857858  1
  Rh  Rh242  1  0.01179041  0.61467228  0.00770015  1
  Rh  Rh243  1  0.59658644  0.19328327  -0.00231133  1
  Rh  Rh244  1  -0.00226616  0.80984974  0.40553467  1
  Rh  Rh245  1  0.19508923  0.39654663  0.60182390  1
  Rh  Rh246  1  0.40921856  0.79756636  0.81040280  1
  Rh  Rh247  1  0.20048753  0.00846601  0.80838329  1
  Rh  Rh248  1  0.21083539  0.81286920  0.39233042  1
  Rh  Rh249  1  0.59912818  0.80901617  -0.00261574  1
