# generated using pymatgen
data_ZrScNbPdRh
_symmetry_space_group_name_H-M   'P 1'
_cell_length_a   16.55122136
_cell_length_b   16.55117405
_cell_length_c   16.55074914
_cell_angle_alpha   89.97909744
_cell_angle_beta   90.01338981
_cell_angle_gamma   89.97724105
_symmetry_Int_Tables_number   1
_chemical_formula_structural   ZrScNbPdRh
_chemical_formula_sum   'Zr50 Sc50 Nb50 Pd50 Rh50'
_cell_volume   4533.94694588
_cell_formula_units_Z   50
loop_
 _symmetry_equiv_pos_site_id
 _symmetry_equiv_pos_as_xyz
  1  'x, y, z'
loop_
 _atom_site_type_symbol
 _atom_site_label
 _atom_site_symmetry_multiplicity
 _atom_site_fract_x
 _atom_site_fract_y
 _atom_site_fract_z
 _atom_site_occupancy
  Zr  Zr0  1  0.90363201  0.69170039  0.90653856  1
  Zr  Zr1  1  0.89104594  0.49134797  0.50685443  1
  Zr  Zr2  1  0.89055974  0.90279565  0.88830150  1
  Zr  Zr3  1  0.71253996  0.89088930  0.70412705  1
  Zr  Zr4  1  0.69360027  0.70273958  0.69955214  1
  Zr  Zr5  1  0.10069471  0.69647852  0.70351481  1
  Zr  Zr6  1  0.50159646  0.90591106  0.10071683  1
  Zr  Zr7  1  0.29701764  0.88860166  0.49153615  1
  Zr  Zr8  1  0.71186869  0.29907074  0.89979373  1
  Zr  Zr9  1  0.90021925  0.90764589  0.68816031  1
  Zr  Zr10  1  0.10118454  0.29171468  0.30280475  1
  Zr  Zr11  1  0.90070922  0.28873331  0.09331474  1
  Zr  Zr12  1  0.90603584  0.49224113  0.70604043  1
  Zr  Zr13  1  0.49719844  0.29923145  0.10582474  1
  Zr  Zr14  1  0.10003541  0.90393277  0.08752014  1
  Zr  Zr15  1  0.68950106  0.69629203  0.89436342  1
  Zr  Zr16  1  0.70720847  0.29121360  0.10410665  1
  Zr  Zr17  1  0.70110255  0.50091899  0.29512635  1
  Zr  Zr18  1  0.11121533  0.29704142  0.11337965  1
  Zr  Zr19  1  0.30378307  0.70228193  0.10009539  1
  Zr  Zr20  1  0.10392123  0.29495033  0.49841227  1
  Zr  Zr21  1  0.09935168  0.49963386  0.10776613  1
  Zr  Zr22  1  0.31132712  0.69430034  0.90182623  1
  Zr  Zr23  1  0.09594988  0.70283073  0.09183807  1
  Zr  Zr24  1  0.49307964  0.10724858  0.50526377  1
  Zr  Zr25  1  0.09843173  0.70447692  0.89881866  1
  Zr  Zr26  1  0.50501836  0.09865605  0.89601684  1
  Zr  Zr27  1  0.29078141  0.89959452  0.69545261  1
  Zr  Zr28  1  0.10289998  0.49333375  0.30259432  1
  Zr  Zr29  1  0.50025766  0.69626542  0.70868667  1
  Zr  Zr30  1  0.90333363  0.50794136  0.29522253  1
  Zr  Zr31  1  0.90240327  0.09555582  0.50673502  1
  Zr  Zr32  1  0.89136877  0.29607626  0.70167755  1
  Zr  Zr33  1  0.49128868  0.90181025  0.29794675  1
  Zr  Zr34  1  0.29581908  0.70624584  0.31265083  1
  Zr  Zr35  1  0.70060584  0.91088989  0.10847818  1
  Zr  Zr36  1  0.49805730  0.29859563  0.49934034  1
  Zr  Zr37  1  0.69854664  0.09914860  0.29758377  1
  Zr  Zr38  1  0.29332425  0.30732476  0.29418140  1
  Zr  Zr39  1  0.49799997  0.49314772  0.29764554  1
  Zr  Zr40  1  0.09474073  0.50729199  0.89229772  1
  Zr  Zr41  1  0.10563049  0.89719941  0.70333702  1
  Zr  Zr42  1  0.10634066  0.70359117  0.49508311  1
  Zr  Zr43  1  0.69470438  0.70568001  0.50907686  1
  Zr  Zr44  1  0.50600792  0.29081120  0.69687159  1
  Zr  Zr45  1  0.29574258  0.30670605  0.50210330  1
  Zr  Zr46  1  0.10499726  0.09371819  0.69550858  1
  Zr  Zr47  1  0.90589029  0.10383888  0.90182280  1
  Zr  Zr48  1  0.08659244  0.69549062  0.30596368  1
  Zr  Zr49  1  0.49901069  0.49663574  0.50146611  1
  Sc  Sc50  1  0.90122293  0.29648119  0.29464898  1
  Sc  Sc51  1  0.30285070  0.29176815  0.10393687  1
  Sc  Sc52  1  0.30085704  0.08439581  0.70062758  1
  Sc  Sc53  1  0.29857996  0.09757846  0.50429006  1
  Sc  Sc54  1  0.30222608  0.70190584  0.70050644  1
  Sc  Sc55  1  0.10891909  0.29494733  0.89076805  1
  Sc  Sc56  1  0.89278607  0.69920774  0.10603951  1
  Sc  Sc57  1  0.91599586  0.08945354  0.30327065  1
  Sc  Sc58  1  0.70319394  0.50774552  0.09836743  1
  Sc  Sc59  1  0.89749554  0.49532646  0.90339953  1
  Sc  Sc60  1  0.48199533  0.89747048  0.70719542  1
  Sc  Sc61  1  0.90128379  0.90739836  0.10415130  1
  Sc  Sc62  1  0.49769907  0.89904236  0.49131052  1
  Sc  Sc63  1  0.11170575  0.09822842  0.90614844  1
  Sc  Sc64  1  0.29539154  0.31304341  0.70690836  1
  Sc  Sc65  1  0.69861469  0.50581444  0.68723242  1
  Sc  Sc66  1  0.70331788  0.71274327  0.29491521  1
  Sc  Sc67  1  0.30013592  0.69602883  0.49991727  1
  Sc  Sc68  1  0.10343977  0.30811904  0.70118918  1
  Sc  Sc69  1  0.10660362  0.50252554  0.50801600  1
  Sc  Sc70  1  0.30484340  0.90067587  0.09759641  1
  Sc  Sc71  1  0.70721141  0.11282629  0.70206530  1
  Sc  Sc72  1  0.69293680  0.10390811  0.49887595  1
  Sc  Sc73  1  0.90111399  0.30243121  0.89334184  1
  Sc  Sc74  1  0.89777796  0.70672505  0.69948390  1
  Sc  Sc75  1  0.50153521  0.70387677  0.29221456  1
  Sc  Sc76  1  0.70223477  0.30754994  0.50501300  1
  Sc  Sc77  1  0.09838460  0.09743281  0.49282097  1
  Sc  Sc78  1  0.30726387  0.10063688  0.29989651  1
  Sc  Sc79  1  0.89453091  0.88960722  0.29786120  1
  Sc  Sc80  1  0.29793021  0.90665885  0.89208585  1
  Sc  Sc81  1  0.30378604  0.49788962  0.88339519  1
  Sc  Sc82  1  0.08049117  0.89786324  0.29929292  1
  Sc  Sc83  1  0.31222524  0.50025373  0.10823898  1
  Sc  Sc84  1  0.49650913  0.69932835  0.50812934  1
  Sc  Sc85  1  0.10427619  0.50089451  0.70456390  1
  Sc  Sc86  1  0.50264231  0.29328268  0.89675218  1
  Sc  Sc87  1  0.49525407  0.69631669  0.09376470  1
  Sc  Sc88  1  0.09401149  0.09748288  0.09415470  1
  Sc  Sc89  1  0.09382438  0.89809058  0.50393687  1
  Sc  Sc90  1  0.50109388  0.51686099  0.89641381  1
  Sc  Sc91  1  0.49415554  0.50121286  0.69725301  1
  Sc  Sc92  1  0.50401827  0.50832438  0.10421957  1
  Sc  Sc93  1  0.90712529  0.70526789  0.50021406  1
  Sc  Sc94  1  0.69885483  0.30153015  0.29455589  1
  Sc  Sc95  1  0.29352824  0.10735982  0.09392035  1
  Sc  Sc96  1  0.70739993  0.09377325  0.89974781  1
  Sc  Sc97  1  0.49823922  0.10180121  0.30965701  1
  Sc  Sc98  1  0.89752977  0.51081117  0.09855605  1
  Sc  Sc99  1  0.69502933  0.69495200  0.10294620  1
  Nb  Nb100  1  0.69938001  0.09856676  0.09944282  1
  Nb  Nb101  1  0.30273696  0.10736656  0.90442480  1
  Nb  Nb102  1  0.69903876  0.50590172  0.49495211  1
  Nb  Nb103  1  0.90191275  0.09982387  0.70022060  1
  Nb  Nb104  1  0.50126349  0.70444336  0.89605994  1
  Nb  Nb105  1  0.29730122  0.50220255  0.30783904  1
  Nb  Nb106  1  0.30348542  0.50237734  0.49806894  1
  Nb  Nb107  1  0.90040116  0.29685857  0.50069053  1
  Nb  Nb108  1  0.89599603  0.09781949  0.09402721  1
  Nb  Nb109  1  0.89578667  0.90550967  0.50038178  1
  Nb  Nb110  1  0.69776533  0.89881389  0.89548650  1
  Nb  Nb111  1  0.10119206  0.09473458  0.30140289  1
  Nb  Nb112  1  0.89774463  0.69820519  0.30224199  1
  Nb  Nb113  1  0.69934579  0.89795828  0.50210782  1
  Nb  Nb114  1  0.30356378  0.89850843  0.29834363  1
  Nb  Nb115  1  0.49559075  0.30190968  0.29843168  1
  Nb  Nb116  1  0.50485742  0.09946316  0.09304216  1
  Nb  Nb117  1  0.50240011  0.90211320  0.89713361  1
  Nb  Nb118  1  0.09685714  0.90446030  0.90051707  1
  Nb  Nb119  1  0.69962536  0.50105676  0.90093796  1
  Nb  Nb120  1  0.50190747  0.09838828  0.70017073  1
  Nb  Nb121  1  0.70101094  0.29781164  0.71126001  1
  Nb  Nb122  1  0.30267199  0.29600840  0.90546334  1
  Nb  Nb123  1  0.69596974  0.90099779  0.30618058  1
  Nb  Nb124  1  0.29680094  0.50319901  0.69482130  1
  Nb  Nb125  1  0.39716723  0.19526416  0.80088923  1
  Nb  Nb126  1  0.59948745  0.80685483  -0.00689629  1
  Nb  Nb127  1  -0.00262741  0.39575658  0.40407960  1
  Nb  Nb128  1  0.60161576  -0.00290546  0.79353335  1
  Nb  Nb129  1  0.19796917  0.80226903  0.20422781  1
  Nb  Nb130  1  0.79629250  0.60243852  0.40249196  1
  Nb  Nb131  1  0.59777054  -0.00138568  0.60727842  1
  Nb  Nb132  1  0.19976406  -0.00741605  0.38966516  1
  Nb  Nb133  1  0.00921829  0.39708258  0.00357211  1
  Nb  Nb134  1  0.00199639  0.00083675  0.79842691  1
  Nb  Nb135  1  0.19788680  -0.00537847  0.20494157  1
  Nb  Nb136  1  0.60123534  0.39738245  -0.00407053  1
  Nb  Nb137  1  0.60550312  0.19720648  0.00555815  1
  Nb  Nb138  1  0.40547546  0.00706002  -0.00442230  1
  Nb  Nb139  1  0.79421850  -0.00598113  0.40321087  1
  Nb  Nb140  1  0.20074614  0.60556575  0.20288508  1
  Nb  Nb141  1  0.60554792  0.59759220  0.40096131  1
  Nb  Nb142  1  0.80567009  0.19558468  0.40264558  1
  Nb  Nb143  1  0.79585783  0.59722872  0.80099245  1
  Nb  Nb144  1  0.20319313  0.59518364  0.00201164  1
  Nb  Nb145  1  0.78929279  0.80388458  -0.00288353  1
  Nb  Nb146  1  -0.00328024  0.19992481  0.60154856  1
  Nb  Nb147  1  0.60690293  0.39978078  0.80186072  1
  Nb  Nb148  1  0.40260858  0.39654531  -0.00416307  1
  Nb  Nb149  1  0.20496896  0.40265155  -0.00137815  1
  Pd  Pd150  1  0.01141016  0.20773235  -0.00355994  1
  Pd  Pd151  1  0.80647479  0.40199226  0.19174804  1
  Pd  Pd152  1  0.59305889  0.00593434  0.20841392  1
  Pd  Pd153  1  0.21023989  0.19557478  0.79152283  1
  Pd  Pd154  1  0.20647030  0.79590451  0.80720657  1
  Pd  Pd155  1  0.41090168  0.39522538  0.80335134  1
  Pd  Pd156  1  0.39769711  0.39887540  0.60505325  1
  Pd  Pd157  1  0.60264482  0.40261447  0.19001135  1
  Pd  Pd158  1  0.58644375  0.81345457  0.60832570  1
  Pd  Pd159  1  0.80162194  0.79879454  0.40542974  1
  Pd  Pd160  1  0.39559970  0.60439342  0.21066669  1
  Pd  Pd161  1  0.60419562  0.40027206  0.60596151  1
  Pd  Pd162  1  0.39156576  0.20623771  0.39847950  1
  Pd  Pd163  1  0.81118674  0.18627342  0.20833754  1
  Pd  Pd164  1  0.60671115  0.21092017  0.39886791  1
  Pd  Pd165  1  -0.01626519  0.80834791  0.00054276  1
  Pd  Pd166  1  -0.00534398  0.80496035  0.79760185  1
  Pd  Pd167  1  0.80157435  -0.00296727  -0.00084201  1
  Pd  Pd168  1  -0.00698632  0.58925468  0.41329756  1
  Pd  Pd169  1  -0.00935710  0.39656422  0.19836811  1
  Pd  Pd170  1  0.20860037  0.18919165  0.39623485  1
  Pd  Pd171  1  0.59352279  0.19463760  0.20091827  1
  Pd  Pd172  1  0.39641109  0.39611813  0.39826138  1
  Pd  Pd173  1  0.40221098  0.19304040  0.20245473  1
  Pd  Pd174  1  0.39963235  0.79960135  0.59839195  1
  Pd  Pd175  1  0.20113353  0.19969828  0.60735769  1
  Pd  Pd176  1  0.59947082  -0.00021185  0.40703000  1
  Pd  Pd177  1  0.00662239  0.39300625  0.59716463  1
  Pd  Pd178  1  0.40522583  0.81072088  -0.00429373  1
  Pd  Pd179  1  0.80406403  0.40345144  0.00790597  1
  Pd  Pd180  1  -0.00213063  0.59978055  0.60102253  1
  Pd  Pd181  1  0.20471896  0.60412247  0.60103174  1
  Pd  Pd182  1  -0.00116017  0.79721028  0.19300138  1
  Pd  Pd183  1  0.39389203  0.01080660  0.19011310  1
  Pd  Pd184  1  0.60850277  0.19782442  0.59833679  1
  Pd  Pd185  1  0.78584726  0.00731580  0.59779469  1
  Pd  Pd186  1  0.40354902  -0.00764214  0.59314287  1
  Pd  Pd187  1  0.80753443  0.00429845  0.21020581  1
  Pd  Pd188  1  0.59781747  0.80024785  0.19129175  1
  Pd  Pd189  1  0.41127314  0.60505033  0.39817185  1
  Pd  Pd190  1  0.80528158  0.39740009  0.39408027  1
  Pd  Pd191  1  0.60122230  0.39835218  0.39849356  1
  Pd  Pd192  1  0.00585384  0.19574138  0.79325247  1
  Pd  Pd193  1  0.20766772  0.80098485  -0.00419696  1
  Pd  Pd194  1  -0.00089214  0.18943459  0.19823876  1
  Pd  Pd195  1  0.38401394  0.20282490  0.61346676  1
  Pd  Pd196  1  0.79157667  0.39622665  0.60716293  1
  Pd  Pd197  1  0.59435354  0.79366827  0.39873593  1
  Pd  Pd198  1  0.00237597  0.80002815  0.59972343  1
  Pd  Pd199  1  0.80601260  0.60653348  0.60112585  1
  Rh  Rh200  1  0.21077614  -0.00271072  0.00274467  1
  Rh  Rh201  1  0.39691219  0.79654649  0.20057515  1
  Rh  Rh202  1  0.60096987  0.60252217  0.20673666  1
  Rh  Rh203  1  0.00373225  0.00263396  0.19147652  1
  Rh  Rh204  1  -0.00794404  0.80448180  0.40446727  1
  Rh  Rh205  1  0.79107361  0.41188270  0.79232168  1
  Rh  Rh206  1  0.40862220  0.79445152  0.39913426  1
  Rh  Rh207  1  0.39531140  0.79967671  0.80386724  1
  Rh  Rh208  1  0.79713022  0.60704096  0.20854497  1
  Rh  Rh209  1  0.19798448  0.18417246  0.20376750  1
  Rh  Rh210  1  0.20025883  0.40401658  0.80484486  1
  Rh  Rh211  1  0.60049188  0.19850859  0.80508143  1
  Rh  Rh212  1  0.79603554  0.80279759  0.19443702  1
  Rh  Rh213  1  -0.01065346  0.60208170  0.79417313  1
  Rh  Rh214  1  0.79283018  0.60785178  -0.00679066  1
  Rh  Rh215  1  0.39710460  0.60063062  0.79297522  1
  Rh  Rh216  1  -0.00165828  -0.00920393  0.40303696  1
  Rh  Rh217  1  0.80182717  0.20267680  0.59508129  1
  Rh  Rh218  1  0.40941053  0.19978290  -0.00476109  1
  Rh  Rh219  1  0.39836993  0.59010043  -0.00392221  1
  Rh  Rh220  1  -0.00677167  -0.00300190  -0.00806898  1
  Rh  Rh221  1  0.18788809  0.80890336  0.39136233  1
  Rh  Rh222  1  0.40149619  0.00646405  0.80607714  1
  Rh  Rh223  1  0.59600728  0.60132546  0.00214347  1
  Rh  Rh224  1  0.20537325  0.60425445  0.80184717  1
  Rh  Rh225  1  0.60467304  0.58941718  0.79255995  1
  Rh  Rh226  1  0.19976343  0.59398490  0.40004092  1
  Rh  Rh227  1  0.19515491  0.00282658  0.80771101  1
  Rh  Rh228  1  0.00461617  0.39644121  0.80704556  1
  Rh  Rh229  1  0.00602521  0.59157991  0.00412927  1
  Rh  Rh230  1  0.80554437  0.79679227  0.59301700  1
  Rh  Rh231  1  -0.00514681  0.20523193  0.40432804  1
  Rh  Rh232  1  0.39207434  0.00094431  0.40659116  1
  Rh  Rh233  1  0.20274410  0.40609264  0.59874561  1
  Rh  Rh234  1  0.80396289  0.78425327  0.80978420  1
  Rh  Rh235  1  0.80449258  0.19379129  0.80605550  1
  Rh  Rh236  1  0.39870711  0.40027575  0.19957076  1
  Rh  Rh237  1  0.00637722  0.00314329  0.60242303  1
  Rh  Rh238  1  0.39557793  0.59735544  0.60262095  1
  Rh  Rh239  1  0.19956411  -0.00638662  0.58468622  1
  Rh  Rh240  1  0.79698319  0.19181143  -0.00323179  1
  Rh  Rh241  1  0.59135461  0.59737457  0.59545853  1
  Rh  Rh242  1  0.80045000  0.00810391  0.79345110  1
  Rh  Rh243  1  0.19519671  0.40522486  0.40812551  1
  Rh  Rh244  1  0.59330309  0.80949804  0.79690936  1
  Rh  Rh245  1  0.21274109  0.41090416  0.19498980  1
  Rh  Rh246  1  0.00265793  0.60797809  0.19502924  1
  Rh  Rh247  1  0.19539296  0.20797676  0.00353778  1
  Rh  Rh248  1  0.19854632  0.79399023  0.60019645  1
  Rh  Rh249  1  0.59928515  0.00153928  -0.00709652  1
