# generated using pymatgen
data_ZrScNbPdRh
_symmetry_space_group_name_H-M   'P 1'
_cell_length_a   16.55459082
_cell_length_b   16.56317622
_cell_length_c   16.55771593
_cell_angle_alpha   89.98567403
_cell_angle_beta   90.01088870
_cell_angle_gamma   89.99749892
_symmetry_Int_Tables_number   1
_chemical_formula_structural   ZrScNbPdRh
_chemical_formula_sum   'Zr50 Sc50 Nb50 Pd50 Rh50'
_cell_volume   4540.06926525
_cell_formula_units_Z   50
loop_
 _symmetry_equiv_pos_site_id
 _symmetry_equiv_pos_as_xyz
  1  'x, y, z'
loop_
 _atom_site_type_symbol
 _atom_site_label
 _atom_site_symmetry_multiplicity
 _atom_site_fract_x
 _atom_site_fract_y
 _atom_site_fract_z
 _atom_site_occupancy
  Zr  Zr0  1  0.30451416  0.70631548  0.90635465  1
  Zr  Zr1  1  0.90676649  0.29288718  0.70276761  1
  Zr  Zr2  1  0.10575642  0.49626498  0.70706515  1
  Zr  Zr3  1  0.69818064  0.10415236  0.09607938  1
  Zr  Zr4  1  0.90012718  0.10177725  0.89212350  1
  Zr  Zr5  1  0.30644399  0.30536551  0.30625151  1
  Zr  Zr6  1  0.69283782  0.70222604  0.49956699  1
  Zr  Zr7  1  0.70302161  0.50048569  0.50109843  1
  Zr  Zr8  1  0.48638621  0.70498094  0.09700513  1
  Zr  Zr9  1  0.10474237  0.89730281  0.89788193  1
  Zr  Zr10  1  0.29690975  0.89663164  0.69123556  1
  Zr  Zr11  1  0.10556006  0.10417801  0.50084880  1
  Zr  Zr12  1  0.50386518  0.29327432  0.89497826  1
  Zr  Zr13  1  0.90374984  0.90947506  0.70144779  1
  Zr  Zr14  1  0.10079560  0.90859182  0.29820152  1
  Zr  Zr15  1  0.89938160  0.09921905  0.10283036  1
  Zr  Zr16  1  0.70111678  0.49940879  0.69966336  1
  Zr  Zr17  1  0.69813699  0.89701364  0.69973156  1
  Zr  Zr18  1  0.29154784  0.29239607  0.49963674  1
  Zr  Zr19  1  0.90109290  0.28997553  0.11511629  1
  Zr  Zr20  1  0.30203840  0.90748126  0.89734227  1
  Zr  Zr21  1  0.90343731  0.90859199  0.49517020  1
  Zr  Zr22  1  0.10495982  0.70855450  0.69957749  1
  Zr  Zr23  1  0.90146706  0.71296297  0.70492245  1
  Zr  Zr24  1  0.69381883  0.89963000  0.89606754  1
  Zr  Zr25  1  0.50175136  0.11029949  0.69300462  1
  Zr  Zr26  1  0.69190189  0.10049834  0.31107498  1
  Zr  Zr27  1  0.09815773  0.09482319  0.11047618  1
  Zr  Zr28  1  0.29969550  0.09530250  0.89842542  1
  Zr  Zr29  1  0.09529583  0.49986071  0.90509082  1
  Zr  Zr30  1  0.70152901  0.49987780  0.29958175  1
  Zr  Zr31  1  0.49498226  0.48944743  0.29930725  1
  Zr  Zr32  1  0.70060338  0.29699785  0.69743749  1
  Zr  Zr33  1  0.69907077  0.49771995  0.10214719  1
  Zr  Zr34  1  0.49211062  0.29995815  0.50384389  1
  Zr  Zr35  1  0.49965960  0.49103409  0.10391870  1
  Zr  Zr36  1  0.49996307  0.30102245  0.69389030  1
  Zr  Zr37  1  0.29447901  0.30024753  0.89916341  1
  Zr  Zr38  1  0.30627622  0.50444512  0.69641506  1
  Zr  Zr39  1  0.89827876  0.89041236  0.89378642  1
  Zr  Zr40  1  0.69294740  0.70394824  0.70103972  1
  Zr  Zr41  1  0.69796886  0.69511619  0.30742597  1
  Zr  Zr42  1  0.70249255  0.29503511  0.90216609  1
  Zr  Zr43  1  0.49870484  0.10278457  0.11541684  1
  Zr  Zr44  1  0.10524672  0.90555528  0.49452440  1
  Zr  Zr45  1  0.90362112  0.90372751  0.30459225  1
  Zr  Zr46  1  0.90366013  0.70429809  0.50148053  1
  Zr  Zr47  1  0.29898372  0.09104941  0.09876288  1
  Zr  Zr48  1  0.49961239  0.09668801  0.89505128  1
  Zr  Zr49  1  0.10894352  0.09956354  0.90392123  1
  Sc  Sc50  1  0.89785882  0.29892095  0.89332610  1
  Sc  Sc51  1  0.70766719  0.69654975  0.09675063  1
  Sc  Sc52  1  0.49278805  0.49729005  0.50155002  1
  Sc  Sc53  1  0.10178190  0.31014898  0.30203367  1
  Sc  Sc54  1  0.30529047  0.29997583  0.69628338  1
  Sc  Sc55  1  0.69342125  0.91026325  0.50020187  1
  Sc  Sc56  1  0.09423199  0.30899449  0.89652159  1
  Sc  Sc57  1  0.49483933  0.90783911  0.30751727  1
  Sc  Sc58  1  0.69366455  0.09412471  0.69510224  1
  Sc  Sc59  1  0.10510716  0.90095991  0.70028046  1
  Sc  Sc60  1  0.09631589  0.29876032  0.69669066  1
  Sc  Sc61  1  0.50545659  0.09768234  0.49766996  1
  Sc  Sc62  1  0.50209373  0.89974245  0.69156530  1
  Sc  Sc63  1  0.69544662  0.10192607  0.90130451  1
  Sc  Sc64  1  0.89568847  0.48558144  0.69799718  1
  Sc  Sc65  1  0.69958644  0.90382641  0.31231244  1
  Sc  Sc66  1  0.89799638  0.51047678  0.10110932  1
  Sc  Sc67  1  0.30054577  0.30076530  0.10623007  1
  Sc  Sc68  1  0.70407185  0.29144721  0.49484864  1
  Sc  Sc69  1  0.69427081  0.71056499  0.89864697  1
  Sc  Sc70  1  0.29878623  0.50828981  0.10589516  1
  Sc  Sc71  1  0.49804729  0.70785199  0.89737929  1
  Sc  Sc72  1  0.49496241  0.29447609  0.29385413  1
  Sc  Sc73  1  0.30163933  0.70572917  0.50103731  1
  Sc  Sc74  1  0.69828141  0.29749145  0.09859364  1
  Sc  Sc75  1  0.29976674  0.49846032  0.50057046  1
  Sc  Sc76  1  0.70468131  0.49511878  0.90334055  1
  Sc  Sc77  1  0.49273129  0.50789163  0.89047541  1
  Sc  Sc78  1  0.89965899  0.49174871  0.90413389  1
  Sc  Sc79  1  0.09583767  0.09931987  0.69399515  1
  Sc  Sc80  1  0.09419274  0.69093164  0.09565272  1
  Sc  Sc81  1  0.11161079  0.69385481  0.29818106  1
  Sc  Sc82  1  0.10130367  0.30299819  0.10167918  1
  Sc  Sc83  1  0.29793344  0.09997663  0.49913208  1
  Sc  Sc84  1  0.29914581  0.09470415  0.69449141  1
  Sc  Sc85  1  0.29835356  0.70315607  0.69472715  1
  Sc  Sc86  1  0.10588326  0.70449056  0.49931724  1
  Sc  Sc87  1  0.29106335  0.50111673  0.89134379  1
  Sc  Sc88  1  0.09704284  0.50130654  0.10400097  1
  Sc  Sc89  1  0.49245320  0.70479483  0.69595533  1
  Sc  Sc90  1  0.89901079  0.48771351  0.29650453  1
  Sc  Sc91  1  0.69236833  0.89758774  0.08695645  1
  Sc  Sc92  1  0.90419766  0.10103022  0.29734557  1
  Sc  Sc93  1  0.09872064  0.70085819  0.90438989  1
  Sc  Sc94  1  0.10486002  0.48750984  0.50450265  1
  Sc  Sc95  1  0.50700137  0.30060581  0.10566359  1
  Sc  Sc96  1  0.89615964  0.89431695  0.08502181  1
  Sc  Sc97  1  0.49345305  0.90379912  0.10403066  1
  Sc  Sc98  1  0.90077214  0.69550178  0.29779636  1
  Sc  Sc99  1  0.49296333  0.89636961  0.49909220  1
  Nb  Nb100  1  0.70478562  0.09924882  0.49696777  1
  Nb  Nb101  1  0.09782109  0.10295073  0.29910831  1
  Nb  Nb102  1  0.49286515  0.09663007  0.29695361  1
  Nb  Nb103  1  0.71410549  0.30348466  0.30806844  1
  Nb  Nb104  1  0.29192677  0.50700952  0.30189460  1
  Nb  Nb105  1  0.29816621  0.89612311  0.10820242  1
  Nb  Nb106  1  0.30213056  0.70862664  0.10682514  1
  Nb  Nb107  1  0.90394429  0.09915860  0.50287113  1
  Nb  Nb108  1  0.90381811  0.70436303  0.90817919  1
  Nb  Nb109  1  0.90784452  0.30406540  0.49543488  1
  Nb  Nb110  1  0.90747674  0.10163913  0.69237444  1
  Nb  Nb111  1  0.50245042  0.69760376  0.30761598  1
  Nb  Nb112  1  0.10208803  0.90176589  0.10322405  1
  Nb  Nb113  1  0.30349989  0.69677896  0.29514367  1
  Nb  Nb114  1  0.50340970  0.89495449  0.90564297  1
  Nb  Nb115  1  0.90396955  0.49727764  0.50296555  1
  Nb  Nb116  1  0.49966288  0.69729055  0.49495259  1
  Nb  Nb117  1  0.11133401  0.50873605  0.30272345  1
  Nb  Nb118  1  0.09756458  0.29385726  0.50231825  1
  Nb  Nb119  1  0.30843069  0.10494277  0.29994044  1
  Nb  Nb120  1  0.89455764  0.29637438  0.31015042  1
  Nb  Nb121  1  0.30215655  0.90118471  0.49166201  1
  Nb  Nb122  1  0.49889557  0.50144059  0.69436428  1
  Nb  Nb123  1  0.90038532  0.70403776  0.09555445  1
  Nb  Nb124  1  0.30180008  0.89595832  0.30686196  1
  Nb  Nb125  1  0.39796973  0.60424871  0.39265967  1
  Nb  Nb126  1  0.00392335  -0.00040242  -0.00063960  1
  Nb  Nb127  1  0.79657879  -0.00485779  0.19804026  1
  Nb  Nb128  1  0.40075491  0.19982916  -0.00011078  1
  Nb  Nb129  1  0.59675202  0.40104255  0.79296952  1
  Nb  Nb130  1  0.20704107  0.80312858  0.01201326  1
  Nb  Nb131  1  0.80677995  0.60631709  0.80134471  1
  Nb  Nb132  1  0.59421224  0.59922128  0.59990210  1
  Nb  Nb133  1  0.59494539  0.59905150  0.00568633  1
  Nb  Nb134  1  0.80013439  0.80565876  0.59864269  1
  Nb  Nb135  1  0.79964447  0.80211831  0.19969959  1
  Nb  Nb136  1  0.00018858  0.19397791  0.00219129  1
  Nb  Nb137  1  0.20209476  0.19437925  0.20941358  1
  Nb  Nb138  1  0.19953151  0.19908926  0.80082109  1
  Nb  Nb139  1  0.00085546  0.20448636  0.40148262  1
  Nb  Nb140  1  0.59958956  0.79385298  0.20465396  1
  Nb  Nb141  1  0.60232799  0.39482921  0.39801922  1
  Nb  Nb142  1  -0.00297370  0.80002527  0.19348329  1
  Nb  Nb143  1  0.39954301  0.39640526  -0.00327258  1
  Nb  Nb144  1  -0.00605809  0.60273377  0.79772763  1
  Nb  Nb145  1  0.80957097  0.19270513  0.59429451  1
  Nb  Nb146  1  0.59333059  0.60452346  0.20008662  1
  Nb  Nb147  1  0.00133199  0.59085601  0.40481820  1
  Nb  Nb148  1  0.80898384  0.59517703  0.40744470  1
  Nb  Nb149  1  -0.00118623  0.59665841  0.60193542  1
  Pd  Pd150  1  0.40536007  0.19403702  0.40474903  1
  Pd  Pd151  1  0.00556715  0.40277139  0.39612343  1
  Pd  Pd152  1  0.80281708  0.38569364  0.59378461  1
  Pd  Pd153  1  0.00838331  0.00263921  0.80294396  1
  Pd  Pd154  1  0.20755228  0.00811017  0.39414742  1
  Pd  Pd155  1  0.79577878  0.00694894  0.79809362  1
  Pd  Pd156  1  0.20354798  0.39371244  0.60498577  1
  Pd  Pd157  1  0.80043662  0.39757911  0.19417308  1
  Pd  Pd158  1  0.19473656  0.60011427  0.59328580  1
  Pd  Pd159  1  0.40205806  0.00236624  0.59444431  1
  Pd  Pd160  1  0.79566713  0.60478679  -0.00975025  1
  Pd  Pd161  1  0.79418354  0.18963706  0.78970692  1
  Pd  Pd162  1  0.60498776  0.59665925  0.80270511  1
  Pd  Pd163  1  -0.00010081  0.60193035  0.20714480  1
  Pd  Pd164  1  0.40659513  -0.00621593  0.78935057  1
  Pd  Pd165  1  0.20968409  0.00320748  0.21221905  1
  Pd  Pd166  1  0.40774337  0.80644218  0.21280561  1
  Pd  Pd167  1  0.60834466  0.20678811  0.20954043  1
  Pd  Pd168  1  0.20386016  0.60515322  0.00476376  1
  Pd  Pd169  1  0.20236584  0.79582997  0.39683755  1
  Pd  Pd170  1  0.39083777  0.19809776  0.79879971  1
  Pd  Pd171  1  0.40671110  0.00072436  0.00410040  1
  Pd  Pd172  1  0.59457797  0.81070915  0.39869746  1
  Pd  Pd173  1  0.80231984  -0.00039637  -0.00168204  1
  Pd  Pd174  1  0.39560069  0.60845665  0.79656645  1
  Pd  Pd175  1  0.79770371  0.00066554  0.59950569  1
  Pd  Pd176  1  0.59197229  0.20610437  0.39895657  1
  Pd  Pd177  1  0.19096406  0.79415882  0.19804021  1
  Pd  Pd178  1  0.39986249  0.59136452  -0.00170716  1
  Pd  Pd179  1  0.80314649  0.60872726  0.60385940  1
  Pd  Pd180  1  0.00135035  0.80631241  0.59835789  1
  Pd  Pd181  1  0.60739332  -0.01111217  0.20318571  1
  Pd  Pd182  1  0.19646878  0.60876177  0.80311630  1
  Pd  Pd183  1  0.00128637  0.40243022  0.20385618  1
  Pd  Pd184  1  0.40230156  0.59628562  0.20524767  1
  Pd  Pd185  1  -0.00893574  0.39239974  0.00946489  1
  Pd  Pd186  1  0.40263847  0.40070587  0.80175284  1
  Pd  Pd187  1  0.59032711  0.40677048  -0.01311807  1
  Pd  Pd188  1  0.59077883  0.00403430  0.00346208  1
  Pd  Pd189  1  0.59347066  -0.00214372  0.79449681  1
  Pd  Pd190  1  0.19860577  0.20603469  0.00489227  1
  Pd  Pd191  1  0.00972703  0.78834218  0.38740133  1
  Pd  Pd192  1  0.40142346  0.80550152  0.79502948  1
  Pd  Pd193  1  0.60026417  0.40282623  0.59470210  1
  Pd  Pd194  1  0.20617310  0.40606197  0.00667012  1
  Pd  Pd195  1  0.79974783  0.79783272  0.40224594  1
  Pd  Pd196  1  0.79060871  0.19109593  0.20864056  1
  Pd  Pd197  1  0.20265243  0.39969346  0.19958799  1
  Pd  Pd198  1  0.80831217  0.39067865  0.00897368  1
  Pd  Pd199  1  0.20006182  0.40081610  0.40224923  1
  Rh  Rh200  1  0.20062216  0.39081190  0.79430053  1
  Rh  Rh201  1  0.39795274  0.80033585  0.59321693  1
  Rh  Rh202  1  0.59200982  0.00233067  0.40333626  1
  Rh  Rh203  1  0.58927573  0.80634993  0.79863063  1
  Rh  Rh204  1  0.59889480  0.79608544  0.59642113  1
  Rh  Rh205  1  0.39580453  0.19427931  0.59462745  1
  Rh  Rh206  1  0.39452689  0.81309524  -0.00068739  1
  Rh  Rh207  1  0.00796435  -0.00430311  0.59612540  1
  Rh  Rh208  1  0.39633562  0.79390995  0.39745555  1
  Rh  Rh209  1  0.20103306  0.20120327  0.60947967  1
  Rh  Rh210  1  0.01158718  0.21200770  0.20816740  1
  Rh  Rh211  1  0.60628228  0.20206912  0.79671599  1
  Rh  Rh212  1  0.79660935  0.79748484  0.79986739  1
  Rh  Rh213  1  0.20364307  0.59970028  0.40615861  1
  Rh  Rh214  1  0.39223142  -0.00598722  0.20931166  1
  Rh  Rh215  1  -0.00664978  0.59603769  -0.00552802  1
  Rh  Rh216  1  0.19913434  0.60431342  0.19235463  1
  Rh  Rh217  1  0.59187956  0.58383966  0.40321275  1
  Rh  Rh218  1  0.19315387  0.20023299  0.39238876  1
  Rh  Rh219  1  0.81107453  0.19241665  0.40582610  1
  Rh  Rh220  1  0.20248937  0.80665723  0.59071850  1
  Rh  Rh221  1  0.19784335  -0.01221273  0.00399784  1
  Rh  Rh222  1  0.20546654  0.79758877  0.80833291  1
  Rh  Rh223  1  0.61102959  0.39267904  0.21252168  1
  Rh  Rh224  1  0.79281004  0.40371216  0.80248858  1
  Rh  Rh225  1  0.59651160  0.00130061  0.59475904  1
  Rh  Rh226  1  0.01182455  0.80518690  0.00477619  1
  Rh  Rh227  1  0.80874233  0.20476714  -0.00187185  1
  Rh  Rh228  1  0.38881461  0.40054755  0.19542738  1
  Rh  Rh229  1  0.59385613  0.79392151  0.00758536  1
  Rh  Rh230  1  0.79929654  0.60615159  0.20709806  1
  Rh  Rh231  1  0.39629639  0.00380181  0.39967263  1
  Rh  Rh232  1  0.39295977  0.20133270  0.19433102  1
  Rh  Rh233  1  0.40441258  0.60411747  0.59253392  1
  Rh  Rh234  1  0.01030755  0.19597596  0.80701171  1
  Rh  Rh235  1  0.20038323  -0.00342018  0.59694674  1
  Rh  Rh236  1  0.00778949  0.79640959  0.80326743  1
  Rh  Rh237  1  0.59025085  0.19299168  0.00378936  1
  Rh  Rh238  1  -0.00074627  0.40663527  0.79768963  1
  Rh  Rh239  1  0.61031289  0.19567440  0.59153228  1
  Rh  Rh240  1  -0.01379063  -0.01455902  0.18997338  1
  Rh  Rh241  1  0.79792964  0.40481576  0.40670636  1
  Rh  Rh242  1  0.79220291  0.79681213  -0.00156574  1
  Rh  Rh243  1  0.39211963  0.40113731  0.59765061  1
  Rh  Rh244  1  0.39850163  0.40578291  0.40291433  1
  Rh  Rh245  1  0.00240002  0.40001369  0.60357088  1
  Rh  Rh246  1  -0.00275098  0.20246868  0.59221310  1
  Rh  Rh247  1  0.80441722  0.00945740  0.39368549  1
  Rh  Rh248  1  0.19840251  0.00636589  0.78878263  1
  Rh  Rh249  1  0.00407748  0.01328738  0.40345448  1
