# generated using pymatgen
data_ZrScNbPdRh
_symmetry_space_group_name_H-M   'P 1'
_cell_length_a   16.56838622
_cell_length_b   16.56561062
_cell_length_c   16.56469117
_cell_angle_alpha   90.02227697
_cell_angle_beta   90.01927741
_cell_angle_gamma   89.98706183
_symmetry_Int_Tables_number   1
_chemical_formula_structural   ZrScNbPdRh
_chemical_formula_sum   'Zr50 Sc50 Nb50 Pd50 Rh50'
_cell_volume   4546.43444608
_cell_formula_units_Z   50
loop_
 _symmetry_equiv_pos_site_id
 _symmetry_equiv_pos_as_xyz
  1  'x, y, z'
loop_
 _atom_site_type_symbol
 _atom_site_label
 _atom_site_symmetry_multiplicity
 _atom_site_fract_x
 _atom_site_fract_y
 _atom_site_fract_z
 _atom_site_occupancy
  Zr  Zr0  1  0.50711723  0.70691343  0.09907948  1
  Zr  Zr1  1  0.09605981  0.50168074  0.49803541  1
  Zr  Zr2  1  0.88981809  0.90504615  0.09229742  1
  Zr  Zr3  1  0.89495236  0.10118580  0.90893359  1
  Zr  Zr4  1  0.70042295  0.70396661  0.08973812  1
  Zr  Zr5  1  0.09993836  0.51128878  0.10549863  1
  Zr  Zr6  1  0.70531117  0.49615298  0.70023617  1
  Zr  Zr7  1  0.89991739  0.70533765  0.10057169  1
  Zr  Zr8  1  0.89843577  0.29884447  0.90731944  1
  Zr  Zr9  1  0.50058232  0.89902396  0.09763320  1
  Zr  Zr10  1  0.30228344  0.49891671  0.71088662  1
  Zr  Zr11  1  0.29996550  0.69691323  0.69992047  1
  Zr  Zr12  1  0.30745914  0.10055235  0.29657981  1
  Zr  Zr13  1  0.09767123  0.90252897  0.69659892  1
  Zr  Zr14  1  0.49960078  0.49119985  0.90025759  1
  Zr  Zr15  1  0.70111253  0.69995613  0.28645363  1
  Zr  Zr16  1  0.69912478  0.29135271  0.90293514  1
  Zr  Zr17  1  0.09254163  0.89750273  0.49626471  1
  Zr  Zr18  1  0.50493349  0.71605550  0.69320435  1
  Zr  Zr19  1  0.08942864  0.09910202  0.30263222  1
  Zr  Zr20  1  0.08899608  0.89284048  0.09606700  1
  Zr  Zr21  1  0.09934975  0.09885215  0.09819600  1
  Zr  Zr22  1  0.89587227  0.10714850  0.28927169  1
  Zr  Zr23  1  0.50053069  0.09912634  0.30266207  1
  Zr  Zr24  1  0.31152885  0.29951214  0.69603579  1
  Zr  Zr25  1  0.69753288  0.29876479  0.50654700  1
  Zr  Zr26  1  0.28388358  0.69922473  0.09186652  1
  Zr  Zr27  1  0.10699668  0.70553604  0.71220879  1
  Zr  Zr28  1  0.10496888  0.70230921  0.50085088  1
  Zr  Zr29  1  0.09872103  0.30124196  0.69734711  1
  Zr  Zr30  1  0.89866389  0.08930957  0.50489319  1
  Zr  Zr31  1  0.10120291  0.30059226  0.89889895  1
  Zr  Zr32  1  0.29530538  0.89834990  0.50105638  1
  Zr  Zr33  1  0.31545069  0.09898509  0.70229188  1
  Zr  Zr34  1  0.69975947  0.50870836  0.09898032  1
  Zr  Zr35  1  0.49785706  0.09654150  0.09988849  1
  Zr  Zr36  1  0.10617895  0.70561740  0.91122290  1
  Zr  Zr37  1  0.31297106  0.69799360  0.50331642  1
  Zr  Zr38  1  0.09806563  0.10061047  0.90846355  1
  Zr  Zr39  1  0.31600282  0.50402067  0.50010522  1
  Zr  Zr40  1  0.30701964  0.29682704  0.29626856  1
  Zr  Zr41  1  0.70636963  0.49815916  0.50780842  1
  Zr  Zr42  1  0.29146045  0.69802587  0.88969948  1
  Zr  Zr43  1  0.50372924  0.49504350  0.09335202  1
  Zr  Zr44  1  0.69978804  0.50113795  0.29273701  1
  Zr  Zr45  1  0.50341618  0.29209022  0.29306005  1
  Zr  Zr46  1  0.09015648  0.49515274  0.30170221  1
  Zr  Zr47  1  0.69296183  0.50323418  0.89780579  1
  Zr  Zr48  1  0.50658172  0.10438441  0.49432407  1
  Zr  Zr49  1  0.10126612  0.29584608  0.50193458  1
  Sc  Sc50  1  0.50037368  0.89596914  0.50724236  1
  Sc  Sc51  1  0.69847333  0.89274458  0.70466898  1
  Sc  Sc52  1  0.30232555  0.30267133  0.90752033  1
  Sc  Sc53  1  0.49747137  0.91252786  0.70612290  1
  Sc  Sc54  1  0.50009411  0.30101653  0.90587698  1
  Sc  Sc55  1  0.69847428  0.09670097  0.49194761  1
  Sc  Sc56  1  0.88844789  0.70697039  0.89952091  1
  Sc  Sc57  1  0.09677872  0.10311790  0.50471505  1
  Sc  Sc58  1  0.71109726  0.70431295  0.51099981  1
  Sc  Sc59  1  0.90518281  0.50102777  0.50750453  1
  Sc  Sc60  1  0.29698935  0.90574497  0.90181874  1
  Sc  Sc61  1  0.49570693  0.29800177  0.09620181  1
  Sc  Sc62  1  0.49241479  0.49685490  0.29543357  1
  Sc  Sc63  1  0.30394638  0.10725633  0.49760423  1
  Sc  Sc64  1  0.69466547  0.90159789  0.09541894  1
  Sc  Sc65  1  0.09470319  0.69919671  0.30489075  1
  Sc  Sc66  1  0.89349752  0.70209580  0.70080541  1
  Sc  Sc67  1  0.69093886  0.10226734  0.29745766  1
  Sc  Sc68  1  0.68737887  0.29608511  0.70350938  1
  Sc  Sc69  1  0.71126170  0.90782742  0.50043695  1
  Sc  Sc70  1  0.30680925  0.90566038  0.09860708  1
  Sc  Sc71  1  0.89830487  0.70695017  0.29599209  1
  Sc  Sc72  1  0.10503017  0.49915355  0.70445375  1
  Sc  Sc73  1  0.11018401  0.30248923  0.09860262  1
  Sc  Sc74  1  0.30286831  0.70229454  0.30550370  1
  Sc  Sc75  1  0.90946407  0.30699081  0.51049763  1
  Sc  Sc76  1  0.90501928  0.70263550  0.50566740  1
  Sc  Sc77  1  0.09141055  0.29670592  0.30054456  1
  Sc  Sc78  1  0.49402471  0.70920632  0.29512364  1
  Sc  Sc79  1  0.89625394  0.09951452  0.09865996  1
  Sc  Sc80  1  0.90258590  0.89702365  0.50017400  1
  Sc  Sc81  1  0.49794225  0.48270454  0.70540039  1
  Sc  Sc82  1  0.30235464  0.49921789  0.29819743  1
  Sc  Sc83  1  0.68890350  0.29256454  0.09879500  1
  Sc  Sc84  1  0.51712753  0.69525579  0.89539017  1
  Sc  Sc85  1  0.90177505  0.49507583  0.90914571  1
  Sc  Sc86  1  0.29429238  0.48922343  0.10211163  1
  Sc  Sc87  1  0.90233235  0.49907597  0.69363587  1
  Sc  Sc88  1  0.90469741  0.90321240  0.69434345  1
  Sc  Sc89  1  0.50343510  0.90375251  0.29505897  1
  Sc  Sc90  1  0.30277931  0.90315838  0.69468822  1
  Sc  Sc91  1  0.31404645  0.89570707  0.29597533  1
  Sc  Sc92  1  0.49483877  0.09314259  0.89394210  1
  Sc  Sc93  1  0.09370558  0.89710702  0.89754778  1
  Sc  Sc94  1  0.10367191  0.49053162  0.90250679  1
  Sc  Sc95  1  0.90146270  0.50535319  0.10111524  1
  Sc  Sc96  1  0.30034974  0.10317540  0.09149500  1
  Sc  Sc97  1  0.49443513  0.30072730  0.50720879  1
  Sc  Sc98  1  0.90536179  0.90270777  0.29990942  1
  Sc  Sc99  1  0.70305949  0.90665403  0.30142615  1
  Nb  Nb100  1  0.90150833  0.29818054  0.70086314  1
  Nb  Nb101  1  0.89710076  0.30167402  0.29651029  1
  Nb  Nb102  1  0.29592046  0.10026462  0.90154854  1
  Nb  Nb103  1  0.09676504  0.70355399  0.09967584  1
  Nb  Nb104  1  0.69811588  0.09812323  0.89520512  1
  Nb  Nb105  1  0.70125873  0.70759267  0.88296830  1
  Nb  Nb106  1  0.30669959  0.29589747  0.10167545  1
  Nb  Nb107  1  0.49963990  0.28729323  0.70062309  1
  Nb  Nb108  1  0.69456176  0.10305261  0.70765096  1
  Nb  Nb109  1  0.89995699  0.09681243  0.69985893  1
  Nb  Nb110  1  0.09496520  0.10150198  0.70138619  1
  Nb  Nb111  1  0.90067710  0.49232180  0.30244528  1
  Nb  Nb112  1  0.30034852  0.30185119  0.49909182  1
  Nb  Nb113  1  0.88612226  0.90592022  0.89861892  1
  Nb  Nb114  1  0.70385567  0.09750984  0.09932082  1
  Nb  Nb115  1  0.70110695  0.29704708  0.30076350  1
  Nb  Nb116  1  0.69791006  0.89736424  0.89864986  1
  Nb  Nb117  1  0.50273676  0.50654965  0.49633055  1
  Nb  Nb118  1  0.50218369  0.69529160  0.50084302  1
  Nb  Nb119  1  0.50233482  0.89976043  0.90041795  1
  Nb  Nb120  1  0.50670113  0.10858640  0.70100214  1
  Nb  Nb121  1  0.88727858  0.29529801  0.10252994  1
  Nb  Nb122  1  0.09613313  0.89977934  0.30031031  1
  Nb  Nb123  1  0.70071668  0.69584367  0.71136824  1
  Nb  Nb124  1  0.30818309  0.49793996  0.89344705  1
  Nb  Nb125  1  0.19870103  0.19449260  0.79959332  1
  Nb  Nb126  1  0.20354486  0.39600176  0.40535236  1
  Nb  Nb127  1  0.60010862  0.60163708  0.60022914  1
  Nb  Nb128  1  0.60336159  0.00885584  0.60719339  1
  Nb  Nb129  1  0.20832082  0.39991866  0.59331057  1
  Nb  Nb130  1  0.39818371  0.60047302  -0.00433744  1
  Nb  Nb131  1  0.80086795  0.39459677  0.20190415  1
  Nb  Nb132  1  0.00252010  0.60369029  0.80620806  1
  Nb  Nb133  1  -0.00136880  0.19588389  0.79701371  1
  Nb  Nb134  1  0.79602101  0.00420616  0.80246702  1
  Nb  Nb135  1  0.60369088  0.79238364  0.40455501  1
  Nb  Nb136  1  0.80112486  0.39793416  0.39422964  1
  Nb  Nb137  1  0.60330825  0.40374027  0.40039446  1
  Nb  Nb138  1  0.19179732  0.80371472  0.19858423  1
  Nb  Nb139  1  0.19756675  -0.00263210  0.39268548  1
  Nb  Nb140  1  0.19689930  0.01081313  0.79745418  1
  Nb  Nb141  1  0.40289725  0.80177457  0.80585005  1
  Nb  Nb142  1  0.19429925  -0.00473027  0.20543885  1
  Nb  Nb143  1  0.80053379  0.39343426  0.80070093  1
  Nb  Nb144  1  0.80259587  0.20776702  0.40026264  1
  Nb  Nb145  1  0.40268698  0.79396913  -0.00813986  1
  Nb  Nb146  1  0.60126998  0.60218766  0.40537957  1
  Nb  Nb147  1  0.80042060  0.19454909  0.60505853  1
  Nb  Nb148  1  0.79826721  0.59493033  0.39680918  1
  Nb  Nb149  1  0.39735860  0.60369807  0.18592099  1
  Pd  Pd150  1  0.00182453  0.20858841  0.18848205  1
  Pd  Pd151  1  -0.00436846  0.39370462  0.18895257  1
  Pd  Pd152  1  -0.00338898  0.00359225  0.80594261  1
  Pd  Pd153  1  0.60329306  -0.00128293  0.19971110  1
  Pd  Pd154  1  0.60250337  0.39530536  0.19903600  1
  Pd  Pd155  1  -0.01177857  0.20156644  0.40763572  1
  Pd  Pd156  1  -0.00152623  0.60400981  -0.00706548  1
  Pd  Pd157  1  -0.01239546  0.80246540  -0.00995158  1
  Pd  Pd158  1  0.81209964  0.58843901  0.80397713  1
  Pd  Pd159  1  0.58609679  0.60207592  0.20553167  1
  Pd  Pd160  1  0.20153653  0.79912722  0.60294226  1
  Pd  Pd161  1  0.59048650  0.40235758  0.59805595  1
  Pd  Pd162  1  0.20445476  0.58554455  -0.00752168  1
  Pd  Pd163  1  0.41012217  0.80371695  0.40468222  1
  Pd  Pd164  1  0.20006788  0.59333281  0.59936724  1
  Pd  Pd165  1  -0.00000911  0.20743567  0.00704622  1
  Pd  Pd166  1  0.20251129  0.60740426  0.21096879  1
  Pd  Pd167  1  0.80358736  0.00801536  0.38900056  1
  Pd  Pd168  1  0.79648723  0.81186888  0.19752502  1
  Pd  Pd169  1  0.20474293  0.59381095  0.39604647  1
  Pd  Pd170  1  0.60921788  0.80527272  0.59512622  1
  Pd  Pd171  1  0.00498984  0.60739428  0.61264272  1
  Pd  Pd172  1  0.19849965  0.39522265  0.21057669  1
  Pd  Pd173  1  0.40488724  0.39466798  0.39763389  1
  Pd  Pd174  1  -0.00871032  0.40345058  0.79844104  1
  Pd  Pd175  1  0.41294067  0.59398136  0.61528308  1
  Pd  Pd176  1  -0.00953279  0.79680182  0.80339334  1
  Pd  Pd177  1  0.79793202  0.79376258  0.39928408  1
  Pd  Pd178  1  0.39902432  0.20366383  0.81237137  1
  Pd  Pd179  1  0.80045228  0.80383960  0.60735080  1
  Pd  Pd180  1  0.60135228  0.00516123  -0.00401605  1
  Pd  Pd181  1  0.00132194  0.39770575  0.01395821  1
  Pd  Pd182  1  0.79792259  0.60496512  -0.00843502  1
  Pd  Pd183  1  0.39861545  -0.00609277  0.40444297  1
  Pd  Pd184  1  0.80525129  0.20045239  0.79505373  1
  Pd  Pd185  1  0.20059342  0.19774730  0.39480641  1
  Pd  Pd186  1  0.59146528  0.59390997  0.78756546  1
  Pd  Pd187  1  0.41412036  0.60814182  0.79938606  1
  Pd  Pd188  1  0.19904729  0.19397329  0.20023773  1
  Pd  Pd189  1  0.40982280  0.00519070  0.59375780  1
  Pd  Pd190  1  0.20695499  0.19864791  0.60621525  1
  Pd  Pd191  1  0.20412527  0.40104461  0.00019561  1
  Pd  Pd192  1  0.79134982  0.39980655  0.00463350  1
  Pd  Pd193  1  -0.00505884  0.60599808  0.20513900  1
  Pd  Pd194  1  0.20176574  0.80526451  0.39168898  1
  Pd  Pd195  1  0.19775901  -0.00630163  0.00229400  1
  Pd  Pd196  1  0.59372993  0.18898997  -0.00421089  1
  Pd  Pd197  1  0.19743644  0.00836432  0.59697722  1
  Pd  Pd198  1  -0.01164051  0.60603832  0.39835656  1
  Pd  Pd199  1  -0.00310425  -0.00151534  0.19436220  1
  Rh  Rh200  1  0.39998692  0.40289306  0.19313177  1
  Rh  Rh201  1  0.79150988  0.20121664  0.19880683  1
  Rh  Rh202  1  0.00903285  0.40508750  0.60422848  1
  Rh  Rh203  1  -0.00976522  0.19496438  0.60432678  1
  Rh  Rh204  1  0.38534944  0.78921371  0.18278659  1
  Rh  Rh205  1  0.20920243  0.81851785  0.79531981  1
  Rh  Rh206  1  0.78858936  0.00331356  -0.00470836  1
  Rh  Rh207  1  0.39638296  0.00515227  0.19616972  1
  Rh  Rh208  1  0.60435985  0.19285260  0.59761921  1
  Rh  Rh209  1  0.40245777  0.40144675  0.60052538  1
  Rh  Rh210  1  0.20865969  0.39153460  0.79524460  1
  Rh  Rh211  1  0.60639259  0.39779682  0.00055564  1
  Rh  Rh212  1  0.80369336  0.81067711  0.79498640  1
  Rh  Rh213  1  0.39260867  -0.00559916  0.80608280  1
  Rh  Rh214  1  0.60181915  0.79943821  -0.01037372  1
  Rh  Rh215  1  0.79687164  0.00204847  0.19874399  1
  Rh  Rh216  1  0.40362515  0.19574890  0.59401746  1
  Rh  Rh217  1  0.60412959  0.60424019  -0.00550878  1
  Rh  Rh218  1  0.00408079  -0.00064121  0.59661860  1
  Rh  Rh219  1  0.18872317  0.59155560  0.80842290  1
  Rh  Rh220  1  -0.00030176  0.00059822  0.40207363  1
  Rh  Rh221  1  0.80353525  0.38748041  0.60809284  1
  Rh  Rh222  1  0.00318299  0.79501694  0.60215326  1
  Rh  Rh223  1  0.39445136  0.40324626  0.00337166  1
  Rh  Rh224  1  0.60504125  -0.00296939  0.79720309  1
  Rh  Rh225  1  0.60849711  0.80918124  0.20761987  1
  Rh  Rh226  1  0.78873091  0.00705819  0.61413165  1
  Rh  Rh227  1  0.20328965  0.81209199  0.00641682  1
  Rh  Rh228  1  0.40318888  -0.00284107  -0.00486287  1
  Rh  Rh229  1  0.39933404  0.19706995  -0.00093760  1
  Rh  Rh230  1  0.40283261  0.38703912  0.80319633  1
  Rh  Rh231  1  0.81238584  0.59324809  0.20377625  1
  Rh  Rh232  1  0.40517713  0.20583646  0.40205838  1
  Rh  Rh233  1  0.40295962  0.19615544  0.19234332  1
  Rh  Rh234  1  0.60145930  0.21097773  0.40148895  1
  Rh  Rh235  1  0.20598142  0.20506850  -0.00180038  1
  Rh  Rh236  1  0.59558171  0.80810205  0.80068559  1
  Rh  Rh237  1  -0.00383920  0.79659903  0.40045911  1
  Rh  Rh238  1  0.60307982  0.38959238  0.80309816  1
  Rh  Rh239  1  0.79286745  0.80145589  -0.00366461  1
  Rh  Rh240  1  0.39683179  0.80366885  0.60441641  1
  Rh  Rh241  1  0.00101135  0.39512452  0.40449005  1
  Rh  Rh242  1  0.40812257  0.60430594  0.38583560  1
  Rh  Rh243  1  -0.00505758  -0.00508529  -0.00166845  1
  Rh  Rh244  1  0.00300913  0.79704875  0.20262780  1
  Rh  Rh245  1  0.79768823  0.60494340  0.60036650  1
  Rh  Rh246  1  0.59625238  -0.01653178  0.41073177  1
  Rh  Rh247  1  0.58974149  0.20179704  0.80967723  1
  Rh  Rh248  1  0.59973478  0.19407122  0.19504452  1
  Rh  Rh249  1  0.79287063  0.19459748  0.00712297  1
