# generated using pymatgen
data_ZrScNbPdRh
_symmetry_space_group_name_H-M   'P 1'
_cell_length_a   16.56339325
_cell_length_b   16.57127935
_cell_length_c   16.56431381
_cell_angle_alpha   90.01616894
_cell_angle_beta   89.98057297
_cell_angle_gamma   90.00674787
_symmetry_Int_Tables_number   1
_chemical_formula_structural   ZrScNbPdRh
_chemical_formula_sum   'Zr50 Sc50 Nb50 Pd50 Rh50'
_cell_volume   4546.51633446
_cell_formula_units_Z   50
loop_
 _symmetry_equiv_pos_site_id
 _symmetry_equiv_pos_as_xyz
  1  'x, y, z'
loop_
 _atom_site_type_symbol
 _atom_site_label
 _atom_site_symmetry_multiplicity
 _atom_site_fract_x
 _atom_site_fract_y
 _atom_site_fract_z
 _atom_site_occupancy
  Zr  Zr0  1  0.90609320  0.31036305  0.29548767  1
  Zr  Zr1  1  0.89598467  0.08202348  0.28869072  1
  Zr  Zr2  1  0.30184255  0.50893744  0.69899163  1
  Zr  Zr3  1  0.50578524  0.31118928  0.50082998  1
  Zr  Zr4  1  0.29416860  0.70100082  0.50675370  1
  Zr  Zr5  1  0.88847528  0.30972095  0.70832404  1
  Zr  Zr6  1  0.91016510  0.69026997  0.69808748  1
  Zr  Zr7  1  0.50535991  0.69763866  0.49891298  1
  Zr  Zr8  1  0.30592022  0.29535590  0.49948769  1
  Zr  Zr9  1  0.30193274  0.50146415  0.09725093  1
  Zr  Zr10  1  0.30149372  0.49758858  0.30209633  1
  Zr  Zr11  1  0.50605133  0.70004382  0.30149578  1
  Zr  Zr12  1  0.50231736  0.09343559  0.70300068  1
  Zr  Zr13  1  0.30558489  0.50034187  0.90175534  1
  Zr  Zr14  1  0.09282207  0.49795328  0.89840386  1
  Zr  Zr15  1  0.29480441  0.28574567  0.10145118  1
  Zr  Zr16  1  0.09466574  0.70249917  0.28758452  1
  Zr  Zr17  1  0.91483800  0.70347918  0.09910305  1
  Zr  Zr18  1  0.90415947  0.10367519  0.89558989  1
  Zr  Zr19  1  0.49629707  0.89359690  0.70242176  1
  Zr  Zr20  1  0.31013361  0.89901079  0.10838082  1
  Zr  Zr21  1  0.70212710  0.70398523  0.49107883  1
  Zr  Zr22  1  0.48825793  0.09275559  0.09738119  1
  Zr  Zr23  1  0.29900889  0.28984998  0.90356868  1
  Zr  Zr24  1  0.69391242  0.89588718  0.90091012  1
  Zr  Zr25  1  0.30304672  0.29350289  0.70088819  1
  Zr  Zr26  1  0.09781134  0.09252712  0.70070446  1
  Zr  Zr27  1  0.50632139  0.89686722  0.09551003  1
  Zr  Zr28  1  0.70013159  0.69808270  0.09776835  1
  Zr  Zr29  1  0.69767565  0.50569745  0.10419573  1
  Zr  Zr30  1  0.09840045  0.49317191  0.49945208  1
  Zr  Zr31  1  0.69916008  0.89686048  0.49911000  1
  Zr  Zr32  1  0.09817479  0.11042177  0.10313984  1
  Zr  Zr33  1  0.50103159  0.09439579  0.49633504  1
  Zr  Zr34  1  0.70138598  0.09923376  0.30439979  1
  Zr  Zr35  1  0.30331891  0.29868227  0.30236853  1
  Zr  Zr36  1  0.29664691  0.09772011  0.71055728  1
  Zr  Zr37  1  0.49936940  0.51329982  0.90000770  1
  Zr  Zr38  1  0.29945276  0.09372725  0.50154027  1
  Zr  Zr39  1  0.70738539  0.10328770  0.10716666  1
  Zr  Zr40  1  0.89488522  0.69665099  0.89184330  1
  Zr  Zr41  1  0.89289806  0.50417081  0.50809009  1
  Zr  Zr42  1  0.48950542  0.90152683  0.29166586  1
  Zr  Zr43  1  0.09734099  0.51564718  0.10415978  1
  Zr  Zr44  1  0.70110509  0.09369711  0.49443211  1
  Zr  Zr45  1  0.70529253  0.30189794  0.10135037  1
  Zr  Zr46  1  0.50724795  0.90251656  0.50624307  1
  Zr  Zr47  1  0.09868014  0.10079606  0.50249629  1
  Zr  Zr48  1  0.09316019  0.29673312  0.10546361  1
  Zr  Zr49  1  0.70096164  0.69778617  0.30199594  1
  Sc  Sc50  1  0.09877501  0.70522216  0.50748510  1
  Sc  Sc51  1  0.70291551  0.30790386  0.50154571  1
  Sc  Sc52  1  0.89794231  0.70487787  0.50174688  1
  Sc  Sc53  1  0.50033763  0.10265274  0.30649967  1
  Sc  Sc54  1  0.89906176  0.70488980  0.30876461  1
  Sc  Sc55  1  0.30654921  0.10188147  0.30336468  1
  Sc  Sc56  1  0.50137369  0.90020684  0.89589268  1
  Sc  Sc57  1  0.29933800  0.89641085  0.69993275  1
  Sc  Sc58  1  0.09520534  0.10739506  0.30266193  1
  Sc  Sc59  1  0.70342903  0.70424105  0.70745428  1
  Sc  Sc60  1  0.68813775  0.89622658  0.69402180  1
  Sc  Sc61  1  0.08678919  0.29797592  0.90482934  1
  Sc  Sc62  1  0.68954460  0.10613419  0.89396355  1
  Sc  Sc63  1  0.30311893  0.70459913  0.69731258  1
  Sc  Sc64  1  0.09550287  0.29734758  0.48824232  1
  Sc  Sc65  1  0.30507572  0.69726174  0.89874359  1
  Sc  Sc66  1  0.10156112  0.89834872  0.89227988  1
  Sc  Sc67  1  0.89458072  0.49903614  0.29984296  1
  Sc  Sc68  1  0.49778936  0.29715924  0.10706921  1
  Sc  Sc69  1  0.89537868  0.10878327  0.49076619  1
  Sc  Sc70  1  0.31565754  0.50479385  0.50266179  1
  Sc  Sc71  1  0.50235592  0.29584547  0.69746691  1
  Sc  Sc72  1  0.90129696  0.11705701  0.69351690  1
  Sc  Sc73  1  0.08160184  0.50138798  0.69841080  1
  Sc  Sc74  1  0.90767760  0.88562455  0.70397268  1
  Sc  Sc75  1  0.10654635  0.89845997  0.49213350  1
  Sc  Sc76  1  0.69574566  0.30330909  0.29577875  1
  Sc  Sc77  1  0.89919471  0.29884304  0.50443877  1
  Sc  Sc78  1  0.10096873  0.09726585  0.89075968  1
  Sc  Sc79  1  0.29626856  0.90414666  0.30485638  1
  Sc  Sc80  1  0.89712065  0.49614037  0.89181207  1
  Sc  Sc81  1  0.30038567  0.89584335  0.89276909  1
  Sc  Sc82  1  0.70754734  0.51520023  0.90339121  1
  Sc  Sc83  1  0.50093298  0.28503635  0.90023595  1
  Sc  Sc84  1  0.08914312  0.29540387  0.69504639  1
  Sc  Sc85  1  0.50055027  0.50143029  0.10106032  1
  Sc  Sc86  1  0.88977158  0.49768875  0.09637161  1
  Sc  Sc87  1  0.70565232  0.29394748  0.89569706  1
  Sc  Sc88  1  0.51262001  0.70248033  0.10662265  1
  Sc  Sc89  1  0.71068952  0.49181158  0.69761936  1
  Sc  Sc90  1  0.70365521  0.49956520  0.29956250  1
  Sc  Sc91  1  0.09911027  0.88301256  0.09784294  1
  Sc  Sc92  1  0.49936845  0.50346109  0.69532148  1
  Sc  Sc93  1  0.10320962  0.89581981  0.70437938  1
  Sc  Sc94  1  0.50246757  0.49710055  0.30791222  1
  Sc  Sc95  1  0.49359690  0.09628307  0.89687303  1
  Sc  Sc96  1  0.90818068  0.89970461  0.89151333  1
  Sc  Sc97  1  0.70761275  0.90493593  0.30983925  1
  Sc  Sc98  1  0.29872216  0.70764159  0.29669543  1
  Sc  Sc99  1  0.70246135  0.29806449  0.70031100  1
  Nb  Nb100  1  0.29010683  0.70429685  0.09885307  1
  Nb  Nb101  1  0.50198339  0.69823449  0.70657525  1
  Nb  Nb102  1  0.70007564  0.89864219  0.09487538  1
  Nb  Nb103  1  0.29316933  0.10026060  0.09681170  1
  Nb  Nb104  1  0.10039520  0.31341724  0.29974638  1
  Nb  Nb105  1  0.49588650  0.30138407  0.30864500  1
  Nb  Nb106  1  0.90042339  0.09636178  0.09992270  1
  Nb  Nb107  1  0.89954245  0.28916925  0.08694564  1
  Nb  Nb108  1  0.89856736  0.50200448  0.70351848  1
  Nb  Nb109  1  0.29827291  0.10233290  0.90662392  1
  Nb  Nb110  1  0.90160037  0.89556847  0.49260309  1
  Nb  Nb111  1  0.69409323  0.49923975  0.50047256  1
  Nb  Nb112  1  0.89921407  0.90844896  0.10671936  1
  Nb  Nb113  1  0.09651423  0.49330563  0.30413646  1
  Nb  Nb114  1  0.10035467  0.69807621  0.70423008  1
  Nb  Nb115  1  0.09998805  0.70198791  0.91110460  1
  Nb  Nb116  1  0.50729878  0.69974527  0.89333701  1
  Nb  Nb117  1  0.51169572  0.50122870  0.50118369  1
  Nb  Nb118  1  0.10939568  0.70077514  0.09116954  1
  Nb  Nb119  1  0.70481902  0.10376724  0.69663118  1
  Nb  Nb120  1  0.89768506  0.30236242  0.90652004  1
  Nb  Nb121  1  0.90949512  0.89753871  0.29734048  1
  Nb  Nb122  1  0.08848560  0.90348590  0.29849459  1
  Nb  Nb123  1  0.69662553  0.70029566  0.90301406  1
  Nb  Nb124  1  0.30160143  0.89670296  0.49884449  1
  Nb  Nb125  1  0.00612174  0.59569459  0.40048459  1
  Nb  Nb126  1  0.80369921  -0.00192007  -0.00126051  1
  Nb  Nb127  1  0.60383242  0.59963380  0.59577810  1
  Nb  Nb128  1  0.59655792  0.40282791  0.80698253  1
  Nb  Nb129  1  0.19480328  0.40014841  0.20054522  1
  Nb  Nb130  1  0.19149211  0.60044506  0.80002772  1
  Nb  Nb131  1  0.39542673  0.60397568  0.19830112  1
  Nb  Nb132  1  0.60097625  0.40134943  -0.00468324  1
  Nb  Nb133  1  0.80424960  0.80773270  0.19518701  1
  Nb  Nb134  1  0.40311265  0.79481186  0.00355566  1
  Nb  Nb135  1  0.19606984  0.00257491  0.19585605  1
  Nb  Nb136  1  0.20288016  0.39903255  0.60408971  1
  Nb  Nb137  1  0.20092134  0.40257651  0.79890180  1
  Nb  Nb138  1  0.80615793  -0.00312567  0.60132269  1
  Nb  Nb139  1  0.20046802  0.00183076  0.00519665  1
  Nb  Nb140  1  0.19318855  0.59794699  0.39723726  1
  Nb  Nb141  1  0.40021716  0.39952367  0.80244760  1
  Nb  Nb142  1  -0.00078092  0.00190414  0.00750439  1
  Nb  Nb143  1  0.60363897  -0.00064048  0.19610800  1
  Nb  Nb144  1  0.80139414  0.80485473  0.00293565  1
  Nb  Nb145  1  0.39937532  0.80302631  0.40852683  1
  Nb  Nb146  1  0.79906440  0.00268497  0.79359113  1
  Nb  Nb147  1  0.19765749  0.39946993  0.00352335  1
  Nb  Nb148  1  0.60352061  0.19272190  0.59737450  1
  Nb  Nb149  1  -0.00805294  -0.00295538  0.59552162  1
  Pd  Pd150  1  0.59631192  0.40194928  0.19868715  1
  Pd  Pd151  1  0.40378874  0.19487395  0.20372250  1
  Pd  Pd152  1  0.19076636  0.59408889  0.60151152  1
  Pd  Pd153  1  0.19799877  0.79518511  0.39488671  1
  Pd  Pd154  1  0.40823619  0.61532475  0.01212657  1
  Pd  Pd155  1  0.59732798  0.20175054  0.00757448  1
  Pd  Pd156  1  0.40916504  0.19353776  0.59803925  1
  Pd  Pd157  1  0.39944813  0.40346737  0.20076371  1
  Pd  Pd158  1  0.60223097  0.20860009  0.40604349  1
  Pd  Pd159  1  0.20027328  0.78992286  0.80285327  1
  Pd  Pd160  1  0.19716973  0.81015357  0.20532943  1
  Pd  Pd161  1  0.61318479  0.81020019  0.20986349  1
  Pd  Pd162  1  -0.00293408  0.00240447  0.40686339  1
  Pd  Pd163  1  0.80078229  0.80347374  0.60390126  1
  Pd  Pd164  1  0.79104813  0.60599162  0.60408993  1
  Pd  Pd165  1  0.20120200  0.59700473  -0.00917398  1
  Pd  Pd166  1  0.60641430  0.01113686  0.00292918  1
  Pd  Pd167  1  0.39984750  0.40278208  0.60510557  1
  Pd  Pd168  1  0.19867783  0.00439414  0.39200219  1
  Pd  Pd169  1  0.80889347  0.61054618  0.20180530  1
  Pd  Pd170  1  -0.00199273  0.20661293  0.79879354  1
  Pd  Pd171  1  0.79730258  0.19193321  -0.00690722  1
  Pd  Pd172  1  0.59202232  0.19400625  0.20030078  1
  Pd  Pd173  1  -0.00484697  0.80762484  -0.00629860  1
  Pd  Pd174  1  0.39366437  0.60789910  0.39495342  1
  Pd  Pd175  1  -0.00696785  0.20159469  0.39142144  1
  Pd  Pd176  1  0.20951997  0.40365414  0.40687698  1
  Pd  Pd177  1  0.60545997  -0.00137555  0.79703790  1
  Pd  Pd178  1  0.40230448  0.79595612  0.59827510  1
  Pd  Pd179  1  -0.01017782  0.59719858  0.20730285  1
  Pd  Pd180  1  0.39414659  -0.00133886  0.60450460  1
  Pd  Pd181  1  0.79659657  0.80668061  0.80198443  1
  Pd  Pd182  1  0.80151530  0.20961148  0.39125618  1
  Pd  Pd183  1  -0.00156766  0.39499039  0.59866680  1
  Pd  Pd184  1  0.80914796  0.20724437  0.20693326  1
  Pd  Pd185  1  0.40590129  0.38823554  -0.00352898  1
  Pd  Pd186  1  0.19490014  -0.00962136  0.60135245  1
  Pd  Pd187  1  0.19419183  0.20626219  0.59917090  1
  Pd  Pd188  1  0.19953488  0.19810996  0.39626949  1
  Pd  Pd189  1  -0.00450915  0.40722156  0.18823870  1
  Pd  Pd190  1  0.00745923  0.80685591  0.59712874  1
  Pd  Pd191  1  0.19022782  0.20641878  0.80284948  1
  Pd  Pd192  1  0.61088907  0.59246050  0.78794167  1
  Pd  Pd193  1  -0.00830585  0.19995637  0.20827057  1
  Pd  Pd194  1  0.39165633  -0.01005783  -0.00923874  1
  Pd  Pd195  1  0.79966855  0.40048612  0.40130933  1
  Pd  Pd196  1  -0.00038731  0.40536712  0.00742886  1
  Pd  Pd197  1  -0.00931158  0.59512027  -0.00636274  1
  Pd  Pd198  1  0.79151477  0.40221885  -0.00496098  1
  Pd  Pd199  1  0.20453854  0.59695675  0.20772881  1
  Rh  Rh200  1  0.20568999  -0.00082288  0.80698571  1
  Rh  Rh201  1  -0.01185434  0.40527302  0.40645181  1
  Rh  Rh202  1  0.59857567  0.59957639  0.00147918  1
  Rh  Rh203  1  0.20990609  0.80568000  -0.00376490  1
  Rh  Rh204  1  0.40478171  0.20154563  0.40545056  1
  Rh  Rh205  1  0.40568248  0.79415040  0.80569837  1
  Rh  Rh206  1  0.20075434  0.20164412  0.21379299  1
  Rh  Rh207  1  0.80173042  0.19742116  0.80444298  1
  Rh  Rh208  1  -0.00899616  0.00207158  0.78897731  1
  Rh  Rh209  1  0.59758196  0.79931013  0.80027624  1
  Rh  Rh210  1  0.80986454  -0.00590363  0.40620916  1
  Rh  Rh211  1  0.01270613  -0.00156172  0.19297492  1
  Rh  Rh212  1  0.39617869  0.00884038  0.20368195  1
  Rh  Rh213  1  0.41414841  0.60730721  0.60149683  1
  Rh  Rh214  1  0.80479917  0.39380446  0.19240414  1
  Rh  Rh215  1  0.80505611  0.80471462  0.39267941  1
  Rh  Rh216  1  0.40041188  -0.00735608  0.40389994  1
  Rh  Rh217  1  0.80540829  0.60964603  0.00064244  1
  Rh  Rh218  1  0.00211874  0.19529900  0.59501196  1
  Rh  Rh219  1  0.59249322  -0.00798616  0.38734290  1
  Rh  Rh220  1  0.80125272  0.39981422  0.59880159  1
  Rh  Rh221  1  0.59736322  0.79203040  -0.00666234  1
  Rh  Rh222  1  0.59905284  0.20452773  0.78848434  1
  Rh  Rh223  1  0.59225873  0.81047911  0.39403750  1
  Rh  Rh224  1  0.60269021  0.40152031  0.61027716  1
  Rh  Rh225  1  0.79036624  -0.00815002  0.19682186  1
  Rh  Rh226  1  -0.00112400  0.80060558  0.19878450  1
  Rh  Rh227  1  0.39961128  0.78782455  0.19779056  1
  Rh  Rh228  1  0.40417665  0.19907106  0.00278510  1
  Rh  Rh229  1  0.18822423  0.19809590  -0.00946094  1
  Rh  Rh230  1  0.00385243  0.60435841  0.80605832  1
  Rh  Rh231  1  0.00869643  0.78936383  0.80448684  1
  Rh  Rh232  1  0.60935143  0.00662293  0.60311087  1
  Rh  Rh233  1  0.19717839  0.80456428  0.60397850  1
  Rh  Rh234  1  0.60893073  0.59291900  0.40036189  1
  Rh  Rh235  1  0.80365079  0.59673134  0.40303943  1
  Rh  Rh236  1  0.59269374  0.59148098  0.20717647  1
  Rh  Rh237  1  0.60291251  0.39981460  0.39391014  1
  Rh  Rh238  1  -0.00364152  0.39451616  0.79810542  1
  Rh  Rh239  1  -0.00072639  0.19325819  -0.00348663  1
  Rh  Rh240  1  0.79453896  0.40236363  0.80757241  1
  Rh  Rh241  1  0.00071411  0.60168811  0.59313688  1
  Rh  Rh242  1  0.40408828  0.40108093  0.40497782  1
  Rh  Rh243  1  0.40156874  0.19686685  0.80160917  1
  Rh  Rh244  1  0.39549510  0.60460275  0.79507681  1
  Rh  Rh245  1  0.59984925  0.78609773  0.60561603  1
  Rh  Rh246  1  0.00398554  0.79435748  0.40053710  1
  Rh  Rh247  1  0.79795331  0.59997053  0.79435386  1
  Rh  Rh248  1  0.79155059  0.19852802  0.59407823  1
  Rh  Rh249  1  0.39412715  -0.00005930  0.80229422  1
