# generated using pymatgen
data_ZrScNbPdRh
_symmetry_space_group_name_H-M   'P 1'
_cell_length_a   16.56281539
_cell_length_b   16.56026566
_cell_length_c   16.55969248
_cell_angle_alpha   90.00612918
_cell_angle_beta   89.99753918
_cell_angle_gamma   90.01219714
_symmetry_Int_Tables_number   1
_chemical_formula_structural   ZrScNbPdRh
_chemical_formula_sum   'Zr50 Sc50 Nb50 Pd50 Rh50'
_cell_volume   4542.06887494
_cell_formula_units_Z   50
loop_
 _symmetry_equiv_pos_site_id
 _symmetry_equiv_pos_as_xyz
  1  'x, y, z'
loop_
 _atom_site_type_symbol
 _atom_site_label
 _atom_site_symmetry_multiplicity
 _atom_site_fract_x
 _atom_site_fract_y
 _atom_site_fract_z
 _atom_site_occupancy
  Zr  Zr0  1  0.09827845  0.29756549  0.29999030  1
  Zr  Zr1  1  0.10408171  0.09827752  0.50463965  1
  Zr  Zr2  1  0.71372717  0.89640423  0.09762103  1
  Zr  Zr3  1  0.10318447  0.50412819  0.89715177  1
  Zr  Zr4  1  0.29080460  0.09395857  0.90088555  1
  Zr  Zr5  1  0.89101657  0.90007197  0.29448869  1
  Zr  Zr6  1  0.69651922  0.70513049  0.30128690  1
  Zr  Zr7  1  0.50333240  0.09760951  0.29950416  1
  Zr  Zr8  1  0.50511241  0.29208993  0.10689591  1
  Zr  Zr9  1  0.90147564  0.70585804  0.09678348  1
  Zr  Zr10  1  0.29678582  0.31257333  0.30732563  1
  Zr  Zr11  1  0.88829679  0.50021469  0.09773789  1
  Zr  Zr12  1  0.69795607  0.51193584  0.09606423  1
  Zr  Zr13  1  0.10530308  0.90136676  0.51200381  1
  Zr  Zr14  1  0.49740363  0.29735205  0.90045105  1
  Zr  Zr15  1  0.50042074  0.90240851  0.90307162  1
  Zr  Zr16  1  0.90550048  0.90229585  0.09025459  1
  Zr  Zr17  1  0.08384049  0.50911388  0.50398732  1
  Zr  Zr18  1  0.10923066  0.90322401  0.28940686  1
  Zr  Zr19  1  0.89159003  0.89355923  0.70986583  1
  Zr  Zr20  1  0.70541006  0.09743038  0.49732676  1
  Zr  Zr21  1  0.89350488  0.49746073  0.49695214  1
  Zr  Zr22  1  0.29545446  0.07647167  0.30527859  1
  Zr  Zr23  1  0.30956088  0.29539530  0.70569080  1
  Zr  Zr24  1  0.69551142  0.08619792  0.69924067  1
  Zr  Zr25  1  0.09712523  0.50414467  0.70516350  1
  Zr  Zr26  1  0.70219468  0.30605019  0.89482549  1
  Zr  Zr27  1  0.09927078  0.29060216  0.70028984  1
  Zr  Zr28  1  0.69611503  0.71838238  0.69887406  1
  Zr  Zr29  1  0.30012408  0.09292113  0.09359621  1
  Zr  Zr30  1  0.70031384  0.49928628  0.89986802  1
  Zr  Zr31  1  0.70389521  0.90117202  0.49720922  1
  Zr  Zr32  1  0.30718806  0.70581847  0.30002963  1
  Zr  Zr33  1  0.49740055  0.49719830  0.69384574  1
  Zr  Zr34  1  0.30744913  0.09928782  0.69534944  1
  Zr  Zr35  1  0.90110450  0.10460240  0.09355665  1
  Zr  Zr36  1  0.89969507  0.90398751  0.50821568  1
  Zr  Zr37  1  0.50988418  0.91115537  0.70147566  1
  Zr  Zr38  1  0.69756965  0.10310464  0.09599452  1
  Zr  Zr39  1  0.49553506  0.89781672  0.09913978  1
  Zr  Zr40  1  0.09879005  0.09765440  0.29929221  1
  Zr  Zr41  1  0.30032254  0.29118185  0.90481501  1
  Zr  Zr42  1  0.30344811  0.49876541  0.69716794  1
  Zr  Zr43  1  0.90941697  0.69009954  0.50023432  1
  Zr  Zr44  1  0.89379346  0.29979484  0.50122797  1
  Zr  Zr45  1  0.30864264  0.70094375  0.10568372  1
  Zr  Zr46  1  0.50005517  0.29887688  0.50046738  1
  Zr  Zr47  1  0.30537271  0.70132223  0.89885674  1
  Zr  Zr48  1  0.30369549  0.50469101  0.29398837  1
  Zr  Zr49  1  0.90339769  0.10218919  0.29728513  1
  Sc  Sc50  1  0.51097158  0.30532031  0.30219038  1
  Sc  Sc51  1  0.90343373  0.69708189  0.29715972  1
  Sc  Sc52  1  0.29603867  0.30025236  0.09645084  1
  Sc  Sc53  1  0.09175580  0.70831882  0.10412409  1
  Sc  Sc54  1  0.49757569  0.89486930  0.49760844  1
  Sc  Sc55  1  0.09905721  0.29280043  0.49977805  1
  Sc  Sc56  1  0.10127708  0.29008260  0.09637196  1
  Sc  Sc57  1  0.49915133  0.49680798  0.30216291  1
  Sc  Sc58  1  0.10247421  0.50239010  0.29632026  1
  Sc  Sc59  1  0.09861407  0.90254676  0.89598273  1
  Sc  Sc60  1  0.50202612  0.10012600  0.09619482  1
  Sc  Sc61  1  0.90742788  0.09517146  0.70412655  1
  Sc  Sc62  1  0.90300937  0.49828157  0.69729221  1
  Sc  Sc63  1  0.88805907  0.29475266  0.29736818  1
  Sc  Sc64  1  0.49841086  0.09670949  0.50587692  1
  Sc  Sc65  1  0.70515530  0.10126553  0.30625900  1
  Sc  Sc66  1  0.09210259  0.09524196  0.09765167  1
  Sc  Sc67  1  0.69942846  0.30661805  0.49197409  1
  Sc  Sc68  1  0.11351376  0.29021052  0.90304543  1
  Sc  Sc69  1  0.90222310  0.09944655  0.50125900  1
  Sc  Sc70  1  0.89919449  0.29672306  0.70377574  1
  Sc  Sc71  1  0.49329169  0.69905291  0.50545245  1
  Sc  Sc72  1  0.49877710  0.70433050  0.31389123  1
  Sc  Sc73  1  0.48788446  0.89577870  0.30497211  1
  Sc  Sc74  1  0.88851817  0.29120917  0.90159959  1
  Sc  Sc75  1  0.29778801  0.29795817  0.50134219  1
  Sc  Sc76  1  0.70569207  0.90471725  0.89242885  1
  Sc  Sc77  1  0.10015643  0.09772672  0.70302827  1
  Sc  Sc78  1  0.31364638  0.49823858  0.49332026  1
  Sc  Sc79  1  0.69985658  0.49877568  0.30044088  1
  Sc  Sc80  1  0.69377613  0.49181272  0.70402988  1
  Sc  Sc81  1  0.30013593  0.49650600  0.89511741  1
  Sc  Sc82  1  0.10415104  0.50397197  0.10601362  1
  Sc  Sc83  1  0.70672822  0.30075193  0.10472099  1
  Sc  Sc84  1  0.68506144  0.70621703  0.49762777  1
  Sc  Sc85  1  0.09905186  0.90311176  0.70139275  1
  Sc  Sc86  1  0.69670038  0.30424901  0.70251033  1
  Sc  Sc87  1  0.30232646  0.90426166  0.50477508  1
  Sc  Sc88  1  0.50391842  0.51273211  0.88960273  1
  Sc  Sc89  1  0.49562978  0.09285170  0.90935517  1
  Sc  Sc90  1  0.89000654  0.49783525  0.89736660  1
  Sc  Sc91  1  0.09628279  0.90157001  0.09714811  1
  Sc  Sc92  1  0.50416461  0.69593164  0.08691689  1
  Sc  Sc93  1  0.29905152  0.70718184  0.69409221  1
  Sc  Sc94  1  0.90931324  0.71633753  0.89016301  1
  Sc  Sc95  1  0.29413954  0.90428105  0.69789604  1
  Sc  Sc96  1  0.09624860  0.70348643  0.51170028  1
  Sc  Sc97  1  0.09299385  0.69787599  0.29070681  1
  Sc  Sc98  1  0.50384758  0.50238305  0.49935215  1
  Sc  Sc99  1  0.89229277  0.50779758  0.29964001  1
  Nb  Nb100  1  0.70000207  0.89847459  0.30260339  1
  Nb  Nb101  1  0.70473389  0.90297859  0.69360246  1
  Nb  Nb102  1  0.50091112  0.10484997  0.69856777  1
  Nb  Nb103  1  0.70020867  0.30038164  0.30259941  1
  Nb  Nb104  1  0.70598430  0.10379596  0.89952106  1
  Nb  Nb105  1  0.89731751  0.70205673  0.70424576  1
  Nb  Nb106  1  0.90128753  0.90602670  0.89997469  1
  Nb  Nb107  1  0.10170259  0.69935055  0.89694888  1
  Nb  Nb108  1  0.89671946  0.09168788  0.89976693  1
  Nb  Nb109  1  0.90180461  0.30132697  0.10024844  1
  Nb  Nb110  1  0.29957147  0.89321489  0.29241936  1
  Nb  Nb111  1  0.50492421  0.70458294  0.89127807  1
  Nb  Nb112  1  0.09901823  0.09393640  0.89852236  1
  Nb  Nb113  1  0.50048692  0.70434364  0.70108060  1
  Nb  Nb114  1  0.49856463  0.29181436  0.70023432  1
  Nb  Nb115  1  0.68665601  0.69423015  0.90389382  1
  Nb  Nb116  1  0.49948729  0.49685374  0.10247529  1
  Nb  Nb117  1  0.09190068  0.69805147  0.71428585  1
  Nb  Nb118  1  0.29606880  0.89552309  0.11049209  1
  Nb  Nb119  1  0.70468387  0.50055824  0.50117295  1
  Nb  Nb120  1  0.69747404  0.69819424  0.09302865  1
  Nb  Nb121  1  0.29776139  0.90339740  0.90580208  1
  Nb  Nb122  1  0.30843526  0.50452295  0.10249171  1
  Nb  Nb123  1  0.29866421  0.70066020  0.50188399  1
  Nb  Nb124  1  0.30189300  0.09499517  0.49984680  1
  Nb  Nb125  1  0.79518427  0.19663874  0.60082770  1
  Nb  Nb126  1  0.40534367  0.40611354  0.00664567  1
  Nb  Nb127  1  -0.00497482  0.39984520  0.39487050  1
  Nb  Nb128  1  0.00341858  0.39650759  0.80897749  1
  Nb  Nb129  1  0.20154844  0.60708384  0.00078178  1
  Nb  Nb130  1  0.00336704  0.59993362  -0.00608319  1
  Nb  Nb131  1  0.40665688  0.80236773  0.80225959  1
  Nb  Nb132  1  0.59500061  0.40489732  0.00301081  1
  Nb  Nb133  1  0.59579032  0.19318937  0.79726876  1
  Nb  Nb134  1  0.20012096  0.59869539  0.59963446  1
  Nb  Nb135  1  0.39606089  0.19472362  0.39587962  1
  Nb  Nb136  1  0.00360632  -0.00687721  0.39913498  1
  Nb  Nb137  1  0.20226939  0.60774372  0.40587813  1
  Nb  Nb138  1  0.00449333  0.80750653  0.40011724  1
  Nb  Nb139  1  0.79470346  0.60304244  0.60292920  1
  Nb  Nb140  1  0.39238746  0.19780636  0.20935679  1
  Nb  Nb141  1  0.19802209  0.40565848  0.60244895  1
  Nb  Nb142  1  0.20366120  0.79834237  -0.00179504  1
  Nb  Nb143  1  0.79608605  0.61182439  0.79430645  1
  Nb  Nb144  1  0.60663406  -0.00984464  0.20244141  1
  Nb  Nb145  1  0.60542056  0.80256883  0.19764410  1
  Nb  Nb146  1  -0.00152537  0.40030711  0.00023086  1
  Nb  Nb147  1  0.19991599  0.79820778  0.40016000  1
  Nb  Nb148  1  0.20627486  0.19402255  0.20561473  1
  Nb  Nb149  1  -0.00670737  0.39582594  0.19685155  1
  Pd  Pd150  1  0.79623997  0.00892898  0.19839390  1
  Pd  Pd151  1  -0.00475356  0.19986376  0.40312525  1
  Pd  Pd152  1  0.19416423  0.39413414  0.19070840  1
  Pd  Pd153  1  0.79841772  0.79098332  0.19923495  1
  Pd  Pd154  1  -0.00013162  0.79923949  0.60748464  1
  Pd  Pd155  1  0.41612572  0.60767485  0.20495314  1
  Pd  Pd156  1  0.59298665  0.60899958  0.20423996  1
  Pd  Pd157  1  0.60696236  0.20685238  -0.00821728  1
  Pd  Pd158  1  0.20011675  0.60794409  0.19893323  1
  Pd  Pd159  1  0.60027888  0.39652715  0.59630851  1
  Pd  Pd160  1  0.39663120  0.39508687  0.59453151  1
  Pd  Pd161  1  0.59703014  -0.00376886  0.58885710  1
  Pd  Pd162  1  0.40554579  0.40194543  0.80769175  1
  Pd  Pd163  1  0.79293151  0.19201257  0.78962420  1
  Pd  Pd164  1  0.79718728  0.60848502  0.20091852  1
  Pd  Pd165  1  0.79572283  0.39966356  0.60689466  1
  Pd  Pd166  1  0.39636984  0.80381276  -0.00342931  1
  Pd  Pd167  1  0.79083446  0.60827565  0.40617625  1
  Pd  Pd168  1  0.39742471  0.60795288  0.79084535  1
  Pd  Pd169  1  0.40279475  0.80652033  0.60790301  1
  Pd  Pd170  1  0.40445161  0.18736522  0.80889294  1
  Pd  Pd171  1  0.60386110  0.60181979  0.60511724  1
  Pd  Pd172  1  0.21049406  0.60521863  0.79617977  1
  Pd  Pd173  1  0.60785622  0.20295792  0.60392937  1
  Pd  Pd174  1  0.59741988  0.20032059  0.40006104  1
  Pd  Pd175  1  0.60877995  -0.00542861  0.00132789  1
  Pd  Pd176  1  0.79891762  0.79353891  -0.01415845  1
  Pd  Pd177  1  0.40776596  0.00263954  0.19609688  1
  Pd  Pd178  1  0.59939798  0.59525406  0.40010666  1
  Pd  Pd179  1  -0.00047962  0.20338321  -0.00934362  1
  Pd  Pd180  1  0.39995903  0.39149604  0.19731589  1
  Pd  Pd181  1  0.60116554  0.80954794  0.80180925  1
  Pd  Pd182  1  0.20630473  0.20199454  0.60332680  1
  Pd  Pd183  1  0.80087553  0.79157809  0.58814777  1
  Pd  Pd184  1  0.20400998  0.80574400  0.80132274  1
  Pd  Pd185  1  0.81052096  0.61618890  -0.01607096  1
  Pd  Pd186  1  0.40220445  0.59364992  -0.00560981  1
  Pd  Pd187  1  0.59508496  -0.00586281  0.39791289  1
  Pd  Pd188  1  0.20225914  0.40977185  0.00752264  1
  Pd  Pd189  1  0.60999249  0.40278831  0.19653360  1
  Pd  Pd190  1  0.79549538  0.19734253  0.19933886  1
  Pd  Pd191  1  0.19743886  0.39104659  0.79467350  1
  Pd  Pd192  1  0.39740847  -0.00271859  0.79943340  1
  Pd  Pd193  1  0.60556279  0.80468085  0.00134185  1
  Pd  Pd194  1  0.18833784  0.41511693  0.41277675  1
  Pd  Pd195  1  0.80801197  0.79357390  0.40666810  1
  Pd  Pd196  1  0.00471362  0.39004503  0.60113384  1
  Pd  Pd197  1  0.60659197  0.60158386  0.78745533  1
  Pd  Pd198  1  0.20862514  0.19477592  0.39658831  1
  Pd  Pd199  1  0.00088763  0.20197441  0.81009786  1
  Rh  Rh200  1  0.19563107  -0.00940374  0.00276036  1
  Rh  Rh201  1  0.59134062  0.59485147  -0.00247674  1
  Rh  Rh202  1  0.00878540  0.79975500  -0.00713615  1
  Rh  Rh203  1  0.79934698  0.40016430  0.20223388  1
  Rh  Rh204  1  0.00533395  0.20558530  0.19760606  1
  Rh  Rh205  1  0.19878155  0.00158976  0.79854268  1
  Rh  Rh206  1  0.80965194  0.40630413  0.79321620  1
  Rh  Rh207  1  0.19591776  0.18655990  0.00574114  1
  Rh  Rh208  1  0.59767816  0.80706782  0.39594320  1
  Rh  Rh209  1  0.40387638  -0.00118110  0.60073566  1
  Rh  Rh210  1  0.79597499  0.39302256  0.00316258  1
  Rh  Rh211  1  0.00054834  0.00116260  -0.00786806  1
  Rh  Rh212  1  0.19509211  0.79041875  0.60380742  1
  Rh  Rh213  1  0.58848035  0.39170815  0.80323276  1
  Rh  Rh214  1  0.00414766  0.80954645  0.79839059  1
  Rh  Rh215  1  0.20287603  0.19104637  0.79721763  1
  Rh  Rh216  1  0.39861585  0.19854742  0.59009179  1
  Rh  Rh217  1  0.41417260  0.79388578  0.19734431  1
  Rh  Rh218  1  -0.00127095  -0.00228761  0.80307629  1
  Rh  Rh219  1  -0.00727788  0.58982340  0.18947790  1
  Rh  Rh220  1  0.60320895  0.19183841  0.20636597  1
  Rh  Rh221  1  -0.01395795  0.59313545  0.80454998  1
  Rh  Rh222  1  0.80198864  0.00094051  0.79964739  1
  Rh  Rh223  1  0.80582720  0.00464819  0.60549333  1
  Rh  Rh224  1  0.19757249  -0.01283706  0.40774534  1
  Rh  Rh225  1  0.59457047  0.80828761  0.59871802  1
  Rh  Rh226  1  0.39459013  -0.00673733  0.00465441  1
  Rh  Rh227  1  0.39915272  0.60347944  0.60170198  1
  Rh  Rh228  1  0.79987018  0.00419926  -0.00358703  1
  Rh  Rh229  1  0.19725427  0.00453107  0.18736757  1
  Rh  Rh230  1  0.79867671  0.20146535  0.40589051  1
  Rh  Rh231  1  -0.00502935  0.80944691  0.20448736  1
  Rh  Rh232  1  0.39935290  -0.00188112  0.40592001  1
  Rh  Rh233  1  0.39737122  0.59901144  0.39996289  1
  Rh  Rh234  1  -0.00531906  -0.00266310  0.20153685  1
  Rh  Rh235  1  -0.00980379  0.19861214  0.59974076  1
  Rh  Rh236  1  -0.00390386  0.60698132  0.61585533  1
  Rh  Rh237  1  0.79898639  0.19982737  0.00146728  1
  Rh  Rh238  1  0.80048931  0.40034988  0.39150287  1
  Rh  Rh239  1  0.60513331  0.40629284  0.40243303  1
  Rh  Rh240  1  0.80888017  0.00133873  0.39825232  1
  Rh  Rh241  1  0.38805022  0.80384828  0.40733179  1
  Rh  Rh242  1  0.40875232  0.39350258  0.40055357  1
  Rh  Rh243  1  0.20304969  0.00737539  0.60506514  1
  Rh  Rh244  1  0.39744116  0.20546313  0.00836376  1
  Rh  Rh245  1  0.79121200  0.79786918  0.80803624  1
  Rh  Rh246  1  -0.00099428  0.00265126  0.60047540  1
  Rh  Rh247  1  0.19723977  0.79439887  0.19626678  1
  Rh  Rh248  1  0.00778662  0.60091632  0.38878284  1
  Rh  Rh249  1  0.60159912  0.00798595  0.80889931  1
