# generated using pymatgen
data_ZrScNbPdRh
_symmetry_space_group_name_H-M   'P 1'
_cell_length_a   16.55965838
_cell_length_b   16.55490683
_cell_length_c   16.55765863
_cell_angle_alpha   90.00621508
_cell_angle_beta   89.98813781
_cell_angle_gamma   90.03728512
_symmetry_Int_Tables_number   1
_chemical_formula_structural   ZrScNbPdRh
_chemical_formula_sum   'Zr50 Sc50 Nb50 Pd50 Rh50'
_cell_volume   4539.17508726
_cell_formula_units_Z   50
loop_
 _symmetry_equiv_pos_site_id
 _symmetry_equiv_pos_as_xyz
  1  'x, y, z'
loop_
 _atom_site_type_symbol
 _atom_site_label
 _atom_site_symmetry_multiplicity
 _atom_site_fract_x
 _atom_site_fract_y
 _atom_site_fract_z
 _atom_site_occupancy
  Zr  Zr0  1  0.89908183  0.90805360  0.69397184  1
  Zr  Zr1  1  0.69721662  0.30082268  0.29629725  1
  Zr  Zr2  1  0.90624827  0.10037549  0.28889765  1
  Zr  Zr3  1  0.69648739  0.29795390  0.50438834  1
  Zr  Zr4  1  0.49953943  0.10010051  0.70051788  1
  Zr  Zr5  1  0.50026276  0.70305982  0.70244669  1
  Zr  Zr6  1  0.09593414  0.10049573  0.29708077  1
  Zr  Zr7  1  0.28837702  0.30212524  0.90551654  1
  Zr  Zr8  1  0.50186815  0.30674078  0.30820469  1
  Zr  Zr9  1  0.09268505  0.30151660  0.89167196  1
  Zr  Zr10  1  0.69852692  0.89615566  0.09623886  1
  Zr  Zr11  1  0.31005571  0.29402497  0.29654117  1
  Zr  Zr12  1  0.30809319  0.70673551  0.30391757  1
  Zr  Zr13  1  0.49605201  0.48943273  0.49673948  1
  Zr  Zr14  1  0.89368585  0.90325258  0.89618120  1
  Zr  Zr15  1  0.49608631  0.10967633  0.30309587  1
  Zr  Zr16  1  0.29855922  0.09840987  0.50366347  1
  Zr  Zr17  1  0.49254622  0.50492361  0.90402065  1
  Zr  Zr18  1  0.10142678  0.90464427  0.31568481  1
  Zr  Zr19  1  0.49482723  0.49874618  0.10168195  1
  Zr  Zr20  1  0.09095772  0.09840705  0.10288725  1
  Zr  Zr21  1  0.30605486  0.49843717  0.09548968  1
  Zr  Zr22  1  0.50094336  0.89708822  0.70139221  1
  Zr  Zr23  1  0.31042789  0.30465570  0.50278256  1
  Zr  Zr24  1  0.69976194  0.49400716  0.10151501  1
  Zr  Zr25  1  0.69177523  0.70745918  0.90026152  1
  Zr  Zr26  1  0.30301132  0.50267449  0.70212848  1
  Zr  Zr27  1  0.50103370  0.70854044  0.89334666  1
  Zr  Zr28  1  0.89159706  0.50514240  0.09960330  1
  Zr  Zr29  1  0.08964159  0.30020986  0.30167164  1
  Zr  Zr30  1  0.28092622  0.90331384  0.49870497  1
  Zr  Zr31  1  0.50368834  0.49826381  0.70577851  1
  Zr  Zr32  1  0.90708258  0.50545523  0.49942217  1
  Zr  Zr33  1  0.30002892  0.10685678  0.89102299  1
  Zr  Zr34  1  0.50678407  0.30457033  0.69774035  1
  Zr  Zr35  1  0.88757190  0.50705455  0.70990448  1
  Zr  Zr36  1  0.91326297  0.69815022  0.10061393  1
  Zr  Zr37  1  0.89745292  0.10240274  0.69821699  1
  Zr  Zr38  1  0.70767341  0.49918267  0.29104752  1
  Zr  Zr39  1  0.91181303  0.49833108  0.30011323  1
  Zr  Zr40  1  0.10076670  0.70303513  0.90109356  1
  Zr  Zr41  1  0.29223478  0.89651036  0.89957653  1
  Zr  Zr42  1  0.31125636  0.50427697  0.29090784  1
  Zr  Zr43  1  0.70531251  0.70536831  0.31001332  1
  Zr  Zr44  1  0.10449966  0.89522706  0.89703230  1
  Zr  Zr45  1  0.90312716  0.68340670  0.89293334  1
  Zr  Zr46  1  0.69765858  0.70057239  0.49844605  1
  Zr  Zr47  1  0.09945809  0.88591654  0.09234663  1
  Zr  Zr48  1  0.50035979  0.09709295  0.10608587  1
  Zr  Zr49  1  0.29422254  0.69966721  0.11384521  1
  Sc  Sc50  1  0.70935644  0.69616989  0.09983893  1
  Sc  Sc51  1  0.69844968  0.29877916  0.10270851  1
  Sc  Sc52  1  0.51237682  0.10518969  0.89348717  1
  Sc  Sc53  1  0.90209510  0.29138612  0.30013014  1
  Sc  Sc54  1  0.11407994  0.50342806  0.69931584  1
  Sc  Sc55  1  0.29581728  0.29857245  0.70459290  1
  Sc  Sc56  1  0.10084734  0.49919075  0.50235398  1
  Sc  Sc57  1  0.10146332  0.09366810  0.50440095  1
  Sc  Sc58  1  0.30420940  0.30358126  0.09775186  1
  Sc  Sc59  1  0.29750455  0.49504488  0.89670162  1
  Sc  Sc60  1  0.70061839  0.09836761  0.69682770  1
  Sc  Sc61  1  0.10444128  0.69533034  0.28773375  1
  Sc  Sc62  1  0.30799433  0.09567867  0.29657515  1
  Sc  Sc63  1  0.10544855  0.11251984  0.90136683  1
  Sc  Sc64  1  0.29679803  0.70225681  0.88955983  1
  Sc  Sc65  1  0.10231639  0.29282126  0.09047540  1
  Sc  Sc66  1  0.89563913  0.10364359  0.90063645  1
  Sc  Sc67  1  0.08818269  0.51077414  0.11512440  1
  Sc  Sc68  1  0.49730448  0.70383135  0.09220872  1
  Sc  Sc69  1  0.49800273  0.89722366  0.10042014  1
  Sc  Sc70  1  0.70297981  0.49953715  0.90048179  1
  Sc  Sc71  1  0.89946204  0.29186820  0.50124944  1
  Sc  Sc72  1  0.50340033  0.30205974  0.09980959  1
  Sc  Sc73  1  0.70038936  0.91054813  0.69803368  1
  Sc  Sc74  1  0.50046520  0.30004211  0.89292619  1
  Sc  Sc75  1  0.89936952  0.30058775  0.70334052  1
  Sc  Sc76  1  0.09968222  0.49821267  0.89184683  1
  Sc  Sc77  1  0.69533774  0.90045779  0.49907616  1
  Sc  Sc78  1  0.69559001  0.10124216  0.50244816  1
  Sc  Sc79  1  0.90431758  0.89570220  0.29659202  1
  Sc  Sc80  1  0.29935655  0.49717420  0.51020037  1
  Sc  Sc81  1  0.10647293  0.69355867  0.70316462  1
  Sc  Sc82  1  0.89175997  0.10264643  0.50810428  1
  Sc  Sc83  1  0.69174966  0.10850850  0.29223813  1
  Sc  Sc84  1  0.90677983  0.90698712  0.50875027  1
  Sc  Sc85  1  0.70351304  0.50058685  0.51330708  1
  Sc  Sc86  1  0.50132564  0.90536286  0.50705017  1
  Sc  Sc87  1  0.69614077  0.68297266  0.69899396  1
  Sc  Sc88  1  0.69565574  0.90494149  0.90068993  1
  Sc  Sc89  1  0.69563004  0.10726489  0.09277691  1
  Sc  Sc90  1  0.89860806  0.29849837  0.09238040  1
  Sc  Sc91  1  0.30139599  0.70968544  0.49577185  1
  Sc  Sc92  1  0.09753094  0.29286096  0.50622223  1
  Sc  Sc93  1  0.90092844  0.89150110  0.09839481  1
  Sc  Sc94  1  0.49508447  0.91049475  0.29644301  1
  Sc  Sc95  1  0.30190947  0.89749942  0.30473743  1
  Sc  Sc96  1  0.29638733  0.10372400  0.10326354  1
  Sc  Sc97  1  0.10189098  0.69478769  0.50941742  1
  Sc  Sc98  1  0.30323650  0.89503511  0.10465934  1
  Sc  Sc99  1  0.69533112  0.30343229  0.91021087  1
  Nb  Nb100  1  0.50103661  0.10705486  0.49793524  1
  Nb  Nb101  1  0.90086660  0.69813979  0.69836197  1
  Nb  Nb102  1  0.50471994  0.69686978  0.49873633  1
  Nb  Nb103  1  0.70187646  0.31254210  0.70025187  1
  Nb  Nb104  1  0.49758954  0.89482425  0.89876812  1
  Nb  Nb105  1  0.10038041  0.69822648  0.09614535  1
  Nb  Nb106  1  0.90051617  0.09558180  0.10336082  1
  Nb  Nb107  1  0.29778726  0.10052314  0.69653458  1
  Nb  Nb108  1  0.09405711  0.28993861  0.69925006  1
  Nb  Nb109  1  0.70467347  0.89862575  0.29839443  1
  Nb  Nb110  1  0.89577752  0.69776249  0.30980229  1
  Nb  Nb111  1  0.50382598  0.69508846  0.31513259  1
  Nb  Nb112  1  0.89837905  0.69612256  0.50501995  1
  Nb  Nb113  1  0.09493832  0.90095068  0.68751223  1
  Nb  Nb114  1  0.09962033  0.49451337  0.30514892  1
  Nb  Nb115  1  0.70359295  0.10350116  0.89744045  1
  Nb  Nb116  1  0.30000907  0.69698709  0.69828200  1
  Nb  Nb117  1  0.89775231  0.48897935  0.89841238  1
  Nb  Nb118  1  0.69997011  0.48733372  0.70175246  1
  Nb  Nb119  1  0.90084734  0.31142427  0.89578847  1
  Nb  Nb120  1  0.50340470  0.50186546  0.29895038  1
  Nb  Nb121  1  0.29496612  0.90016460  0.69392947  1
  Nb  Nb122  1  0.49967628  0.29572091  0.49775882  1
  Nb  Nb123  1  0.10229842  0.11159073  0.69802559  1
  Nb  Nb124  1  0.09521485  0.89546604  0.50391410  1
  Nb  Nb125  1  -0.00380255  0.80336218  0.79078382  1
  Nb  Nb126  1  0.40469849  0.19816026  0.60005509  1
  Nb  Nb127  1  0.40193941  0.19465298  -0.00490261  1
  Nb  Nb128  1  0.59750762  0.60408727  0.20823809  1
  Nb  Nb129  1  0.80543069  0.79289439  0.60236649  1
  Nb  Nb130  1  0.20312807  0.20296914  0.39835156  1
  Nb  Nb131  1  0.39494035  -0.00415793  0.79817547  1
  Nb  Nb132  1  0.19850220  0.00061234  0.78558076  1
  Nb  Nb133  1  0.19726517  0.40186857  0.20631147  1
  Nb  Nb134  1  0.19730167  0.60254926  0.00686360  1
  Nb  Nb135  1  0.80347912  0.79545472  0.79194251  1
  Nb  Nb136  1  0.79804091  -0.00054566  0.19911740  1
  Nb  Nb137  1  0.00897314  0.00124381  0.79766610  1
  Nb  Nb138  1  0.40110254  0.00119691  -0.01049674  1
  Nb  Nb139  1  0.80294169  0.39951022  0.39949854  1
  Nb  Nb140  1  0.60097859  0.79365069  0.21021632  1
  Nb  Nb141  1  0.79543278  0.20672536  0.80418953  1
  Nb  Nb142  1  -0.00049821  0.40044442  0.60614342  1
  Nb  Nb143  1  0.79729882  -0.00042650  0.38945576  1
  Nb  Nb144  1  0.19154066  -0.00273133  0.20064522  1
  Nb  Nb145  1  -0.00218705  0.79258262  0.40841447  1
  Nb  Nb146  1  0.00065014  -0.00184674  -0.00448815  1
  Nb  Nb147  1  0.20272929  0.59277271  0.39272421  1
  Nb  Nb148  1  0.40650418  0.60869268  0.60052473  1
  Nb  Nb149  1  0.20054617  0.39820131  0.39399707  1
  Pd  Pd150  1  0.59390383  -0.00038514  -0.00458212  1
  Pd  Pd151  1  0.19567835  0.80890686  0.20797109  1
  Pd  Pd152  1  0.00397931  0.40847832  0.00618816  1
  Pd  Pd153  1  0.40990929  0.81159631  0.40650587  1
  Pd  Pd154  1  0.80191198  0.20446226  -0.00344854  1
  Pd  Pd155  1  0.39865037  0.79870105  0.59410420  1
  Pd  Pd156  1  0.59401259  0.59307617  0.59855279  1
  Pd  Pd157  1  0.00354122  0.79773452  0.21098675  1
  Pd  Pd158  1  0.81248446  0.39720433  0.59320836  1
  Pd  Pd159  1  0.80666145  0.79220525  -0.00850747  1
  Pd  Pd160  1  0.19886365  0.20142502  0.20269263  1
  Pd  Pd161  1  0.39898187  -0.00378546  0.40589792  1
  Pd  Pd162  1  0.60387537  0.00246357  0.39774190  1
  Pd  Pd163  1  0.41368275  0.61191058  0.19984772  1
  Pd  Pd164  1  -0.01004256  0.00166312  0.40719147  1
  Pd  Pd165  1  0.60368989  0.59333630  0.80428752  1
  Pd  Pd166  1  0.39246759  0.59480005  0.41143874  1
  Pd  Pd167  1  0.59772027  -0.00347421  0.80268394  1
  Pd  Pd168  1  0.01238793  0.60971352  0.39650963  1
  Pd  Pd169  1  0.60071147  0.19868740  0.60365665  1
  Pd  Pd170  1  0.79959678  0.79827016  0.19815783  1
  Pd  Pd171  1  0.79507108  0.19628934  0.39567125  1
  Pd  Pd172  1  0.80255442  0.00373773  0.00672072  1
  Pd  Pd173  1  0.60819332  0.58778360  0.40083932  1
  Pd  Pd174  1  0.61253317  0.20731216  0.79750206  1
  Pd  Pd175  1  0.60214963  0.60215372  0.00774305  1
  Pd  Pd176  1  0.81186249  0.39004139  0.20261405  1
  Pd  Pd177  1  0.00536940  0.40761505  0.78694335  1
  Pd  Pd178  1  -0.00758988  0.19531481  -0.00440329  1
  Pd  Pd179  1  0.00307591  0.19134846  0.41048529  1
  Pd  Pd180  1  0.39625820  0.39473224  0.80251526  1
  Pd  Pd181  1  0.19138343  0.39188213  0.59985859  1
  Pd  Pd182  1  0.59519160  0.40065711  -0.00180580  1
  Pd  Pd183  1  0.00680904  0.58835895  -0.00577884  1
  Pd  Pd184  1  0.61178282  0.40619950  0.40472089  1
  Pd  Pd185  1  0.38836329  0.61082595  -0.00816125  1
  Pd  Pd186  1  0.60658023  -0.00541726  0.20150139  1
  Pd  Pd187  1  0.79695176  0.59978061  -0.00506436  1
  Pd  Pd188  1  0.00016548  0.39239639  0.18968936  1
  Pd  Pd189  1  0.59007225  0.81373321  0.39637673  1
  Pd  Pd190  1  0.19742581  0.79326392  0.60265085  1
  Pd  Pd191  1  0.00297910  0.59255391  0.61094059  1
  Pd  Pd192  1  0.81163476  0.81180166  0.41317095  1
  Pd  Pd193  1  0.79646527  0.58975476  0.40322677  1
  Pd  Pd194  1  0.39323067  0.79959284  0.00030904  1
  Pd  Pd195  1  0.40179641  0.00263863  0.60125635  1
  Pd  Pd196  1  0.18529727  0.41325807  0.01209543  1
  Pd  Pd197  1  0.39179801  0.80522467  0.79520599  1
  Pd  Pd198  1  0.20017095  0.00712652  0.00419671  1
  Pd  Pd199  1  0.61034731  0.80044551  0.60575093  1
  Rh  Rh200  1  0.79137078  -0.00526534  0.58538889  1
  Rh  Rh201  1  0.20397329  0.59949292  0.80821825  1
  Rh  Rh202  1  0.61235407  0.80674727  0.79325255  1
  Rh  Rh203  1  0.40644816  0.39787589  0.60811415  1
  Rh  Rh204  1  0.40751602  0.20305028  0.19006751  1
  Rh  Rh205  1  -0.00402197  0.20984650  0.19016551  1
  Rh  Rh206  1  0.39828348  0.60264744  0.79699167  1
  Rh  Rh207  1  0.20768125  0.20394292  0.59540276  1
  Rh  Rh208  1  0.59673266  0.40141564  0.59604209  1
  Rh  Rh209  1  0.60267573  0.19991651  0.39936128  1
  Rh  Rh210  1  0.41339960  0.79604793  0.20966507  1
  Rh  Rh211  1  0.00446524  0.59692622  0.79617114  1
  Rh  Rh212  1  0.39590424  0.19629011  0.40880827  1
  Rh  Rh213  1  0.19757234  0.20326112  0.79537525  1
  Rh  Rh214  1  -0.00242853  0.79064937  0.59898369  1
  Rh  Rh215  1  0.80057951  0.39880665  -0.00072567  1
  Rh  Rh216  1  0.40534458  0.38859654  -0.00873484  1
  Rh  Rh217  1  0.60386947  0.40368144  0.80809778  1
  Rh  Rh218  1  0.59441061  0.19908037  -0.00053621  1
  Rh  Rh219  1  0.59394592  0.40568090  0.19882461  1
  Rh  Rh220  1  0.40060847  0.19835443  0.79575560  1
  Rh  Rh221  1  0.19090542  0.00188986  0.60263919  1
  Rh  Rh222  1  0.19493284  0.80389124  0.78463788  1
  Rh  Rh223  1  0.39635706  0.40563232  0.39546390  1
  Rh  Rh224  1  0.40312897  0.39443883  0.20147015  1
  Rh  Rh225  1  -0.00170223  0.39508539  0.41504418  1
  Rh  Rh226  1  0.80412500  0.60798920  0.20331764  1
  Rh  Rh227  1  -0.00638367  0.60696666  0.20905501  1
  Rh  Rh228  1  0.59536029  0.20635064  0.19971590  1
  Rh  Rh229  1  0.79066072  0.60119987  0.80346149  1
  Rh  Rh230  1  0.20707199  0.19792669  0.00401557  1
  Rh  Rh231  1  0.59817253  0.00361043  0.59786182  1
  Rh  Rh232  1  0.79272141  0.20643015  0.61160631  1
  Rh  Rh233  1  0.00046211  -0.01501076  0.18572990  1
  Rh  Rh234  1  0.79250903  0.39407358  0.80849190  1
  Rh  Rh235  1  0.21004517  0.78624836  0.00400487  1
  Rh  Rh236  1  0.00587056  0.01252339  0.60298480  1
  Rh  Rh237  1  0.21443737  0.60528621  0.59157259  1
  Rh  Rh238  1  0.20092544  0.59097182  0.19963650  1
  Rh  Rh239  1  0.38959573  -0.00077357  0.19028351  1
  Rh  Rh240  1  0.59821651  0.80169759  0.00687569  1
  Rh  Rh241  1  0.80142964  0.19373558  0.19388870  1
  Rh  Rh242  1  0.20206427  0.01177555  0.39318872  1
  Rh  Rh243  1  -0.00812803  0.80080820  -0.01262396  1
  Rh  Rh244  1  0.18612681  0.78692343  0.40031808  1
  Rh  Rh245  1  -0.01007381  0.19634557  0.80214085  1
  Rh  Rh246  1  0.79979470  0.00840349  0.80261297  1
  Rh  Rh247  1  0.79758148  0.60157087  0.60215414  1
  Rh  Rh248  1  0.19503990  0.39334116  0.79413274  1
  Rh  Rh249  1  -0.00331643  0.20074556  0.60031620  1
