# generated using pymatgen
data_ZrScNbPdRh
_symmetry_space_group_name_H-M   'P 1'
_cell_length_a   16.55744404
_cell_length_b   16.56118288
_cell_length_c   16.55857151
_cell_angle_alpha   90.00381666
_cell_angle_beta   90.01670906
_cell_angle_gamma   89.99021254
_symmetry_Int_Tables_number   1
_chemical_formula_structural   ZrScNbPdRh
_chemical_formula_sum   'Zr50 Sc50 Nb50 Pd50 Rh50'
_cell_volume   4540.53984193
_cell_formula_units_Z   50
loop_
 _symmetry_equiv_pos_site_id
 _symmetry_equiv_pos_as_xyz
  1  'x, y, z'
loop_
 _atom_site_type_symbol
 _atom_site_label
 _atom_site_symmetry_multiplicity
 _atom_site_fract_x
 _atom_site_fract_y
 _atom_site_fract_z
 _atom_site_occupancy
  Zr  Zr0  1  0.69587711  0.09339445  0.30344922  1
  Zr  Zr1  1  0.50281259  0.89424545  0.49969662  1
  Zr  Zr2  1  0.89854547  0.30047067  0.29785163  1
  Zr  Zr3  1  0.30372552  0.70103886  0.70503682  1
  Zr  Zr4  1  0.10152907  0.50027697  0.89486204  1
  Zr  Zr5  1  0.30910710  0.89802056  0.30012809  1
  Zr  Zr6  1  0.09987971  0.09353798  0.50340078  1
  Zr  Zr7  1  0.09995154  0.10272079  0.09561623  1
  Zr  Zr8  1  0.50880997  0.49802675  0.29804389  1
  Zr  Zr9  1  0.89114057  0.89701330  0.89855260  1
  Zr  Zr10  1  0.90979671  0.08556463  0.29230881  1
  Zr  Zr11  1  0.89917235  0.50134309  0.49974442  1
  Zr  Zr12  1  0.10405085  0.31195430  0.49159799  1
  Zr  Zr13  1  0.30382849  0.10170440  0.49661075  1
  Zr  Zr14  1  0.09410647  0.30256356  0.90461191  1
  Zr  Zr15  1  0.70688057  0.10443678  0.69588955  1
  Zr  Zr16  1  0.89865641  0.69852997  0.89877478  1
  Zr  Zr17  1  0.10757671  0.49327470  0.30542036  1
  Zr  Zr18  1  0.49713469  0.50026223  0.49490701  1
  Zr  Zr19  1  0.51065120  0.09727255  0.69197183  1
  Zr  Zr20  1  0.30096933  0.68752455  0.90229351  1
  Zr  Zr21  1  0.89921480  0.10358357  0.69996550  1
  Zr  Zr22  1  0.70152835  0.50467137  0.29274411  1
  Zr  Zr23  1  0.69938631  0.30287229  0.70643261  1
  Zr  Zr24  1  0.69958074  0.71345508  0.90641882  1
  Zr  Zr25  1  0.08872552  0.90198927  0.29207867  1
  Zr  Zr26  1  0.10136720  0.50013825  0.50227993  1
  Zr  Zr27  1  0.69951845  0.90438810  0.09248682  1
  Zr  Zr28  1  0.49843618  0.89474076  0.69737507  1
  Zr  Zr29  1  0.50524916  0.70523053  0.29057666  1
  Zr  Zr30  1  0.30199897  0.29951372  0.48754687  1
  Zr  Zr31  1  0.10218328  0.70089386  0.09919661  1
  Zr  Zr32  1  0.89236161  0.10251676  0.89068654  1
  Zr  Zr33  1  0.30359407  0.70093604  0.29157107  1
  Zr  Zr34  1  0.89638681  0.09600328  0.09520797  1
  Zr  Zr35  1  0.50184398  0.10026847  0.08849591  1
  Zr  Zr36  1  0.30630862  0.10634135  0.29826126  1
  Zr  Zr37  1  0.89230708  0.69642820  0.29948496  1
  Zr  Zr38  1  0.09745033  0.70065282  0.50695782  1
  Zr  Zr39  1  0.29268197  0.49923016  0.49231211  1
  Zr  Zr40  1  0.88891736  0.49782338  0.70512958  1
  Zr  Zr41  1  0.09494465  0.49941482  0.09879373  1
  Zr  Zr42  1  0.89468736  0.70534013  0.50404719  1
  Zr  Zr43  1  0.89874502  0.30222756  0.89434227  1
  Zr  Zr44  1  0.89457956  0.09387450  0.50265977  1
  Zr  Zr45  1  0.69853350  0.09528621  0.50315183  1
  Zr  Zr46  1  0.30096001  0.30267191  0.70587808  1
  Zr  Zr47  1  0.90962916  0.29388251  0.09255190  1
  Zr  Zr48  1  0.70057053  0.69271289  0.70093459  1
  Zr  Zr49  1  0.09650797  0.70198748  0.69946772  1
  Sc  Sc50  1  0.69633679  0.90213260  0.70301099  1
  Sc  Sc51  1  0.31623482  0.50498514  0.10432865  1
  Sc  Sc52  1  0.51244399  0.89505377  0.90071279  1
  Sc  Sc53  1  0.29270562  0.50207277  0.71332372  1
  Sc  Sc54  1  0.30957119  0.09787819  0.09512291  1
  Sc  Sc55  1  0.50187641  0.30359704  0.90874602  1
  Sc  Sc56  1  0.69867693  0.49430138  0.90829366  1
  Sc  Sc57  1  0.89763564  0.30678621  0.50276811  1
  Sc  Sc58  1  0.69436469  0.30978768  0.30129999  1
  Sc  Sc59  1  0.69479200  0.50492206  0.49435694  1
  Sc  Sc60  1  0.49779143  0.50995734  0.69808948  1
  Sc  Sc61  1  0.69250813  0.89616952  0.30306497  1
  Sc  Sc62  1  0.89226660  0.50303697  0.10178710  1
  Sc  Sc63  1  0.88994851  0.29736256  0.70529633  1
  Sc  Sc64  1  0.49531111  0.49798743  0.91275775  1
  Sc  Sc65  1  0.49711638  0.09845976  0.29680854  1
  Sc  Sc66  1  0.50152239  0.30276586  0.71505007  1
  Sc  Sc67  1  0.50298786  0.89994360  0.30048247  1
  Sc  Sc68  1  0.29897651  0.09634809  0.70524788  1
  Sc  Sc69  1  0.10191672  0.89024589  0.09216962  1
  Sc  Sc70  1  0.49395295  0.70450915  0.69960136  1
  Sc  Sc71  1  0.51361843  0.10758913  0.49110542  1
  Sc  Sc72  1  0.09346556  0.31193449  0.70830134  1
  Sc  Sc73  1  0.90907424  0.89908815  0.10158770  1
  Sc  Sc74  1  0.69368022  0.28715767  0.50177488  1
  Sc  Sc75  1  0.50180594  0.69687847  0.50955469  1
  Sc  Sc76  1  0.90833414  0.69628326  0.09825307  1
  Sc  Sc77  1  0.90634741  0.50120953  0.90476700  1
  Sc  Sc78  1  0.09753232  0.89538717  0.50912464  1
  Sc  Sc79  1  0.09956257  0.91246300  0.69750441  1
  Sc  Sc80  1  0.30185265  0.89706595  0.70070217  1
  Sc  Sc81  1  0.69059738  0.69841385  0.10045903  1
  Sc  Sc82  1  0.69923635  0.70110732  0.30419280  1
  Sc  Sc83  1  0.88779360  0.50071465  0.29891039  1
  Sc  Sc84  1  0.29744924  0.70555497  0.49971379  1
  Sc  Sc85  1  0.89317973  0.90387396  0.69837137  1
  Sc  Sc86  1  0.89395780  0.90181273  0.50244968  1
  Sc  Sc87  1  0.09630826  0.50341887  0.70462030  1
  Sc  Sc88  1  0.10371896  0.70011242  0.28953692  1
  Sc  Sc89  1  0.29541535  0.90941282  0.90713543  1
  Sc  Sc90  1  0.50067106  0.90253561  0.10449280  1
  Sc  Sc91  1  0.89466616  0.69858081  0.70060307  1
  Sc  Sc92  1  0.30691441  0.50139075  0.29844468  1
  Sc  Sc93  1  0.31081119  0.30459709  0.89889085  1
  Sc  Sc94  1  0.70031933  0.70501541  0.49765438  1
  Sc  Sc95  1  0.09735926  0.69163361  0.90987706  1
  Sc  Sc96  1  0.10502152  0.29274313  0.10143505  1
  Sc  Sc97  1  0.69667196  0.30601515  0.89969030  1
  Sc  Sc98  1  0.30036666  0.09515658  0.90740855  1
  Sc  Sc99  1  0.69729820  0.30735474  0.08931295  1
  Nb  Nb100  1  0.10559777  0.09239520  0.89018881  1
  Nb  Nb101  1  0.50154320  0.09838227  0.90204304  1
  Nb  Nb102  1  0.69174186  0.50377549  0.10437407  1
  Nb  Nb103  1  0.30403137  0.29426465  0.28855883  1
  Nb  Nb104  1  0.70516518  0.90116312  0.90110658  1
  Nb  Nb105  1  0.30851255  0.30286636  0.10516402  1
  Nb  Nb106  1  0.50342082  0.69839488  0.90743870  1
  Nb  Nb107  1  0.51097953  0.50699502  0.09970538  1
  Nb  Nb108  1  0.50014214  0.69260228  0.09220922  1
  Nb  Nb109  1  0.30182746  0.90330697  0.49645213  1
  Nb  Nb110  1  0.70043322  0.90395776  0.49100990  1
  Nb  Nb111  1  0.49487511  0.30154234  0.10038501  1
  Nb  Nb112  1  0.89793950  0.89662360  0.29816834  1
  Nb  Nb113  1  0.09836114  0.10286897  0.70314929  1
  Nb  Nb114  1  0.29512590  0.49708085  0.90479757  1
  Nb  Nb115  1  0.69513652  0.09019275  0.91343872  1
  Nb  Nb116  1  0.10082735  0.09923133  0.29524718  1
  Nb  Nb117  1  0.30528810  0.70503045  0.10231890  1
  Nb  Nb118  1  0.30159119  0.90477486  0.09885934  1
  Nb  Nb119  1  0.49846996  0.29463306  0.30332409  1
  Nb  Nb120  1  0.69064172  0.49610306  0.70575726  1
  Nb  Nb121  1  0.10395204  0.29186871  0.29452229  1
  Nb  Nb122  1  0.69762518  0.10128420  0.09614224  1
  Nb  Nb123  1  0.50323487  0.30058935  0.49565911  1
  Nb  Nb124  1  0.10171722  0.90401586  0.89739595  1
  Nb  Nb125  1  0.19499560  0.19829596  0.80058768  1
  Nb  Nb126  1  0.20027483  -0.00235401  0.39400348  1
  Nb  Nb127  1  -0.00509034  0.79581518  0.39774986  1
  Nb  Nb128  1  0.60028687  0.20165736  0.19248796  1
  Nb  Nb129  1  0.00432305  0.80371220  0.80355082  1
  Nb  Nb130  1  0.79353850  0.19566979  0.19806079  1
  Nb  Nb131  1  0.40192882  0.39651116  0.59567299  1
  Nb  Nb132  1  0.19433118  0.80048016  0.80571883  1
  Nb  Nb133  1  0.80546313  0.19392614  0.39239696  1
  Nb  Nb134  1  0.40113900  0.20392006  0.59834326  1
  Nb  Nb135  1  0.39948770  0.79316983  0.00404485  1
  Nb  Nb136  1  0.59314511  0.40114907  0.59924227  1
  Nb  Nb137  1  0.00332393  0.39480051  0.20338864  1
  Nb  Nb138  1  0.19775722  0.20298708  0.60465028  1
  Nb  Nb139  1  0.00007640  0.60318172  0.40192811  1
  Nb  Nb140  1  0.80117072  0.80254706  0.20143891  1
  Nb  Nb141  1  0.20211812  0.00024661  0.20132240  1
  Nb  Nb142  1  0.00402110  0.00064009  -0.01218912  1
  Nb  Nb143  1  0.40351248  0.00163277  0.59703131  1
  Nb  Nb144  1  0.59916944  0.60327492  0.80776613  1
  Nb  Nb145  1  0.20886986  0.40069367  0.00412279  1
  Nb  Nb146  1  0.60011922  0.18748997  0.81056496  1
  Nb  Nb147  1  0.00285105  0.19759870  0.39732446  1
  Nb  Nb148  1  0.00705825  0.20063407  0.59786025  1
  Nb  Nb149  1  0.41093899  0.00145652  0.79971744  1
  Pd  Pd150  1  0.80338403  0.39169869  0.18818473  1
  Pd  Pd151  1  0.19092527  0.80521606  0.39659836  1
  Pd  Pd152  1  0.20641997  0.59751755  0.60679233  1
  Pd  Pd153  1  0.40778673  0.80299285  0.19205352  1
  Pd  Pd154  1  0.20066770  0.40033768  0.19574102  1
  Pd  Pd155  1  -0.00617205  0.59717491  0.60245759  1
  Pd  Pd156  1  0.79436934  0.60142609  0.00370864  1
  Pd  Pd157  1  0.60886453  0.79994969  0.60021010  1
  Pd  Pd158  1  0.78562300  0.40044542  0.59489288  1
  Pd  Pd159  1  0.00117125  0.18864015  -0.01349068  1
  Pd  Pd160  1  0.00386247  -0.00710457  0.40718867  1
  Pd  Pd161  1  0.20979082  0.20631957  -0.00685194  1
  Pd  Pd162  1  -0.00327502  0.40210773  0.39157731  1
  Pd  Pd163  1  0.40862066  0.59373911  0.80731443  1
  Pd  Pd164  1  0.40285024  0.60949914  0.39710375  1
  Pd  Pd165  1  -0.00548010  -0.00635217  0.79885009  1
  Pd  Pd166  1  0.60298037  0.00151253  0.80251518  1
  Pd  Pd167  1  0.40585106  0.00256388  0.40419360  1
  Pd  Pd168  1  0.79304579  0.20325429  -0.00165974  1
  Pd  Pd169  1  0.79022201  0.59391348  0.81083560  1
  Pd  Pd170  1  0.79114804  0.59429173  0.59614609  1
  Pd  Pd171  1  0.39221934  0.80847434  0.81716668  1
  Pd  Pd172  1  0.80363511  0.40302864  0.00262458  1
  Pd  Pd173  1  -0.00450476  0.39667034  0.60829324  1
  Pd  Pd174  1  0.40557237  0.79053919  0.40455461  1
  Pd  Pd175  1  0.79491813  -0.00579462  0.19982484  1
  Pd  Pd176  1  0.39666759  0.20365073  -0.00292788  1
  Pd  Pd177  1  0.20509325  0.59140555  0.01158471  1
  Pd  Pd178  1  0.40722548  0.41207188  0.79873405  1
  Pd  Pd179  1  0.19354850  0.19580414  0.40070141  1
  Pd  Pd180  1  0.60254272  0.79376201  0.79706213  1
  Pd  Pd181  1  0.20790185  0.19249854  0.19122071  1
  Pd  Pd182  1  0.59657341  0.39250617  0.19406207  1
  Pd  Pd183  1  0.59657117  0.00453281  0.19761784  1
  Pd  Pd184  1  0.20578820  0.39948977  0.60632003  1
  Pd  Pd185  1  0.59885233  0.60749649  0.39978294  1
  Pd  Pd186  1  0.20751877  0.79817070  -0.00650715  1
  Pd  Pd187  1  0.78897969  0.39432538  0.40768285  1
  Pd  Pd188  1  0.20615486  0.59439191  0.19484963  1
  Pd  Pd189  1  0.20174370  0.80840002  0.19897316  1
  Pd  Pd190  1  0.19592448  0.61074088  0.39635820  1
  Pd  Pd191  1  0.40977144  0.40285455  0.20093439  1
  Pd  Pd192  1  0.80599875  0.79778567  0.01418818  1
  Pd  Pd193  1  0.40215046  0.19016185  0.79950869  1
  Pd  Pd194  1  0.20860514  0.00217057  0.59913452  1
  Pd  Pd195  1  -0.00193208  0.59022988  0.20810287  1
  Pd  Pd196  1  0.20381853  0.80452914  0.60742216  1
  Pd  Pd197  1  0.39948671  0.39833919  0.39275219  1
  Pd  Pd198  1  0.38873961  0.59334096  0.59921933  1
  Pd  Pd199  1  0.79236548  0.80648266  0.60513604  1
  Rh  Rh200  1  0.40984711  0.19989395  0.19609008  1
  Rh  Rh201  1  0.59496608  0.40676269  0.79969744  1
  Rh  Rh202  1  0.21308775  0.39333680  0.38234339  1
  Rh  Rh203  1  0.39707322  0.00070130  0.19702812  1
  Rh  Rh204  1  0.59330807  0.80538531  0.00741946  1
  Rh  Rh205  1  0.79019073  0.00205428  0.80017358  1
  Rh  Rh206  1  -0.00213233  0.80399447  -0.01063475  1
  Rh  Rh207  1  0.59505338  -0.00385771  0.40152950  1
  Rh  Rh208  1  0.80154382  0.59928810  0.40545666  1
  Rh  Rh209  1  0.39839890  0.40261180  0.00882757  1
  Rh  Rh210  1  0.40989601  -0.01240090  -0.00747154  1
  Rh  Rh211  1  0.80002472  0.40561845  0.80840054  1
  Rh  Rh212  1  0.59507160  0.40235090  0.00548947  1
  Rh  Rh213  1  0.19230843  0.00021702  0.00981104  1
  Rh  Rh214  1  0.60495470  0.79977609  0.19484781  1
  Rh  Rh215  1  0.19517639  0.60795987  0.79869447  1
  Rh  Rh216  1  0.19991638  0.39289376  0.81297414  1
  Rh  Rh217  1  -0.00788742  0.79479384  0.20417924  1
  Rh  Rh218  1  0.60587300  0.59667741  -0.00595507  1
  Rh  Rh219  1  -0.00263150  0.60606074  0.79782497  1
  Rh  Rh220  1  0.59051800  0.21708792  0.61356083  1
  Rh  Rh221  1  0.39297848  0.80430897  0.59254525  1
  Rh  Rh222  1  -0.00953774  0.40433571  0.79742258  1
  Rh  Rh223  1  0.60656603  0.20365255  0.38666541  1
  Rh  Rh224  1  0.60040332  0.20515735  -0.00086435  1
  Rh  Rh225  1  0.78373862  0.19763235  0.81151167  1
  Rh  Rh226  1  0.20992665  -0.00035132  0.79728882  1
  Rh  Rh227  1  0.81067482  0.20475301  0.59031757  1
  Rh  Rh228  1  -0.00574805  0.20285834  0.20601835  1
  Rh  Rh229  1  0.79206581  -0.00616683  0.60186865  1
  Rh  Rh230  1  -0.00551128  0.00322209  0.60532742  1
  Rh  Rh231  1  0.60051914  -0.00931963  0.59193756  1
  Rh  Rh232  1  0.00699466  0.20381008  0.79694488  1
  Rh  Rh233  1  0.60173817  0.39921308  0.40483883  1
  Rh  Rh234  1  -0.00154377  0.59728949  0.00169534  1
  Rh  Rh235  1  0.79138009  0.60972073  0.19312463  1
  Rh  Rh236  1  0.80181856  0.80707955  0.39457729  1
  Rh  Rh237  1  0.39949170  0.60061614  0.00260645  1
  Rh  Rh238  1  0.60296199  0.59585083  0.60755830  1
  Rh  Rh239  1  0.59791589  0.79694308  0.40277888  1
  Rh  Rh240  1  0.40660792  0.20190042  0.39948492  1
  Rh  Rh241  1  0.59628274  -0.00758511  -0.00023657  1
  Rh  Rh242  1  -0.00534903  0.80635777  0.60401655  1
  Rh  Rh243  1  0.60054030  0.60457649  0.20101211  1
  Rh  Rh244  1  0.40815509  0.60168327  0.20213458  1
  Rh  Rh245  1  0.01056325  -0.00334311  0.18240889  1
  Rh  Rh246  1  0.79809141  -0.00134188  0.39623668  1
  Rh  Rh247  1  0.80156853  0.80110152  0.79467137  1
  Rh  Rh248  1  0.00393008  0.40211483  0.00767245  1
  Rh  Rh249  1  0.80627468  -0.00261504  -0.00079105  1
