# generated using pymatgen
data_ZrScNbPdRh
_symmetry_space_group_name_H-M   'P 1'
_cell_length_a   16.55994266
_cell_length_b   16.55407404
_cell_length_c   16.55682351
_cell_angle_alpha   89.98375925
_cell_angle_beta   90.00877101
_cell_angle_gamma   90.01732580
_symmetry_Int_Tables_number   1
_chemical_formula_structural   ZrScNbPdRh
_chemical_formula_sum   'Zr50 Sc50 Nb50 Pd50 Rh50'
_cell_volume   4538.79637006
_cell_formula_units_Z   50
loop_
 _symmetry_equiv_pos_site_id
 _symmetry_equiv_pos_as_xyz
  1  'x, y, z'
loop_
 _atom_site_type_symbol
 _atom_site_label
 _atom_site_symmetry_multiplicity
 _atom_site_fract_x
 _atom_site_fract_y
 _atom_site_fract_z
 _atom_site_occupancy
  Zr  Zr0  1  0.50582477  0.10231078  0.90188536  1
  Zr  Zr1  1  0.30756742  0.49635000  0.10298058  1
  Zr  Zr2  1  0.50423460  0.09991068  0.49744836  1
  Zr  Zr3  1  0.09286288  0.29745900  0.30216815  1
  Zr  Zr4  1  0.88754984  0.69147391  0.90696245  1
  Zr  Zr5  1  0.89587693  0.10236516  0.89230886  1
  Zr  Zr6  1  0.30868793  0.10237673  0.51170716  1
  Zr  Zr7  1  0.89100090  0.28799871  0.49369048  1
  Zr  Zr8  1  0.51627112  0.30326686  0.70052205  1
  Zr  Zr9  1  0.89679859  0.30555455  0.10294013  1
  Zr  Zr10  1  0.09393123  0.50328011  0.09446747  1
  Zr  Zr11  1  0.50665530  0.50167052  0.29843829  1
  Zr  Zr12  1  0.29927706  0.69933003  0.70679793  1
  Zr  Zr13  1  0.29760837  0.89936100  0.49946152  1
  Zr  Zr14  1  0.29134473  0.70505473  0.51408807  1
  Zr  Zr15  1  0.10014727  0.91201093  0.29964595  1
  Zr  Zr16  1  0.90920086  0.10284016  0.09059063  1
  Zr  Zr17  1  0.09700401  0.89879957  0.89790429  1
  Zr  Zr18  1  0.30370837  0.50190043  0.50744769  1
  Zr  Zr19  1  0.10126030  0.70106401  0.69685544  1
  Zr  Zr20  1  0.11069597  0.69911726  0.90379568  1
  Zr  Zr21  1  0.70733883  0.10595457  0.50239944  1
  Zr  Zr22  1  0.69866664  0.50248934  0.69817687  1
  Zr  Zr23  1  0.08876221  0.70358603  0.30270191  1
  Zr  Zr24  1  0.69644556  0.29859482  0.50026818  1
  Zr  Zr25  1  0.30070593  0.89669534  0.29466782  1
  Zr  Zr26  1  0.30230331  0.90056428  0.09745831  1
  Zr  Zr27  1  0.89853763  0.71317631  0.29898006  1
  Zr  Zr28  1  0.50297521  0.30001921  0.09909692  1
  Zr  Zr29  1  0.49905882  0.90289044  0.29641660  1
  Zr  Zr30  1  0.90223022  0.29355793  0.29906442  1
  Zr  Zr31  1  0.29405818  0.50055630  0.70476644  1
  Zr  Zr32  1  0.49621393  0.49990175  0.69838599  1
  Zr  Zr33  1  0.29953377  0.70271245  0.29973593  1
  Zr  Zr34  1  0.89821646  0.89700613  0.69656852  1
  Zr  Zr35  1  0.69131366  0.28394272  0.88769183  1
  Zr  Zr36  1  0.49809509  0.70315743  0.90479655  1
  Zr  Zr37  1  0.70170842  0.50954286  0.48884411  1
  Zr  Zr38  1  0.09698278  0.29899011  0.49870435  1
  Zr  Zr39  1  0.09079562  0.48755179  0.70692327  1
  Zr  Zr40  1  0.30866381  0.89550901  0.69710119  1
  Zr  Zr41  1  0.70694270  0.30501766  0.29633053  1
  Zr  Zr42  1  0.90479322  0.30110678  0.70257702  1
  Zr  Zr43  1  0.30068987  0.28730136  0.90377872  1
  Zr  Zr44  1  0.50528549  0.69888369  0.09285942  1
  Zr  Zr45  1  0.10126871  0.48877548  0.29898209  1
  Zr  Zr46  1  0.89521898  0.29961948  0.90482739  1
  Zr  Zr47  1  0.50120779  0.50551482  0.90817400  1
  Zr  Zr48  1  0.10799593  0.29402370  0.10556631  1
  Zr  Zr49  1  0.50073509  0.29567534  0.50591521  1
  Sc  Sc50  1  0.70429297  0.89198470  0.30423424  1
  Sc  Sc51  1  0.30535879  0.70651745  0.08894532  1
  Sc  Sc52  1  0.30252871  0.29663584  0.10082295  1
  Sc  Sc53  1  0.69278490  0.10637131  0.10008280  1
  Sc  Sc54  1  0.29184757  0.29018145  0.70431311  1
  Sc  Sc55  1  0.50882140  0.90609935  0.50345080  1
  Sc  Sc56  1  0.50817505  0.70201463  0.29156483  1
  Sc  Sc57  1  0.89825390  0.69262008  0.69422786  1
  Sc  Sc58  1  0.70463164  0.90006962  0.49944484  1
  Sc  Sc59  1  0.49298713  0.09309548  0.69662983  1
  Sc  Sc60  1  0.90379491  0.90503223  0.89584926  1
  Sc  Sc61  1  0.29736831  0.51219624  0.89792680  1
  Sc  Sc62  1  0.09269931  0.10137241  0.70509616  1
  Sc  Sc63  1  0.50700422  0.09223881  0.09853810  1
  Sc  Sc64  1  0.49832455  0.89845609  0.09883181  1
  Sc  Sc65  1  0.29628670  0.29652944  0.51042093  1
  Sc  Sc66  1  0.09839312  0.30134122  0.88434534  1
  Sc  Sc67  1  0.49995407  0.50283890  0.10322682  1
  Sc  Sc68  1  0.89627199  0.09375551  0.49560055  1
  Sc  Sc69  1  0.70366617  0.29985015  0.10432813  1
  Sc  Sc70  1  0.69877897  0.70006309  0.30795885  1
  Sc  Sc71  1  0.89703727  0.09323026  0.69881436  1
  Sc  Sc72  1  0.29468748  0.08144062  0.29926842  1
  Sc  Sc73  1  0.69475774  0.70082548  0.91261040  1
  Sc  Sc74  1  0.69688837  0.89641789  0.09562606  1
  Sc  Sc75  1  0.30168397  0.49714423  0.29426302  1
  Sc  Sc76  1  0.89388021  0.89132679  0.09848811  1
  Sc  Sc77  1  0.70737210  0.70849351  0.49480343  1
  Sc  Sc78  1  0.51678627  0.30624515  0.29695052  1
  Sc  Sc79  1  0.90051966  0.49587930  0.09050680  1
  Sc  Sc80  1  0.89341784  0.89910951  0.50481694  1
  Sc  Sc81  1  0.50899984  0.90252150  0.70406737  1
  Sc  Sc82  1  0.09489816  0.89510813  0.50630223  1
  Sc  Sc83  1  0.09784713  0.90587888  0.09619696  1
  Sc  Sc84  1  0.50712193  0.90774134  0.90557245  1
  Sc  Sc85  1  0.49622418  0.71200058  0.70482761  1
  Sc  Sc86  1  0.50443216  0.49465474  0.50518609  1
  Sc  Sc87  1  0.70529116  0.49487556  0.09813527  1
  Sc  Sc88  1  0.70713522  0.70801647  0.09487577  1
  Sc  Sc89  1  0.69802899  0.90193943  0.69858722  1
  Sc  Sc90  1  0.69934785  0.49861968  0.29833308  1
  Sc  Sc91  1  0.90068440  0.50057761  0.90266423  1
  Sc  Sc92  1  0.09274024  0.49701065  0.50274370  1
  Sc  Sc93  1  0.29717979  0.10509276  0.09456271  1
  Sc  Sc94  1  0.90004725  0.49486412  0.30275785  1
  Sc  Sc95  1  0.08747043  0.10333929  0.90378088  1
  Sc  Sc96  1  0.28783737  0.31041789  0.28905964  1
  Sc  Sc97  1  0.08382259  0.89893336  0.69926343  1
  Sc  Sc98  1  0.10119460  0.50297336  0.89457076  1
  Sc  Sc99  1  0.69569254  0.10259702  0.30027448  1
  Nb  Nb100  1  0.29596569  0.89526553  0.90652161  1
  Nb  Nb101  1  0.89236154  0.51329374  0.50836720  1
  Nb  Nb102  1  0.09331654  0.69800781  0.10168174  1
  Nb  Nb103  1  0.29734750  0.71249412  0.89938603  1
  Nb  Nb104  1  0.30375911  0.09660740  0.89664366  1
  Nb  Nb105  1  0.70536838  0.50334643  0.90124892  1
  Nb  Nb106  1  0.09836278  0.09870286  0.50104828  1
  Nb  Nb107  1  0.70612588  0.10791878  0.71510950  1
  Nb  Nb108  1  0.30153368  0.09390050  0.70302162  1
  Nb  Nb109  1  0.70442184  0.30073765  0.69481932  1
  Nb  Nb110  1  0.69728303  0.70436684  0.70639012  1
  Nb  Nb111  1  0.90357363  0.69621940  0.49579402  1
  Nb  Nb112  1  0.89446950  0.50015133  0.70161887  1
  Nb  Nb113  1  0.69953030  0.09248594  0.89462777  1
  Nb  Nb114  1  0.10387463  0.09792428  0.09954587  1
  Nb  Nb115  1  0.70034881  0.90114849  0.89756507  1
  Nb  Nb116  1  0.09502284  0.30217312  0.69862479  1
  Nb  Nb117  1  0.09344260  0.09823103  0.29956641  1
  Nb  Nb118  1  0.49984254  0.29886488  0.89950696  1
  Nb  Nb119  1  0.09651090  0.70172158  0.49985697  1
  Nb  Nb120  1  0.89448587  0.90805751  0.30049957  1
  Nb  Nb121  1  0.90176595  0.69953469  0.10157415  1
  Nb  Nb122  1  0.49914187  0.09973058  0.29953437  1
  Nb  Nb123  1  0.50645932  0.69996101  0.49197231  1
  Nb  Nb124  1  0.90541427  0.09365730  0.30178530  1
  Nb  Nb125  1  0.60304413  0.60301481  0.79927150  1
  Nb  Nb126  1  0.40358674  0.79557070  0.40267716  1
  Nb  Nb127  1  0.60117111  0.60939546  0.60263211  1
  Nb  Nb128  1  0.19275882  0.79661328  0.19633339  1
  Nb  Nb129  1  0.39698886  0.20274205  0.39038486  1
  Nb  Nb130  1  0.80167144  0.40445691  0.60095039  1
  Nb  Nb131  1  0.19773433  0.19224346  0.39814896  1
  Nb  Nb132  1  0.79426709  0.79670611  0.80043806  1
  Nb  Nb133  1  0.19414570  0.60598886  0.19993280  1
  Nb  Nb134  1  0.20701264  0.00100028  0.80121776  1
  Nb  Nb135  1  0.79694985  0.00396195  -0.00185109  1
  Nb  Nb136  1  0.20160731  0.00325132  -0.00842584  1
  Nb  Nb137  1  0.40509355  0.19592397  0.21081409  1
  Nb  Nb138  1  0.20157277  0.00327481  0.60732507  1
  Nb  Nb139  1  0.20213779  0.39710799  -0.00229067  1
  Nb  Nb140  1  0.39838628  0.60170310  0.40404900  1
  Nb  Nb141  1  0.00054762  0.79090998  0.00154009  1
  Nb  Nb142  1  0.00179146  0.20196661  0.59690756  1
  Nb  Nb143  1  0.80804109  0.60674063  0.19819138  1
  Nb  Nb144  1  0.40363600  0.39494204  0.80591060  1
  Nb  Nb145  1  0.40123606  0.39698842  0.40045902  1
  Nb  Nb146  1  0.80530430  0.00160309  0.19920785  1
  Nb  Nb147  1  0.60120629  0.39583712  -0.00986759  1
  Nb  Nb148  1  0.19807028  0.60278581  0.40081509  1
  Nb  Nb149  1  0.79545621  0.40144842  0.79625171  1
  Pd  Pd150  1  0.79119319  0.19616341  0.00131656  1
  Pd  Pd151  1  0.20892009  0.39898184  0.40741014  1
  Pd  Pd152  1  0.79397831  0.00259279  0.60465014  1
  Pd  Pd153  1  0.79168286  0.60739035  0.59967318  1
  Pd  Pd154  1  0.20654445  0.59615998  0.00736792  1
  Pd  Pd155  1  0.80426098  0.40322037  0.40382811  1
  Pd  Pd156  1  -0.01294456  0.78574710  0.80713014  1
  Pd  Pd157  1  0.40817914  0.20360343  0.79081014  1
  Pd  Pd158  1  0.39356320  0.38850943  0.60844940  1
  Pd  Pd159  1  -0.00601852  0.81254030  0.40567883  1
  Pd  Pd160  1  0.61666101  0.60211295  0.19154868  1
  Pd  Pd161  1  0.19259048  0.19055229  0.80260116  1
  Pd  Pd162  1  0.40712686  0.81167208  0.80930610  1
  Pd  Pd163  1  -0.01241389  0.40464994  0.40980427  1
  Pd  Pd164  1  -0.00048434  0.60315995  0.80299351  1
  Pd  Pd165  1  0.19901937  0.40052189  0.60354464  1
  Pd  Pd166  1  0.59892364  0.20190044  0.39451297  1
  Pd  Pd167  1  0.00526783  0.59972248  0.60345420  1
  Pd  Pd168  1  0.61014777  -0.00471943  0.20191446  1
  Pd  Pd169  1  0.40259034  -0.00260711  0.40445767  1
  Pd  Pd170  1  0.18731399  0.59187718  0.60001970  1
  Pd  Pd171  1  0.39933046  0.00829336  0.19017342  1
  Pd  Pd172  1  -0.00506061  0.59058409  0.20279969  1
  Pd  Pd173  1  0.41254765  0.80296025  0.59354718  1
  Pd  Pd174  1  0.19750529  0.79746194  0.39672684  1
  Pd  Pd175  1  0.80298613  0.18912864  0.20199168  1
  Pd  Pd176  1  0.60265987  0.18770081  0.60927748  1
  Pd  Pd177  1  -0.00092024  0.59440944  0.39894252  1
  Pd  Pd178  1  0.00747360  0.21148714  -0.00048248  1
  Pd  Pd179  1  0.20683150  0.18769939  0.21041453  1
  Pd  Pd180  1  0.01133852  0.39358608  -0.00600817  1
  Pd  Pd181  1  0.19782271  0.00381986  0.41112463  1
  Pd  Pd182  1  0.61025644  0.00750276  0.60590530  1
  Pd  Pd183  1  -0.01214816  0.39701406  0.59018951  1
  Pd  Pd184  1  0.39770476  0.39988761  -0.00661699  1
  Pd  Pd185  1  0.60920862  -0.00343115  0.39669525  1
  Pd  Pd186  1  -0.00628211  -0.00505103  0.19096036  1
  Pd  Pd187  1  0.40735427  0.19112917  0.00910614  1
  Pd  Pd188  1  0.40130642  -0.00829328  0.80793919  1
  Pd  Pd189  1  0.41041145  0.61149168  0.59751124  1
  Pd  Pd190  1  0.19643822  0.80930945  0.79079976  1
  Pd  Pd191  1  0.19102392  0.19242425  0.60178633  1
  Pd  Pd192  1  0.60184272  0.40857748  0.80660142  1
  Pd  Pd193  1  0.60149915  0.79753623  0.59586890  1
  Pd  Pd194  1  0.40359897  0.60013826  0.80414606  1
  Pd  Pd195  1  -0.00271827  -0.00573441  0.40986610  1
  Pd  Pd196  1  0.00256910  0.81335692  0.19466541  1
  Pd  Pd197  1  0.39748665  0.60733993  0.20186403  1
  Pd  Pd198  1  0.00023240  0.19685713  0.19683371  1
  Pd  Pd199  1  0.60650692  0.80046308  0.19884261  1
  Rh  Rh200  1  0.79610880  0.00308372  0.39236962  1
  Rh  Rh201  1  0.59523949  0.59936537  0.40201395  1
  Rh  Rh202  1  0.00349783  0.18969496  0.40369913  1
  Rh  Rh203  1  -0.00423519  0.19921589  0.79321732  1
  Rh  Rh204  1  0.59635768  0.80610531  0.00019015  1
  Rh  Rh205  1  0.60187530  0.00405809  0.79562990  1
  Rh  Rh206  1  0.60231611  0.40386761  0.18665356  1
  Rh  Rh207  1  0.19157932  0.80593295  0.00781099  1
  Rh  Rh208  1  0.19670471  -0.00074766  0.18825995  1
  Rh  Rh209  1  0.78873417  0.39260573  -0.01148410  1
  Rh  Rh210  1  0.59336266  0.80774528  0.39926805  1
  Rh  Rh211  1  0.79783587  -0.01017207  0.80192981  1
  Rh  Rh212  1  0.80451636  0.40872321  0.20113618  1
  Rh  Rh213  1  0.80653649  0.20559434  0.79614202  1
  Rh  Rh214  1  -0.00250561  -0.00638051  0.00091470  1
  Rh  Rh215  1  0.39220111  0.60689695  -0.00206218  1
  Rh  Rh216  1  0.00302692  0.00794435  0.59877316  1
  Rh  Rh217  1  0.40048187  -0.00689049  0.59889948  1
  Rh  Rh218  1  0.80680302  0.80079159  0.40454685  1
  Rh  Rh219  1  0.19780367  0.60351727  0.79729665  1
  Rh  Rh220  1  0.19051347  0.80945618  0.60841272  1
  Rh  Rh221  1  0.79783696  0.59628747  0.01252770  1
  Rh  Rh222  1  0.79367179  0.60175695  0.80183765  1
  Rh  Rh223  1  0.80573349  0.20042040  0.60731079  1
  Rh  Rh224  1  0.61332052  0.40866892  0.58988356  1
  Rh  Rh225  1  0.59114059  0.18904445  0.79270623  1
  Rh  Rh226  1  0.19309166  0.19706833  -0.00761121  1
  Rh  Rh227  1  0.21150815  0.39616590  0.80650232  1
  Rh  Rh228  1  0.79671169  0.80057572  0.20244700  1
  Rh  Rh229  1  0.00110346  0.00410778  0.79818393  1
  Rh  Rh230  1  0.80749081  0.81089868  -0.01114291  1
  Rh  Rh231  1  -0.00282741  0.39963736  0.19641602  1
  Rh  Rh232  1  0.60108845  0.20281255  0.00123273  1
  Rh  Rh233  1  0.79793868  0.19219637  0.38846303  1
  Rh  Rh234  1  0.40660569  0.80478395  -0.00417845  1
  Rh  Rh235  1  0.40877624  0.38877443  0.20940478  1
  Rh  Rh236  1  0.40556620  0.20355795  0.60712562  1
  Rh  Rh237  1  0.59419858  0.20008204  0.20023275  1
  Rh  Rh238  1  0.80301749  0.79478794  0.60435105  1
  Rh  Rh239  1  0.19503063  0.41058140  0.18526450  1
  Rh  Rh240  1  -0.01074679  0.40242606  0.80571281  1
  Rh  Rh241  1  0.60536832  0.79806771  0.80917631  1
  Rh  Rh242  1  0.60966181  -0.00090630  0.00036363  1
  Rh  Rh243  1  -0.00680769  0.79046062  0.59427600  1
  Rh  Rh244  1  0.59681416  0.40090747  0.40497218  1
  Rh  Rh245  1  0.80795264  0.60590165  0.38846025  1
  Rh  Rh246  1  0.39484575  0.00163214  -0.00105568  1
  Rh  Rh247  1  0.40002780  0.79602429  0.20201959  1
  Rh  Rh248  1  -0.00215771  0.60546284  -0.00705696  1
  Rh  Rh249  1  0.60772528  0.59297480  0.00166457  1
