# generated using pymatgen
data_ZrScNbPdRh
_symmetry_space_group_name_H-M   'P 1'
_cell_length_a   16.55587582
_cell_length_b   16.56215845
_cell_length_c   16.55915912
_cell_angle_alpha   89.97256631
_cell_angle_beta   89.99760529
_cell_angle_gamma   90.01973166
_symmetry_Int_Tables_number   1
_chemical_formula_structural   ZrScNbPdRh
_chemical_formula_sum   'Zr50 Sc50 Nb50 Pd50 Rh50'
_cell_volume   4540.53783359
_cell_formula_units_Z   50
loop_
 _symmetry_equiv_pos_site_id
 _symmetry_equiv_pos_as_xyz
  1  'x, y, z'
loop_
 _atom_site_type_symbol
 _atom_site_label
 _atom_site_symmetry_multiplicity
 _atom_site_fract_x
 _atom_site_fract_y
 _atom_site_fract_z
 _atom_site_occupancy
  Zr  Zr0  1  0.70499007  0.69588340  0.50522192  1
  Zr  Zr1  1  0.89079094  0.30405149  0.89868585  1
  Zr  Zr2  1  0.08712683  0.29639968  0.90360705  1
  Zr  Zr3  1  0.29587202  0.09731692  0.10780035  1
  Zr  Zr4  1  0.89887485  0.29431227  0.50567694  1
  Zr  Zr5  1  0.29080695  0.09804731  0.89510905  1
  Zr  Zr6  1  0.90808891  0.69901557  0.30025361  1
  Zr  Zr7  1  0.30199958  0.10342782  0.70771110  1
  Zr  Zr8  1  0.89657484  0.49163241  0.90395103  1
  Zr  Zr9  1  0.70001487  0.50096822  0.90918937  1
  Zr  Zr10  1  0.09755629  0.50393048  0.29984132  1
  Zr  Zr11  1  0.89048819  0.90361520  0.70247788  1
  Zr  Zr12  1  0.50649217  0.29631983  0.69762355  1
  Zr  Zr13  1  0.90711452  0.49482726  0.70074306  1
  Zr  Zr14  1  0.30063381  0.89897661  0.69325056  1
  Zr  Zr15  1  0.49269083  0.28593386  0.29814916  1
  Zr  Zr16  1  0.90790513  0.69599982  0.49869946  1
  Zr  Zr17  1  0.30585563  0.49623785  0.90595307  1
  Zr  Zr18  1  0.49192212  0.09327327  0.29885963  1
  Zr  Zr19  1  0.50478005  0.70254615  0.10185906  1
  Zr  Zr20  1  0.70274320  0.49854890  0.50122650  1
  Zr  Zr21  1  0.50457110  0.49955373  0.50825485  1
  Zr  Zr22  1  0.69958694  0.29880430  0.50533431  1
  Zr  Zr23  1  0.50421814  0.10747172  0.49144910  1
  Zr  Zr24  1  0.09785465  0.69759794  0.49817858  1
  Zr  Zr25  1  0.50229263  0.50044836  0.29349237  1
  Zr  Zr26  1  0.10102187  0.10405428  0.70982314  1
  Zr  Zr27  1  0.90833754  0.71321646  0.89779297  1
  Zr  Zr28  1  0.31084629  0.69799080  0.89324960  1
  Zr  Zr29  1  0.50440412  0.89501832  0.90458024  1
  Zr  Zr30  1  0.50342643  0.90235416  0.49028656  1
  Zr  Zr31  1  0.09752859  0.89375295  0.90416078  1
  Zr  Zr32  1  0.29186038  0.50455599  0.29630291  1
  Zr  Zr33  1  0.29975579  0.29494257  0.89380243  1
  Zr  Zr34  1  0.70856218  0.49737161  0.29527209  1
  Zr  Zr35  1  0.09423263  0.69454688  0.30213585  1
  Zr  Zr36  1  0.69999596  0.70191271  0.10066801  1
  Zr  Zr37  1  0.70100969  0.50345748  0.69408408  1
  Zr  Zr38  1  0.89452765  0.90229267  0.10183180  1
  Zr  Zr39  1  0.50200875  0.89339139  0.10382645  1
  Zr  Zr40  1  0.50608224  0.89871366  0.69736217  1
  Zr  Zr41  1  0.50441614  0.70504963  0.50367868  1
  Zr  Zr42  1  0.29358560  0.90208224  0.50417124  1
  Zr  Zr43  1  0.29608468  0.50583212  0.50136280  1
  Zr  Zr44  1  0.89957886  0.29758000  0.70315661  1
  Zr  Zr45  1  0.09489617  0.30624376  0.69304979  1
  Zr  Zr46  1  0.89812477  0.69703466  0.70086531  1
  Zr  Zr47  1  0.09920956  0.89968741  0.50309728  1
  Zr  Zr48  1  0.50167255  0.71402486  0.29587993  1
  Zr  Zr49  1  0.70357295  0.08920492  0.09523773  1
  Sc  Sc50  1  0.50625132  0.29816100  0.10191359  1
  Sc  Sc51  1  0.09901593  0.90697980  0.69110068  1
  Sc  Sc52  1  0.50717117  0.29359810  0.90215426  1
  Sc  Sc53  1  0.89537267  0.28894241  0.29479430  1
  Sc  Sc54  1  0.89947811  0.50528527  0.29662333  1
  Sc  Sc55  1  0.69147000  0.70630049  0.69944229  1
  Sc  Sc56  1  0.70395282  0.90377766  0.30668159  1
  Sc  Sc57  1  0.70968196  0.10027886  0.30313838  1
  Sc  Sc58  1  0.70608642  0.29789690  0.29243187  1
  Sc  Sc59  1  0.89712563  0.70208959  0.10634559  1
  Sc  Sc60  1  0.30411365  0.70132148  0.10550128  1
  Sc  Sc61  1  0.31139332  0.90779921  0.30256941  1
  Sc  Sc62  1  0.29493975  0.30855835  0.09660197  1
  Sc  Sc63  1  0.30121889  0.10448178  0.29612237  1
  Sc  Sc64  1  0.90022876  0.29987051  0.09933390  1
  Sc  Sc65  1  0.09973792  0.09696116  0.10521974  1
  Sc  Sc66  1  0.50396722  0.50819941  0.90655074  1
  Sc  Sc67  1  0.50474790  0.09336298  0.70186801  1
  Sc  Sc68  1  0.10230669  0.89950762  0.09824323  1
  Sc  Sc69  1  0.09500824  0.48771734  0.10425000  1
  Sc  Sc70  1  0.30241520  0.51138186  0.69227305  1
  Sc  Sc71  1  0.70420091  0.90336164  0.90786785  1
  Sc  Sc72  1  0.69481918  0.69914439  0.90310939  1
  Sc  Sc73  1  0.50340746  0.70080145  0.89263880  1
  Sc  Sc74  1  0.70742947  0.69941910  0.29611533  1
  Sc  Sc75  1  0.10605231  0.50317453  0.50567849  1
  Sc  Sc76  1  0.70789892  0.29689144  0.69709431  1
  Sc  Sc77  1  0.08955706  0.89164879  0.29245393  1
  Sc  Sc78  1  0.10580259  0.11334355  0.29827141  1
  Sc  Sc79  1  0.29561053  0.69877085  0.29763388  1
  Sc  Sc80  1  0.89480853  0.09939477  0.10612241  1
  Sc  Sc81  1  0.50559138  0.09884120  0.89273035  1
  Sc  Sc82  1  0.49965916  0.10436807  0.10686235  1
  Sc  Sc83  1  0.29541368  0.90067401  0.10421359  1
  Sc  Sc84  1  0.10196754  0.10035647  0.49674464  1
  Sc  Sc85  1  0.29395717  0.09196052  0.49091438  1
  Sc  Sc86  1  0.70124226  0.30129175  0.09789637  1
  Sc  Sc87  1  0.89831974  0.10662615  0.89519954  1
  Sc  Sc88  1  0.09130304  0.69157558  0.69226593  1
  Sc  Sc89  1  0.09065142  0.49067660  0.89930971  1
  Sc  Sc90  1  0.89724728  0.10054440  0.70003329  1
  Sc  Sc91  1  0.89114607  0.50164864  0.49672648  1
  Sc  Sc92  1  0.70296093  0.09753465  0.49930777  1
  Sc  Sc93  1  0.09894067  0.71163765  0.10573469  1
  Sc  Sc94  1  0.89371948  0.49992483  0.10305902  1
  Sc  Sc95  1  0.69917022  0.10085540  0.90290701  1
  Sc  Sc96  1  0.50578300  0.51301393  0.70122174  1
  Sc  Sc97  1  0.29826810  0.70075573  0.51326691  1
  Sc  Sc98  1  0.29610741  0.89938656  0.90160802  1
  Sc  Sc99  1  0.89229842  0.10609975  0.49813643  1
  Nb  Nb100  1  0.89799819  0.90330246  0.30266402  1
  Nb  Nb101  1  0.10499005  0.30155975  0.29814054  1
  Nb  Nb102  1  0.09611520  0.29371093  0.10531945  1
  Nb  Nb103  1  0.10122876  0.09696004  0.90148644  1
  Nb  Nb104  1  0.10231907  0.49778596  0.70059507  1
  Nb  Nb105  1  0.70120023  0.08209905  0.69245311  1
  Nb  Nb106  1  0.89127577  0.08979318  0.30145470  1
  Nb  Nb107  1  0.90376345  0.89936725  0.90102603  1
  Nb  Nb108  1  0.69590117  0.90174945  0.09590984  1
  Nb  Nb109  1  0.70001106  0.90939136  0.68559876  1
  Nb  Nb110  1  0.69220753  0.49981536  0.09839914  1
  Nb  Nb111  1  0.30479136  0.70198361  0.70337816  1
  Nb  Nb112  1  0.10169179  0.70096822  0.90211813  1
  Nb  Nb113  1  0.29533834  0.30597746  0.50032027  1
  Nb  Nb114  1  0.10417627  0.29785168  0.49425025  1
  Nb  Nb115  1  0.30742165  0.50089787  0.09496149  1
  Nb  Nb116  1  0.50050761  0.30030087  0.49835920  1
  Nb  Nb117  1  0.29213156  0.29947371  0.30146826  1
  Nb  Nb118  1  0.49126403  0.70169332  0.70724370  1
  Nb  Nb119  1  0.70259383  0.89920355  0.51155096  1
  Nb  Nb120  1  0.90231482  0.90024632  0.49964300  1
  Nb  Nb121  1  0.50208347  0.90014308  0.29912583  1
  Nb  Nb122  1  0.30132977  0.29815921  0.70202051  1
  Nb  Nb123  1  0.70266557  0.30797816  0.89851110  1
  Nb  Nb124  1  0.50404723  0.49836282  0.09915462  1
  Nb  Nb125  1  0.00484305  0.60542240  -0.00205157  1
  Nb  Nb126  1  0.39626581  0.20571727  0.59489854  1
  Nb  Nb127  1  -0.00185789  -0.00157935  -0.00613537  1
  Nb  Nb128  1  0.19456090  0.19956931  -0.00001125  1
  Nb  Nb129  1  0.20502484  0.20866949  0.59868147  1
  Nb  Nb130  1  0.60033294  -0.00661764  0.20129408  1
  Nb  Nb131  1  0.39861648  0.39309978  0.59885645  1
  Nb  Nb132  1  0.20309719  0.40267346  0.79486755  1
  Nb  Nb133  1  0.80263768  0.59974325  0.80265169  1
  Nb  Nb134  1  0.39818067  0.39814989  0.39919722  1
  Nb  Nb135  1  0.59895237  0.59663151  0.39812997  1
  Nb  Nb136  1  0.39629734  0.40496989  0.19982832  1
  Nb  Nb137  1  0.59549336  0.39764442  0.39940591  1
  Nb  Nb138  1  0.60286916  0.40048652  0.80175643  1
  Nb  Nb139  1  0.19549629  0.80113633  0.40406004  1
  Nb  Nb140  1  0.80890823  0.80548600  0.40704571  1
  Nb  Nb141  1  0.00667653  0.38909013  0.39839839  1
  Nb  Nb142  1  0.19751396  0.59801207  -0.00269718  1
  Nb  Nb143  1  0.40598198  0.59818677  0.40021008  1
  Nb  Nb144  1  0.19613281  0.59886842  0.80371537  1
  Nb  Nb145  1  0.40323358  0.39915113  0.79397349  1
  Nb  Nb146  1  0.39213059  0.19437952  -0.00145737  1
  Nb  Nb147  1  0.39945761  0.00468093  0.00143102  1
  Nb  Nb148  1  0.19943191  0.79055127  0.79475049  1
  Nb  Nb149  1  -0.00819659  0.00008595  0.39491409  1
  Pd  Pd150  1  0.20253333  0.39951267  0.19648353  1
  Pd  Pd151  1  -0.00875697  0.39553628  0.20757484  1
  Pd  Pd152  1  0.60752924  0.00155789  0.39689233  1
  Pd  Pd153  1  0.19716931  -0.01449439  0.79672547  1
  Pd  Pd154  1  -0.00014527  0.59684691  0.80743885  1
  Pd  Pd155  1  0.00021353  0.18959160  0.00541837  1
  Pd  Pd156  1  0.80517942  0.79711344  0.59845544  1
  Pd  Pd157  1  -0.00154844  -0.00101944  0.80441001  1
  Pd  Pd158  1  0.60903742  0.80831401  0.79901059  1
  Pd  Pd159  1  0.79123083  0.19190698  0.79522560  1
  Pd  Pd160  1  0.40604180  0.80167730  0.59892607  1
  Pd  Pd161  1  -0.00205186  0.40611095  0.58589168  1
  Pd  Pd162  1  0.38713195  0.20093982  0.40480424  1
  Pd  Pd163  1  0.00670725  0.19242462  0.59875765  1
  Pd  Pd164  1  0.59945353  0.19728628  0.00123488  1
  Pd  Pd165  1  0.40091396  0.59999797  0.20119880  1
  Pd  Pd166  1  0.79758062  0.80667987  0.20705393  1
  Pd  Pd167  1  0.59757693  0.39349201  0.20333454  1
  Pd  Pd168  1  0.19225135  0.59921813  0.18381394  1
  Pd  Pd169  1  -0.00487101  0.19496814  0.20386469  1
  Pd  Pd170  1  0.61136523  0.20037076  0.79505618  1
  Pd  Pd171  1  0.40445275  0.01029983  0.59281977  1
  Pd  Pd172  1  0.80885644  0.60677625  -0.00231716  1
  Pd  Pd173  1  0.80496922  0.39052670  0.39607466  1
  Pd  Pd174  1  -0.00211533  0.80230349  0.60785329  1
  Pd  Pd175  1  0.39553168  0.80430575  0.00313949  1
  Pd  Pd176  1  0.79915643  0.79888468  -0.00185042  1
  Pd  Pd177  1  0.19387396  -0.00588404  0.20914667  1
  Pd  Pd178  1  0.20528555  0.80590505  0.21087867  1
  Pd  Pd179  1  -0.00281375  0.19722003  0.39347841  1
  Pd  Pd180  1  0.79784323  0.20188941  0.00210639  1
  Pd  Pd181  1  0.79530763  0.00222969  0.80740873  1
  Pd  Pd182  1  0.61040342  0.18865863  0.20158698  1
  Pd  Pd183  1  0.60906565  -0.00807448  0.80397279  1
  Pd  Pd184  1  0.19687062  0.40366439  0.39937459  1
  Pd  Pd185  1  0.18670577  -0.00739865  0.38638542  1
  Pd  Pd186  1  0.41264109  0.39001624  0.00077605  1
  Pd  Pd187  1  -0.00578488  0.01136205  0.59372707  1
  Pd  Pd188  1  0.20843688  0.79112760  -0.00268074  1
  Pd  Pd189  1  0.40265043  -0.00745917  0.80746641  1
  Pd  Pd190  1  0.19059015  0.39836441  -0.00300864  1
  Pd  Pd191  1  0.61566397  0.79584437  0.39759002  1
  Pd  Pd192  1  0.60148104  0.19076716  0.60432712  1
  Pd  Pd193  1  0.60552695  0.60293168  0.20225229  1
  Pd  Pd194  1  0.61102126  0.20444759  0.39238451  1
  Pd  Pd195  1  0.78904599  0.79885341  0.80067297  1
  Pd  Pd196  1  0.40442352  0.60708610  0.00403960  1
  Pd  Pd197  1  0.00981653  0.80565518  0.78759752  1
  Pd  Pd198  1  0.38793344  0.79471865  0.40055779  1
  Pd  Pd199  1  0.00305770  0.00422802  0.20136338  1
  Rh  Rh200  1  0.79765597  0.59674568  0.19537793  1
  Rh  Rh201  1  0.20357993  0.39851585  0.60663055  1
  Rh  Rh202  1  0.39687287  0.81010763  0.79740827  1
  Rh  Rh203  1  0.59525552  0.60413899  0.00571082  1
  Rh  Rh204  1  0.60001878  0.39826249  0.60347154  1
  Rh  Rh205  1  -0.00227003  0.59030799  0.59484295  1
  Rh  Rh206  1  0.40567082  0.60279371  0.59927831  1
  Rh  Rh207  1  0.00306084  0.39492176  0.79975021  1
  Rh  Rh208  1  -0.00210857  0.20172998  0.80067302  1
  Rh  Rh209  1  0.38739340  0.21474757  0.18916826  1
  Rh  Rh210  1  0.59323570  0.00341979  0.59032812  1
  Rh  Rh211  1  0.00345841  0.60118718  0.18848867  1
  Rh  Rh212  1  0.19412759  0.79201128  0.60315364  1
  Rh  Rh213  1  -0.00070462  0.58199555  0.40508087  1
  Rh  Rh214  1  0.20294834  0.20753582  0.19327725  1
  Rh  Rh215  1  -0.00495822  0.40204865  0.00892889  1
  Rh  Rh216  1  0.20606406  0.61142544  0.40379569  1
  Rh  Rh217  1  0.80224555  -0.00589913  0.40976376  1
  Rh  Rh218  1  0.79070971  0.40872798  0.79550782  1
  Rh  Rh219  1  0.60219712  0.79518415  -0.00245680  1
  Rh  Rh220  1  0.18424004  0.21216339  0.80050825  1
  Rh  Rh221  1  -0.00704477  0.80158390  0.19551714  1
  Rh  Rh222  1  0.79670946  0.39761332  0.00969698  1
  Rh  Rh223  1  0.59577635  0.79993712  0.60335227  1
  Rh  Rh224  1  -0.00310896  0.80249522  0.00912863  1
  Rh  Rh225  1  0.79415651  0.19246285  0.60556269  1
  Rh  Rh226  1  0.79071615  -0.00577931  0.19948491  1
  Rh  Rh227  1  0.19632308  0.00711165  0.00321465  1
  Rh  Rh228  1  0.59961172  0.39922873  -0.00409266  1
  Rh  Rh229  1  0.80570109  0.39833423  0.60194803  1
  Rh  Rh230  1  0.40125982  -0.00018121  0.40314746  1
  Rh  Rh231  1  0.58951721  0.00261491  0.00746613  1
  Rh  Rh232  1  0.80524692  0.60070590  0.60839758  1
  Rh  Rh233  1  0.61157162  0.80875548  0.20445966  1
  Rh  Rh234  1  0.41195029  0.20226196  0.80058047  1
  Rh  Rh235  1  0.60820693  0.59671475  0.79853282  1
  Rh  Rh236  1  0.39883321  0.59143969  0.79719204  1
  Rh  Rh237  1  0.80727520  0.00275932  0.59440218  1
  Rh  Rh238  1  0.39401910  0.80340679  0.20300445  1
  Rh  Rh239  1  0.79946051  0.19585954  0.19510508  1
  Rh  Rh240  1  0.81121889  -0.00010697  -0.00606737  1
  Rh  Rh241  1  0.59638927  0.61233607  0.60276359  1
  Rh  Rh242  1  0.80019460  0.40114793  0.19399084  1
  Rh  Rh243  1  0.40816451  -0.00570131  0.19381780  1
  Rh  Rh244  1  0.20038740  0.01773641  0.60681120  1
  Rh  Rh245  1  0.79852187  0.20291153  0.40064935  1
  Rh  Rh246  1  0.00020840  0.80949350  0.39981799  1
  Rh  Rh247  1  0.20327452  0.20103297  0.40307342  1
  Rh  Rh248  1  0.79792298  0.61036958  0.39533382  1
  Rh  Rh249  1  0.19735067  0.60547234  0.60889869  1
