# generated using pymatgen
data_ZrScNbPdRh
_symmetry_space_group_name_H-M   'P 1'
_cell_length_a   16.55502722
_cell_length_b   16.55544327
_cell_length_c   16.55333864
_cell_angle_alpha   89.97505299
_cell_angle_beta   89.96186462
_cell_angle_gamma   90.00232858
_symmetry_Int_Tables_number   1
_chemical_formula_structural   ZrScNbPdRh
_chemical_formula_sum   'Zr50 Sc50 Nb50 Pd50 Rh50'
_cell_volume   4536.86832203
_cell_formula_units_Z   50
loop_
 _symmetry_equiv_pos_site_id
 _symmetry_equiv_pos_as_xyz
  1  'x, y, z'
loop_
 _atom_site_type_symbol
 _atom_site_label
 _atom_site_symmetry_multiplicity
 _atom_site_fract_x
 _atom_site_fract_y
 _atom_site_fract_z
 _atom_site_occupancy
  Zr  Zr0  1  0.68910922  0.29845138  0.70524986  1
  Zr  Zr1  1  0.49896662  0.10856174  0.69329571  1
  Zr  Zr2  1  0.30614297  0.10975536  0.11069103  1
  Zr  Zr3  1  0.09654915  0.90218207  0.70472672  1
  Zr  Zr4  1  0.90131788  0.09942976  0.50163925  1
  Zr  Zr5  1  0.10315819  0.70510730  0.10440417  1
  Zr  Zr6  1  0.30164465  0.90096343  0.49736987  1
  Zr  Zr7  1  0.10344205  0.09361794  0.89028102  1
  Zr  Zr8  1  0.89696954  0.70222976  0.50217961  1
  Zr  Zr9  1  0.70491482  0.49368827  0.10494606  1
  Zr  Zr10  1  0.29136884  0.50041778  0.90847877  1
  Zr  Zr11  1  0.89290729  0.69939976  0.30616399  1
  Zr  Zr12  1  0.49899329  0.69552448  0.70259934  1
  Zr  Zr13  1  0.09130068  0.89681227  0.90120253  1
  Zr  Zr14  1  0.30076734  0.69922672  0.89847325  1
  Zr  Zr15  1  0.50633936  0.09747394  0.10050098  1
  Zr  Zr16  1  0.10021020  0.49908976  0.31295710  1
  Zr  Zr17  1  0.29792185  0.31127637  0.09652726  1
  Zr  Zr18  1  0.29752408  0.70343148  0.70402888  1
  Zr  Zr19  1  0.69012134  0.89915543  0.89890460  1
  Zr  Zr20  1  0.30192498  0.30491451  0.89822485  1
  Zr  Zr21  1  0.90813112  0.89696751  0.70052286  1
  Zr  Zr22  1  0.69923738  0.10398813  0.29184918  1
  Zr  Zr23  1  0.50211513  0.89253806  0.29550432  1
  Zr  Zr24  1  0.30699958  0.29584522  0.69146839  1
  Zr  Zr25  1  0.90026840  0.49921418  0.70290849  1
  Zr  Zr26  1  0.49682867  0.08748756  0.89582285  1
  Zr  Zr27  1  0.09725189  0.89165323  0.09940864  1
  Zr  Zr28  1  0.69844366  0.10761908  0.70215454  1
  Zr  Zr29  1  0.49927562  0.49277993  0.49241276  1
  Zr  Zr30  1  0.09828640  0.69348199  0.49809787  1
  Zr  Zr31  1  0.11072694  0.10568345  0.49452789  1
  Zr  Zr32  1  0.71076831  0.10012023  0.09641310  1
  Zr  Zr33  1  0.10037275  0.30110731  0.10125703  1
  Zr  Zr34  1  0.50276050  0.50000036  0.69510544  1
  Zr  Zr35  1  0.29426556  0.69702857  0.29169451  1
  Zr  Zr36  1  0.89167042  0.09074715  0.91049474  1
  Zr  Zr37  1  0.89592334  0.49576372  0.09968558  1
  Zr  Zr38  1  0.50187654  0.30431592  0.10072326  1
  Zr  Zr39  1  0.09847579  0.30072609  0.49261752  1
  Zr  Zr40  1  0.49660671  0.89733543  0.50227950  1
  Zr  Zr41  1  0.69539533  0.89886353  0.69755412  1
  Zr  Zr42  1  0.89802691  0.09483711  0.69784354  1
  Zr  Zr43  1  0.30562636  0.89604880  0.30718747  1
  Zr  Zr44  1  0.29885481  0.70379044  0.50140456  1
  Zr  Zr45  1  0.49962038  0.89457710  0.90586587  1
  Zr  Zr46  1  0.70298423  0.09516499  0.50744855  1
  Zr  Zr47  1  0.29750850  0.10185082  0.70358088  1
  Zr  Zr48  1  0.30730567  0.89297671  0.10540970  1
  Zr  Zr49  1  0.70104362  0.89634520  0.30258828  1
  Sc  Sc50  1  0.89458094  0.30267609  0.69581679  1
  Sc  Sc51  1  0.50203549  0.89737333  0.09857354  1
  Sc  Sc52  1  0.89629614  0.30771745  0.10387407  1
  Sc  Sc53  1  0.69938398  0.69334411  0.49215608  1
  Sc  Sc54  1  0.70083267  0.50504063  0.69744741  1
  Sc  Sc55  1  0.30077751  0.89724719  0.69322359  1
  Sc  Sc56  1  0.50469219  0.69535843  0.29545346  1
  Sc  Sc57  1  0.90006293  0.90586046  0.50472359  1
  Sc  Sc58  1  0.50647317  0.50600903  0.10497977  1
  Sc  Sc59  1  0.10354184  0.90283886  0.51019150  1
  Sc  Sc60  1  0.69183962  0.30259012  0.29292483  1
  Sc  Sc61  1  0.49757391  0.49691742  0.89540154  1
  Sc  Sc62  1  0.10842740  0.70108258  0.90074995  1
  Sc  Sc63  1  0.29472264  0.10208119  0.30381354  1
  Sc  Sc64  1  0.10713142  0.90067549  0.29235890  1
  Sc  Sc65  1  0.49860359  0.89877905  0.70188029  1
  Sc  Sc66  1  0.49900951  0.70398558  0.10453699  1
  Sc  Sc67  1  0.69386236  0.69634399  0.70796305  1
  Sc  Sc68  1  0.70257448  0.70071090  0.30271991  1
  Sc  Sc69  1  0.09982061  0.69930664  0.70099852  1
  Sc  Sc70  1  0.69610599  0.29936992  0.50504027  1
  Sc  Sc71  1  0.49133565  0.29627965  0.49549294  1
  Sc  Sc72  1  0.09766490  0.30820364  0.90146298  1
  Sc  Sc73  1  0.89848194  0.50347513  0.90378143  1
  Sc  Sc74  1  0.89897898  0.69736750  0.70534803  1
  Sc  Sc75  1  0.10475869  0.09413355  0.69339215  1
  Sc  Sc76  1  0.29599135  0.69578320  0.10380847  1
  Sc  Sc77  1  0.30444419  0.29585551  0.49346069  1
  Sc  Sc78  1  0.11108444  0.49850528  0.09764865  1
  Sc  Sc79  1  0.90491486  0.30575756  0.50332845  1
  Sc  Sc80  1  0.30853364  0.89716843  0.89426514  1
  Sc  Sc81  1  0.09586666  0.50391515  0.89965899  1
  Sc  Sc82  1  0.69729106  0.69226320  0.09898837  1
  Sc  Sc83  1  0.30652592  0.51192415  0.69414138  1
  Sc  Sc84  1  0.50026284  0.30847353  0.88238902  1
  Sc  Sc85  1  0.89245814  0.09446322  0.29298362  1
  Sc  Sc86  1  0.90113314  0.30955013  0.90895479  1
  Sc  Sc87  1  0.90986888  0.31011086  0.30036793  1
  Sc  Sc88  1  0.89559443  0.89435107  0.29553254  1
  Sc  Sc89  1  0.09681468  0.29471245  0.69253937  1
  Sc  Sc90  1  0.90398229  0.90712781  0.09185560  1
  Sc  Sc91  1  0.70737609  0.29664098  0.10599331  1
  Sc  Sc92  1  0.49750592  0.11036626  0.29639559  1
  Sc  Sc93  1  0.89690631  0.50456925  0.50755262  1
  Sc  Sc94  1  0.50582918  0.69482564  0.50128214  1
  Sc  Sc95  1  0.10577593  0.29963550  0.30513426  1
  Sc  Sc96  1  0.10561829  0.08992076  0.11035844  1
  Sc  Sc97  1  0.50413213  0.30050197  0.30549536  1
  Sc  Sc98  1  0.30211186  0.09994557  0.49863252  1
  Sc  Sc99  1  0.90006475  0.71151746  0.10684943  1
  Nb  Nb100  1  0.30208576  0.50082759  0.29555222  1
  Nb  Nb101  1  0.30680566  0.29582456  0.29280043  1
  Nb  Nb102  1  0.50306053  0.49444101  0.30148386  1
  Nb  Nb103  1  0.30056791  0.10210675  0.89965020  1
  Nb  Nb104  1  0.10229392  0.10046227  0.30257035  1
  Nb  Nb105  1  0.09568933  0.69897926  0.29739685  1
  Nb  Nb106  1  0.88972086  0.69880934  0.90327109  1
  Nb  Nb107  1  0.50182296  0.10087152  0.49640840  1
  Nb  Nb108  1  0.69612428  0.49912053  0.49904944  1
  Nb  Nb109  1  0.30342070  0.50352734  0.10051102  1
  Nb  Nb110  1  0.69308727  0.90161449  0.09738784  1
  Nb  Nb111  1  0.69278543  0.49881368  0.30671410  1
  Nb  Nb112  1  0.89332785  0.49991651  0.30091973  1
  Nb  Nb113  1  0.69583235  0.29983970  0.89368499  1
  Nb  Nb114  1  0.70394919  0.69291744  0.90096971  1
  Nb  Nb115  1  0.89785518  0.89634397  0.89782658  1
  Nb  Nb116  1  0.89842028  0.10745986  0.10034651  1
  Nb  Nb117  1  0.70668439  0.50403937  0.90644148  1
  Nb  Nb118  1  0.10564792  0.49829165  0.50202818  1
  Nb  Nb119  1  0.50022743  0.30466456  0.69333373  1
  Nb  Nb120  1  0.09964374  0.50014623  0.70080596  1
  Nb  Nb121  1  0.50242948  0.70143404  0.90363527  1
  Nb  Nb122  1  0.70171788  0.89964512  0.50007788  1
  Nb  Nb123  1  0.30146769  0.49739370  0.49457782  1
  Nb  Nb124  1  0.69748581  0.10400743  0.89860238  1
  Nb  Nb125  1  0.20174654  0.19421054  -0.00170297  1
  Nb  Nb126  1  0.79983685  0.20403551  0.39826170  1
  Nb  Nb127  1  -0.00419159  0.19493547  0.80663743  1
  Nb  Nb128  1  0.20710284  0.00203302  -0.00052962  1
  Nb  Nb129  1  0.00258010  0.19248026  0.00380735  1
  Nb  Nb130  1  0.79697166  -0.00196675  0.80456269  1
  Nb  Nb131  1  0.39828578  0.40737013  0.20380686  1
  Nb  Nb132  1  -0.00301933  0.60711631  0.00775757  1
  Nb  Nb133  1  0.60041800  -0.00101846  0.40377884  1
  Nb  Nb134  1  0.60065074  0.20213732  -0.00927160  1
  Nb  Nb135  1  0.00292713  0.80045139  0.39910927  1
  Nb  Nb136  1  0.00123724  0.19427535  0.19721998  1
  Nb  Nb137  1  0.79475801  0.80271347  0.59947325  1
  Nb  Nb138  1  0.19987156  0.40696794  0.59597251  1
  Nb  Nb139  1  0.00491029  0.00062149  0.39581837  1
  Nb  Nb140  1  0.19799379  0.40521466  0.78816553  1
  Nb  Nb141  1  0.79522215  0.40348616  0.40037373  1
  Nb  Nb142  1  0.79155100  0.40154253  0.80488807  1
  Nb  Nb143  1  0.40155422  0.20208169  -0.00451798  1
  Nb  Nb144  1  0.39914968  0.59915904  0.00187507  1
  Nb  Nb145  1  -0.00058564  0.59834866  0.20430781  1
  Nb  Nb146  1  0.79584596  0.80135183  -0.00729673  1
  Nb  Nb147  1  0.59515975  0.40054108  0.59966241  1
  Nb  Nb148  1  0.60826891  0.39751900  -0.00671945  1
  Nb  Nb149  1  0.39614954  0.59065263  0.39366290  1
  Pd  Pd150  1  -0.00400007  0.00158759  0.20443099  1
  Pd  Pd151  1  0.00841444  0.00515641  0.00406812  1
  Pd  Pd152  1  0.00185484  0.78782777  0.80535602  1
  Pd  Pd153  1  0.79355167  0.80624592  0.18827499  1
  Pd  Pd154  1  0.39364904  0.00278670  0.00387343  1
  Pd  Pd155  1  0.40591660  0.19970558  0.80308481  1
  Pd  Pd156  1  0.80067149  0.60040437  0.20004289  1
  Pd  Pd157  1  0.00679659  0.40448987  0.20114642  1
  Pd  Pd158  1  0.20971515  0.39375339  0.40127465  1
  Pd  Pd159  1  0.60008144  0.00198925  0.79438136  1
  Pd  Pd160  1  0.00133116  0.19502524  0.60556987  1
  Pd  Pd161  1  0.80260883  -0.00941509  0.19269452  1
  Pd  Pd162  1  0.81040177  0.20383572  0.80679930  1
  Pd  Pd163  1  0.80015904  0.21090433  -0.00349448  1
  Pd  Pd164  1  0.60426669  0.79223930  0.59837782  1
  Pd  Pd165  1  0.19469338  0.79982500  0.60277506  1
  Pd  Pd166  1  0.20599215  0.60105901  0.39805995  1
  Pd  Pd167  1  0.39895460  0.59609641  0.80779119  1
  Pd  Pd168  1  0.00094590  0.59989348  0.60275236  1
  Pd  Pd169  1  0.79523114  0.80173177  0.79773692  1
  Pd  Pd170  1  0.18993833  0.80367963  0.39898962  1
  Pd  Pd171  1  0.20933567  -0.01052152  0.80206991  1
  Pd  Pd172  1  0.40458142  0.80178719  0.79723054  1
  Pd  Pd173  1  0.20219457  0.40304594  0.20708661  1
  Pd  Pd174  1  -0.00041172  0.60609087  0.80996092  1
  Pd  Pd175  1  0.19122358  0.21147611  0.80200748  1
  Pd  Pd176  1  0.20772513  -0.00529878  0.19895033  1
  Pd  Pd177  1  0.80191623  0.20878206  0.59452113  1
  Pd  Pd178  1  0.59980031  -0.00185819  0.20515605  1
  Pd  Pd179  1  0.40886409  0.00746635  0.39397374  1
  Pd  Pd180  1  0.00520155  0.40354572  0.59743897  1
  Pd  Pd181  1  0.38960514  0.40900500  0.79075139  1
  Pd  Pd182  1  -0.00634349  0.59865743  0.40011079  1
  Pd  Pd183  1  0.39727763  0.00335301  0.60256634  1
  Pd  Pd184  1  -0.01019750  0.19313087  0.38831724  1
  Pd  Pd185  1  0.60680518  0.19649849  0.40511603  1
  Pd  Pd186  1  0.40182107  0.60325862  0.58941439  1
  Pd  Pd187  1  0.20955718  0.80767563  -0.00351732  1
  Pd  Pd188  1  0.59437618  0.00057616  0.59698479  1
  Pd  Pd189  1  0.40725573  0.78358610  0.39785907  1
  Pd  Pd190  1  0.59291329  0.59403140  -0.00387213  1
  Pd  Pd191  1  -0.00266079  0.39236075  0.79735514  1
  Pd  Pd192  1  0.80089627  0.00308499  0.39831935  1
  Pd  Pd193  1  0.60471371  0.79213546  0.00453905  1
  Pd  Pd194  1  0.40275185  0.00072948  0.20804053  1
  Pd  Pd195  1  0.60116626  0.59590761  0.80785691  1
  Pd  Pd196  1  0.19988698  0.59767520  0.60281498  1
  Pd  Pd197  1  0.59873107  0.79982645  0.40243046  1
  Pd  Pd198  1  0.60532515  0.60149169  0.20506185  1
  Pd  Pd199  1  0.79306282  0.60822588  0.60402011  1
  Rh  Rh200  1  0.19541587  -0.00407210  0.40055354  1
  Rh  Rh201  1  0.40050181  0.78895788  0.00203408  1
  Rh  Rh202  1  -0.01046119  0.00529296  0.80094145  1
  Rh  Rh203  1  0.39939697  0.40015962  0.59981268  1
  Rh  Rh204  1  -0.00464128  0.79650913  0.59512628  1
  Rh  Rh205  1  0.60736331  0.41175942  0.79737511  1
  Rh  Rh206  1  0.19801180  0.80435160  0.79736771  1
  Rh  Rh207  1  0.79583171  0.39908454  0.21377435  1
  Rh  Rh208  1  0.60615381  0.79797637  0.19598713  1
  Rh  Rh209  1  0.40237850  0.59516808  0.19978854  1
  Rh  Rh210  1  0.39820177  0.19601288  0.39676274  1
  Rh  Rh211  1  0.40678191  0.21104072  0.19727998  1
  Rh  Rh212  1  0.79941754  -0.00919958  0.61118717  1
  Rh  Rh213  1  0.19958992  0.60344859  0.00391856  1
  Rh  Rh214  1  0.60148189  0.59428082  0.59480728  1
  Rh  Rh215  1  0.60501614  0.00711934  0.00225176  1
  Rh  Rh216  1  0.60625124  0.39530897  0.40703522  1
  Rh  Rh217  1  0.58804369  0.19495073  0.80426885  1
  Rh  Rh218  1  0.20796460  0.20499912  0.39468513  1
  Rh  Rh219  1  0.59450934  0.59959825  0.39634712  1
  Rh  Rh220  1  0.19185288  0.20282792  0.20111076  1
  Rh  Rh221  1  0.40410959  0.79453120  0.60174551  1
  Rh  Rh222  1  0.79522457  0.58945517  0.40073649  1
  Rh  Rh223  1  0.80661884  0.80617673  0.41130913  1
  Rh  Rh224  1  0.59726966  0.40174996  0.19447163  1
  Rh  Rh225  1  -0.01074686  0.41208222  0.40918063  1
  Rh  Rh226  1  -0.00179375  0.79699204  0.20994580  1
  Rh  Rh227  1  0.18973221  0.59399701  0.20215522  1
  Rh  Rh228  1  0.00799084  0.00721625  0.59007259  1
  Rh  Rh229  1  -0.01094810  0.79162767  -0.00720322  1
  Rh  Rh230  1  0.20297800  0.20688146  0.59389649  1
  Rh  Rh231  1  0.19311757  0.39877843  -0.00802863  1
  Rh  Rh232  1  0.59206761  0.20778410  0.59353266  1
  Rh  Rh233  1  0.79208877  0.39492380  -0.00625106  1
  Rh  Rh234  1  0.80647861  0.60827682  0.00982133  1
  Rh  Rh235  1  0.40150885  0.79522326  0.20067021  1
  Rh  Rh236  1  0.80075993  0.59167575  0.79926484  1
  Rh  Rh237  1  0.81366407  0.21118888  0.21194932  1
  Rh  Rh238  1  0.20221998  0.80279013  0.20385504  1
  Rh  Rh239  1  0.59474439  0.79155390  0.80276128  1
  Rh  Rh240  1  0.19811508  0.59452796  0.79583242  1
  Rh  Rh241  1  0.78963142  -0.01109604  -0.00339347  1
  Rh  Rh242  1  0.40180434  0.19599085  0.59281462  1
  Rh  Rh243  1  0.78748997  0.39934039  0.60229319  1
  Rh  Rh244  1  0.39754685  -0.00129727  0.79291326  1
  Rh  Rh245  1  0.59917748  0.20127823  0.19006510  1
  Rh  Rh246  1  0.39434145  0.40001478  0.38887376  1
  Rh  Rh247  1  0.20617467  0.00155477  0.59917529  1
  Rh  Rh248  1  0.41450444  0.40743300  0.00912289  1
  Rh  Rh249  1  0.00206907  0.40924726  0.00570465  1
