# generated using pymatgen
data_ZrScNbPdRh
_symmetry_space_group_name_H-M   'P 1'
_cell_length_a   16.56415199
_cell_length_b   16.56445854
_cell_length_c   16.56293637
_cell_angle_alpha   90.00492146
_cell_angle_beta   90.01058724
_cell_angle_gamma   90.00329097
_symmetry_Int_Tables_number   1
_chemical_formula_structural   ZrScNbPdRh
_chemical_formula_sum   'Zr50 Sc50 Nb50 Pd50 Rh50'
_cell_volume   4544.47558753
_cell_formula_units_Z   50
loop_
 _symmetry_equiv_pos_site_id
 _symmetry_equiv_pos_as_xyz
  1  'x, y, z'
loop_
 _atom_site_type_symbol
 _atom_site_label
 _atom_site_symmetry_multiplicity
 _atom_site_fract_x
 _atom_site_fract_y
 _atom_site_fract_z
 _atom_site_occupancy
  Zr  Zr0  1  0.09304466  0.28563981  0.89517004  1
  Zr  Zr1  1  0.70214803  0.90552896  0.10678713  1
  Zr  Zr2  1  0.69709570  0.69922169  0.89786775  1
  Zr  Zr3  1  0.29657881  0.50970046  0.70394625  1
  Zr  Zr4  1  0.90421195  0.50056589  0.29681951  1
  Zr  Zr5  1  0.70036127  0.10105451  0.49672553  1
  Zr  Zr6  1  0.49491588  0.90397328  0.89289689  1
  Zr  Zr7  1  0.10345924  0.70771890  0.09541350  1
  Zr  Zr8  1  0.30089009  0.49671477  0.30333889  1
  Zr  Zr9  1  0.89783388  0.49454330  0.09910187  1
  Zr  Zr10  1  0.69333039  0.49958928  0.90604506  1
  Zr  Zr11  1  0.29032415  0.50347625  0.49639368  1
  Zr  Zr12  1  0.69723423  0.10148041  0.70123120  1
  Zr  Zr13  1  0.10494854  0.69200481  0.49886658  1
  Zr  Zr14  1  0.49468871  0.70654722  0.69923852  1
  Zr  Zr15  1  0.48937783  0.29661800  0.49378234  1
  Zr  Zr16  1  0.09220893  0.10134777  0.49116919  1
  Zr  Zr17  1  0.49289806  0.09525764  0.69608348  1
  Zr  Zr18  1  0.29765258  0.89373955  0.89901468  1
  Zr  Zr19  1  0.50422567  0.10501409  0.30269498  1
  Zr  Zr20  1  0.90033140  0.49565251  0.89869400  1
  Zr  Zr21  1  0.70486853  0.29500441  0.70288791  1
  Zr  Zr22  1  0.89838729  0.10279515  0.09585627  1
  Zr  Zr23  1  0.29281251  0.70001311  0.30517581  1
  Zr  Zr24  1  0.09612294  0.70446932  0.28885845  1
  Zr  Zr25  1  0.90824669  0.90004445  0.69969650  1
  Zr  Zr26  1  0.69853996  0.90145540  0.89558016  1
  Zr  Zr27  1  0.09421333  0.29604801  0.69814600  1
  Zr  Zr28  1  0.49491628  0.10147803  0.89777851  1
  Zr  Zr29  1  0.50438687  0.30289676  0.09998802  1
  Zr  Zr30  1  0.29929233  0.69990341  0.50770919  1
  Zr  Zr31  1  0.29669344  0.30486436  0.30314853  1
  Zr  Zr32  1  0.90542993  0.70179681  0.89818259  1
  Zr  Zr33  1  0.10217604  0.28899465  0.10642297  1
  Zr  Zr34  1  0.10243174  0.48828510  0.30127584  1
  Zr  Zr35  1  0.30621413  0.50121666  0.09726729  1
  Zr  Zr36  1  0.69339024  0.89930938  0.49436797  1
  Zr  Zr37  1  0.69467706  0.69999195  0.09722944  1
  Zr  Zr38  1  0.30314689  0.09612293  0.89816755  1
  Zr  Zr39  1  0.50297067  0.49683178  0.09351378  1
  Zr  Zr40  1  0.90767670  0.10640639  0.90383206  1
  Zr  Zr41  1  0.70329100  0.30072926  0.50126791  1
  Zr  Zr42  1  0.50842889  0.70418381  0.50811920  1
  Zr  Zr43  1  0.50561915  0.89896148  0.10389096  1
  Zr  Zr44  1  0.69949663  0.09809565  0.29942989  1
  Zr  Zr45  1  0.30112761  0.69769528  0.09436941  1
  Zr  Zr46  1  0.50329773  0.69599847  0.89554964  1
  Zr  Zr47  1  0.29235248  0.89736686  0.30389839  1
  Zr  Zr48  1  0.09700215  0.50444623  0.10051962  1
  Zr  Zr49  1  0.69193764  0.49803690  0.50079347  1
  Sc  Sc50  1  0.51208525  0.90656168  0.29256528  1
  Sc  Sc51  1  0.29619195  0.29563679  0.49593552  1
  Sc  Sc52  1  0.69442985  0.71201172  0.69705809  1
  Sc  Sc53  1  0.30081061  0.10205741  0.69755983  1
  Sc  Sc54  1  0.91111455  0.69812124  0.69952547  1
  Sc  Sc55  1  0.08860986  0.50893764  0.70298427  1
  Sc  Sc56  1  0.91267168  0.69919308  0.10697610  1
  Sc  Sc57  1  0.10093073  0.69584271  0.70962702  1
  Sc  Sc58  1  0.49701004  0.29592669  0.29708401  1
  Sc  Sc59  1  0.10611571  0.69714115  0.90071365  1
  Sc  Sc60  1  0.89881784  0.29614955  0.50547132  1
  Sc  Sc61  1  0.71063353  0.10098414  0.89408787  1
  Sc  Sc62  1  0.10261505  0.91544193  0.49493074  1
  Sc  Sc63  1  0.09642157  0.09941845  0.69012926  1
  Sc  Sc64  1  0.50216474  0.49169059  0.30177073  1
  Sc  Sc65  1  0.90249525  0.30208738  0.29749226  1
  Sc  Sc66  1  0.30358360  0.28995240  0.69938580  1
  Sc  Sc67  1  0.30716474  0.51291756  0.90252449  1
  Sc  Sc68  1  0.89990296  0.90644570  0.89524903  1
  Sc  Sc69  1  0.49941326  0.30229381  0.70709190  1
  Sc  Sc70  1  0.29855507  0.70068215  0.71009987  1
  Sc  Sc71  1  0.49621373  0.10477716  0.11116743  1
  Sc  Sc72  1  0.89588741  0.90413593  0.10296608  1
  Sc  Sc73  1  0.49945855  0.90087313  0.69843919  1
  Sc  Sc74  1  0.70053661  0.70467755  0.49842525  1
  Sc  Sc75  1  0.30728223  0.11023463  0.09628681  1
  Sc  Sc76  1  0.30061235  0.10396719  0.50957754  1
  Sc  Sc77  1  0.89982158  0.10156267  0.49612044  1
  Sc  Sc78  1  0.09813115  0.50018835  0.50448909  1
  Sc  Sc79  1  0.70205215  0.90284073  0.70072383  1
  Sc  Sc80  1  0.71005125  0.10294914  0.10398710  1
  Sc  Sc81  1  0.49980976  0.50288437  0.70920851  1
  Sc  Sc82  1  0.30451718  0.89352538  0.09854746  1
  Sc  Sc83  1  0.89522647  0.90800590  0.49964665  1
  Sc  Sc84  1  0.70053096  0.48954197  0.30767581  1
  Sc  Sc85  1  0.30588656  0.10659123  0.29707322  1
  Sc  Sc86  1  0.10246307  0.89900407  0.30491562  1
  Sc  Sc87  1  0.50027135  0.30738049  0.89694332  1
  Sc  Sc88  1  0.70040402  0.49021397  0.09353631  1
  Sc  Sc89  1  0.09810472  0.29365926  0.49844295  1
  Sc  Sc90  1  0.70529460  0.30094933  0.10199607  1
  Sc  Sc91  1  0.30600909  0.28609791  0.89925809  1
  Sc  Sc92  1  0.69374383  0.48639217  0.69799352  1
  Sc  Sc93  1  0.50396254  0.70431345  0.29532916  1
  Sc  Sc94  1  0.49786686  0.70144753  0.09977964  1
  Sc  Sc95  1  0.89925117  0.49443338  0.49894022  1
  Sc  Sc96  1  0.09304691  0.88757553  0.89891280  1
  Sc  Sc97  1  0.30713742  0.89795577  0.70167901  1
  Sc  Sc98  1  0.89791314  0.10045604  0.69571872  1
  Sc  Sc99  1  0.70510119  0.71209199  0.30872895  1
  Nb  Nb100  1  0.10368879  0.29049973  0.30420724  1
  Nb  Nb101  1  0.70475652  0.90411280  0.29467656  1
  Nb  Nb102  1  0.09195476  0.10684599  0.29754556  1
  Nb  Nb103  1  0.70366762  0.29723585  0.89781373  1
  Nb  Nb104  1  0.10444424  0.49595075  0.90255827  1
  Nb  Nb105  1  0.89679235  0.29969644  0.08762857  1
  Nb  Nb106  1  0.10025799  0.89741713  0.69902342  1
  Nb  Nb107  1  0.49950707  0.09556316  0.49968921  1
  Nb  Nb108  1  0.89852251  0.70253097  0.30339901  1
  Nb  Nb109  1  0.10156063  0.89895219  0.10744392  1
  Nb  Nb110  1  0.89949228  0.50262456  0.70057612  1
  Nb  Nb111  1  0.29622871  0.70220428  0.90134726  1
  Nb  Nb112  1  0.90587905  0.09485809  0.30353965  1
  Nb  Nb113  1  0.09990094  0.09729123  0.90540805  1
  Nb  Nb114  1  0.29958202  0.89984846  0.49913848  1
  Nb  Nb115  1  0.49398774  0.90337608  0.50487399  1
  Nb  Nb116  1  0.50550017  0.50064736  0.90149628  1
  Nb  Nb117  1  0.49958766  0.50135331  0.50156994  1
  Nb  Nb118  1  0.89850908  0.69911846  0.49729349  1
  Nb  Nb119  1  0.89694812  0.29562950  0.89605470  1
  Nb  Nb120  1  0.89464636  0.89759379  0.29866769  1
  Nb  Nb121  1  0.09600605  0.09852090  0.09886840  1
  Nb  Nb122  1  0.69267766  0.29481674  0.29499838  1
  Nb  Nb123  1  0.30406524  0.30190732  0.09849411  1
  Nb  Nb124  1  0.89911502  0.30408490  0.71005184  1
  Nb  Nb125  1  0.19723266  0.39939702  0.80387593  1
  Nb  Nb126  1  0.59941757  0.00625569  -0.00041303  1
  Nb  Nb127  1  -0.00380524  0.60470517  0.39547764  1
  Nb  Nb128  1  0.39561053  0.40664730  0.59666845  1
  Nb  Nb129  1  0.40601359  0.60384039  0.40636307  1
  Nb  Nb130  1  0.59690256  0.19739741  0.59538041  1
  Nb  Nb131  1  0.20157191  0.59806712  0.19767669  1
  Nb  Nb132  1  0.00638841  0.80091757  0.59264756  1
  Nb  Nb133  1  0.19790058  0.39567241  -0.00391827  1
  Nb  Nb134  1  0.19363625  -0.00062366  0.80487357  1
  Nb  Nb135  1  0.60404490  0.19867178  -0.00347974  1
  Nb  Nb136  1  0.19231515  0.00673774  0.19445669  1
  Nb  Nb137  1  0.19562876  0.80465719  0.60048321  1
  Nb  Nb138  1  0.80072123  0.59614151  0.79340559  1
  Nb  Nb139  1  0.40352729  -0.00358151  0.40554976  1
  Nb  Nb140  1  0.19169248  0.00104805  0.00252881  1
  Nb  Nb141  1  0.00324090  0.00390109  0.20312815  1
  Nb  Nb142  1  -0.00672753  0.79705617  0.40137721  1
  Nb  Nb143  1  0.79850793  0.60015020  0.20383375  1
  Nb  Nb144  1  0.40150112  0.80381858  0.40673527  1
  Nb  Nb145  1  0.80262130  0.59750359  0.60386564  1
  Nb  Nb146  1  0.20123499  0.40002512  0.60880878  1
  Nb  Nb147  1  0.60823779  0.59690012  0.19996010  1
  Nb  Nb148  1  0.79784647  0.79905707  -0.00129842  1
  Nb  Nb149  1  0.00248313  0.39184608  -0.00332400  1
  Pd  Pd150  1  0.60830520  0.59856311  0.78914569  1
  Pd  Pd151  1  0.79922101  -0.00091522  0.39822486  1
  Pd  Pd152  1  0.39068237  0.40251126  0.79873018  1
  Pd  Pd153  1  0.40103870  -0.00005372  0.00996744  1
  Pd  Pd154  1  0.59695727  0.60191479  0.39122259  1
  Pd  Pd155  1  -0.00809028  0.19768698  0.59979119  1
  Pd  Pd156  1  0.60825791  0.60034577  0.60829474  1
  Pd  Pd157  1  0.80588777  0.20417300  0.39224882  1
  Pd  Pd158  1  0.39321140  0.39677663  -0.01088944  1
  Pd  Pd159  1  0.40370970  0.39667719  0.20144220  1
  Pd  Pd160  1  0.80568011  0.20231701  0.20643341  1
  Pd  Pd161  1  0.80674793  0.79606064  0.59975664  1
  Pd  Pd162  1  0.40512628  0.59919238  0.20943419  1
  Pd  Pd163  1  0.80168399  0.39272228  0.39782086  1
  Pd  Pd164  1  0.19772870  0.19340127  0.79400614  1
  Pd  Pd165  1  0.20433207  0.19265921  0.40156086  1
  Pd  Pd166  1  0.40213763  0.59599882  0.59939434  1
  Pd  Pd167  1  0.20146164  0.40098298  0.19212894  1
  Pd  Pd168  1  0.00189790  0.39954248  0.59999225  1
  Pd  Pd169  1  -0.00844529  0.80857933  0.00261545  1
  Pd  Pd170  1  0.00735215  0.00601366  0.79712437  1
  Pd  Pd171  1  0.20363984  0.19842045  0.00123133  1
  Pd  Pd172  1  0.00094745  0.38769755  0.19361139  1
  Pd  Pd173  1  0.60118466  0.80821176  -0.00208951  1
  Pd  Pd174  1  0.20427663  -0.00305861  0.60846869  1
  Pd  Pd175  1  0.39946013  0.80255281  0.20843558  1
  Pd  Pd176  1  0.60016136  0.20497480  0.40388539  1
  Pd  Pd177  1  0.40502749  0.79570231  -0.00458057  1
  Pd  Pd178  1  0.80564260  0.00438279  0.79825976  1
  Pd  Pd179  1  0.39213348  -0.00327935  0.20490232  1
  Pd  Pd180  1  0.00469880  0.40173147  0.80257449  1
  Pd  Pd181  1  0.58636493  0.39042038  0.60068033  1
  Pd  Pd182  1  0.20762840  0.01398126  0.39232968  1
  Pd  Pd183  1  0.80575468  0.40300446  0.60133939  1
  Pd  Pd184  1  0.80417978  0.79405394  0.79892764  1
  Pd  Pd185  1  0.60206423  0.00050565  0.60148739  1
  Pd  Pd186  1  0.80488562  0.60667952  0.00313535  1
  Pd  Pd187  1  0.79383944  0.40480022  0.80307207  1
  Pd  Pd188  1  0.00087763  0.59640605  -0.00402902  1
  Pd  Pd189  1  0.59363265  0.80728271  0.39478134  1
  Pd  Pd190  1  0.00289606  0.39664488  0.40565546  1
  Pd  Pd191  1  0.00225846  -0.00932176  0.00507021  1
  Pd  Pd192  1  0.59568310  0.39148398  0.39755130  1
  Pd  Pd193  1  0.20729884  0.19463520  0.20017598  1
  Pd  Pd194  1  0.80046170  0.59657094  0.40177194  1
  Pd  Pd195  1  0.80096239  0.79216494  0.19253514  1
  Pd  Pd196  1  0.80002512  0.00093375  0.60007616  1
  Pd  Pd197  1  0.59588379  0.19943621  0.80012640  1
  Pd  Pd198  1  -0.01052823  0.20061724  0.20040349  1
  Pd  Pd199  1  0.79582935  0.40067155  0.20230927  1
  Rh  Rh200  1  0.59961021  -0.00021222  0.80390310  1
  Rh  Rh201  1  0.60372309  0.40188044  0.20312594  1
  Rh  Rh202  1  0.39556087  0.18906246  0.39987157  1
  Rh  Rh203  1  0.60446040  0.20149421  0.19297649  1
  Rh  Rh204  1  0.79357382  0.20334930  -0.00512293  1
  Rh  Rh205  1  -0.00403555  0.81297049  0.20707706  1
  Rh  Rh206  1  0.39282746  0.80284842  0.59956139  1
  Rh  Rh207  1  0.80315215  0.81020537  0.40354677  1
  Rh  Rh208  1  0.19970184  0.80422096  0.79562174  1
  Rh  Rh209  1  -0.00261131  0.59853736  0.80978364  1
  Rh  Rh210  1  0.39125666  0.00123159  0.79312851  1
  Rh  Rh211  1  0.41212920  0.20579095  0.00227953  1
  Rh  Rh212  1  0.59457569  0.80633610  0.79503575  1
  Rh  Rh213  1  0.60280925  0.40004121  0.80583126  1
  Rh  Rh214  1  0.60501219  0.01027284  0.19365238  1
  Rh  Rh215  1  0.60144177  0.80981969  0.60171275  1
  Rh  Rh216  1  0.40782494  0.60514895  -0.00628603  1
  Rh  Rh217  1  0.19517306  0.20488608  0.59946752  1
  Rh  Rh218  1  0.80893665  0.00582014  0.20737623  1
  Rh  Rh219  1  0.19481563  0.80195638  0.41300139  1
  Rh  Rh220  1  0.19219349  0.59674231  0.38664771  1
  Rh  Rh221  1  0.20677582  0.79946244  0.19236279  1
  Rh  Rh222  1  -0.00190139  -0.00341247  0.59600305  1
  Rh  Rh223  1  0.60433574  0.38813006  -0.00647816  1
  Rh  Rh224  1  0.39942811  0.40973643  0.40793734  1
  Rh  Rh225  1  0.19133601  0.39357774  0.41004256  1
  Rh  Rh226  1  0.19860384  0.59636269  0.80762615  1
  Rh  Rh227  1  0.40517582  0.19860422  0.79734218  1
  Rh  Rh228  1  0.20139159  0.59696358  0.00317645  1
  Rh  Rh229  1  0.39449619  -0.00164219  0.59684138  1
  Rh  Rh230  1  0.19337866  0.60135326  0.61325282  1
  Rh  Rh231  1  0.79354788  -0.00686862  -0.00326457  1
  Rh  Rh232  1  0.59635867  -0.00470421  0.39798381  1
  Rh  Rh233  1  0.00252512  0.79798967  0.79478200  1
  Rh  Rh234  1  -0.00527236  0.20640061  0.39689113  1
  Rh  Rh235  1  0.80239253  0.39155080  -0.00860234  1
  Rh  Rh236  1  0.40727349  0.20622951  0.60096525  1
  Rh  Rh237  1  0.19983979  0.80628098  0.00166175  1
  Rh  Rh238  1  -0.00802005  0.60461540  0.59141908  1
  Rh  Rh239  1  -0.00540851  0.19095967  0.79169795  1
  Rh  Rh240  1  0.39589222  0.21025940  0.20081933  1
  Rh  Rh241  1  -0.00169780  0.20436418  0.00297079  1
  Rh  Rh242  1  0.60668907  0.79345078  0.20454145  1
  Rh  Rh243  1  0.59347880  0.59938879  0.00737435  1
  Rh  Rh244  1  0.79805291  0.20072893  0.60361070  1
  Rh  Rh245  1  0.80896576  0.19736262  0.79827185  1
  Rh  Rh246  1  0.39981945  0.79518795  0.80311383  1
  Rh  Rh247  1  0.40199025  0.60405956  0.80640782  1
  Rh  Rh248  1  -0.00000441  0.59854090  0.20574207  1
  Rh  Rh249  1  -0.00388507  -0.00673300  0.39276895  1
