# generated using pymatgen
data_ZrScNbPdRh
_symmetry_space_group_name_H-M   'P 1'
_cell_length_a   16.56042925
_cell_length_b   16.55677064
_cell_length_c   16.56050850
_cell_angle_alpha   89.98339718
_cell_angle_beta   90.02026086
_cell_angle_gamma   90.00529974
_symmetry_Int_Tables_number   1
_chemical_formula_structural   ZrScNbPdRh
_chemical_formula_sum   'Zr50 Sc50 Nb50 Pd50 Rh50'
_cell_volume   4540.67943820
_cell_formula_units_Z   50
loop_
 _symmetry_equiv_pos_site_id
 _symmetry_equiv_pos_as_xyz
  1  'x, y, z'
loop_
 _atom_site_type_symbol
 _atom_site_label
 _atom_site_symmetry_multiplicity
 _atom_site_fract_x
 _atom_site_fract_y
 _atom_site_fract_z
 _atom_site_occupancy
  Zr  Zr0  1  0.09692901  0.09771493  0.09788083  1
  Zr  Zr1  1  0.08768339  0.49156083  0.69943410  1
  Zr  Zr2  1  0.69462302  0.89923029  0.50351702  1
  Zr  Zr3  1  0.30341512  0.50480056  0.50614775  1
  Zr  Zr4  1  0.29984805  0.49960638  0.89351642  1
  Zr  Zr5  1  0.50427757  0.29892638  0.89383897  1
  Zr  Zr6  1  0.69411151  0.71069583  0.10295668  1
  Zr  Zr7  1  0.09347639  0.49765405  0.30226221  1
  Zr  Zr8  1  0.70213298  0.10082985  0.69762702  1
  Zr  Zr9  1  0.50396483  0.09916956  0.10156929  1
  Zr  Zr10  1  0.50303582  0.29553315  0.29630629  1
  Zr  Zr11  1  0.89330298  0.10496326  0.89804772  1
  Zr  Zr12  1  0.10536619  0.89482336  0.50401795  1
  Zr  Zr13  1  0.71169093  0.70022398  0.69988294  1
  Zr  Zr14  1  0.49364996  0.10352869  0.49638999  1
  Zr  Zr15  1  0.10364865  0.29707735  0.70208575  1
  Zr  Zr16  1  0.10563136  0.09943139  0.49274576  1
  Zr  Zr17  1  0.89072115  0.28765580  0.49867947  1
  Zr  Zr18  1  0.50248258  0.30238763  0.10726015  1
  Zr  Zr19  1  0.50163968  0.09952754  0.69878126  1
  Zr  Zr20  1  0.50746126  0.90272472  0.69584055  1
  Zr  Zr21  1  0.89103930  0.89963550  0.49024078  1
  Zr  Zr22  1  0.50286837  0.89070356  0.88402448  1
  Zr  Zr23  1  0.90952188  0.30406610  0.70506671  1
  Zr  Zr24  1  0.30754865  0.70331874  0.09401648  1
  Zr  Zr25  1  0.49801459  0.69820611  0.49139232  1
  Zr  Zr26  1  0.89592281  0.50355644  0.70459099  1
  Zr  Zr27  1  0.09384314  0.09086665  0.29706258  1
  Zr  Zr28  1  0.09004389  0.49933954  0.09965015  1
  Zr  Zr29  1  0.10528379  0.30772967  0.90015158  1
  Zr  Zr30  1  0.30261716  0.89181019  0.69604023  1
  Zr  Zr31  1  0.70745729  0.89956389  0.89980454  1
  Zr  Zr32  1  0.69965950  0.29984793  0.29583807  1
  Zr  Zr33  1  0.69468363  0.29333415  0.50053380  1
  Zr  Zr34  1  0.51218060  0.69890095  0.28603114  1
  Zr  Zr35  1  0.70709731  0.10294221  0.90753013  1
  Zr  Zr36  1  0.30189726  0.50781570  0.09669327  1
  Zr  Zr37  1  0.50027894  0.50600582  0.29259761  1
  Zr  Zr38  1  0.70380160  0.50247787  0.70244017  1
  Zr  Zr39  1  0.89936927  0.50175716  0.28842181  1
  Zr  Zr40  1  0.10449299  0.09886302  0.70123773  1
  Zr  Zr41  1  0.30537626  0.09193246  0.09680800  1
  Zr  Zr42  1  0.30564156  0.90168424  0.49079885  1
  Zr  Zr43  1  0.49847630  0.49869573  0.51028876  1
  Zr  Zr44  1  0.30686305  0.50107132  0.70282655  1
  Zr  Zr45  1  0.70402159  0.30109430  0.90166615  1
  Zr  Zr46  1  0.50457148  0.69765143  0.90564495  1
  Zr  Zr47  1  0.09705803  0.30129082  0.29757414  1
  Zr  Zr48  1  0.69311018  0.29595815  0.69586918  1
  Zr  Zr49  1  0.89373319  0.09695361  0.10657838  1
  Sc  Sc50  1  0.69495517  0.89802405  0.70064406  1
  Sc  Sc51  1  0.30619862  0.29219147  0.29869076  1
  Sc  Sc52  1  0.09524462  0.69762097  0.08979441  1
  Sc  Sc53  1  0.49914084  0.71005526  0.70938896  1
  Sc  Sc54  1  0.30418973  0.69525201  0.69951142  1
  Sc  Sc55  1  0.70734192  0.49512585  0.09138037  1
  Sc  Sc56  1  0.32517796  0.69969149  0.30305902  1
  Sc  Sc57  1  0.49847174  0.09221452  0.89804000  1
  Sc  Sc58  1  0.89707416  0.69989888  0.50857068  1
  Sc  Sc59  1  0.89890034  0.89493930  0.71080649  1
  Sc  Sc60  1  0.29700687  0.29606086  0.09616438  1
  Sc  Sc61  1  0.29945365  0.70081947  0.50921194  1
  Sc  Sc62  1  0.89495146  0.89837632  0.10962702  1
  Sc  Sc63  1  0.69483664  0.09930460  0.29495226  1
  Sc  Sc64  1  0.49718847  0.30425709  0.69444993  1
  Sc  Sc65  1  0.49656251  0.10681268  0.29957064  1
  Sc  Sc66  1  0.70281544  0.70476777  0.50055429  1
  Sc  Sc67  1  0.10152249  0.09942471  0.88949422  1
  Sc  Sc68  1  0.30309986  0.09988881  0.89574356  1
  Sc  Sc69  1  0.30658342  0.49865434  0.30108846  1
  Sc  Sc70  1  0.49151387  0.89356611  0.30727846  1
  Sc  Sc71  1  0.30079536  0.28848724  0.50260664  1
  Sc  Sc72  1  0.70101983  0.89326079  0.30157684  1
  Sc  Sc73  1  0.49701512  0.49925200  0.69912155  1
  Sc  Sc74  1  0.30480374  0.69710273  0.90469627  1
  Sc  Sc75  1  0.50267518  0.90442585  0.50209519  1
  Sc  Sc76  1  0.49469382  0.90336924  0.09955484  1
  Sc  Sc77  1  0.89401099  0.71398562  0.90293943  1
  Sc  Sc78  1  0.09343668  0.70934033  0.68981758  1
  Sc  Sc79  1  0.50425673  0.50342870  0.90191342  1
  Sc  Sc80  1  0.70146330  0.70573256  0.91074860  1
  Sc  Sc81  1  0.10380455  0.30002625  0.49510736  1
  Sc  Sc82  1  0.91097399  0.50118428  0.50527734  1
  Sc  Sc83  1  0.08076105  0.69601814  0.28768280  1
  Sc  Sc84  1  0.88825486  0.70103983  0.29615835  1
  Sc  Sc85  1  0.09122064  0.89465555  0.10844283  1
  Sc  Sc86  1  0.89681280  0.29683141  0.29552854  1
  Sc  Sc87  1  0.69458955  0.51297560  0.50820436  1
  Sc  Sc88  1  0.30088469  0.09130510  0.30376492  1
  Sc  Sc89  1  0.89444116  0.90081193  0.29591367  1
  Sc  Sc90  1  0.89597020  0.30507572  0.10611749  1
  Sc  Sc91  1  0.09501114  0.50024339  0.91482883  1
  Sc  Sc92  1  0.30269666  0.11361106  0.69899300  1
  Sc  Sc93  1  0.30984357  0.89571042  0.90627028  1
  Sc  Sc94  1  0.89965765  0.70339355  0.10681327  1
  Sc  Sc95  1  0.69911507  0.29323385  0.10027417  1
  Sc  Sc96  1  0.09725521  0.49679019  0.49965908  1
  Sc  Sc97  1  0.69868238  0.10811230  0.49639997  1
  Sc  Sc98  1  0.09633939  0.69606006  0.50740551  1
  Sc  Sc99  1  0.89904716  0.10410928  0.71367284  1
  Nb  Nb100  1  0.10237797  0.89914419  0.30161464  1
  Nb  Nb101  1  0.30013043  0.89876610  0.10418106  1
  Nb  Nb102  1  0.90524300  0.90679986  0.89450325  1
  Nb  Nb103  1  0.09928609  0.30054118  0.09622897  1
  Nb  Nb104  1  0.29777218  0.09834670  0.50003228  1
  Nb  Nb105  1  0.70211292  0.69294091  0.29976766  1
  Nb  Nb106  1  0.70670295  0.50359272  0.89747721  1
  Nb  Nb107  1  0.70083221  0.91821979  0.10587610  1
  Nb  Nb108  1  0.30145427  0.30980115  0.71141852  1
  Nb  Nb109  1  0.89922265  0.09821011  0.30738616  1
  Nb  Nb110  1  0.69850131  0.08719573  0.09703297  1
  Nb  Nb111  1  0.50347618  0.30214579  0.49670125  1
  Nb  Nb112  1  0.89780389  0.09886345  0.49761738  1
  Nb  Nb113  1  0.10068250  0.90547316  0.70310956  1
  Nb  Nb114  1  0.50282566  0.68665755  0.09723812  1
  Nb  Nb115  1  0.30511644  0.30506791  0.89417715  1
  Nb  Nb116  1  0.89077428  0.49584618  0.90158785  1
  Nb  Nb117  1  0.29859459  0.89469434  0.29528457  1
  Nb  Nb118  1  0.09460642  0.89901822  0.89508947  1
  Nb  Nb119  1  0.70523396  0.50372991  0.30502029  1
  Nb  Nb120  1  0.49783672  0.50587525  0.09804029  1
  Nb  Nb121  1  0.09948340  0.70298674  0.90153898  1
  Nb  Nb122  1  0.89699624  0.69183140  0.70414109  1
  Nb  Nb123  1  0.90331467  0.49624209  0.09486789  1
  Nb  Nb124  1  0.90430403  0.29638698  0.89788966  1
  Nb  Nb125  1  0.40275446  0.39779877  -0.00000956  1
  Nb  Nb126  1  0.00320211  0.80327753  0.39871265  1
  Nb  Nb127  1  0.18591403  0.60511865  0.80203933  1
  Nb  Nb128  1  0.19692133  0.79390199  0.38808984  1
  Nb  Nb129  1  0.80716839  0.00522264  0.59718012  1
  Nb  Nb130  1  0.19357554  0.19938977  0.19557655  1
  Nb  Nb131  1  0.19499767  -0.01026738  -0.00109217  1
  Nb  Nb132  1  0.79881288  0.39763836  0.59745263  1
  Nb  Nb133  1  -0.00196271  0.00126750  0.59943511  1
  Nb  Nb134  1  0.60079370  0.40471108  0.39848931  1
  Nb  Nb135  1  0.79320904  0.40544082  0.40208033  1
  Nb  Nb136  1  0.19536585  0.39982048  0.19757298  1
  Nb  Nb137  1  0.20533306  0.39645988  0.60687194  1
  Nb  Nb138  1  0.19239516  0.80033140  0.80392933  1
  Nb  Nb139  1  0.00028475  -0.00092201  -0.00587100  1
  Nb  Nb140  1  0.40190444  0.20679418  -0.00346275  1
  Nb  Nb141  1  0.61079143  0.60046260  0.80448208  1
  Nb  Nb142  1  0.40938422  0.39655031  0.40375342  1
  Nb  Nb143  1  0.20491588  0.79716870  0.20423310  1
  Nb  Nb144  1  0.20046431  0.00070969  0.59990441  1
  Nb  Nb145  1  -0.00050486  0.20191907  -0.00036514  1
  Nb  Nb146  1  0.19848535  0.60614342  0.39109438  1
  Nb  Nb147  1  -0.00341949  0.60496827  0.80573263  1
  Nb  Nb148  1  0.20112999  0.60270652  0.20270730  1
  Nb  Nb149  1  0.00042244  0.19096432  0.59696116  1
  Pd  Pd150  1  0.00103499  0.79358954  0.79635184  1
  Pd  Pd151  1  0.20801465  0.40346583  0.00505110  1
  Pd  Pd152  1  0.19857473  -0.00295941  0.19401073  1
  Pd  Pd153  1  0.59797300  0.40839458  0.79899153  1
  Pd  Pd154  1  0.41123002  0.80260215  0.00266788  1
  Pd  Pd155  1  0.60285589  0.79685352  0.39880193  1
  Pd  Pd156  1  0.80286012  0.60626707  0.00436744  1
  Pd  Pd157  1  -0.00177061  0.61015925  0.40212436  1
  Pd  Pd158  1  0.20491780  0.20199915  0.80563668  1
  Pd  Pd159  1  0.20372698  0.19747584  0.38786124  1
  Pd  Pd160  1  0.80349003  0.81095221  0.00821904  1
  Pd  Pd161  1  0.39156067  0.39832375  0.19841873  1
  Pd  Pd162  1  -0.00141691  -0.00787239  0.40081222  1
  Pd  Pd163  1  0.39410772  -0.00101400  0.79480636  1
  Pd  Pd164  1  0.59314134  -0.00847667  -0.00856293  1
  Pd  Pd165  1  0.40594536  -0.00112226  0.20792711  1
  Pd  Pd166  1  0.80395811  0.80938164  0.60543284  1
  Pd  Pd167  1  0.40089202  0.20663520  0.60237291  1
  Pd  Pd168  1  0.79531992  0.59829686  0.18865112  1
  Pd  Pd169  1  0.20272857  0.19207604  -0.00210484  1
  Pd  Pd170  1  -0.00032400  0.20118420  0.19554333  1
  Pd  Pd171  1  0.59664687  0.81142478  0.00725050  1
  Pd  Pd172  1  0.40716538  0.79741366  0.59527539  1
  Pd  Pd173  1  0.21273885  0.40575772  0.40238723  1
  Pd  Pd174  1  0.81036141  -0.00791786  0.00029270  1
  Pd  Pd175  1  0.59823063  0.00260965  0.39689750  1
  Pd  Pd176  1  0.60133888  0.19318293  0.80178826  1
  Pd  Pd177  1  0.80711506  0.59820440  0.40860977  1
  Pd  Pd178  1  0.78855031  0.00524220  0.39860605  1
  Pd  Pd179  1  0.61375015  0.59016627  0.18905768  1
  Pd  Pd180  1  0.39345162  0.00308339  0.60248820  1
  Pd  Pd181  1  0.19121804  0.59302177  0.60518750  1
  Pd  Pd182  1  0.59736683  0.40589437  0.00110318  1
  Pd  Pd183  1  0.80380802  0.39199424  0.00091261  1
  Pd  Pd184  1  -0.01562788  0.60469626  -0.00675252  1
  Pd  Pd185  1  -0.01113898  0.80736452  0.59848433  1
  Pd  Pd186  1  0.59959007  0.59827906  0.40032937  1
  Pd  Pd187  1  0.59809657  0.81166734  0.19563834  1
  Pd  Pd188  1  0.79870042  0.39201065  0.79513638  1
  Pd  Pd189  1  0.59712308  0.19745836  0.00226903  1
  Pd  Pd190  1  0.59153001  -0.00611894  0.21196437  1
  Pd  Pd191  1  -0.01392245  0.39404973  0.40146775  1
  Pd  Pd192  1  0.60908828  0.41059038  0.19995361  1
  Pd  Pd193  1  -0.00619779  0.80812925  0.00255585  1
  Pd  Pd194  1  0.60802055  0.00394624  0.80495927  1
  Pd  Pd195  1  0.00029116  0.20246406  0.40074136  1
  Pd  Pd196  1  0.59413294  0.61236778  0.61354840  1
  Pd  Pd197  1  0.21281190  -0.00980321  0.80155846  1
  Pd  Pd198  1  0.79482678  0.19363469  0.19933208  1
  Pd  Pd199  1  0.19669829  0.80529686  0.00247663  1
  Rh  Rh200  1  -0.00017319  0.60209195  0.60856753  1
  Rh  Rh201  1  0.39021732  0.39066947  0.59457565  1
  Rh  Rh202  1  0.19991158  0.20224556  0.60190245  1
  Rh  Rh203  1  0.80521111  0.20496814  0.00659283  1
  Rh  Rh204  1  0.00028389  0.80324936  0.20608462  1
  Rh  Rh205  1  0.39943152  0.79959593  0.40434057  1
  Rh  Rh206  1  0.40007759  0.00089777  0.39662555  1
  Rh  Rh207  1  0.81127918  0.19848183  0.61312340  1
  Rh  Rh208  1  0.20059868  0.60205648  -0.00030049  1
  Rh  Rh209  1  0.40810577  0.60215922  0.80264230  1
  Rh  Rh210  1  0.19448455  0.41133036  0.79691036  1
  Rh  Rh211  1  -0.00399534  0.00376067  0.79972340  1
  Rh  Rh212  1  0.39814920  0.60543773  0.19581240  1
  Rh  Rh213  1  -0.00022101  0.38242263  0.58791161  1
  Rh  Rh214  1  0.78852250  0.80095189  0.19996977  1
  Rh  Rh215  1  0.20259642  0.80361755  0.60289450  1
  Rh  Rh216  1  0.40370456  0.79679455  0.19229880  1
  Rh  Rh217  1  0.40274834  0.20265059  0.80217359  1
  Rh  Rh218  1  0.79774768  0.40545310  0.20185287  1
  Rh  Rh219  1  0.41043931  0.40340061  0.80548635  1
  Rh  Rh220  1  0.79419455  0.20871224  0.79851884  1
  Rh  Rh221  1  0.58849463  0.19447250  0.59844685  1
  Rh  Rh222  1  -0.00739777  -0.00382738  0.20150005  1
  Rh  Rh223  1  0.59772167  0.20231411  0.39742266  1
  Rh  Rh224  1  0.39112957  0.19347932  0.19194427  1
  Rh  Rh225  1  0.39755030  0.59363903  0.40484863  1
  Rh  Rh226  1  0.00583491  0.20066830  0.80391319  1
  Rh  Rh227  1  0.20517833  -0.00550295  0.40198139  1
  Rh  Rh228  1  0.80191431  0.60898588  0.81451049  1
  Rh  Rh229  1  0.79907699  0.00366488  0.20953677  1
  Rh  Rh230  1  0.79981296  0.80134292  0.80122486  1
  Rh  Rh231  1  0.80616242  0.59231656  0.59331694  1
  Rh  Rh232  1  0.60630300  0.19132355  0.19256803  1
  Rh  Rh233  1  0.38900182  0.79533190  0.80325775  1
  Rh  Rh234  1  0.60707213  0.59494274  -0.00137030  1
  Rh  Rh235  1  0.60806967  0.40053156  0.59592314  1
  Rh  Rh236  1  0.39794608  0.00091670  -0.00403064  1
  Rh  Rh237  1  -0.01129061  0.39146667  -0.00127853  1
  Rh  Rh238  1  0.00050252  0.41099589  0.81688397  1
  Rh  Rh239  1  0.61178358  0.79049968  0.79915430  1
  Rh  Rh240  1  0.79495563  -0.00480565  0.79276004  1
  Rh  Rh241  1  -0.00453091  0.59942465  0.19162002  1
  Rh  Rh242  1  0.40932000  0.61038689  0.60549436  1
  Rh  Rh243  1  0.59612355  0.79615653  0.59814130  1
  Rh  Rh244  1  -0.00056391  0.39785091  0.19687981  1
  Rh  Rh245  1  0.79811897  0.19816034  0.38724885  1
  Rh  Rh246  1  0.39731859  0.20151430  0.40206393  1
  Rh  Rh247  1  0.80006298  0.79203488  0.39557768  1
  Rh  Rh248  1  0.60871019  0.00752283  0.59379430  1
  Rh  Rh249  1  0.40336661  0.59330988  -0.00507530  1
