# generated using pymatgen
data_ZrScNbPdRh
_symmetry_space_group_name_H-M   'P 1'
_cell_length_a   16.55403790
_cell_length_b   16.55660253
_cell_length_c   16.55604932
_cell_angle_alpha   90.01521320
_cell_angle_beta   90.00412478
_cell_angle_gamma   89.98405304
_symmetry_Int_Tables_number   1
_chemical_formula_structural   ZrScNbPdRh
_chemical_formula_sum   'Zr50 Sc50 Nb50 Pd50 Rh50'
_cell_volume   4537.65890005
_cell_formula_units_Z   50
loop_
 _symmetry_equiv_pos_site_id
 _symmetry_equiv_pos_as_xyz
  1  'x, y, z'
loop_
 _atom_site_type_symbol
 _atom_site_label
 _atom_site_symmetry_multiplicity
 _atom_site_fract_x
 _atom_site_fract_y
 _atom_site_fract_z
 _atom_site_occupancy
  Zr  Zr0  1  0.89292277  0.29234121  0.09115939  1
  Zr  Zr1  1  0.30324242  0.89090195  0.30588832  1
  Zr  Zr2  1  0.50751441  0.89858743  0.10500222  1
  Zr  Zr3  1  0.28921723  0.48995533  0.30233101  1
  Zr  Zr4  1  0.50720823  0.30039507  0.50331571  1
  Zr  Zr5  1  0.49781356  0.49653445  0.69627612  1
  Zr  Zr6  1  0.69308311  0.70892939  0.69993637  1
  Zr  Zr7  1  0.89966273  0.89811812  0.29812961  1
  Zr  Zr8  1  0.09662297  0.49467629  0.90511274  1
  Zr  Zr9  1  0.70359813  0.89181162  0.10444245  1
  Zr  Zr10  1  0.49912338  0.49483945  0.50103272  1
  Zr  Zr11  1  0.50630696  0.49664715  0.28700750  1
  Zr  Zr12  1  0.89367523  0.09508039  0.69097572  1
  Zr  Zr13  1  0.90179906  0.49512200  0.50116561  1
  Zr  Zr14  1  0.10499498  0.70266385  0.30565643  1
  Zr  Zr15  1  0.70152721  0.10647180  0.30401035  1
  Zr  Zr16  1  0.69759580  0.49774351  0.70009875  1
  Zr  Zr17  1  0.70249744  0.09843155  0.70416054  1
  Zr  Zr18  1  0.30393151  0.70645045  0.90376127  1
  Zr  Zr19  1  0.10458128  0.08921353  0.10103804  1
  Zr  Zr20  1  0.50356177  0.69784366  0.69885905  1
  Zr  Zr21  1  0.50715446  0.70642969  0.90260601  1
  Zr  Zr22  1  0.89692908  0.10760840  0.89607998  1
  Zr  Zr23  1  0.09204679  0.30155859  0.09700759  1
  Zr  Zr24  1  0.90190462  0.88834130  0.90282533  1
  Zr  Zr25  1  0.10316898  0.29987148  0.30082919  1
  Zr  Zr26  1  0.69643653  0.30020782  0.09692209  1
  Zr  Zr27  1  0.08821726  0.49757395  0.29601958  1
  Zr  Zr28  1  0.09011036  0.70037124  0.90352018  1
  Zr  Zr29  1  0.10138555  0.89750734  0.89782244  1
  Zr  Zr30  1  0.09306259  0.29837160  0.90169782  1
  Zr  Zr31  1  0.91130471  0.69808568  0.29693889  1
  Zr  Zr32  1  0.90549932  0.90749590  0.50481299  1
  Zr  Zr33  1  0.29686144  0.49952067  0.49852137  1
  Zr  Zr34  1  0.89656850  0.49775876  0.70011673  1
  Zr  Zr35  1  0.30088407  0.90356958  0.70416962  1
  Zr  Zr36  1  0.30195261  0.09534275  0.10323593  1
  Zr  Zr37  1  0.89979675  0.71217584  0.09408171  1
  Zr  Zr38  1  0.30947907  0.10037243  0.69815123  1
  Zr  Zr39  1  0.49167767  0.10616189  0.50307460  1
  Zr  Zr40  1  0.30128238  0.90025445  0.09465174  1
  Zr  Zr41  1  0.89519671  0.50426037  0.30813642  1
  Zr  Zr42  1  0.69938597  0.49259939  0.49124951  1
  Zr  Zr43  1  0.89667287  0.69536138  0.89979231  1
  Zr  Zr44  1  0.10011119  0.09897642  0.48897494  1
  Zr  Zr45  1  0.69325446  0.90297826  0.29836064  1
  Zr  Zr46  1  0.50498938  0.11144509  0.70116243  1
  Zr  Zr47  1  0.70785034  0.10973606  0.50087988  1
  Zr  Zr48  1  0.49888933  0.10707931  0.29833546  1
  Zr  Zr49  1  0.29991260  0.49978401  0.69815251  1
  Sc  Sc50  1  0.09369507  0.90224329  0.10143229  1
  Sc  Sc51  1  0.69449713  0.70282981  0.49640618  1
  Sc  Sc52  1  0.51258308  0.70415114  0.09929531  1
  Sc  Sc53  1  0.69827452  0.30312254  0.30502195  1
  Sc  Sc54  1  0.50984182  0.10940907  0.10922761  1
  Sc  Sc55  1  0.29092444  0.49071592  0.90647754  1
  Sc  Sc56  1  0.09268817  0.29470348  0.49072948  1
  Sc  Sc57  1  0.50756252  0.90362988  0.70789115  1
  Sc  Sc58  1  0.90241819  0.30031717  0.69892689  1
  Sc  Sc59  1  0.09607698  0.10159018  0.89652906  1
  Sc  Sc60  1  0.29288422  0.30325556  0.89452161  1
  Sc  Sc61  1  0.70106156  0.70264590  0.30367992  1
  Sc  Sc62  1  0.10052445  0.50364319  0.49362583  1
  Sc  Sc63  1  0.90079652  0.49401829  0.10318227  1
  Sc  Sc64  1  0.70331373  0.10220198  0.89057661  1
  Sc  Sc65  1  0.30608469  0.30199607  0.48685667  1
  Sc  Sc66  1  0.90228204  0.30898506  0.29874225  1
  Sc  Sc67  1  0.50114976  0.89946347  0.90271662  1
  Sc  Sc68  1  0.28775344  0.69852861  0.49231754  1
  Sc  Sc69  1  0.69899723  0.30107152  0.49468907  1
  Sc  Sc70  1  0.49539376  0.90007403  0.49564192  1
  Sc  Sc71  1  0.10252591  0.49704764  0.09770957  1
  Sc  Sc72  1  0.30047257  0.69731661  0.70218083  1
  Sc  Sc73  1  0.50314192  0.70229614  0.50602848  1
  Sc  Sc74  1  0.09142522  0.50321695  0.69213731  1
  Sc  Sc75  1  0.69877384  0.89592409  0.49959820  1
  Sc  Sc76  1  0.29924534  0.30248736  0.11023178  1
  Sc  Sc77  1  0.29787691  0.91609030  0.49484026  1
  Sc  Sc78  1  0.09337903  0.69185360  0.10756823  1
  Sc  Sc79  1  0.70459542  0.70072867  0.90316123  1
  Sc  Sc80  1  0.70567187  0.10890708  0.11002778  1
  Sc  Sc81  1  0.09105205  0.09995450  0.70051483  1
  Sc  Sc82  1  0.09844533  0.90279231  0.49793270  1
  Sc  Sc83  1  0.31274677  0.90500557  0.90443545  1
  Sc  Sc84  1  0.50402023  0.09683734  0.89227302  1
  Sc  Sc85  1  0.10324721  0.89857131  0.30300795  1
  Sc  Sc86  1  0.68948903  0.49814862  0.09815459  1
  Sc  Sc87  1  0.90436043  0.90298986  0.70090304  1
  Sc  Sc88  1  0.49902621  0.71191409  0.29469257  1
  Sc  Sc89  1  0.09503749  0.70180972  0.50016459  1
  Sc  Sc90  1  0.09302773  0.70204990  0.70077730  1
  Sc  Sc91  1  0.70068503  0.49607524  0.29801248  1
  Sc  Sc92  1  0.70681921  0.90562981  0.70223297  1
  Sc  Sc93  1  0.70407567  0.89539085  0.88956163  1
  Sc  Sc94  1  0.09704668  0.29560963  0.70696727  1
  Sc  Sc95  1  0.70820993  0.29453743  0.90670950  1
  Sc  Sc96  1  0.30799663  0.29891887  0.70648755  1
  Sc  Sc97  1  0.69595178  0.29282502  0.69863827  1
  Sc  Sc98  1  0.90577076  0.69686815  0.49031380  1
  Sc  Sc99  1  0.90857548  0.69873014  0.70149606  1
  Nb  Nb100  1  0.50299227  0.30155856  0.90384299  1
  Nb  Nb101  1  0.09791834  0.89859429  0.69717562  1
  Nb  Nb102  1  0.90210646  0.09360743  0.10560516  1
  Nb  Nb103  1  0.90026877  0.90345079  0.10054720  1
  Nb  Nb104  1  0.30127216  0.50348470  0.09737088  1
  Nb  Nb105  1  0.30043375  0.29284219  0.29761693  1
  Nb  Nb106  1  0.70250640  0.49593349  0.89993316  1
  Nb  Nb107  1  0.29841773  0.69782454  0.10205631  1
  Nb  Nb108  1  0.49532051  0.29793883  0.28919039  1
  Nb  Nb109  1  0.50335985  0.30221638  0.10052269  1
  Nb  Nb110  1  0.90129639  0.10525796  0.49415885  1
  Nb  Nb111  1  0.29523717  0.10418073  0.30635144  1
  Nb  Nb112  1  0.89877029  0.09811805  0.30539835  1
  Nb  Nb113  1  0.10285226  0.10646809  0.30133540  1
  Nb  Nb114  1  0.90012195  0.29359275  0.49490997  1
  Nb  Nb115  1  0.50214327  0.29841284  0.70512829  1
  Nb  Nb116  1  0.88264517  0.49452159  0.89540263  1
  Nb  Nb117  1  0.29942336  0.09518809  0.90585552  1
  Nb  Nb118  1  0.89774194  0.30042347  0.90207987  1
  Nb  Nb119  1  0.70147652  0.70057376  0.10306115  1
  Nb  Nb120  1  0.49818955  0.90861384  0.29937569  1
  Nb  Nb121  1  0.29864594  0.10271185  0.49964788  1
  Nb  Nb122  1  0.29780064  0.69858369  0.29703626  1
  Nb  Nb123  1  0.50654574  0.50011390  0.90707486  1
  Nb  Nb124  1  0.50272343  0.49813389  0.09979620  1
  Nb  Nb125  1  0.40819257  0.40033668  0.00551454  1
  Nb  Nb126  1  0.20043267  0.59969299  0.80486058  1
  Nb  Nb127  1  0.20011934  0.39267594  0.59695803  1
  Nb  Nb128  1  0.40116831  0.20567838  0.00006948  1
  Nb  Nb129  1  0.20126910  0.79705771  0.00324351  1
  Nb  Nb130  1  0.59600679  0.39959969  0.80805241  1
  Nb  Nb131  1  0.80393891  0.79533426  0.59902881  1
  Nb  Nb132  1  0.79844556  0.60095511  0.59797243  1
  Nb  Nb133  1  0.39408218  0.59960428  0.19643354  1
  Nb  Nb134  1  0.20094256  0.80780041  0.60487988  1
  Nb  Nb135  1  0.20557672  0.19888939  0.59488165  1
  Nb  Nb136  1  0.39868656  0.00034388  0.20732578  1
  Nb  Nb137  1  0.20504841  0.19481697  0.00039737  1
  Nb  Nb138  1  0.59659947  0.00731634  0.40111817  1
  Nb  Nb139  1  0.39347100  0.80297280  0.60176598  1
  Nb  Nb140  1  0.39935843  0.59958925  0.38990242  1
  Nb  Nb141  1  0.79819255  0.60553367  0.19600142  1
  Nb  Nb142  1  0.40174339  0.59416032  0.81106802  1
  Nb  Nb143  1  0.60263250  0.00834000  0.59505574  1
  Nb  Nb144  1  0.61181074  -0.00076165  0.00424896  1
  Nb  Nb145  1  0.40330657  0.59448858  0.00480008  1
  Nb  Nb146  1  -0.00210274  0.18858111  0.20281936  1
  Nb  Nb147  1  0.59095016  0.59553182  0.39616800  1
  Nb  Nb148  1  0.80391921  -0.00112536  0.00596035  1
  Nb  Nb149  1  0.20193913  -0.00046496  0.79907900  1
  Pd  Pd150  1  0.19611059  0.39984776  0.19558858  1
  Pd  Pd151  1  0.59919311  0.19052046  -0.00584341  1
  Pd  Pd152  1  0.59927892  0.59567114  0.80492260  1
  Pd  Pd153  1  0.79433118  -0.00228846  0.40483016  1
  Pd  Pd154  1  0.79882788  0.59274046  0.00864680  1
  Pd  Pd155  1  0.19902400  0.59557047  0.20296289  1
  Pd  Pd156  1  -0.01167206  0.40615671  -0.00321724  1
  Pd  Pd157  1  0.79622878  0.39592959  0.59665774  1
  Pd  Pd158  1  0.00263762  0.00048548  0.21111362  1
  Pd  Pd159  1  -0.00535334  0.00145299  -0.00666291  1
  Pd  Pd160  1  0.79179402  0.38838264  0.79880970  1
  Pd  Pd161  1  0.40524454  0.40544033  0.80981656  1
  Pd  Pd162  1  0.39689222  0.40289525  0.19625225  1
  Pd  Pd163  1  0.40148368  0.79931149  0.19398938  1
  Pd  Pd164  1  0.39824879  0.79184146  0.41037796  1
  Pd  Pd165  1  0.39415302  0.61018082  0.59259048  1
  Pd  Pd166  1  0.00859005  0.39327250  0.59449568  1
  Pd  Pd167  1  0.39973938  0.19889154  0.81167661  1
  Pd  Pd168  1  0.19882824  0.79935739  0.80056957  1
  Pd  Pd169  1  0.00436426  0.18928861  0.00554229  1
  Pd  Pd170  1  0.00242676  -0.00184313  0.39368023  1
  Pd  Pd171  1  0.80186128  0.20867751  0.60128040  1
  Pd  Pd172  1  0.00156073  0.59093729  0.80302159  1
  Pd  Pd173  1  0.60756227  0.59639845  0.59035829  1
  Pd  Pd174  1  0.39315573  0.39036261  0.59916687  1
  Pd  Pd175  1  0.79747395  0.00060260  0.19911688  1
  Pd  Pd176  1  0.40563189  0.40131845  0.39185793  1
  Pd  Pd177  1  0.00561597  0.19870551  0.59828811  1
  Pd  Pd178  1  0.20136104  0.60580399  -0.00452844  1
  Pd  Pd179  1  0.80545677  0.79925290  0.40559432  1
  Pd  Pd180  1  0.80750395  0.20538724  0.20853564  1
  Pd  Pd181  1  0.20644797  -0.00720825  0.21125386  1
  Pd  Pd182  1  -0.01042376  0.59131149  0.00261326  1
  Pd  Pd183  1  0.00041541  -0.00164715  0.80125220  1
  Pd  Pd184  1  -0.00221887  0.40280571  0.80144128  1
  Pd  Pd185  1  0.79566421  0.40576114  0.19594487  1
  Pd  Pd186  1  0.19531551  0.20113049  0.19381003  1
  Pd  Pd187  1  0.79521484  0.60668959  0.79169719  1
  Pd  Pd188  1  0.19017086  0.40670025  0.78876156  1
  Pd  Pd189  1  0.20151465  0.19077501  0.79922183  1
  Pd  Pd190  1  0.60361579  0.60374479  0.00131372  1
  Pd  Pd191  1  0.59194545  0.80192830  0.39828447  1
  Pd  Pd192  1  0.19140783  0.00449342  0.60465007  1
  Pd  Pd193  1  0.19392749  0.80193868  0.19298402  1
  Pd  Pd194  1  0.40672730  0.79806973  0.79432984  1
  Pd  Pd195  1  0.41141220  -0.00631464  0.60330675  1
  Pd  Pd196  1  0.41980397  0.01138615  0.00893441  1
  Pd  Pd197  1  0.40119887  0.20379095  0.39871774  1
  Pd  Pd198  1  0.80158818  0.79468952  0.20606001  1
  Pd  Pd199  1  0.19455602  0.60506105  0.60635204  1
  Rh  Rh200  1  0.19545114  0.39304883  0.40383403  1
  Rh  Rh201  1  0.39395608  0.21015214  0.59828935  1
  Rh  Rh202  1  0.20543996  0.20311389  0.40388786  1
  Rh  Rh203  1  0.80772098  0.20646457  0.39484288  1
  Rh  Rh204  1  0.60486606  0.39130644  0.19982428  1
  Rh  Rh205  1  0.59944486  0.81465992  0.60373706  1
  Rh  Rh206  1  0.59699962  0.00370358  0.20159719  1
  Rh  Rh207  1  0.19887212  0.59865665  0.39250486  1
  Rh  Rh208  1  0.59176583  0.39912603  0.39163073  1
  Rh  Rh209  1  0.78772077  0.59970676  0.39867546  1
  Rh  Rh210  1  0.60182266  0.39757319  -0.00378703  1
  Rh  Rh211  1  -0.00831226  0.60037218  0.59437239  1
  Rh  Rh212  1  0.79746000  0.40343745  0.00108353  1
  Rh  Rh213  1  0.00392331  0.80479418  0.19944582  1
  Rh  Rh214  1  0.19521954  -0.00384777  -0.01185045  1
  Rh  Rh215  1  -0.00254259  0.39897886  0.40283993  1
  Rh  Rh216  1  0.20052729  0.80355364  0.40969208  1
  Rh  Rh217  1  0.80508868  0.20552200  0.79449125  1
  Rh  Rh218  1  0.80961968  -0.00242203  0.81007841  1
  Rh  Rh219  1  0.61034516  0.80713990  -0.00357107  1
  Rh  Rh220  1  0.60190839  0.20936081  0.80629135  1
  Rh  Rh221  1  0.00879903  0.80195623  0.00732739  1
  Rh  Rh222  1  0.60240981  0.19938402  0.59947570  1
  Rh  Rh223  1  0.40040275  0.00787859  0.39201749  1
  Rh  Rh224  1  0.60236823  0.79658870  0.20668250  1
  Rh  Rh225  1  0.20103729  0.00207033  0.39366493  1
  Rh  Rh226  1  0.39566194  0.19662813  0.19698405  1
  Rh  Rh227  1  0.39951839  0.00443122  0.80141363  1
  Rh  Rh228  1  0.59338492  0.20260684  0.39647798  1
  Rh  Rh229  1  0.60157602  0.39331869  0.61019324  1
  Rh  Rh230  1  0.60425691  0.60850759  0.20468008  1
  Rh  Rh231  1  -0.00925844  0.20383834  0.79854637  1
  Rh  Rh232  1  0.60551673  0.20977230  0.20565592  1
  Rh  Rh233  1  -0.00398868  0.80058070  0.79642247  1
  Rh  Rh234  1  0.00084871  0.80199880  0.59883780  1
  Rh  Rh235  1  0.80456207  0.39348235  0.40263485  1
  Rh  Rh236  1  0.60310051  0.00003820  0.80171854  1
  Rh  Rh237  1  -0.00843821  0.59574464  0.19472112  1
  Rh  Rh238  1  0.00262526  0.00660368  0.59700946  1
  Rh  Rh239  1  0.00691394  0.59869194  0.40016412  1
  Rh  Rh240  1  0.20702837  0.38607174  0.00660425  1
  Rh  Rh241  1  0.39901629  0.79264246  0.00981147  1
  Rh  Rh242  1  0.00139689  0.80480206  0.39902108  1
  Rh  Rh243  1  0.60019215  0.80388384  0.80174738  1
  Rh  Rh244  1  -0.00200853  0.39327039  0.19670793  1
  Rh  Rh245  1  0.79604917  -0.00645122  0.59194645  1
  Rh  Rh246  1  0.79981982  0.18971567  0.00098841  1
  Rh  Rh247  1  0.79641520  0.80432231  -0.00132821  1
  Rh  Rh248  1  -0.00823632  0.20084153  0.39029602  1
  Rh  Rh249  1  0.80599266  0.79474626  0.79043216  1
