# generated using pymatgen
data_ZrScNbPdRh
_symmetry_space_group_name_H-M   'P 1'
_cell_length_a   16.55720387
_cell_length_b   16.55558954
_cell_length_c   16.55343931
_cell_angle_alpha   90.00368715
_cell_angle_beta   90.02789434
_cell_angle_gamma   90.03256270
_symmetry_Int_Tables_number   1
_chemical_formula_structural   ZrScNbPdRh
_chemical_formula_sum   'Zr50 Sc50 Nb50 Pd50 Rh50'
_cell_volume   4537.53266890
_cell_formula_units_Z   50
loop_
 _symmetry_equiv_pos_site_id
 _symmetry_equiv_pos_as_xyz
  1  'x, y, z'
loop_
 _atom_site_type_symbol
 _atom_site_label
 _atom_site_symmetry_multiplicity
 _atom_site_fract_x
 _atom_site_fract_y
 _atom_site_fract_z
 _atom_site_occupancy
  Zr  Zr0  1  0.10333171  0.89632196  0.29731503  1
  Zr  Zr1  1  0.49940530  0.09578293  0.30257376  1
  Zr  Zr2  1  0.09907301  0.70209410  0.30763908  1
  Zr  Zr3  1  0.10411506  0.89509869  0.89700992  1
  Zr  Zr4  1  0.69984397  0.89178789  0.29965161  1
  Zr  Zr5  1  0.29638074  0.10154673  0.70672296  1
  Zr  Zr6  1  0.29829019  0.90182901  0.89951441  1
  Zr  Zr7  1  0.70269841  0.69705756  0.29848133  1
  Zr  Zr8  1  0.50619752  0.10072071  0.50309681  1
  Zr  Zr9  1  0.10338628  0.11167149  0.89476169  1
  Zr  Zr10  1  0.30186391  0.30366182  0.48936419  1
  Zr  Zr11  1  0.50296797  0.90031373  0.30304728  1
  Zr  Zr12  1  0.70367190  0.49688952  0.89465751  1
  Zr  Zr13  1  0.70172174  0.09009255  0.90117320  1
  Zr  Zr14  1  0.50493670  0.50232465  0.30446726  1
  Zr  Zr15  1  0.90005194  0.50441016  0.70014854  1
  Zr  Zr16  1  0.49998176  0.30873497  0.90230307  1
  Zr  Zr17  1  0.88742454  0.70650727  0.69946528  1
  Zr  Zr18  1  0.30012953  0.50438998  0.30396233  1
  Zr  Zr19  1  0.49775850  0.29721914  0.09459618  1
  Zr  Zr20  1  0.29536528  0.29304407  0.10412636  1
  Zr  Zr21  1  0.50719362  0.09997775  0.69924127  1
  Zr  Zr22  1  0.49360892  0.69866191  0.70718896  1
  Zr  Zr23  1  0.70506096  0.70278699  0.10701216  1
  Zr  Zr24  1  0.90237157  0.90200775  0.09445845  1
  Zr  Zr25  1  0.49608546  0.70341603  0.51178924  1
  Zr  Zr26  1  0.69922019  0.10038560  0.50286331  1
  Zr  Zr27  1  0.09448256  0.29986225  0.70099776  1
  Zr  Zr28  1  0.29721058  0.50251830  0.50010923  1
  Zr  Zr29  1  0.91197074  0.29620439  0.30278692  1
  Zr  Zr30  1  0.49929597  0.50569325  0.71012708  1
  Zr  Zr31  1  0.10173916  0.30143985  0.49673006  1
  Zr  Zr32  1  0.89510204  0.69388397  0.30230323  1
  Zr  Zr33  1  0.90275969  0.49363077  0.90241442  1
  Zr  Zr34  1  0.69913666  0.49871144  0.50286809  1
  Zr  Zr35  1  0.29286643  0.29516952  0.29992864  1
  Zr  Zr36  1  0.70927865  0.29632371  0.29904984  1
  Zr  Zr37  1  0.50568539  0.70158199  0.30745100  1
  Zr  Zr38  1  0.30007340  0.50536410  0.10308568  1
  Zr  Zr39  1  0.89833340  0.29253507  0.10028229  1
  Zr  Zr40  1  0.10396354  0.70565140  0.11084763  1
  Zr  Zr41  1  0.70728463  0.50241891  0.09842744  1
  Zr  Zr42  1  0.70242088  0.29634050  0.69216156  1
  Zr  Zr43  1  0.29796345  0.89716426  0.09084817  1
  Zr  Zr44  1  0.90402038  0.10537232  0.29239262  1
  Zr  Zr45  1  0.30165233  0.71020222  0.90190972  1
  Zr  Zr46  1  0.69595311  0.09951074  0.70103236  1
  Zr  Zr47  1  0.29107824  0.69630336  0.29384865  1
  Zr  Zr48  1  0.89838562  0.10150740  0.49687890  1
  Zr  Zr49  1  0.71136195  0.29909850  0.89774793  1
  Sc  Sc50  1  0.31421534  0.49970576  0.90031750  1
  Sc  Sc51  1  0.70326496  0.69930149  0.50681037  1
  Sc  Sc52  1  0.10566929  0.30560966  0.09688284  1
  Sc  Sc53  1  0.49968644  0.89510500  0.70136760  1
  Sc  Sc54  1  0.70262827  0.49811767  0.69774554  1
  Sc  Sc55  1  0.30078204  0.10557046  0.49066434  1
  Sc  Sc56  1  0.89357535  0.89115474  0.49636592  1
  Sc  Sc57  1  0.09547603  0.70793631  0.90279442  1
  Sc  Sc58  1  0.69654517  0.50985774  0.30441067  1
  Sc  Sc59  1  0.09390863  0.50088558  0.29488305  1
  Sc  Sc60  1  0.29853746  0.69870113  0.09871479  1
  Sc  Sc61  1  0.70463520  0.29566902  0.08930335  1
  Sc  Sc62  1  0.29508399  0.10388958  0.09666885  1
  Sc  Sc63  1  0.29821334  0.09632203  0.90268196  1
  Sc  Sc64  1  0.50679722  0.90233964  0.49831912  1
  Sc  Sc65  1  0.70072682  0.89337141  0.70955793  1
  Sc  Sc66  1  0.49436683  0.30348595  0.30867185  1
  Sc  Sc67  1  0.10589187  0.09306982  0.50361619  1
  Sc  Sc68  1  0.48715174  0.89802547  0.89908933  1
  Sc  Sc69  1  0.50771151  0.30046398  0.69672315  1
  Sc  Sc70  1  0.29974773  0.30414429  0.70123380  1
  Sc  Sc71  1  0.48899678  0.10019465  0.09206188  1
  Sc  Sc72  1  0.70487673  0.70254231  0.89265561  1
  Sc  Sc73  1  0.69727774  0.69613236  0.70186852  1
  Sc  Sc74  1  0.90698483  0.50273571  0.09649916  1
  Sc  Sc75  1  0.30645010  0.50583230  0.70244408  1
  Sc  Sc76  1  0.50505655  0.50074901  0.49719749  1
  Sc  Sc77  1  0.71166384  0.09843627  0.30481889  1
  Sc  Sc78  1  0.29641182  0.90601573  0.49794150  1
  Sc  Sc79  1  0.28554840  0.28697674  0.90701543  1
  Sc  Sc80  1  0.50279372  0.30510298  0.49841712  1
  Sc  Sc81  1  0.89707064  0.88917465  0.30176113  1
  Sc  Sc82  1  0.90278176  0.29621093  0.69881785  1
  Sc  Sc83  1  0.90103683  0.10626391  0.69482755  1
  Sc  Sc84  1  0.89315427  0.69976347  0.49455833  1
  Sc  Sc85  1  0.10478567  0.09826858  0.29366871  1
  Sc  Sc86  1  0.49340876  0.69616479  0.09908975  1
  Sc  Sc87  1  0.29738604  0.10488814  0.29959220  1
  Sc  Sc88  1  0.89084590  0.89411833  0.90020925  1
  Sc  Sc89  1  0.89898073  0.70081008  0.89665488  1
  Sc  Sc90  1  0.09959645  0.10007406  0.69723725  1
  Sc  Sc91  1  0.90702809  0.29442779  0.50310392  1
  Sc  Sc92  1  0.30211775  0.69826944  0.49690644  1
  Sc  Sc93  1  0.89778517  0.69975818  0.10145251  1
  Sc  Sc94  1  0.29826867  0.90274592  0.71242359  1
  Sc  Sc95  1  0.09827880  0.49503654  0.49589255  1
  Sc  Sc96  1  0.90350071  0.10531351  0.90175098  1
  Sc  Sc97  1  0.29763500  0.90741164  0.30205707  1
  Sc  Sc98  1  0.09183463  0.71066587  0.71654691  1
  Sc  Sc99  1  0.49859113  0.09496371  0.90025924  1
  Nb  Nb100  1  0.29896399  0.69745226  0.69858573  1
  Nb  Nb101  1  0.50157153  0.50501191  0.90231600  1
  Nb  Nb102  1  0.89955143  0.49739375  0.30665257  1
  Nb  Nb103  1  0.09695228  0.50153439  0.70359494  1
  Nb  Nb104  1  0.91269392  0.30110948  0.90173761  1
  Nb  Nb105  1  0.10293693  0.29603137  0.29943470  1
  Nb  Nb106  1  0.09079436  0.49367489  0.90244575  1
  Nb  Nb107  1  0.90051043  0.89826154  0.69660594  1
  Nb  Nb108  1  0.09999994  0.70512257  0.50170605  1
  Nb  Nb109  1  0.70379510  0.90061403  0.91355507  1
  Nb  Nb110  1  0.09090792  0.30249940  0.89704712  1
  Nb  Nb111  1  0.70037439  0.90734750  0.50084829  1
  Nb  Nb112  1  0.08705518  0.08194234  0.10124080  1
  Nb  Nb113  1  0.09873691  0.90518116  0.10152172  1
  Nb  Nb114  1  0.50001909  0.69557428  0.90088742  1
  Nb  Nb115  1  0.89918837  0.50398723  0.49540361  1
  Nb  Nb116  1  0.70214858  0.09554872  0.09614507  1
  Nb  Nb117  1  0.49706772  0.89934438  0.10082406  1
  Nb  Nb118  1  0.09885357  0.89873369  0.49906249  1
  Nb  Nb119  1  0.70258272  0.90138117  0.09272252  1
  Nb  Nb120  1  0.90336303  0.09449509  0.10339549  1
  Nb  Nb121  1  0.10155872  0.50158480  0.09101690  1
  Nb  Nb122  1  0.69824926  0.30581823  0.50038340  1
  Nb  Nb123  1  0.49660728  0.49504886  0.08977342  1
  Nb  Nb124  1  0.09828174  0.90299365  0.69825555  1
  Nb  Nb125  1  0.80595105  0.40180839  0.40004083  1
  Nb  Nb126  1  0.59969765  0.39749731  0.19515777  1
  Nb  Nb127  1  0.79731496  -0.00426626  0.60107857  1
  Nb  Nb128  1  0.60578604  0.00121750  0.19148311  1
  Nb  Nb129  1  0.40172323  0.80291963  0.20256789  1
  Nb  Nb130  1  0.40160359  0.00664823  0.60332831  1
  Nb  Nb131  1  0.80253923  0.40166248  0.20512682  1
  Nb  Nb132  1  0.79907584  -0.00097498  0.19068658  1
  Nb  Nb133  1  0.00000607  -0.00655348  0.79449614  1
  Nb  Nb134  1  0.19363875  0.59356609  -0.00578081  1
  Nb  Nb135  1  0.19020708  0.40657601  0.80540307  1
  Nb  Nb136  1  0.00288779  -0.00710161  0.40033618  1
  Nb  Nb137  1  0.19098080  0.60708337  0.60790904  1
  Nb  Nb138  1  0.40180937  0.20102253  0.80000190  1
  Nb  Nb139  1  0.40001878  0.40412224  0.59883730  1
  Nb  Nb140  1  0.00400118  0.80180585  0.59862362  1
  Nb  Nb141  1  0.19417846  0.80003232  0.60338351  1
  Nb  Nb142  1  0.40279352  0.40384004  0.19706279  1
  Nb  Nb143  1  0.60520701  0.20008997  0.39833758  1
  Nb  Nb144  1  0.00398396  0.60604528  0.60110250  1
  Nb  Nb145  1  0.60313799  0.19643429  0.19875687  1
  Nb  Nb146  1  0.59984467  0.80070383  0.00100454  1
  Nb  Nb147  1  0.20260371  0.20627274  0.59850519  1
  Nb  Nb148  1  0.59707371  0.60006493  -0.00457287  1
  Nb  Nb149  1  0.19480692  0.59606667  0.80364789  1
  Pd  Pd150  1  0.79764198  0.60579019  -0.00653472  1
  Pd  Pd151  1  0.59901405  0.80271799  0.81080713  1
  Pd  Pd152  1  0.60653727  0.79574833  0.41211382  1
  Pd  Pd153  1  0.00763953  0.20056500  0.00901847  1
  Pd  Pd154  1  0.19646114  0.00417839  -0.00191985  1
  Pd  Pd155  1  0.39524251  0.20430685  0.60411319  1
  Pd  Pd156  1  0.39446131  0.39225129  0.79864301  1
  Pd  Pd157  1  0.38772216  0.81230917  0.60355282  1
  Pd  Pd158  1  0.59681099  0.20313040  0.81113538  1
  Pd  Pd159  1  0.58966030  -0.00549707  0.00098624  1
  Pd  Pd160  1  0.20974494  0.00054750  0.60100772  1
  Pd  Pd161  1  -0.01014148  -0.00424024  0.59599076  1
  Pd  Pd162  1  0.40349457  0.60301972  0.40469330  1
  Pd  Pd163  1  0.20605965  0.00256885  0.19769582  1
  Pd  Pd164  1  0.59240647  0.59430393  0.18843360  1
  Pd  Pd165  1  0.01307199  0.20194702  0.19090268  1
  Pd  Pd166  1  0.60716041  0.80359337  0.60055395  1
  Pd  Pd167  1  0.60798667  0.40349984  0.00132833  1
  Pd  Pd168  1  0.80648243  0.19886025  0.80025741  1
  Pd  Pd169  1  0.00431434  0.60960632  0.00059885  1
  Pd  Pd170  1  -0.00528968  0.40630854  0.59682257  1
  Pd  Pd171  1  0.40786116  0.60119638  0.20157682  1
  Pd  Pd172  1  0.80851945  0.39484469  0.79475364  1
  Pd  Pd173  1  0.80900129  0.39753133  0.59369163  1
  Pd  Pd174  1  0.39899437  0.00080428  0.40811734  1
  Pd  Pd175  1  0.20593096  0.40450866  0.60915221  1
  Pd  Pd176  1  0.38665503  0.39269021  0.00204840  1
  Pd  Pd177  1  0.59991270  0.19446179  -0.00250340  1
  Pd  Pd178  1  0.60376643  0.39911873  0.79555941  1
  Pd  Pd179  1  0.39837824  -0.00262686  0.19461731  1
  Pd  Pd180  1  -0.00185139  0.40005249  0.19509448  1
  Pd  Pd181  1  0.59385410  0.80280358  0.19142786  1
  Pd  Pd182  1  0.59838295  0.59833264  0.60313558  1
  Pd  Pd183  1  0.59680015  -0.01236361  0.80375276  1
  Pd  Pd184  1  0.01254207  0.18763344  0.40284209  1
  Pd  Pd185  1  0.00411373  0.60079719  0.40642313  1
  Pd  Pd186  1  0.39216473  0.80124838  0.39608199  1
  Pd  Pd187  1  -0.00558168  0.80073597  0.20188702  1
  Pd  Pd188  1  0.20166307  0.40548715  0.20447465  1
  Pd  Pd189  1  -0.00159365  0.60369951  0.80051246  1
  Pd  Pd190  1  -0.00060768  0.79849853  0.00195365  1
  Pd  Pd191  1  -0.00161771  0.59830386  0.19905068  1
  Pd  Pd192  1  0.20760495  0.80077940  0.40579340  1
  Pd  Pd193  1  0.80796744  -0.00156204  0.79562351  1
  Pd  Pd194  1  0.20576204  0.40537711  -0.00835812  1
  Pd  Pd195  1  0.19285413  0.40595190  0.38990246  1
  Pd  Pd196  1  0.40551329  0.20460335  0.20567963  1
  Pd  Pd197  1  0.80366664  0.19296840  -0.00321019  1
  Pd  Pd198  1  0.80765134  -0.00496540  0.39687817  1
  Pd  Pd199  1  -0.00244592  -0.00255238  -0.01645330  1
  Rh  Rh200  1  0.39617267  0.00012127  0.00081658  1
  Rh  Rh201  1  0.19168589  0.59877535  0.40470465  1
  Rh  Rh202  1  0.80613057  0.80594712  0.19449171  1
  Rh  Rh203  1  0.60230150  -0.01168601  0.60865909  1
  Rh  Rh204  1  0.80879079  0.59079343  0.20396855  1
  Rh  Rh205  1  0.39911738  0.20085986  -0.01238014  1
  Rh  Rh206  1  0.79703803  0.80270123  0.80173456  1
  Rh  Rh207  1  0.80569038  0.59868345  0.59915514  1
  Rh  Rh208  1  -0.00374157  0.39381423  0.00733873  1
  Rh  Rh209  1  -0.00274618  0.39732152  0.79736016  1
  Rh  Rh210  1  0.19404575  0.19764022  0.40296981  1
  Rh  Rh211  1  0.18938055  0.00072790  0.80430921  1
  Rh  Rh212  1  0.01151542  0.19739920  0.59705673  1
  Rh  Rh213  1  0.79965681  0.59797587  0.80039322  1
  Rh  Rh214  1  -0.00380179  0.19377969  0.79677971  1
  Rh  Rh215  1  0.79605419  0.79268777  0.00112725  1
  Rh  Rh216  1  0.20545230  0.79616416  0.79387516  1
  Rh  Rh217  1  0.59215274  0.40429264  0.60518505  1
  Rh  Rh218  1  0.39719942  0.59410598  0.59638855  1
  Rh  Rh219  1  0.39372375  0.60754503  0.80789634  1
  Rh  Rh220  1  -0.00901950  0.80870382  0.79858090  1
  Rh  Rh221  1  0.40407962  0.00892194  0.79347219  1
  Rh  Rh222  1  0.40720829  0.79878320  0.00562859  1
  Rh  Rh223  1  0.18973474  0.19259608  0.19292916  1
  Rh  Rh224  1  0.79737608  0.80667157  0.59876973  1
  Rh  Rh225  1  0.39870728  0.40586499  0.40054235  1
  Rh  Rh226  1  0.79613017  0.19462139  0.18964222  1
  Rh  Rh227  1  -0.00838875  -0.00980489  0.21022135  1
  Rh  Rh228  1  0.79490310  0.59583647  0.40266388  1
  Rh  Rh229  1  0.60071723  0.61056717  0.41141972  1
  Rh  Rh230  1  0.39826790  0.79676165  0.79871191  1
  Rh  Rh231  1  -0.00009381  0.39754388  0.40008728  1
  Rh  Rh232  1  0.60432557  0.59905998  0.80497943  1
  Rh  Rh233  1  0.79694883  0.21132659  0.41266286  1
  Rh  Rh234  1  0.61157306  0.39463766  0.39216130  1
  Rh  Rh235  1  0.79112935  0.79463334  0.40304706  1
  Rh  Rh236  1  0.19230103  0.79572054  0.00606579  1
  Rh  Rh237  1  0.39889631  0.60348461  -0.00424003  1
  Rh  Rh238  1  0.80977765  0.00646082  0.00067678  1
  Rh  Rh239  1  0.18704082  0.19159650  0.00942254  1
  Rh  Rh240  1  0.40863886  0.19796352  0.39741314  1
  Rh  Rh241  1  0.60305800  0.20822933  0.59052590  1
  Rh  Rh242  1  0.60791095  0.00409863  0.38989220  1
  Rh  Rh243  1  0.20801595  0.80763002  0.19665743  1
  Rh  Rh244  1  0.80962963  0.39721972  0.00354405  1
  Rh  Rh245  1  0.19033391  0.59420583  0.19567587  1
  Rh  Rh246  1  -0.00146959  0.80234115  0.40415001  1
  Rh  Rh247  1  0.20173597  0.21066426  0.79170607  1
  Rh  Rh248  1  0.19207081  0.00243252  0.39643382  1
  Rh  Rh249  1  0.79774422  0.19643585  0.59792148  1
