# generated using pymatgen
data_ZrScNbPdRh
_symmetry_space_group_name_H-M   'P 1'
_cell_length_a   16.55321170
_cell_length_b   16.55599510
_cell_length_c   16.55792548
_cell_angle_alpha   90.01167664
_cell_angle_beta   89.99344709
_cell_angle_gamma   90.02706739
_symmetry_Int_Tables_number   1
_chemical_formula_structural   ZrScNbPdRh
_chemical_formula_sum   'Zr50 Sc50 Nb50 Pd50 Rh50'
_cell_volume   4537.77984735
_cell_formula_units_Z   50
loop_
 _symmetry_equiv_pos_site_id
 _symmetry_equiv_pos_as_xyz
  1  'x, y, z'
loop_
 _atom_site_type_symbol
 _atom_site_label
 _atom_site_symmetry_multiplicity
 _atom_site_fract_x
 _atom_site_fract_y
 _atom_site_fract_z
 _atom_site_occupancy
  Zr  Zr0  1  0.70018664  0.49449631  0.69673782  1
  Zr  Zr1  1  0.49785190  0.89954537  0.69555288  1
  Zr  Zr2  1  0.10365809  0.50481900  0.49555648  1
  Zr  Zr3  1  0.69402180  0.30061972  0.89749186  1
  Zr  Zr4  1  0.89543275  0.30657570  0.10950777  1
  Zr  Zr5  1  0.10084190  0.09782592  0.48744178  1
  Zr  Zr6  1  0.09648955  0.09170476  0.10283173  1
  Zr  Zr7  1  0.91042859  0.29802826  0.90012904  1
  Zr  Zr8  1  0.89951501  0.29774247  0.69796637  1
  Zr  Zr9  1  0.91281196  0.49814075  0.70032233  1
  Zr  Zr10  1  0.48828300  0.50635031  0.10318074  1
  Zr  Zr11  1  0.29629086  0.69610349  0.50157477  1
  Zr  Zr12  1  0.10858499  0.50131057  0.69393529  1
  Zr  Zr13  1  0.49885949  0.09710231  0.09020703  1
  Zr  Zr14  1  0.30903899  0.49898642  0.69497491  1
  Zr  Zr15  1  0.70700954  0.50027755  0.10624785  1
  Zr  Zr16  1  0.10869285  0.69361265  0.09586134  1
  Zr  Zr17  1  0.70039190  0.30570969  0.50616517  1
  Zr  Zr18  1  0.91061524  0.90431351  0.69094845  1
  Zr  Zr19  1  0.89491495  0.50190347  0.29766813  1
  Zr  Zr20  1  0.89686280  0.09379115  0.50400029  1
  Zr  Zr21  1  0.50027639  0.70940374  0.89960740  1
  Zr  Zr22  1  0.49868119  0.09254535  0.30108545  1
  Zr  Zr23  1  0.69132924  0.09858032  0.90549862  1
  Zr  Zr24  1  0.70818890  0.50487498  0.90248657  1
  Zr  Zr25  1  0.09682795  0.30002920  0.10637781  1
  Zr  Zr26  1  0.29570529  0.09865596  0.30400128  1
  Zr  Zr27  1  0.29909141  0.09671427  0.70330974  1
  Zr  Zr28  1  0.50090030  0.89957184  0.90715078  1
  Zr  Zr29  1  0.31370903  0.10623953  0.90371665  1
  Zr  Zr30  1  0.10054185  0.09730769  0.90586555  1
  Zr  Zr31  1  0.49458276  0.70519222  0.49935245  1
  Zr  Zr32  1  0.90178564  0.50847893  0.10485692  1
  Zr  Zr33  1  0.30013028  0.30718118  0.70207615  1
  Zr  Zr34  1  0.69946376  0.70568015  0.50215891  1
  Zr  Zr35  1  0.49310567  0.70215842  0.09874057  1
  Zr  Zr36  1  0.89870288  0.29842891  0.29574163  1
  Zr  Zr37  1  0.69777467  0.89004974  0.90127798  1
  Zr  Zr38  1  0.69413886  0.89582856  0.30011515  1
  Zr  Zr39  1  0.50974331  0.90419798  0.49798804  1
  Zr  Zr40  1  0.70335319  0.70766483  0.10319091  1
  Zr  Zr41  1  0.69727811  0.10017159  0.29416275  1
  Zr  Zr42  1  0.09576804  0.30508628  0.70673627  1
  Zr  Zr43  1  0.30415466  0.30223512  0.10011721  1
  Zr  Zr44  1  0.09988689  0.90041616  0.89311291  1
  Zr  Zr45  1  0.89938745  0.50177669  0.49939558  1
  Zr  Zr46  1  0.50414314  0.30247220  0.10930204  1
  Zr  Zr47  1  0.10456881  0.70089994  0.89929205  1
  Zr  Zr48  1  0.49675622  0.49263207  0.49748084  1
  Zr  Zr49  1  0.09391749  0.70276644  0.70910894  1
  Sc  Sc50  1  0.49990054  0.30921306  0.70526841  1
  Sc  Sc51  1  0.50477285  0.50056809  0.29895002  1
  Sc  Sc52  1  0.89855705  0.69799862  0.30198188  1
  Sc  Sc53  1  0.29895286  0.09863862  0.09312409  1
  Sc  Sc54  1  0.30424458  0.69455636  0.69650914  1
  Sc  Sc55  1  0.29763316  0.90786376  0.70130778  1
  Sc  Sc56  1  0.69794816  0.70300891  0.30088452  1
  Sc  Sc57  1  0.70299451  0.90068836  0.09758721  1
  Sc  Sc58  1  0.69571684  0.10082928  0.10320642  1
  Sc  Sc59  1  0.29557334  0.30349545  0.30492551  1
  Sc  Sc60  1  0.69961385  0.08250773  0.50625516  1
  Sc  Sc61  1  0.30833642  0.89331873  0.49846423  1
  Sc  Sc62  1  0.90782269  0.09710264  0.91096013  1
  Sc  Sc63  1  0.49801455  0.89673270  0.10135533  1
  Sc  Sc64  1  0.09756163  0.29575969  0.90320357  1
  Sc  Sc65  1  0.29733416  0.71031703  0.30377692  1
  Sc  Sc66  1  0.89685332  0.90408743  0.90653374  1
  Sc  Sc67  1  0.10132882  0.49938472  0.29990453  1
  Sc  Sc68  1  0.08975835  0.90521051  0.49959791  1
  Sc  Sc69  1  0.30302554  0.89950628  0.30075966  1
  Sc  Sc70  1  0.10015507  0.51150495  0.89283246  1
  Sc  Sc71  1  0.09893564  0.69510776  0.48949227  1
  Sc  Sc72  1  0.89286720  0.89643852  0.49835843  1
  Sc  Sc73  1  0.49508636  0.29029840  0.89600376  1
  Sc  Sc74  1  0.49666920  0.09962457  0.70461479  1
  Sc  Sc75  1  0.90086355  0.09681123  0.10074528  1
  Sc  Sc76  1  0.89351471  0.69353085  0.89465319  1
  Sc  Sc77  1  0.11087762  0.90423364  0.29741269  1
  Sc  Sc78  1  0.50657025  0.70041275  0.29729098  1
  Sc  Sc79  1  0.30094333  0.90317373  0.90216368  1
  Sc  Sc80  1  0.89507636  0.90512972  0.10051467  1
  Sc  Sc81  1  0.89161791  0.89407010  0.30046666  1
  Sc  Sc82  1  0.90119824  0.70286527  0.49552849  1
  Sc  Sc83  1  0.48929546  0.70461762  0.70067465  1
  Sc  Sc84  1  0.10843567  0.30083817  0.49204985  1
  Sc  Sc85  1  0.70075199  0.89236206  0.68983116  1
  Sc  Sc86  1  0.69611255  0.30191223  0.28609440  1
  Sc  Sc87  1  0.89459536  0.70138769  0.69461215  1
  Sc  Sc88  1  0.30424697  0.50232803  0.89602857  1
  Sc  Sc89  1  0.89454001  0.29967465  0.50625677  1
  Sc  Sc90  1  0.10149994  0.29357238  0.29850332  1
  Sc  Sc91  1  0.29222830  0.49790946  0.50471233  1
  Sc  Sc92  1  0.29877717  0.89091137  0.10357211  1
  Sc  Sc93  1  0.30288614  0.31059323  0.49296547  1
  Sc  Sc94  1  0.30357151  0.69903924  0.90472924  1
  Sc  Sc95  1  0.69964753  0.50006698  0.49323726  1
  Sc  Sc96  1  0.69611305  0.29802065  0.69999286  1
  Sc  Sc97  1  0.90550422  0.09757054  0.29888934  1
  Sc  Sc98  1  0.49347205  0.49967309  0.89596182  1
  Sc  Sc99  1  0.29916854  0.09707468  0.49221246  1
  Nb  Nb100  1  0.70117816  0.09973914  0.69761949  1
  Nb  Nb101  1  0.10364189  0.50099815  0.09694206  1
  Nb  Nb102  1  0.30403321  0.68990840  0.10088881  1
  Nb  Nb103  1  0.10720712  0.09960539  0.30550227  1
  Nb  Nb104  1  0.70001627  0.51059944  0.30205939  1
  Nb  Nb105  1  0.50175055  0.10181765  0.49770767  1
  Nb  Nb106  1  0.49545566  0.50653952  0.69881381  1
  Nb  Nb107  1  0.89958462  0.49750281  0.90266287  1
  Nb  Nb108  1  0.49673950  0.29760034  0.49146514  1
  Nb  Nb109  1  0.69942630  0.69924994  0.70560513  1
  Nb  Nb110  1  0.10235954  0.90381012  0.70146490  1
  Nb  Nb111  1  0.69783963  0.89568050  0.49790147  1
  Nb  Nb112  1  0.10657774  0.70007520  0.29937932  1
  Nb  Nb113  1  0.70107868  0.29945259  0.10159999  1
  Nb  Nb114  1  0.09962296  0.89413006  0.09738046  1
  Nb  Nb115  1  0.30029553  0.29792389  0.89902556  1
  Nb  Nb116  1  0.30270505  0.50385889  0.30116250  1
  Nb  Nb117  1  0.90525423  0.70232200  0.10693300  1
  Nb  Nb118  1  0.49513632  0.29540183  0.30777445  1
  Nb  Nb119  1  0.69517280  0.70311486  0.89322152  1
  Nb  Nb120  1  0.30414990  0.50364814  0.10303626  1
  Nb  Nb121  1  0.89323925  0.10098366  0.69179026  1
  Nb  Nb122  1  0.50150027  0.09849027  0.90102345  1
  Nb  Nb123  1  0.50090724  0.89720321  0.30267076  1
  Nb  Nb124  1  0.10156844  0.08593142  0.69903523  1
  Nb  Nb125  1  0.59313840  0.19709061  0.59373517  1
  Nb  Nb126  1  0.00859085  0.19110769  0.60372251  1
  Nb  Nb127  1  0.59911751  0.19962563  0.40394596  1
  Nb  Nb128  1  0.79686198  0.20641605  0.00061065  1
  Nb  Nb129  1  0.19062240  0.80379958  0.60566219  1
  Nb  Nb130  1  0.80042353  0.19536776  0.80155569  1
  Nb  Nb131  1  0.00296025  0.40902674  0.00505770  1
  Nb  Nb132  1  0.60332785  0.60162079  -0.00398335  1
  Nb  Nb133  1  0.40246724  0.20198025  0.59334486  1
  Nb  Nb134  1  0.00763359  0.79619260  0.19514131  1
  Nb  Nb135  1  0.60221752  0.60493224  0.79766798  1
  Nb  Nb136  1  0.20540827  0.59888618  0.19681658  1
  Nb  Nb137  1  0.59725389  0.60004451  0.60624590  1
  Nb  Nb138  1  0.00216284  0.79552803  0.00634974  1
  Nb  Nb139  1  0.40296495  0.19893658  0.20492943  1
  Nb  Nb140  1  0.20001054  0.19558216  0.79813561  1
  Nb  Nb141  1  0.79672388  0.00563797  0.79466019  1
  Nb  Nb142  1  0.80588100  0.39755512  0.80313016  1
  Nb  Nb143  1  0.39773545  0.59949395  0.39973272  1
  Nb  Nb144  1  0.60329670  -0.00052843  0.80008428  1
  Nb  Nb145  1  0.79196466  0.19768294  0.40120883  1
  Nb  Nb146  1  0.19961492  0.19677775  0.60508353  1
  Nb  Nb147  1  0.60161222  0.40402553  0.00546360  1
  Nb  Nb148  1  0.20044457  0.40541736  0.00437464  1
  Nb  Nb149  1  -0.00513707  0.40120866  0.39742147  1
  Pd  Pd150  1  0.39998978  0.39588392  0.21145579  1
  Pd  Pd151  1  0.19684566  0.39843811  0.81209103  1
  Pd  Pd152  1  0.80296852  0.39417347  -0.00238375  1
  Pd  Pd153  1  0.59854921  0.40896639  0.80750208  1
  Pd  Pd154  1  0.00925652  0.60305992  0.20783525  1
  Pd  Pd155  1  0.20160542  0.40629799  0.20082522  1
  Pd  Pd156  1  0.00060731  -0.00961961  0.20685138  1
  Pd  Pd157  1  0.40153499  0.39706607  -0.00677956  1
  Pd  Pd158  1  0.20362020  0.80034726  -0.00064187  1
  Pd  Pd159  1  0.59807107  -0.00747771  0.19259815  1
  Pd  Pd160  1  0.59744543  0.79241382  0.60495192  1
  Pd  Pd161  1  0.79822398  0.39365372  0.39323287  1
  Pd  Pd162  1  0.80884771  0.79422925  0.00018370  1
  Pd  Pd163  1  0.59866808  0.20786127  0.00450899  1
  Pd  Pd164  1  -0.00858117  0.00443159  0.80069260  1
  Pd  Pd165  1  0.00715855  0.39119849  0.58713221  1
  Pd  Pd166  1  0.00149592  0.18466769  0.79206002  1
  Pd  Pd167  1  0.00322162  0.60977991  0.59679114  1
  Pd  Pd168  1  0.79590028  0.00175869  0.39692097  1
  Pd  Pd169  1  0.40650130  -0.00319857  0.80474835  1
  Pd  Pd170  1  0.19456337  0.80821940  0.40981059  1
  Pd  Pd171  1  -0.01175816  0.80078382  0.80881637  1
  Pd  Pd172  1  0.00339145  0.80317443  0.38836441  1
  Pd  Pd173  1  0.20417913  -0.00440251  -0.00044006  1
  Pd  Pd174  1  0.39926514  -0.00600333  0.40344365  1
  Pd  Pd175  1  0.60512560  0.39628041  0.39040445  1
  Pd  Pd176  1  0.20283059  -0.00447965  0.58776927  1
  Pd  Pd177  1  0.79942909  0.61179840  0.00354991  1
  Pd  Pd178  1  0.20621891  0.19468895  0.19929191  1
  Pd  Pd179  1  0.79982817  -0.00003887  0.20004954  1
  Pd  Pd180  1  -0.00893756  0.20752754  0.40714914  1
  Pd  Pd181  1  0.20951412  0.60158537  0.79663272  1
  Pd  Pd182  1  0.39979850  0.00562149  0.59307043  1
  Pd  Pd183  1  0.59265735  0.39894810  0.59962997  1
  Pd  Pd184  1  0.20488972  -0.00138153  0.19625479  1
  Pd  Pd185  1  0.00011257  0.19169887  0.20046410  1
  Pd  Pd186  1  0.21065825  0.79949102  0.79394238  1
  Pd  Pd187  1  0.79739848  0.60813186  0.40059581  1
  Pd  Pd188  1  -0.00366055  -0.00847074  0.39071737  1
  Pd  Pd189  1  0.39458842  0.00200252  0.19444981  1
  Pd  Pd190  1  0.79513923  0.59798345  0.59710661  1
  Pd  Pd191  1  0.60007788  0.40657077  0.20182056  1
  Pd  Pd192  1  0.40036458  0.79708063  0.20544098  1
  Pd  Pd193  1  0.80700716  0.80978054  0.79341241  1
  Pd  Pd194  1  0.60190684  0.60252030  0.19466885  1
  Pd  Pd195  1  0.39104877  0.80472442  0.79833543  1
  Pd  Pd196  1  -0.00300092  0.60193075  -0.00650480  1
  Pd  Pd197  1  0.19879431  0.20609904  -0.00256334  1
  Pd  Pd198  1  0.00560230  0.79511114  0.59467840  1
  Pd  Pd199  1  0.80207165  0.59434884  0.79305236  1
  Rh  Rh200  1  0.40380805  0.60148001  -0.00636419  1
  Rh  Rh201  1  0.00198967  0.41034867  0.81090883  1
  Rh  Rh202  1  0.39913521  -0.00528300  0.00369379  1
  Rh  Rh203  1  -0.00491555  0.60100939  0.80016035  1
  Rh  Rh204  1  0.40518258  0.60239816  0.80242127  1
  Rh  Rh205  1  0.59712744  0.80504459  0.19909407  1
  Rh  Rh206  1  0.59836778  0.80084246  0.39741959  1
  Rh  Rh207  1  0.40733692  0.79677571  0.39437032  1
  Rh  Rh208  1  0.40611121  0.20648325  0.00650502  1
  Rh  Rh209  1  0.79582451  0.00957971  -0.00266520  1
  Rh  Rh210  1  0.59987391  0.19058358  0.78872665  1
  Rh  Rh211  1  0.19825543  0.79281116  0.19828731  1
  Rh  Rh212  1  0.39287266  0.60805769  0.21405445  1
  Rh  Rh213  1  0.19384220  0.40373789  0.39506545  1
  Rh  Rh214  1  0.80635233  0.79841163  0.20099390  1
  Rh  Rh215  1  0.80138085  0.80022512  0.59936955  1
  Rh  Rh216  1  0.20733590  0.59941309  0.39015869  1
  Rh  Rh217  1  0.21167358  0.59159616  0.00140561  1
  Rh  Rh218  1  0.20268156  -0.00752462  0.40157976  1
  Rh  Rh219  1  0.59057725  0.19745617  0.20615980  1
  Rh  Rh220  1  0.79381733  0.19990628  0.59692394  1
  Rh  Rh221  1  0.00187337  0.00348381  0.59656766  1
  Rh  Rh222  1  0.40313876  0.39496231  0.59949922  1
  Rh  Rh223  1  0.59363164  0.60067677  0.41016689  1
  Rh  Rh224  1  0.60075187  0.79607882  0.00807698  1
  Rh  Rh225  1  0.20151596  0.00564146  0.81007198  1
  Rh  Rh226  1  -0.00119525  0.59538652  0.39502844  1
  Rh  Rh227  1  0.19676966  0.39416125  0.59861766  1
  Rh  Rh228  1  0.00383540  -0.01197209  0.00405576  1
  Rh  Rh229  1  0.40173202  0.39956445  0.80227854  1
  Rh  Rh230  1  0.60105313  -0.00691900  -0.00007690  1
  Rh  Rh231  1  0.79292922  0.40593483  0.20788710  1
  Rh  Rh232  1  -0.00705305  0.20836962  0.01533575  1
  Rh  Rh233  1  0.59782178  0.00298381  0.60655112  1
  Rh  Rh234  1  0.38733752  0.80447409  0.60554687  1
  Rh  Rh235  1  0.39318955  0.80028102  0.00362169  1
  Rh  Rh236  1  0.80357087  0.40434850  0.60780981  1
  Rh  Rh237  1  0.79644159  0.60721375  0.20439645  1
  Rh  Rh238  1  0.79701092  -0.01265996  0.60288734  1
  Rh  Rh239  1  0.79480003  0.79775586  0.40099868  1
  Rh  Rh240  1  0.00283164  0.40554415  0.20265064  1
  Rh  Rh241  1  0.60325179  0.00017837  0.39813801  1
  Rh  Rh242  1  0.39639886  0.40926055  0.39596169  1
  Rh  Rh243  1  0.39634571  0.20341664  0.79391043  1
  Rh  Rh244  1  0.40587068  0.59689005  0.58987321  1
  Rh  Rh245  1  0.20637878  0.20245639  0.40346698  1
  Rh  Rh246  1  0.59784309  0.80337591  0.79169181  1
  Rh  Rh247  1  0.19263098  0.61221463  0.60649676  1
  Rh  Rh248  1  0.80164832  0.19390274  0.19856046  1
  Rh  Rh249  1  0.39839947  0.19764769  0.39833997  1
