# generated using pymatgen
data_ZrScNbPdRh
_symmetry_space_group_name_H-M   'P 1'
_cell_length_a   16.55485298
_cell_length_b   16.55399778
_cell_length_c   16.55111339
_cell_angle_alpha   90.02622108
_cell_angle_beta   89.98948199
_cell_angle_gamma   90.02881379
_symmetry_Int_Tables_number   1
_chemical_formula_structural   ZrScNbPdRh
_chemical_formula_sum   'Zr50 Sc50 Nb50 Pd50 Rh50'
_cell_volume   4535.81494140
_cell_formula_units_Z   50
loop_
 _symmetry_equiv_pos_site_id
 _symmetry_equiv_pos_as_xyz
  1  'x, y, z'
loop_
 _atom_site_type_symbol
 _atom_site_label
 _atom_site_symmetry_multiplicity
 _atom_site_fract_x
 _atom_site_fract_y
 _atom_site_fract_z
 _atom_site_occupancy
  Zr  Zr0  1  0.91129813  0.50150504  0.29487812  1
  Zr  Zr1  1  0.69629596  0.50885011  0.29644401  1
  Zr  Zr2  1  0.10615576  0.89887198  0.49501595  1
  Zr  Zr3  1  0.69541754  0.09025442  0.70043334  1
  Zr  Zr4  1  0.69604801  0.71189359  0.29963884  1
  Zr  Zr5  1  0.29514097  0.09485678  0.89232306  1
  Zr  Zr6  1  0.10550002  0.71093772  0.09238274  1
  Zr  Zr7  1  0.90059847  0.49496257  0.68932068  1
  Zr  Zr8  1  0.69763076  0.09419672  0.50297868  1
  Zr  Zr9  1  0.09826498  0.29527017  0.89596872  1
  Zr  Zr10  1  0.29714788  0.89202623  0.09867135  1
  Zr  Zr11  1  0.30171513  0.30388136  0.29505421  1
  Zr  Zr12  1  0.89958220  0.28655928  0.90085895  1
  Zr  Zr13  1  0.90008902  0.70440534  0.29969119  1
  Zr  Zr14  1  0.69118097  0.31128398  0.09362748  1
  Zr  Zr15  1  0.31261423  0.69490783  0.30023777  1
  Zr  Zr16  1  0.88765315  0.30203222  0.31300406  1
  Zr  Zr17  1  0.90167951  0.69228582  0.70061529  1
  Zr  Zr18  1  0.10795409  0.70700037  0.50812784  1
  Zr  Zr19  1  0.30379952  0.09397747  0.50256081  1
  Zr  Zr20  1  0.68854416  0.70147418  0.49680353  1
  Zr  Zr21  1  0.10289847  0.49976389  0.29681788  1
  Zr  Zr22  1  0.70542920  0.89611891  0.10901651  1
  Zr  Zr23  1  0.69524727  0.70337362  0.70437921  1
  Zr  Zr24  1  0.09150615  0.50381863  0.10211855  1
  Zr  Zr25  1  0.10322617  0.09455449  0.30435764  1
  Zr  Zr26  1  0.70345263  0.49465163  0.91372185  1
  Zr  Zr27  1  0.90326931  0.09777962  0.09645170  1
  Zr  Zr28  1  0.69913123  0.29317887  0.90579301  1
  Zr  Zr29  1  0.09688383  0.09441550  0.10807327  1
  Zr  Zr30  1  0.50232466  0.29900840  0.49760377  1
  Zr  Zr31  1  0.69158841  0.89993361  0.50062707  1
  Zr  Zr32  1  0.90555523  0.89251084  0.09386848  1
  Zr  Zr33  1  0.30696732  0.29208266  0.10294277  1
  Zr  Zr34  1  0.10970905  0.10080183  0.70842101  1
  Zr  Zr35  1  0.51001165  0.09493152  0.89938720  1
  Zr  Zr36  1  0.70180348  0.10220815  0.30104857  1
  Zr  Zr37  1  0.10062726  0.90117932  0.29253410  1
  Zr  Zr38  1  0.29928978  0.89635088  0.89958827  1
  Zr  Zr39  1  0.89926698  0.09962909  0.70265127  1
  Zr  Zr40  1  0.09607353  0.30920072  0.30586507  1
  Zr  Zr41  1  0.70392341  0.69134489  0.89889041  1
  Zr  Zr42  1  0.90094931  0.31225784  0.51061339  1
  Zr  Zr43  1  0.30771094  0.50655450  0.70648300  1
  Zr  Zr44  1  0.68921220  0.30019095  0.30010453  1
  Zr  Zr45  1  0.49937067  0.29974328  0.10569215  1
  Zr  Zr46  1  0.70167948  0.50699620  0.70641339  1
  Zr  Zr47  1  0.29253109  0.50391403  0.10396304  1
  Zr  Zr48  1  0.70533422  0.29690263  0.48465509  1
  Zr  Zr49  1  0.10171607  0.30235371  0.50302278  1
  Sc  Sc50  1  0.49200261  0.09781568  0.09803895  1
  Sc  Sc51  1  0.69957634  0.49783383  0.50048673  1
  Sc  Sc52  1  0.49420718  0.90267014  0.10008756  1
  Sc  Sc53  1  0.49688855  0.50364544  0.70121869  1
  Sc  Sc54  1  0.90717129  0.89238057  0.70484313  1
  Sc  Sc55  1  0.50035537  0.69783134  0.89561864  1
  Sc  Sc56  1  0.90081575  0.70713646  0.90036294  1
  Sc  Sc57  1  0.09672099  0.69904647  0.89568317  1
  Sc  Sc58  1  0.49339811  0.89973391  0.90219142  1
  Sc  Sc59  1  0.08843277  0.30049850  0.69888967  1
  Sc  Sc60  1  0.50029745  0.69205429  0.69639478  1
  Sc  Sc61  1  0.30686225  0.09844272  0.70535765  1
  Sc  Sc62  1  0.29221229  0.50293758  0.30339362  1
  Sc  Sc63  1  0.90137952  0.70219232  0.09308081  1
  Sc  Sc64  1  0.29573467  0.70030021  0.89601309  1
  Sc  Sc65  1  0.29819071  0.69920594  0.69797165  1
  Sc  Sc66  1  0.49410485  0.70142955  0.49453891  1
  Sc  Sc67  1  0.90063349  0.09991615  0.49823219  1
  Sc  Sc68  1  0.50826683  0.29786134  0.90050186  1
  Sc  Sc69  1  0.49179261  0.90243684  0.49804194  1
  Sc  Sc70  1  0.30401086  0.89804805  0.70822364  1
  Sc  Sc71  1  0.69763048  0.29172888  0.71568545  1
  Sc  Sc72  1  0.89230129  0.89568032  0.28857518  1
  Sc  Sc73  1  0.69917525  0.88919148  0.89771658  1
  Sc  Sc74  1  0.90185232  0.51212472  0.90017247  1
  Sc  Sc75  1  0.30599406  0.29300692  0.89505013  1
  Sc  Sc76  1  0.50011529  0.50815321  0.30147607  1
  Sc  Sc77  1  0.70428025  0.69162461  0.10155041  1
  Sc  Sc78  1  0.89866359  0.29542304  0.10084894  1
  Sc  Sc79  1  0.31032370  0.29219132  0.69993287  1
  Sc  Sc80  1  0.69358179  0.10019120  0.10117388  1
  Sc  Sc81  1  0.89868792  0.10173434  0.29568792  1
  Sc  Sc82  1  0.09862665  0.69452756  0.29805029  1
  Sc  Sc83  1  0.10034025  0.10139156  0.49691486  1
  Sc  Sc84  1  0.49954267  0.09574111  0.29664078  1
  Sc  Sc85  1  0.10490622  0.50335964  0.49107202  1
  Sc  Sc86  1  0.08803307  0.09701391  0.89624309  1
  Sc  Sc87  1  0.09653305  0.70517554  0.70069109  1
  Sc  Sc88  1  0.09501837  0.50557204  0.70304531  1
  Sc  Sc89  1  0.50317709  0.50317742  0.89358190  1
  Sc  Sc90  1  0.29743542  0.90422862  0.30387285  1
  Sc  Sc91  1  0.29994244  0.09555283  0.28751855  1
  Sc  Sc92  1  0.30115273  0.51526686  0.49850080  1
  Sc  Sc93  1  0.10035306  0.51161874  0.89834358  1
  Sc  Sc94  1  0.09326811  0.29526626  0.10628442  1
  Sc  Sc95  1  0.50569612  0.89781632  0.29508483  1
  Sc  Sc96  1  0.51495413  0.50010484  0.10538462  1
  Sc  Sc97  1  0.50046046  0.51191554  0.50478304  1
  Sc  Sc98  1  0.50389195  0.90212279  0.70282156  1
  Sc  Sc99  1  0.89765127  0.90067682  0.50585374  1
  Nb  Nb100  1  0.89757209  0.09733578  0.90103802  1
  Nb  Nb101  1  0.50850712  0.69693769  0.29573058  1
  Nb  Nb102  1  0.70635535  0.90261809  0.69093653  1
  Nb  Nb103  1  0.49469098  0.70614834  0.10638651  1
  Nb  Nb104  1  0.09963410  0.89807292  0.09417771  1
  Nb  Nb105  1  0.89565300  0.49874098  0.09547350  1
  Nb  Nb106  1  0.70782086  0.49835252  0.09726511  1
  Nb  Nb107  1  0.30081593  0.30241483  0.50057878  1
  Nb  Nb108  1  0.89366237  0.50389496  0.50142889  1
  Nb  Nb109  1  0.49782408  0.30028117  0.30070526  1
  Nb  Nb110  1  0.50064938  0.09847081  0.50290915  1
  Nb  Nb111  1  0.29674845  0.09658936  0.09809374  1
  Nb  Nb112  1  0.29460970  0.89123959  0.49998759  1
  Nb  Nb113  1  0.70417147  0.10391011  0.89614644  1
  Nb  Nb114  1  0.30034770  0.50081931  0.90093523  1
  Nb  Nb115  1  0.90288169  0.70137656  0.50521644  1
  Nb  Nb116  1  0.29919113  0.70970646  0.49854839  1
  Nb  Nb117  1  0.89951195  0.30224075  0.70191598  1
  Nb  Nb118  1  0.09968667  0.89876470  0.70017237  1
  Nb  Nb119  1  0.50323171  0.29935104  0.69762882  1
  Nb  Nb120  1  0.70280076  0.89909201  0.29897693  1
  Nb  Nb121  1  0.09259552  0.90252209  0.89478706  1
  Nb  Nb122  1  0.50280728  0.10052676  0.69756311  1
  Nb  Nb123  1  0.30725586  0.70603727  0.09362906  1
  Nb  Nb124  1  0.90530224  0.90511766  0.90217936  1
  Nb  Nb125  1  0.20101446  0.19386821  0.00278161  1
  Nb  Nb126  1  0.79271750  -0.00534353  0.39683382  1
  Nb  Nb127  1  0.00130999  0.40220277  -0.00019671  1
  Nb  Nb128  1  0.39754467  0.60077225  0.00558079  1
  Nb  Nb129  1  0.59858534  0.19909040  0.60059503  1
  Nb  Nb130  1  0.39509365  0.40729711  0.00068316  1
  Nb  Nb131  1  0.20096930  0.39661144  -0.00356307  1
  Nb  Nb132  1  0.79571964  0.79769463  0.60208110  1
  Nb  Nb133  1  0.59925541  0.39138885  0.60449026  1
  Nb  Nb134  1  0.80666648  0.60440279  0.40425106  1
  Nb  Nb135  1  0.79634571  0.20319420  0.60254963  1
  Nb  Nb136  1  -0.00058936  0.79940632  0.40373008  1
  Nb  Nb137  1  0.80599985  0.39653297  0.80333725  1
  Nb  Nb138  1  0.79691178  0.40584066  0.19686927  1
  Nb  Nb139  1  0.00956217  -0.00346207  0.60470211  1
  Nb  Nb140  1  0.20443496  0.40191526  0.80021127  1
  Nb  Nb141  1  0.19384545  -0.00264969  0.00151321  1
  Nb  Nb142  1  0.80031774  -0.00125346  0.80512533  1
  Nb  Nb143  1  0.20660233  0.40059126  0.60388100  1
  Nb  Nb144  1  0.20770483  0.20510363  0.40054615  1
  Nb  Nb145  1  0.20078434  -0.00815225  0.60018893  1
  Nb  Nb146  1  0.39961650  0.20281697  0.40025021  1
  Nb  Nb147  1  0.39974413  0.39615525  0.40140271  1
  Nb  Nb148  1  0.80107859  0.00011872  -0.00732853  1
  Nb  Nb149  1  0.59714220  0.79435580  0.00622612  1
  Pd  Pd150  1  0.79047760  0.60830916  0.59398708  1
  Pd  Pd151  1  0.80543585  0.80276851  0.40910665  1
  Pd  Pd152  1  0.40080436  0.40640152  0.59476129  1
  Pd  Pd153  1  0.79390604  0.19347527  0.01004314  1
  Pd  Pd154  1  0.19564187  0.79756869  0.79933262  1
  Pd  Pd155  1  0.40496383  0.79365628  0.79685852  1
  Pd  Pd156  1  0.59975261  -0.00202540  0.39534915  1
  Pd  Pd157  1  -0.00405230  0.19286522  0.60167923  1
  Pd  Pd158  1  0.20374504  0.20033580  0.60094485  1
  Pd  Pd159  1  0.39734381  0.00252378  0.39496978  1
  Pd  Pd160  1  0.59130648  0.41216751  0.40374652  1
  Pd  Pd161  1  0.59461731  0.80206442  0.80421862  1
  Pd  Pd162  1  0.59830111  0.00079646  0.19763605  1
  Pd  Pd163  1  -0.00718867  -0.00561908  0.20268143  1
  Pd  Pd164  1  0.00036823  0.60624762  0.40847107  1
  Pd  Pd165  1  0.20048109  0.61180696  0.19904304  1
  Pd  Pd166  1  -0.00097369  0.40625460  0.80814595  1
  Pd  Pd167  1  0.19983634  0.59678913  0.60425809  1
  Pd  Pd168  1  -0.00097976  0.61137435  0.18983014  1
  Pd  Pd169  1  0.79477825  0.20774809  0.19385770  1
  Pd  Pd170  1  0.59446436  0.19552105  0.19746201  1
  Pd  Pd171  1  0.19705601  0.79279584  0.38766617  1
  Pd  Pd172  1  0.40369709  0.59359374  0.19549345  1
  Pd  Pd173  1  0.59221716  0.60531137  0.00556738  1
  Pd  Pd174  1  0.39736654  -0.00816132  0.60603871  1
  Pd  Pd175  1  0.00085044  0.20137673  0.40068246  1
  Pd  Pd176  1  0.60513717  0.40290707  0.79847792  1
  Pd  Pd177  1  0.80348468  0.60170347  0.20315468  1
  Pd  Pd178  1  0.40579968  0.80237252  0.39222356  1
  Pd  Pd179  1  -0.00317723  0.20499098  0.21095267  1
  Pd  Pd180  1  0.59412395  0.80250322  0.60017856  1
  Pd  Pd181  1  0.60445302  -0.00975098  0.80440960  1
  Pd  Pd182  1  0.19569432  0.39531041  0.19198973  1
  Pd  Pd183  1  0.40447091  0.41242530  0.20235933  1
  Pd  Pd184  1  0.20413216  0.79477917  0.20681673  1
  Pd  Pd185  1  0.80342750  0.80467424  0.79676341  1
  Pd  Pd186  1  0.41094388  0.19620445  0.80593089  1
  Pd  Pd187  1  0.78482944  0.39084352  0.61091128  1
  Pd  Pd188  1  0.39949130  0.80667115  0.20837790  1
  Pd  Pd189  1  -0.01207471  -0.00943509  0.40050874  1
  Pd  Pd190  1  -0.00254044  0.40702139  0.40805962  1
  Pd  Pd191  1  0.00847495  0.59568659  0.59356227  1
  Pd  Pd192  1  0.40086234  0.79836895  0.60534118  1
  Pd  Pd193  1  0.40036306  0.39735973  0.80590958  1
  Pd  Pd194  1  0.19700293  0.20120307  0.20313414  1
  Pd  Pd195  1  0.40014655  0.19922730  -0.00636061  1
  Pd  Pd196  1  0.60953309  -0.00987211  -0.00041863  1
  Pd  Pd197  1  0.40454183  0.19759208  0.59775954  1
  Pd  Pd198  1  0.20235549  0.60210100  -0.00258817  1
  Pd  Pd199  1  0.39242707  -0.00015835  -0.00069883  1
  Rh  Rh200  1  0.80068787  0.79261916  0.19316611  1
  Rh  Rh201  1  -0.00267334  0.60319126  0.79779268  1
  Rh  Rh202  1  0.60194202  0.60530354  0.19558117  1
  Rh  Rh203  1  0.39632370  0.60893520  0.59648253  1
  Rh  Rh204  1  0.00564404  0.79920710  -0.00846102  1
  Rh  Rh205  1  0.58807090  0.40377724  -0.00240424  1
  Rh  Rh206  1  0.80516680  0.60510320  -0.00141042  1
  Rh  Rh207  1  0.60200140  0.60218582  0.39841019  1
  Rh  Rh208  1  0.80359383  0.19788964  0.79445121  1
  Rh  Rh209  1  0.81234578  0.39833055  -0.00282635  1
  Rh  Rh210  1  0.58849767  0.18972535  0.40004906  1
  Rh  Rh211  1  0.19854118  -0.00702485  0.80034578  1
  Rh  Rh212  1  -0.00462317  -0.00024167  0.79331228  1
  Rh  Rh213  1  0.20872710  0.39854009  0.40778080  1
  Rh  Rh214  1  0.39870520  0.60567862  0.80705083  1
  Rh  Rh215  1  0.39657914  -0.00426651  0.19693761  1
  Rh  Rh216  1  0.40864416  0.79072329  -0.00565425  1
  Rh  Rh217  1  0.81293350  -0.00340587  0.60424956  1
  Rh  Rh218  1  0.80556076  0.18808672  0.40753675  1
  Rh  Rh219  1  0.20040209  0.20831369  0.80052482  1
  Rh  Rh220  1  0.59389656  0.19505862  0.79714332  1
  Rh  Rh221  1  0.00119508  -0.00068272  0.00055407  1
  Rh  Rh222  1  0.40461926  0.19157747  0.20511631  1
  Rh  Rh223  1  0.80371705  0.59410417  0.80301917  1
  Rh  Rh224  1  -0.00601893  0.80521398  0.59683238  1
  Rh  Rh225  1  0.58920260  0.80374481  0.39667061  1
  Rh  Rh226  1  0.59851299  0.19532004  0.00373005  1
  Rh  Rh227  1  -0.01095142  0.39451785  0.19308116  1
  Rh  Rh228  1  -0.00117884  0.60044383  0.00261900  1
  Rh  Rh229  1  0.80141623  0.41854523  0.38853916  1
  Rh  Rh230  1  -0.00182112  0.19581317  0.79591691  1
  Rh  Rh231  1  0.58729181  -0.00124234  0.60064419  1
  Rh  Rh232  1  0.00284865  0.79903242  0.20212108  1
  Rh  Rh233  1  0.19450775  0.80580028  -0.01147644  1
  Rh  Rh234  1  0.20656505  0.00756480  0.40531106  1
  Rh  Rh235  1  0.01105829  0.41058899  0.59444265  1
  Rh  Rh236  1  0.20856138  0.80592487  0.60948032  1
  Rh  Rh237  1  0.80137755  0.00269798  0.19823735  1
  Rh  Rh238  1  0.20324564  -0.00700894  0.19164816  1
  Rh  Rh239  1  0.60404708  0.40394193  0.20482091  1
  Rh  Rh240  1  0.20309436  0.60976013  0.39793634  1
  Rh  Rh241  1  0.79239545  0.80385135  0.00018296  1
  Rh  Rh242  1  0.40687844  0.00315858  0.79830159  1
  Rh  Rh243  1  0.00760726  0.20053997  0.00009063  1
  Rh  Rh244  1  0.59963977  0.79837881  0.19361541  1
  Rh  Rh245  1  0.19956256  0.59753034  0.79643007  1
  Rh  Rh246  1  0.00070674  0.79890613  0.80383411  1
  Rh  Rh247  1  0.40077773  0.60103499  0.40092811  1
  Rh  Rh248  1  0.59999262  0.59858788  0.80078601  1
  Rh  Rh249  1  0.60171387  0.59270908  0.60331977  1
