# generated using pymatgen
data_ZrScNbPdRh
_symmetry_space_group_name_H-M   'P 1'
_cell_length_a   16.56019706
_cell_length_b   16.55905255
_cell_length_c   16.55784353
_cell_angle_alpha   90.03583268
_cell_angle_beta   90.05867959
_cell_angle_gamma   90.00244912
_symmetry_Int_Tables_number   1
_chemical_formula_structural   ZrScNbPdRh
_chemical_formula_sum   'Zr50 Sc50 Nb50 Pd50 Rh50'
_cell_volume   4540.50800708
_cell_formula_units_Z   50
loop_
 _symmetry_equiv_pos_site_id
 _symmetry_equiv_pos_as_xyz
  1  'x, y, z'
loop_
 _atom_site_type_symbol
 _atom_site_label
 _atom_site_symmetry_multiplicity
 _atom_site_fract_x
 _atom_site_fract_y
 _atom_site_fract_z
 _atom_site_occupancy
  Zr  Zr0  1  0.69900788  0.30354735  0.90585864  1
  Zr  Zr1  1  0.69821415  0.30914183  0.69335012  1
  Zr  Zr2  1  0.50439977  0.89798539  0.89789594  1
  Zr  Zr3  1  0.69524384  0.10485396  0.69887380  1
  Zr  Zr4  1  0.09986747  0.89972764  0.50329640  1
  Zr  Zr5  1  0.69959497  0.90847725  0.09953641  1
  Zr  Zr6  1  0.90150832  0.30206969  0.29649073  1
  Zr  Zr7  1  0.50524073  0.50536348  0.70588355  1
  Zr  Zr8  1  0.89362925  0.69445056  0.31171322  1
  Zr  Zr9  1  0.29991895  0.89567746  0.30559708  1
  Zr  Zr10  1  0.90218951  0.70069706  0.91157282  1
  Zr  Zr11  1  0.90100362  0.49695410  0.30401303  1
  Zr  Zr12  1  0.71192523  0.90793642  0.70314053  1
  Zr  Zr13  1  0.51307283  0.70366099  0.50245652  1
  Zr  Zr14  1  0.10146334  0.30290281  0.10732207  1
  Zr  Zr15  1  0.88600588  0.50481534  0.09943427  1
  Zr  Zr16  1  0.30624274  0.09640213  0.69688260  1
  Zr  Zr17  1  0.90766214  0.30123059  0.70293767  1
  Zr  Zr18  1  0.10754282  0.09642750  0.49838874  1
  Zr  Zr19  1  0.50277896  0.49953999  0.89782207  1
  Zr  Zr20  1  0.29763896  0.09702442  0.09813333  1
  Zr  Zr21  1  0.10357229  0.09551859  0.10799469  1
  Zr  Zr22  1  0.70127056  0.09627313  0.28918491  1
  Zr  Zr23  1  0.50208639  0.09972767  0.70015854  1
  Zr  Zr24  1  0.10133445  0.89433997  0.70041004  1
  Zr  Zr25  1  0.69131595  0.29577183  0.09703108  1
  Zr  Zr26  1  0.88964924  0.30818893  0.48875778  1
  Zr  Zr27  1  0.70604068  0.89829866  0.90056684  1
  Zr  Zr28  1  0.10344137  0.69807919  0.30936845  1
  Zr  Zr29  1  0.68767399  0.49466097  0.09543337  1
  Zr  Zr30  1  0.31100959  0.30354042  0.10031925  1
  Zr  Zr31  1  0.88762818  0.29965582  0.09278793  1
  Zr  Zr32  1  0.70394310  0.49881446  0.51238644  1
  Zr  Zr33  1  0.89927956  0.89935088  0.70457678  1
  Zr  Zr34  1  0.69823966  0.10457736  0.10193023  1
  Zr  Zr35  1  0.10425025  0.50138323  0.10282272  1
  Zr  Zr36  1  0.29876291  0.90198812  0.09788525  1
  Zr  Zr37  1  0.51061540  0.29270912  0.69830927  1
  Zr  Zr38  1  0.49699524  0.10019335  0.30240160  1
  Zr  Zr39  1  0.89650357  0.09613232  0.10780262  1
  Zr  Zr40  1  0.90248006  0.09246291  0.49963642  1
  Zr  Zr41  1  0.29751745  0.69568590  0.70343521  1
  Zr  Zr42  1  0.49320917  0.90050934  0.69661040  1
  Zr  Zr43  1  0.90011521  0.89778466  0.08710318  1
  Zr  Zr44  1  0.70675423  0.69574664  0.49729586  1
  Zr  Zr45  1  0.29560592  0.10151980  0.30175092  1
  Zr  Zr46  1  0.30266808  0.48943185  0.89023038  1
  Zr  Zr47  1  0.10114673  0.90515076  0.09910430  1
  Zr  Zr48  1  0.10072965  0.49148694  0.30212128  1
  Zr  Zr49  1  0.49910026  0.29720558  0.49710727  1
  Sc  Sc50  1  0.09563103  0.70132637  0.50414743  1
  Sc  Sc51  1  0.50824055  0.90460110  0.30437241  1
  Sc  Sc52  1  0.29916813  0.30746967  0.69686846  1
  Sc  Sc53  1  0.90827908  0.10187135  0.90331987  1
  Sc  Sc54  1  0.09588761  0.09824981  0.91122443  1
  Sc  Sc55  1  0.09935770  0.50196688  0.49698810  1
  Sc  Sc56  1  0.69667187  0.69139953  0.10483820  1
  Sc  Sc57  1  0.68592330  0.10051620  0.89959883  1
  Sc  Sc58  1  0.90374874  0.69926648  0.69394714  1
  Sc  Sc59  1  0.50664076  0.69755514  0.09655406  1
  Sc  Sc60  1  0.09496493  0.90615226  0.90796620  1
  Sc  Sc61  1  0.68898836  0.49911456  0.90383848  1
  Sc  Sc62  1  0.69403692  0.90042621  0.29422740  1
  Sc  Sc63  1  0.50563145  0.89565272  0.09402088  1
  Sc  Sc64  1  0.11331094  0.30218410  0.49697582  1
  Sc  Sc65  1  0.31126136  0.89909084  0.89892939  1
  Sc  Sc66  1  0.30376643  0.89340562  0.70234596  1
  Sc  Sc67  1  0.30065907  0.90647364  0.50412929  1
  Sc  Sc68  1  0.70297301  0.69796619  0.69393748  1
  Sc  Sc69  1  0.09835281  0.90630557  0.30986692  1
  Sc  Sc70  1  0.29814527  0.68728924  0.30250364  1
  Sc  Sc71  1  0.10564049  0.50632411  0.69998912  1
  Sc  Sc72  1  0.10437581  0.69698824  0.69867825  1
  Sc  Sc73  1  0.90078215  0.08699990  0.69744975  1
  Sc  Sc74  1  0.10426831  0.30158030  0.70371426  1
  Sc  Sc75  1  0.29508293  0.49693272  0.10329076  1
  Sc  Sc76  1  0.49579903  0.10195377  0.89093251  1
  Sc  Sc77  1  0.49499067  0.30135009  0.90219539  1
  Sc  Sc78  1  0.70037505  0.89171546  0.49865762  1
  Sc  Sc79  1  0.09913921  0.69346635  0.09156705  1
  Sc  Sc80  1  0.49210236  0.09868799  0.49717707  1
  Sc  Sc81  1  0.69107748  0.70106229  0.30368440  1
  Sc  Sc82  1  0.50283571  0.69902739  0.89674845  1
  Sc  Sc83  1  0.70431724  0.29032783  0.30278385  1
  Sc  Sc84  1  0.29605126  0.68898401  0.10302374  1
  Sc  Sc85  1  0.89866526  0.50503181  0.49307555  1
  Sc  Sc86  1  0.49326322  0.50971476  0.50389363  1
  Sc  Sc87  1  0.10394111  0.50498312  0.89381711  1
  Sc  Sc88  1  0.29412783  0.69577047  0.50153476  1
  Sc  Sc89  1  0.69709546  0.10744178  0.49004711  1
  Sc  Sc90  1  0.49736447  0.69608263  0.69904043  1
  Sc  Sc91  1  0.30285851  0.70274344  0.89035445  1
  Sc  Sc92  1  0.69754236  0.51238715  0.28753911  1
  Sc  Sc93  1  0.50133116  0.11299866  0.10034545  1
  Sc  Sc94  1  0.69539685  0.69931207  0.90101629  1
  Sc  Sc95  1  0.90478371  0.89509540  0.50601109  1
  Sc  Sc96  1  0.69529517  0.30228375  0.49850526  1
  Sc  Sc97  1  0.90460020  0.50579407  0.68941701  1
  Sc  Sc98  1  0.10340678  0.09755537  0.69114008  1
  Sc  Sc99  1  0.30196502  0.30136158  0.50246932  1
  Nb  Nb100  1  0.29393799  0.30153096  0.90018726  1
  Nb  Nb101  1  0.70187133  0.49928307  0.70569917  1
  Nb  Nb102  1  0.48141679  0.30755515  0.29606413  1
  Nb  Nb103  1  0.49441239  0.50204565  0.29649463  1
  Nb  Nb104  1  0.49798048  0.69507707  0.30318042  1
  Nb  Nb105  1  0.29428434  0.09736471  0.50694908  1
  Nb  Nb106  1  0.49600760  0.30936710  0.10812710  1
  Nb  Nb107  1  0.49931429  0.49193563  0.10237635  1
  Nb  Nb108  1  0.49827949  0.89968711  0.49891336  1
  Nb  Nb109  1  0.30486538  0.50739725  0.69592085  1
  Nb  Nb110  1  0.30047257  0.10218696  0.90094883  1
  Nb  Nb111  1  0.09661338  0.30057000  0.89693049  1
  Nb  Nb112  1  0.90027188  0.09798358  0.30059438  1
  Nb  Nb113  1  0.09608988  0.10572770  0.29907293  1
  Nb  Nb114  1  0.90043954  0.90135845  0.29746256  1
  Nb  Nb115  1  0.90622354  0.30156025  0.89643383  1
  Nb  Nb116  1  0.30850955  0.30354930  0.29923493  1
  Nb  Nb117  1  0.90378375  0.69926414  0.10254239  1
  Nb  Nb118  1  0.30755240  0.50092946  0.30636692  1
  Nb  Nb119  1  0.89798913  0.49885438  0.90068084  1
  Nb  Nb120  1  0.29971968  0.50154970  0.51333103  1
  Nb  Nb121  1  0.89751872  0.89305809  0.89721476  1
  Nb  Nb122  1  0.10353956  0.70353695  0.89530827  1
  Nb  Nb123  1  0.10182132  0.29856831  0.30113364  1
  Nb  Nb124  1  0.90088419  0.69141229  0.50184138  1
  Nb  Nb125  1  0.20212483  0.20625473  -0.00315255  1
  Nb  Nb126  1  0.20241668  0.19870625  0.80888269  1
  Nb  Nb127  1  -0.00141157  0.79568564  0.20030983  1
  Nb  Nb128  1  -0.00235615  0.79948908  0.80780030  1
  Nb  Nb129  1  0.80512827  0.40299063  0.80279022  1
  Nb  Nb130  1  0.60552649  0.80666036  0.79519866  1
  Nb  Nb131  1  0.39881392  -0.00371402  0.20100098  1
  Nb  Nb132  1  0.80190166  0.59336546  0.80238521  1
  Nb  Nb133  1  0.80520714  -0.00225543  0.39252546  1
  Nb  Nb134  1  -0.00346302  0.39893373  -0.00662262  1
  Nb  Nb135  1  -0.00190887  0.20487333  0.59111674  1
  Nb  Nb136  1  0.00548599  0.19985917  0.39419979  1
  Nb  Nb137  1  0.40036516  0.79727192  0.20595976  1
  Nb  Nb138  1  0.80849403  0.79953263  0.19865561  1
  Nb  Nb139  1  0.19911156  0.79947652  0.00057572  1
  Nb  Nb140  1  0.59655737  -0.00345289  0.59803016  1
  Nb  Nb141  1  0.40313626  0.58980767  -0.00139973  1
  Nb  Nb142  1  0.58731931  0.40482388  0.39051853  1
  Nb  Nb143  1  -0.00383748  0.60307776  0.20155091  1
  Nb  Nb144  1  0.19680879  0.79879721  0.19918048  1
  Nb  Nb145  1  0.20526218  0.00500816  0.80460208  1
  Nb  Nb146  1  0.40705867  0.79669272  0.39979775  1
  Nb  Nb147  1  0.80327595  0.20738723  0.79857609  1
  Nb  Nb148  1  0.80462625  0.20278789  0.60197892  1
  Nb  Nb149  1  -0.00027388  0.39486672  0.59468265  1
  Pd  Pd150  1  0.00403688  0.59095258  0.00141668  1
  Pd  Pd151  1  0.19453748  0.40524868  0.60383628  1
  Pd  Pd152  1  0.59281455  0.20737107  0.39136545  1
  Pd  Pd153  1  0.78055756  0.41033948  0.38951775  1
  Pd  Pd154  1  0.39453122  0.79253896  0.59187170  1
  Pd  Pd155  1  -0.00254462  0.80014529  0.40210929  1
  Pd  Pd156  1  0.21061040  0.60403869  -0.01255209  1
  Pd  Pd157  1  0.78961879  0.60105761  -0.00413286  1
  Pd  Pd158  1  -0.00617896  0.40589781  0.19001335  1
  Pd  Pd159  1  0.59157191  0.00716612  0.00252014  1
  Pd  Pd160  1  0.59894300  0.79685026  0.20042353  1
  Pd  Pd161  1  -0.00514767  0.60658588  0.79907610  1
  Pd  Pd162  1  0.39405692  0.78497588  0.00717799  1
  Pd  Pd163  1  0.80184460  0.01544800  0.81159825  1
  Pd  Pd164  1  0.40054648  0.20240555  -0.00165791  1
  Pd  Pd165  1  0.59071572  0.20906028  0.20814842  1
  Pd  Pd166  1  0.60378685  0.58942777  0.40188152  1
  Pd  Pd167  1  0.20156575  -0.00096117  0.39918885  1
  Pd  Pd168  1  0.58893903  0.40762941  0.59179296  1
  Pd  Pd169  1  0.00210317  0.41238140  0.79655962  1
  Pd  Pd170  1  0.78837883  0.39718879  0.20350371  1
  Pd  Pd171  1  0.80150021  0.01054211  -0.00943849  1
  Pd  Pd172  1  0.00800582  -0.00193918  0.80189588  1
  Pd  Pd173  1  0.39796656  0.40776930  0.40986074  1
  Pd  Pd174  1  0.20134072  0.59291667  0.40691530  1
  Pd  Pd175  1  0.79990079  0.80717799  0.39578961  1
  Pd  Pd176  1  0.40727624  0.40173642  0.60493897  1
  Pd  Pd177  1  0.60597110  0.80660938  0.60840006  1
  Pd  Pd178  1  0.39703764  0.20109005  0.59766267  1
  Pd  Pd179  1  0.00491135  0.18821214  0.79178706  1
  Pd  Pd180  1  0.21062309  0.40225456  0.39923289  1
  Pd  Pd181  1  0.60845099  -0.00339881  0.40714733  1
  Pd  Pd182  1  0.19241838  0.39740566  -0.00290105  1
  Pd  Pd183  1  0.20998643  0.40006851  0.20862610  1
  Pd  Pd184  1  0.40487495  0.39314032  0.79067604  1
  Pd  Pd185  1  0.60439694  0.39279170  0.21078822  1
  Pd  Pd186  1  0.20393202  0.20418473  0.39920548  1
  Pd  Pd187  1  -0.00540191  0.20175678  0.19971694  1
  Pd  Pd188  1  0.39391408  0.20854974  0.79728401  1
  Pd  Pd189  1  0.40951189  0.00435193  0.00321544  1
  Pd  Pd190  1  0.39057651  0.19604433  0.40552947  1
  Pd  Pd191  1  0.00086154  -0.00688412  0.20274689  1
  Pd  Pd192  1  0.00606073  0.20463771  0.00879322  1
  Pd  Pd193  1  0.80526106  0.79641637  0.59926071  1
  Pd  Pd194  1  0.20812491  0.20623571  0.19797452  1
  Pd  Pd195  1  0.39874207  0.60580007  0.40964636  1
  Pd  Pd196  1  0.79876715  0.19153243  -0.01071003  1
  Pd  Pd197  1  0.40355179  0.60144670  0.19169166  1
  Pd  Pd198  1  0.78945418  0.79123883  0.00907909  1
  Pd  Pd199  1  0.20514337  0.79882105  0.59613015  1
  Rh  Rh200  1  0.39635957  -0.00035810  0.80224153  1
  Rh  Rh201  1  0.59556767  0.80082624  0.39671251  1
  Rh  Rh202  1  0.20584354  0.79913040  0.40169613  1
  Rh  Rh203  1  0.39842311  0.19371335  0.20099157  1
  Rh  Rh204  1  0.58916418  0.20556414  -0.00070926  1
  Rh  Rh205  1  0.19061793  0.81378029  0.81258395  1
  Rh  Rh206  1  0.39263574  0.41161142  0.20084521  1
  Rh  Rh207  1  0.40174782  0.40435860  0.00059759  1
  Rh  Rh208  1  0.19998340  0.19990872  0.60640423  1
  Rh  Rh209  1  0.59268371  0.59735071  0.00279973  1
  Rh  Rh210  1  0.60356728  0.59742928  0.60448476  1
  Rh  Rh211  1  0.80984866  0.39974445  0.60650289  1
  Rh  Rh212  1  0.00257466  0.59863495  0.39872632  1
  Rh  Rh213  1  0.39932793  0.60559102  0.60006499  1
  Rh  Rh214  1  0.41205605  0.79633136  0.79859505  1
  Rh  Rh215  1  0.80198896  0.59976281  0.60452486  1
  Rh  Rh216  1  -0.00322480  0.00356207  0.39731595  1
  Rh  Rh217  1  0.00748464  0.39063464  0.40669863  1
  Rh  Rh218  1  0.80137066  -0.00763740  0.20358804  1
  Rh  Rh219  1  0.20171062  -0.00529759  0.21252160  1
  Rh  Rh220  1  0.20551421  -0.00063289  -0.01163760  1
  Rh  Rh221  1  0.60450876  0.20861484  0.80667467  1
  Rh  Rh222  1  0.59668292  -0.00827348  0.79212339  1
  Rh  Rh223  1  0.80381002  0.78487549  0.80119559  1
  Rh  Rh224  1  0.20408236  -0.00658643  0.61003083  1
  Rh  Rh225  1  0.58816706  0.39342415  0.00112032  1
  Rh  Rh226  1  0.58858211  0.00323604  0.19207022  1
  Rh  Rh227  1  0.60630000  0.79992474  -0.00629822  1
  Rh  Rh228  1  0.79242988  0.59460224  0.40071683  1
  Rh  Rh229  1  0.78496828  0.00745401  0.58372371  1
  Rh  Rh230  1  0.19820812  0.59899362  0.59970844  1
  Rh  Rh231  1  0.80898659  0.18934422  0.40170355  1
  Rh  Rh232  1  -0.00882877  0.00256813  0.00122357  1
  Rh  Rh233  1  0.00657826  -0.00091365  0.59941973  1
  Rh  Rh234  1  -0.00202985  0.79636344  0.60556813  1
  Rh  Rh235  1  0.19960735  0.39887924  0.79358249  1
  Rh  Rh236  1  0.60241155  0.39598891  0.80237170  1
  Rh  Rh237  1  0.80423242  0.60999118  0.20236494  1
  Rh  Rh238  1  0.60929830  0.61001922  0.79408372  1
  Rh  Rh239  1  0.80280456  0.20230907  0.20060523  1
  Rh  Rh240  1  0.20484501  0.59659344  0.80078154  1
  Rh  Rh241  1  0.40306939  0.00128006  0.59475973  1
  Rh  Rh242  1  0.19139451  0.59928862  0.20884011  1
  Rh  Rh243  1  0.00334674  0.59534103  0.59236549  1
  Rh  Rh244  1  0.39505473  -0.00199565  0.39984625  1
  Rh  Rh245  1  0.39711861  0.59975141  0.80468498  1
  Rh  Rh246  1  0.00917588  0.79892224  -0.00222567  1
  Rh  Rh247  1  0.60355333  0.19175888  0.59090889  1
  Rh  Rh248  1  0.80272718  0.40253446  -0.00651175  1
  Rh  Rh249  1  0.58884737  0.59985073  0.19843396  1
