# generated using pymatgen
data_ZrScNbPdRh
_symmetry_space_group_name_H-M   'P 1'
_cell_length_a   16.55448703
_cell_length_b   16.55626582
_cell_length_c   16.55684658
_cell_angle_alpha   89.97499452
_cell_angle_beta   90.02270652
_cell_angle_gamma   89.97061012
_symmetry_Int_Tables_number   1
_chemical_formula_structural   ZrScNbPdRh
_chemical_formula_sum   'Zr50 Sc50 Nb50 Pd50 Rh50'
_cell_volume   4537.90720151
_cell_formula_units_Z   50
loop_
 _symmetry_equiv_pos_site_id
 _symmetry_equiv_pos_as_xyz
  1  'x, y, z'
loop_
 _atom_site_type_symbol
 _atom_site_label
 _atom_site_symmetry_multiplicity
 _atom_site_fract_x
 _atom_site_fract_y
 _atom_site_fract_z
 _atom_site_occupancy
  Zr  Zr0  1  0.69731556  0.30016224  0.49792441  1
  Zr  Zr1  1  0.69380499  0.09499190  0.10307175  1
  Zr  Zr2  1  0.90320423  0.89834842  0.88706170  1
  Zr  Zr3  1  0.49913001  0.30992840  0.50202136  1
  Zr  Zr4  1  0.49635280  0.10024065  0.70427496  1
  Zr  Zr5  1  0.69589935  0.50083653  0.48975255  1
  Zr  Zr6  1  0.50548677  0.89925819  0.90820351  1
  Zr  Zr7  1  0.50330501  0.69892143  0.69779527  1
  Zr  Zr8  1  0.89914614  0.30641576  0.70280211  1
  Zr  Zr9  1  0.69005128  0.70863724  0.89993997  1
  Zr  Zr10  1  0.09574475  0.29234559  0.89519317  1
  Zr  Zr11  1  0.49398610  0.29810827  0.70653438  1
  Zr  Zr12  1  0.50246379  0.09641817  0.49186057  1
  Zr  Zr13  1  0.29863001  0.90709423  0.09154524  1
  Zr  Zr14  1  0.69913649  0.70116263  0.49727143  1
  Zr  Zr15  1  0.49524883  0.30463282  0.90110126  1
  Zr  Zr16  1  0.50603867  0.69263911  0.09143467  1
  Zr  Zr17  1  0.10621743  0.50475330  0.10154878  1
  Zr  Zr18  1  0.30596811  0.10149690  0.29423405  1
  Zr  Zr19  1  0.89499314  0.50624053  0.89304850  1
  Zr  Zr20  1  0.30196350  0.49980234  0.29669755  1
  Zr  Zr21  1  0.28632322  0.30076660  0.49768283  1
  Zr  Zr22  1  0.70492773  0.50797589  0.29822426  1
  Zr  Zr23  1  0.50285270  0.89808293  0.49515473  1
  Zr  Zr24  1  0.09683669  0.88960046  0.09818784  1
  Zr  Zr25  1  0.09512410  0.29840443  0.10182708  1
  Zr  Zr26  1  0.89519201  0.29389453  0.50340153  1
  Zr  Zr27  1  0.69688948  0.50269182  0.10449736  1
  Zr  Zr28  1  0.48684491  0.49210949  0.69376575  1
  Zr  Zr29  1  0.90296557  0.70589143  0.09321337  1
  Zr  Zr30  1  0.90462589  0.68970310  0.29712742  1
  Zr  Zr31  1  0.30588314  0.30692405  0.10730231  1
  Zr  Zr32  1  0.49613289  0.29572342  0.30398804  1
  Zr  Zr33  1  0.50014590  0.70233654  0.30280732  1
  Zr  Zr34  1  0.09292121  0.70298963  0.10088737  1
  Zr  Zr35  1  0.70194680  0.29403067  0.89717838  1
  Zr  Zr36  1  0.30238295  0.49691386  0.09904283  1
  Zr  Zr37  1  0.70693844  0.29446448  0.70309657  1
  Zr  Zr38  1  0.09921527  0.50632378  0.30503550  1
  Zr  Zr39  1  0.89970259  0.10203949  0.30006110  1
  Zr  Zr40  1  0.90322154  0.90644029  0.50407608  1
  Zr  Zr41  1  0.90745798  0.51009204  0.69987876  1
  Zr  Zr42  1  0.30446290  0.89709913  0.50350414  1
  Zr  Zr43  1  0.50501938  0.50275414  0.30946458  1
  Zr  Zr44  1  0.10729228  0.49393202  0.50957081  1
  Zr  Zr45  1  0.70351934  0.69935629  0.10116469  1
  Zr  Zr46  1  0.70896492  0.10283117  0.49678461  1
  Zr  Zr47  1  0.89203151  0.70555906  0.51093913  1
  Zr  Zr48  1  0.10166546  0.10269136  0.49645622  1
  Zr  Zr49  1  0.89981489  0.28813259  0.89916984  1
  Sc  Sc50  1  0.49649668  0.49937767  0.09658261  1
  Sc  Sc51  1  0.69578738  0.69835572  0.30138901  1
  Sc  Sc52  1  0.69699805  0.89810955  0.09787911  1
  Sc  Sc53  1  0.49622247  0.70935518  0.49758579  1
  Sc  Sc54  1  0.10835122  0.29946756  0.70106831  1
  Sc  Sc55  1  0.89621482  0.28798467  0.10551582  1
  Sc  Sc56  1  0.69816065  0.29623498  0.29374164  1
  Sc  Sc57  1  0.90301425  0.09112414  0.70331138  1
  Sc  Sc58  1  0.89662790  0.51537119  0.10675618  1
  Sc  Sc59  1  0.69678661  0.09833964  0.29901965  1
  Sc  Sc60  1  0.08999821  0.09805317  0.89441148  1
  Sc  Sc61  1  0.29917521  0.50045087  0.90583371  1
  Sc  Sc62  1  0.29845255  0.89620696  0.29486630  1
  Sc  Sc63  1  0.50147172  0.30657748  0.10324404  1
  Sc  Sc64  1  0.30344407  0.49791901  0.50636117  1
  Sc  Sc65  1  0.70756387  0.49735485  0.70504544  1
  Sc  Sc66  1  0.50622148  0.91216743  0.09901607  1
  Sc  Sc67  1  0.69591562  0.29755956  0.10251960  1
  Sc  Sc68  1  0.30072959  0.30756947  0.70793418  1
  Sc  Sc69  1  0.10293598  0.88928928  0.29670475  1
  Sc  Sc70  1  0.29949190  0.70641437  0.50428101  1
  Sc  Sc71  1  0.70670035  0.89325966  0.49935263  1
  Sc  Sc72  1  0.89885903  0.10185711  0.10103190  1
  Sc  Sc73  1  0.09541788  0.90197425  0.50132707  1
  Sc  Sc74  1  0.10617487  0.69367504  0.70018837  1
  Sc  Sc75  1  0.69812079  0.70763301  0.69973334  1
  Sc  Sc76  1  0.90134345  0.89451568  0.69718525  1
  Sc  Sc77  1  0.89539673  0.90392385  0.30043285  1
  Sc  Sc78  1  0.69614472  0.50878022  0.89694720  1
  Sc  Sc79  1  0.50429762  0.90177838  0.30256190  1
  Sc  Sc80  1  0.10928520  0.70003307  0.49871200  1
  Sc  Sc81  1  0.29956051  0.09503962  0.50256383  1
  Sc  Sc82  1  0.29926414  0.30960503  0.89590598  1
  Sc  Sc83  1  0.10624743  0.50292115  0.90126433  1
  Sc  Sc84  1  0.09706955  0.09275581  0.09133430  1
  Sc  Sc85  1  0.09783486  0.90710920  0.70174091  1
  Sc  Sc86  1  0.89509431  0.89702953  0.10237871  1
  Sc  Sc87  1  0.90070186  0.50750092  0.50602459  1
  Sc  Sc88  1  0.50335159  0.10292838  0.90351589  1
  Sc  Sc89  1  0.10458399  0.90219359  0.90506930  1
  Sc  Sc90  1  0.29517142  0.08773101  0.90494156  1
  Sc  Sc91  1  0.49860730  0.89330992  0.68508665  1
  Sc  Sc92  1  0.50201818  0.09621601  0.29752490  1
  Sc  Sc93  1  0.30005777  0.70185719  0.31039189  1
  Sc  Sc94  1  0.10324800  0.70001590  0.30022821  1
  Sc  Sc95  1  0.30098534  0.30361933  0.30352394  1
  Sc  Sc96  1  0.29548555  0.68786077  0.09206152  1
  Sc  Sc97  1  0.69673090  0.90397162  0.29396732  1
  Sc  Sc98  1  0.30284080  0.08995902  0.10435718  1
  Sc  Sc99  1  0.10327615  0.70705939  0.90768213  1
  Nb  Nb100  1  0.30040481  0.89464136  0.90011450  1
  Nb  Nb101  1  0.30016747  0.70392851  0.89823866  1
  Nb  Nb102  1  0.70237721  0.10415595  0.89434979  1
  Nb  Nb103  1  0.30084297  0.70085984  0.70173167  1
  Nb  Nb104  1  0.49106627  0.09730205  0.09982390  1
  Nb  Nb105  1  0.10283339  0.29860599  0.49506617  1
  Nb  Nb106  1  0.10472809  0.49838648  0.69887664  1
  Nb  Nb107  1  0.69827285  0.90455051  0.89754089  1
  Nb  Nb108  1  0.29795632  0.09031521  0.69643253  1
  Nb  Nb109  1  0.09612581  0.10162138  0.30232004  1
  Nb  Nb110  1  0.90302935  0.49848330  0.30182414  1
  Nb  Nb111  1  0.30234876  0.90162137  0.70011796  1
  Nb  Nb112  1  0.90918707  0.09103758  0.49733983  1
  Nb  Nb113  1  0.10145850  0.10296054  0.69950858  1
  Nb  Nb114  1  0.29102270  0.50281334  0.70099581  1
  Nb  Nb115  1  0.50525474  0.49536130  0.50191808  1
  Nb  Nb116  1  0.09870966  0.29282506  0.30717819  1
  Nb  Nb117  1  0.90125628  0.10113536  0.90032966  1
  Nb  Nb118  1  0.90153035  0.70358145  0.71025514  1
  Nb  Nb119  1  0.69609177  0.10117496  0.70407701  1
  Nb  Nb120  1  0.50104367  0.69407210  0.89647439  1
  Nb  Nb121  1  0.70129286  0.90205077  0.70164535  1
  Nb  Nb122  1  0.90542042  0.29817044  0.29459502  1
  Nb  Nb123  1  0.50088761  0.50803932  0.89832610  1
  Nb  Nb124  1  0.89800176  0.70373251  0.89090488  1
  Nb  Nb125  1  0.40091251  0.79560266  -0.00437948  1
  Nb  Nb126  1  -0.00020376  0.39441508  0.39890804  1
  Nb  Nb127  1  0.79672479  0.00430902  -0.01315121  1
  Nb  Nb128  1  0.39533232  0.20001418  0.00414940  1
  Nb  Nb129  1  0.39535911  0.79934661  0.80211320  1
  Nb  Nb130  1  -0.00582512  0.79697214  0.40332525  1
  Nb  Nb131  1  0.19440233  0.19856063  0.20134264  1
  Nb  Nb132  1  0.00360796  0.00103034  0.20442774  1
  Nb  Nb133  1  0.00422738  0.19666753  0.59630117  1
  Nb  Nb134  1  0.60336327  -0.00060688  0.79705345  1
  Nb  Nb135  1  0.39871034  -0.00971733  0.79830482  1
  Nb  Nb136  1  0.20394897  0.20102909  0.00561853  1
  Nb  Nb137  1  0.59778092  0.19685890  0.60195395  1
  Nb  Nb138  1  0.00101044  0.40454482  0.80078957  1
  Nb  Nb139  1  0.59533861  0.39878879  0.80189808  1
  Nb  Nb140  1  -0.00139090  0.39918585  0.20508297  1
  Nb  Nb141  1  0.59490686  0.59327048  0.59592408  1
  Nb  Nb142  1  -0.00751916  0.40143630  0.00139161  1
  Nb  Nb143  1  0.39502223  0.60528242  0.79941359  1
  Nb  Nb144  1  0.81005514  0.39898825  0.39188523  1
  Nb  Nb145  1  0.60757497  0.00390305  0.60354743  1
  Nb  Nb146  1  0.39920562  0.19879106  0.60223146  1
  Nb  Nb147  1  0.19609163  0.00302181  0.39473484  1
  Nb  Nb148  1  0.80384620  0.40088157  0.00025290  1
  Nb  Nb149  1  0.40255495  0.79730702  0.18893690  1
  Pd  Pd150  1  0.39511711  0.40322165  0.40231375  1
  Pd  Pd151  1  0.21210423  0.79029848  0.19436726  1
  Pd  Pd152  1  0.20814819  0.19260638  0.80681856  1
  Pd  Pd153  1  0.59423023  0.80193349  0.19551178  1
  Pd  Pd154  1  0.79571200  0.19649333  0.00709502  1
  Pd  Pd155  1  0.59516132  0.40351073  0.20588507  1
  Pd  Pd156  1  -0.00094384  0.60310417  0.41276592  1
  Pd  Pd157  1  0.79804403  0.00099707  0.60266301  1
  Pd  Pd158  1  0.60819227  0.40018818  0.61093882  1
  Pd  Pd159  1  0.80335981  0.80009590  0.39165389  1
  Pd  Pd160  1  -0.00500073  0.20210172  0.40593534  1
  Pd  Pd161  1  0.00709843  0.61039453  0.59857719  1
  Pd  Pd162  1  0.20858303  0.59716469  0.40829288  1
  Pd  Pd163  1  0.79899565  0.00199294  0.79934893  1
  Pd  Pd164  1  0.39246989  -0.00674165  0.39220348  1
  Pd  Pd165  1  0.80118289  0.79777813  0.20613060  1
  Pd  Pd166  1  0.20164343  0.59977303  0.80585722  1
  Pd  Pd167  1  0.01159050  0.60204231  0.80582003  1
  Pd  Pd168  1  0.19315646  0.39397052  0.21014338  1
  Pd  Pd169  1  0.19770812  0.80385950  0.79465236  1
  Pd  Pd170  1  0.00518843  0.39247881  0.60132464  1
  Pd  Pd171  1  0.59382797  0.80979794  0.79498302  1
  Pd  Pd172  1  0.80121661  0.80870276  -0.00885947  1
  Pd  Pd173  1  0.00055725  0.59847364  -0.00613420  1
  Pd  Pd174  1  0.59145785  0.19599582  0.19855286  1
  Pd  Pd175  1  0.59175588  0.19757923  0.00461770  1
  Pd  Pd176  1  0.19621959  0.80433246  0.60548588  1
  Pd  Pd177  1  0.60684247  0.40578984  -0.00642013  1
  Pd  Pd178  1  0.79563247  0.60009390  -0.00443081  1
  Pd  Pd179  1  0.79569298  -0.00327792  0.39691410  1
  Pd  Pd180  1  0.00681890  0.79412375  0.59984055  1
  Pd  Pd181  1  0.79988756  0.20438821  0.39052062  1
  Pd  Pd182  1  0.19081468  0.00410845  0.20314167  1
  Pd  Pd183  1  0.39994662  0.59935293  0.41105869  1
  Pd  Pd184  1  0.01305583  0.79778726  0.79879609  1
  Pd  Pd185  1  0.20333181  0.20157003  0.60750098  1
  Pd  Pd186  1  0.19908122  0.00034164  0.80291566  1
  Pd  Pd187  1  0.79062172  0.60241580  0.60704798  1
  Pd  Pd188  1  0.38519023  0.18770732  0.80603009  1
  Pd  Pd189  1  0.79161624  0.61171098  0.79579665  1
  Pd  Pd190  1  0.80670320  0.39762625  0.19605899  1
  Pd  Pd191  1  0.19392030  0.39317045  -0.00399453  1
  Pd  Pd192  1  0.40063660  0.60422296  0.59791547  1
  Pd  Pd193  1  -0.01001151  -0.00552976  0.00480042  1
  Pd  Pd194  1  0.19486728  -0.00494114  0.59409223  1
  Pd  Pd195  1  0.80668095  0.18774227  0.60699078  1
  Pd  Pd196  1  0.20306765  0.60829707  0.20266758  1
  Pd  Pd197  1  0.39494966  0.20033417  0.40889232  1
  Pd  Pd198  1  0.40156950  0.60492489  0.20058520  1
  Pd  Pd199  1  0.79740654  0.40905378  0.59311920  1
  Rh  Rh200  1  0.40005911  0.41511515  0.80835297  1
  Rh  Rh201  1  0.39850705  0.80426648  0.39058720  1
  Rh  Rh202  1  0.00492356  0.19923118  0.00271251  1
  Rh  Rh203  1  -0.00333496  0.19981347  0.78602958  1
  Rh  Rh204  1  0.59098415  0.60766468  0.40789817  1
  Rh  Rh205  1  0.19323029  0.40783980  0.79989917  1
  Rh  Rh206  1  0.40807535  0.40568264  0.20734992  1
  Rh  Rh207  1  0.60397340  0.80238476  0.39795148  1
  Rh  Rh208  1  0.19498536  0.80984954  0.40652150  1
  Rh  Rh209  1  0.59704732  0.00271220  0.19999144  1
  Rh  Rh210  1  0.19847354  0.60285937  -0.00316597  1
  Rh  Rh211  1  -0.00817567  0.80551246  0.21059260  1
  Rh  Rh212  1  0.20725502  0.19095208  0.39031853  1
  Rh  Rh213  1  0.00363705  0.59771889  0.19667497  1
  Rh  Rh214  1  0.80629821  0.59621148  0.39936245  1
  Rh  Rh215  1  0.20216873  0.39607363  0.60679741  1
  Rh  Rh216  1  0.80034943  0.60744036  0.20163200  1
  Rh  Rh217  1  0.20355566  0.59930582  0.60047682  1
  Rh  Rh218  1  0.79500668  0.19532634  0.20291301  1
  Rh  Rh219  1  0.40652143  -0.01120077  0.20347358  1
  Rh  Rh220  1  0.79958777  0.39988706  0.81017917  1
  Rh  Rh221  1  0.60730023  0.80143477  0.59430148  1
  Rh  Rh222  1  0.79992125  0.80132058  0.61028948  1
  Rh  Rh223  1  0.60727787  0.00996439  -0.00598197  1
  Rh  Rh224  1  0.40235247  0.39975685  -0.00156838  1
  Rh  Rh225  1  0.59653369  0.59860233  0.19959982  1
  Rh  Rh226  1  0.00512354  0.00859775  0.60560470  1
  Rh  Rh227  1  0.00560608  0.19369755  0.19685035  1
  Rh  Rh228  1  0.59971608  0.20218461  0.40281727  1
  Rh  Rh229  1  0.39927579  0.20022216  0.19321879  1
  Rh  Rh230  1  0.40648277  0.00418011  0.60437757  1
  Rh  Rh231  1  0.59858610  0.79883380  0.00373032  1
  Rh  Rh232  1  0.60671402  0.59738878  0.00151870  1
  Rh  Rh233  1  0.40221352  0.00147695  -0.00730435  1
  Rh  Rh234  1  0.39512817  0.79687265  0.60385621  1
  Rh  Rh235  1  0.19452560  0.00189648  -0.00342534  1
  Rh  Rh236  1  0.38693031  0.39104415  0.59586775  1
  Rh  Rh237  1  0.80956352  0.19141782  0.79407229  1
  Rh  Rh238  1  0.20593627  0.79885275  0.00548216  1
  Rh  Rh239  1  0.60115327  0.20349052  0.79788464  1
  Rh  Rh240  1  -0.00798850  0.80251896  -0.00978706  1
  Rh  Rh241  1  0.59102946  0.58716325  0.78433176  1
  Rh  Rh242  1  0.39887191  0.60039077  -0.00874974  1
  Rh  Rh243  1  0.19527551  0.40651057  0.39600931  1
  Rh  Rh244  1  0.00300672  -0.00036195  0.79885794  1
  Rh  Rh245  1  0.60902469  -0.00281991  0.40607472  1
  Rh  Rh246  1  0.00748899  -0.01208121  0.39035956  1
  Rh  Rh247  1  0.60806099  0.39545367  0.38977022  1
  Rh  Rh248  1  0.79721377  0.79812776  0.79943555  1
  Rh  Rh249  1  0.80378037  0.00316183  0.19022139  1
