# generated using pymatgen
data_ZrScNbPdRh
_symmetry_space_group_name_H-M   'P 1'
_cell_length_a   16.55085931
_cell_length_b   16.55461321
_cell_length_c   16.55471831
_cell_angle_alpha   89.98038600
_cell_angle_beta   90.01949265
_cell_angle_gamma   89.97969026
_symmetry_Int_Tables_number   1
_chemical_formula_structural   ZrScNbPdRh
_chemical_formula_sum   'Zr50 Sc50 Nb50 Pd50 Rh50'
_cell_volume   4535.87734859
_cell_formula_units_Z   50
loop_
 _symmetry_equiv_pos_site_id
 _symmetry_equiv_pos_as_xyz
  1  'x, y, z'
loop_
 _atom_site_type_symbol
 _atom_site_label
 _atom_site_symmetry_multiplicity
 _atom_site_fract_x
 _atom_site_fract_y
 _atom_site_fract_z
 _atom_site_occupancy
  Zr  Zr0  1  0.29785966  0.29630508  0.69715244  1
  Zr  Zr1  1  0.49915000  0.29937812  0.30290772  1
  Zr  Zr2  1  0.30517153  0.29247738  0.50275796  1
  Zr  Zr3  1  0.30673739  0.29903869  0.30254028  1
  Zr  Zr4  1  0.70574366  0.10080775  0.30153413  1
  Zr  Zr5  1  0.70162737  0.51028232  0.49610745  1
  Zr  Zr6  1  0.89959536  0.69938066  0.30116643  1
  Zr  Zr7  1  0.10167660  0.10096134  0.09595684  1
  Zr  Zr8  1  0.29391349  0.50683786  0.09849114  1
  Zr  Zr9  1  0.09951485  0.10040168  0.70446299  1
  Zr  Zr10  1  0.69646097  0.50901693  0.29952773  1
  Zr  Zr11  1  0.50524284  0.89193713  0.50228705  1
  Zr  Zr12  1  0.50666206  0.11009940  0.29504745  1
  Zr  Zr13  1  0.09556539  0.89301000  0.50593505  1
  Zr  Zr14  1  0.29601390  0.89743616  0.09794230  1
  Zr  Zr15  1  0.69806676  0.30067669  0.69989550  1
  Zr  Zr16  1  0.70077256  0.28676394  0.29984089  1
  Zr  Zr17  1  0.29955789  0.90421708  0.70904714  1
  Zr  Zr18  1  0.29623486  0.68445932  0.89834353  1
  Zr  Zr19  1  0.10466037  0.50759539  0.89948449  1
  Zr  Zr20  1  0.10337710  0.29685034  0.70456981  1
  Zr  Zr21  1  0.71189134  0.30073281  0.09230611  1
  Zr  Zr22  1  0.70182936  0.30189285  0.90647634  1
  Zr  Zr23  1  0.29029441  0.29961771  0.89994721  1
  Zr  Zr24  1  0.29321090  0.70617412  0.10398534  1
  Zr  Zr25  1  0.69820275  0.29401919  0.49652867  1
  Zr  Zr26  1  0.10540690  0.70023698  0.51278749  1
  Zr  Zr27  1  0.10506136  0.29753485  0.50291513  1
  Zr  Zr28  1  0.09702055  0.69867526  0.89850596  1
  Zr  Zr29  1  0.49844476  0.89578193  0.30128126  1
  Zr  Zr30  1  0.70754882  0.50994196  0.71113328  1
  Zr  Zr31  1  0.49900603  0.29624557  0.69269989  1
  Zr  Zr32  1  0.50218770  0.70367771  0.89409186  1
  Zr  Zr33  1  0.49551060  0.51020750  0.89567880  1
  Zr  Zr34  1  0.49865809  0.50523583  0.30359799  1
  Zr  Zr35  1  0.09507101  0.10164695  0.29945875  1
  Zr  Zr36  1  0.50129480  0.29658398  0.10309285  1
  Zr  Zr37  1  0.89415175  0.09443766  0.49924244  1
  Zr  Zr38  1  0.49979674  0.30254844  0.50225801  1
  Zr  Zr39  1  0.29156317  0.49946884  0.29845362  1
  Zr  Zr40  1  0.70607821  0.70621501  0.69919642  1
  Zr  Zr41  1  0.50232986  0.09236339  0.70737499  1
  Zr  Zr42  1  0.49357660  0.90481077  0.88748424  1
  Zr  Zr43  1  0.89633205  0.09804327  0.30277237  1
  Zr  Zr44  1  0.49594279  0.50046988  0.69448152  1
  Zr  Zr45  1  0.69905644  0.89924232  0.69456040  1
  Zr  Zr46  1  0.50263407  0.90254521  0.69956798  1
  Zr  Zr47  1  0.49793878  0.50429450  0.49749234  1
  Zr  Zr48  1  0.09604622  0.69994574  0.29763546  1
  Zr  Zr49  1  0.70169518  0.69922940  0.89019935  1
  Sc  Sc50  1  0.90116899  0.29619529  0.29250745  1
  Sc  Sc51  1  0.10086642  0.70614667  0.70331184  1
  Sc  Sc52  1  0.89919030  0.70288660  0.50343022  1
  Sc  Sc53  1  0.50514418  0.70415611  0.10715774  1
  Sc  Sc54  1  0.50110764  0.89579366  0.10227704  1
  Sc  Sc55  1  0.69183245  0.69960331  0.29802943  1
  Sc  Sc56  1  0.91099326  0.30203209  0.49855536  1
  Sc  Sc57  1  0.10142645  0.09638263  0.49754402  1
  Sc  Sc58  1  0.90045558  0.90009487  0.50543361  1
  Sc  Sc59  1  0.09561056  0.29808323  0.89654640  1
  Sc  Sc60  1  0.70345631  0.89897749  0.29208801  1
  Sc  Sc61  1  0.89756031  0.90089686  0.09742140  1
  Sc  Sc62  1  0.90603777  0.50028574  0.89041753  1
  Sc  Sc63  1  0.09725890  0.49735557  0.71082208  1
  Sc  Sc64  1  0.50264870  0.70355032  0.30354740  1
  Sc  Sc65  1  0.30367192  0.51456666  0.50519468  1
  Sc  Sc66  1  0.29677107  0.10183703  0.50220030  1
  Sc  Sc67  1  0.09374666  0.89929530  0.30486006  1
  Sc  Sc68  1  0.90279357  0.50625767  0.49192325  1
  Sc  Sc69  1  0.49582030  0.70489423  0.70232034  1
  Sc  Sc70  1  0.10168305  0.69858412  0.09926447  1
  Sc  Sc71  1  0.90340804  0.09752207  0.09005345  1
  Sc  Sc72  1  0.91512190  0.30548249  0.70426403  1
  Sc  Sc73  1  0.70181721  0.10177874  0.90075942  1
  Sc  Sc74  1  0.10478091  0.89786875  0.89566325  1
  Sc  Sc75  1  0.29509696  0.29485249  0.10781940  1
  Sc  Sc76  1  0.09357561  0.29622834  0.09751765  1
  Sc  Sc77  1  0.10240436  0.49920431  0.48778932  1
  Sc  Sc78  1  0.50230794  0.10088689  0.10345159  1
  Sc  Sc79  1  0.90172492  0.30031895  0.90516120  1
  Sc  Sc80  1  0.30065602  0.10925301  0.30937048  1
  Sc  Sc81  1  0.90394494  0.70371262  0.89640591  1
  Sc  Sc82  1  0.89859072  0.89968230  0.70034528  1
  Sc  Sc83  1  0.30071227  0.89251739  0.30107516  1
  Sc  Sc84  1  0.90010653  0.89877963  0.29946465  1
  Sc  Sc85  1  0.10052040  0.89490656  0.70031162  1
  Sc  Sc86  1  0.49644501  0.09929579  0.50444976  1
  Sc  Sc87  1  0.89708994  0.70596760  0.70635861  1
  Sc  Sc88  1  0.50286737  0.50186279  0.10163691  1
  Sc  Sc89  1  0.09340873  0.09769760  0.90267146  1
  Sc  Sc90  1  0.29978906  0.70265199  0.30005434  1
  Sc  Sc91  1  0.10626595  0.30183398  0.30509813  1
  Sc  Sc92  1  0.09884623  0.89233747  0.09573812  1
  Sc  Sc93  1  0.29225901  0.08469530  0.90495318  1
  Sc  Sc94  1  0.89835072  0.90475695  0.90026981  1
  Sc  Sc95  1  0.69991932  0.70783535  0.10624677  1
  Sc  Sc96  1  0.90543268  0.70593492  0.09925155  1
  Sc  Sc97  1  0.69490314  0.09026087  0.69430202  1
  Sc  Sc98  1  0.70470664  0.89635205  0.10088788  1
  Sc  Sc99  1  0.30430197  0.90535644  0.50250957  1
  Nb  Nb100  1  0.29855769  0.09803710  0.09863707  1
  Nb  Nb101  1  0.70799412  0.09369603  0.49241294  1
  Nb  Nb102  1  0.29005071  0.68758406  0.68386578  1
  Nb  Nb103  1  0.29850557  0.10258935  0.69977876  1
  Nb  Nb104  1  0.89963652  0.09941333  0.89232220  1
  Nb  Nb105  1  0.89981009  0.10030151  0.70439989  1
  Nb  Nb106  1  0.69599267  0.70767183  0.49997863  1
  Nb  Nb107  1  0.49988889  0.29733112  0.89996340  1
  Nb  Nb108  1  0.69497436  0.89498245  0.89859094  1
  Nb  Nb109  1  0.30100406  0.89580001  0.90261477  1
  Nb  Nb110  1  0.09282963  0.50811199  0.28846431  1
  Nb  Nb111  1  0.89458221  0.30951503  0.09271773  1
  Nb  Nb112  1  0.29899159  0.69829835  0.50720202  1
  Nb  Nb113  1  0.90146102  0.50245207  0.69879592  1
  Nb  Nb114  1  0.49986979  0.09917438  0.89973355  1
  Nb  Nb115  1  0.90438924  0.50543556  0.29682979  1
  Nb  Nb116  1  0.09513590  0.50412316  0.10831510  1
  Nb  Nb117  1  0.70397869  0.49396836  0.09589931  1
  Nb  Nb118  1  0.69965184  0.10023629  0.10028737  1
  Nb  Nb119  1  0.90057878  0.48625209  0.10559358  1
  Nb  Nb120  1  0.49705281  0.70056086  0.50027917  1
  Nb  Nb121  1  0.70058984  0.90038039  0.50405764  1
  Nb  Nb122  1  0.70042287  0.49990582  0.90072533  1
  Nb  Nb123  1  0.29946989  0.50109635  0.89790873  1
  Nb  Nb124  1  0.29889424  0.50046762  0.70383423  1
  Nb  Nb125  1  0.60683946  0.39861119  0.19866782  1
  Nb  Nb126  1  0.60110000  0.60808209  0.59689421  1
  Nb  Nb127  1  0.80409393  0.20017537  0.60397582  1
  Nb  Nb128  1  0.39501693  0.80024781  -0.00692401  1
  Nb  Nb129  1  0.60070760  -0.00031406  -0.00340074  1
  Nb  Nb130  1  0.20334323  0.00306956  0.19909841  1
  Nb  Nb131  1  0.19964931  0.40780706  0.00104681  1
  Nb  Nb132  1  0.80358282  0.40148776  0.59841136  1
  Nb  Nb133  1  0.60997456  0.59825575  -0.00165106  1
  Nb  Nb134  1  -0.00114553  0.59702458  0.60558975  1
  Nb  Nb135  1  0.20288525  0.40079906  0.60402302  1
  Nb  Nb136  1  0.80130851  0.40392801  0.39763086  1
  Nb  Nb137  1  0.80508223  0.19636609  0.79545866  1
  Nb  Nb138  1  0.39938182  0.19816354  -0.00487557  1
  Nb  Nb139  1  0.79808750  0.59210381  0.00379958  1
  Nb  Nb140  1  0.39741888  0.59910580  0.20172357  1
  Nb  Nb141  1  0.60648261  -0.00052728  0.40204917  1
  Nb  Nb142  1  0.39272848  0.00388181  0.19878628  1
  Nb  Nb143  1  0.40114517  0.19714734  0.80615191  1
  Nb  Nb144  1  0.80438573  0.59153313  0.19317917  1
  Nb  Nb145  1  0.39963766  0.39669218  0.80284020  1
  Nb  Nb146  1  0.39624301  0.39834978  -0.00546460  1
  Nb  Nb147  1  0.79298142  0.79936909  0.40482110  1
  Nb  Nb148  1  0.59648391  0.40053030  0.80557577  1
  Nb  Nb149  1  0.19760144  0.79560192  0.40952493  1
  Pd  Pd150  1  0.80885284  0.19331808  0.18760265  1
  Pd  Pd151  1  0.20815283  0.40078151  0.40812516  1
  Pd  Pd152  1  0.00552932  0.39163453  0.20527776  1
  Pd  Pd153  1  0.39179668  0.40563392  0.40763139  1
  Pd  Pd154  1  0.20015965  0.60667564  0.39643856  1
  Pd  Pd155  1  0.00405361  -0.00792301  0.80015298  1
  Pd  Pd156  1  0.80152192  0.39246553  0.79876861  1
  Pd  Pd157  1  0.59728631  -0.00378934  0.19825767  1
  Pd  Pd158  1  0.59082570  0.40650895  -0.00058373  1
  Pd  Pd159  1  0.80428728  0.60078649  0.59822808  1
  Pd  Pd160  1  0.00307442  0.60719751  0.40791589  1
  Pd  Pd161  1  0.38617297  0.78862873  0.79763464  1
  Pd  Pd162  1  0.80422986  0.00181811  0.19468489  1
  Pd  Pd163  1  0.00496367  0.41077253  0.59921262  1
  Pd  Pd164  1  0.19028723  0.39611355  0.19403262  1
  Pd  Pd165  1  0.40940385  0.60614041  0.01055580  1
  Pd  Pd166  1  0.40634806  0.00613802  0.39309822  1
  Pd  Pd167  1  0.39973651  0.00244825  0.60131345  1
  Pd  Pd168  1  0.40495622  0.40636680  0.19354450  1
  Pd  Pd169  1  0.79334841  0.00177029  -0.00142880  1
  Pd  Pd170  1  0.20129573  -0.00780368  0.39390836  1
  Pd  Pd171  1  0.60426619  0.20067357  0.80139992  1
  Pd  Pd172  1  0.40905866  -0.00143758  0.00634665  1
  Pd  Pd173  1  0.59837480  0.19172479  0.00332677  1
  Pd  Pd174  1  -0.00479535  0.19920691  -0.00230312  1
  Pd  Pd175  1  0.79403328  0.00067720  0.79911588  1
  Pd  Pd176  1  0.00088540  0.00130678  0.60569027  1
  Pd  Pd177  1  0.19994064  0.19606475  0.20380499  1
  Pd  Pd178  1  0.39428968  0.80018913  0.60473358  1
  Pd  Pd179  1  0.60599910  0.18830981  0.59461684  1
  Pd  Pd180  1  0.39186506  0.79402147  0.40570335  1
  Pd  Pd181  1  0.00601426  0.40630827  -0.00430346  1
  Pd  Pd182  1  -0.00660308  0.20269074  0.19351836  1
  Pd  Pd183  1  0.19042483  -0.00583800  0.00218625  1
  Pd  Pd184  1  -0.00007557  0.80440649  0.19748149  1
  Pd  Pd185  1  -0.00365653  0.39976629  0.38926095  1
  Pd  Pd186  1  0.20235322  0.18714662  0.80919845  1
  Pd  Pd187  1  0.19815930  -0.00033146  0.60394045  1
  Pd  Pd188  1  -0.00132691  0.80634964  -0.00634357  1
  Pd  Pd189  1  0.59487450  0.80166420  -0.00139950  1
  Pd  Pd190  1  0.00385616  -0.00409395  0.19459692  1
  Pd  Pd191  1  -0.00400463  -0.00433764  0.40175434  1
  Pd  Pd192  1  0.60696328  0.39832007  0.39321082  1
  Pd  Pd193  1  0.20605194  0.79342600  0.80043643  1
  Pd  Pd194  1  0.80182595  0.79324195  -0.00291212  1
  Pd  Pd195  1  -0.00169359  0.19300486  0.59930916  1
  Pd  Pd196  1  -0.00850472  0.59481602  0.00629384  1
  Pd  Pd197  1  0.61091177  0.41290174  0.60453991  1
  Pd  Pd198  1  -0.00080060  0.20087704  0.40114281  1
  Pd  Pd199  1  0.79542942  0.40260484  0.21131478  1
  Rh  Rh200  1  0.60081543  0.80541008  0.20409841  1
  Rh  Rh201  1  -0.00781472  0.60070469  0.19101067  1
  Rh  Rh202  1  0.18662367  0.58494266  0.60759084  1
  Rh  Rh203  1  0.38990364  0.00898565  0.79994772  1
  Rh  Rh204  1  0.79552979  -0.01494456  0.39676748  1
  Rh  Rh205  1  0.40756593  0.60571705  0.60378641  1
  Rh  Rh206  1  0.00040561  -0.00302642  -0.00463868  1
  Rh  Rh207  1  0.40217988  0.18994116  0.60690465  1
  Rh  Rh208  1  0.19853183  0.00041662  0.80036766  1
  Rh  Rh209  1  0.59844862  0.59894329  0.79689682  1
  Rh  Rh210  1  0.19514890  0.19868390  0.59843254  1
  Rh  Rh211  1  0.19020286  0.80710237  0.21393073  1
  Rh  Rh212  1  0.38837922  0.40416454  0.60019570  1
  Rh  Rh213  1  0.19785540  0.60288657  0.79180793  1
  Rh  Rh214  1  0.39390821  0.60227030  0.78860621  1
  Rh  Rh215  1  0.39690522  0.60675622  0.39358807  1
  Rh  Rh216  1  0.80164416  0.79111153  0.20716743  1
  Rh  Rh217  1  0.00197208  0.39932045  0.80520650  1
  Rh  Rh218  1  0.19088617  0.59846963  0.00518408  1
  Rh  Rh219  1  0.80174566  0.00289259  0.60334896  1
  Rh  Rh220  1  -0.00231927  0.79698204  0.40544991  1
  Rh  Rh221  1  0.21037582  0.80986127  0.59851441  1
  Rh  Rh222  1  0.40206357  0.79848394  0.19372246  1
  Rh  Rh223  1  0.59929788  0.00086838  0.58892361  1
  Rh  Rh224  1  0.60883590  -0.00151811  0.80951693  1
  Rh  Rh225  1  -0.00126295  0.80503118  0.80160984  1
  Rh  Rh226  1  0.80098723  0.80919442  0.80463220  1
  Rh  Rh227  1  0.59390541  0.19034771  0.40979668  1
  Rh  Rh228  1  0.81009206  0.60313774  0.80832186  1
  Rh  Rh229  1  0.59483746  0.61136199  0.40797125  1
  Rh  Rh230  1  0.81169417  0.20965761  0.40913705  1
  Rh  Rh231  1  -0.00542406  0.79197244  0.60602613  1
  Rh  Rh232  1  0.20018253  0.60408613  0.20317886  1
  Rh  Rh233  1  0.20266596  0.79432428  -0.01004535  1
  Rh  Rh234  1  0.59745795  0.79414637  0.60470879  1
  Rh  Rh235  1  0.60123056  0.59420079  0.18961731  1
  Rh  Rh236  1  0.60624859  0.80616570  0.39887052  1
  Rh  Rh237  1  -0.00190209  0.60569696  0.79126106  1
  Rh  Rh238  1  0.19714071  0.19925784  0.40085475  1
  Rh  Rh239  1  0.40638909  0.19809110  0.40514694  1
  Rh  Rh240  1  0.20176390  0.20409157  0.00151419  1
  Rh  Rh241  1  0.80634210  0.19339712  -0.00477500  1
  Rh  Rh242  1  0.80317909  0.80411080  0.59479203  1
  Rh  Rh243  1  0.79992569  0.60607586  0.39134615  1
  Rh  Rh244  1  0.81218353  0.40839538  -0.01150705  1
  Rh  Rh245  1  0.61001260  0.20712499  0.18966610  1
  Rh  Rh246  1  -0.00482869  0.20012465  0.80438021  1
  Rh  Rh247  1  0.60271818  0.80470040  0.79314049  1
  Rh  Rh248  1  0.20148129  0.40552309  0.80049848  1
  Rh  Rh249  1  0.39417501  0.19267590  0.19441820  1
