# generated using pymatgen
data_ZrScNbPdRh
_symmetry_space_group_name_H-M   'P 1'
_cell_length_a   16.55498943
_cell_length_b   16.55778367
_cell_length_c   16.55846675
_cell_angle_alpha   89.98180478
_cell_angle_beta   90.03643821
_cell_angle_gamma   90.03316303
_symmetry_Int_Tables_number   1
_chemical_formula_structural   ZrScNbPdRh
_chemical_formula_sum   'Zr50 Sc50 Nb50 Pd50 Rh50'
_cell_volume   4538.90455162
_cell_formula_units_Z   50
loop_
 _symmetry_equiv_pos_site_id
 _symmetry_equiv_pos_as_xyz
  1  'x, y, z'
loop_
 _atom_site_type_symbol
 _atom_site_label
 _atom_site_symmetry_multiplicity
 _atom_site_fract_x
 _atom_site_fract_y
 _atom_site_fract_z
 _atom_site_occupancy
  Zr  Zr0  1  0.89952952  0.50402972  0.49609317  1
  Zr  Zr1  1  0.30054369  0.48991514  0.70056214  1
  Zr  Zr2  1  0.69109844  0.89427042  0.10036083  1
  Zr  Zr3  1  0.10248212  0.10300485  0.49683734  1
  Zr  Zr4  1  0.30176378  0.70477824  0.49821607  1
  Zr  Zr5  1  0.29411049  0.09732804  0.11342220  1
  Zr  Zr6  1  0.90126041  0.29581618  0.69392745  1
  Zr  Zr7  1  0.49784226  0.70140395  0.70527270  1
  Zr  Zr8  1  0.50096154  0.11293788  0.89916845  1
  Zr  Zr9  1  0.30111582  0.30120218  0.70606535  1
  Zr  Zr10  1  0.89888674  0.49872958  0.89585092  1
  Zr  Zr11  1  0.89545960  0.09067761  0.70085579  1
  Zr  Zr12  1  0.10187475  0.09905806  0.70533740  1
  Zr  Zr13  1  0.30451545  0.50131831  0.50273393  1
  Zr  Zr14  1  0.69174260  0.70420673  0.09427353  1
  Zr  Zr15  1  0.90290754  0.50282503  0.09318521  1
  Zr  Zr16  1  0.69987227  0.49514694  0.49680055  1
  Zr  Zr17  1  0.08603686  0.09609149  0.09371931  1
  Zr  Zr18  1  0.91373081  0.90746514  0.10511835  1
  Zr  Zr19  1  0.90641674  0.89614568  0.50192129  1
  Zr  Zr20  1  0.11002865  0.90249242  0.10436391  1
  Zr  Zr21  1  0.09770860  0.69405392  0.70288552  1
  Zr  Zr22  1  0.11336652  0.50991100  0.29143289  1
  Zr  Zr23  1  0.50424783  0.29875120  0.30125728  1
  Zr  Zr24  1  0.09516693  0.50035861  0.90208760  1
  Zr  Zr25  1  0.50136802  0.09779953  0.70670025  1
  Zr  Zr26  1  0.49939045  0.49997100  0.69244777  1
  Zr  Zr27  1  0.48862854  0.89487588  0.50861752  1
  Zr  Zr28  1  0.70152849  0.49962205  0.69732454  1
  Zr  Zr29  1  0.49700315  0.69294091  0.50811320  1
  Zr  Zr30  1  0.10499138  0.70236411  0.89794544  1
  Zr  Zr31  1  0.29562284  0.10603550  0.69903616  1
  Zr  Zr32  1  0.30119469  0.30272356  0.09862437  1
  Zr  Zr33  1  0.09745498  0.50033422  0.49819500  1
  Zr  Zr34  1  0.10847310  0.10142421  0.29846118  1
  Zr  Zr35  1  0.69881663  0.09525286  0.30748027  1
  Zr  Zr36  1  0.70755353  0.69167236  0.50844753  1
  Zr  Zr37  1  0.49898844  0.49636457  0.89741486  1
  Zr  Zr38  1  0.09966592  0.49863334  0.70727047  1
  Zr  Zr39  1  0.69249001  0.29807589  0.90227197  1
  Zr  Zr40  1  0.48748044  0.09815720  0.09855576  1
  Zr  Zr41  1  0.29161229  0.49577847  0.10966448  1
  Zr  Zr42  1  0.49403132  0.69344324  0.90322349  1
  Zr  Zr43  1  0.70874200  0.91488368  0.71579172  1
  Zr  Zr44  1  0.08849935  0.90356206  0.69645851  1
  Zr  Zr45  1  0.10992486  0.29854343  0.69392742  1
  Zr  Zr46  1  0.90141503  0.69928208  0.90252264  1
  Zr  Zr47  1  0.30298431  0.49855568  0.29553744  1
  Zr  Zr48  1  0.29884484  0.88705318  0.90706242  1
  Zr  Zr49  1  0.49748888  0.69950944  0.09788192  1
  Sc  Sc50  1  0.49730111  0.91270371  0.90518858  1
  Sc  Sc51  1  0.30002104  0.89841181  0.48955115  1
  Sc  Sc52  1  0.30679082  0.70720292  0.10035519  1
  Sc  Sc53  1  0.90397799  0.50430576  0.70590849  1
  Sc  Sc54  1  0.68884344  0.08813288  0.89267686  1
  Sc  Sc55  1  0.09890778  0.90394211  0.90284397  1
  Sc  Sc56  1  0.70196747  0.30391456  0.29881657  1
  Sc  Sc57  1  0.09350295  0.29882847  0.49992640  1
  Sc  Sc58  1  0.90140797  0.90184664  0.69936623  1
  Sc  Sc59  1  0.69225637  0.29169735  0.69163363  1
  Sc  Sc60  1  0.49376384  0.90232721  0.30431717  1
  Sc  Sc61  1  0.50290581  0.30252844  0.70144491  1
  Sc  Sc62  1  0.90011712  0.29702528  0.10174318  1
  Sc  Sc63  1  0.89465460  0.90291567  0.30079488  1
  Sc  Sc64  1  0.48960519  0.69650654  0.29490892  1
  Sc  Sc65  1  0.29319428  0.69607494  0.29593188  1
  Sc  Sc66  1  0.69542341  0.29435105  0.49898063  1
  Sc  Sc67  1  0.70535463  0.69058801  0.70323674  1
  Sc  Sc68  1  0.89373490  0.49668901  0.30534543  1
  Sc  Sc69  1  0.89959385  0.10196706  0.50661909  1
  Sc  Sc70  1  0.70333167  0.31026486  0.10245773  1
  Sc  Sc71  1  0.10435379  0.30665078  0.09424835  1
  Sc  Sc72  1  0.70065482  0.09910316  0.10648848  1
  Sc  Sc73  1  0.70321055  0.49749966  0.89502548  1
  Sc  Sc74  1  0.29112310  0.90287869  0.29609328  1
  Sc  Sc75  1  0.69882478  0.10318436  0.50460650  1
  Sc  Sc76  1  0.90964447  0.70717898  0.10116845  1
  Sc  Sc77  1  0.09906520  0.30829929  0.90066555  1
  Sc  Sc78  1  0.90072871  0.89619135  0.89508333  1
  Sc  Sc79  1  0.70196728  0.90110166  0.30160674  1
  Sc  Sc80  1  0.08905102  0.70226302  0.48797950  1
  Sc  Sc81  1  0.69840906  0.70926820  0.29390900  1
  Sc  Sc82  1  0.10222905  0.29695627  0.30772830  1
  Sc  Sc83  1  0.29831276  0.10253980  0.88511356  1
  Sc  Sc84  1  0.90565342  0.70359018  0.30207501  1
  Sc  Sc85  1  0.30083190  0.70131999  0.71828427  1
  Sc  Sc86  1  0.29113982  0.30677900  0.51050781  1
  Sc  Sc87  1  0.70045839  0.48283305  0.29893055  1
  Sc  Sc88  1  0.91477798  0.09591219  0.90899311  1
  Sc  Sc89  1  0.10467546  0.89627685  0.30049487  1
  Sc  Sc90  1  0.30164135  0.09672026  0.48994827  1
  Sc  Sc91  1  0.09354698  0.70178870  0.10377465  1
  Sc  Sc92  1  0.50984499  0.29898775  0.50293872  1
  Sc  Sc93  1  0.31451633  0.89719133  0.70081637  1
  Sc  Sc94  1  0.90331836  0.30081564  0.29733709  1
  Sc  Sc95  1  0.89938717  0.69501590  0.69518992  1
  Sc  Sc96  1  0.89911802  0.30831932  0.90293500  1
  Sc  Sc97  1  0.70986431  0.90405721  0.49235474  1
  Sc  Sc98  1  0.50278933  0.10151608  0.48821631  1
  Sc  Sc99  1  0.30051087  0.49481563  0.89345397  1
  Nb  Nb100  1  0.90390200  0.10015181  0.29113440  1
  Nb  Nb101  1  0.30311156  0.29504948  0.29407460  1
  Nb  Nb102  1  0.69922385  0.10288636  0.70333407  1
  Nb  Nb103  1  0.89643058  0.69388184  0.50108998  1
  Nb  Nb104  1  0.50314849  0.49551964  0.29903935  1
  Nb  Nb105  1  0.10158834  0.10282942  0.89900372  1
  Nb  Nb106  1  0.10566060  0.70701355  0.29114336  1
  Nb  Nb107  1  0.70402815  0.49892950  0.10308374  1
  Nb  Nb108  1  0.50299912  0.89576240  0.70214336  1
  Nb  Nb109  1  0.30767597  0.90548979  0.10034682  1
  Nb  Nb110  1  0.49453668  0.10724572  0.29760611  1
  Nb  Nb111  1  0.30877392  0.11206856  0.29437220  1
  Nb  Nb112  1  0.70443148  0.89609103  0.90387646  1
  Nb  Nb113  1  0.30080856  0.69535903  0.90256100  1
  Nb  Nb114  1  0.49355546  0.29822365  0.90885237  1
  Nb  Nb115  1  0.10411718  0.90336316  0.49671891  1
  Nb  Nb116  1  0.90035717  0.29833042  0.49649439  1
  Nb  Nb117  1  0.30349264  0.29994582  0.89790501  1
  Nb  Nb118  1  0.70040281  0.70833556  0.90572964  1
  Nb  Nb119  1  0.50070626  0.49670348  0.10454521  1
  Nb  Nb120  1  0.48504899  0.90405822  0.10178668  1
  Nb  Nb121  1  0.49926162  0.49862474  0.50015683  1
  Nb  Nb122  1  0.50139989  0.29916650  0.08808587  1
  Nb  Nb123  1  0.90087042  0.10017604  0.10212738  1
  Nb  Nb124  1  0.10364872  0.50262985  0.09750466  1
  Nb  Nb125  1  0.19881583  0.19757359  -0.00535552  1
  Nb  Nb126  1  0.79442003  0.60445239  0.00279865  1
  Nb  Nb127  1  0.80149329  0.19069665  -0.00182458  1
  Nb  Nb128  1  0.60482774  0.80387892  0.80549853  1
  Nb  Nb129  1  0.19621226  0.80102847  0.59844282  1
  Nb  Nb130  1  0.80124652  0.19372369  0.80343874  1
  Nb  Nb131  1  0.19832267  -0.00636116  0.59790655  1
  Nb  Nb132  1  0.59576973  0.79307888  0.41085041  1
  Nb  Nb133  1  0.79386063  0.59928485  0.19292689  1
  Nb  Nb134  1  0.40235081  0.40080721  0.39781784  1
  Nb  Nb135  1  0.80440553  0.39678352  0.59458737  1
  Nb  Nb136  1  0.00029200  0.19931596  0.80056648  1
  Nb  Nb137  1  0.20046314  0.60010766  -0.00101556  1
  Nb  Nb138  1  0.59855174  -0.00528734  0.60685679  1
  Nb  Nb139  1  0.00806670  0.40949235  0.19762087  1
  Nb  Nb140  1  0.60436210  0.80607994  0.60651704  1
  Nb  Nb141  1  0.39964057  0.19825069  0.60290940  1
  Nb  Nb142  1  0.60008743  0.59048187  0.19942376  1
  Nb  Nb143  1  0.58759575  0.00353720  0.19996674  1
  Nb  Nb144  1  0.80652266  0.19786309  0.39757695  1
  Nb  Nb145  1  0.00178744  0.00386150  0.39931038  1
  Nb  Nb146  1  0.59671172  0.59673799  0.39610015  1
  Nb  Nb147  1  0.59215232  0.19809000  0.19822736  1
  Nb  Nb148  1  0.19779593  0.60417100  0.60111746  1
  Nb  Nb149  1  0.80062763  -0.00098822  0.00375330  1
  Pd  Pd150  1  0.19808167  0.60643484  0.40580077  1
  Pd  Pd151  1  0.59407666  -0.00938883  0.40280851  1
  Pd  Pd152  1  0.19004731  0.20582122  0.19108631  1
  Pd  Pd153  1  0.00102774  0.19332777  0.60352242  1
  Pd  Pd154  1  0.39558459  0.40810456  0.00066497  1
  Pd  Pd155  1  0.80996728  0.80470059  0.00908186  1
  Pd  Pd156  1  -0.00028525  0.80607086  0.39437904  1
  Pd  Pd157  1  0.19869852  0.79278830  0.00923450  1
  Pd  Pd158  1  0.79341074  0.20172880  0.20042343  1
  Pd  Pd159  1  -0.00263754  0.79830212  0.79903185  1
  Pd  Pd160  1  0.59765965  0.39523458  0.79825748  1
  Pd  Pd161  1  0.40676550  0.39375122  0.20163498  1
  Pd  Pd162  1  0.19807956  0.80934954  0.79197083  1
  Pd  Pd163  1  0.38475726  0.19250791  -0.00047081  1
  Pd  Pd164  1  0.38888353  0.58892198  0.00585681  1
  Pd  Pd165  1  0.79345600  -0.00403126  0.19534673  1
  Pd  Pd166  1  0.79918951  0.79328425  0.79330213  1
  Pd  Pd167  1  0.40366106  0.59448587  0.39337682  1
  Pd  Pd168  1  -0.00398543  0.40396055  0.60245216  1
  Pd  Pd169  1  0.79390794  -0.00159434  0.59395765  1
  Pd  Pd170  1  0.60474536  0.60480121  0.80439766  1
  Pd  Pd171  1  0.79003244  0.60561784  0.38510413  1
  Pd  Pd172  1  0.00283715  0.40271745  0.39057669  1
  Pd  Pd173  1  0.80603868  0.79764789  0.19525642  1
  Pd  Pd174  1  0.20403330  -0.01322592  0.79469707  1
  Pd  Pd175  1  0.79759098  0.79279634  0.40069826  1
  Pd  Pd176  1  0.21004094  0.20590013  0.40367761  1
  Pd  Pd177  1  0.58756047  0.80466007  0.20961612  1
  Pd  Pd178  1  0.38807730  0.60601581  0.61229163  1
  Pd  Pd179  1  0.60282077  0.00037951  0.00700893  1
  Pd  Pd180  1  0.00162769  0.60058439  0.38866390  1
  Pd  Pd181  1  0.39933080  0.79795466  0.39024396  1
  Pd  Pd182  1  0.39835472  0.00836092  0.59811577  1
  Pd  Pd183  1  0.39431349  0.21359142  0.41210144  1
  Pd  Pd184  1  0.00207318  0.79193144  0.59670304  1
  Pd  Pd185  1  0.20626802  0.00839746  -0.00370282  1
  Pd  Pd186  1  0.20538852  0.39638830  0.39722000  1
  Pd  Pd187  1  0.39522286  0.80405431  0.20630659  1
  Pd  Pd188  1  0.00798426  0.21064878  0.19806742  1
  Pd  Pd189  1  0.58504333  0.80873603  -0.00734040  1
  Pd  Pd190  1  -0.00683919  0.59640522  0.20591576  1
  Pd  Pd191  1  0.60398861  0.40767875  0.00069742  1
  Pd  Pd192  1  0.38666033  0.01045722  -0.00999701  1
  Pd  Pd193  1  0.79587300  0.80515194  0.60697962  1
  Pd  Pd194  1  0.39774269  -0.00364527  0.80538783  1
  Pd  Pd195  1  0.60495821  0.58943600  0.00095603  1
  Pd  Pd196  1  0.61008115  0.19520037  0.00856494  1
  Pd  Pd197  1  0.79506442  0.38707942  0.78957256  1
  Pd  Pd198  1  0.39545564  0.00104983  0.39216751  1
  Pd  Pd199  1  -0.00249727  0.39568252  0.00607788  1
  Rh  Rh200  1  0.00623147  0.00350812  0.58991542  1
  Rh  Rh201  1  0.60431413  0.40412527  0.59993203  1
  Rh  Rh202  1  0.00611088  0.80552611  0.00026286  1
  Rh  Rh203  1  0.39432323  0.79368205  0.60542605  1
  Rh  Rh204  1  0.59513478  0.40324989  0.40445982  1
  Rh  Rh205  1  0.79742962  0.39974858  -0.00007200  1
  Rh  Rh206  1  0.39916498  -0.00290790  0.21043692  1
  Rh  Rh207  1  0.59338294  0.39414210  0.19043781  1
  Rh  Rh208  1  0.60125296  0.59895907  0.59696463  1
  Rh  Rh209  1  0.79946785  0.38600500  0.40701604  1
  Rh  Rh210  1  0.19155561  0.21137589  0.81090789  1
  Rh  Rh211  1  0.40737241  0.39504388  0.80325879  1
  Rh  Rh212  1  0.00285989  0.60214997  0.59617756  1
  Rh  Rh213  1  0.20197299  0.61373107  0.18700962  1
  Rh  Rh214  1  -0.00402560  0.60360372  0.80452024  1
  Rh  Rh215  1  0.81655212  0.40557904  0.19588981  1
  Rh  Rh216  1  0.19192972  0.41039162  0.59690918  1
  Rh  Rh217  1  0.19946079  0.00478178  0.39710454  1
  Rh  Rh218  1  0.19193983  0.38988319  0.20709997  1
  Rh  Rh219  1  -0.00171382  0.00380448  0.80616516  1
  Rh  Rh220  1  0.40819194  0.38956921  0.59131496  1
  Rh  Rh221  1  0.20727618  0.19070709  0.59024886  1
  Rh  Rh222  1  0.20395332  0.59501118  0.80341869  1
  Rh  Rh223  1  0.40879591  0.80177356  0.81382225  1
  Rh  Rh224  1  0.00390413  0.80661155  0.20684247  1
  Rh  Rh225  1  0.40759681  0.20902707  0.79544472  1
  Rh  Rh226  1  0.20071174  0.00094481  0.20435675  1
  Rh  Rh227  1  0.60104276  0.20684093  0.80233916  1
  Rh  Rh228  1  0.39803155  0.59313669  0.79926469  1
  Rh  Rh229  1  0.40709528  0.21114694  0.19247921  1
  Rh  Rh230  1  0.00615361  -0.00110506  0.21119735  1
  Rh  Rh231  1  0.59353465  -0.00603306  0.79998947  1
  Rh  Rh232  1  0.80798859  0.00957797  0.81697451  1
  Rh  Rh233  1  0.40475329  0.59716867  0.19517030  1
  Rh  Rh234  1  0.20416507  0.80006755  0.19429670  1
  Rh  Rh235  1  0.40327076  0.80084589  -0.00133902  1
  Rh  Rh236  1  0.60968559  0.20173387  0.39153765  1
  Rh  Rh237  1  -0.00961704  0.19262097  0.39703429  1
  Rh  Rh238  1  0.00080737  0.20496620  -0.00407029  1
  Rh  Rh239  1  0.19837053  0.39743107  0.80498443  1
  Rh  Rh240  1  0.58990489  0.18477397  0.59998641  1
  Rh  Rh241  1  0.19794979  0.79471629  0.40034028  1
  Rh  Rh242  1  0.81489716  0.01242223  0.40098431  1
  Rh  Rh243  1  0.20661024  0.40152099  -0.00657479  1
  Rh  Rh244  1  0.80838007  0.58864735  0.60302573  1
  Rh  Rh245  1  0.00310168  0.39038081  0.79210612  1
  Rh  Rh246  1  0.79796496  0.20522658  0.59855251  1
  Rh  Rh247  1  0.79858089  0.60514013  0.80993702  1
  Rh  Rh248  1  0.00418034  0.60521610  -0.00473545  1
  Rh  Rh249  1  -0.00094858  -0.00723676  -0.00397126  1
