# generated using pymatgen
data_ZrScNbPdRh
_symmetry_space_group_name_H-M   'P 1'
_cell_length_a   16.55849760
_cell_length_b   16.55462866
_cell_length_c   16.56029574
_cell_angle_alpha   89.99890755
_cell_angle_beta   90.03453534
_cell_angle_gamma   89.99646303
_symmetry_Int_Tables_number   1
_chemical_formula_structural   ZrScNbPdRh
_chemical_formula_sum   'Zr50 Sc50 Nb50 Pd50 Rh50'
_cell_volume   4539.50377406
_cell_formula_units_Z   50
loop_
 _symmetry_equiv_pos_site_id
 _symmetry_equiv_pos_as_xyz
  1  'x, y, z'
loop_
 _atom_site_type_symbol
 _atom_site_label
 _atom_site_symmetry_multiplicity
 _atom_site_fract_x
 _atom_site_fract_y
 _atom_site_fract_z
 _atom_site_occupancy
  Zr  Zr0  1  0.30207400  0.50656731  0.09577178  1
  Zr  Zr1  1  0.51007165  0.10271245  0.09479594  1
  Zr  Zr2  1  0.70296089  0.10142796  0.70159563  1
  Zr  Zr3  1  0.90478705  0.69940338  0.70007153  1
  Zr  Zr4  1  0.49057497  0.89722214  0.69747252  1
  Zr  Zr5  1  0.91212167  0.30336543  0.30514910  1
  Zr  Zr6  1  0.10254304  0.89893566  0.10104308  1
  Zr  Zr7  1  0.09700659  0.69713148  0.69638492  1
  Zr  Zr8  1  0.09883443  0.89178745  0.49643807  1
  Zr  Zr9  1  0.90305337  0.30211986  0.50208849  1
  Zr  Zr10  1  0.69416020  0.09899914  0.30468317  1
  Zr  Zr11  1  0.50684897  0.30017813  0.29333053  1
  Zr  Zr12  1  0.69850396  0.49973329  0.50125292  1
  Zr  Zr13  1  0.09840465  0.49309818  0.30231713  1
  Zr  Zr14  1  0.09908700  0.90623122  0.68783490  1
  Zr  Zr15  1  0.90989447  0.50169155  0.29261805  1
  Zr  Zr16  1  0.49922895  0.09583339  0.69499492  1
  Zr  Zr17  1  0.29359726  0.90618886  0.49985776  1
  Zr  Zr18  1  0.50028287  0.50652984  0.31069201  1
  Zr  Zr19  1  0.29956376  0.50108137  0.70441279  1
  Zr  Zr20  1  0.90410878  0.70720226  0.89287928  1
  Zr  Zr21  1  0.30846884  0.70563907  0.69985426  1
  Zr  Zr22  1  0.89791433  0.69784770  0.30491449  1
  Zr  Zr23  1  0.89782730  0.88821408  0.49891533  1
  Zr  Zr24  1  0.69988405  0.30159304  0.70375722  1
  Zr  Zr25  1  0.09649497  0.70128141  0.89893268  1
  Zr  Zr26  1  0.49979956  0.10045099  0.29845666  1
  Zr  Zr27  1  0.29204477  0.49728243  0.29952139  1
  Zr  Zr28  1  0.89206567  0.49806089  0.49862057  1
  Zr  Zr29  1  0.90258717  0.90940057  0.09728413  1
  Zr  Zr30  1  0.29125836  0.89574528  0.10612114  1
  Zr  Zr31  1  0.30130986  0.69158559  0.90514739  1
  Zr  Zr32  1  0.49111734  0.68861896  0.49892445  1
  Zr  Zr33  1  0.29177306  0.09550437  0.10755482  1
  Zr  Zr34  1  0.09034469  0.89599326  0.91229081  1
  Zr  Zr35  1  0.69782721  0.49985642  0.30643343  1
  Zr  Zr36  1  0.90402296  0.09661256  0.29091013  1
  Zr  Zr37  1  0.70442917  0.90257948  0.69883029  1
  Zr  Zr38  1  0.50466697  0.30461765  0.90628712  1
  Zr  Zr39  1  0.90903634  0.70249164  0.49728775  1
  Zr  Zr40  1  0.09820154  0.69199531  0.30596279  1
  Zr  Zr41  1  0.89551553  0.30199551  0.89918078  1
  Zr  Zr42  1  0.30211825  0.09522155  0.89752202  1
  Zr  Zr43  1  0.29650800  0.69749395  0.09944018  1
  Zr  Zr44  1  0.89587968  0.09924453  0.91591736  1
  Zr  Zr45  1  0.29665163  0.28929437  0.30415516  1
  Zr  Zr46  1  0.69167838  0.69527984  0.70581119  1
  Zr  Zr47  1  0.50301334  0.90413871  0.29929975  1
  Zr  Zr48  1  0.89175271  0.89731811  0.70735166  1
  Zr  Zr49  1  0.89116886  0.68780139  0.10506627  1
  Sc  Sc50  1  0.69818483  0.10583929  0.50308549  1
  Sc  Sc51  1  0.10444436  0.29665874  0.50201518  1
  Sc  Sc52  1  0.50606762  0.10166741  0.89225147  1
  Sc  Sc53  1  0.30180959  0.69549339  0.29183561  1
  Sc  Sc54  1  0.69817704  0.30041406  0.90095234  1
  Sc  Sc55  1  0.69964266  0.90301574  0.89313364  1
  Sc  Sc56  1  0.29550492  0.30839138  0.69513966  1
  Sc  Sc57  1  0.69510664  0.69894076  0.10020017  1
  Sc  Sc58  1  0.10372960  0.50203825  0.11559486  1
  Sc  Sc59  1  0.70524078  0.50950189  0.09450154  1
  Sc  Sc60  1  0.10891018  0.70366191  0.09409297  1
  Sc  Sc61  1  0.70474155  0.29723957  0.50007151  1
  Sc  Sc62  1  0.09323467  0.10225748  0.68682393  1
  Sc  Sc63  1  0.09393809  0.09284168  0.09822429  1
  Sc  Sc64  1  0.30975659  0.30890450  0.88972879  1
  Sc  Sc65  1  0.49418311  0.90704244  0.50354550  1
  Sc  Sc66  1  0.69126958  0.30031763  0.30521847  1
  Sc  Sc67  1  0.10398835  0.50681266  0.88988683  1
  Sc  Sc68  1  0.10358482  0.09650318  0.50619772  1
  Sc  Sc69  1  0.50565511  0.30219500  0.10383703  1
  Sc  Sc70  1  0.30883167  0.90385979  0.69594808  1
  Sc  Sc71  1  0.50588954  0.70050843  0.10893276  1
  Sc  Sc72  1  0.30098393  0.89969641  0.89846181  1
  Sc  Sc73  1  0.50752418  0.09826466  0.49251953  1
  Sc  Sc74  1  0.90071820  0.29392327  0.09158713  1
  Sc  Sc75  1  0.10806197  0.89624286  0.29964229  1
  Sc  Sc76  1  0.89621438  0.89565221  0.29375370  1
  Sc  Sc77  1  0.70962472  0.69429650  0.49012644  1
  Sc  Sc78  1  0.90300440  0.11321471  0.50759277  1
  Sc  Sc79  1  0.50463349  0.51244967  0.70785346  1
  Sc  Sc80  1  0.70228402  0.90209390  0.49778410  1
  Sc  Sc81  1  0.69969627  0.69576324  0.29363968  1
  Sc  Sc82  1  0.10380721  0.30656832  0.30284175  1
  Sc  Sc83  1  0.11244540  0.50398059  0.49843020  1
  Sc  Sc84  1  0.70220657  0.89799054  0.29420071  1
  Sc  Sc85  1  0.30576667  0.30569645  0.11086601  1
  Sc  Sc86  1  0.10566075  0.29927798  0.11113169  1
  Sc  Sc87  1  0.70067629  0.09190357  0.09241363  1
  Sc  Sc88  1  0.69004767  0.49959045  0.90137550  1
  Sc  Sc89  1  0.50236552  0.29502149  0.70778831  1
  Sc  Sc90  1  0.49742033  0.30873716  0.49245495  1
  Sc  Sc91  1  0.09462556  0.30615655  0.89605508  1
  Sc  Sc92  1  0.30313679  0.09353454  0.69636282  1
  Sc  Sc93  1  0.51415334  0.89597451  0.10129722  1
  Sc  Sc94  1  0.88989442  0.30088618  0.70239408  1
  Sc  Sc95  1  0.49547875  0.70150271  0.70893072  1
  Sc  Sc96  1  0.88730909  0.49777582  0.89993280  1
  Sc  Sc97  1  0.10292841  0.10450526  0.29056068  1
  Sc  Sc98  1  0.50584692  0.89908563  0.89649109  1
  Sc  Sc99  1  0.09898989  0.50451476  0.70240510  1
  Nb  Nb100  1  0.30220225  0.09255894  0.30170018  1
  Nb  Nb101  1  0.90098488  0.49926930  0.10099276  1
  Nb  Nb102  1  0.31576400  0.49496444  0.49989390  1
  Nb  Nb103  1  0.70012066  0.89288100  0.09442729  1
  Nb  Nb104  1  0.49759267  0.49913364  0.49735812  1
  Nb  Nb105  1  0.49124370  0.49388281  0.08830293  1
  Nb  Nb106  1  0.50047557  0.70231270  0.30419224  1
  Nb  Nb107  1  0.89723879  0.09597501  0.10593410  1
  Nb  Nb108  1  0.69306040  0.09981410  0.89981785  1
  Nb  Nb109  1  0.48631341  0.50264163  0.91032466  1
  Nb  Nb110  1  0.09464193  0.30158208  0.70085643  1
  Nb  Nb111  1  0.69699365  0.69970373  0.90333861  1
  Nb  Nb112  1  0.29900494  0.69996008  0.50152125  1
  Nb  Nb113  1  0.30046136  0.10803450  0.49184431  1
  Nb  Nb114  1  0.10148236  0.09985609  0.90195558  1
  Nb  Nb115  1  0.89837878  0.09953713  0.70517985  1
  Nb  Nb116  1  0.30832144  0.50216175  0.90767100  1
  Nb  Nb117  1  0.70377438  0.50029905  0.69831148  1
  Nb  Nb118  1  0.90094740  0.89552126  0.89854228  1
  Nb  Nb119  1  0.69661124  0.29563001  0.10827171  1
  Nb  Nb120  1  0.89175821  0.49986154  0.69844561  1
  Nb  Nb121  1  0.30012380  0.30272117  0.50034037  1
  Nb  Nb122  1  0.50286179  0.69924881  0.89904412  1
  Nb  Nb123  1  0.10280391  0.70760955  0.50115919  1
  Nb  Nb124  1  0.30171824  0.90598232  0.29757450  1
  Nb  Nb125  1  0.59690906  0.79594191  0.59555094  1
  Nb  Nb126  1  0.20434698  0.20445472  -0.00639819  1
  Nb  Nb127  1  0.19636041  0.80346496  0.79859478  1
  Nb  Nb128  1  0.39741382  0.79993826  0.39628517  1
  Nb  Nb129  1  0.18833169  0.00064851  0.80079483  1
  Nb  Nb130  1  0.40269765  -0.00097666  0.00405471  1
  Nb  Nb131  1  -0.00380873  0.00400347  0.80451930  1
  Nb  Nb132  1  -0.00038278  0.19441793  0.80018483  1
  Nb  Nb133  1  0.60000316  0.40834428  0.60025311  1
  Nb  Nb134  1  -0.00297604  0.40259052  0.60539091  1
  Nb  Nb135  1  0.20204901  0.40200834  -0.00227744  1
  Nb  Nb136  1  0.80787637  0.00370929  0.39884252  1
  Nb  Nb137  1  0.59179225  0.79644411  0.40084924  1
  Nb  Nb138  1  -0.00386424  -0.00180852  0.39965109  1
  Nb  Nb139  1  0.39634343  0.19698444  -0.00022554  1
  Nb  Nb140  1  0.79933780  0.20039040  0.19832474  1
  Nb  Nb141  1  0.00319144  0.40767827  0.00334831  1
  Nb  Nb142  1  -0.00010243  0.79482916  0.19819078  1
  Nb  Nb143  1  -0.00384913  0.59380575  0.00215788  1
  Nb  Nb144  1  0.19185825  0.19765084  0.80010061  1
  Nb  Nb145  1  0.79438453  0.60053483  0.79659189  1
  Nb  Nb146  1  0.80071505  0.39459779  0.19690017  1
  Nb  Nb147  1  0.39442220  0.20311447  0.58994000  1
  Nb  Nb148  1  0.79946073  0.80169485  -0.00345106  1
  Nb  Nb149  1  0.40405170  0.79944562  0.00175851  1
  Pd  Pd150  1  0.20633783  0.60616557  0.79830298  1
  Pd  Pd151  1  0.40566901  -0.00238055  0.19038044  1
  Pd  Pd152  1  0.01073886  0.19195447  0.40125802  1
  Pd  Pd153  1  0.39932312  -0.00251969  0.40253968  1
  Pd  Pd154  1  0.60611624  0.40089958  0.00874225  1
  Pd  Pd155  1  0.80039605  0.19521665  0.80543904  1
  Pd  Pd156  1  -0.01386459  -0.00255463  0.59522944  1
  Pd  Pd157  1  0.40865371  0.40556007  0.79353703  1
  Pd  Pd158  1  0.60194048  -0.00690379  0.59738017  1
  Pd  Pd159  1  0.60546683  0.41432915  0.19175551  1
  Pd  Pd160  1  0.80133695  0.80024708  0.19236474  1
  Pd  Pd161  1  0.00273571  0.59292400  0.41043343  1
  Pd  Pd162  1  0.79901609  0.39593103  0.39117798  1
  Pd  Pd163  1  0.19191836  0.19636315  0.39861905  1
  Pd  Pd164  1  0.19956984  0.39788861  0.80495848  1
  Pd  Pd165  1  0.40685923  0.59463391  0.19892802  1
  Pd  Pd166  1  0.01061774  0.20781067  0.00024561  1
  Pd  Pd167  1  0.59081544  0.21251451  0.59434530  1
  Pd  Pd168  1  0.21095393  0.79402511  0.39258874  1
  Pd  Pd169  1  0.59566354  0.40692903  0.79850418  1
  Pd  Pd170  1  0.59533777  0.59217251  0.19703891  1
  Pd  Pd171  1  0.40134671  0.40608092  0.20619835  1
  Pd  Pd172  1  0.39327713  0.20007134  0.79428740  1
  Pd  Pd173  1  0.59809575  0.60130518  0.59556914  1
  Pd  Pd174  1  0.20694837  0.19841503  0.60710213  1
  Pd  Pd175  1  0.41232600  0.39703500  0.60888807  1
  Pd  Pd176  1  0.00242790  0.59102855  0.59281077  1
  Pd  Pd177  1  -0.00543419  0.40258693  0.79869096  1
  Pd  Pd178  1  0.39674855  0.39597305  0.39013498  1
  Pd  Pd179  1  0.79249777  -0.00791184  -0.00432872  1
  Pd  Pd180  1  -0.00236429  0.20486968  0.19332857  1
  Pd  Pd181  1  0.79021984  0.78982851  0.59968022  1
  Pd  Pd182  1  0.79719329  0.39798908  0.00662753  1
  Pd  Pd183  1  0.39791715  0.59557622  0.60577705  1
  Pd  Pd184  1  0.20811960  0.59885981  0.59737482  1
  Pd  Pd185  1  0.59771086  -0.00160852  0.79626263  1
  Pd  Pd186  1  0.80193363  0.19620880  0.39284238  1
  Pd  Pd187  1  0.40735675  0.20224661  0.40201792  1
  Pd  Pd188  1  0.19096150  0.00661261  0.39595379  1
  Pd  Pd189  1  0.20811946  0.60064129  0.40467943  1
  Pd  Pd190  1  0.59264560  0.60112396  0.00222516  1
  Pd  Pd191  1  0.60020667  0.80486336  0.79563188  1
  Pd  Pd192  1  0.60826990  -0.00143992  0.19518803  1
  Pd  Pd193  1  0.78893633  0.20087987  0.00635233  1
  Pd  Pd194  1  0.19362504  0.40390571  0.59751404  1
  Pd  Pd195  1  0.79987966  0.60820601  0.60285510  1
  Pd  Pd196  1  0.40224399  0.80413528  0.19918624  1
  Pd  Pd197  1  0.40115037  0.19627935  0.19495693  1
  Pd  Pd198  1  0.80542154  0.00735139  0.59071592  1
  Pd  Pd199  1  0.20496141  0.80056121  0.60627803  1
  Rh  Rh200  1  -0.00017913  0.79926847  0.60426847  1
  Rh  Rh201  1  0.78987006  0.79221469  0.80591137  1
  Rh  Rh202  1  0.20602235  0.39913822  0.40592801  1
  Rh  Rh203  1  0.79210699  0.40753646  0.80069895  1
  Rh  Rh204  1  0.00671417  -0.01047377  0.20496416  1
  Rh  Rh205  1  0.60036521  0.39924457  0.40982296  1
  Rh  Rh206  1  0.80520488  0.60924533  -0.01315302  1
  Rh  Rh207  1  0.00300016  0.80472935  0.38984015  1
  Rh  Rh208  1  0.00832275  0.61004852  0.19228314  1
  Rh  Rh209  1  0.60368929  0.19755014  0.80182781  1
  Rh  Rh210  1  0.20831547  0.00607332  0.59942812  1
  Rh  Rh211  1  0.21145190  0.80239252  -0.00918116  1
  Rh  Rh212  1  0.60677809  0.19332645  0.19919945  1
  Rh  Rh213  1  0.59967066  -0.00360437  -0.00624378  1
  Rh  Rh214  1  0.40137897  -0.00429821  0.80474638  1
  Rh  Rh215  1  0.20253480  0.19793667  0.19924973  1
  Rh  Rh216  1  0.79926831  0.20039983  0.60537311  1
  Rh  Rh217  1  0.39684908  0.01507578  0.58878981  1
  Rh  Rh218  1  0.19647670  0.60259061  0.20207832  1
  Rh  Rh219  1  0.60929739  -0.00728583  0.40235976  1
  Rh  Rh220  1  -0.00241404  0.00306714  -0.00028533  1
  Rh  Rh221  1  0.00972003  0.40418271  0.41619426  1
  Rh  Rh222  1  0.19566457  0.79485000  0.20801573  1
  Rh  Rh223  1  0.39347922  0.38899162  0.00280780  1
  Rh  Rh224  1  0.79017939  0.80528505  0.39642393  1
  Rh  Rh225  1  0.40374992  0.79849324  0.58704014  1
  Rh  Rh226  1  0.41162936  0.61363265  0.00712385  1
  Rh  Rh227  1  -0.00593453  0.21229332  0.61055730  1
  Rh  Rh228  1  0.39370713  0.79847855  0.81326185  1
  Rh  Rh229  1  0.38890055  0.60314659  0.39844424  1
  Rh  Rh230  1  0.60431332  0.79858143  0.20849864  1
  Rh  Rh231  1  0.60236284  0.79833197  -0.00317691  1
  Rh  Rh232  1  0.59497028  0.20537053  0.40207733  1
  Rh  Rh233  1  0.20539577  0.00207828  -0.00346245  1
  Rh  Rh234  1  -0.01489804  0.58871094  0.80668290  1
  Rh  Rh235  1  -0.01506221  0.78676419  0.01605933  1
  Rh  Rh236  1  0.18854323  0.58768605  -0.00048039  1
  Rh  Rh237  1  0.01147571  0.81350617  0.78884796  1
  Rh  Rh238  1  -0.00748435  0.39118379  0.18978067  1
  Rh  Rh239  1  0.80418912  0.59726005  0.39463085  1
  Rh  Rh240  1  0.40010415  0.59805002  0.80284321  1
  Rh  Rh241  1  0.59990878  0.59676171  0.81163644  1
  Rh  Rh242  1  0.79739264  0.39403891  0.60122520  1
  Rh  Rh243  1  0.60050555  0.20364601  -0.00303035  1
  Rh  Rh244  1  0.79189663  0.00660731  0.20208148  1
  Rh  Rh245  1  0.60129479  0.60548708  0.40243423  1
  Rh  Rh246  1  0.80457125  0.00869880  0.80944063  1
  Rh  Rh247  1  0.20491490  0.39877163  0.19845811  1
  Rh  Rh248  1  0.19589096  0.00056028  0.20815892  1
  Rh  Rh249  1  0.79364311  0.58744001  0.20846935  1
