# generated using pymatgen
data_ZrScNbPdRh
_symmetry_space_group_name_H-M   'P 1'
_cell_length_a   16.55629915
_cell_length_b   16.55244802
_cell_length_c   16.55061787
_cell_angle_alpha   90.00533221
_cell_angle_beta   90.01280451
_cell_angle_gamma   90.01973198
_symmetry_Int_Tables_number   1
_chemical_formula_structural   ZrScNbPdRh
_chemical_formula_sum   'Zr50 Sc50 Nb50 Pd50 Rh50'
_cell_volume   4535.65142590
_cell_formula_units_Z   50
loop_
 _symmetry_equiv_pos_site_id
 _symmetry_equiv_pos_as_xyz
  1  'x, y, z'
loop_
 _atom_site_type_symbol
 _atom_site_label
 _atom_site_symmetry_multiplicity
 _atom_site_fract_x
 _atom_site_fract_y
 _atom_site_fract_z
 _atom_site_occupancy
  Zr  Zr0  1  0.49431774  0.69379886  0.89892859  1
  Zr  Zr1  1  0.10051652  0.69556105  0.90057887  1
  Zr  Zr2  1  0.29936315  0.70184691  0.68659230  1
  Zr  Zr3  1  0.10727109  0.29751952  0.89058989  1
  Zr  Zr4  1  0.49850594  0.09719500  0.30021919  1
  Zr  Zr5  1  0.10705379  0.30335424  0.09405782  1
  Zr  Zr6  1  0.69387341  0.90485075  0.08715331  1
  Zr  Zr7  1  0.30019942  0.29592729  0.90326543  1
  Zr  Zr8  1  0.09943919  0.90160264  0.30788969  1
  Zr  Zr9  1  0.89014435  0.30057676  0.89429133  1
  Zr  Zr10  1  0.70308013  0.49753571  0.10549642  1
  Zr  Zr11  1  0.69731231  0.30019898  0.30465288  1
  Zr  Zr12  1  0.49487390  0.70406527  0.10013292  1
  Zr  Zr13  1  0.89645095  0.50297219  0.71237564  1
  Zr  Zr14  1  0.89942642  0.69176777  0.89760053  1
  Zr  Zr15  1  0.09597725  0.70625758  0.29440135  1
  Zr  Zr16  1  0.30288554  0.10285300  0.09386783  1
  Zr  Zr17  1  0.69843421  0.09802744  0.09909300  1
  Zr  Zr18  1  0.70494648  0.70007608  0.30502166  1
  Zr  Zr19  1  0.49937981  0.50106102  0.10815305  1
  Zr  Zr20  1  0.30378518  0.90135340  0.29759829  1
  Zr  Zr21  1  0.69561969  0.49892825  0.50113220  1
  Zr  Zr22  1  0.49103273  0.49782965  0.49526881  1
  Zr  Zr23  1  0.69770521  0.90256155  0.49345968  1
  Zr  Zr24  1  0.69774488  0.68933714  0.69741672  1
  Zr  Zr25  1  0.50088491  0.49790474  0.89373232  1
  Zr  Zr26  1  0.10399834  0.49077661  0.70033256  1
  Zr  Zr27  1  0.10499613  0.10807536  0.10088449  1
  Zr  Zr28  1  0.89743445  0.30260261  0.09597665  1
  Zr  Zr29  1  0.70313089  0.49592648  0.89103783  1
  Zr  Zr30  1  0.30436246  0.50024294  0.30869886  1
  Zr  Zr31  1  0.09957355  0.70193257  0.10059314  1
  Zr  Zr32  1  0.48794926  0.10143483  0.49419409  1
  Zr  Zr33  1  0.09993590  0.09852955  0.30220788  1
  Zr  Zr34  1  0.50056648  0.29984325  0.50353392  1
  Zr  Zr35  1  0.90178726  0.70591245  0.69975478  1
  Zr  Zr36  1  0.30621575  0.30627193  0.50817846  1
  Zr  Zr37  1  0.49939761  0.10400369  0.69813340  1
  Zr  Zr38  1  0.91080658  0.50141524  0.29784221  1
  Zr  Zr39  1  0.49969431  0.90346520  0.29846366  1
  Zr  Zr40  1  0.89984192  0.68940189  0.10087945  1
  Zr  Zr41  1  0.89873165  0.69780079  0.30031011  1
  Zr  Zr42  1  0.90412619  0.89981163  0.30264172  1
  Zr  Zr43  1  0.49954189  0.90302169  0.90723918  1
  Zr  Zr44  1  0.90589910  0.10007754  0.30725445  1
  Zr  Zr45  1  0.30411555  0.09646516  0.30579485  1
  Zr  Zr46  1  0.49976255  0.70097233  0.70135837  1
  Zr  Zr47  1  0.89713473  0.10112679  0.50602765  1
  Zr  Zr48  1  0.30467247  0.90172349  0.89848984  1
  Zr  Zr49  1  0.10055435  0.49734621  0.30369045  1
  Sc  Sc50  1  0.89506912  0.09260075  0.10207656  1
  Sc  Sc51  1  0.50196632  0.49764882  0.29790453  1
  Sc  Sc52  1  0.50444312  0.29380205  0.69958246  1
  Sc  Sc53  1  0.70343134  0.29515636  0.88550595  1
  Sc  Sc54  1  0.09584897  0.50727946  0.09907484  1
  Sc  Sc55  1  0.09155528  0.09863700  0.49394738  1
  Sc  Sc56  1  0.30836151  0.89174006  0.10059286  1
  Sc  Sc57  1  0.29822546  0.49713983  0.69009816  1
  Sc  Sc58  1  0.69491214  0.09441225  0.30753009  1
  Sc  Sc59  1  0.50697235  0.50361366  0.70391533  1
  Sc  Sc60  1  0.50404910  0.29842128  0.30404944  1
  Sc  Sc61  1  0.70095016  0.10573400  0.50163288  1
  Sc  Sc62  1  0.30998677  0.10300242  0.89855992  1
  Sc  Sc63  1  0.50796119  0.29535907  0.11291037  1
  Sc  Sc64  1  0.69680597  0.50801699  0.30126669  1
  Sc  Sc65  1  0.50566417  0.69248988  0.50586118  1
  Sc  Sc66  1  0.29974090  0.70047742  0.10197305  1
  Sc  Sc67  1  0.29404053  0.29104058  0.09464293  1
  Sc  Sc68  1  0.09634863  0.89583383  0.89585781  1
  Sc  Sc69  1  0.29702831  0.89606089  0.49961856  1
  Sc  Sc70  1  0.10506713  0.50023139  0.89867791  1
  Sc  Sc71  1  0.69367574  0.91060406  0.69055946  1
  Sc  Sc72  1  0.69643643  0.49561869  0.70204820  1
  Sc  Sc73  1  0.69842051  0.69486927  0.49650650  1
  Sc  Sc74  1  0.89268957  0.30258476  0.70275654  1
  Sc  Sc75  1  0.30228317  0.30248681  0.30420093  1
  Sc  Sc76  1  0.11346383  0.71012217  0.50143694  1
  Sc  Sc77  1  0.90117148  0.50091037  0.49554690  1
  Sc  Sc78  1  0.70408898  0.70224128  0.90873369  1
  Sc  Sc79  1  0.50123736  0.09051975  0.09628131  1
  Sc  Sc80  1  0.10427679  0.49808514  0.49647039  1
  Sc  Sc81  1  0.88733988  0.30114818  0.49795070  1
  Sc  Sc82  1  0.30425535  0.69910360  0.90594899  1
  Sc  Sc83  1  0.30640747  0.10608920  0.69559133  1
  Sc  Sc84  1  0.69564871  0.10787531  0.70108935  1
  Sc  Sc85  1  0.89195830  0.70063010  0.49908316  1
  Sc  Sc86  1  0.08170027  0.89390295  0.69312235  1
  Sc  Sc87  1  0.49773802  0.90593530  0.69468766  1
  Sc  Sc88  1  0.69997259  0.29758875  0.10093224  1
  Sc  Sc89  1  0.89383158  0.90314629  0.10705495  1
  Sc  Sc90  1  0.89391806  0.91168941  0.89000016  1
  Sc  Sc91  1  0.49376099  0.10086630  0.89341256  1
  Sc  Sc92  1  0.10534628  0.30894537  0.50577667  1
  Sc  Sc93  1  0.50606233  0.69418888  0.29710632  1
  Sc  Sc94  1  0.09500216  0.89513006  0.11232846  1
  Sc  Sc95  1  0.09658648  0.10969678  0.70815378  1
  Sc  Sc96  1  0.30975412  0.89874475  0.69630959  1
  Sc  Sc97  1  0.29512670  0.69890367  0.29790269  1
  Sc  Sc98  1  0.29727919  0.50277345  0.90395669  1
  Sc  Sc99  1  0.70345849  0.70214795  0.10725736  1
  Nb  Nb100  1  0.90255345  0.49842421  0.09914104  1
  Nb  Nb101  1  0.29686558  0.10428126  0.49672703  1
  Nb  Nb102  1  0.10038682  0.69617788  0.70297907  1
  Nb  Nb103  1  0.69856945  0.90403611  0.89842347  1
  Nb  Nb104  1  0.49872696  0.29485138  0.89815689  1
  Nb  Nb105  1  0.70632852  0.09204082  0.90192501  1
  Nb  Nb106  1  0.31161020  0.69428706  0.49926775  1
  Nb  Nb107  1  0.09936206  0.90848124  0.49736962  1
  Nb  Nb108  1  0.90635123  0.30378790  0.29813380  1
  Nb  Nb109  1  0.29172296  0.30278600  0.70015398  1
  Nb  Nb110  1  0.90535692  0.90539791  0.51725447  1
  Nb  Nb111  1  0.69698444  0.29464935  0.68893275  1
  Nb  Nb112  1  0.69944746  0.30059035  0.51200053  1
  Nb  Nb113  1  0.90412058  0.10105130  0.70904966  1
  Nb  Nb114  1  0.90114838  0.10453344  0.88833977  1
  Nb  Nb115  1  0.10144776  0.30170908  0.29709101  1
  Nb  Nb116  1  0.30445000  0.50091133  0.49384015  1
  Nb  Nb117  1  0.49662744  0.89929688  0.10100024  1
  Nb  Nb118  1  0.89505945  0.90134279  0.69021200  1
  Nb  Nb119  1  0.89480491  0.49620697  0.90604521  1
  Nb  Nb120  1  0.50073340  0.89818188  0.49826049  1
  Nb  Nb121  1  0.69807400  0.89607982  0.30352122  1
  Nb  Nb122  1  0.10843378  0.30352205  0.69788028  1
  Nb  Nb123  1  0.30352959  0.49270236  0.10261976  1
  Nb  Nb124  1  0.09052025  0.09596258  0.89325033  1
  Nb  Nb125  1  0.60150368  0.19899568  -0.00800559  1
  Nb  Nb126  1  -0.00493627  0.80093728  -0.00130815  1
  Nb  Nb127  1  0.19942379  0.40159292  0.20140999  1
  Nb  Nb128  1  -0.00084674  0.20685965  0.60726698  1
  Nb  Nb129  1  0.59683520  0.59347516  0.00185961  1
  Nb  Nb130  1  0.79474811  0.80648685  0.79376331  1
  Nb  Nb131  1  0.20279103  0.00265369  0.19785832  1
  Nb  Nb132  1  0.19789344  0.79792378  0.79364390  1
  Nb  Nb133  1  0.20074189  0.20132089  0.40282043  1
  Nb  Nb134  1  0.60474460  0.80482091  0.80358336  1
  Nb  Nb135  1  0.59724468  0.39649641  -0.00537505  1
  Nb  Nb136  1  0.40639951  0.39679769  -0.00036789  1
  Nb  Nb137  1  0.00200506  0.00310106  -0.00478985  1
  Nb  Nb138  1  0.80533873  0.20297958  0.20827204  1
  Nb  Nb139  1  0.19483225  0.00141681  0.59899749  1
  Nb  Nb140  1  0.00596482  0.60311047  0.60763619  1
  Nb  Nb141  1  -0.00129383  0.20698533  0.19951986  1
  Nb  Nb142  1  0.40312697  0.79589910  0.40504595  1
  Nb  Nb143  1  0.19441474  0.00007643  -0.00323070  1
  Nb  Nb144  1  0.19749468  -0.00448369  0.79646110  1
  Nb  Nb145  1  0.80860029  0.39833178  0.20405696  1
  Nb  Nb146  1  0.39938935  0.19267377  0.20334775  1
  Nb  Nb147  1  -0.00510154  0.40009130  -0.00407487  1
  Nb  Nb148  1  -0.00289222  0.19827208  -0.00630071  1
  Nb  Nb149  1  0.39774705  0.39270944  0.80207854  1
  Pd  Pd150  1  0.20859861  0.79826083  0.39926029  1
  Pd  Pd151  1  0.20196396  0.59199149  0.19727214  1
  Pd  Pd152  1  0.79564943  -0.00055027  0.78957413  1
  Pd  Pd153  1  -0.00709079  0.40083992  0.59818001  1
  Pd  Pd154  1  0.20776580  0.18879494  0.80001657  1
  Pd  Pd155  1  0.79705977  0.20180133  0.39818524  1
  Pd  Pd156  1  0.40525059  0.59335316  0.60484672  1
  Pd  Pd157  1  0.59641773  0.79304494  -0.00349983  1
  Pd  Pd158  1  -0.00558662  0.80562271  0.80458952  1
  Pd  Pd159  1  0.79766786  0.80560263  0.19981074  1
  Pd  Pd160  1  0.60492932  -0.00387780  0.20144716  1
  Pd  Pd161  1  0.59286801  0.40302078  0.60570133  1
  Pd  Pd162  1  0.00076841  0.39791978  0.80542870  1
  Pd  Pd163  1  0.60328960  0.80172217  0.20036111  1
  Pd  Pd164  1  0.19487019  0.80712959  -0.00318095  1
  Pd  Pd165  1  0.59600427  0.00106551  0.80278703  1
  Pd  Pd166  1  0.79896641  0.19302382  0.00118162  1
  Pd  Pd167  1  0.59741367  0.00895042  0.59021962  1
  Pd  Pd168  1  0.60179956  0.79986123  0.60410140  1
  Pd  Pd169  1  0.80664318  0.59322905  0.59858448  1
  Pd  Pd170  1  0.19534815  0.59509780  0.59217260  1
  Pd  Pd171  1  0.39171658  -0.00009211  0.59421392  1
  Pd  Pd172  1  0.19828206  0.60592342  0.40400986  1
  Pd  Pd173  1  0.79236465  0.59559824  0.00084640  1
  Pd  Pd174  1  0.20988559  0.60389433  0.79681955  1
  Pd  Pd175  1  0.78828720  0.80036339  0.60027391  1
  Pd  Pd176  1  0.19081734  0.19303506  0.59396823  1
  Pd  Pd177  1  0.38805943  0.59145536  0.79251095  1
  Pd  Pd178  1  0.20450921  0.59728712  0.00656000  1
  Pd  Pd179  1  0.00274049  0.79083029  0.58944230  1
  Pd  Pd180  1  0.00403525  0.59228995  0.80038995  1
  Pd  Pd181  1  0.00611929  0.21285309  0.40771615  1
  Pd  Pd182  1  0.80397744  -0.00452552  0.40285690  1
  Pd  Pd183  1  0.59211833  0.79515781  0.40033279  1
  Pd  Pd184  1  0.39364229  0.38675206  0.19571139  1
  Pd  Pd185  1  0.79771894  0.40586736  0.39448224  1
  Pd  Pd186  1  0.79412640  0.00969395  0.60577467  1
  Pd  Pd187  1  0.80936100  0.80956697  -0.00628082  1
  Pd  Pd188  1  0.80638111  0.80789873  0.40646094  1
  Pd  Pd189  1  0.00771687  0.61050391  0.41348747  1
  Pd  Pd190  1  0.79050624  0.00152648  0.20833601  1
  Pd  Pd191  1  0.60116706  0.19844575  0.40662633  1
  Pd  Pd192  1  0.80313852  0.40563395  0.60308242  1
  Pd  Pd193  1  0.19759454  0.81158136  0.60611229  1
  Pd  Pd194  1  0.39590355  0.60482268  0.20475797  1
  Pd  Pd195  1  -0.00561200  0.80021637  0.41189549  1
  Pd  Pd196  1  0.00729167  0.01287156  0.60801981  1
  Pd  Pd197  1  0.59902594  0.40254744  0.39927628  1
  Pd  Pd198  1  0.00019647  0.39346364  0.40958190  1
  Pd  Pd199  1  0.40153826  0.80052875  0.79751603  1
  Rh  Rh200  1  0.39696816  0.00272542  0.79513722  1
  Rh  Rh201  1  0.80804897  0.00125327  -0.00445169  1
  Rh  Rh202  1  0.00539269  0.39793082  0.19052354  1
  Rh  Rh203  1  0.00017531  -0.00647912  0.79514665  1
  Rh  Rh204  1  0.80591645  0.19855523  0.60571770  1
  Rh  Rh205  1  0.39966714  0.20434246  0.60218234  1
  Rh  Rh206  1  0.00740362  0.00829818  0.19336625  1
  Rh  Rh207  1  0.80408410  0.59231019  0.20574451  1
  Rh  Rh208  1  0.80032118  0.59409487  0.39881757  1
  Rh  Rh209  1  0.39946105  -0.01242238  0.41062021  1
  Rh  Rh210  1  0.59622023  0.00693824  -0.00712917  1
  Rh  Rh211  1  0.20186312  0.00493511  0.40443103  1
  Rh  Rh212  1  0.39440896  0.20758384  0.39717127  1
  Rh  Rh213  1  0.60027084  0.19007132  0.19642762  1
  Rh  Rh214  1  0.20474386  0.20247261  0.21608828  1
  Rh  Rh215  1  0.20472809  0.40751024  0.59345287  1
  Rh  Rh216  1  0.61009371  0.39837718  0.20201889  1
  Rh  Rh217  1  0.39519889  0.00282088  0.19008431  1
  Rh  Rh218  1  0.59799019  0.59246320  0.59722730  1
  Rh  Rh219  1  0.39624046  0.20779657  0.78931199  1
  Rh  Rh220  1  0.60447834  0.19649093  0.80461203  1
  Rh  Rh221  1  0.59765154  0.19669117  0.59320086  1
  Rh  Rh222  1  0.19252347  0.18694118  -0.01815405  1
  Rh  Rh223  1  0.00315540  0.60180699  0.20092786  1
  Rh  Rh224  1  0.59854799  -0.00000679  0.40414312  1
  Rh  Rh225  1  0.79239409  0.39717953  0.79020032  1
  Rh  Rh226  1  0.39681849  -0.00439700  0.00231878  1
  Rh  Rh227  1  0.40403961  0.39700737  0.39893743  1
  Rh  Rh228  1  0.41582926  0.20796932  0.01406612  1
  Rh  Rh229  1  0.20383986  0.39462536  0.39860280  1
  Rh  Rh230  1  0.59712657  0.59774202  0.40213998  1
  Rh  Rh231  1  0.40110258  0.59307302  0.00887372  1
  Rh  Rh232  1  -0.01006296  0.79568752  0.19391085  1
  Rh  Rh233  1  0.40330495  0.60680290  0.39525424  1
  Rh  Rh234  1  0.79637704  0.40442142  0.00367005  1
  Rh  Rh235  1  0.60806014  0.61278814  0.81022287  1
  Rh  Rh236  1  0.79601571  0.60488717  0.80166269  1
  Rh  Rh237  1  0.20985613  0.40371474  0.80071195  1
  Rh  Rh238  1  0.20125635  0.40970079  0.00609833  1
  Rh  Rh239  1  0.59782548  0.38707503  0.79685757  1
  Rh  Rh240  1  0.40149463  0.79973314  0.00118649  1
  Rh  Rh241  1  0.20249015  0.80730431  0.20321304  1
  Rh  Rh242  1  -0.00100441  0.59656886  -0.00500495  1
  Rh  Rh243  1  -0.00290030  0.21388873  0.79579337  1
  Rh  Rh244  1  0.40307782  0.79618832  0.20849551  1
  Rh  Rh245  1  0.40302812  0.40018892  0.60988827  1
  Rh  Rh246  1  0.60277634  0.60556447  0.19550324  1
  Rh  Rh247  1  -0.01012036  -0.00700423  0.40736272  1
  Rh  Rh248  1  0.79506819  0.19549186  0.79186117  1
  Rh  Rh249  1  0.40838822  0.79919536  0.59001706  1
