# generated using pymatgen
data_ZrScNbPdRh
_symmetry_space_group_name_H-M   'P 1'
_cell_length_a   16.55861151
_cell_length_b   16.55820384
_cell_length_c   16.56569035
_cell_angle_alpha   89.98117738
_cell_angle_beta   90.01614840
_cell_angle_gamma   89.99978360
_symmetry_Int_Tables_number   1
_chemical_formula_structural   ZrScNbPdRh
_chemical_formula_sum   'Zr50 Sc50 Nb50 Pd50 Rh50'
_cell_volume   4541.99488036
_cell_formula_units_Z   50
loop_
 _symmetry_equiv_pos_site_id
 _symmetry_equiv_pos_as_xyz
  1  'x, y, z'
loop_
 _atom_site_type_symbol
 _atom_site_label
 _atom_site_symmetry_multiplicity
 _atom_site_fract_x
 _atom_site_fract_y
 _atom_site_fract_z
 _atom_site_occupancy
  Zr  Zr0  1  0.70250752  0.70200966  0.50028338  1
  Zr  Zr1  1  0.48976467  0.69254023  0.90293063  1
  Zr  Zr2  1  0.10289383  0.09461772  0.30571556  1
  Zr  Zr3  1  0.90793903  0.10059651  0.89628333  1
  Zr  Zr4  1  0.71055300  0.10695795  0.50446523  1
  Zr  Zr5  1  0.69453291  0.69557755  0.69581126  1
  Zr  Zr6  1  0.90557738  0.29617897  0.50745820  1
  Zr  Zr7  1  0.29772884  0.90344819  0.30149961  1
  Zr  Zr8  1  0.30316532  0.70258247  0.30542168  1
  Zr  Zr9  1  0.69334321  0.90412684  0.29618577  1
  Zr  Zr10  1  0.29384002  0.89130467  0.90445653  1
  Zr  Zr11  1  0.29820363  0.71137745  0.09605809  1
  Zr  Zr12  1  0.89425575  0.30205969  0.30358218  1
  Zr  Zr13  1  0.29444611  0.10171403  0.90316120  1
  Zr  Zr14  1  0.09422734  0.69968582  0.88529301  1
  Zr  Zr15  1  0.09308498  0.49986526  0.29839749  1
  Zr  Zr16  1  0.29333096  0.10470048  0.69915427  1
  Zr  Zr17  1  0.69748810  0.30047007  0.08551646  1
  Zr  Zr18  1  0.69552674  0.70425333  0.10028563  1
  Zr  Zr19  1  0.49913679  0.09879887  0.29373254  1
  Zr  Zr20  1  0.29849210  0.09787251  0.10053666  1
  Zr  Zr21  1  0.28822921  0.30350662  0.89403235  1
  Zr  Zr22  1  0.09443537  0.29903076  0.69834782  1
  Zr  Zr23  1  0.69582353  0.29528937  0.70044897  1
  Zr  Zr24  1  0.50172841  0.70094531  0.09979568  1
  Zr  Zr25  1  0.09422715  0.29916844  0.29774750  1
  Zr  Zr26  1  0.50239116  0.90432306  0.90184276  1
  Zr  Zr27  1  0.09382945  0.49707531  0.10213896  1
  Zr  Zr28  1  0.29919664  0.09865430  0.29772170  1
  Zr  Zr29  1  0.89492826  0.68661732  0.09493351  1
  Zr  Zr30  1  0.70030500  0.89992708  0.09310856  1
  Zr  Zr31  1  0.30058922  0.69490717  0.50190177  1
  Zr  Zr32  1  0.49946262  0.48591135  0.29344916  1
  Zr  Zr33  1  0.69907539  0.90204637  0.90423001  1
  Zr  Zr34  1  0.91934875  0.69999726  0.70815797  1
  Zr  Zr35  1  0.49132920  0.30464640  0.69858349  1
  Zr  Zr36  1  0.09993574  0.89231731  0.69544422  1
  Zr  Zr37  1  0.50451887  0.69283230  0.70330005  1
  Zr  Zr38  1  0.29831370  0.29673957  0.09527006  1
  Zr  Zr39  1  0.70460712  0.49410875  0.30511224  1
  Zr  Zr40  1  0.70011802  0.50999646  0.49997804  1
  Zr  Zr41  1  0.10027173  0.90619570  0.89907391  1
  Zr  Zr42  1  0.90424245  0.10439268  0.29478992  1
  Zr  Zr43  1  0.89150548  0.89832956  0.89550052  1
  Zr  Zr44  1  0.10391815  0.69785673  0.69000353  1
  Zr  Zr45  1  0.70372263  0.09500804  0.10251134  1
  Zr  Zr46  1  0.90165707  0.50120204  0.29150348  1
  Zr  Zr47  1  0.51176455  0.89802332  0.10876489  1
  Zr  Zr48  1  0.90623626  0.50066529  0.90564726  1
  Zr  Zr49  1  0.10681739  0.89873587  0.09957627  1
  Sc  Sc50  1  0.09904791  0.70553996  0.10234822  1
  Sc  Sc51  1  0.90700637  0.49928514  0.49221195  1
  Sc  Sc52  1  0.50231894  0.30175861  0.10507653  1
  Sc  Sc53  1  0.09492848  0.91040934  0.50366327  1
  Sc  Sc54  1  0.29745888  0.49668288  0.30660347  1
  Sc  Sc55  1  0.49991914  0.90399393  0.30656247  1
  Sc  Sc56  1  0.49571763  0.09699561  0.09777514  1
  Sc  Sc57  1  0.50850823  0.70353658  0.49580628  1
  Sc  Sc58  1  0.49788010  0.49829896  0.50173941  1
  Sc  Sc59  1  0.50422844  0.49449094  0.09311758  1
  Sc  Sc60  1  0.90866293  0.89726653  0.30415744  1
  Sc  Sc61  1  0.09495432  0.49955038  0.69491308  1
  Sc  Sc62  1  0.90178245  0.71086733  0.49651978  1
  Sc  Sc63  1  0.49536042  0.09708329  0.89810054  1
  Sc  Sc64  1  0.90120775  0.69797954  0.30492394  1
  Sc  Sc65  1  0.29899457  0.28978358  0.29677954  1
  Sc  Sc66  1  0.70698334  0.90269065  0.70033514  1
  Sc  Sc67  1  0.09933366  0.09741393  0.69771754  1
  Sc  Sc68  1  0.09446881  0.09764381  0.10181720  1
  Sc  Sc69  1  0.09983574  0.30446546  0.09757313  1
  Sc  Sc70  1  0.70323998  0.89187378  0.50013767  1
  Sc  Sc71  1  0.89613149  0.09405571  0.69252682  1
  Sc  Sc72  1  0.29579772  0.90334158  0.10177857  1
  Sc  Sc73  1  0.70348251  0.49304891  0.91029302  1
  Sc  Sc74  1  0.29086595  0.90177317  0.70288656  1
  Sc  Sc75  1  0.10460214  0.50046702  0.50030435  1
  Sc  Sc76  1  0.90091991  0.10255320  0.09987152  1
  Sc  Sc77  1  0.50098282  0.29866573  0.50048300  1
  Sc  Sc78  1  0.29080894  0.30468207  0.69925013  1
  Sc  Sc79  1  0.90366897  0.30476904  0.90054050  1
  Sc  Sc80  1  0.28409501  0.10215947  0.48821077  1
  Sc  Sc81  1  0.50113245  0.10481615  0.70956105  1
  Sc  Sc82  1  0.49968202  0.71147099  0.30610673  1
  Sc  Sc83  1  0.89925880  0.90932911  0.09832572  1
  Sc  Sc84  1  0.69281830  0.09729744  0.90200716  1
  Sc  Sc85  1  0.09575934  0.29676557  0.89407298  1
  Sc  Sc86  1  0.29547257  0.49665511  0.50398250  1
  Sc  Sc87  1  0.49680448  0.10266099  0.48784119  1
  Sc  Sc88  1  0.29140728  0.70726765  0.69970708  1
  Sc  Sc89  1  0.30045860  0.48723320  0.10126107  1
  Sc  Sc90  1  0.70261383  0.69995002  0.31478178  1
  Sc  Sc91  1  0.50020981  0.90481184  0.70901472  1
  Sc  Sc92  1  0.70925713  0.70419789  0.91176549  1
  Sc  Sc93  1  0.09846884  0.90183623  0.29472639  1
  Sc  Sc94  1  0.90088784  0.90053770  0.69330203  1
  Sc  Sc95  1  0.71159219  0.50208624  0.09814883  1
  Sc  Sc96  1  0.70718305  0.29946239  0.49850208  1
  Sc  Sc97  1  0.09332418  0.70453349  0.29805011  1
  Sc  Sc98  1  0.10148090  0.48538720  0.90280824  1
  Sc  Sc99  1  0.90276489  0.29850640  0.10025446  1
  Nb  Nb100  1  0.49799966  0.90327903  0.50135141  1
  Nb  Nb101  1  0.69786282  0.50472675  0.70296261  1
  Nb  Nb102  1  0.90377037  0.09423702  0.49848104  1
  Nb  Nb103  1  0.50309658  0.29911573  0.30016972  1
  Nb  Nb104  1  0.30354069  0.49997106  0.89339595  1
  Nb  Nb105  1  0.30089125  0.90137238  0.50050089  1
  Nb  Nb106  1  0.11094733  0.70261750  0.51091549  1
  Nb  Nb107  1  0.29795825  0.69665607  0.90174563  1
  Nb  Nb108  1  0.09643075  0.10156430  0.50071475  1
  Nb  Nb109  1  0.09709352  0.10201243  0.89420413  1
  Nb  Nb110  1  0.49917789  0.50234272  0.70698884  1
  Nb  Nb111  1  0.30047792  0.29695509  0.50105368  1
  Nb  Nb112  1  0.89823180  0.90930515  0.50036706  1
  Nb  Nb113  1  0.90347426  0.30833314  0.70637497  1
  Nb  Nb114  1  0.69623990  0.09967638  0.69752871  1
  Nb  Nb115  1  0.69862117  0.30130039  0.90133968  1
  Nb  Nb116  1  0.90232759  0.49546213  0.70341228  1
  Nb  Nb117  1  0.69749424  0.29698906  0.29852362  1
  Nb  Nb118  1  0.50695821  0.30388027  0.90171856  1
  Nb  Nb119  1  0.10767613  0.29421635  0.50651376  1
  Nb  Nb120  1  0.70497361  0.10371853  0.30010722  1
  Nb  Nb121  1  0.90353761  0.49857245  0.09853559  1
  Nb  Nb122  1  0.31437190  0.49315346  0.70655504  1
  Nb  Nb123  1  0.90192672  0.69987187  0.89780895  1
  Nb  Nb124  1  0.48933311  0.50112276  0.88958551  1
  Nb  Nb125  1  0.59730648  0.59865838  0.20375932  1
  Nb  Nb126  1  0.20692018  0.59340513  0.80214320  1
  Nb  Nb127  1  0.40043311  0.59987267  0.19974422  1
  Nb  Nb128  1  0.39267496  0.19791242  0.59471622  1
  Nb  Nb129  1  0.40142955  0.39847128  -0.01307356  1
  Nb  Nb130  1  0.20514068  0.59870087  -0.00333551  1
  Nb  Nb131  1  0.80581669  0.59640151  0.79785982  1
  Nb  Nb132  1  0.59777385  0.40396263  0.80166604  1
  Nb  Nb133  1  0.20017035  0.80086591  0.40865846  1
  Nb  Nb134  1  0.59760068  0.00507799  0.59860855  1
  Nb  Nb135  1  0.79654962  0.20407271  0.79769905  1
  Nb  Nb136  1  0.80600549  0.59641432  0.60876236  1
  Nb  Nb137  1  0.20517070  0.60157968  0.19628570  1
  Nb  Nb138  1  0.60563422  0.20219275  0.38923474  1
  Nb  Nb139  1  0.80394743  0.00564505  0.40042577  1
  Nb  Nb140  1  0.60059210  0.79593644  0.80474430  1
  Nb  Nb141  1  0.79770926  0.79990679  0.19867772  1
  Nb  Nb142  1  0.40137001  0.60024971  0.60706895  1
  Nb  Nb143  1  0.60383155  0.40680626  0.60833302  1
  Nb  Nb144  1  0.00204869  0.19728668  0.40809144  1
  Nb  Nb145  1  0.39987222  0.00181350  0.59611412  1
  Nb  Nb146  1  -0.00543184  0.79836692  -0.00653708  1
  Nb  Nb147  1  0.40014951  0.38926069  0.39990371  1
  Nb  Nb148  1  0.80097448  0.40621835  0.61025369  1
  Nb  Nb149  1  0.40196064  0.80432631  0.59667308  1
  Pd  Pd150  1  0.01032759  0.80293237  0.40919510  1
  Pd  Pd151  1  0.40060077  0.80242630  0.20145458  1
  Pd  Pd152  1  0.40235908  0.20320348  0.19721640  1
  Pd  Pd153  1  0.18941332  0.60615355  0.39301267  1
  Pd  Pd154  1  0.40136634  0.79810403  0.79421831  1
  Pd  Pd155  1  0.59345737  0.81244624  0.60769372  1
  Pd  Pd156  1  0.00507529  0.60774466  0.40687038  1
  Pd  Pd157  1  0.59839931  0.39303243  0.40989643  1
  Pd  Pd158  1  0.60184284  0.20187071  0.80663077  1
  Pd  Pd159  1  0.40532328  0.20783254  -0.00437666  1
  Pd  Pd160  1  0.19995152  0.00190970  0.80095739  1
  Pd  Pd161  1  -0.01208339  0.79873943  0.18891062  1
  Pd  Pd162  1  0.79704159  0.39370405  0.19155209  1
  Pd  Pd163  1  0.80931835  0.79279493  0.60680831  1
  Pd  Pd164  1  0.39108931  0.58912455  0.01057191  1
  Pd  Pd165  1  0.20352298  0.39245801  0.39785392  1
  Pd  Pd166  1  0.79454547  0.40028690  0.80228049  1
  Pd  Pd167  1  0.00624485  0.39264653  0.40814243  1
  Pd  Pd168  1  0.40490206  0.80947168  0.00308948  1
  Pd  Pd169  1  -0.00142706  -0.00232546  0.78977072  1
  Pd  Pd170  1  0.58957924  0.59815095  0.39246617  1
  Pd  Pd171  1  0.20276953  0.40253426  0.20570249  1
  Pd  Pd172  1  -0.00244540  0.19349840  0.60467132  1
  Pd  Pd173  1  -0.00503674  0.59812752  0.59053528  1
  Pd  Pd174  1  0.00484978  0.20335151  0.00027555  1
  Pd  Pd175  1  0.60215699  0.19689307  0.19788045  1
  Pd  Pd176  1  0.61235011  0.60013834  0.81904684  1
  Pd  Pd177  1  0.61000778  0.00741268  0.40824080  1
  Pd  Pd178  1  0.79822636  0.20786106  0.19391303  1
  Pd  Pd179  1  0.00028198  -0.00332006  0.00095798  1
  Pd  Pd180  1  0.01204732  0.60392639  -0.00150368  1
  Pd  Pd181  1  0.79527163  0.79083576  0.79192452  1
  Pd  Pd182  1  0.60172981  0.59385851  -0.00083791  1
  Pd  Pd183  1  0.19289132  0.19681343  0.19552417  1
  Pd  Pd184  1  0.80690593  -0.00684411  0.20777995  1
  Pd  Pd185  1  0.58940622  0.19582982  0.59132618  1
  Pd  Pd186  1  0.39593160  0.00458116  0.40235009  1
  Pd  Pd187  1  0.39133627  -0.00118115  0.79616921  1
  Pd  Pd188  1  0.79587738  0.01102497  0.80148651  1
  Pd  Pd189  1  0.79127396  0.60741227  0.20859378  1
  Pd  Pd190  1  0.80224096  0.40034083  0.40853828  1
  Pd  Pd191  1  0.80925923  0.20557614  0.61081213  1
  Pd  Pd192  1  0.19950890  0.40397217  0.60432037  1
  Pd  Pd193  1  0.80360199  0.19736446  -0.01042710  1
  Pd  Pd194  1  0.61217030  0.40323764  0.19186579  1
  Pd  Pd195  1  0.39547110  0.20511273  0.79902884  1
  Pd  Pd196  1  0.40659575  0.58922875  0.39956788  1
  Pd  Pd197  1  0.39939796  -0.00716466  0.00432104  1
  Pd  Pd198  1  0.59385286  0.19209335  0.00078717  1
  Pd  Pd199  1  0.18706782  0.19690480  0.00005713  1
  Rh  Rh200  1  0.59109768  0.79676862  -0.01149991  1
  Rh  Rh201  1  0.80148767  0.59515854  -0.00706439  1
  Rh  Rh202  1  0.60145865  0.80635302  0.40166407  1
  Rh  Rh203  1  0.80156460  0.00941462  -0.00497602  1
  Rh  Rh204  1  0.40283404  0.38815615  0.80630069  1
  Rh  Rh205  1  0.39643955  0.80506944  0.40773035  1
  Rh  Rh206  1  0.19070691  0.20607502  0.39950566  1
  Rh  Rh207  1  0.81005402  0.59894890  0.40717356  1
  Rh  Rh208  1  0.00224425  0.00106440  0.60315937  1
  Rh  Rh209  1  -0.00381893  0.00426644  0.39828976  1
  Rh  Rh210  1  0.81241830  0.80143737  0.01048072  1
  Rh  Rh211  1  0.00481217  0.60149661  0.19887795  1
  Rh  Rh212  1  0.38828198  0.61125875  0.79040210  1
  Rh  Rh213  1  0.00423063  0.58705499  0.80311500  1
  Rh  Rh214  1  0.80108387  0.81317577  0.39124857  1
  Rh  Rh215  1  0.19110165  0.19764557  0.79899285  1
  Rh  Rh216  1  0.18510953  0.79188270  -0.00931951  1
  Rh  Rh217  1  0.20247246  0.79601403  0.21323697  1
  Rh  Rh218  1  -0.00025661  0.81314581  0.80391706  1
  Rh  Rh219  1  0.20454505  0.80983137  0.59328730  1
  Rh  Rh220  1  0.59662752  0.00580167  0.00312368  1
  Rh  Rh221  1  0.39491343  0.39607290  0.20146196  1
  Rh  Rh222  1  0.40344222  0.40020289  0.59222517  1
  Rh  Rh223  1  0.59956432  0.00730409  0.19784631  1
  Rh  Rh224  1  0.19689972  0.00828994  -0.00089028  1
  Rh  Rh225  1  0.19508397  -0.00843562  0.40273466  1
  Rh  Rh226  1  0.40477575  0.20579909  0.40182121  1
  Rh  Rh227  1  0.20257222  0.19782199  0.59871020  1
  Rh  Rh228  1  0.21102440  0.58768893  0.61307601  1
  Rh  Rh229  1  0.20108008  0.00258482  0.59703845  1
  Rh  Rh230  1  0.80349395  0.19619318  0.39579774  1
  Rh  Rh231  1  0.40103701  -0.00560679  0.19831170  1
  Rh  Rh232  1  0.19387970  0.40662385  0.79120483  1
  Rh  Rh233  1  0.19922052  0.79521625  0.80318456  1
  Rh  Rh234  1  0.00634029  0.40047400  0.80046680  1
  Rh  Rh235  1  0.20576505  0.40286022  -0.00132410  1
  Rh  Rh236  1  0.79239071  -0.00298647  0.59298559  1
  Rh  Rh237  1  0.19843920  0.00274438  0.19766822  1
  Rh  Rh238  1  0.00126104  -0.00117694  0.19819311  1
  Rh  Rh239  1  0.60651360  -0.00661697  0.79362831  1
  Rh  Rh240  1  0.00232705  0.20192905  0.20303312  1
  Rh  Rh241  1  0.59426609  0.59356935  0.59376860  1
  Rh  Rh242  1  -0.00273669  0.80390255  0.59160557  1
  Rh  Rh243  1  0.80757572  0.39662027  0.00371701  1
  Rh  Rh244  1  -0.00715837  0.19724139  0.79376404  1
  Rh  Rh245  1  0.59330445  0.40504961  -0.00638861  1
  Rh  Rh246  1  0.60818829  0.79019026  0.21189893  1
  Rh  Rh247  1  -0.00659726  0.39780275  0.19625012  1
  Rh  Rh248  1  -0.00266426  0.39422921  0.00317992  1
  Rh  Rh249  1  -0.00094676  0.40128778  0.59554038  1
