# generated using pymatgen
data_ZrScNbPdRh
_symmetry_space_group_name_H-M   'P 1'
_cell_length_a   16.55585104
_cell_length_b   16.55621885
_cell_length_c   16.55189466
_cell_angle_alpha   89.99539814
_cell_angle_beta   90.02115034
_cell_angle_gamma   89.97837206
_symmetry_Int_Tables_number   1
_chemical_formula_structural   ZrScNbPdRh
_chemical_formula_sum   'Zr50 Sc50 Nb50 Pd50 Rh50'
_cell_volume   4536.91163442
_cell_formula_units_Z   50
loop_
 _symmetry_equiv_pos_site_id
 _symmetry_equiv_pos_as_xyz
  1  'x, y, z'
loop_
 _atom_site_type_symbol
 _atom_site_label
 _atom_site_symmetry_multiplicity
 _atom_site_fract_x
 _atom_site_fract_y
 _atom_site_fract_z
 _atom_site_occupancy
  Zr  Zr0  1  0.90999715  0.48803934  0.70561646  1
  Zr  Zr1  1  0.10197474  0.50518373  0.88849613  1
  Zr  Zr2  1  0.50008781  0.50380809  0.09714847  1
  Zr  Zr3  1  0.90027675  0.69460388  0.90289169  1
  Zr  Zr4  1  0.29927439  0.29438494  0.69898352  1
  Zr  Zr5  1  0.49081490  0.90630427  0.49945126  1
  Zr  Zr6  1  0.30296568  0.50951252  0.90251221  1
  Zr  Zr7  1  0.10039062  0.70205857  0.50058811  1
  Zr  Zr8  1  0.29939544  0.50314637  0.49888519  1
  Zr  Zr9  1  0.69761191  0.51078581  0.50479545  1
  Zr  Zr10  1  0.69486864  0.70893254  0.29260448  1
  Zr  Zr11  1  0.49882543  0.10226385  0.90428344  1
  Zr  Zr12  1  0.09807459  0.10567058  0.69391434  1
  Zr  Zr13  1  0.69892481  0.89832236  0.70609762  1
  Zr  Zr14  1  0.69999715  0.49782569  0.70429799  1
  Zr  Zr15  1  0.70619104  0.71247094  0.09557383  1
  Zr  Zr16  1  0.70717961  0.29813374  0.69794776  1
  Zr  Zr17  1  0.30197978  0.50320032  0.30034067  1
  Zr  Zr18  1  0.50211905  0.09650287  0.69561597  1
  Zr  Zr19  1  0.90416673  0.49899601  0.49769226  1
  Zr  Zr20  1  0.09882117  0.30046645  0.71371329  1
  Zr  Zr21  1  0.91451246  0.49848337  0.29579888  1
  Zr  Zr22  1  0.89941916  0.30440423  0.09943320  1
  Zr  Zr23  1  0.29045734  0.09712463  0.29831677  1
  Zr  Zr24  1  0.90171874  0.09795746  0.10182822  1
  Zr  Zr25  1  0.69994751  0.48998609  0.09516603  1
  Zr  Zr26  1  0.09509844  0.50704175  0.50611420  1
  Zr  Zr27  1  0.28656343  0.30041485  0.10079590  1
  Zr  Zr28  1  0.10112507  0.69017230  0.70135389  1
  Zr  Zr29  1  0.90173304  0.50161244  0.10018180  1
  Zr  Zr30  1  0.90415838  0.10108752  0.30170542  1
  Zr  Zr31  1  0.29635691  0.70714129  0.50303457  1
  Zr  Zr32  1  0.49973866  0.89911795  0.30710595  1
  Zr  Zr33  1  0.70064693  0.10213545  0.70001588  1
  Zr  Zr34  1  0.89401913  0.10180050  0.90410460  1
  Zr  Zr35  1  0.90254595  0.30075500  0.30010589  1
  Zr  Zr36  1  0.30404459  0.89832753  0.30401628  1
  Zr  Zr37  1  0.10627933  0.29245415  0.50467136  1
  Zr  Zr38  1  0.30113522  0.29687199  0.49882864  1
  Zr  Zr39  1  0.29685558  0.69757958  0.90249448  1
  Zr  Zr40  1  0.69573712  0.11260098  0.10284188  1
  Zr  Zr41  1  0.91165362  0.10264253  0.50247820  1
  Zr  Zr42  1  0.29258993  0.89442249  0.89060593  1
  Zr  Zr43  1  0.50104659  0.50027052  0.90180699  1
  Zr  Zr44  1  0.30095732  0.90387785  0.10631110  1
  Zr  Zr45  1  0.90064773  0.70190241  0.49883496  1
  Zr  Zr46  1  0.50685765  0.70240859  0.09757895  1
  Zr  Zr47  1  0.50303746  0.90239342  0.69475640  1
  Zr  Zr48  1  0.90534211  0.90282413  0.49863822  1
  Zr  Zr49  1  0.49574282  0.90753634  0.89199460  1
  Sc  Sc50  1  0.11921060  0.90382587  0.70095280  1
  Sc  Sc51  1  0.68585615  0.90273016  0.50218610  1
  Sc  Sc52  1  0.30844918  0.09934929  0.10053398  1
  Sc  Sc53  1  0.29613301  0.69789962  0.09507304  1
  Sc  Sc54  1  0.10025255  0.48964457  0.09513384  1
  Sc  Sc55  1  0.49962029  0.29182187  0.70352487  1
  Sc  Sc56  1  0.50790065  0.70186976  0.49980621  1
  Sc  Sc57  1  0.49937568  0.50818614  0.29894716  1
  Sc  Sc58  1  0.69956189  0.10406308  0.89881259  1
  Sc  Sc59  1  0.30087425  0.90231336  0.50252987  1
  Sc  Sc60  1  0.09894334  0.09638468  0.30132432  1
  Sc  Sc61  1  0.69924612  0.89491266  0.89537531  1
  Sc  Sc62  1  0.50510837  0.28737326  0.09822548  1
  Sc  Sc63  1  0.69428982  0.50091740  0.29197273  1
  Sc  Sc64  1  0.89622278  0.29652622  0.90112444  1
  Sc  Sc65  1  0.09588222  0.09897204  0.10007459  1
  Sc  Sc66  1  0.29358293  0.09803141  0.50372195  1
  Sc  Sc67  1  0.50076199  0.29955423  0.90205420  1
  Sc  Sc68  1  0.29748879  0.29384190  0.90227642  1
  Sc  Sc69  1  0.49843627  0.28950288  0.50481559  1
  Sc  Sc70  1  0.69666149  0.69975326  0.69349003  1
  Sc  Sc71  1  0.69863410  0.10214980  0.30301024  1
  Sc  Sc72  1  0.10639380  0.70103953  0.90637345  1
  Sc  Sc73  1  0.69471919  0.48702796  0.89833805  1
  Sc  Sc74  1  0.69734753  0.29259879  0.29043990  1
  Sc  Sc75  1  0.50095463  0.51041815  0.49407977  1
  Sc  Sc76  1  0.49743092  0.29987989  0.29851558  1
  Sc  Sc77  1  0.69116669  0.10785873  0.50139449  1
  Sc  Sc78  1  0.70078351  0.30075308  0.90271950  1
  Sc  Sc79  1  0.50352880  0.70135199  0.70246470  1
  Sc  Sc80  1  0.09253409  0.10598104  0.90572890  1
  Sc  Sc81  1  0.10429185  0.09788269  0.49614339  1
  Sc  Sc82  1  0.89900883  0.49629722  0.90490507  1
  Sc  Sc83  1  0.50358530  0.50581996  0.71646136  1
  Sc  Sc84  1  0.10774761  0.90131416  0.29359852  1
  Sc  Sc85  1  0.29948796  0.09733540  0.69813342  1
  Sc  Sc86  1  0.89334881  0.89717519  0.90171502  1
  Sc  Sc87  1  0.30638888  0.89971258  0.69482137  1
  Sc  Sc88  1  0.69795931  0.70393953  0.89599074  1
  Sc  Sc89  1  0.10374103  0.90918968  0.49781985  1
  Sc  Sc90  1  0.91842538  0.70182849  0.29500891  1
  Sc  Sc91  1  0.49563570  0.70115482  0.30111667  1
  Sc  Sc92  1  0.88992222  0.70480053  0.70046659  1
  Sc  Sc93  1  0.29663251  0.70917942  0.70051398  1
  Sc  Sc94  1  0.50270456  0.09885773  0.30083643  1
  Sc  Sc95  1  0.50106861  0.69198863  0.89590288  1
  Sc  Sc96  1  0.31130244  0.09251170  0.90260024  1
  Sc  Sc97  1  0.90329211  0.90247129  0.29216533  1
  Sc  Sc98  1  0.10244838  0.29938349  0.28829924  1
  Sc  Sc99  1  0.89963565  0.29597533  0.50680855  1
  Nb  Nb100  1  0.29181060  0.70355298  0.30253668  1
  Nb  Nb101  1  0.10557931  0.29975956  0.91436801  1
  Nb  Nb102  1  0.10333076  0.69520272  0.29647581  1
  Nb  Nb103  1  0.10435934  0.49972292  0.70162821  1
  Nb  Nb104  1  0.70158047  0.90052326  0.29725519  1
  Nb  Nb105  1  0.89585222  0.90129552  0.70311649  1
  Nb  Nb106  1  0.49851063  0.09431760  0.09336649  1
  Nb  Nb107  1  0.89878139  0.10342650  0.70087249  1
  Nb  Nb108  1  0.70504671  0.69398951  0.49518230  1
  Nb  Nb109  1  0.90141349  0.70386875  0.09818093  1
  Nb  Nb110  1  0.29760255  0.50196481  0.09790987  1
  Nb  Nb111  1  0.09573310  0.70446934  0.10156919  1
  Nb  Nb112  1  0.49908774  0.90121990  0.10007004  1
  Nb  Nb113  1  0.69855954  0.30322663  0.50206224  1
  Nb  Nb114  1  0.29856878  0.30023887  0.30081269  1
  Nb  Nb115  1  0.69791347  0.30109644  0.09569186  1
  Nb  Nb116  1  0.89729984  0.28788923  0.70124553  1
  Nb  Nb117  1  0.09463095  0.50524077  0.30108140  1
  Nb  Nb118  1  0.49777086  0.09496959  0.49997744  1
  Nb  Nb119  1  0.09879685  0.89474067  0.08878680  1
  Nb  Nb120  1  0.09989725  0.89837121  0.89922312  1
  Nb  Nb121  1  0.10301705  0.29954586  0.08293817  1
  Nb  Nb122  1  0.70113836  0.89267265  0.10922269  1
  Nb  Nb123  1  0.29904487  0.50117156  0.70530344  1
  Nb  Nb124  1  0.89273200  0.89224595  0.09993901  1
  Nb  Nb125  1  0.19574958  -0.00938135  -0.00095810  1
  Nb  Nb126  1  0.20126729  0.40646685  0.60479793  1
  Nb  Nb127  1  0.80485743  0.00171224  0.60147003  1
  Nb  Nb128  1  0.79967486  -0.00323914  0.40320108  1
  Nb  Nb129  1  0.80133998  0.59441818  0.79992773  1
  Nb  Nb130  1  0.79617057  0.80054724  0.39778664  1
  Nb  Nb131  1  0.60536884  0.39756201  0.40667694  1
  Nb  Nb132  1  0.59679850  0.40049728  0.59860615  1
  Nb  Nb133  1  0.40271694  0.80515474  0.00022703  1
  Nb  Nb134  1  0.19410434  0.60192829  0.20235554  1
  Nb  Nb135  1  0.39542828  0.59640265  0.60478521  1
  Nb  Nb136  1  0.60085008  -0.00600857  0.19397682  1
  Nb  Nb137  1  0.80652975  0.60484951  0.19578710  1
  Nb  Nb138  1  -0.00375081  -0.00311233  0.79615033  1
  Nb  Nb139  1  0.39155135  0.40011774  0.19520069  1
  Nb  Nb140  1  0.00216121  0.80629086  0.79663119  1
  Nb  Nb141  1  0.19775767  0.40304215  0.39897326  1
  Nb  Nb142  1  0.39395652  0.19667912  0.39793705  1
  Nb  Nb143  1  0.80128212  0.60272678  0.39135297  1
  Nb  Nb144  1  0.00017389  0.80672279  0.60821056  1
  Nb  Nb145  1  0.39465591  0.40338942  0.00793637  1
  Nb  Nb146  1  0.79269846  -0.00635131  0.01375521  1
  Nb  Nb147  1  0.60068953  -0.00408619  0.00785899  1
  Nb  Nb148  1  0.39981551  0.40722050  0.60410414  1
  Nb  Nb149  1  0.79529540  0.40200900  0.40123253  1
  Pd  Pd150  1  0.40046190  0.61231208  0.40582268  1
  Pd  Pd151  1  0.00861836  0.59781037  0.00294504  1
  Pd  Pd152  1  -0.00464568  -0.00593071  -0.00427321  1
  Pd  Pd153  1  0.20282259  0.19061125  0.80924034  1
  Pd  Pd154  1  -0.00206059  0.19780773  0.80753118  1
  Pd  Pd155  1  0.60318423  0.20312472  0.80372386  1
  Pd  Pd156  1  0.79721639  0.80988947  0.59182702  1
  Pd  Pd157  1  0.00635191  0.38972925  0.60314944  1
  Pd  Pd158  1  0.40665346  0.00424044  0.20734187  1
  Pd  Pd159  1  0.40399530  0.79512591  0.80230845  1
  Pd  Pd160  1  0.79461335  0.00401794  0.20265489  1
  Pd  Pd161  1  0.61094437  0.59980925  -0.00460431  1
  Pd  Pd162  1  0.00270669  -0.00538625  0.60898938  1
  Pd  Pd163  1  0.59205335  0.20505960  0.39823925  1
  Pd  Pd164  1  0.79902841  0.40368127  0.20667820  1
  Pd  Pd165  1  0.00621092  0.39002668  0.40207675  1
  Pd  Pd166  1  0.20669676  0.18132261  -0.00153129  1
  Pd  Pd167  1  0.00282106  0.80683371  0.19869604  1
  Pd  Pd168  1  0.19275609  0.01276281  0.80863292  1
  Pd  Pd169  1  0.79968947  0.40027365  0.59714853  1
  Pd  Pd170  1  0.80060293  0.00285687  0.80317736  1
  Pd  Pd171  1  0.39154368  0.60485439  0.19592564  1
  Pd  Pd172  1  0.40077374  0.39601137  0.80383086  1
  Pd  Pd173  1  0.00662330  0.20491400  0.19265344  1
  Pd  Pd174  1  0.40081589  0.79233343  0.19619665  1
  Pd  Pd175  1  0.60719142  0.60326156  0.19537695  1
  Pd  Pd176  1  0.79831173  0.20062062  0.40535452  1
  Pd  Pd177  1  0.20565255  0.39790733  0.80468267  1
  Pd  Pd178  1  0.40570171  0.39392913  0.39987483  1
  Pd  Pd179  1  0.00892042  0.20455122  0.39811999  1
  Pd  Pd180  1  0.80286151  0.20218675  0.19956335  1
  Pd  Pd181  1  0.40187877  0.20255070  0.20219003  1
  Pd  Pd182  1  0.00511002  0.80533320  0.39957181  1
  Pd  Pd183  1  0.79273958  0.59681545  -0.00312201  1
  Pd  Pd184  1  -0.00412009  0.80050443  -0.00694560  1
  Pd  Pd185  1  0.00567363  -0.00815474  0.19707529  1
  Pd  Pd186  1  0.19645797  0.40805279  0.20540154  1
  Pd  Pd187  1  0.19611092  0.59757984  0.39680824  1
  Pd  Pd188  1  0.39882210  0.19532514  0.80093625  1
  Pd  Pd189  1  -0.00198856  0.39082058  0.81128342  1
  Pd  Pd190  1  -0.01002123  0.60657581  0.60888979  1
  Pd  Pd191  1  -0.00075271  0.40070474  -0.00755521  1
  Pd  Pd192  1  0.19969628  0.79621461  0.19525577  1
  Pd  Pd193  1  0.59002258  0.39506860  0.20269883  1
  Pd  Pd194  1  0.60221389  0.79988113  0.40297419  1
  Pd  Pd195  1  0.19562548  0.80753672  0.40194308  1
  Pd  Pd196  1  0.59327920  0.80710431  -0.00923477  1
  Pd  Pd197  1  0.19290844  0.19387038  0.19584476  1
  Pd  Pd198  1  0.80849548  0.59567140  0.60619074  1
  Pd  Pd199  1  0.60028691  0.79725750  0.59693686  1
  Rh  Rh200  1  0.59163230  0.39291501  0.00304475  1
  Rh  Rh201  1  0.80053880  0.19180305  0.59455747  1
  Rh  Rh202  1  0.20277937  0.00218833  0.59833626  1
  Rh  Rh203  1  0.20522263  0.40764300  -0.01142717  1
  Rh  Rh204  1  0.60126928  0.19736165  -0.00424734  1
  Rh  Rh205  1  0.19307030  0.80413064  0.59833440  1
  Rh  Rh206  1  0.40310520  0.60388479  0.00291522  1
  Rh  Rh207  1  0.79936314  0.19896643  0.00428680  1
  Rh  Rh208  1  0.39715609  -0.00964216  -0.00136184  1
  Rh  Rh209  1  0.80044717  0.80582077  -0.00475174  1
  Rh  Rh210  1  0.58868819  0.80599930  0.20441246  1
  Rh  Rh211  1  0.79901031  0.20293631  0.80197046  1
  Rh  Rh212  1  0.81200085  0.79188273  0.20866420  1
  Rh  Rh213  1  0.20795303  0.59692457  0.60740178  1
  Rh  Rh214  1  0.20778797  0.80468545  0.00546161  1
  Rh  Rh215  1  0.00504605  0.60072990  0.18805168  1
  Rh  Rh216  1  0.80547864  0.39908616  0.80120297  1
  Rh  Rh217  1  -0.00520827  0.20385220  0.00327454  1
  Rh  Rh218  1  0.80378982  0.78917794  0.80503941  1
  Rh  Rh219  1  0.60088234  0.00336121  0.80570264  1
  Rh  Rh220  1  0.39676973  0.79600683  0.40273189  1
  Rh  Rh221  1  0.20293086  -0.00397152  0.39870367  1
  Rh  Rh222  1  -0.00050972  0.60628346  0.40206986  1
  Rh  Rh223  1  0.40086044  0.19556731  0.59466981  1
  Rh  Rh224  1  0.19921185  0.20073015  0.60486928  1
  Rh  Rh225  1  0.20482181  0.60378389  0.79695058  1
  Rh  Rh226  1  0.61255481  0.60209201  0.80187562  1
  Rh  Rh227  1  0.20199122  0.20330509  0.39367975  1
  Rh  Rh228  1  0.19050113  0.59782466  0.00973465  1
  Rh  Rh229  1  0.79938955  0.39500906  -0.00052430  1
  Rh  Rh230  1  0.39734014  0.00359968  0.59910901  1
  Rh  Rh231  1  0.19389227  0.00158561  0.18905556  1
  Rh  Rh232  1  0.39519394  0.60761136  0.79206492  1
  Rh  Rh233  1  0.59777887  0.79993265  0.79810325  1
  Rh  Rh234  1  0.40092359  0.00270176  0.79092649  1
  Rh  Rh235  1  0.60563147  0.59882283  0.39138363  1
  Rh  Rh236  1  0.19060747  0.79320576  0.79786935  1
  Rh  Rh237  1  -0.00881152  0.60551236  0.79579287  1
  Rh  Rh238  1  0.59774521  0.20341980  0.60097903  1
  Rh  Rh239  1  0.58751888  0.59633733  0.60563888  1
  Rh  Rh240  1  0.39508005  0.00948526  0.40025529  1
  Rh  Rh241  1  0.39641664  0.20869348  0.00424070  1
  Rh  Rh242  1  -0.00126625  -0.00021753  0.39051035  1
  Rh  Rh243  1  0.60513671  0.00118222  0.39462889  1
  Rh  Rh244  1  0.60497854  0.00392447  0.60011614  1
  Rh  Rh245  1  0.59829132  0.39111160  0.79284641  1
  Rh  Rh246  1  0.59388203  0.19459276  0.20094965  1
  Rh  Rh247  1  0.00201417  0.20470289  0.60281424  1
  Rh  Rh248  1  0.00891849  0.39479912  0.19382817  1
  Rh  Rh249  1  0.40555149  0.79380538  0.59726502  1
