# generated using pymatgen
data_ZrScNbPdRh
_symmetry_space_group_name_H-M   'P 1'
_cell_length_a   16.54861919
_cell_length_b   16.55503439
_cell_length_c   16.54768295
_cell_angle_alpha   90.01207208
_cell_angle_beta   90.01834599
_cell_angle_gamma   89.98020515
_symmetry_Int_Tables_number   1
_chemical_formula_structural   ZrScNbPdRh
_chemical_formula_sum   'Zr50 Sc50 Nb50 Pd50 Rh50'
_cell_volume   4533.45159529
_cell_formula_units_Z   50
loop_
 _symmetry_equiv_pos_site_id
 _symmetry_equiv_pos_as_xyz
  1  'x, y, z'
loop_
 _atom_site_type_symbol
 _atom_site_label
 _atom_site_symmetry_multiplicity
 _atom_site_fract_x
 _atom_site_fract_y
 _atom_site_fract_z
 _atom_site_occupancy
  Zr  Zr0  1  0.70037201  0.31260672  0.50505829  1
  Zr  Zr1  1  0.50429608  0.90518274  0.09152716  1
  Zr  Zr2  1  0.90497784  0.89265122  0.30581681  1
  Zr  Zr3  1  0.69766179  0.30704611  0.10361387  1
  Zr  Zr4  1  0.10140804  0.49904078  0.70061781  1
  Zr  Zr5  1  0.30111573  0.70751849  0.10600719  1
  Zr  Zr6  1  0.69878298  0.29600759  0.89246373  1
  Zr  Zr7  1  0.69383181  0.10091060  0.30121748  1
  Zr  Zr8  1  0.89157420  0.90730667  0.69860243  1
  Zr  Zr9  1  0.70160513  0.70500212  0.49994270  1
  Zr  Zr10  1  0.69521881  0.89619878  0.30712575  1
  Zr  Zr11  1  0.69692498  0.69861557  0.29328584  1
  Zr  Zr12  1  0.90737830  0.50548613  0.69904724  1
  Zr  Zr13  1  0.10095669  0.30526608  0.90748216  1
  Zr  Zr14  1  0.49758605  0.89843763  0.30717743  1
  Zr  Zr15  1  0.50688864  0.89409095  0.50474269  1
  Zr  Zr16  1  0.49512060  0.30758360  0.09586641  1
  Zr  Zr17  1  0.10500755  0.89588603  0.69981975  1
  Zr  Zr18  1  0.10497607  0.89798390  0.10051697  1
  Zr  Zr19  1  0.90311867  0.70764121  0.49437999  1
  Zr  Zr20  1  0.49918219  0.49656714  0.09701491  1
  Zr  Zr21  1  0.08719737  0.50054369  0.30561301  1
  Zr  Zr22  1  0.49101930  0.09379279  0.90221369  1
  Zr  Zr23  1  0.09164069  0.30152334  0.50572876  1
  Zr  Zr24  1  0.29509374  0.90023340  0.50168390  1
  Zr  Zr25  1  0.90153431  0.89677317  0.10352940  1
  Zr  Zr26  1  0.69376830  0.89869880  0.89933525  1
  Zr  Zr27  1  0.30358854  0.09934993  0.70093836  1
  Zr  Zr28  1  0.70302683  0.10777946  0.49631132  1
  Zr  Zr29  1  0.30536780  0.50014680  0.31231356  1
  Zr  Zr30  1  0.90039791  0.09500691  0.10056882  1
  Zr  Zr31  1  0.29691002  0.10345569  0.31137243  1
  Zr  Zr32  1  0.49939592  0.10204684  0.09954267  1
  Zr  Zr33  1  0.30532845  0.29601051  0.49348084  1
  Zr  Zr34  1  0.70998199  0.50030000  0.68880172  1
  Zr  Zr35  1  0.10295104  0.09834007  0.29478908  1
  Zr  Zr36  1  0.69607818  0.90211493  0.70224550  1
  Zr  Zr37  1  0.69909748  0.49401880  0.29959564  1
  Zr  Zr38  1  0.69536210  0.10340260  0.89219483  1
  Zr  Zr39  1  0.90002850  0.31760713  0.30298005  1
  Zr  Zr40  1  0.50238723  0.50443981  0.29319591  1
  Zr  Zr41  1  0.70572326  0.89828057  0.50967242  1
  Zr  Zr42  1  0.90700875  0.90892313  0.89836269  1
  Zr  Zr43  1  0.90152134  0.30122669  0.09402386  1
  Zr  Zr44  1  0.29351542  0.70377608  0.30356657  1
  Zr  Zr45  1  0.10241848  0.30823315  0.70092063  1
  Zr  Zr46  1  0.09441784  0.09715479  0.89878961  1
  Zr  Zr47  1  0.50436713  0.30083081  0.50976107  1
  Zr  Zr48  1  0.69223012  0.09435930  0.10363649  1
  Zr  Zr49  1  0.29708489  0.89133211  0.29495853  1
  Sc  Sc50  1  0.70254919  0.30041473  0.31099593  1
  Sc  Sc51  1  0.10497828  0.69936295  0.69586283  1
  Sc  Sc52  1  0.09988627  0.70204713  0.50058358  1
  Sc  Sc53  1  0.30893386  0.70201321  0.69712555  1
  Sc  Sc54  1  0.90618419  0.09987389  0.49757775  1
  Sc  Sc55  1  0.69684125  0.49951213  0.10363727  1
  Sc  Sc56  1  0.70133316  0.69887961  0.70861890  1
  Sc  Sc57  1  0.49552546  0.30345045  0.29921285  1
  Sc  Sc58  1  0.29839248  0.29531090  0.29840270  1
  Sc  Sc59  1  0.30038440  0.70349220  0.89825182  1
  Sc  Sc60  1  0.70006842  0.70231923  0.90078845  1
  Sc  Sc61  1  0.69503405  0.88894991  0.10009980  1
  Sc  Sc62  1  0.69167857  0.29867831  0.69821554  1
  Sc  Sc63  1  0.50042079  0.69586350  0.88624104  1
  Sc  Sc64  1  0.89953207  0.69636653  0.90675821  1
  Sc  Sc65  1  0.89972056  0.49888277  0.50600014  1
  Sc  Sc66  1  0.49811193  0.70337302  0.50326847  1
  Sc  Sc67  1  0.29475806  0.30281557  0.70791035  1
  Sc  Sc68  1  0.30582600  0.10696033  0.09443785  1
  Sc  Sc69  1  0.50449347  0.89974092  0.89539488  1
  Sc  Sc70  1  0.91038170  0.30442170  0.68701561  1
  Sc  Sc71  1  0.90143565  0.69196879  0.70338589  1
  Sc  Sc72  1  0.10746984  0.70107389  0.09011181  1
  Sc  Sc73  1  0.50170712  0.89293605  0.69894031  1
  Sc  Sc74  1  0.49539486  0.50620596  0.71702986  1
  Sc  Sc75  1  0.49154260  0.09892829  0.50017308  1
  Sc  Sc76  1  0.90774137  0.51004092  0.90150098  1
  Sc  Sc77  1  0.10027222  0.50664358  0.51162504  1
  Sc  Sc78  1  0.29552516  0.69568015  0.50430649  1
  Sc  Sc79  1  0.30465935  0.49964984  0.09070104  1
  Sc  Sc80  1  0.70277594  0.09902684  0.70371049  1
  Sc  Sc81  1  0.10517188  0.70208797  0.90081616  1
  Sc  Sc82  1  0.49806531  0.49754608  0.49153581  1
  Sc  Sc83  1  0.30082305  0.88931226  0.69692811  1
  Sc  Sc84  1  0.90330366  0.08792630  0.29947598  1
  Sc  Sc85  1  0.10463651  0.49012622  0.09451407  1
  Sc  Sc86  1  0.10238120  0.90038422  0.30112279  1
  Sc  Sc87  1  0.10142491  0.50262938  0.90120851  1
  Sc  Sc88  1  0.30825748  0.89443041  0.89576934  1
  Sc  Sc89  1  0.49966919  0.10298960  0.70312685  1
  Sc  Sc90  1  0.10343953  0.09459662  0.49063695  1
  Sc  Sc91  1  0.09387869  0.10327916  0.69398962  1
  Sc  Sc92  1  0.89239048  0.10255231  0.89421442  1
  Sc  Sc93  1  0.69430643  0.50504434  0.89824590  1
  Sc  Sc94  1  0.29624100  0.29944201  0.90007582  1
  Sc  Sc95  1  0.29296562  0.30270209  0.09831671  1
  Sc  Sc96  1  0.89707558  0.50616517  0.10353116  1
  Sc  Sc97  1  0.10778508  0.30479020  0.29450742  1
  Sc  Sc98  1  0.89752553  0.09931674  0.70156466  1
  Sc  Sc99  1  0.49519729  0.69979378  0.29738802  1
  Nb  Nb100  1  0.50301719  0.30423915  0.70235554  1
  Nb  Nb101  1  0.09968252  0.10246635  0.10141459  1
  Nb  Nb102  1  0.29609295  0.10302771  0.50185478  1
  Nb  Nb103  1  0.09416001  0.69351681  0.30431684  1
  Nb  Nb104  1  0.90524528  0.68912517  0.29838296  1
  Nb  Nb105  1  0.29896365  0.49693443  0.50927891  1
  Nb  Nb106  1  0.10267829  0.29376036  0.09866873  1
  Nb  Nb107  1  0.49632286  0.49670596  0.90527915  1
  Nb  Nb108  1  0.31002913  0.50072345  0.89389643  1
  Nb  Nb109  1  0.50227042  0.69952508  0.69886649  1
  Nb  Nb110  1  0.69854167  0.69762208  0.09343566  1
  Nb  Nb111  1  0.89473922  0.29570814  0.89856190  1
  Nb  Nb112  1  0.50765487  0.31420070  0.89607401  1
  Nb  Nb113  1  0.10324647  0.89888097  0.89949819  1
  Nb  Nb114  1  0.09299939  0.89434512  0.50016978  1
  Nb  Nb115  1  0.89909083  0.29612833  0.49540618  1
  Nb  Nb116  1  0.50278318  0.69904372  0.10170172  1
  Nb  Nb117  1  0.50204409  0.09266015  0.29266869  1
  Nb  Nb118  1  0.69696559  0.50380383  0.50410622  1
  Nb  Nb119  1  0.29450869  0.49913520  0.69613020  1
  Nb  Nb120  1  0.90215068  0.50859682  0.30169544  1
  Nb  Nb121  1  0.29935950  0.09323213  0.89697021  1
  Nb  Nb122  1  0.90026177  0.89626031  0.49791616  1
  Nb  Nb123  1  0.30033860  0.89564769  0.10290688  1
  Nb  Nb124  1  0.88772237  0.69840993  0.10309201  1
  Nb  Nb125  1  0.40525859  0.79758306  0.00592054  1
  Nb  Nb126  1  0.00004842  0.20830848  0.80276984  1
  Nb  Nb127  1  0.00233425  0.80645318  0.80275803  1
  Nb  Nb128  1  0.80528837  0.20145967  0.20307121  1
  Nb  Nb129  1  0.20816407  0.59411105  0.79635040  1
  Nb  Nb130  1  0.80006710  -0.00714265  0.40542404  1
  Nb  Nb131  1  0.20025064  -0.00034097  0.80412841  1
  Nb  Nb132  1  0.40055429  0.00027771  0.20280555  1
  Nb  Nb133  1  0.20141030  0.40405696  0.40690597  1
  Nb  Nb134  1  0.19821523  0.59946950  0.20702931  1
  Nb  Nb135  1  0.79611987  -0.00150159  0.00051681  1
  Nb  Nb136  1  -0.00045401  -0.01015650  0.59400066  1
  Nb  Nb137  1  0.59405921  0.20626745  -0.00369635  1
  Nb  Nb138  1  0.80638213  0.39723841  0.80124154  1
  Nb  Nb139  1  -0.00151592  0.20554481  0.39202222  1
  Nb  Nb140  1  0.59280952  0.60119476  0.00220476  1
  Nb  Nb141  1  0.80129202  0.59834610  0.39639772  1
  Nb  Nb142  1  0.00082274  0.20245247  0.19655058  1
  Nb  Nb143  1  0.20408143  0.19802329  0.59477785  1
  Nb  Nb144  1  0.20271458  -0.00069122  -0.00393296  1
  Nb  Nb145  1  -0.00367297  0.78561827  0.19976437  1
  Nb  Nb146  1  0.80039996  0.39786053  -0.00825415  1
  Nb  Nb147  1  0.80299952  0.20505254  0.59166324  1
  Nb  Nb148  1  0.39934037  0.40171276  0.60575609  1
  Nb  Nb149  1  0.59970061  0.59831171  0.60182359  1
  Pd  Pd150  1  0.39574436  0.79482751  0.40943299  1
  Pd  Pd151  1  0.40345943  0.21077368  -0.01101830  1
  Pd  Pd152  1  -0.00558595  0.40497784  -0.00140722  1
  Pd  Pd153  1  -0.00517670  0.39824080  0.80712342  1
  Pd  Pd154  1  0.21128753  0.00870203  0.19123423  1
  Pd  Pd155  1  0.39201082  0.59787802  0.19928607  1
  Pd  Pd156  1  0.80106833  0.80466220  -0.00539638  1
  Pd  Pd157  1  0.19983563  -0.00793656  0.40113288  1
  Pd  Pd158  1  0.20502565  0.40941843  0.20548206  1
  Pd  Pd159  1  0.00170694  0.00099336  0.00461943  1
  Pd  Pd160  1  0.20662179  0.59608321  -0.00358556  1
  Pd  Pd161  1  0.80240277  0.79200539  0.61135465  1
  Pd  Pd162  1  0.60211892  0.21033570  0.20037483  1
  Pd  Pd163  1  -0.00413419  0.79956130  0.61030331  1
  Pd  Pd164  1  0.79936208  0.59482449  0.80705646  1
  Pd  Pd165  1  0.60880660  0.41100994  0.79285057  1
  Pd  Pd166  1  0.39662448  -0.00037469  0.39943505  1
  Pd  Pd167  1  0.59445865  0.80077829  0.19992899  1
  Pd  Pd168  1  0.39625990  0.39589659  0.79727701  1
  Pd  Pd169  1  0.19498563  0.00347854  0.60442969  1
  Pd  Pd170  1  0.39588202  0.19636891  0.20414896  1
  Pd  Pd171  1  0.79351539  -0.00237659  0.20327286  1
  Pd  Pd172  1  0.39702995  -0.01030746  0.79053731  1
  Pd  Pd173  1  0.40148233  0.60608032  0.40697456  1
  Pd  Pd174  1  0.39096666  0.40145591  0.19960371  1
  Pd  Pd175  1  0.40232676  -0.00534862  0.60259933  1
  Pd  Pd176  1  0.40839174  0.59327033  0.60094209  1
  Pd  Pd177  1  0.20264414  0.19356868  -0.00027732  1
  Pd  Pd178  1  0.80232621  0.79759415  0.20503315  1
  Pd  Pd179  1  0.78951049  0.19738300  0.00767377  1
  Pd  Pd180  1  0.60160021  0.60586153  0.40534690  1
  Pd  Pd181  1  -0.00111115  0.19615542  -0.00254895  1
  Pd  Pd182  1  0.59451418  0.39851529  0.39772644  1
  Pd  Pd183  1  0.80219864  0.41254986  0.40722804  1
  Pd  Pd184  1  -0.00278119  0.79338522  0.00063550  1
  Pd  Pd185  1  0.40428295  0.60945910  -0.00475530  1
  Pd  Pd186  1  0.01058198  0.60297244  0.18402047  1
  Pd  Pd187  1  0.00093423  0.39910048  0.19229275  1
  Pd  Pd188  1  0.60282458  0.00151809  0.40883317  1
  Pd  Pd189  1  0.40390428  0.20785637  0.80559839  1
  Pd  Pd190  1  0.79385018  0.59477590  0.20110692  1
  Pd  Pd191  1  0.19513393  0.59460696  0.40203387  1
  Pd  Pd192  1  0.19302403  0.19342863  0.79505154  1
  Pd  Pd193  1  0.58882717  0.20324830  0.39942682  1
  Pd  Pd194  1  0.80868036  0.79860071  0.80433822  1
  Pd  Pd195  1  0.39550913  0.20788632  0.60786695  1
  Pd  Pd196  1  0.60437419  0.19307472  0.60365291  1
  Pd  Pd197  1  0.59650365  0.00875333  0.60184221  1
  Pd  Pd198  1  0.00185164  0.60375578  0.00684339  1
  Pd  Pd199  1  0.41052085  0.19820848  0.39533408  1
  Rh  Rh200  1  0.19346297  0.80011886  0.40301430  1
  Rh  Rh201  1  0.79712980  0.60736974  0.59053385  1
  Rh  Rh202  1  0.81250803  0.21337131  0.77863535  1
  Rh  Rh203  1  0.59913707  0.79806546  0.79734734  1
  Rh  Rh204  1  0.00890648  -0.00007249  0.78790783  1
  Rh  Rh205  1  0.00690648  -0.00537392  0.19652067  1
  Rh  Rh206  1  0.19622023  0.79683734  0.80102043  1
  Rh  Rh207  1  0.59412402  -0.01132156  0.20270871  1
  Rh  Rh208  1  0.20501539  0.40230196  -0.00340118  1
  Rh  Rh209  1  0.18374786  0.78755746  0.20565714  1
  Rh  Rh210  1  0.21233077  0.80761290  -0.00657479  1
  Rh  Rh211  1  0.00466714  0.40124301  0.40693013  1
  Rh  Rh212  1  0.60301874  0.78937089  0.60795965  1
  Rh  Rh213  1  0.00706996  0.79741789  0.39338943  1
  Rh  Rh214  1  0.20870348  0.38886898  0.59223650  1
  Rh  Rh215  1  -0.00011933  0.60502378  0.59905977  1
  Rh  Rh216  1  0.01412459  0.61121934  0.80069477  1
  Rh  Rh217  1  0.41162876  0.80919739  0.19354411  1
  Rh  Rh218  1  0.20191403  0.60471953  0.60725508  1
  Rh  Rh219  1  0.80233221  0.40009772  0.19553305  1
  Rh  Rh220  1  0.80028713  0.79538531  0.39119827  1
  Rh  Rh221  1  0.60701802  0.00772704  -0.00695335  1
  Rh  Rh222  1  0.00046034  0.19093031  0.59510487  1
  Rh  Rh223  1  0.19835460  0.19656846  0.19367770  1
  Rh  Rh224  1  0.79054852  0.59486854  0.00241497  1
  Rh  Rh225  1  0.38895109  -0.00993034  0.00723479  1
  Rh  Rh226  1  0.60139851  0.59989394  0.19195316  1
  Rh  Rh227  1  0.58506724  0.19805954  0.80452618  1
  Rh  Rh228  1  0.18941950  0.21041072  0.40814139  1
  Rh  Rh229  1  0.59228096  0.78600797  -0.00536527  1
  Rh  Rh230  1  0.20274992  0.41075775  0.81090720  1
  Rh  Rh231  1  0.20307726  0.79639179  0.59310399  1
  Rh  Rh232  1  0.59570822  0.79341280  0.39976578  1
  Rh  Rh233  1  0.58592121  0.41451864  0.60799516  1
  Rh  Rh234  1  0.39326606  0.60277809  0.79811639  1
  Rh  Rh235  1  0.79300570  -0.00114863  0.80887041  1
  Rh  Rh236  1  0.40117619  0.80089728  0.59736716  1
  Rh  Rh237  1  0.80619328  0.39443434  0.60250401  1
  Rh  Rh238  1  -0.00353448  0.40835287  0.59474682  1
  Rh  Rh239  1  0.80676232  0.01167315  0.58983484  1
  Rh  Rh240  1  0.39790970  0.39857974  0.40492080  1
  Rh  Rh241  1  -0.00668886  0.59684550  0.41185898  1
  Rh  Rh242  1  -0.00183781  -0.00018531  0.40578799  1
  Rh  Rh243  1  0.60690809  0.40335441  -0.00347462  1
  Rh  Rh244  1  0.40603598  0.79719586  0.80178893  1
  Rh  Rh245  1  0.39342008  0.39582681  -0.00548984  1
  Rh  Rh246  1  0.59537849  0.00010136  0.79508299  1
  Rh  Rh247  1  0.59779460  0.39702461  0.20798326  1
  Rh  Rh248  1  0.60142648  0.59828345  0.80001611  1
  Rh  Rh249  1  0.81046746  0.18988183  0.39515884  1
