# generated using pymatgen
data_ZrScNbPdRh
_symmetry_space_group_name_H-M   'P 1'
_cell_length_a   16.55475251
_cell_length_b   16.55539726
_cell_length_c   16.55403558
_cell_angle_alpha   90.01125643
_cell_angle_beta   90.01214801
_cell_angle_gamma   90.00827293
_symmetry_Int_Tables_number   1
_chemical_formula_structural   ZrScNbPdRh
_chemical_formula_sum   'Zr50 Sc50 Nb50 Pd50 Rh50'
_cell_volume   4536.97264630
_cell_formula_units_Z   50
loop_
 _symmetry_equiv_pos_site_id
 _symmetry_equiv_pos_as_xyz
  1  'x, y, z'
loop_
 _atom_site_type_symbol
 _atom_site_label
 _atom_site_symmetry_multiplicity
 _atom_site_fract_x
 _atom_site_fract_y
 _atom_site_fract_z
 _atom_site_occupancy
  Zr  Zr0  1  0.70323961  0.30893833  0.70425437  1
  Zr  Zr1  1  0.08564183  0.09603613  0.31052391  1
  Zr  Zr2  1  0.31133693  0.09895367  0.09514010  1
  Zr  Zr3  1  0.30165636  0.29671320  0.30021037  1
  Zr  Zr4  1  0.09760582  0.89946775  0.89179873  1
  Zr  Zr5  1  0.49868340  0.10138982  0.69997497  1
  Zr  Zr6  1  0.09482514  0.49884996  0.70144776  1
  Zr  Zr7  1  0.89980945  0.10358686  0.68832966  1
  Zr  Zr8  1  0.49172423  0.69967512  0.30046630  1
  Zr  Zr9  1  0.49896169  0.91066765  0.09571257  1
  Zr  Zr10  1  0.50044825  0.30716635  0.30703424  1
  Zr  Zr11  1  0.69376021  0.50241905  0.89422781  1
  Zr  Zr12  1  0.29983681  0.50003429  0.49972645  1
  Zr  Zr13  1  0.49848667  0.90291066  0.89553983  1
  Zr  Zr14  1  0.70698386  0.10470100  0.10203643  1
  Zr  Zr15  1  0.09516722  0.29901074  0.89543587  1
  Zr  Zr16  1  0.09006460  0.89051676  0.29901428  1
  Zr  Zr17  1  0.30095017  0.69659452  0.10776525  1
  Zr  Zr18  1  0.69281127  0.89413902  0.49971718  1
  Zr  Zr19  1  0.69673781  0.50631246  0.09731809  1
  Zr  Zr20  1  0.30392594  0.70064742  0.50014359  1
  Zr  Zr21  1  0.50216796  0.70159802  0.50119379  1
  Zr  Zr22  1  0.69475470  0.30129699  0.50767886  1
  Zr  Zr23  1  0.29472710  0.69436188  0.89879833  1
  Zr  Zr24  1  0.70160285  0.49339242  0.30150232  1
  Zr  Zr25  1  0.89713705  0.30299718  0.69862503  1
  Zr  Zr26  1  0.29819081  0.89683900  0.49776219  1
  Zr  Zr27  1  0.10500990  0.69371948  0.10752593  1
  Zr  Zr28  1  0.49915035  0.69597646  0.89460434  1
  Zr  Zr29  1  0.50146746  0.50282416  0.29675025  1
  Zr  Zr30  1  0.89821111  0.29646505  0.30548183  1
  Zr  Zr31  1  0.50338883  0.10310966  0.50262819  1
  Zr  Zr32  1  0.49628651  0.50609439  0.50292049  1
  Zr  Zr33  1  0.09591099  0.50980516  0.89903003  1
  Zr  Zr34  1  0.90666776  0.10359154  0.49626272  1
  Zr  Zr35  1  0.29680503  0.30032095  0.49130448  1
  Zr  Zr36  1  0.29760648  0.09904105  0.49153283  1
  Zr  Zr37  1  0.10087862  0.28850268  0.29574854  1
  Zr  Zr38  1  0.30259104  0.28842510  0.70927612  1
  Zr  Zr39  1  0.90257089  0.70096290  0.89385967  1
  Zr  Zr40  1  0.70634041  0.29654741  0.30026962  1
  Zr  Zr41  1  0.08879618  0.90466694  0.10898305  1
  Zr  Zr42  1  0.89582686  0.49861020  0.30540503  1
  Zr  Zr43  1  0.89769179  0.70292239  0.70172209  1
  Zr  Zr44  1  0.09598350  0.49967509  0.09490023  1
  Zr  Zr45  1  0.09008632  0.50349329  0.30056603  1
  Zr  Zr46  1  0.49925170  0.09351937  0.91394450  1
  Zr  Zr47  1  0.09345886  0.30343181  0.69553806  1
  Zr  Zr48  1  0.89594087  0.10036603  0.90359620  1
  Zr  Zr49  1  0.10089200  0.49543917  0.50463241  1
  Sc  Sc50  1  0.30511119  0.50658800  0.90033929  1
  Sc  Sc51  1  0.70543967  0.11004633  0.90519482  1
  Sc  Sc52  1  0.31243865  0.49273897  0.30154768  1
  Sc  Sc53  1  0.50376262  0.49958612  0.90044262  1
  Sc  Sc54  1  0.90003559  0.29818108  0.50626594  1
  Sc  Sc55  1  0.29981230  0.10166276  0.89306653  1
  Sc  Sc56  1  0.50479895  0.50234495  0.70591104  1
  Sc  Sc57  1  0.29814431  0.50740127  0.69885354  1
  Sc  Sc58  1  0.69421555  0.90268417  0.89916875  1
  Sc  Sc59  1  0.69604206  0.70007790  0.09890953  1
  Sc  Sc60  1  0.50670863  0.69468978  0.10514704  1
  Sc  Sc61  1  0.70330037  0.89478187  0.10721360  1
  Sc  Sc62  1  0.30863327  0.89769333  0.30498800  1
  Sc  Sc63  1  0.90181766  0.89543470  0.50636591  1
  Sc  Sc64  1  0.88990741  0.29566998  0.89538448  1
  Sc  Sc65  1  0.90036214  0.49872262  0.09689913  1
  Sc  Sc66  1  0.90331663  0.50077615  0.69733453  1
  Sc  Sc67  1  0.89706930  0.69615124  0.10072736  1
  Sc  Sc68  1  0.50298310  0.50089211  0.10321236  1
  Sc  Sc69  1  0.31216293  0.29490721  0.90168924  1
  Sc  Sc70  1  0.69911095  0.10437174  0.69333755  1
  Sc  Sc71  1  0.70170923  0.89445151  0.29916421  1
  Sc  Sc72  1  0.30622441  0.50115273  0.10098043  1
  Sc  Sc73  1  0.49937189  0.68923806  0.69574377  1
  Sc  Sc74  1  0.89954650  0.88790513  0.28846100  1
  Sc  Sc75  1  0.69918032  0.10183199  0.50368859  1
  Sc  Sc76  1  0.70480930  0.70771166  0.29815766  1
  Sc  Sc77  1  0.50298236  0.30193149  0.09047308  1
  Sc  Sc78  1  0.70610186  0.50032088  0.50672525  1
  Sc  Sc79  1  0.90172326  0.50431655  0.49713946  1
  Sc  Sc80  1  0.90639758  0.90489061  0.89535422  1
  Sc  Sc81  1  0.09932084  0.89847867  0.50108791  1
  Sc  Sc82  1  0.10077719  0.09142425  0.88955902  1
  Sc  Sc83  1  0.29126696  0.10213820  0.30101375  1
  Sc  Sc84  1  0.69867288  0.29799140  0.10124017  1
  Sc  Sc85  1  0.90161241  0.30459428  0.10171305  1
  Sc  Sc86  1  0.29943238  0.69870570  0.70038134  1
  Sc  Sc87  1  0.70208476  0.69788518  0.69443019  1
  Sc  Sc88  1  0.70096292  0.90212586  0.69096181  1
  Sc  Sc89  1  0.10189061  0.70272906  0.70042052  1
  Sc  Sc90  1  0.28819275  0.89816723  0.70154149  1
  Sc  Sc91  1  0.30310150  0.90401012  0.11193155  1
  Sc  Sc92  1  0.50112702  0.10233796  0.31401982  1
  Sc  Sc93  1  0.90241896  0.51271902  0.89720092  1
  Sc  Sc94  1  0.10006105  0.09874512  0.12084297  1
  Sc  Sc95  1  0.90373303  0.89179168  0.69733753  1
  Sc  Sc96  1  0.89766926  0.69912909  0.49908725  1
  Sc  Sc97  1  0.30037628  0.90162131  0.89185984  1
  Sc  Sc98  1  0.70328593  0.69242552  0.89662982  1
  Sc  Sc99  1  0.30866785  0.29905403  0.09942893  1
  Nb  Nb100  1  0.70969287  0.10425249  0.29729908  1
  Nb  Nb101  1  0.49960458  0.90588365  0.49748239  1
  Nb  Nb102  1  0.90554849  0.69483191  0.30503122  1
  Nb  Nb103  1  0.69936380  0.30387144  0.90000498  1
  Nb  Nb104  1  0.10259000  0.70369248  0.49077066  1
  Nb  Nb105  1  0.50697892  0.30614074  0.89501309  1
  Nb  Nb106  1  0.49943882  0.29782349  0.69961818  1
  Nb  Nb107  1  0.29957492  0.69825650  0.30188438  1
  Nb  Nb108  1  0.69996692  0.50314789  0.70199745  1
  Nb  Nb109  1  0.49881235  0.29646167  0.50635186  1
  Nb  Nb110  1  0.29235308  0.10041686  0.69796851  1
  Nb  Nb111  1  0.90225099  0.89979685  0.09507723  1
  Nb  Nb112  1  0.09952339  0.29876191  0.09787052  1
  Nb  Nb113  1  0.90155374  0.08517939  0.09599321  1
  Nb  Nb114  1  0.69979286  0.69819275  0.49773724  1
  Nb  Nb115  1  0.50191847  0.90559622  0.69760242  1
  Nb  Nb116  1  0.50196173  0.90401036  0.30937201  1
  Nb  Nb117  1  0.09332678  0.09930493  0.50450844  1
  Nb  Nb118  1  0.50168168  0.09976689  0.10207646  1
  Nb  Nb119  1  0.10348525  0.09767986  0.69666293  1
  Nb  Nb120  1  0.09933016  0.69740424  0.90590788  1
  Nb  Nb121  1  0.09998499  0.90550494  0.69943167  1
  Nb  Nb122  1  0.89160629  0.10468516  0.30278459  1
  Nb  Nb123  1  0.09545304  0.69887897  0.30178910  1
  Nb  Nb124  1  0.10206640  0.29847861  0.49973830  1
  Nb  Nb125  1  0.39691414  0.79874607  -0.00026425  1
  Nb  Nb126  1  0.80178670  0.00423749  0.79645935  1
  Nb  Nb127  1  0.40357794  0.39033868  0.60235483  1
  Nb  Nb128  1  0.80803194  0.80256602  -0.00170466  1
  Nb  Nb129  1  0.19273495  0.19875746  0.00327812  1
  Nb  Nb130  1  0.59354880  0.80364485  0.79432270  1
  Nb  Nb131  1  0.19883873  0.80215746  0.00331096  1
  Nb  Nb132  1  0.00252288  0.19281679  0.00110475  1
  Nb  Nb133  1  0.79212541  0.40252289  -0.00579372  1
  Nb  Nb134  1  -0.00194209  0.19572755  0.79598398  1
  Nb  Nb135  1  0.60548436  0.60403363  0.40204846  1
  Nb  Nb136  1  0.40872056  0.19643990  0.19939934  1
  Nb  Nb137  1  0.19416964  0.39525659  0.19414193  1
  Nb  Nb138  1  0.19735449  0.60527213  0.39504830  1
  Nb  Nb139  1  0.39837846  -0.00098595  0.60057188  1
  Nb  Nb140  1  0.19485790  0.19525282  0.59867026  1
  Nb  Nb141  1  0.80030747  0.59787794  0.20740208  1
  Nb  Nb142  1  0.19685532  0.39609166  -0.00131329  1
  Nb  Nb143  1  0.19673812  -0.00058702  0.00334066  1
  Nb  Nb144  1  0.80057001  0.00360319  0.39469231  1
  Nb  Nb145  1  0.40657285  0.81062081  0.60022696  1
  Nb  Nb146  1  0.00330240  0.79946042  0.00090698  1
  Nb  Nb147  1  0.19920835  0.39926695  0.80465717  1
  Nb  Nb148  1  0.59971561  0.00762353  0.20523430  1
  Nb  Nb149  1  0.59722325  0.20781848  0.80339270  1
  Pd  Pd150  1  0.40659024  0.60385531  0.00481048  1
  Pd  Pd151  1  0.59720657  0.79472355  0.39493612  1
  Pd  Pd152  1  0.19582917  0.79547143  0.80125347  1
  Pd  Pd153  1  0.59338828  0.19764795  0.20545354  1
  Pd  Pd154  1  0.61092270  0.00488595  0.79664836  1
  Pd  Pd155  1  -0.01288423  0.19397911  0.19253646  1
  Pd  Pd156  1  0.00008954  0.39820479  0.20238727  1
  Pd  Pd157  1  0.20156448  0.80500192  0.20311712  1
  Pd  Pd158  1  0.79274307  -0.00963337  -0.00589426  1
  Pd  Pd159  1  0.81046289  0.20308997  0.19041361  1
  Pd  Pd160  1  0.61406630  0.00037505  0.00915995  1
  Pd  Pd161  1  0.59392410  0.40638142  0.60512043  1
  Pd  Pd162  1  0.39282437  0.00345687  0.79354376  1
  Pd  Pd163  1  0.19620560  0.60727539  0.59488361  1
  Pd  Pd164  1  0.59846676  0.40701768  0.40895868  1
  Pd  Pd165  1  0.80692259  0.80494422  0.40338630  1
  Pd  Pd166  1  0.60657864  0.20044741  0.40001977  1
  Pd  Pd167  1  0.19546424  0.40734632  0.38671312  1
  Pd  Pd168  1  -0.00008434  0.39189426  0.40502056  1
  Pd  Pd169  1  0.59654287  0.79703290  0.60721584  1
  Pd  Pd170  1  0.40346529  0.79685874  0.79364113  1
  Pd  Pd171  1  0.41093384  0.19239424  0.81020901  1
  Pd  Pd172  1  0.20018106  0.79808317  0.39363777  1
  Pd  Pd173  1  0.39092294  0.19728355  0.59588863  1
  Pd  Pd174  1  0.21126437  0.39149670  0.61109671  1
  Pd  Pd175  1  0.20812097  0.58583245  0.21082464  1
  Pd  Pd176  1  0.20129078  -0.00226866  0.20599578  1
  Pd  Pd177  1  0.78979125  0.80915041  0.80344025  1
  Pd  Pd178  1  0.60061202  0.79552981  -0.00768837  1
  Pd  Pd179  1  -0.01344562  -0.01267067  0.39771001  1
  Pd  Pd180  1  0.19990430  0.00050146  0.59636089  1
  Pd  Pd181  1  0.00144898  0.60683270  0.59661234  1
  Pd  Pd182  1  0.40783115  0.80251901  0.19573301  1
  Pd  Pd183  1  0.59198063  0.80744568  0.20278579  1
  Pd  Pd184  1  0.80676508  0.41161549  0.80571004  1
  Pd  Pd185  1  0.00804689  0.79617105  0.59840641  1
  Pd  Pd186  1  0.80111806  -0.00327119  0.59552106  1
  Pd  Pd187  1  -0.00860159  0.00431849  0.78742073  1
  Pd  Pd188  1  0.59975531  0.39508307  0.19383538  1
  Pd  Pd189  1  0.19312160  -0.00486535  0.39522547  1
  Pd  Pd190  1  0.59914582  0.20293994  -0.00420597  1
  Pd  Pd191  1  0.79988801  -0.00545059  0.20492967  1
  Pd  Pd192  1  0.40802661  0.00893660  0.21445129  1
  Pd  Pd193  1  -0.00872893  0.39418530  -0.01007098  1
  Pd  Pd194  1  0.39924552  0.40253121  -0.00116730  1
  Pd  Pd195  1  -0.00997688  0.60059163  0.19678948  1
  Pd  Pd196  1  0.39625229  0.40818563  0.79510115  1
  Pd  Pd197  1  0.61182488  0.00419650  0.39522781  1
  Pd  Pd198  1  0.80145870  0.39536346  0.41230980  1
  Pd  Pd199  1  0.80183978  0.59970803  0.60157278  1
  Rh  Rh200  1  0.18809569  0.19402882  0.40762702  1
  Rh  Rh201  1  0.00287460  -0.00627947  0.60172617  1
  Rh  Rh202  1  0.79636197  0.79733191  0.59486684  1
  Rh  Rh203  1  0.39974905  0.59612496  0.79771054  1
  Rh  Rh204  1  0.40780088  0.39814545  0.41071843  1
  Rh  Rh205  1  0.59518156  0.60184458  -0.00370148  1
  Rh  Rh206  1  0.80619250  0.78951183  0.19195587  1
  Rh  Rh207  1  0.79894357  0.60039333  0.00640419  1
  Rh  Rh208  1  -0.00458909  0.78874061  0.19409470  1
  Rh  Rh209  1  -0.00266067  0.39762185  0.80258150  1
  Rh  Rh210  1  0.19694768  0.59578403  0.79983345  1
  Rh  Rh211  1  0.00644341  0.79675567  0.79970612  1
  Rh  Rh212  1  0.60296488  0.20388167  0.60891813  1
  Rh  Rh213  1  0.40341197  0.80146567  0.40359591  1
  Rh  Rh214  1  0.40276012  0.20102561  0.39539492  1
  Rh  Rh215  1  0.20262885  0.59678854  0.00067407  1
  Rh  Rh216  1  0.39745383  0.60087914  0.39647539  1
  Rh  Rh217  1  0.80290633  0.40603458  0.60091484  1
  Rh  Rh218  1  0.60796798  0.59634424  0.59588502  1
  Rh  Rh219  1  0.79566711  0.19355690  0.79319124  1
  Rh  Rh220  1  0.00600850  0.60343518  0.40794476  1
  Rh  Rh221  1  0.00133018  0.20659066  0.40414243  1
  Rh  Rh222  1  0.40531707  0.20169390  -0.00079852  1
  Rh  Rh223  1  0.79482331  0.20479440  0.59668845  1
  Rh  Rh224  1  0.40087663  0.39154237  0.19666459  1
  Rh  Rh225  1  0.19107024  0.20239614  0.79798144  1
  Rh  Rh226  1  -0.00512239  0.79755496  0.40157691  1
  Rh  Rh227  1  0.39807752  0.59731339  0.20095281  1
  Rh  Rh228  1  0.79455038  0.19870693  0.40970985  1
  Rh  Rh229  1  0.79758815  0.40654302  0.18884029  1
  Rh  Rh230  1  0.59657935  0.00204005  0.59795924  1
  Rh  Rh231  1  -0.00209291  0.60853258  0.00389227  1
  Rh  Rh232  1  0.60361000  0.60729873  0.79566652  1
  Rh  Rh233  1  0.59822558  0.39806431  0.79557777  1
  Rh  Rh234  1  0.00640088  0.20178590  0.60103789  1
  Rh  Rh235  1  0.38763183  -0.01022983  -0.00449567  1
  Rh  Rh236  1  -0.00602457  0.40227926  0.59231075  1
  Rh  Rh237  1  0.60483868  0.40279299  0.00046447  1
  Rh  Rh238  1  0.01054011  0.00254075  0.00358743  1
  Rh  Rh239  1  0.39750083  0.59887506  0.60405541  1
  Rh  Rh240  1  0.79988426  0.59734464  0.79115088  1
  Rh  Rh241  1  0.80894631  0.21005048  0.00901412  1
  Rh  Rh242  1  0.00181912  0.60773751  0.79162701  1
  Rh  Rh243  1  0.21340209  0.20535787  0.19118540  1
  Rh  Rh244  1  -0.01454457  0.00478406  0.21091621  1
  Rh  Rh245  1  0.20288806  0.00020753  0.80111700  1
  Rh  Rh246  1  0.79285587  0.60493374  0.39430779  1
  Rh  Rh247  1  0.20040528  0.79926500  0.60184895  1
  Rh  Rh248  1  0.39957361  0.00241120  0.40313253  1
  Rh  Rh249  1  0.61024694  0.60221762  0.21249832  1
