# generated using pymatgen
data_ZrScNbPdRh
_symmetry_space_group_name_H-M   'P 1'
_cell_length_a   16.55270389
_cell_length_b   16.55017674
_cell_length_c   16.55064465
_cell_angle_alpha   90.01476912
_cell_angle_beta   89.93632645
_cell_angle_gamma   90.00972650
_symmetry_Int_Tables_number   1
_chemical_formula_structural   ZrScNbPdRh
_chemical_formula_sum   'Zr50 Sc50 Nb50 Pd50 Rh50'
_cell_volume   4534.04898038
_cell_formula_units_Z   50
loop_
 _symmetry_equiv_pos_site_id
 _symmetry_equiv_pos_as_xyz
  1  'x, y, z'
loop_
 _atom_site_type_symbol
 _atom_site_label
 _atom_site_symmetry_multiplicity
 _atom_site_fract_x
 _atom_site_fract_y
 _atom_site_fract_z
 _atom_site_occupancy
  Zr  Zr0  1  0.08463771  0.10275528  0.89289747  1
  Zr  Zr1  1  0.49954686  0.29724537  0.69756653  1
  Zr  Zr2  1  0.49550141  0.09379030  0.30219870  1
  Zr  Zr3  1  0.09574527  0.89532860  0.68915444  1
  Zr  Zr4  1  0.49542956  0.49426752  0.70152297  1
  Zr  Zr5  1  0.30024205  0.10157934  0.29452127  1
  Zr  Zr6  1  0.49346986  0.49333446  0.30531517  1
  Zr  Zr7  1  0.50799794  0.90257594  0.49125424  1
  Zr  Zr8  1  0.70678127  0.30586769  0.29800044  1
  Zr  Zr9  1  0.50125992  0.30465652  0.30273232  1
  Zr  Zr10  1  0.70366813  0.50621308  0.10597717  1
  Zr  Zr11  1  0.88867901  0.50358539  0.70293491  1
  Zr  Zr12  1  0.29945237  0.90526026  0.90248604  1
  Zr  Zr13  1  0.71520495  0.69834165  0.70557191  1
  Zr  Zr14  1  0.90808415  0.49212466  0.89544348  1
  Zr  Zr15  1  0.89695075  0.10103299  0.10491472  1
  Zr  Zr16  1  0.29576365  0.29597569  0.90603428  1
  Zr  Zr17  1  0.09769856  0.70256810  0.70809442  1
  Zr  Zr18  1  0.29911558  0.70079049  0.48921218  1
  Zr  Zr19  1  0.69908045  0.28797238  0.90040710  1
  Zr  Zr20  1  0.70523870  0.89308095  0.10113612  1
  Zr  Zr21  1  0.29447587  0.70405656  0.89545244  1
  Zr  Zr22  1  0.29846184  0.69260493  0.10439495  1
  Zr  Zr23  1  0.09181493  0.11297022  0.50187614  1
  Zr  Zr24  1  0.68539058  0.90029201  0.89990424  1
  Zr  Zr25  1  0.29581400  0.70710771  0.70296621  1
  Zr  Zr26  1  0.31485915  0.89910767  0.29980885  1
  Zr  Zr27  1  0.30014439  0.50280847  0.48916013  1
  Zr  Zr28  1  0.90446106  0.10235234  0.70185563  1
  Zr  Zr29  1  0.29501790  0.89826397  0.50556094  1
  Zr  Zr30  1  0.31156813  0.49733588  0.90069443  1
  Zr  Zr31  1  0.70572997  0.90573125  0.50056548  1
  Zr  Zr32  1  0.30471198  0.09915744  0.51446214  1
  Zr  Zr33  1  0.91161055  0.89915212  0.09913366  1
  Zr  Zr34  1  0.30182635  0.49903752  0.70328165  1
  Zr  Zr35  1  0.89539800  0.70565798  0.09160778  1
  Zr  Zr36  1  0.29899966  0.90771490  0.70405040  1
  Zr  Zr37  1  0.09654928  0.10400759  0.30023784  1
  Zr  Zr38  1  0.90066777  0.10637020  0.30114987  1
  Zr  Zr39  1  0.10039672  0.71376492  0.49982656  1
  Zr  Zr40  1  0.89739591  0.48986508  0.29432041  1
  Zr  Zr41  1  0.10606468  0.69433564  0.29861692  1
  Zr  Zr42  1  0.50683349  0.09883736  0.50705300  1
  Zr  Zr43  1  0.09803733  0.30053804  0.31005929  1
  Zr  Zr44  1  0.89662413  0.28941491  0.89648996  1
  Zr  Zr45  1  0.70781008  0.09735510  0.50595993  1
  Zr  Zr46  1  0.29155792  0.09723179  0.89943804  1
  Zr  Zr47  1  0.30432971  0.69287688  0.29939160  1
  Zr  Zr48  1  0.09116073  0.90089282  0.29642325  1
  Zr  Zr49  1  0.29520405  0.50636761  0.29557250  1
  Sc  Sc50  1  0.69507120  0.29824733  0.10069398  1
  Sc  Sc51  1  0.90102762  0.49670860  0.49665203  1
  Sc  Sc52  1  0.89881966  0.70656955  0.49741525  1
  Sc  Sc53  1  0.49418407  0.10435055  0.10246780  1
  Sc  Sc54  1  0.09321584  0.49403295  0.10206760  1
  Sc  Sc55  1  0.70676488  0.89641809  0.30493132  1
  Sc  Sc56  1  0.70490272  0.71280981  0.50120474  1
  Sc  Sc57  1  0.90592051  0.89774478  0.70164144  1
  Sc  Sc58  1  0.50344660  0.10001836  0.69599459  1
  Sc  Sc59  1  0.90068932  0.29033854  0.49993899  1
  Sc  Sc60  1  0.50143305  0.30116114  0.90286840  1
  Sc  Sc61  1  0.90424400  0.70045223  0.29636762  1
  Sc  Sc62  1  0.89379092  0.10205304  0.50315959  1
  Sc  Sc63  1  0.50131855  0.29971865  0.10015167  1
  Sc  Sc64  1  0.10014499  0.10242726  0.70187778  1
  Sc  Sc65  1  0.09101725  0.29750665  0.90377947  1
  Sc  Sc66  1  0.50226637  0.70458343  0.49190161  1
  Sc  Sc67  1  0.90254574  0.29893664  0.10413917  1
  Sc  Sc68  1  0.50804339  0.90115511  0.71197162  1
  Sc  Sc69  1  0.50657760  0.69816523  0.10313319  1
  Sc  Sc70  1  0.09493360  0.50681067  0.71530565  1
  Sc  Sc71  1  0.70466108  0.30155871  0.50647916  1
  Sc  Sc72  1  0.30069587  0.30126695  0.30065792  1
  Sc  Sc73  1  0.70091536  0.10715915  0.10111131  1
  Sc  Sc74  1  0.69898686  0.50444621  0.91130229  1
  Sc  Sc75  1  0.09280892  0.49753231  0.29912275  1
  Sc  Sc76  1  0.49523003  0.70721832  0.29729082  1
  Sc  Sc77  1  0.89858037  0.90146002  0.49839667  1
  Sc  Sc78  1  0.08863179  0.10107448  0.10115019  1
  Sc  Sc79  1  0.89557834  0.90767077  0.29739398  1
  Sc  Sc80  1  0.51217560  0.09211878  0.89658657  1
  Sc  Sc81  1  0.50334028  0.89933024  0.09546164  1
  Sc  Sc82  1  0.09293353  0.29745456  0.09672792  1
  Sc  Sc83  1  0.09941077  0.89692841  0.91044528  1
  Sc  Sc84  1  0.50242573  0.69912147  0.90045326  1
  Sc  Sc85  1  0.09537611  0.70693820  0.10013192  1
  Sc  Sc86  1  0.29561693  0.29887445  0.69669267  1
  Sc  Sc87  1  0.50549942  0.49934027  0.08671080  1
  Sc  Sc88  1  0.69575288  0.10242186  0.69974325  1
  Sc  Sc89  1  0.91083668  0.89728619  0.90358489  1
  Sc  Sc90  1  0.50353581  0.70865475  0.70746961  1
  Sc  Sc91  1  0.89554941  0.70584038  0.89054770  1
  Sc  Sc92  1  0.49762510  0.48578756  0.49845500  1
  Sc  Sc93  1  0.10075014  0.49259049  0.48932027  1
  Sc  Sc94  1  0.70244813  0.69646844  0.09291346  1
  Sc  Sc95  1  0.28694628  0.30469230  0.50529481  1
  Sc  Sc96  1  0.71403319  0.10105598  0.29766115  1
  Sc  Sc97  1  0.69903002  0.70055322  0.28377786  1
  Sc  Sc98  1  0.69804070  0.89923154  0.69779931  1
  Sc  Sc99  1  0.90117250  0.49651246  0.10547068  1
  Nb  Nb100  1  0.50508543  0.90174881  0.29718890  1
  Nb  Nb101  1  0.70082432  0.50359106  0.50290443  1
  Nb  Nb102  1  0.70666563  0.30358435  0.70646722  1
  Nb  Nb103  1  0.70269333  0.49775854  0.30214842  1
  Nb  Nb104  1  0.49585187  0.29344799  0.49953179  1
  Nb  Nb105  1  0.10079071  0.89850273  0.09953040  1
  Nb  Nb106  1  0.09715511  0.30278517  0.50611833  1
  Nb  Nb107  1  0.28995615  0.90402803  0.09006519  1
  Nb  Nb108  1  0.10206950  0.29466866  0.69593837  1
  Nb  Nb109  1  0.29806025  0.10296057  0.09863354  1
  Nb  Nb110  1  0.29869175  0.10297992  0.70575401  1
  Nb  Nb111  1  0.70690265  0.10289023  0.89945337  1
  Nb  Nb112  1  0.29834792  0.29423677  0.09511268  1
  Nb  Nb113  1  0.10023414  0.50009358  0.90114804  1
  Nb  Nb114  1  0.70377924  0.69967010  0.89973967  1
  Nb  Nb115  1  0.10142392  0.69250480  0.89648769  1
  Nb  Nb116  1  0.49751917  0.89538567  0.89851793  1
  Nb  Nb117  1  0.70046827  0.49962619  0.69342009  1
  Nb  Nb118  1  0.90622856  0.69850695  0.70117747  1
  Nb  Nb119  1  0.89710553  0.10033032  0.90116992  1
  Nb  Nb120  1  0.50482972  0.49690468  0.89383679  1
  Nb  Nb121  1  0.10184356  0.90135625  0.49722974  1
  Nb  Nb122  1  0.29663101  0.49731398  0.09712366  1
  Nb  Nb123  1  0.89906715  0.30095566  0.29916850  1
  Nb  Nb124  1  0.89303363  0.30208450  0.70237208  1
  Nb  Nb125  1  0.00146624  0.60035701  0.60274228  1
  Nb  Nb126  1  0.79977789  0.00239023  -0.00571604  1
  Nb  Nb127  1  0.59961997  -0.00388293  0.20450258  1
  Nb  Nb128  1  0.20398520  0.80862380  0.19561772  1
  Nb  Nb129  1  0.40048721  0.60510620  0.59858639  1
  Nb  Nb130  1  0.40456961  0.19942648  0.40733014  1
  Nb  Nb131  1  0.60180091  0.59680232  0.60004008  1
  Nb  Nb132  1  0.00404049  0.60054975  -0.00851581  1
  Nb  Nb133  1  0.19717095  0.59433515  -0.00244635  1
  Nb  Nb134  1  0.60654199  0.59396194  0.79623733  1
  Nb  Nb135  1  0.00062448  0.39768871  0.60688016  1
  Nb  Nb136  1  0.20306339  -0.00096341  0.19563893  1
  Nb  Nb137  1  0.39408694  0.80483442  -0.00188421  1
  Nb  Nb138  1  0.20610199  0.39733692  0.19106389  1
  Nb  Nb139  1  0.39474785  0.19457682  0.79943956  1
  Nb  Nb140  1  0.79253976  0.59563852  0.39565590  1
  Nb  Nb141  1  0.19670310  0.00012189  0.40008640  1
  Nb  Nb142  1  0.39915486  0.80095118  0.60001318  1
  Nb  Nb143  1  0.19777281  0.39849592  0.80529130  1
  Nb  Nb144  1  0.80083715  0.00417226  0.80833697  1
  Nb  Nb145  1  0.19823339  0.60212094  0.59976427  1
  Nb  Nb146  1  0.60837605  0.59271217  0.40145911  1
  Nb  Nb147  1  0.80049981  0.39571927  -0.00098926  1
  Nb  Nb148  1  0.59843259  0.20165113  0.40210445  1
  Nb  Nb149  1  0.60469679  0.40369059  0.79697434  1
  Pd  Pd150  1  0.18789617  0.41313806  0.61103493  1
  Pd  Pd151  1  0.60040506  0.40553352  0.19400591  1
  Pd  Pd152  1  -0.00461273  0.60071563  0.40715485  1
  Pd  Pd153  1  0.59288655  0.59306673  0.20778533  1
  Pd  Pd154  1  0.60157730  0.39808448  0.60099011  1
  Pd  Pd155  1  0.40687451  0.19258628  -0.00891206  1
  Pd  Pd156  1  0.39545488  0.39851682  0.18908504  1
  Pd  Pd157  1  0.40776111  0.60827085  0.79652393  1
  Pd  Pd158  1  0.19160108  0.81371838  0.80345053  1
  Pd  Pd159  1  0.59509591  0.79264732  0.00086949  1
  Pd  Pd160  1  0.40718146  0.00708152  0.79948625  1
  Pd  Pd161  1  0.40541128  0.39599162  0.00369151  1
  Pd  Pd162  1  0.41136016  -0.01015514  0.60799694  1
  Pd  Pd163  1  0.20247760  0.80794940  0.38674844  1
  Pd  Pd164  1  0.61336429  0.00846270  0.39137833  1
  Pd  Pd165  1  0.39932353  0.80528082  0.18683258  1
  Pd  Pd166  1  0.39479293  0.00308580  0.40723809  1
  Pd  Pd167  1  0.18853419  0.19249838  0.00261641  1
  Pd  Pd168  1  -0.00158222  0.60329470  0.19035208  1
  Pd  Pd169  1  -0.00181613  0.00237879  0.40623186  1
  Pd  Pd170  1  0.81162494  0.59337531  -0.00572808  1
  Pd  Pd171  1  0.60882630  0.20557621  0.59963353  1
  Pd  Pd172  1  0.40064291  0.60617432  -0.00079421  1
  Pd  Pd173  1  0.80098755  0.81471877  0.80402717  1
  Pd  Pd174  1  0.19578828  0.20287019  0.19199765  1
  Pd  Pd175  1  0.00684023  0.39002470  0.79360594  1
  Pd  Pd176  1  0.60656365  0.79142304  0.39057094  1
  Pd  Pd177  1  0.80565921  0.79908716  0.20244643  1
  Pd  Pd178  1  -0.00206074  0.00140824  0.59480976  1
  Pd  Pd179  1  0.18993101  0.00804568  0.59817338  1
  Pd  Pd180  1  0.40625401  0.00057435  0.00206548  1
  Pd  Pd181  1  0.18667112  0.01279653  0.00360060  1
  Pd  Pd182  1  0.59653536  0.79604210  0.60273366  1
  Pd  Pd183  1  0.19407478  0.40142818  0.00049375  1
  Pd  Pd184  1  0.60598260  0.39619548  0.40754298  1
  Pd  Pd185  1  0.60470927  0.00629804  0.00993865  1
  Pd  Pd186  1  0.59359231  0.19525140  0.00039037  1
  Pd  Pd187  1  0.40133817  -0.00563857  0.18528307  1
  Pd  Pd188  1  0.80807537  0.80614932  0.60385493  1
  Pd  Pd189  1  0.20862968  0.19599281  0.40872878  1
  Pd  Pd190  1  0.40018483  0.20719912  0.20374270  1
  Pd  Pd191  1  0.80322286  0.39923904  0.40854634  1
  Pd  Pd192  1  0.39391491  0.39820298  0.59379299  1
  Pd  Pd193  1  0.80802297  0.39615478  0.59416702  1
  Pd  Pd194  1  0.78843663  0.40566143  0.81148621  1
  Pd  Pd195  1  0.41210159  0.59149648  0.19390007  1
  Pd  Pd196  1  -0.00811516  0.80360604  0.39457787  1
  Pd  Pd197  1  0.18507004  -0.00439295  0.79961404  1
  Pd  Pd198  1  0.80408701  0.60556491  0.58953344  1
  Pd  Pd199  1  0.60134766  0.19184274  0.20931841  1
  Rh  Rh200  1  -0.00601037  0.20534349  0.40039276  1
  Rh  Rh201  1  0.00222996  0.00107139  0.19757949  1
  Rh  Rh202  1  -0.00573451  0.39250834  0.40617058  1
  Rh  Rh203  1  -0.00860757  0.40295440  0.00254150  1
  Rh  Rh204  1  -0.00163210  0.20548694  0.79345301  1
  Rh  Rh205  1  0.00805737  0.39215171  0.20360634  1
  Rh  Rh206  1  0.39879739  0.38321051  0.80721358  1
  Rh  Rh207  1  0.79671204  0.39612722  0.18998689  1
  Rh  Rh208  1  0.20354560  0.79716629  0.60154208  1
  Rh  Rh209  1  0.79550185  0.20292884  0.39899448  1
  Rh  Rh210  1  0.60574126  0.78996744  0.80391047  1
  Rh  Rh211  1  0.20223746  0.20746742  0.79935690  1
  Rh  Rh212  1  0.80332457  0.00252835  0.40156328  1
  Rh  Rh213  1  -0.00127465  0.20618349  0.20531849  1
  Rh  Rh214  1  -0.00269371  -0.00486750  0.80056472  1
  Rh  Rh215  1  -0.00498286  0.20797274  0.60725231  1
  Rh  Rh216  1  0.00150109  0.79870441  0.20225012  1
  Rh  Rh217  1  0.79820301  0.80769788  -0.00839153  1
  Rh  Rh218  1  0.20640786  0.58902870  0.80438217  1
  Rh  Rh219  1  0.60743315  0.39800546  -0.00464202  1
  Rh  Rh220  1  0.39339762  0.20460832  0.60412635  1
  Rh  Rh221  1  0.20144920  0.40256295  0.38716893  1
  Rh  Rh222  1  0.79462097  -0.00341322  0.19029446  1
  Rh  Rh223  1  0.60667910  0.00309622  0.79820343  1
  Rh  Rh224  1  0.59491193  0.20538813  0.79759317  1
  Rh  Rh225  1  0.80299339  0.20106866  0.00790841  1
  Rh  Rh226  1  0.18867413  0.59689282  0.40444100  1
  Rh  Rh227  1  0.79869681  0.20209992  0.60758801  1
  Rh  Rh228  1  0.80550159  0.60092968  0.20690597  1
  Rh  Rh229  1  0.79964846  0.19185663  0.79053787  1
  Rh  Rh230  1  0.00357391  0.78887941  -0.00572660  1
  Rh  Rh231  1  0.79663628  0.59629948  0.80686773  1
  Rh  Rh232  1  -0.00542919  0.79656843  0.59764228  1
  Rh  Rh233  1  0.00496058  0.80170528  0.80420947  1
  Rh  Rh234  1  0.80328391  -0.00173294  0.61151491  1
  Rh  Rh235  1  0.20210070  0.78787751  0.00544844  1
  Rh  Rh236  1  0.59974806  0.80757922  0.19948936  1
  Rh  Rh237  1  0.40010816  0.80446743  0.80253449  1
  Rh  Rh238  1  0.60051018  -0.00702061  0.60388942  1
  Rh  Rh239  1  0.80069058  0.79323689  0.39341264  1
  Rh  Rh240  1  -0.00861648  0.60424279  0.80253413  1
  Rh  Rh241  1  0.60092936  0.60537429  -0.00830027  1
  Rh  Rh242  1  0.38855983  0.38995602  0.40515558  1
  Rh  Rh243  1  -0.00609151  0.19776239  0.00190723  1
  Rh  Rh244  1  -0.00369378  0.00412500  0.00183141  1
  Rh  Rh245  1  0.80098383  0.20770848  0.19975837  1
  Rh  Rh246  1  0.19866828  0.19521385  0.60140155  1
  Rh  Rh247  1  0.40459809  0.80476810  0.40491581  1
  Rh  Rh248  1  0.41658091  0.59856785  0.40526277  1
  Rh  Rh249  1  0.19164197  0.59449351  0.19086523  1
