# generated using pymatgen
data_ZrScNbPdRh
_symmetry_space_group_name_H-M   'P 1'
_cell_length_a   16.55505334
_cell_length_b   16.55492188
_cell_length_c   16.55155622
_cell_angle_alpha   89.95862876
_cell_angle_beta   89.99229595
_cell_angle_gamma   90.02490153
_symmetry_Int_Tables_number   1
_chemical_formula_structural   ZrScNbPdRh
_chemical_formula_sum   'Zr50 Sc50 Nb50 Pd50 Rh50'
_cell_volume   4536.24388080
_cell_formula_units_Z   50
loop_
 _symmetry_equiv_pos_site_id
 _symmetry_equiv_pos_as_xyz
  1  'x, y, z'
loop_
 _atom_site_type_symbol
 _atom_site_label
 _atom_site_symmetry_multiplicity
 _atom_site_fract_x
 _atom_site_fract_y
 _atom_site_fract_z
 _atom_site_occupancy
  Zr  Zr0  1  0.70546482  0.09568852  0.09599981  1
  Zr  Zr1  1  0.10668090  0.29887758  0.70062689  1
  Zr  Zr2  1  0.89735574  0.29955308  0.68511028  1
  Zr  Zr3  1  0.50701268  0.69555656  0.30647111  1
  Zr  Zr4  1  0.69447368  0.69901601  0.29742525  1
  Zr  Zr5  1  0.08964657  0.29801197  0.49231937  1
  Zr  Zr6  1  0.70042408  0.09628409  0.31176019  1
  Zr  Zr7  1  0.90072173  0.30494271  0.30258196  1
  Zr  Zr8  1  0.50306602  0.09630968  0.89689390  1
  Zr  Zr9  1  0.10740129  0.09889777  0.69131475  1
  Zr  Zr10  1  0.09850700  0.09735833  0.30916544  1
  Zr  Zr11  1  0.29145991  0.10190097  0.90594891  1
  Zr  Zr12  1  0.89961980  0.69701756  0.29548916  1
  Zr  Zr13  1  0.69824472  0.10101407  0.90152475  1
  Zr  Zr14  1  0.69916447  0.29969333  0.09934992  1
  Zr  Zr15  1  0.30728516  0.90329638  0.68925917  1
  Zr  Zr16  1  0.90812978  0.28317446  0.90020596  1
  Zr  Zr17  1  0.30049368  0.70947492  0.70072584  1
  Zr  Zr18  1  0.70547201  0.69210828  0.88809379  1
  Zr  Zr19  1  0.50065177  0.90452457  0.10196118  1
  Zr  Zr20  1  0.09914637  0.90613032  0.90016319  1
  Zr  Zr21  1  0.29349930  0.29712330  0.89706149  1
  Zr  Zr22  1  0.09343072  0.70463403  0.69631990  1
  Zr  Zr23  1  0.10218695  0.09424677  0.09890668  1
  Zr  Zr24  1  0.70397768  0.89624901  0.29915015  1
  Zr  Zr25  1  0.29421205  0.69499977  0.31554111  1
  Zr  Zr26  1  0.10017302  0.70178135  0.90888263  1
  Zr  Zr27  1  0.29611660  0.90300860  0.10257743  1
  Zr  Zr28  1  0.49957168  0.89830436  0.89129431  1
  Zr  Zr29  1  0.28830095  0.09870378  0.50665947  1
  Zr  Zr30  1  0.89585189  0.69300422  0.50600694  1
  Zr  Zr31  1  0.30070918  0.30534587  0.29518375  1
  Zr  Zr32  1  0.90686824  0.50006510  0.10741847  1
  Zr  Zr33  1  0.90156260  0.09972112  0.69749744  1
  Zr  Zr34  1  0.90034298  0.50218516  0.69097221  1
  Zr  Zr35  1  0.50346180  0.10517147  0.49970358  1
  Zr  Zr36  1  0.29315817  0.10652221  0.30160537  1
  Zr  Zr37  1  0.30272570  0.10009519  0.10302929  1
  Zr  Zr38  1  0.49658160  0.49751504  0.29871092  1
  Zr  Zr39  1  0.30114773  0.29842612  0.69714535  1
  Zr  Zr40  1  0.69907313  0.49456627  0.89950921  1
  Zr  Zr41  1  0.50223477  0.49529454  0.69761139  1
  Zr  Zr42  1  0.70463355  0.89759531  0.10405094  1
  Zr  Zr43  1  0.89285036  0.70275681  0.70144310  1
  Zr  Zr44  1  0.49896706  0.30344022  0.31265531  1
  Zr  Zr45  1  0.10464662  0.29333244  0.29465949  1
  Zr  Zr46  1  0.90089603  0.10620513  0.50193232  1
  Zr  Zr47  1  0.70744178  0.29858734  0.50023483  1
  Zr  Zr48  1  0.30470599  0.70556208  0.89557762  1
  Zr  Zr49  1  0.10222304  0.70320625  0.48963921  1
  Sc  Sc50  1  0.30513939  0.49907335  0.69799494  1
  Sc  Sc51  1  0.29253418  0.30179342  0.10379391  1
  Sc  Sc52  1  0.08913093  0.50328738  0.29488820  1
  Sc  Sc53  1  0.70481935  0.09713788  0.50114596  1
  Sc  Sc54  1  0.09959625  0.89052993  0.10395208  1
  Sc  Sc55  1  0.50900968  0.50092066  0.88962367  1
  Sc  Sc56  1  0.50741126  0.29246358  0.90215175  1
  Sc  Sc57  1  0.90031954  0.70506297  0.89862016  1
  Sc  Sc58  1  0.09448790  0.50013582  0.69793524  1
  Sc  Sc59  1  0.09910716  0.90354305  0.50254857  1
  Sc  Sc60  1  0.29563844  0.89472747  0.30341995  1
  Sc  Sc61  1  0.09357245  0.30591556  0.09388343  1
  Sc  Sc62  1  0.70132372  0.49236300  0.10021788  1
  Sc  Sc63  1  0.50635497  0.90462591  0.29580136  1
  Sc  Sc64  1  0.50393004  0.49374479  0.49454142  1
  Sc  Sc65  1  0.69712926  0.50282828  0.71080647  1
  Sc  Sc66  1  0.31286204  0.29464059  0.50384898  1
  Sc  Sc67  1  0.69540896  0.89767823  0.69746512  1
  Sc  Sc68  1  0.89595628  0.08692945  0.30017373  1
  Sc  Sc69  1  0.50189316  0.29993047  0.68962649  1
  Sc  Sc70  1  0.89977554  0.69946919  0.09673729  1
  Sc  Sc71  1  0.28936667  0.71072283  0.09117992  1
  Sc  Sc72  1  0.69659352  0.09760904  0.69895812  1
  Sc  Sc73  1  0.89562232  0.30031710  0.10245445  1
  Sc  Sc74  1  0.09704165  0.70481249  0.29911553  1
  Sc  Sc75  1  0.70867752  0.30400246  0.30300508  1
  Sc  Sc76  1  0.89902223  0.51280527  0.90609865  1
  Sc  Sc77  1  0.50142772  0.89442341  0.51200331  1
  Sc  Sc78  1  0.10066352  0.49664785  0.90598256  1
  Sc  Sc79  1  0.09935478  0.90017285  0.69831297  1
  Sc  Sc80  1  0.08876369  0.50165925  0.49488514  1
  Sc  Sc81  1  0.50549715  0.30498305  0.09971902  1
  Sc  Sc82  1  0.09709394  0.49929275  0.09377691  1
  Sc  Sc83  1  0.69426051  0.50256161  0.29989228  1
  Sc  Sc84  1  0.90381264  0.90303470  0.51064103  1
  Sc  Sc85  1  0.30449502  0.51623337  0.48749641  1
  Sc  Sc86  1  0.30110321  0.10215760  0.69874991  1
  Sc  Sc87  1  0.70567461  0.90368743  0.90798478  1
  Sc  Sc88  1  0.29295999  0.50098108  0.89915122  1
  Sc  Sc89  1  0.29200890  0.89330409  0.89770340  1
  Sc  Sc90  1  0.50552231  0.09552952  0.09758325  1
  Sc  Sc91  1  0.70450118  0.49899056  0.49442023  1
  Sc  Sc92  1  0.50409776  0.70140735  0.10899434  1
  Sc  Sc93  1  0.69792752  0.30042019  0.69860671  1
  Sc  Sc94  1  0.08995607  0.89371365  0.30178741  1
  Sc  Sc95  1  0.30739032  0.71572342  0.49615413  1
  Sc  Sc96  1  0.89560872  0.49940275  0.29905984  1
  Sc  Sc97  1  0.69512131  0.29840055  0.90265036  1
  Sc  Sc98  1  0.69368193  0.89784886  0.50322130  1
  Sc  Sc99  1  0.50206428  0.71342395  0.71372810  1
  Nb  Nb100  1  0.89464172  0.89565437  0.28656949  1
  Nb  Nb101  1  0.70248228  0.69865115  0.69317217  1
  Nb  Nb102  1  0.30743503  0.90405720  0.50081572  1
  Nb  Nb103  1  0.69314475  0.70159047  0.10302110  1
  Nb  Nb104  1  0.89422408  0.91158565  0.10535048  1
  Nb  Nb105  1  0.90135520  0.09783173  0.09863400  1
  Nb  Nb106  1  0.90140864  0.90228295  0.90325536  1
  Nb  Nb107  1  0.30040304  0.50016035  0.29538028  1
  Nb  Nb108  1  0.50748705  0.70192037  0.49939923  1
  Nb  Nb109  1  0.90694678  0.90087954  0.70519713  1
  Nb  Nb110  1  0.89554999  0.31181665  0.49880196  1
  Nb  Nb111  1  0.10167724  0.29705216  0.89665827  1
  Nb  Nb112  1  0.30322138  0.49537980  0.10179341  1
  Nb  Nb113  1  0.90204566  0.09867152  0.90240060  1
  Nb  Nb114  1  0.50285931  0.07886626  0.70419298  1
  Nb  Nb115  1  0.49726975  0.09942466  0.29974733  1
  Nb  Nb116  1  0.50243500  0.91209286  0.69952323  1
  Nb  Nb117  1  0.50059777  0.49968048  0.10054142  1
  Nb  Nb118  1  0.10072245  0.09945921  0.49730573  1
  Nb  Nb119  1  0.49922751  0.70131436  0.90254194  1
  Nb  Nb120  1  0.69451674  0.70493457  0.49767962  1
  Nb  Nb121  1  0.10248148  0.69658008  0.10222418  1
  Nb  Nb122  1  0.50416850  0.30358243  0.50370758  1
  Nb  Nb123  1  0.89979650  0.48223594  0.50242458  1
  Nb  Nb124  1  0.09552921  0.10704071  0.90255182  1
  Nb  Nb125  1  0.80107148  0.79562785  0.39958739  1
  Nb  Nb126  1  0.60096626  0.79233135  -0.00158870  1
  Nb  Nb127  1  0.20215695  0.40548197  0.59006299  1
  Nb  Nb128  1  0.39869311  0.00273275  0.40242473  1
  Nb  Nb129  1  0.20376838  0.60302556  0.59860158  1
  Nb  Nb130  1  0.20478748  0.59914090  0.19727617  1
  Nb  Nb131  1  -0.00651342  0.00204459  -0.00116502  1
  Nb  Nb132  1  0.40443696  0.59790430  0.00335581  1
  Nb  Nb133  1  0.20197074  0.40283814  0.39849976  1
  Nb  Nb134  1  0.39750294  -0.00090661  -0.00222285  1
  Nb  Nb135  1  0.81174331  -0.00111270  0.80371995  1
  Nb  Nb136  1  0.19792336  0.60670039  0.79407691  1
  Nb  Nb137  1  0.81093985  0.39622722  0.80178700  1
  Nb  Nb138  1  0.40064347  0.40574282  -0.00187710  1
  Nb  Nb139  1  0.40737017  0.60893546  0.59841996  1
  Nb  Nb140  1  0.59871203  0.19611774  0.20813457  1
  Nb  Nb141  1  0.39944761  0.39457754  0.80335725  1
  Nb  Nb142  1  -0.00241930  0.19146476  0.19825737  1
  Nb  Nb143  1  0.19651113  0.00053637  0.20428488  1
  Nb  Nb144  1  0.39312097  0.59915590  0.19649879  1
  Nb  Nb145  1  0.40828794  0.19956656  0.20539677  1
  Nb  Nb146  1  -0.00339777  0.39358712  0.80159378  1
  Nb  Nb147  1  0.39692934  0.79354867  0.20415160  1
  Nb  Nb148  1  0.60006534  0.60989089  0.59991471  1
  Nb  Nb149  1  0.59711288  0.60443746  0.00075706  1
  Pd  Pd150  1  -0.01207132  0.80533178  0.40444723  1
  Pd  Pd151  1  0.60921339  0.80392048  0.80298581  1
  Pd  Pd152  1  0.59150807  -0.00742304  0.40739775  1
  Pd  Pd153  1  0.19862824  0.80195994  0.59208026  1
  Pd  Pd154  1  0.20330168  0.00293773  0.79567806  1
  Pd  Pd155  1  0.41183972  0.81147283  0.39412630  1
  Pd  Pd156  1  0.19805020  0.41005096  0.79401415  1
  Pd  Pd157  1  0.40873173  0.19054632  0.60757307  1
  Pd  Pd158  1  0.60857893  0.40827845  0.59594481  1
  Pd  Pd159  1  0.80732289  -0.01378117  0.40560658  1
  Pd  Pd160  1  0.60052504  0.19432712  0.60402606  1
  Pd  Pd161  1  0.78996580  0.59194654  0.59812592  1
  Pd  Pd162  1  0.79398234  0.59781982  0.19380918  1
  Pd  Pd163  1  -0.00715111  0.59564688  0.39940355  1
  Pd  Pd164  1  0.79626931  0.80987147  0.79796946  1
  Pd  Pd165  1  0.40620989  0.20230167  0.01020127  1
  Pd  Pd166  1  0.60790305  0.00610762  0.20218780  1
  Pd  Pd167  1  0.39298506  0.40307047  0.40944473  1
  Pd  Pd168  1  0.79730524  0.79543330  0.00304318  1
  Pd  Pd169  1  0.20602123  0.59880858  0.00035240  1
  Pd  Pd170  1  0.39810177  0.59315770  0.80072206  1
  Pd  Pd171  1  -0.01083603  0.19728606  0.39294316  1
  Pd  Pd172  1  0.40723564  0.20261552  0.79338691  1
  Pd  Pd173  1  0.00196408  0.79994065  0.80170635  1
  Pd  Pd174  1  0.40605208  0.80009837  0.00807898  1
  Pd  Pd175  1  0.80995197  0.39559744  -0.00646376  1
  Pd  Pd176  1  0.79752997  -0.00483959  0.60777050  1
  Pd  Pd177  1  0.79892922  0.20278453  0.00043403  1
  Pd  Pd178  1  0.20166675  -0.00965971  0.39797704  1
  Pd  Pd179  1  0.00439566  0.60096172  0.59406704  1
  Pd  Pd180  1  0.39642986  0.19568394  0.40079234  1
  Pd  Pd181  1  0.79337166  0.60240441  0.00740429  1
  Pd  Pd182  1  0.59631517  0.20089763  0.79038615  1
  Pd  Pd183  1  -0.00889023  -0.00809585  0.40132335  1
  Pd  Pd184  1  0.18892874  0.40988602  0.20104075  1
  Pd  Pd185  1  -0.00344570  0.80581764  0.00759922  1
  Pd  Pd186  1  0.80074813  0.19389952  0.20626715  1
  Pd  Pd187  1  0.19431755  0.20786127  0.00673690  1
  Pd  Pd188  1  0.00116170  0.00534063  0.80187245  1
  Pd  Pd189  1  0.00592935  0.19861828  0.79152162  1
  Pd  Pd190  1  0.80040217  0.59980573  0.40174319  1
  Pd  Pd191  1  0.80087483  0.80726570  0.59629398  1
  Pd  Pd192  1  0.79462257  0.19878100  0.79626002  1
  Pd  Pd193  1  0.00360739  0.19998317  0.59760806  1
  Pd  Pd194  1  -0.00761271  0.39959003  -0.00778326  1
  Pd  Pd195  1  0.38625344  -0.00232712  0.80789539  1
  Pd  Pd196  1  0.00406582  0.59479908  0.80567061  1
  Pd  Pd197  1  0.60636615  0.20632258  0.39886512  1
  Pd  Pd198  1  -0.00446921  0.79648050  0.19140205  1
  Pd  Pd199  1  0.60252567  0.39432350  0.20536042  1
  Rh  Rh200  1  0.79657897  0.19824846  0.59650014  1
  Rh  Rh201  1  0.60040566  0.38889642  0.80155526  1
  Rh  Rh202  1  0.19590123  0.80802592  0.40417937  1
  Rh  Rh203  1  0.40935483  0.79871962  0.60504134  1
  Rh  Rh204  1  0.20522050  0.39549758  -0.00085300  1
  Rh  Rh205  1  0.61494468  -0.00544287  0.80289413  1
  Rh  Rh206  1  0.60592936  0.39602744  0.40277430  1
  Rh  Rh207  1  0.19283190  0.80469877  -0.00349570  1
  Rh  Rh208  1  0.19377592  0.19469925  0.19282069  1
  Rh  Rh209  1  0.40452379  0.39668384  0.19192649  1
  Rh  Rh210  1  0.79428818  0.00598188  0.20258877  1
  Rh  Rh211  1  0.60173275  0.00292443  0.59599164  1
  Rh  Rh212  1  0.39668222  0.40851000  0.59771455  1
  Rh  Rh213  1  0.80616504  0.59470606  0.79485106  1
  Rh  Rh214  1  0.79904293  0.40523844  0.39605828  1
  Rh  Rh215  1  0.59959088  0.60700526  0.79651710  1
  Rh  Rh216  1  0.41082263  0.59973960  0.40020905  1
  Rh  Rh217  1  0.19537982  0.21002396  0.59147348  1
  Rh  Rh218  1  0.79941742  0.40599222  0.20039090  1
  Rh  Rh219  1  0.00202205  0.40231309  0.39252189  1
  Rh  Rh220  1  0.18852807  0.59181943  0.39673659  1
  Rh  Rh221  1  0.59324433  -0.00815330  -0.00653221  1
  Rh  Rh222  1  0.20328019  0.79503846  0.20696716  1
  Rh  Rh223  1  0.79035597  0.40451889  0.60695028  1
  Rh  Rh224  1  0.00370282  0.19463234  0.00873259  1
  Rh  Rh225  1  0.59244898  0.40756773  -0.00488451  1
  Rh  Rh226  1  0.60005197  0.59497276  0.40815102  1
  Rh  Rh227  1  -0.00034395  0.39241409  0.20069912  1
  Rh  Rh228  1  0.19643097  -0.00519612  0.00343380  1
  Rh  Rh229  1  0.00947043  0.39643521  0.60439078  1
  Rh  Rh230  1  -0.00368319  0.79985799  0.60023620  1
  Rh  Rh231  1  0.19689413  0.19103547  0.80108750  1
  Rh  Rh232  1  0.59832554  0.59299299  0.19465894  1
  Rh  Rh233  1  0.60160753  0.19754220  0.00990099  1
  Rh  Rh234  1  0.59645353  0.79551095  0.60815482  1
  Rh  Rh235  1  0.80284103  0.79282151  0.19990690  1
  Rh  Rh236  1  0.00613107  0.60545214  0.19532856  1
  Rh  Rh237  1  0.38818912  0.00003492  0.20592948  1
  Rh  Rh238  1  0.00412905  0.00018231  0.19544425  1
  Rh  Rh239  1  0.59482422  0.80369772  0.19789416  1
  Rh  Rh240  1  0.40011415  0.81160815  0.79398053  1
  Rh  Rh241  1  0.19116239  0.79722252  0.80145801  1
  Rh  Rh242  1  0.80548198  0.20018973  0.40228109  1
  Rh  Rh243  1  0.40415259  0.00652539  0.59208204  1
  Rh  Rh244  1  0.80661160  0.00117479  -0.00492310  1
  Rh  Rh245  1  0.00017191  0.60303063  0.00314331  1
  Rh  Rh246  1  0.60363675  0.80573265  0.39880499  1
  Rh  Rh247  1  0.00396956  0.00301000  0.59962787  1
  Rh  Rh248  1  0.19710986  -0.00639777  0.59915477  1
  Rh  Rh249  1  0.20434067  0.21243633  0.41018597  1
