# generated using pymatgen
data_ZrScNbPdRh
_symmetry_space_group_name_H-M   'P 1'
_cell_length_a   16.55729182
_cell_length_b   16.55553623
_cell_length_c   16.55322877
_cell_angle_alpha   90.02164055
_cell_angle_beta   89.97580941
_cell_angle_gamma   90.03808267
_symmetry_Int_Tables_number   1
_chemical_formula_structural   ZrScNbPdRh
_chemical_formula_sum   'Zr50 Sc50 Nb50 Pd50 Rh50'
_cell_volume   4537.48400270
_cell_formula_units_Z   50
loop_
 _symmetry_equiv_pos_site_id
 _symmetry_equiv_pos_as_xyz
  1  'x, y, z'
loop_
 _atom_site_type_symbol
 _atom_site_label
 _atom_site_symmetry_multiplicity
 _atom_site_fract_x
 _atom_site_fract_y
 _atom_site_fract_z
 _atom_site_occupancy
  Zr  Zr0  1  0.89826745  0.09828859  0.09527834  1
  Zr  Zr1  1  0.90478714  0.49691442  0.90057578  1
  Zr  Zr2  1  0.09740637  0.69284372  0.89548249  1
  Zr  Zr3  1  0.89418855  0.69476890  0.50803367  1
  Zr  Zr4  1  0.09843604  0.70496370  0.50046790  1
  Zr  Zr5  1  0.90864320  0.89735798  0.10210931  1
  Zr  Zr6  1  0.29742585  0.50209070  0.69463241  1
  Zr  Zr7  1  0.10068557  0.89074311  0.29583912  1
  Zr  Zr8  1  0.50243419  0.69873126  0.09506492  1
  Zr  Zr9  1  0.10043092  0.30134586  0.30549817  1
  Zr  Zr10  1  0.70612493  0.30213510  0.90204255  1
  Zr  Zr11  1  0.50256201  0.50039265  0.29625393  1
  Zr  Zr12  1  0.48959663  0.29754896  0.69162459  1
  Zr  Zr13  1  0.30764172  0.10159820  0.08790586  1
  Zr  Zr14  1  0.09985023  0.10503920  0.50179082  1
  Zr  Zr15  1  0.50139047  0.70176368  0.69798607  1
  Zr  Zr16  1  0.69903598  0.70358749  0.50221786  1
  Zr  Zr17  1  0.50243693  0.08878454  0.29202493  1
  Zr  Zr18  1  0.89553855  0.30648358  0.70015856  1
  Zr  Zr19  1  0.69510898  0.49580467  0.09654046  1
  Zr  Zr20  1  0.29483122  0.28806317  0.89719579  1
  Zr  Zr21  1  0.90054217  0.90424819  0.50982463  1
  Zr  Zr22  1  0.70030500  0.10411203  0.89293076  1
  Zr  Zr23  1  0.50662195  0.10639308  0.50354108  1
  Zr  Zr24  1  0.08678981  0.90026026  0.69655306  1
  Zr  Zr25  1  0.70924227  0.89101011  0.09501857  1
  Zr  Zr26  1  0.49408874  0.90180521  0.90218997  1
  Zr  Zr27  1  0.89871505  0.70369924  0.70908349  1
  Zr  Zr28  1  0.30042103  0.69904651  0.69709220  1
  Zr  Zr29  1  0.90459257  0.29960677  0.50134230  1
  Zr  Zr30  1  0.50897786  0.10386910  0.70916319  1
  Zr  Zr31  1  0.89776556  0.50037461  0.30338659  1
  Zr  Zr32  1  0.69750113  0.89624974  0.29445137  1
  Zr  Zr33  1  0.29464179  0.29459105  0.70302010  1
  Zr  Zr34  1  0.30272450  0.70831118  0.89819249  1
  Zr  Zr35  1  0.89666156  0.09379508  0.49147103  1
  Zr  Zr36  1  0.70013849  0.69020193  0.69877489  1
  Zr  Zr37  1  0.09809475  0.30376233  0.89775265  1
  Zr  Zr38  1  0.29771162  0.50343087  0.31255045  1
  Zr  Zr39  1  0.29100487  0.09606443  0.48656306  1
  Zr  Zr40  1  0.70052947  0.30448941  0.29863408  1
  Zr  Zr41  1  0.70342346  0.30059392  0.09864858  1
  Zr  Zr42  1  0.90115365  0.90429210  0.30114876  1
  Zr  Zr43  1  0.30015892  0.30048348  0.09853976  1
  Zr  Zr44  1  0.29550764  0.89917212  0.71083544  1
  Zr  Zr45  1  0.29284918  0.69206490  0.50168962  1
  Zr  Zr46  1  0.70267757  0.09706494  0.49979148  1
  Zr  Zr47  1  0.70653322  0.90131591  0.49829047  1
  Zr  Zr48  1  0.10106518  0.30078253  0.50261576  1
  Zr  Zr49  1  0.09492853  0.29724122  0.09764769  1
  Sc  Sc50  1  0.09823014  0.50246519  0.89526012  1
  Sc  Sc51  1  0.70577379  0.29506173  0.71174761  1
  Sc  Sc52  1  0.89449822  0.50084015  0.69483028  1
  Sc  Sc53  1  0.50748469  0.31336536  0.10396463  1
  Sc  Sc54  1  0.08909091  0.09712053  0.09921442  1
  Sc  Sc55  1  0.09158030  0.70748707  0.10466530  1
  Sc  Sc56  1  0.69675448  0.50314181  0.30567666  1
  Sc  Sc57  1  0.31462841  0.88942401  0.10241251  1
  Sc  Sc58  1  0.30030491  0.71059201  0.30417838  1
  Sc  Sc59  1  0.70084190  0.49574519  0.90304143  1
  Sc  Sc60  1  0.89779158  0.29861834  0.29910653  1
  Sc  Sc61  1  0.49008062  0.49516562  0.49460236  1
  Sc  Sc62  1  0.49684517  0.51128172  0.69660217  1
  Sc  Sc63  1  0.90199456  0.30359337  0.09806263  1
  Sc  Sc64  1  0.89609727  0.10085304  0.90457426  1
  Sc  Sc65  1  0.30499777  0.89429518  0.49140379  1
  Sc  Sc66  1  0.50067073  0.89940834  0.69644399  1
  Sc  Sc67  1  0.49879972  0.89452151  0.50308690  1
  Sc  Sc68  1  0.50646889  0.50767107  0.09970329  1
  Sc  Sc69  1  0.89581956  0.29900205  0.90152359  1
  Sc  Sc70  1  0.09576073  0.50446031  0.70330221  1
  Sc  Sc71  1  0.08815009  0.50315299  0.09585929  1
  Sc  Sc72  1  0.90769878  0.70461994  0.30067484  1
  Sc  Sc73  1  0.30284987  0.29892618  0.50244929  1
  Sc  Sc74  1  0.10103500  0.29417335  0.70530978  1
  Sc  Sc75  1  0.09489057  0.50382956  0.50165839  1
  Sc  Sc76  1  0.89643209  0.89255630  0.90149137  1
  Sc  Sc77  1  0.30863303  0.50744370  0.10391242  1
  Sc  Sc78  1  0.69745230  0.89978802  0.69508954  1
  Sc  Sc79  1  0.69342421  0.29330888  0.48537805  1
  Sc  Sc80  1  0.09354074  0.90281333  0.88798148  1
  Sc  Sc81  1  0.49889642  0.70544368  0.50639668  1
  Sc  Sc82  1  0.09772018  0.10039072  0.70473123  1
  Sc  Sc83  1  0.30660776  0.70017478  0.09988617  1
  Sc  Sc84  1  0.28636945  0.51397706  0.89208594  1
  Sc  Sc85  1  0.50527064  0.69711740  0.29889916  1
  Sc  Sc86  1  0.10171982  0.09534993  0.30981712  1
  Sc  Sc87  1  0.70175186  0.69799663  0.30499334  1
  Sc  Sc88  1  0.51041664  0.30803807  0.30555670  1
  Sc  Sc89  1  0.70040200  0.11054600  0.29928331  1
  Sc  Sc90  1  0.70935692  0.50738319  0.49820279  1
  Sc  Sc91  1  0.09630254  0.70145060  0.69372475  1
  Sc  Sc92  1  0.50486432  0.89554037  0.10796915  1
  Sc  Sc93  1  0.49982101  0.28799526  0.89155851  1
  Sc  Sc94  1  0.29988785  0.30585402  0.30554661  1
  Sc  Sc95  1  0.70890573  0.70513093  0.90049897  1
  Sc  Sc96  1  0.09301221  0.49898610  0.31196495  1
  Sc  Sc97  1  0.90513777  0.09395152  0.69828764  1
  Sc  Sc98  1  0.09481260  0.10464470  0.89930115  1
  Sc  Sc99  1  0.90312723  0.49646502  0.50594975  1
  Nb  Nb100  1  0.50178347  0.69826177  0.89873235  1
  Nb  Nb101  1  0.30210333  0.09465556  0.30003500  1
  Nb  Nb102  1  0.70474254  0.70036735  0.10373164  1
  Nb  Nb103  1  0.49899197  0.09706504  0.90440764  1
  Nb  Nb104  1  0.10415935  0.90259980  0.10212649  1
  Nb  Nb105  1  0.29617701  0.10179318  0.70018651  1
  Nb  Nb106  1  0.49194099  0.90234815  0.30071177  1
  Nb  Nb107  1  0.90031347  0.70016485  0.89880376  1
  Nb  Nb108  1  0.89891532  0.50386457  0.09939500  1
  Nb  Nb109  1  0.50655356  0.09746032  0.09729184  1
  Nb  Nb110  1  0.31158454  0.09213636  0.89736874  1
  Nb  Nb111  1  0.10411051  0.69883337  0.30169291  1
  Nb  Nb112  1  0.69616349  0.49362175  0.69906499  1
  Nb  Nb113  1  0.69852318  0.09525405  0.09913565  1
  Nb  Nb114  1  0.50327778  0.49939552  0.90171360  1
  Nb  Nb115  1  0.89597380  0.70617205  0.09689298  1
  Nb  Nb116  1  0.10031145  0.90320592  0.50337592  1
  Nb  Nb117  1  0.70073135  0.09676671  0.70056319  1
  Nb  Nb118  1  0.89755224  0.09289402  0.29689031  1
  Nb  Nb119  1  0.30019954  0.90409384  0.90322787  1
  Nb  Nb120  1  0.50223586  0.29844597  0.50138145  1
  Nb  Nb121  1  0.30949068  0.91139198  0.30180540  1
  Nb  Nb122  1  0.70018993  0.90255305  0.89878303  1
  Nb  Nb123  1  0.90104065  0.90178479  0.70506604  1
  Nb  Nb124  1  0.29154950  0.49728315  0.50005388  1
  Nb  Nb125  1  0.80056698  0.00194448  0.19607062  1
  Nb  Nb126  1  0.79629603  -0.00336861  0.79827667  1
  Nb  Nb127  1  0.59940854  0.39791940  0.60198894  1
  Nb  Nb128  1  0.39149612  0.00665326  0.60300026  1
  Nb  Nb129  1  0.20635489  -0.00174750  0.19718259  1
  Nb  Nb130  1  0.20326839  0.40142049  0.00205800  1
  Nb  Nb131  1  0.59346649  0.40307382  0.79506739  1
  Nb  Nb132  1  0.80711308  0.60487495  0.00582597  1
  Nb  Nb133  1  0.80407486  0.60321253  0.19153668  1
  Nb  Nb134  1  0.20174317  0.40146973  0.60063908  1
  Nb  Nb135  1  0.40057085  0.19686072  0.20251418  1
  Nb  Nb136  1  0.20444770  -0.00605652  -0.00034352  1
  Nb  Nb137  1  0.40022685  0.40453303  0.80292440  1
  Nb  Nb138  1  0.40408028  0.19547610  0.39487878  1
  Nb  Nb139  1  0.59827200  -0.00437082  0.39553671  1
  Nb  Nb140  1  0.39794068  0.40383610  -0.01208148  1
  Nb  Nb141  1  0.20524197  0.19567195  0.20241105  1
  Nb  Nb142  1  0.60075155  0.19270545  0.00196667  1
  Nb  Nb143  1  0.79913972  0.19494452  0.59867005  1
  Nb  Nb144  1  0.19424537  0.60062005  0.20745848  1
  Nb  Nb145  1  0.19907841  0.80814972  -0.00236026  1
  Nb  Nb146  1  0.20156677  -0.00062536  0.59970951  1
  Nb  Nb147  1  0.19786764  0.40315740  0.19717218  1
  Nb  Nb148  1  0.59928124  0.79797641  0.80485240  1
  Nb  Nb149  1  0.60087494  0.00261445  -0.00047877  1
  Pd  Pd150  1  -0.00440094  0.80145559  0.40698379  1
  Pd  Pd151  1  0.40295628  0.60682588  0.40184630  1
  Pd  Pd152  1  0.79870737  0.80108245  0.60862174  1
  Pd  Pd153  1  0.61082625  0.60676773  -0.00633137  1
  Pd  Pd154  1  0.59964350  0.80239796  -0.00564687  1
  Pd  Pd155  1  0.59597109  0.59838999  0.40774022  1
  Pd  Pd156  1  0.19561715  0.00667090  0.80290649  1
  Pd  Pd157  1  0.20785083  0.80006847  0.19475358  1
  Pd  Pd158  1  0.59512202  0.20529316  0.19656186  1
  Pd  Pd159  1  0.59453433  -0.00563871  0.59540110  1
  Pd  Pd160  1  0.19654392  0.60419595  0.01312903  1
  Pd  Pd161  1  0.19270376  0.19271041  0.00054453  1
  Pd  Pd162  1  0.59718432  0.59004113  0.58877455  1
  Pd  Pd163  1  0.00344518  0.40267954  0.20205716  1
  Pd  Pd164  1  0.60548149  0.60023821  0.80838774  1
  Pd  Pd165  1  -0.00036497  0.60546581  0.20195923  1
  Pd  Pd166  1  0.00650224  -0.00388860  0.40011322  1
  Pd  Pd167  1  0.40210909  0.59889842  0.59105316  1
  Pd  Pd168  1  0.61341635  0.21014870  0.60669562  1
  Pd  Pd169  1  0.39980931  0.59795238  0.80376925  1
  Pd  Pd170  1  0.78673239  0.38897842  0.59184120  1
  Pd  Pd171  1  -0.00604717  0.19818656  0.60530918  1
  Pd  Pd172  1  0.41441547  0.21078358  0.00681565  1
  Pd  Pd173  1  0.20284744  0.80523056  0.39950045  1
  Pd  Pd174  1  0.19154919  0.79782282  0.80325777  1
  Pd  Pd175  1  0.20382740  0.80880877  0.59842244  1
  Pd  Pd176  1  0.79903872  0.59165858  0.80688251  1
  Pd  Pd177  1  0.40416544  0.00235182  0.79203810  1
  Pd  Pd178  1  -0.00295515  0.60411514  -0.00023553  1
  Pd  Pd179  1  0.00475714  -0.00399877  -0.00756794  1
  Pd  Pd180  1  0.40688743  0.80100884  0.79788535  1
  Pd  Pd181  1  0.79878696  0.40770712  0.19893589  1
  Pd  Pd182  1  0.39888801  0.59528263  -0.00674541  1
  Pd  Pd183  1  -0.00178284  0.40179628  0.79390218  1
  Pd  Pd184  1  0.80399651  0.19579215  0.19670997  1
  Pd  Pd185  1  0.59421268  0.80454863  0.39846063  1
  Pd  Pd186  1  0.40471577  0.79379034  0.39897869  1
  Pd  Pd187  1  0.80612816  0.79618811  0.39685110  1
  Pd  Pd188  1  -0.00277660  0.60297350  0.40565674  1
  Pd  Pd189  1  0.39025304  0.19145629  0.59237844  1
  Pd  Pd190  1  0.39378130  0.60760026  0.20879590  1
  Pd  Pd191  1  -0.00860216  0.19956122  0.80123565  1
  Pd  Pd192  1  0.79986933  0.39960340  0.40617842  1
  Pd  Pd193  1  0.39732178  0.39909296  0.19781346  1
  Pd  Pd194  1  0.40108113  0.39202704  0.40285374  1
  Pd  Pd195  1  -0.00605809  0.19838743  0.39194132  1
  Pd  Pd196  1  0.39733219  0.00114622  0.18829530  1
  Pd  Pd197  1  0.00755015  0.80226561  -0.00630104  1
  Pd  Pd198  1  0.59680674  0.79379336  0.20229531  1
  Pd  Pd199  1  0.00408390  0.19249988  0.20670522  1
  Rh  Rh200  1  0.80695511  0.20075939  0.40117323  1
  Rh  Rh201  1  0.19477544  0.60243173  0.39770532  1
  Rh  Rh202  1  0.60509832  0.40626655  0.20482754  1
  Rh  Rh203  1  -0.00079461  0.79798966  0.20133187  1
  Rh  Rh204  1  0.79348878  0.80822246  0.79809579  1
  Rh  Rh205  1  0.60156335  0.40789370  0.40926667  1
  Rh  Rh206  1  -0.00559525  0.39953408  0.40224011  1
  Rh  Rh207  1  0.40112641  0.79742101  -0.00071643  1
  Rh  Rh208  1  0.39076070  0.80637299  0.60263424  1
  Rh  Rh209  1  0.19956364  0.18813604  0.80545719  1
  Rh  Rh210  1  0.19904788  0.19969024  0.60141336  1
  Rh  Rh211  1  -0.00392659  0.60065774  0.79555166  1
  Rh  Rh212  1  0.19354437  0.59388094  0.59910457  1
  Rh  Rh213  1  0.80626571  0.79917898  0.20514058  1
  Rh  Rh214  1  0.19313950  -0.01278779  0.39714320  1
  Rh  Rh215  1  0.00550464  0.00375792  0.59772641  1
  Rh  Rh216  1  0.01133007  0.39920917  0.60533838  1
  Rh  Rh217  1  0.80859659  0.18841975  0.78938719  1
  Rh  Rh218  1  0.39668356  0.40308604  0.60155990  1
  Rh  Rh219  1  0.40419856  -0.00747919  0.00536912  1
  Rh  Rh220  1  0.60910451  -0.00683619  0.19826966  1
  Rh  Rh221  1  0.80386701  0.79592282  -0.00488247  1
  Rh  Rh222  1  0.79567947  0.40685662  0.80273216  1
  Rh  Rh223  1  0.58898025  0.38666721  -0.01394191  1
  Rh  Rh224  1  -0.00627761  0.79899092  0.59840200  1
  Rh  Rh225  1  0.78835812  0.00202575  0.38455258  1
  Rh  Rh226  1  0.60157335  0.20482259  0.80226513  1
  Rh  Rh227  1  0.00323505  0.39859138  -0.00152221  1
  Rh  Rh228  1  0.39768312  0.19411501  0.79847067  1
  Rh  Rh229  1  0.41272658  0.00556064  0.41168082  1
  Rh  Rh230  1  0.40621022  0.79571107  0.20757937  1
  Rh  Rh231  1  -0.00058888  0.79613847  0.80192530  1
  Rh  Rh232  1  0.59111818  0.19285960  0.39073618  1
  Rh  Rh233  1  -0.00349806  0.60231151  0.60207518  1
  Rh  Rh234  1  0.80008190  0.59817867  0.60377408  1
  Rh  Rh235  1  0.20732557  0.20769786  0.39308253  1
  Rh  Rh236  1  0.80235112  0.00295354  0.61136902  1
  Rh  Rh237  1  0.80551818  0.60423581  0.39307255  1
  Rh  Rh238  1  0.79556590  -0.00220296  -0.00141603  1
  Rh  Rh239  1  0.60968429  0.60154188  0.19850084  1
  Rh  Rh240  1  0.80839282  0.40559579  0.00073741  1
  Rh  Rh241  1  0.60383788  -0.00744033  0.80512903  1
  Rh  Rh242  1  0.79619205  0.20188092  0.00635262  1
  Rh  Rh243  1  -0.01283350  0.00119463  0.80586141  1
  Rh  Rh244  1  0.00147633  0.00267902  0.20398304  1
  Rh  Rh245  1  0.20468567  0.40231562  0.79892452  1
  Rh  Rh246  1  0.19676191  0.39857081  0.40722430  1
  Rh  Rh247  1  -0.00524976  0.20395325  -0.00397219  1
  Rh  Rh248  1  0.60562340  0.79839696  0.60624338  1
  Rh  Rh249  1  0.19543951  0.60975322  0.79038705  1
