# generated using pymatgen
data_ZrScNbPdRh
_symmetry_space_group_name_H-M   'P 1'
_cell_length_a   16.55665099
_cell_length_b   16.55978656
_cell_length_c   16.56109215
_cell_angle_alpha   89.97428629
_cell_angle_beta   89.96096915
_cell_angle_gamma   89.98242469
_symmetry_Int_Tables_number   1
_chemical_formula_structural   ZrScNbPdRh
_chemical_formula_sum   'Zr50 Sc50 Nb50 Pd50 Rh50'
_cell_volume   4540.62920065
_cell_formula_units_Z   50
loop_
 _symmetry_equiv_pos_site_id
 _symmetry_equiv_pos_as_xyz
  1  'x, y, z'
loop_
 _atom_site_type_symbol
 _atom_site_label
 _atom_site_symmetry_multiplicity
 _atom_site_fract_x
 _atom_site_fract_y
 _atom_site_fract_z
 _atom_site_occupancy
  Zr  Zr0  1  0.89693177  0.88949249  0.50209356  1
  Zr  Zr1  1  0.69909373  0.70098545  0.90181930  1
  Zr  Zr2  1  0.09760483  0.30304902  0.30030364  1
  Zr  Zr3  1  0.29849827  0.10412900  0.90002133  1
  Zr  Zr4  1  0.49747613  0.90602259  0.49674316  1
  Zr  Zr5  1  0.89670629  0.09546946  0.10503756  1
  Zr  Zr6  1  0.70856448  0.89989668  0.71365278  1
  Zr  Zr7  1  0.30021419  0.90904076  0.89111868  1
  Zr  Zr8  1  0.69509207  0.30007675  0.29086781  1
  Zr  Zr9  1  0.30391405  0.30343328  0.89026696  1
  Zr  Zr10  1  0.08589991  0.49652414  0.30005855  1
  Zr  Zr11  1  0.69618005  0.08809861  0.90195734  1
  Zr  Zr12  1  0.30012007  0.09878577  0.70350459  1
  Zr  Zr13  1  0.30176393  0.69821748  0.09814123  1
  Zr  Zr14  1  0.09287487  0.30749237  0.09835289  1
  Zr  Zr15  1  0.89084372  0.30769723  0.09907889  1
  Zr  Zr16  1  0.50007783  0.51091569  0.30691213  1
  Zr  Zr17  1  0.90819323  0.90049535  0.70237781  1
  Zr  Zr18  1  0.30109883  0.29578796  0.30688814  1
  Zr  Zr19  1  0.29657427  0.70428210  0.69961976  1
  Zr  Zr20  1  0.30293376  0.09693883  0.09597154  1
  Zr  Zr21  1  0.30135825  0.29720099  0.50436067  1
  Zr  Zr22  1  0.30943512  0.69380721  0.29297322  1
  Zr  Zr23  1  0.90333152  0.70128698  0.90442546  1
  Zr  Zr24  1  0.89854774  0.50095430  0.49608667  1
  Zr  Zr25  1  0.10375211  0.70313973  0.50521932  1
  Zr  Zr26  1  0.50429290  0.69729035  0.90064313  1
  Zr  Zr27  1  0.50380414  0.89556381  0.30041689  1
  Zr  Zr28  1  0.69733485  0.10149218  0.50645369  1
  Zr  Zr29  1  0.50615312  0.68592188  0.49656123  1
  Zr  Zr30  1  0.88731546  0.89516430  0.89189583  1
  Zr  Zr31  1  0.69822560  0.09624171  0.29833270  1
  Zr  Zr32  1  0.89250046  0.30297586  0.50427410  1
  Zr  Zr33  1  0.30473607  0.51077246  0.09926208  1
  Zr  Zr34  1  0.30062829  0.09450506  0.30272945  1
  Zr  Zr35  1  0.10384475  0.09711227  0.50732268  1
  Zr  Zr36  1  0.10518456  0.09692842  0.89502371  1
  Zr  Zr37  1  0.30266147  0.30455641  0.09470781  1
  Zr  Zr38  1  0.09357385  0.90178176  0.89163182  1
  Zr  Zr39  1  0.70134195  0.89228390  0.49691773  1
  Zr  Zr40  1  0.89835326  0.30709457  0.90394090  1
  Zr  Zr41  1  0.30422492  0.09461428  0.49229166  1
  Zr  Zr42  1  0.90382855  0.89151692  0.29735699  1
  Zr  Zr43  1  0.69756739  0.89461127  0.30352552  1
  Zr  Zr44  1  0.90155785  0.50130117  0.09936979  1
  Zr  Zr45  1  0.69633792  0.30137678  0.69822862  1
  Zr  Zr46  1  0.11407649  0.29885233  0.69637815  1
  Zr  Zr47  1  0.69196213  0.10447686  0.10343804  1
  Zr  Zr48  1  0.89509025  0.89224220  0.09996597  1
  Zr  Zr49  1  0.10230285  0.09830307  0.31300189  1
  Sc  Sc50  1  0.09989862  0.29587951  0.89739444  1
  Sc  Sc51  1  0.89154708  0.50273010  0.90234871  1
  Sc  Sc52  1  0.89846687  0.08781330  0.30068779  1
  Sc  Sc53  1  0.30328633  0.30094928  0.70030519  1
  Sc  Sc54  1  0.90731053  0.10039083  0.89605678  1
  Sc  Sc55  1  0.50330459  0.10347453  0.70388431  1
  Sc  Sc56  1  0.10000051  0.09606337  0.08697277  1
  Sc  Sc57  1  0.69917445  0.11013315  0.70548749  1
  Sc  Sc58  1  0.49972068  0.90268840  0.10302979  1
  Sc  Sc59  1  0.50902844  0.50197859  0.69104591  1
  Sc  Sc60  1  0.09631586  0.70050482  0.88710452  1
  Sc  Sc61  1  0.50456222  0.49083797  0.50013223  1
  Sc  Sc62  1  0.68866679  0.49705247  0.30133822  1
  Sc  Sc63  1  0.50383289  0.29724522  0.70270217  1
  Sc  Sc64  1  0.50069422  0.90302499  0.89772604  1
  Sc  Sc65  1  0.09917846  0.29040537  0.49945625  1
  Sc  Sc66  1  0.50330773  0.69480318  0.10312954  1
  Sc  Sc67  1  0.09397631  0.09850746  0.70130885  1
  Sc  Sc68  1  0.29597954  0.69918186  0.50052888  1
  Sc  Sc69  1  0.10067872  0.50175766  0.10462933  1
  Sc  Sc70  1  0.09409553  0.50688002  0.50154122  1
  Sc  Sc71  1  0.90897943  0.09851065  0.50540060  1
  Sc  Sc72  1  0.09804261  0.51072081  0.89123292  1
  Sc  Sc73  1  0.29871927  0.49255438  0.69561365  1
  Sc  Sc74  1  0.69254943  0.70311551  0.09552285  1
  Sc  Sc75  1  0.10239990  0.51821936  0.69556023  1
  Sc  Sc76  1  0.09586876  0.70891601  0.30419814  1
  Sc  Sc77  1  0.90087496  0.31672571  0.30409349  1
  Sc  Sc78  1  0.49978869  0.10789619  0.90234759  1
  Sc  Sc79  1  0.49601456  0.30374642  0.90115552  1
  Sc  Sc80  1  0.69909691  0.49388472  0.09657435  1
  Sc  Sc81  1  0.29380965  0.89714649  0.29562872  1
  Sc  Sc82  1  0.29890767  0.90705642  0.10639619  1
  Sc  Sc83  1  0.09834053  0.90363356  0.10220204  1
  Sc  Sc84  1  0.89967539  0.09972622  0.70192945  1
  Sc  Sc85  1  0.69843987  0.49919956  0.50873632  1
  Sc  Sc86  1  0.31261495  0.49988942  0.50432633  1
  Sc  Sc87  1  0.89925352  0.69934278  0.69779922  1
  Sc  Sc88  1  0.50567436  0.49867800  0.90563538  1
  Sc  Sc89  1  0.49923957  0.08969512  0.30263366  1
  Sc  Sc90  1  0.50507315  0.30814827  0.30747168  1
  Sc  Sc91  1  0.29710268  0.89725488  0.49382427  1
  Sc  Sc92  1  0.88227488  0.29578909  0.70380046  1
  Sc  Sc93  1  0.69682394  0.30509766  0.51032889  1
  Sc  Sc94  1  0.50398442  0.50232526  0.09551279  1
  Sc  Sc95  1  0.70593441  0.68596446  0.69932757  1
  Sc  Sc96  1  0.09535534  0.69874791  0.09279414  1
  Sc  Sc97  1  0.69662204  0.30884115  0.89498544  1
  Sc  Sc98  1  0.09852826  0.89131915  0.49876234  1
  Sc  Sc99  1  0.29962263  0.69465781  0.89754140  1
  Nb  Nb100  1  0.31142091  0.49749667  0.90476485  1
  Nb  Nb101  1  0.89570357  0.50060902  0.69902456  1
  Nb  Nb102  1  0.89720829  0.70052418  0.10458125  1
  Nb  Nb103  1  0.29943687  0.50135945  0.29536668  1
  Nb  Nb104  1  0.10580310  0.70458948  0.69709816  1
  Nb  Nb105  1  0.70043045  0.90060134  0.07778846  1
  Nb  Nb106  1  0.49946006  0.11012476  0.10534796  1
  Nb  Nb107  1  0.49987991  0.70099848  0.70233743  1
  Nb  Nb108  1  0.69478735  0.29678240  0.10686014  1
  Nb  Nb109  1  0.49723720  0.09518607  0.49882182  1
  Nb  Nb110  1  0.68910087  0.69889440  0.30416434  1
  Nb  Nb111  1  0.69893845  0.89345993  0.90618930  1
  Nb  Nb112  1  0.89927717  0.50973388  0.30301122  1
  Nb  Nb113  1  0.70845036  0.49528979  0.70825209  1
  Nb  Nb114  1  0.89622784  0.70249997  0.29620360  1
  Nb  Nb115  1  0.51096717  0.69690600  0.30033829  1
  Nb  Nb116  1  0.50048366  0.29633833  0.50333881  1
  Nb  Nb117  1  0.71015693  0.70414014  0.49987156  1
  Nb  Nb118  1  0.69765026  0.50601439  0.89227231  1
  Nb  Nb119  1  0.50823464  0.30009258  0.10676007  1
  Nb  Nb120  1  0.30754868  0.90052951  0.70021984  1
  Nb  Nb121  1  0.88978478  0.70282210  0.49808410  1
  Nb  Nb122  1  0.10497634  0.89455441  0.69796906  1
  Nb  Nb123  1  0.49549551  0.89630652  0.69907476  1
  Nb  Nb124  1  0.10256117  0.89806929  0.30834695  1
  Nb  Nb125  1  -0.00331934  0.40449262  0.78885650  1
  Nb  Nb126  1  0.59937107  0.19780335  0.40584114  1
  Nb  Nb127  1  0.80010777  0.60684341  0.39479076  1
  Nb  Nb128  1  0.40308201  0.59852170  0.79768461  1
  Nb  Nb129  1  0.20209320  0.40638403  0.39727426  1
  Nb  Nb130  1  0.40326495  0.19485929  0.59308790  1
  Nb  Nb131  1  0.39502208  0.79998245  -0.00180060  1
  Nb  Nb132  1  0.40086703  0.40096046  0.20055880  1
  Nb  Nb133  1  0.20308145  0.59337440  0.39275260  1
  Nb  Nb134  1  0.79265931  0.20274414  0.00702512  1
  Nb  Nb135  1  0.19900931  0.19997974  0.19797947  1
  Nb  Nb136  1  0.40775201  0.79159042  0.39811487  1
  Nb  Nb137  1  0.79591858  -0.00532630  0.60233939  1
  Nb  Nb138  1  0.20447316  0.80338321  -0.00451904  1
  Nb  Nb139  1  0.40596569  0.80087129  0.60095050  1
  Nb  Nb140  1  0.40144269  0.20369901  0.19914111  1
  Nb  Nb141  1  -0.00396989  0.40124509  0.60922997  1
  Nb  Nb142  1  0.59951647  -0.00705742  0.60392260  1
  Nb  Nb143  1  0.59919222  0.79862366  0.79590526  1
  Nb  Nb144  1  0.00284091  0.20042500  0.19997777  1
  Nb  Nb145  1  0.79426671  0.20145317  0.39954989  1
  Nb  Nb146  1  0.59855438  0.79867031  0.60491633  1
  Nb  Nb147  1  0.20266880  -0.00770311  0.60596682  1
  Nb  Nb148  1  0.80176433  0.60657884  0.20569393  1
  Nb  Nb149  1  0.20717097  0.40793540  -0.00635484  1
  Pd  Pd150  1  0.19874829  0.20892100  0.00043575  1
  Pd  Pd151  1  0.79812462  0.41333559  0.20471265  1
  Pd  Pd152  1  -0.00010143  -0.00949146  0.40758770  1
  Pd  Pd153  1  0.40649898  -0.00352056  0.00139184  1
  Pd  Pd154  1  0.80615628  0.00662359  -0.00317407  1
  Pd  Pd155  1  0.19494250  0.60181612  -0.00691419  1
  Pd  Pd156  1  0.40505009  0.79857755  0.19817589  1
  Pd  Pd157  1  0.59401825  0.40497204  0.79714642  1
  Pd  Pd158  1  -0.01376689  0.20258148  0.39296362  1
  Pd  Pd159  1  0.00465291  0.80428788  -0.00085496  1
  Pd  Pd160  1  -0.00935054  0.19723115  0.00582954  1
  Pd  Pd161  1  0.58757349  0.00098163  0.00421898  1
  Pd  Pd162  1  0.78645630  0.79762411  0.19573648  1
  Pd  Pd163  1  0.00076774  0.21017490  0.79318835  1
  Pd  Pd164  1  -0.00162157  0.79335530  0.60290560  1
  Pd  Pd165  1  0.60482779  0.80434158  0.18964748  1
  Pd  Pd166  1  0.39810729  0.40339188  0.39846269  1
  Pd  Pd167  1  0.18666966  0.60730818  0.20675163  1
  Pd  Pd168  1  -0.00577867  0.20908466  0.61051798  1
  Pd  Pd169  1  0.20194924  0.80149631  0.80461327  1
  Pd  Pd170  1  0.40429564  0.20580455  0.00160477  1
  Pd  Pd171  1  0.19186270  0.40880701  0.58905049  1
  Pd  Pd172  1  0.60859175  0.60068344  0.60121170  1
  Pd  Pd173  1  0.20633916  0.39921133  0.19796401  1
  Pd  Pd174  1  -0.00849256  -0.00719951  -0.00424305  1
  Pd  Pd175  1  0.19069425  0.00658429  0.20071246  1
  Pd  Pd176  1  0.19317531  0.40949087  0.80406467  1
  Pd  Pd177  1  0.00826731  0.79874147  0.19663673  1
  Pd  Pd178  1  0.60345348  0.39734729  0.00056002  1
  Pd  Pd179  1  -0.00661123  0.60332743  0.60179969  1
  Pd  Pd180  1  0.00225681  0.59690716  -0.00267303  1
  Pd  Pd181  1  0.60445263  0.20817319  -0.00715933  1
  Pd  Pd182  1  0.80424798  0.00365128  0.40872030  1
  Pd  Pd183  1  0.19308313  0.79589469  0.19384559  1
  Pd  Pd184  1  0.21126595  0.59393905  0.79861309  1
  Pd  Pd185  1  0.59567445  -0.00341531  0.79679992  1
  Pd  Pd186  1  0.39706338  0.60269635  0.60605689  1
  Pd  Pd187  1  0.01032601  0.41155066  -0.01276893  1
  Pd  Pd188  1  -0.00029444  0.61302434  0.40348503  1
  Pd  Pd189  1  0.79363832  0.19668074  0.81471331  1
  Pd  Pd190  1  0.78885437  0.40334075  0.39748539  1
  Pd  Pd191  1  0.79358331  0.60301853  0.00828240  1
  Pd  Pd192  1  0.60285176  -0.00633634  0.19315274  1
  Pd  Pd193  1  0.81069287  0.20175109  0.20584255  1
  Pd  Pd194  1  0.41001486  0.00753909  0.80158752  1
  Pd  Pd195  1  -0.00045734  0.60572941  0.19861427  1
  Pd  Pd196  1  0.00865270  0.00411122  0.20247523  1
  Pd  Pd197  1  0.78909037  -0.01286967  0.19575872  1
  Pd  Pd198  1  0.80647738  0.60327365  0.80276095  1
  Pd  Pd199  1  0.41114838  0.40992175  0.79080482  1
  Rh  Rh200  1  0.61212703  0.59662154  0.40771953  1
  Rh  Rh201  1  0.80222240  0.79264388  0.00297761  1
  Rh  Rh202  1  0.20825906  0.80724934  0.60252379  1
  Rh  Rh203  1  0.00335722  -0.00648489  0.60097001  1
  Rh  Rh204  1  0.39507533  0.60341556  0.40084719  1
  Rh  Rh205  1  0.21040844  0.18744255  0.59932476  1
  Rh  Rh206  1  0.58760374  0.19834473  0.21361646  1
  Rh  Rh207  1  0.20516239  0.59928692  0.59279626  1
  Rh  Rh208  1  0.80543989  0.18969983  0.59261572  1
  Rh  Rh209  1  0.40315887  0.00584503  0.20099755  1
  Rh  Rh210  1  0.00064754  -0.00112749  0.79735556  1
  Rh  Rh211  1  0.00830239  0.39645486  0.41643550  1
  Rh  Rh212  1  -0.00400598  0.79805743  0.40090326  1
  Rh  Rh213  1  0.19509412  -0.00063261  0.79019474  1
  Rh  Rh214  1  0.80097771  0.40601921  0.60464414  1
  Rh  Rh215  1  0.60111570  0.40012201  0.60474891  1
  Rh  Rh216  1  0.19703396  0.20493286  0.39917256  1
  Rh  Rh217  1  0.40470144  0.79204826  0.80215483  1
  Rh  Rh218  1  0.80395609  0.40342990  0.80358674  1
  Rh  Rh219  1  0.00080278  0.79279161  0.79231269  1
  Rh  Rh220  1  0.80131840  0.79448963  0.38907741  1
  Rh  Rh221  1  0.59433131  0.79362370  0.40842688  1
  Rh  Rh222  1  0.60143837  0.20337038  0.80744582  1
  Rh  Rh223  1  0.40194097  0.39924663  0.00681523  1
  Rh  Rh224  1  0.80263534  0.00796235  0.79928165  1
  Rh  Rh225  1  -0.00537617  0.60123565  0.79279420  1
  Rh  Rh226  1  0.79547801  0.78823259  0.79988472  1
  Rh  Rh227  1  0.19884053  -0.00967386  -0.00400829  1
  Rh  Rh228  1  0.78724862  0.39657143  -0.00316751  1
  Rh  Rh229  1  0.20014042  0.19902627  0.79888501  1
  Rh  Rh230  1  -0.01035237  0.40032999  0.19728910  1
  Rh  Rh231  1  0.80086003  0.59536910  0.59392315  1
  Rh  Rh232  1  0.41338212  0.19964506  0.40012287  1
  Rh  Rh233  1  0.59018436  0.19307870  0.59696667  1
  Rh  Rh234  1  0.60661702  0.59652545  0.19631676  1
  Rh  Rh235  1  0.41203373  0.59474746  0.19807319  1
  Rh  Rh236  1  0.60288139  0.39436588  0.40684716  1
  Rh  Rh237  1  0.60430618  0.00462353  0.40448280  1
  Rh  Rh238  1  0.79610396  0.80269567  0.61103591  1
  Rh  Rh239  1  0.40606881  0.60648298  -0.00552849  1
  Rh  Rh240  1  0.59777654  0.59842127  0.79846962  1
  Rh  Rh241  1  0.60608963  0.59496768  -0.00001630  1
  Rh  Rh242  1  0.39805606  0.00188308  0.60416541  1
  Rh  Rh243  1  0.20949310  0.79118552  0.39270670  1
  Rh  Rh244  1  0.40680794  0.38877861  0.60399502  1
  Rh  Rh245  1  0.40047014  0.20026220  0.79387553  1
  Rh  Rh246  1  0.39539036  -0.01478638  0.38905313  1
  Rh  Rh247  1  0.58852414  0.80506489  -0.00379218  1
  Rh  Rh248  1  0.59092366  0.40731068  0.19857002  1
  Rh  Rh249  1  0.19618862  -0.00923177  0.40836727  1
