# generated using pymatgen
data_ZrScNbPdRh
_symmetry_space_group_name_H-M   'P 1'
_cell_length_a   16.55976307
_cell_length_b   16.55819896
_cell_length_c   16.55974528
_cell_angle_alpha   89.99017567
_cell_angle_beta   89.98094923
_cell_angle_gamma   90.01607130
_symmetry_Int_Tables_number   1
_chemical_formula_structural   ZrScNbPdRh
_chemical_formula_sum   'Zr50 Sc50 Nb50 Pd50 Rh50'
_cell_volume   4540.67920142
_cell_formula_units_Z   50
loop_
 _symmetry_equiv_pos_site_id
 _symmetry_equiv_pos_as_xyz
  1  'x, y, z'
loop_
 _atom_site_type_symbol
 _atom_site_label
 _atom_site_symmetry_multiplicity
 _atom_site_fract_x
 _atom_site_fract_y
 _atom_site_fract_z
 _atom_site_occupancy
  Zr  Zr0  1  0.50066992  0.09773033  0.90463203  1
  Zr  Zr1  1  0.49074847  0.69776837  0.49748689  1
  Zr  Zr2  1  0.30351073  0.30216112  0.90776745  1
  Zr  Zr3  1  0.90195948  0.70263874  0.69312406  1
  Zr  Zr4  1  0.29776198  0.70333250  0.10280656  1
  Zr  Zr5  1  0.70869984  0.70137675  0.50137810  1
  Zr  Zr6  1  0.90040905  0.70530084  0.10769883  1
  Zr  Zr7  1  0.89851363  0.30500483  0.69625791  1
  Zr  Zr8  1  0.89958945  0.49689120  0.09887547  1
  Zr  Zr9  1  0.49388736  0.90478172  0.70338758  1
  Zr  Zr10  1  0.70212361  0.49742920  0.69976091  1
  Zr  Zr11  1  0.89440340  0.10220294  0.49680096  1
  Zr  Zr12  1  0.89003750  0.09631598  0.29666266  1
  Zr  Zr13  1  0.49619811  0.90237061  0.49820881  1
  Zr  Zr14  1  0.51262869  0.50154726  0.10663583  1
  Zr  Zr15  1  0.49541457  0.89848278  0.30600798  1
  Zr  Zr16  1  0.10382996  0.29983995  0.90084031  1
  Zr  Zr17  1  0.10077487  0.69889102  0.50436891  1
  Zr  Zr18  1  0.69434699  0.70114185  0.09282616  1
  Zr  Zr19  1  0.30061073  0.89498744  0.89972539  1
  Zr  Zr20  1  0.49517129  0.29724194  0.89859343  1
  Zr  Zr21  1  0.69770100  0.50154897  0.89729043  1
  Zr  Zr22  1  0.29831730  0.90087043  0.09354847  1
  Zr  Zr23  1  0.70061319  0.30518826  0.88988288  1
  Zr  Zr24  1  0.50288274  0.09446414  0.50379013  1
  Zr  Zr25  1  0.89529798  0.29218953  0.30333018  1
  Zr  Zr26  1  0.70023419  0.49647539  0.50020511  1
  Zr  Zr27  1  0.69511743  0.89449944  0.90156370  1
  Zr  Zr28  1  0.69286927  0.30001031  0.50041149  1
  Zr  Zr29  1  0.70112499  0.90303977  0.50598871  1
  Zr  Zr30  1  0.09925203  0.69192848  0.10752969  1
  Zr  Zr31  1  0.29244609  0.09750044  0.68998187  1
  Zr  Zr32  1  0.68978616  0.48622078  0.28966739  1
  Zr  Zr33  1  0.10409234  0.90117378  0.70327156  1
  Zr  Zr34  1  0.89958576  0.70639925  0.29885249  1
  Zr  Zr35  1  0.30088508  0.30289308  0.51015290  1
  Zr  Zr36  1  0.48737849  0.29616041  0.10159348  1
  Zr  Zr37  1  0.10702901  0.89956921  0.90426600  1
  Zr  Zr38  1  0.09848085  0.30065097  0.70034447  1
  Zr  Zr39  1  0.29658911  0.30154704  0.09908833  1
  Zr  Zr40  1  0.30064557  0.29944423  0.29223250  1
  Zr  Zr41  1  0.30012998  0.88534461  0.29624874  1
  Zr  Zr42  1  0.10095798  0.30364146  0.29887242  1
  Zr  Zr43  1  0.10612443  0.70208394  0.89794816  1
  Zr  Zr44  1  0.30086127  0.49712081  0.69856619  1
  Zr  Zr45  1  0.48773668  0.70705824  0.30435897  1
  Zr  Zr46  1  0.50151404  0.30460608  0.50211080  1
  Zr  Zr47  1  0.09739647  0.50532691  0.89729089  1
  Zr  Zr48  1  0.69972431  0.08413660  0.10652307  1
  Zr  Zr49  1  0.30697149  0.09596842  0.29538370  1
  Sc  Sc50  1  0.10400860  0.49750232  0.29366610  1
  Sc  Sc51  1  0.09833947  0.50417630  0.69911761  1
  Sc  Sc52  1  0.50815762  0.09993165  0.30748792  1
  Sc  Sc53  1  0.49010615  0.50459444  0.70430296  1
  Sc  Sc54  1  0.89061380  0.90225658  0.89843165  1
  Sc  Sc55  1  0.69538813  0.69776169  0.89869160  1
  Sc  Sc56  1  0.09597056  0.69890621  0.70522264  1
  Sc  Sc57  1  0.89871590  0.30733019  0.09575774  1
  Sc  Sc58  1  0.69959895  0.09666052  0.69000922  1
  Sc  Sc59  1  0.89900428  0.50256921  0.50476961  1
  Sc  Sc60  1  0.90073682  0.49404235  0.30450342  1
  Sc  Sc61  1  0.70003299  0.09072586  0.88428117  1
  Sc  Sc62  1  0.90430404  0.29958946  0.89219931  1
  Sc  Sc63  1  0.09708717  0.10949801  0.91171000  1
  Sc  Sc64  1  0.30129961  0.49910924  0.89642680  1
  Sc  Sc65  1  0.09705146  0.90079877  0.50925662  1
  Sc  Sc66  1  0.09356414  0.30241673  0.50270820  1
  Sc  Sc67  1  0.10424082  0.09808355  0.29589089  1
  Sc  Sc68  1  0.30456462  0.10290248  0.89995403  1
  Sc  Sc69  1  0.30132771  0.30098569  0.70374797  1
  Sc  Sc70  1  0.89860589  0.09222587  0.09007218  1
  Sc  Sc71  1  0.30185751  0.10951930  0.09860081  1
  Sc  Sc72  1  0.70315624  0.70699966  0.30369459  1
  Sc  Sc73  1  0.30257685  0.69405670  0.71350682  1
  Sc  Sc74  1  0.90769579  0.49423300  0.89989316  1
  Sc  Sc75  1  0.90166145  0.70268661  0.89007948  1
  Sc  Sc76  1  0.30281077  0.49901188  0.50385999  1
  Sc  Sc77  1  0.50242078  0.30904667  0.30031815  1
  Sc  Sc78  1  0.50221793  0.09638453  0.70533790  1
  Sc  Sc79  1  0.89651807  0.70080211  0.50460498  1
  Sc  Sc80  1  0.29848552  0.90917521  0.71131034  1
  Sc  Sc81  1  0.50013955  0.30125128  0.70074222  1
  Sc  Sc82  1  0.71193432  0.31381494  0.10819072  1
  Sc  Sc83  1  0.49247152  0.90701218  0.90360688  1
  Sc  Sc84  1  0.30254184  0.70144848  0.90527956  1
  Sc  Sc85  1  0.10667981  0.50071517  0.50835213  1
  Sc  Sc86  1  0.29539968  0.49674747  0.30698051  1
  Sc  Sc87  1  0.29729897  0.68886287  0.48620148  1
  Sc  Sc88  1  0.71171618  0.90642992  0.30065201  1
  Sc  Sc89  1  0.89319412  0.10307332  0.69650879  1
  Sc  Sc90  1  0.89574587  0.89675493  0.69933802  1
  Sc  Sc91  1  0.50365535  0.69788004  0.08612363  1
  Sc  Sc92  1  0.70689159  0.69214947  0.70778419  1
  Sc  Sc93  1  0.49597702  0.50439578  0.89962668  1
  Sc  Sc94  1  0.90606751  0.50290554  0.69649205  1
  Sc  Sc95  1  0.89751556  0.89141745  0.50850180  1
  Sc  Sc96  1  0.29999302  0.49572346  0.09549016  1
  Sc  Sc97  1  0.09735388  0.09811228  0.51233526  1
  Sc  Sc98  1  0.90178089  0.30450031  0.50094909  1
  Sc  Sc99  1  0.70509694  0.90726137  0.70327410  1
  Nb  Nb100  1  0.30383518  0.91073454  0.50517411  1
  Nb  Nb101  1  0.89527834  0.89516848  0.10618768  1
  Nb  Nb102  1  0.90548752  0.89331964  0.29001236  1
  Nb  Nb103  1  0.09259085  0.49370500  0.09925327  1
  Nb  Nb104  1  0.50430406  0.09778232  0.10005551  1
  Nb  Nb105  1  0.10403593  0.89705310  0.29638894  1
  Nb  Nb106  1  0.49652141  0.50210100  0.49585565  1
  Nb  Nb107  1  0.10485197  0.29573013  0.09959411  1
  Nb  Nb108  1  0.30208292  0.09706266  0.49771939  1
  Nb  Nb109  1  0.70197279  0.30680255  0.69620595  1
  Nb  Nb110  1  0.09698681  0.09973466  0.09953306  1
  Nb  Nb111  1  0.69979592  0.89502277  0.09589390  1
  Nb  Nb112  1  0.11352014  0.70213196  0.30233868  1
  Nb  Nb113  1  0.10134254  0.90349295  0.09819172  1
  Nb  Nb114  1  0.70103397  0.50089324  0.09785276  1
  Nb  Nb115  1  0.69947119  0.29170578  0.30150792  1
  Nb  Nb116  1  0.70745388  0.11143698  0.30882751  1
  Nb  Nb117  1  0.51333943  0.91366108  0.09404286  1
  Nb  Nb118  1  0.49408965  0.69910376  0.69976827  1
  Nb  Nb119  1  0.69735936  0.10082806  0.48963730  1
  Nb  Nb120  1  0.29307696  0.69793312  0.29717392  1
  Nb  Nb121  1  0.09936206  0.09462841  0.70373488  1
  Nb  Nb122  1  0.89753187  0.10125827  0.89626519  1
  Nb  Nb123  1  0.49942906  0.69987734  0.89120651  1
  Nb  Nb124  1  0.50131883  0.50369843  0.30220801  1
  Nb  Nb125  1  0.40940199  -0.00329935  0.19322900  1
  Nb  Nb126  1  0.00351046  0.19556182  0.19265337  1
  Nb  Nb127  1  0.79347632  0.19790550  -0.00688683  1
  Nb  Nb128  1  0.40033833  0.60284414  0.20596973  1
  Nb  Nb129  1  0.00108446  0.80605289  0.00860250  1
  Nb  Nb130  1  0.80036370  0.59657412  0.00455796  1
  Nb  Nb131  1  0.00234832  -0.00546344  0.19517641  1
  Nb  Nb132  1  0.39450095  0.80006683  0.60042977  1
  Nb  Nb133  1  0.00192917  -0.00837619  0.39041485  1
  Nb  Nb134  1  0.59600027  0.59650059  0.40162496  1
  Nb  Nb135  1  0.21077888  0.80220953  0.60083583  1
  Nb  Nb136  1  0.60091473  0.39545595  0.00131622  1
  Nb  Nb137  1  0.60775368  0.19866085  0.19985810  1
  Nb  Nb138  1  0.00128410  0.00757990  0.80235471  1
  Nb  Nb139  1  0.59890806  0.80981275  0.19310823  1
  Nb  Nb140  1  0.59101540  0.79697599  0.79585727  1
  Nb  Nb141  1  0.20646914  0.19526558  0.40418528  1
  Nb  Nb142  1  0.39658048  0.19945700  0.40516163  1
  Nb  Nb143  1  0.00716506  0.80144174  0.39154404  1
  Nb  Nb144  1  0.59358835  0.79465110  0.60494641  1
  Nb  Nb145  1  0.59390940  0.60223083  0.59655992  1
  Nb  Nb146  1  0.20064759  -0.00215156  0.40181091  1
  Nb  Nb147  1  0.79538031  0.59678520  0.19550045  1
  Nb  Nb148  1  0.00715552  0.60894286  0.39616106  1
  Nb  Nb149  1  0.60746786  0.20156167  0.00573604  1
  Pd  Pd150  1  0.19531018  0.19792865  0.20200126  1
  Pd  Pd151  1  0.39624802  0.19603311  0.79311867  1
  Pd  Pd152  1  0.19687389  0.39565405  0.40654266  1
  Pd  Pd153  1  0.59057703  0.40980740  0.60683308  1
  Pd  Pd154  1  0.60242409  -0.00013251  0.21443388  1
  Pd  Pd155  1  -0.01012554  0.20583154  0.00524521  1
  Pd  Pd156  1  0.60064813  0.19798505  0.60589860  1
  Pd  Pd157  1  0.20383723  -0.00082839  0.19986250  1
  Pd  Pd158  1  0.20765688  0.60861931  0.60598092  1
  Pd  Pd159  1  0.00622288  0.41234687  0.40657945  1
  Pd  Pd160  1  0.39994287  0.59621458  0.00478632  1
  Pd  Pd161  1  0.19851177  0.40233990  0.79872834  1
  Pd  Pd162  1  0.19483750  0.40680192  0.00097212  1
  Pd  Pd163  1  0.20678237  0.58858101  0.19853559  1
  Pd  Pd164  1  0.79716740  0.39577640  0.39987143  1
  Pd  Pd165  1  0.80951826  0.40662804  0.79870700  1
  Pd  Pd166  1  0.40916528  0.80270786  0.00243674  1
  Pd  Pd167  1  0.40537481  0.19543076  0.60138477  1
  Pd  Pd168  1  -0.00970776  -0.00087818  0.60485140  1
  Pd  Pd169  1  0.59932612  0.61567800  0.21012344  1
  Pd  Pd170  1  0.00432933  0.39349780  -0.00198188  1
  Pd  Pd171  1  0.60502027  0.79809716  0.40097987  1
  Pd  Pd172  1  0.81033168  0.59450082  0.80588299  1
  Pd  Pd173  1  0.19425388  0.20251098  0.59617095  1
  Pd  Pd174  1  -0.00209939  0.81131834  0.80664131  1
  Pd  Pd175  1  0.20169928  0.59503079  0.00139663  1
  Pd  Pd176  1  0.20234820  0.19634875  0.80271323  1
  Pd  Pd177  1  0.79451090  0.20330666  0.59560813  1
  Pd  Pd178  1  0.20090222  0.80879094  0.41260887  1
  Pd  Pd179  1  0.39683118  0.41272163  0.20211894  1
  Pd  Pd180  1  0.60752090  -0.00144354  0.39523598  1
  Pd  Pd181  1  0.00883436  0.18813821  0.39324517  1
  Pd  Pd182  1  0.80251741  0.19853479  0.18499145  1
  Pd  Pd183  1  -0.00430471  0.59500137  0.21039361  1
  Pd  Pd184  1  -0.00748451  0.60958937  -0.00424425  1
  Pd  Pd185  1  -0.00454595  -0.00703563  -0.00262362  1
  Pd  Pd186  1  0.80747626  0.79152751  -0.00567873  1
  Pd  Pd187  1  0.20557323  0.01131807  -0.00199736  1
  Pd  Pd188  1  0.19530628  0.01185321  0.81296259  1
  Pd  Pd189  1  -0.00078945  0.19441045  0.79492782  1
  Pd  Pd190  1  0.39874340  0.39691499  0.39994150  1
  Pd  Pd191  1  -0.00156544  0.19862304  0.60373870  1
  Pd  Pd192  1  0.80879229  -0.00984190  0.40445836  1
  Pd  Pd193  1  -0.00288754  0.39232637  0.20018301  1
  Pd  Pd194  1  0.58994472  0.40530922  0.80013784  1
  Pd  Pd195  1  0.79471863  0.19847096  0.79747100  1
  Pd  Pd196  1  0.41091771  0.80095412  0.18369716  1
  Pd  Pd197  1  0.79821950  0.59522078  0.39016124  1
  Pd  Pd198  1  0.79595082  0.00125490  -0.00495813  1
  Pd  Pd199  1  0.60496124  0.19798742  0.79546330  1
  Rh  Rh200  1  0.19776556  0.40458682  0.19128551  1
  Rh  Rh201  1  0.39771477  0.60142201  0.60019880  1
  Rh  Rh202  1  0.59283325  0.20528411  0.39697925  1
  Rh  Rh203  1  0.80351456  -0.00570901  0.19906043  1
  Rh  Rh204  1  0.59933370  0.40176368  0.39976076  1
  Rh  Rh205  1  0.79607570  0.59733876  0.60423483  1
  Rh  Rh206  1  0.59338854  0.60498657  0.79319720  1
  Rh  Rh207  1  0.19579669  0.80091350  0.19159603  1
  Rh  Rh208  1  0.19409235  0.59158166  0.39693743  1
  Rh  Rh209  1  0.39522390  0.00796723  0.80256319  1
  Rh  Rh210  1  0.40784162  0.40587963  -0.00067619  1
  Rh  Rh211  1  0.19859756  0.39658231  0.60539969  1
  Rh  Rh212  1  0.60221673  -0.00185594  0.59820035  1
  Rh  Rh213  1  0.78921867  0.79914616  0.60884874  1
  Rh  Rh214  1  0.39689255  0.59933145  0.80647070  1
  Rh  Rh215  1  0.80894529  0.00175313  0.79552701  1
  Rh  Rh216  1  0.79851905  0.20782251  0.41206665  1
  Rh  Rh217  1  0.40039554  0.00140030  0.60670713  1
  Rh  Rh218  1  0.39434675  0.00078074  0.39232623  1
  Rh  Rh219  1  0.39755424  0.59307602  0.39038648  1
  Rh  Rh220  1  0.78943629  0.80013555  0.79775862  1
  Rh  Rh221  1  -0.00083354  0.60053052  0.79829063  1
  Rh  Rh222  1  0.80621792  0.40321682  0.21021174  1
  Rh  Rh223  1  0.59704690  -0.00951263  0.80028080  1
  Rh  Rh224  1  0.60876261  0.00546837  -0.00920378  1
  Rh  Rh225  1  0.59146019  0.80366622  -0.00593419  1
  Rh  Rh226  1  0.80199000  0.39878505  0.59907556  1
  Rh  Rh227  1  0.19774013  -0.00430396  0.59608332  1
  Rh  Rh228  1  0.39958802  0.39794056  0.80129221  1
  Rh  Rh229  1  0.01425137  0.80369109  0.19786692  1
  Rh  Rh230  1  0.20557576  0.79628457  0.79403644  1
  Rh  Rh231  1  0.79431737  0.40006275  -0.01165567  1
  Rh  Rh232  1  0.00444418  0.40024040  0.79668105  1
  Rh  Rh233  1  -0.00284804  0.60259443  0.59343865  1
  Rh  Rh234  1  0.80053651  0.00460923  0.59380970  1
  Rh  Rh235  1  0.40263219  0.19517941  0.00035442  1
  Rh  Rh236  1  0.40284436  0.40382060  0.60384463  1
  Rh  Rh237  1  0.00903480  0.79851652  0.60026193  1
  Rh  Rh238  1  0.60167445  0.59350156  -0.01078150  1
  Rh  Rh239  1  0.39453943  0.00441288  0.00679331  1
  Rh  Rh240  1  0.59760569  0.38678016  0.19301331  1
  Rh  Rh241  1  0.20052825  0.59892799  0.80427045  1
  Rh  Rh242  1  0.20218747  0.19933964  0.00113739  1
  Rh  Rh243  1  0.40092627  0.80012726  0.79953511  1
  Rh  Rh244  1  0.41570320  0.18849714  0.20990810  1
  Rh  Rh245  1  0.00110059  0.40345404  0.60038744  1
  Rh  Rh246  1  0.38429130  0.80161790  0.41084273  1
  Rh  Rh247  1  0.81033038  0.80777849  0.40047407  1
  Rh  Rh248  1  0.19221237  0.79315725  0.00660335  1
  Rh  Rh249  1  0.78516525  0.79861569  0.19839263  1
