# generated using pymatgen
data_ZrScNbPdRh
_symmetry_space_group_name_H-M   'P 1'
_cell_length_a   16.56256129
_cell_length_b   16.56122019
_cell_length_c   16.56298143
_cell_angle_alpha   89.98458092
_cell_angle_beta   90.03172109
_cell_angle_gamma   89.97389750
_symmetry_Int_Tables_number   1
_chemical_formula_structural   ZrScNbPdRh
_chemical_formula_sum   'Zr50 Sc50 Nb50 Pd50 Rh50'
_cell_volume   4543.16194085
_cell_formula_units_Z   50
loop_
 _symmetry_equiv_pos_site_id
 _symmetry_equiv_pos_as_xyz
  1  'x, y, z'
loop_
 _atom_site_type_symbol
 _atom_site_label
 _atom_site_symmetry_multiplicity
 _atom_site_fract_x
 _atom_site_fract_y
 _atom_site_fract_z
 _atom_site_occupancy
  Zr  Zr0  1  0.09240429  0.90254351  0.10136686  1
  Zr  Zr1  1  0.90238788  0.70007290  0.30202217  1
  Zr  Zr2  1  0.70690721  0.49412567  0.09706002  1
  Zr  Zr3  1  0.50445171  0.69945334  0.09846741  1
  Zr  Zr4  1  0.28880886  0.10036301  0.69763594  1
  Zr  Zr5  1  0.90489773  0.09291048  0.89739147  1
  Zr  Zr6  1  0.10195323  0.30232206  0.29846312  1
  Zr  Zr7  1  0.50785373  0.49952019  0.69793398  1
  Zr  Zr8  1  0.10518858  0.29706253  0.09606306  1
  Zr  Zr9  1  0.90367226  0.69780125  0.09205045  1
  Zr  Zr10  1  0.49813964  0.90377825  0.10599664  1
  Zr  Zr11  1  0.89973915  0.70244872  0.90091092  1
  Zr  Zr12  1  0.90016441  0.69276829  0.70286042  1
  Zr  Zr13  1  0.90755261  0.69762547  0.49966993  1
  Zr  Zr14  1  0.70459780  0.29989839  0.89981958  1
  Zr  Zr15  1  0.10273294  0.11297259  0.88576462  1
  Zr  Zr16  1  0.89702430  0.30120736  0.09981605  1
  Zr  Zr17  1  0.09773954  0.09510869  0.31007143  1
  Zr  Zr18  1  0.89794501  0.09561559  0.30227916  1
  Zr  Zr19  1  0.90293872  0.49621991  0.29153273  1
  Zr  Zr20  1  0.50617199  0.90546398  0.49878145  1
  Zr  Zr21  1  0.30369249  0.90130500  0.90149395  1
  Zr  Zr22  1  0.30256441  0.09666023  0.90324739  1
  Zr  Zr23  1  0.90019317  0.49881590  0.09859686  1
  Zr  Zr24  1  0.10829267  0.90498858  0.68884891  1
  Zr  Zr25  1  0.09839094  0.49906823  0.10058932  1
  Zr  Zr26  1  0.30337492  0.30258677  0.50087161  1
  Zr  Zr27  1  0.50682513  0.10834014  0.50178912  1
  Zr  Zr28  1  0.29489020  0.69264780  0.29912612  1
  Zr  Zr29  1  0.09280398  0.29646245  0.50200070  1
  Zr  Zr30  1  0.08784106  0.50572197  0.50447502  1
  Zr  Zr31  1  0.49171656  0.10055191  0.30675873  1
  Zr  Zr32  1  0.70443546  0.10017855  0.10970812  1
  Zr  Zr33  1  0.49656784  0.69794985  0.70557545  1
  Zr  Zr34  1  0.50458444  0.50871226  0.89967329  1
  Zr  Zr35  1  0.30298273  0.50297952  0.69318960  1
  Zr  Zr36  1  0.10333520  0.49067735  0.89266684  1
  Zr  Zr37  1  0.50261700  0.09347655  0.70588065  1
  Zr  Zr38  1  0.50193084  0.30693017  0.90772323  1
  Zr  Zr39  1  0.70158466  0.90147340  0.10644645  1
  Zr  Zr40  1  0.51021150  0.70036533  0.30208482  1
  Zr  Zr41  1  0.29252206  0.49671647  0.09966224  1
  Zr  Zr42  1  0.29649984  0.09838132  0.10258965  1
  Zr  Zr43  1  0.50459986  0.49230321  0.09725057  1
  Zr  Zr44  1  0.90132264  0.09391189  0.10274145  1
  Zr  Zr45  1  0.70371007  0.30206776  0.09594085  1
  Zr  Zr46  1  0.69448012  0.70128081  0.29640182  1
  Zr  Zr47  1  0.30143539  0.90852333  0.29911576  1
  Zr  Zr48  1  0.29729809  0.30576833  0.30885890  1
  Zr  Zr49  1  0.29690005  0.29822903  0.10481029  1
  Sc  Sc50  1  0.30197159  0.89818057  0.70071741  1
  Sc  Sc51  1  0.28535760  0.29730888  0.90901565  1
  Sc  Sc52  1  0.70462004  0.10530218  0.69985344  1
  Sc  Sc53  1  0.09302072  0.90123606  0.50102436  1
  Sc  Sc54  1  0.90313967  0.29708391  0.30100729  1
  Sc  Sc55  1  0.09781707  0.09654862  0.10495746  1
  Sc  Sc56  1  0.50161047  0.49017933  0.50013129  1
  Sc  Sc57  1  0.29399228  0.69578899  0.09388200  1
  Sc  Sc58  1  0.29919098  0.89583276  0.50746108  1
  Sc  Sc59  1  0.09441171  0.90195563  0.90314392  1
  Sc  Sc60  1  0.89534224  0.28551735  0.89794785  1
  Sc  Sc61  1  0.50422173  0.89994450  0.30286375  1
  Sc  Sc62  1  0.29700350  0.11106813  0.49975772  1
  Sc  Sc63  1  0.09228267  0.69078842  0.30260148  1
  Sc  Sc64  1  0.70537065  0.90439880  0.30573350  1
  Sc  Sc65  1  0.10331003  0.50027885  0.29563722  1
  Sc  Sc66  1  0.49938484  0.29888258  0.68616946  1
  Sc  Sc67  1  0.69910207  0.68764110  0.70209510  1
  Sc  Sc68  1  0.90419194  0.90190569  0.30915980  1
  Sc  Sc69  1  0.90743855  0.51370837  0.88925463  1
  Sc  Sc70  1  0.90476312  0.11268414  0.49562162  1
  Sc  Sc71  1  0.49997879  0.30715542  0.30477012  1
  Sc  Sc72  1  0.91710391  0.89751823  0.69907356  1
  Sc  Sc73  1  0.69326587  0.49714528  0.51359186  1
  Sc  Sc74  1  0.29523061  0.10234240  0.30358810  1
  Sc  Sc75  1  0.29340157  0.90711314  0.09474261  1
  Sc  Sc76  1  0.09632274  0.69555060  0.10106125  1
  Sc  Sc77  1  0.69116295  0.70203996  0.49087604  1
  Sc  Sc78  1  0.08959578  0.69361718  0.90270225  1
  Sc  Sc79  1  0.30959255  0.69810033  0.90435050  1
  Sc  Sc80  1  0.09313041  0.90703641  0.30468772  1
  Sc  Sc81  1  0.49925960  0.70665419  0.49525735  1
  Sc  Sc82  1  0.09841502  0.69885123  0.50090903  1
  Sc  Sc83  1  0.49775672  0.29894903  0.50068342  1
  Sc  Sc84  1  0.70121640  0.68634859  0.90161934  1
  Sc  Sc85  1  0.09807929  0.70091075  0.68826582  1
  Sc  Sc86  1  0.29781148  0.50004508  0.49926874  1
  Sc  Sc87  1  0.69915085  0.29089096  0.50483746  1
  Sc  Sc88  1  0.71553591  0.10100206  0.89054472  1
  Sc  Sc89  1  0.70663430  0.10256205  0.30535059  1
  Sc  Sc90  1  0.50035561  0.30144278  0.10762976  1
  Sc  Sc91  1  0.69695423  0.91587283  0.70628954  1
  Sc  Sc92  1  0.48951404  0.10162564  0.10734227  1
  Sc  Sc93  1  0.70209814  0.69346903  0.09554013  1
  Sc  Sc94  1  0.70957314  0.90952374  0.89964751  1
  Sc  Sc95  1  0.70022838  0.29950564  0.69421612  1
  Sc  Sc96  1  0.69824453  0.30121332  0.29556699  1
  Sc  Sc97  1  0.30218787  0.29524975  0.69128784  1
  Sc  Sc98  1  0.89877682  0.30002390  0.68958573  1
  Sc  Sc99  1  0.29996072  0.70103417  0.68387788  1
  Nb  Nb100  1  0.29911937  0.49765750  0.89675581  1
  Nb  Nb101  1  0.29645955  0.69910873  0.49816279  1
  Nb  Nb102  1  0.10264071  0.29630312  0.70916275  1
  Nb  Nb103  1  0.09712071  0.10630592  0.68896980  1
  Nb  Nb104  1  0.90552030  0.10035627  0.69905341  1
  Nb  Nb105  1  0.70110516  0.50153092  0.70505601  1
  Nb  Nb106  1  0.90331732  0.89543706  0.90965319  1
  Nb  Nb107  1  0.50344045  0.70566074  0.90273123  1
  Nb  Nb108  1  0.49540165  0.09532665  0.90032011  1
  Nb  Nb109  1  0.69500922  0.49586210  0.89661025  1
  Nb  Nb110  1  0.30277959  0.49914200  0.29900260  1
  Nb  Nb111  1  0.89374245  0.50409629  0.69141806  1
  Nb  Nb112  1  0.49496120  0.90729538  0.89278983  1
  Nb  Nb113  1  0.89591513  0.49694322  0.50653990  1
  Nb  Nb114  1  0.89637786  0.89479809  0.49637460  1
  Nb  Nb115  1  0.09524175  0.49651718  0.70318332  1
  Nb  Nb116  1  0.50598948  0.50063475  0.30176112  1
  Nb  Nb117  1  0.89505327  0.30966851  0.49880914  1
  Nb  Nb118  1  0.10384432  0.10094419  0.51048430  1
  Nb  Nb119  1  0.69694487  0.50080148  0.30243144  1
  Nb  Nb120  1  0.70493240  0.09665935  0.49847541  1
  Nb  Nb121  1  0.50078112  0.90342700  0.70704615  1
  Nb  Nb122  1  0.90163342  0.89861981  0.09163680  1
  Nb  Nb123  1  0.09836250  0.30142160  0.89566799  1
  Nb  Nb124  1  0.70570951  0.90467321  0.50255940  1
  Nb  Nb125  1  0.80138436  0.40429674  0.40535086  1
  Nb  Nb126  1  0.20064483  0.59817373  0.79616729  1
  Nb  Nb127  1  0.79563745  0.80606624  0.60161690  1
  Nb  Nb128  1  0.00361791  0.39342291  -0.00825174  1
  Nb  Nb129  1  0.59892916  0.80447117  0.80385492  1
  Nb  Nb130  1  0.40165038  0.59618030  0.39305373  1
  Nb  Nb131  1  0.39900910  0.39969511  0.80249461  1
  Nb  Nb132  1  0.40315789  0.59590153  0.20401701  1
  Nb  Nb133  1  0.79822982  0.59028373  0.39938134  1
  Nb  Nb134  1  0.39537323  0.79402980  0.20188897  1
  Nb  Nb135  1  0.80672325  -0.00077936  0.59420125  1
  Nb  Nb136  1  0.20261272  0.79689265  0.39785538  1
  Nb  Nb137  1  0.59617943  0.00392897  -0.00411801  1
  Nb  Nb138  1  0.60298312  0.80870044  0.60867972  1
  Nb  Nb139  1  0.60008573  0.19121068  -0.00314091  1
  Nb  Nb140  1  0.59317140  0.19879746  0.80728538  1
  Nb  Nb141  1  0.79875956  0.40948606  0.79318233  1
  Nb  Nb142  1  0.40579616  0.00082621  0.60369525  1
  Nb  Nb143  1  0.80740246  0.80162695  0.19535814  1
  Nb  Nb144  1  0.18903979  0.40024599  0.60515437  1
  Nb  Nb145  1  0.59568304  0.80816489  -0.00911169  1
  Nb  Nb146  1  0.20002201  0.80144899  0.20541686  1
  Nb  Nb147  1  0.40289121  0.20235778  0.80513652  1
  Nb  Nb148  1  0.20016052  0.79420286  0.80065267  1
  Nb  Nb149  1  0.80041347  0.80142470  0.79762401  1
  Pd  Pd150  1  0.39617230  0.20448976  0.20946141  1
  Pd  Pd151  1  0.59759877  0.00644217  0.20659904  1
  Pd  Pd152  1  0.20164044  -0.00583357  0.41147875  1
  Pd  Pd153  1  0.39301974  0.00440854  0.41342010  1
  Pd  Pd154  1  0.18834532  0.00740143  -0.00451482  1
  Pd  Pd155  1  0.60539133  0.00213553  0.39359715  1
  Pd  Pd156  1  0.60117048  0.59259044  0.19263901  1
  Pd  Pd157  1  -0.00814525  0.20491653  0.79160335  1
  Pd  Pd158  1  0.59554075  0.60871189  0.59359311  1
  Pd  Pd159  1  0.19597784  -0.00735829  0.80161423  1
  Pd  Pd160  1  0.19976610  0.59834093  0.40473959  1
  Pd  Pd161  1  0.00070175  0.20077367  0.40026412  1
  Pd  Pd162  1  0.80371655  0.20506966  0.20583267  1
  Pd  Pd163  1  0.00539016  0.79910791  0.79951096  1
  Pd  Pd164  1  0.59912278  0.39130892  0.79218784  1
  Pd  Pd165  1  -0.00769785  0.00464460  0.59179574  1
  Pd  Pd166  1  0.40042289  0.59579905  0.00537166  1
  Pd  Pd167  1  0.40721765  0.80662178  0.60004686  1
  Pd  Pd168  1  0.39459674  0.79497195  0.39525007  1
  Pd  Pd169  1  0.39434741  0.59874892  0.80068533  1
  Pd  Pd170  1  0.79649267  0.79299621  0.39880337  1
  Pd  Pd171  1  0.80458148  0.19326629  0.59872091  1
  Pd  Pd172  1  0.81501913  0.40926938  -0.01895048  1
  Pd  Pd173  1  0.81700947  -0.00808925  0.78879655  1
  Pd  Pd174  1  0.60478529  0.20476400  0.39713051  1
  Pd  Pd175  1  0.21157614  0.39664718  0.79079271  1
  Pd  Pd176  1  0.39262061  0.39938615  -0.00396965  1
  Pd  Pd177  1  -0.00321653  0.40376547  0.39694615  1
  Pd  Pd178  1  0.40276667  0.80580907  0.00686119  1
  Pd  Pd179  1  0.79723649  0.00459784  0.00235019  1
  Pd  Pd180  1  0.40809400  0.59907899  0.58499777  1
  Pd  Pd181  1  0.19390546  0.40649519  0.40963981  1
  Pd  Pd182  1  -0.00000158  0.80244420  0.20301415  1
  Pd  Pd183  1  0.40088984  0.40248853  0.20456182  1
  Pd  Pd184  1  -0.01504806  0.39399347  0.80020336  1
  Pd  Pd185  1  0.19699128  0.60101752  -0.01050675  1
  Pd  Pd186  1  0.00226452  0.19895765  0.00044915  1
  Pd  Pd187  1  0.19839091  0.19510893  0.20719477  1
  Pd  Pd188  1  0.19200434  0.79499334  -0.00174293  1
  Pd  Pd189  1  0.00212564  0.39564798  0.60811900  1
  Pd  Pd190  1  0.79247779  0.60873490  0.58935799  1
  Pd  Pd191  1  0.60435939  0.00307859  0.60008062  1
  Pd  Pd192  1  0.79951326  0.60581929  0.20347828  1
  Pd  Pd193  1  0.00548538  -0.00325523  0.79919965  1
  Pd  Pd194  1  0.40296204  0.20259214  -0.00033312  1
  Pd  Pd195  1  0.00133638  0.19852951  0.20107584  1
  Pd  Pd196  1  0.60921504  0.39651393  0.40615349  1
  Pd  Pd197  1  0.39499927  0.79579053  0.79863670  1
  Pd  Pd198  1  0.78959277  0.79826214  -0.00296002  1
  Pd  Pd199  1  0.59563006  0.19900405  0.19985605  1
  Rh  Rh200  1  0.19519820  0.39952753  0.00013600  1
  Rh  Rh201  1  0.39987689  0.20483619  0.39852647  1
  Rh  Rh202  1  0.60198502  0.19519527  0.60435888  1
  Rh  Rh203  1  0.81036220  -0.01194343  0.20348113  1
  Rh  Rh204  1  0.80094990  0.59157514  -0.00678602  1
  Rh  Rh205  1  0.79468699  0.40243241  0.60111237  1
  Rh  Rh206  1  0.00817396  0.60178043  0.79087707  1
  Rh  Rh207  1  0.00082094  0.59930788  0.19787084  1
  Rh  Rh208  1  0.80644347  0.00589977  0.40792780  1
  Rh  Rh209  1  0.79993806  0.20758548  0.78830937  1
  Rh  Rh210  1  0.20769387  0.20552307  0.79732258  1
  Rh  Rh211  1  -0.00774204  0.59259299  0.39832849  1
  Rh  Rh212  1  0.40130600  0.40553371  0.40056711  1
  Rh  Rh213  1  0.19626958  -0.00272257  0.20208831  1
  Rh  Rh214  1  0.19421791  0.20048662  0.40203814  1
  Rh  Rh215  1  -0.00526316  -0.00367962  0.20166219  1
  Rh  Rh216  1  0.60404074  0.40147984  0.19954938  1
  Rh  Rh217  1  0.60380011  0.39619404  0.00442837  1
  Rh  Rh218  1  0.19348767  0.19275502  0.00005740  1
  Rh  Rh219  1  0.79636401  0.18845134  0.00507861  1
  Rh  Rh220  1  -0.00081791  0.59918844  0.60528000  1
  Rh  Rh221  1  0.39548659  0.40249813  0.60214815  1
  Rh  Rh222  1  0.19962668  0.39954888  0.20261778  1
  Rh  Rh223  1  0.00045245  0.58952614  0.00084347  1
  Rh  Rh224  1  0.20109095  0.60156768  0.19665413  1
  Rh  Rh225  1  0.19509981  0.59313511  0.60198103  1
  Rh  Rh226  1  0.79721705  0.59807946  0.80273293  1
  Rh  Rh227  1  0.00295057  0.39425946  0.19169086  1
  Rh  Rh228  1  0.60569197  0.80109691  0.19386454  1
  Rh  Rh229  1  0.38807950  0.00681711  0.79180962  1
  Rh  Rh230  1  0.19248229  0.20967990  0.59988525  1
  Rh  Rh231  1  0.19883769  0.79999559  0.59516331  1
  Rh  Rh232  1  0.60473964  0.00372920  0.81187618  1
  Rh  Rh233  1  0.00332050  0.00607940  -0.00360792  1
  Rh  Rh234  1  0.59988839  0.60586710  0.80228108  1
  Rh  Rh235  1  0.59944979  0.59159690  0.40575904  1
  Rh  Rh236  1  0.60326813  0.59991599  0.00038071  1
  Rh  Rh237  1  -0.00125138  0.20383179  0.60166642  1
  Rh  Rh238  1  0.40298138  -0.00238357  0.00700641  1
  Rh  Rh239  1  -0.00460000  0.79926580  0.59625773  1
  Rh  Rh240  1  0.20588908  0.00077239  0.59411406  1
  Rh  Rh241  1  0.39754279  -0.00168705  0.20159102  1
  Rh  Rh242  1  -0.00300678  0.00533233  0.41098334  1
  Rh  Rh243  1  0.60339686  0.39621063  0.60200286  1
  Rh  Rh244  1  0.01014460  0.80002881  0.40307234  1
  Rh  Rh245  1  0.79801399  0.20912559  0.40089661  1
  Rh  Rh246  1  0.00582967  0.79981130  -0.00027591  1
  Rh  Rh247  1  0.79751496  0.39618471  0.20895271  1
  Rh  Rh248  1  0.60607462  0.81209116  0.40545460  1
  Rh  Rh249  1  0.40372280  0.18939125  0.60547390  1
