# generated using pymatgen
data_ZrScNbPdRh
_symmetry_space_group_name_H-M   'P 1'
_cell_length_a   16.56032823
_cell_length_b   16.56310821
_cell_length_c   16.56224732
_cell_angle_alpha   90.01099298
_cell_angle_beta   89.98033650
_cell_angle_gamma   90.01645086
_symmetry_Int_Tables_number   1
_chemical_formula_structural   ZrScNbPdRh
_chemical_formula_sum   'Zr50 Sc50 Nb50 Pd50 Rh50'
_cell_volume   4542.86669894
_cell_formula_units_Z   50
loop_
 _symmetry_equiv_pos_site_id
 _symmetry_equiv_pos_as_xyz
  1  'x, y, z'
loop_
 _atom_site_type_symbol
 _atom_site_label
 _atom_site_symmetry_multiplicity
 _atom_site_fract_x
 _atom_site_fract_y
 _atom_site_fract_z
 _atom_site_occupancy
  Zr  Zr0  1  0.30943371  0.30256170  0.09910614  1
  Zr  Zr1  1  0.69662048  0.49734046  0.49908710  1
  Zr  Zr2  1  0.29776429  0.90522798  0.69926439  1
  Zr  Zr3  1  0.49729057  0.50235335  0.70218312  1
  Zr  Zr4  1  0.10511641  0.50964183  0.69140319  1
  Zr  Zr5  1  0.70091166  0.89581334  0.51291216  1
  Zr  Zr6  1  0.09965016  0.49215935  0.29630682  1
  Zr  Zr7  1  0.69886272  0.50775409  0.30155067  1
  Zr  Zr8  1  0.29504904  0.09764596  0.89074521  1
  Zr  Zr9  1  0.90423478  0.09368667  0.90283572  1
  Zr  Zr10  1  0.08725825  0.10480816  0.09333018  1
  Zr  Zr11  1  0.70528208  0.70239252  0.10094048  1
  Zr  Zr12  1  0.11062847  0.50452548  0.89670383  1
  Zr  Zr13  1  0.89979259  0.89694826  0.09271545  1
  Zr  Zr14  1  0.28608849  0.89040778  0.10641849  1
  Zr  Zr15  1  0.89997990  0.29741700  0.90164876  1
  Zr  Zr16  1  0.90090599  0.10209848  0.30588218  1
  Zr  Zr17  1  0.50211227  0.29954926  0.90150166  1
  Zr  Zr18  1  0.90222902  0.90859306  0.51048318  1
  Zr  Zr19  1  0.09326066  0.69530662  0.50623453  1
  Zr  Zr20  1  0.70407334  0.09138392  0.90004802  1
  Zr  Zr21  1  0.49530945  0.50618506  0.10704676  1
  Zr  Zr22  1  0.69510375  0.30152077  0.50706446  1
  Zr  Zr23  1  0.29898026  0.30336060  0.90425170  1
  Zr  Zr24  1  0.11099128  0.30080060  0.50168370  1
  Zr  Zr25  1  0.89007033  0.09274635  0.09495035  1
  Zr  Zr26  1  0.90569216  0.08992602  0.69403171  1
  Zr  Zr27  1  0.09811353  0.89869283  0.49045482  1
  Zr  Zr28  1  0.70028227  0.10468733  0.50392850  1
  Zr  Zr29  1  0.50011888  0.69778798  0.29771829  1
  Zr  Zr30  1  0.49102174  0.71058301  0.49686819  1
  Zr  Zr31  1  0.88976895  0.70028956  0.29951706  1
  Zr  Zr32  1  0.69934874  0.70623971  0.49589343  1
  Zr  Zr33  1  0.30211927  0.71242053  0.30100418  1
  Zr  Zr34  1  0.29829060  0.69829882  0.10132749  1
  Zr  Zr35  1  0.49292671  0.10269583  0.50319636  1
  Zr  Zr36  1  0.49504236  0.29950827  0.49444107  1
  Zr  Zr37  1  0.69621319  0.29348549  0.30861230  1
  Zr  Zr38  1  0.70015242  0.70883794  0.89539192  1
  Zr  Zr39  1  0.69613146  0.10203045  0.28971213  1
  Zr  Zr40  1  0.69790914  0.69760420  0.29886146  1
  Zr  Zr41  1  0.50933402  0.90032966  0.09950461  1
  Zr  Zr42  1  0.50450746  0.09682397  0.10615015  1
  Zr  Zr43  1  0.90205779  0.70186741  0.70133747  1
  Zr  Zr44  1  0.50630125  0.29659975  0.70241587  1
  Zr  Zr45  1  0.89811286  0.50529645  0.29650256  1
  Zr  Zr46  1  0.50264900  0.70108146  0.10022749  1
  Zr  Zr47  1  0.70177646  0.28911614  0.10666272  1
  Zr  Zr48  1  0.90575383  0.50365441  0.90458258  1
  Zr  Zr49  1  0.10648625  0.30009543  0.11405839  1
  Sc  Sc50  1  0.49897196  0.09486147  0.69831235  1
  Sc  Sc51  1  0.09657418  0.89509115  0.89226032  1
  Sc  Sc52  1  0.11146054  0.29314187  0.69323587  1
  Sc  Sc53  1  0.69703274  0.89309317  0.29578038  1
  Sc  Sc54  1  0.50698014  0.69971612  0.89369253  1
  Sc  Sc55  1  0.30145014  0.90818763  0.49161915  1
  Sc  Sc56  1  0.09848362  0.09993528  0.29590857  1
  Sc  Sc57  1  0.89486006  0.50548069  0.69361516  1
  Sc  Sc58  1  0.09831326  0.69806320  0.89844416  1
  Sc  Sc59  1  0.90690071  0.90033796  0.30051485  1
  Sc  Sc60  1  0.89824065  0.28471796  0.50283328  1
  Sc  Sc61  1  0.69767585  0.29596019  0.89219921  1
  Sc  Sc62  1  0.29053698  0.69486285  0.90146614  1
  Sc  Sc63  1  0.10747949  0.30516646  0.90111127  1
  Sc  Sc64  1  0.49972062  0.89687187  0.69880128  1
  Sc  Sc65  1  0.30148662  0.29987260  0.29685889  1
  Sc  Sc66  1  0.70535170  0.51028658  0.10144648  1
  Sc  Sc67  1  0.30783286  0.50133985  0.30023592  1
  Sc  Sc68  1  0.29556723  0.29322230  0.68683127  1
  Sc  Sc69  1  0.89958783  0.70551526  0.49919432  1
  Sc  Sc70  1  0.29512863  0.09861362  0.69416459  1
  Sc  Sc71  1  0.89541383  0.29865788  0.69289207  1
  Sc  Sc72  1  0.69587331  0.29873800  0.70210583  1
  Sc  Sc73  1  0.49757709  0.10474306  0.30796004  1
  Sc  Sc74  1  0.90080268  0.70046535  0.90131683  1
  Sc  Sc75  1  0.89619695  0.51067672  0.50296268  1
  Sc  Sc76  1  0.30636600  0.09510324  0.50019616  1
  Sc  Sc77  1  0.29349870  0.89287702  0.89157174  1
  Sc  Sc78  1  0.10442650  0.90559810  0.30060953  1
  Sc  Sc79  1  0.31025030  0.69908578  0.70134920  1
  Sc  Sc80  1  0.50704519  0.50427373  0.89743995  1
  Sc  Sc81  1  0.69664308  0.90401051  0.09481322  1
  Sc  Sc82  1  0.29816765  0.50530510  0.69919126  1
  Sc  Sc83  1  0.70101329  0.49471259  0.69581733  1
  Sc  Sc84  1  0.89890333  0.90034449  0.70314478  1
  Sc  Sc85  1  0.10010339  0.49671820  0.09233915  1
  Sc  Sc86  1  0.50261494  0.89418211  0.30043411  1
  Sc  Sc87  1  0.69539578  0.09879742  0.70476552  1
  Sc  Sc88  1  0.90246533  0.49837487  0.09243625  1
  Sc  Sc89  1  0.50470248  0.09186934  0.89712644  1
  Sc  Sc90  1  0.49925749  0.50086666  0.31155460  1
  Sc  Sc91  1  0.51313882  0.89935223  0.89799305  1
  Sc  Sc92  1  0.29772302  0.10955677  0.10984098  1
  Sc  Sc93  1  0.30106169  0.50420441  0.09326547  1
  Sc  Sc94  1  0.70382457  0.50401706  0.90389927  1
  Sc  Sc95  1  0.30363487  0.48634099  0.50142384  1
  Sc  Sc96  1  0.90904954  0.29652981  0.09579717  1
  Sc  Sc97  1  0.09203940  0.71364964  0.31261839  1
  Sc  Sc98  1  0.09369317  0.90234726  0.70285132  1
  Sc  Sc99  1  0.09637780  0.89287186  0.10173508  1
  Nb  Nb100  1  0.10110789  0.49993417  0.49879825  1
  Nb  Nb101  1  0.09954883  0.69906011  0.69778062  1
  Nb  Nb102  1  0.50354130  0.29901102  0.30118431  1
  Nb  Nb103  1  0.90730172  0.69961942  0.09808477  1
  Nb  Nb104  1  0.10510984  0.70357113  0.09609770  1
  Nb  Nb105  1  0.70235064  0.90041128  0.89099321  1
  Nb  Nb106  1  0.50116391  0.69505117  0.69882848  1
  Nb  Nb107  1  0.29669251  0.09243390  0.30915818  1
  Nb  Nb108  1  0.49741800  0.29878325  0.10119035  1
  Nb  Nb109  1  0.29128074  0.91152257  0.30163210  1
  Nb  Nb110  1  0.50189830  0.90867190  0.49963880  1
  Nb  Nb111  1  0.29492831  0.70782870  0.49508764  1
  Nb  Nb112  1  0.10610463  0.09953918  0.70624179  1
  Nb  Nb113  1  0.49985016  0.49650572  0.50157503  1
  Nb  Nb114  1  0.89221805  0.90259177  0.89206140  1
  Nb  Nb115  1  0.30023230  0.29034578  0.49971088  1
  Nb  Nb116  1  0.09731780  0.30077262  0.29902135  1
  Nb  Nb117  1  0.69710788  0.71037838  0.69827417  1
  Nb  Nb118  1  0.90271474  0.09273535  0.50235213  1
  Nb  Nb119  1  0.70463698  0.89308330  0.70833434  1
  Nb  Nb120  1  0.10161592  0.10197356  0.89508793  1
  Nb  Nb121  1  0.09116817  0.09848318  0.50339080  1
  Nb  Nb122  1  0.69569013  0.09442417  0.10230111  1
  Nb  Nb123  1  0.29226233  0.49645671  0.89966321  1
  Nb  Nb124  1  0.90606871  0.30445591  0.30130443  1
  Nb  Nb125  1  0.19285827  0.60708532  0.20540398  1
  Nb  Nb126  1  0.39977302  0.80339381  0.00147003  1
  Nb  Nb127  1  0.60010849  0.19786053  0.00717234  1
  Nb  Nb128  1  0.00587597  0.19835607  0.79959862  1
  Nb  Nb129  1  0.59817188  0.39390652  0.01128320  1
  Nb  Nb130  1  0.00489719  0.60829145  0.19432650  1
  Nb  Nb131  1  0.19916722  0.19734785  0.00017592  1
  Nb  Nb132  1  0.60341684  -0.00168628  0.40670205  1
  Nb  Nb133  1  0.00522154  0.40272495  0.59500663  1
  Nb  Nb134  1  0.80465934  0.39660148  0.39803161  1
  Nb  Nb135  1  0.19899488  0.60071580  0.40243195  1
  Nb  Nb136  1  0.00140336  0.39915059  0.79255551  1
  Nb  Nb137  1  0.39549606  0.39856721  0.80175678  1
  Nb  Nb138  1  0.79865030  0.39565078  0.20559045  1
  Nb  Nb139  1  0.19911647  0.00450876  -0.00206690  1
  Nb  Nb140  1  -0.00014734  0.39693043  0.40279091  1
  Nb  Nb141  1  0.19959011  0.79600459  0.59750244  1
  Nb  Nb142  1  0.59936974  0.39516880  0.20042132  1
  Nb  Nb143  1  0.80863072  0.40102169  0.80307932  1
  Nb  Nb144  1  0.39183412  -0.00706975  0.00631068  1
  Nb  Nb145  1  0.19949719  0.19901646  0.39956328  1
  Nb  Nb146  1  0.39235418  -0.00378476  0.20420440  1
  Nb  Nb147  1  0.59190404  0.60621273  0.60006614  1
  Nb  Nb148  1  0.79698104  0.00439759  0.40537763  1
  Nb  Nb149  1  0.39870733  0.20442055  0.80092918  1
  Pd  Pd150  1  0.80010868  -0.00896269  0.20644126  1
  Pd  Pd151  1  0.20182171  0.39646225  0.78736121  1
  Pd  Pd152  1  0.19531609  -0.00461730  0.59429903  1
  Pd  Pd153  1  0.59433632  0.40356435  0.60297847  1
  Pd  Pd154  1  -0.00782378  0.19661806  0.19964548  1
  Pd  Pd155  1  0.59367708  0.60342007  0.40957209  1
  Pd  Pd156  1  0.79524009  0.59664473  0.79839270  1
  Pd  Pd157  1  0.79379820  0.19714358  -0.00142323  1
  Pd  Pd158  1  0.19786630  0.79299126  0.78974184  1
  Pd  Pd159  1  0.80032486  0.80641287  0.19609722  1
  Pd  Pd160  1  0.80795607  0.19938807  0.79356423  1
  Pd  Pd161  1  0.00371288  0.59671973  0.39436355  1
  Pd  Pd162  1  0.79742929  0.19483114  0.60886601  1
  Pd  Pd163  1  0.19588652  0.00862551  0.19157247  1
  Pd  Pd164  1  0.39870074  0.59991668  0.58940123  1
  Pd  Pd165  1  0.40121993  0.18455712  -0.00628701  1
  Pd  Pd166  1  0.39380737  0.59505978  0.80928414  1
  Pd  Pd167  1  0.40560512  0.40350969  0.20800161  1
  Pd  Pd168  1  0.20340870  0.39847584  0.39717805  1
  Pd  Pd169  1  0.39868299  0.81367147  0.39752939  1
  Pd  Pd170  1  0.00407713  0.20339543  0.60689663  1
  Pd  Pd171  1  -0.00043319  -0.00070223  0.19957080  1
  Pd  Pd172  1  0.60236541  0.00008812  0.60418851  1
  Pd  Pd173  1  0.00166473  0.80184373  -0.00982568  1
  Pd  Pd174  1  0.40685815  0.41220131  -0.00699093  1
  Pd  Pd175  1  0.60310521  0.59811240  0.00112233  1
  Pd  Pd176  1  0.80361154  0.81252206  0.40061002  1
  Pd  Pd177  1  0.61174532  0.59795189  0.79130440  1
  Pd  Pd178  1  0.79030986  0.39771522  0.00169611  1
  Pd  Pd179  1  0.21365402  0.60502679  0.59288033  1
  Pd  Pd180  1  0.39831382  0.39546227  0.60686101  1
  Pd  Pd181  1  0.81223843  0.20344377  0.19980127  1
  Pd  Pd182  1  0.40014331  0.19455280  0.21015235  1
  Pd  Pd183  1  0.79019199  0.60902200  0.59957322  1
  Pd  Pd184  1  0.00724131  -0.01154649  -0.00652411  1
  Pd  Pd185  1  0.40188993  0.80806875  0.19737007  1
  Pd  Pd186  1  0.21044068  0.40939114  0.19724677  1
  Pd  Pd187  1  0.40057187  0.60587450  -0.01041764  1
  Pd  Pd188  1  0.00157479  0.79777140  0.20249357  1
  Pd  Pd189  1  0.79917414  0.80225583  -0.00366535  1
  Pd  Pd190  1  0.39102625  0.59791001  0.40763791  1
  Pd  Pd191  1  0.80103690  0.19838873  0.40204288  1
  Pd  Pd192  1  0.00173540  0.59702389  0.79759566  1
  Pd  Pd193  1  0.39292252  0.80823232  0.59863652  1
  Pd  Pd194  1  0.00935176  0.39599127  -0.00469986  1
  Pd  Pd195  1  0.40648418  0.79963313  0.80768821  1
  Pd  Pd196  1  0.00780266  0.20254840  0.40250130  1
  Pd  Pd197  1  0.40232129  0.00111375  0.80222332  1
  Pd  Pd198  1  0.00333347  0.80422232  0.60374740  1
  Pd  Pd199  1  0.59274381  0.79790787  0.60354429  1
  Rh  Rh200  1  0.60054323  0.79842288  -0.00396650  1
  Rh  Rh201  1  0.60830729  0.40709070  0.80927610  1
  Rh  Rh202  1  0.59107416  0.20290145  0.19732709  1
  Rh  Rh203  1  0.79684579  0.59859297  0.40812636  1
  Rh  Rh204  1  0.79338166  0.00122486  0.60382205  1
  Rh  Rh205  1  0.20041785  0.39511808  0.01032349  1
  Rh  Rh206  1  0.60080872  0.39939382  0.39633845  1
  Rh  Rh207  1  0.59346757  0.19114450  0.80572078  1
  Rh  Rh208  1  0.18982341  0.01239532  0.40567647  1
  Rh  Rh209  1  0.41083826  -0.00453338  0.39317462  1
  Rh  Rh210  1  0.80594419  0.39499939  0.59559045  1
  Rh  Rh211  1  0.20092703  0.18363558  0.58745088  1
  Rh  Rh212  1  -0.00859999  0.40675154  0.20159321  1
  Rh  Rh213  1  0.00971827  -0.00129180  0.60418920  1
  Rh  Rh214  1  0.80529078  0.79862641  0.79940563  1
  Rh  Rh215  1  0.59631678  0.19892544  0.60070826  1
  Rh  Rh216  1  -0.00540430  0.59671734  0.60162332  1
  Rh  Rh217  1  0.81262860  0.59769950  0.18785026  1
  Rh  Rh218  1  0.40076968  0.19831557  0.60718157  1
  Rh  Rh219  1  0.00499900  0.60392321  0.00446340  1
  Rh  Rh220  1  0.19486351  -0.00480833  0.80150628  1
  Rh  Rh221  1  -0.00857388  0.80579205  0.40189241  1
  Rh  Rh222  1  0.01088616  0.20958672  -0.00821108  1
  Rh  Rh223  1  0.20142692  0.19856806  0.20555935  1
  Rh  Rh224  1  -0.00511466  0.79727367  0.80019888  1
  Rh  Rh225  1  0.39914306  -0.00482089  0.60210112  1
  Rh  Rh226  1  -0.00377218  0.00056354  0.39800738  1
  Rh  Rh227  1  0.19645923  0.59874577  0.00511173  1
  Rh  Rh228  1  0.39096957  0.20555307  0.39467075  1
  Rh  Rh229  1  0.39518565  0.60122079  0.20479079  1
  Rh  Rh230  1  0.60512008  0.79507056  0.19839186  1
  Rh  Rh231  1  0.20120677  0.40389528  0.59956028  1
  Rh  Rh232  1  0.20244975  0.20527878  0.80414554  1
  Rh  Rh233  1  0.59583765  0.19429279  0.40743268  1
  Rh  Rh234  1  0.20283141  0.60631134  0.79633300  1
  Rh  Rh235  1  0.80339141  0.60950462  -0.00061078  1
  Rh  Rh236  1  0.59533321  0.59698619  0.20190120  1
  Rh  Rh237  1  0.00095273  0.00347003  0.80203265  1
  Rh  Rh238  1  0.20012494  0.80463696  -0.00704770  1
  Rh  Rh239  1  0.60369775  -0.00638276  0.79294197  1
  Rh  Rh240  1  0.40096345  0.39375434  0.39972675  1
  Rh  Rh241  1  0.79994815  -0.00042338  0.79348350  1
  Rh  Rh242  1  0.59283358  -0.00012609  0.21276951  1
  Rh  Rh243  1  0.59892738  0.80657980  0.40158481  1
  Rh  Rh244  1  0.79462446  -0.00801236  -0.00146988  1
  Rh  Rh245  1  0.19942716  0.79975626  0.40345814  1
  Rh  Rh246  1  0.80567346  0.79744923  0.60581333  1
  Rh  Rh247  1  0.59504303  0.80150589  0.79409087  1
  Rh  Rh248  1  0.19079083  0.79415641  0.21180847  1
  Rh  Rh249  1  0.60281146  0.00348673  -0.00384312  1
