# generated using pymatgen
data_ZrScNbPdRh
_symmetry_space_group_name_H-M   'P 1'
_cell_length_a   16.55829435
_cell_length_b   16.55989746
_cell_length_c   16.55987272
_cell_angle_alpha   89.98782493
_cell_angle_beta   90.01188051
_cell_angle_gamma   90.02582735
_symmetry_Int_Tables_number   1
_chemical_formula_structural   ZrScNbPdRh
_chemical_formula_sum   'Zr50 Sc50 Nb50 Pd50 Rh50'
_cell_volume   4540.77699350
_cell_formula_units_Z   50
loop_
 _symmetry_equiv_pos_site_id
 _symmetry_equiv_pos_as_xyz
  1  'x, y, z'
loop_
 _atom_site_type_symbol
 _atom_site_label
 _atom_site_symmetry_multiplicity
 _atom_site_fract_x
 _atom_site_fract_y
 _atom_site_fract_z
 _atom_site_occupancy
  Zr  Zr0  1  0.50056084  0.30602459  0.30000722  1
  Zr  Zr1  1  0.49999699  0.90472149  0.09665873  1
  Zr  Zr2  1  0.90456056  0.30015455  0.49351198  1
  Zr  Zr3  1  0.29712321  0.10045344  0.29905077  1
  Zr  Zr4  1  0.09605310  0.31152623  0.70329264  1
  Zr  Zr5  1  0.69636631  0.10598243  0.29693428  1
  Zr  Zr6  1  0.90173014  0.31925509  0.09783423  1
  Zr  Zr7  1  0.69380088  0.90986966  0.30379443  1
  Zr  Zr8  1  0.10030272  0.69258430  0.90369077  1
  Zr  Zr9  1  0.09569346  0.90127092  0.91564837  1
  Zr  Zr10  1  0.09999236  0.29796673  0.49849566  1
  Zr  Zr11  1  0.09776354  0.09897627  0.69674714  1
  Zr  Zr12  1  0.70438613  0.50751581  0.49514431  1
  Zr  Zr13  1  0.69946488  0.09459665  0.48580941  1
  Zr  Zr14  1  0.30016469  0.70015981  0.89524328  1
  Zr  Zr15  1  0.10177071  0.09205819  0.30356993  1
  Zr  Zr16  1  0.70311271  0.89793567  0.49838513  1
  Zr  Zr17  1  0.49744205  0.31327896  0.89832379  1
  Zr  Zr18  1  0.29315919  0.09839712  0.70270772  1
  Zr  Zr19  1  0.49778552  0.69634223  0.10429484  1
  Zr  Zr20  1  0.90151551  0.11048975  0.70725573  1
  Zr  Zr21  1  0.30505043  0.68924716  0.50225056  1
  Zr  Zr22  1  0.50265524  0.69986940  0.90585530  1
  Zr  Zr23  1  0.10038192  0.30162232  0.90619686  1
  Zr  Zr24  1  0.29345247  0.29970971  0.89912823  1
  Zr  Zr25  1  0.10762648  0.69449051  0.70206214  1
  Zr  Zr26  1  0.90530429  0.89701867  0.50125107  1
  Zr  Zr27  1  0.69353256  0.09476911  0.69899627  1
  Zr  Zr28  1  0.70342111  0.10330132  0.89878128  1
  Zr  Zr29  1  0.89736480  0.30411403  0.29614972  1
  Zr  Zr30  1  0.90474910  0.70077506  0.90459765  1
  Zr  Zr31  1  0.30811681  0.29481452  0.29937940  1
  Zr  Zr32  1  0.90994012  0.69813259  0.30332186  1
  Zr  Zr33  1  0.29925398  0.90037133  0.90220674  1
  Zr  Zr34  1  0.30047349  0.70350911  0.29901125  1
  Zr  Zr35  1  0.29414331  0.30415139  0.10664222  1
  Zr  Zr36  1  0.70510265  0.69887502  0.50302856  1
  Zr  Zr37  1  0.29460553  0.09516829  0.90077211  1
  Zr  Zr38  1  0.30379770  0.50115729  0.29875543  1
  Zr  Zr39  1  0.89604240  0.50076234  0.30031199  1
  Zr  Zr40  1  0.09448455  0.08930638  0.09187815  1
  Zr  Zr41  1  0.90212633  0.50281063  0.49485499  1
  Zr  Zr42  1  0.48564441  0.89425763  0.29896768  1
  Zr  Zr43  1  0.30169462  0.89692810  0.70142421  1
  Zr  Zr44  1  0.09980340  0.10412630  0.89841158  1
  Zr  Zr45  1  0.30146865  0.69815450  0.70024275  1
  Zr  Zr46  1  0.90766158  0.49843178  0.70304032  1
  Zr  Zr47  1  0.49866964  0.50717790  0.90881926  1
  Zr  Zr48  1  0.10253275  0.69557867  0.49414556  1
  Zr  Zr49  1  0.10993009  0.29122774  0.29839923  1
  Sc  Sc50  1  0.09633048  0.90398534  0.49583746  1
  Sc  Sc51  1  0.69733026  0.09501938  0.10869814  1
  Sc  Sc52  1  0.70541602  0.70541023  0.90119488  1
  Sc  Sc53  1  0.50052371  0.50087708  0.70917636  1
  Sc  Sc54  1  0.89383013  0.10030832  0.30197926  1
  Sc  Sc55  1  0.49668934  0.30502416  0.11303481  1
  Sc  Sc56  1  0.90921006  0.49798318  0.90503917  1
  Sc  Sc57  1  0.89756610  0.69948124  0.70682635  1
  Sc  Sc58  1  0.29615245  0.90002644  0.10908323  1
  Sc  Sc59  1  0.69006775  0.70518181  0.09364364  1
  Sc  Sc60  1  0.70266932  0.90187003  0.09946213  1
  Sc  Sc61  1  0.49378282  0.50120285  0.49982515  1
  Sc  Sc62  1  0.70083740  0.89383118  0.90649363  1
  Sc  Sc63  1  0.29593122  0.50081605  0.69265983  1
  Sc  Sc64  1  0.89531427  0.70131217  0.49599291  1
  Sc  Sc65  1  0.29358115  0.69700122  0.10580543  1
  Sc  Sc66  1  0.69243557  0.49661746  0.90551395  1
  Sc  Sc67  1  0.50087508  0.10646515  0.29173015  1
  Sc  Sc68  1  0.09460295  0.49905132  0.09562418  1
  Sc  Sc69  1  0.50360000  0.09099810  0.70360913  1
  Sc  Sc70  1  0.50618882  0.90383021  0.48510457  1
  Sc  Sc71  1  0.70579051  0.30818517  0.10297009  1
  Sc  Sc72  1  0.30200802  0.90099797  0.48883044  1
  Sc  Sc73  1  0.89697571  0.88680718  0.90456421  1
  Sc  Sc74  1  0.30152001  0.49780429  0.90500366  1
  Sc  Sc75  1  0.70582607  0.30434166  0.90773896  1
  Sc  Sc76  1  0.70857034  0.70850235  0.30406092  1
  Sc  Sc77  1  0.70084077  0.51239909  0.69705370  1
  Sc  Sc78  1  0.30511917  0.10751555  0.49396526  1
  Sc  Sc79  1  0.49482814  0.68791997  0.70536087  1
  Sc  Sc80  1  0.69607668  0.29399105  0.48067851  1
  Sc  Sc81  1  0.69701155  0.29726193  0.29489234  1
  Sc  Sc82  1  0.90299660  0.89032916  0.29476227  1
  Sc  Sc83  1  0.09904905  0.90003718  0.10724422  1
  Sc  Sc84  1  0.10206139  0.89833160  0.68654344  1
  Sc  Sc85  1  0.90092220  0.88625779  0.69775001  1
  Sc  Sc86  1  0.30187781  0.09326715  0.10235207  1
  Sc  Sc87  1  0.71126353  0.69861186  0.69836553  1
  Sc  Sc88  1  0.70125662  0.29423258  0.70665590  1
  Sc  Sc89  1  0.09884748  0.69549169  0.10262094  1
  Sc  Sc90  1  0.10667802  0.49600952  0.50338843  1
  Sc  Sc91  1  0.10024054  0.51343743  0.30288817  1
  Sc  Sc92  1  0.30061110  0.50132237  0.10545291  1
  Sc  Sc93  1  0.89601178  0.08876340  0.10102281  1
  Sc  Sc94  1  0.90077910  0.29581518  0.90172991  1
  Sc  Sc95  1  0.90133158  0.10630309  0.90487046  1
  Sc  Sc96  1  0.48839444  0.29972710  0.49253872  1
  Sc  Sc97  1  0.49236738  0.30419203  0.69661760  1
  Sc  Sc98  1  0.49960081  0.91114726  0.89827172  1
  Sc  Sc99  1  0.30174747  0.49930614  0.50224030  1
  Nb  Nb100  1  0.90783636  0.09831565  0.50536845  1
  Nb  Nb101  1  0.49630766  0.10106909  0.90500004  1
  Nb  Nb102  1  0.50344030  0.10310232  0.50082582  1
  Nb  Nb103  1  0.50701290  0.90487430  0.69598097  1
  Nb  Nb104  1  0.08839896  0.10080989  0.50277420  1
  Nb  Nb105  1  0.49975862  0.10085133  0.09538191  1
  Nb  Nb106  1  0.30126724  0.30057954  0.49979196  1
  Nb  Nb107  1  0.89620766  0.50018958  0.10313476  1
  Nb  Nb108  1  0.89838845  0.30258275  0.70043980  1
  Nb  Nb109  1  0.10492111  0.70308285  0.30337609  1
  Nb  Nb110  1  0.29548471  0.29649081  0.69245378  1
  Nb  Nb111  1  0.69584115  0.90444259  0.69664906  1
  Nb  Nb112  1  0.89915228  0.69923982  0.10196635  1
  Nb  Nb113  1  0.90507106  0.88876391  0.09463513  1
  Nb  Nb114  1  0.50455159  0.50436483  0.28642506  1
  Nb  Nb115  1  0.29123125  0.89958486  0.29625928  1
  Nb  Nb116  1  0.69083246  0.50348243  0.29417290  1
  Nb  Nb117  1  0.51432649  0.50966342  0.11070172  1
  Nb  Nb118  1  0.09482053  0.49784364  0.70129111  1
  Nb  Nb119  1  0.11251871  0.89231084  0.30218753  1
  Nb  Nb120  1  0.09333304  0.50068698  0.88856216  1
  Nb  Nb121  1  0.49428517  0.69979061  0.29819439  1
  Nb  Nb122  1  0.09786783  0.29829377  0.10110493  1
  Nb  Nb123  1  0.49796027  0.70328606  0.49599424  1
  Nb  Nb124  1  0.69888383  0.50289243  0.10476954  1
  Nb  Nb125  1  0.60042664  0.20020596  0.59828180  1
  Nb  Nb126  1  0.80002873  0.19908899  0.59474425  1
  Nb  Nb127  1  -0.00430796  -0.00249914  0.80053930  1
  Nb  Nb128  1  0.39855514  0.19964822  0.80404679  1
  Nb  Nb129  1  0.59361110  0.60444515  0.39244374  1
  Nb  Nb130  1  0.80399508  0.39999901  0.79448397  1
  Nb  Nb131  1  0.40342479  0.20033799  -0.00163760  1
  Nb  Nb132  1  0.59128515  0.19988049  0.80618338  1
  Nb  Nb133  1  0.39897203  0.80003432  -0.00010061  1
  Nb  Nb134  1  0.59246539  0.80143332  0.20538936  1
  Nb  Nb135  1  0.40583980  -0.00401352  0.59853257  1
  Nb  Nb136  1  0.20727460  0.39232856  0.39863899  1
  Nb  Nb137  1  0.59497312  0.79973680  0.60196182  1
  Nb  Nb138  1  0.00339131  0.20315877  0.19477294  1
  Nb  Nb139  1  0.80423386  0.00431230  0.60116109  1
  Nb  Nb140  1  0.59917598  0.80524535  0.79023341  1
  Nb  Nb141  1  0.79913085  0.59901613  0.19598471  1
  Nb  Nb142  1  0.19868609  0.20323711  0.59747854  1
  Nb  Nb143  1  0.80171559  -0.00370318  0.79498701  1
  Nb  Nb144  1  0.40936397  0.80322171  0.59868720  1
  Nb  Nb145  1  0.59146543  0.19966651  0.00031001  1
  Nb  Nb146  1  0.60644604  0.39563217  0.59655244  1
  Nb  Nb147  1  0.79812041  0.39418664  0.60004055  1
  Nb  Nb148  1  0.00450478  0.59754631  0.60336692  1
  Nb  Nb149  1  0.80392892  0.59650583  0.01060352  1
  Pd  Pd150  1  0.18962724  0.80621753  0.80219715  1
  Pd  Pd151  1  0.40312354  0.00787521  0.40004386  1
  Pd  Pd152  1  0.00098270  0.20730778  0.60386380  1
  Pd  Pd153  1  0.60966648  0.39878427  0.79085737  1
  Pd  Pd154  1  0.60764556  0.60924138  0.80520214  1
  Pd  Pd155  1  0.01301432  0.40513149  0.39344081  1
  Pd  Pd156  1  0.80390195  -0.00492265  -0.00598989  1
  Pd  Pd157  1  0.19225482  0.40933240  0.20631494  1
  Pd  Pd158  1  0.60768419  0.00363189  -0.00172964  1
  Pd  Pd159  1  0.20775747  0.00680902  0.58609150  1
  Pd  Pd160  1  0.41199387  0.80245498  0.80097988  1
  Pd  Pd161  1  0.20490468  0.79759489  0.40650259  1
  Pd  Pd162  1  0.79203070  0.79869804  0.19507836  1
  Pd  Pd163  1  0.19966922  0.00504812  0.40846808  1
  Pd  Pd164  1  0.80745782  0.20206341  0.19124285  1
  Pd  Pd165  1  0.40093138  0.00254094  0.79570574  1
  Pd  Pd166  1  0.40239446  0.19128192  0.60718077  1
  Pd  Pd167  1  0.00881311  0.80457089  0.80004873  1
  Pd  Pd168  1  0.81221993  -0.00397930  0.40024796  1
  Pd  Pd169  1  0.59117951  0.59951653  0.59443976  1
  Pd  Pd170  1  0.79639059  0.20098978  0.01229497  1
  Pd  Pd171  1  0.01069759  0.40087956  0.20731893  1
  Pd  Pd172  1  -0.00275415  -0.00119065  0.20617462  1
  Pd  Pd173  1  0.59494597  0.40976165  0.40341212  1
  Pd  Pd174  1  -0.00369463  -0.00660604  0.39063536  1
  Pd  Pd175  1  0.79195677  0.39894522  0.39639927  1
  Pd  Pd176  1  -0.00820218  0.20081939  0.00956742  1
  Pd  Pd177  1  0.20894868  0.80085713  0.58880395  1
  Pd  Pd178  1  -0.00064966  0.59943794  0.19804448  1
  Pd  Pd179  1  0.18555310  -0.01203278  0.80076750  1
  Pd  Pd180  1  0.60028416  0.79304821  0.39844815  1
  Pd  Pd181  1  0.19456550  0.40966775  0.00097058  1
  Pd  Pd182  1  0.38951710  0.40093136  0.79185585  1
  Pd  Pd183  1  0.40429496  0.40494047  0.60230598  1
  Pd  Pd184  1  -0.00358709  0.19653154  0.38955401  1
  Pd  Pd185  1  0.59607208  0.39635403  0.01195039  1
  Pd  Pd186  1  0.80137305  0.59058703  0.81414394  1
  Pd  Pd187  1  0.00158389  0.78654182  0.59788827  1
  Pd  Pd188  1  0.20451986  0.40634972  0.79934505  1
  Pd  Pd189  1  0.20598921  0.58948604  0.80102996  1
  Pd  Pd190  1  0.20661078  0.19575404  0.00960866  1
  Pd  Pd191  1  0.19861523  0.59220660  0.00042550  1
  Pd  Pd192  1  0.39384305  0.60374818  0.00774610  1
  Pd  Pd193  1  0.80520403  -0.00993780  0.20078756  1
  Pd  Pd194  1  0.40317102  0.40030910  0.01298935  1
  Pd  Pd195  1  0.00893223  0.79819937  0.19973729  1
  Pd  Pd196  1  0.20385313  0.79922228  0.00834306  1
  Pd  Pd197  1  0.40507519  0.59519555  0.39599993  1
  Pd  Pd198  1  0.40054126  0.00352337  0.20113854  1
  Pd  Pd199  1  0.19459183  0.18721530  0.18873351  1
  Rh  Rh200  1  0.81624513  0.59496249  0.60199932  1
  Rh  Rh201  1  0.40005082  0.19721495  0.19407086  1
  Rh  Rh202  1  0.60372603  0.39552661  0.19793525  1
  Rh  Rh203  1  0.00377710  0.60097807  0.40635985  1
  Rh  Rh204  1  -0.01318490  -0.00511428  -0.00677136  1
  Rh  Rh205  1  0.59313687  -0.00521940  0.20261440  1
  Rh  Rh206  1  0.79455225  0.20199343  0.80035221  1
  Rh  Rh207  1  0.39630277  0.40360844  0.39557822  1
  Rh  Rh208  1  0.19595169  0.79585070  0.19969996  1
  Rh  Rh209  1  0.59910472  -0.00076723  0.58450139  1
  Rh  Rh210  1  0.79516748  0.80375625  0.60090051  1
  Rh  Rh211  1  0.80060203  0.40999115  -0.00914586  1
  Rh  Rh212  1  -0.00241307  0.59827681  0.00283323  1
  Rh  Rh213  1  0.79171305  0.40802000  0.20778186  1
  Rh  Rh214  1  0.39611045  0.59849784  0.19878911  1
  Rh  Rh215  1  0.40390195  0.19755934  0.39520247  1
  Rh  Rh216  1  0.20419361  0.59414034  0.39938095  1
  Rh  Rh217  1  0.79347065  0.60163752  0.38837760  1
  Rh  Rh218  1  0.80142184  0.79296199  0.00846315  1
  Rh  Rh219  1  0.39899261  0.79945234  0.19336483  1
  Rh  Rh220  1  0.00441972  0.79258038  0.00752980  1
  Rh  Rh221  1  0.39317112  0.59081647  0.80244068  1
  Rh  Rh222  1  0.59020448  0.19871574  0.39938625  1
  Rh  Rh223  1  0.39309386  -0.00304544  0.00278667  1
  Rh  Rh224  1  0.78817745  0.80748738  0.79615631  1
  Rh  Rh225  1  -0.00508242  0.39256152  0.80986735  1
  Rh  Rh226  1  0.19810425  0.20707418  0.79071038  1
  Rh  Rh227  1  0.60056730  0.20297946  0.19170051  1
  Rh  Rh228  1  0.58951097  0.00802893  0.38947077  1
  Rh  Rh229  1  0.19406190  0.59529612  0.60069365  1
  Rh  Rh230  1  0.00445222  0.80265827  0.39761487  1
  Rh  Rh231  1  0.40498852  0.60109808  0.60354590  1
  Rh  Rh232  1  -0.00596805  0.40586118  0.59478893  1
  Rh  Rh233  1  0.60827165  -0.00297698  0.81389413  1
  Rh  Rh234  1  0.19647416  0.60114383  0.20201468  1
  Rh  Rh235  1  0.20084125  0.19941581  0.41080416  1
  Rh  Rh236  1  0.80583389  0.80365481  0.39874897  1
  Rh  Rh237  1  0.80687369  0.19841956  0.40207086  1
  Rh  Rh238  1  0.39190031  0.79783115  0.40245670  1
  Rh  Rh239  1  0.61014585  0.61593978  0.20801127  1
  Rh  Rh240  1  0.40383000  0.40903413  0.19706174  1
  Rh  Rh241  1  0.60803861  0.59945903  -0.00198258  1
  Rh  Rh242  1  0.00469848  0.40250622  -0.00340222  1
  Rh  Rh243  1  0.59053049  0.80468915  -0.00092302  1
  Rh  Rh244  1  0.19656516  -0.00121225  0.20131751  1
  Rh  Rh245  1  0.20203627  0.39494833  0.59415939  1
  Rh  Rh246  1  -0.00747262  -0.00276337  0.60927962  1
  Rh  Rh247  1  0.20356316  -0.00306959  0.00527646  1
  Rh  Rh248  1  0.00126642  0.60460366  0.79636069  1
  Rh  Rh249  1  0.00686219  0.20273678  0.80208591  1
