# generated using pymatgen
data_ZrScNbPdRh
_symmetry_space_group_name_H-M   'P 1'
_cell_length_a   16.56035888
_cell_length_b   16.55950325
_cell_length_c   16.56443026
_cell_angle_alpha   90.04032637
_cell_angle_beta   89.96458713
_cell_angle_gamma   90.02125160
_symmetry_Int_Tables_number   1
_chemical_formula_structural   ZrScNbPdRh
_chemical_formula_sum   'Zr50 Sc50 Nb50 Pd50 Rh50'
_cell_volume   4542.48321385
_cell_formula_units_Z   50
loop_
 _symmetry_equiv_pos_site_id
 _symmetry_equiv_pos_as_xyz
  1  'x, y, z'
loop_
 _atom_site_type_symbol
 _atom_site_label
 _atom_site_symmetry_multiplicity
 _atom_site_fract_x
 _atom_site_fract_y
 _atom_site_fract_z
 _atom_site_occupancy
  Zr  Zr0  1  0.30228174  0.49898771  0.30287885  1
  Zr  Zr1  1  0.49665276  0.30164960  0.90806202  1
  Zr  Zr2  1  0.10113534  0.89894709  0.10238273  1
  Zr  Zr3  1  0.30235935  0.69830191  0.68702193  1
  Zr  Zr4  1  0.89975165  0.30261987  0.70751446  1
  Zr  Zr5  1  0.89318463  0.08879529  0.30904225  1
  Zr  Zr6  1  0.50316059  0.29286414  0.49955686  1
  Zr  Zr7  1  0.69500014  0.10116802  0.69766896  1
  Zr  Zr8  1  0.50310731  0.50270509  0.90449811  1
  Zr  Zr9  1  0.30532890  0.70842442  0.90372371  1
  Zr  Zr10  1  0.49915117  0.89958417  0.09920772  1
  Zr  Zr11  1  0.30372689  0.30406009  0.30279946  1
  Zr  Zr12  1  0.50375892  0.29526721  0.69583547  1
  Zr  Zr13  1  0.49877535  0.89808002  0.30118022  1
  Zr  Zr14  1  0.69649473  0.50224888  0.49755001  1
  Zr  Zr15  1  0.70900640  0.90873517  0.29379361  1
  Zr  Zr16  1  0.89952546  0.10664059  0.68629713  1
  Zr  Zr17  1  0.89745487  0.50289946  0.69974216  1
  Zr  Zr18  1  0.70082212  0.69313100  0.29328000  1
  Zr  Zr19  1  0.49029083  0.69888375  0.49996731  1
  Zr  Zr20  1  0.09841423  0.49682022  0.11188452  1
  Zr  Zr21  1  0.29846918  0.09862137  0.29421383  1
  Zr  Zr22  1  0.29901875  0.50913829  0.49839703  1
  Zr  Zr23  1  0.90102148  0.69678796  0.09790347  1
  Zr  Zr24  1  0.30300292  0.89050096  0.10493247  1
  Zr  Zr25  1  0.90166727  0.09757898  0.89970725  1
  Zr  Zr26  1  0.50240865  0.30230866  0.29821731  1
  Zr  Zr27  1  0.50326258  0.69950572  0.89943869  1
  Zr  Zr28  1  0.30794248  0.90599285  0.29631988  1
  Zr  Zr29  1  0.30518251  0.90356375  0.90030731  1
  Zr  Zr30  1  0.89183302  0.70778460  0.90157166  1
  Zr  Zr31  1  0.89244097  0.70041714  0.69723177  1
  Zr  Zr32  1  0.10361744  0.49859741  0.30040327  1
  Zr  Zr33  1  0.10348032  0.30696392  0.29271504  1
  Zr  Zr34  1  0.50502947  0.10044735  0.89460646  1
  Zr  Zr35  1  0.10227590  0.50776423  0.48847421  1
  Zr  Zr36  1  0.90211881  0.50073168  0.10357600  1
  Zr  Zr37  1  0.70203663  0.50304522  0.69360637  1
  Zr  Zr38  1  0.10195605  0.69802275  0.10407825  1
  Zr  Zr39  1  0.10189140  0.70170246  0.69171342  1
  Zr  Zr40  1  0.30724785  0.30391748  0.49931047  1
  Zr  Zr41  1  0.08858430  0.09524572  0.50664275  1
  Zr  Zr42  1  0.50446874  0.09799058  0.70164387  1
  Zr  Zr43  1  0.90190130  0.90131722  0.90281104  1
  Zr  Zr44  1  0.50885435  0.49776181  0.70439872  1
  Zr  Zr45  1  0.89793915  0.69728158  0.29582318  1
  Zr  Zr46  1  0.71351401  0.90744307  0.90598034  1
  Zr  Zr47  1  0.90501254  0.50171926  0.30032421  1
  Zr  Zr48  1  0.69355019  0.50459562  0.10180596  1
  Zr  Zr49  1  0.70308366  0.10184725  0.09868693  1
  Sc  Sc50  1  0.29581015  0.30636189  0.69967910  1
  Sc  Sc51  1  0.89423790  0.89758893  0.70063224  1
  Sc  Sc52  1  0.49998267  0.09906384  0.31198712  1
  Sc  Sc53  1  0.09855751  0.09558698  0.29350582  1
  Sc  Sc54  1  0.51359584  0.10530785  0.09615178  1
  Sc  Sc55  1  0.31371433  0.10201772  0.49613380  1
  Sc  Sc56  1  0.71070669  0.69342618  0.09745445  1
  Sc  Sc57  1  0.30425063  0.69832174  0.29532101  1
  Sc  Sc58  1  0.90370404  0.90452957  0.49671158  1
  Sc  Sc59  1  0.50567990  0.10178724  0.50091254  1
  Sc  Sc60  1  0.09229596  0.10094035  0.70516287  1
  Sc  Sc61  1  0.69988845  0.10215987  0.29887724  1
  Sc  Sc62  1  0.69699058  0.90086497  0.50193978  1
  Sc  Sc63  1  0.69325394  0.29739546  0.30355520  1
  Sc  Sc64  1  0.69618696  0.50288423  0.89455122  1
  Sc  Sc65  1  0.29979640  0.29476077  0.09727461  1
  Sc  Sc66  1  0.70528381  0.10246768  0.50084233  1
  Sc  Sc67  1  0.50505675  0.50452917  0.49925431  1
  Sc  Sc68  1  0.49785268  0.89767301  0.88911307  1
  Sc  Sc69  1  0.88810868  0.90549159  0.09708878  1
  Sc  Sc70  1  0.09269239  0.49653561  0.89491580  1
  Sc  Sc71  1  0.10392623  0.49445516  0.70341207  1
  Sc  Sc72  1  0.29981154  0.49734935  0.69540768  1
  Sc  Sc73  1  0.89920477  0.28711679  0.49712232  1
  Sc  Sc74  1  0.09682032  0.29015158  0.88651840  1
  Sc  Sc75  1  0.89857043  0.50303328  0.48860001  1
  Sc  Sc76  1  0.49912388  0.49610164  0.10869742  1
  Sc  Sc77  1  0.90002588  0.29670584  0.30267341  1
  Sc  Sc78  1  0.09948537  0.10135803  0.89338498  1
  Sc  Sc79  1  0.89998573  0.10940048  0.10320888  1
  Sc  Sc80  1  0.10021358  0.90695294  0.69350501  1
  Sc  Sc81  1  0.50118783  0.89676259  0.49464076  1
  Sc  Sc82  1  0.09302227  0.30573637  0.48968109  1
  Sc  Sc83  1  0.29841304  0.49828685  0.11365838  1
  Sc  Sc84  1  0.10232967  0.10816244  0.10926420  1
  Sc  Sc85  1  0.08352331  0.70643021  0.90744489  1
  Sc  Sc86  1  0.10173441  0.69523514  0.30987329  1
  Sc  Sc87  1  0.90016439  0.70435972  0.50109806  1
  Sc  Sc88  1  0.09790427  0.89985122  0.30260297  1
  Sc  Sc89  1  0.50025592  0.69657590  0.30467226  1
  Sc  Sc90  1  0.69653005  0.89794192  0.69393665  1
  Sc  Sc91  1  0.89822602  0.49463048  0.88703237  1
  Sc  Sc92  1  0.29960490  0.90088982  0.70203196  1
  Sc  Sc93  1  0.50435091  0.70532007  0.69964090  1
  Sc  Sc94  1  0.69342968  0.30134809  0.70011381  1
  Sc  Sc95  1  0.69518045  0.69784163  0.50407944  1
  Sc  Sc96  1  0.50249337  0.69640163  0.10202886  1
  Sc  Sc97  1  0.30649529  0.48714793  0.89479527  1
  Sc  Sc98  1  0.08824744  0.90421371  0.90049308  1
  Sc  Sc99  1  0.29061181  0.09459087  0.71044394  1
  Nb  Nb100  1  0.50724818  0.50192354  0.29633193  1
  Nb  Nb101  1  0.89526410  0.29688544  0.09986404  1
  Nb  Nb102  1  0.29171490  0.70178244  0.50360313  1
  Nb  Nb103  1  0.69846223  0.30241502  0.50466571  1
  Nb  Nb104  1  0.70717805  0.69878758  0.69301913  1
  Nb  Nb105  1  0.30008303  0.89427827  0.50344462  1
  Nb  Nb106  1  0.69587707  0.49986960  0.29893240  1
  Nb  Nb107  1  0.29866035  0.70299888  0.09652951  1
  Nb  Nb108  1  0.69889002  0.10648028  0.90066328  1
  Nb  Nb109  1  0.89594651  0.89781785  0.29739510  1
  Nb  Nb110  1  0.89839493  0.10228604  0.49991526  1
  Nb  Nb111  1  0.69596484  0.70413070  0.90425470  1
  Nb  Nb112  1  0.09362141  0.30293487  0.10531619  1
  Nb  Nb113  1  0.70246014  0.29410700  0.90491848  1
  Nb  Nb114  1  0.50657867  0.30000412  0.10687144  1
  Nb  Nb115  1  0.11295670  0.70479356  0.50279426  1
  Nb  Nb116  1  0.49811227  0.90619917  0.69508779  1
  Nb  Nb117  1  0.89572553  0.29829966  0.90140866  1
  Nb  Nb118  1  0.29724064  0.10691776  0.90449141  1
  Nb  Nb119  1  0.69927986  0.28958743  0.10568468  1
  Nb  Nb120  1  0.11137667  0.89112568  0.49935662  1
  Nb  Nb121  1  0.29670833  0.09869317  0.10188698  1
  Nb  Nb122  1  0.29720473  0.29176854  0.90323508  1
  Nb  Nb123  1  0.69967878  0.90395173  0.10158417  1
  Nb  Nb124  1  0.09602197  0.29562443  0.69482880  1
  Nb  Nb125  1  0.39507582  0.20190585  0.80799354  1
  Nb  Nb126  1  0.60809963  0.80198935  0.00138730  1
  Nb  Nb127  1  0.79853173  0.39065898  0.00299655  1
  Nb  Nb128  1  0.20701560  0.00428887  0.00382729  1
  Nb  Nb129  1  0.39196843  0.60142825  0.00232584  1
  Nb  Nb130  1  0.20389463  0.59638129  -0.00238475  1
  Nb  Nb131  1  0.19509036  0.20158796  0.59473762  1
  Nb  Nb132  1  0.60810539  0.80454956  0.19596078  1
  Nb  Nb133  1  0.79997077  0.80353383  0.39172893  1
  Nb  Nb134  1  0.00450568  0.59930272  0.59678846  1
  Nb  Nb135  1  0.19960654  0.19529128  0.40252364  1
  Nb  Nb136  1  0.20102849  -0.00300827  0.40886469  1
  Nb  Nb137  1  0.19284524  0.39495283  0.00094084  1
  Nb  Nb138  1  0.60595185  0.39040491  0.00709694  1
  Nb  Nb139  1  -0.00326654  0.38920310  0.00220793  1
  Nb  Nb140  1  0.40289988  -0.00451575  0.60303906  1
  Nb  Nb141  1  0.79482664  0.39680165  0.19591546  1
  Nb  Nb142  1  0.20231693  0.60827642  0.80679424  1
  Nb  Nb143  1  0.40325566  0.19965009  0.19688396  1
  Nb  Nb144  1  0.80091908  0.39876392  0.59582776  1
  Nb  Nb145  1  0.39467289  0.00731634  0.00010145  1
  Nb  Nb146  1  -0.00496402  0.40266287  0.59919751  1
  Nb  Nb147  1  0.79596012  0.20008417  0.80568549  1
  Nb  Nb148  1  -0.00741488  0.80145289  0.20197179  1
  Nb  Nb149  1  0.19816785  0.79556838  0.80062893  1
  Pd  Pd150  1  0.00152156  0.58915397  -0.00489001  1
  Pd  Pd151  1  0.41212092  0.01291874  0.19172476  1
  Pd  Pd152  1  0.60956013  0.79631881  0.39289506  1
  Pd  Pd153  1  0.40267000  0.60270531  0.19693893  1
  Pd  Pd154  1  0.00680677  0.00872158  0.00949139  1
  Pd  Pd155  1  -0.00603296  -0.00510458  0.19603870  1
  Pd  Pd156  1  0.60385659  0.39395657  0.80775255  1
  Pd  Pd157  1  0.79270194  0.60546551  0.80555854  1
  Pd  Pd158  1  0.20984594  0.80312651  0.39055659  1
  Pd  Pd159  1  -0.00751319  0.19875264  0.20959254  1
  Pd  Pd160  1  0.59513037  0.00305882  0.20485874  1
  Pd  Pd161  1  0.19401156  0.79643287  0.21156984  1
  Pd  Pd162  1  0.40481053  0.19436813  0.00534779  1
  Pd  Pd163  1  0.59499945  -0.00638028  -0.00778940  1
  Pd  Pd164  1  0.00474424  -0.00576494  0.40164692  1
  Pd  Pd165  1  0.40828870  0.40730196  0.59889968  1
  Pd  Pd166  1  0.00705940  0.19623498  0.39246847  1
  Pd  Pd167  1  0.79113463  0.80131824  0.79707740  1
  Pd  Pd168  1  0.80223005  0.58912316  -0.01167925  1
  Pd  Pd169  1  0.79358192  0.20074701  0.39796531  1
  Pd  Pd170  1  0.39352326  0.59819713  0.80201243  1
  Pd  Pd171  1  0.41106587  0.40941613  0.40285749  1
  Pd  Pd172  1  0.60811272  0.60793015  0.79318692  1
  Pd  Pd173  1  0.40099126  0.39205795  0.79547257  1
  Pd  Pd174  1  -0.00216212  0.80078418  0.59801433  1
  Pd  Pd175  1  0.18982095  0.39608490  0.59197163  1
  Pd  Pd176  1  0.00321962  0.80411205  0.79231564  1
  Pd  Pd177  1  0.00704756  0.20114918  -0.00205036  1
  Pd  Pd178  1  -0.00426500  0.79793935  0.39844530  1
  Pd  Pd179  1  0.39734344  0.79861021  0.78931878  1
  Pd  Pd180  1  0.61004487  0.80532038  0.80205703  1
  Pd  Pd181  1  0.19369625  -0.00685449  0.80974978  1
  Pd  Pd182  1  0.79701115  0.60784661  0.40394565  1
  Pd  Pd183  1  0.39240276  0.79545256  0.40019656  1
  Pd  Pd184  1  0.39654946  0.40550853  0.01207302  1
  Pd  Pd185  1  0.60791043  -0.01017629  0.80206841  1
  Pd  Pd186  1  0.19156316  0.80364464  -0.00847505  1
  Pd  Pd187  1  0.59717463  0.79829294  0.59809125  1
  Pd  Pd188  1  0.80077836  0.00760689  0.79366577  1
  Pd  Pd189  1  0.59564053  0.40065119  0.40172173  1
  Pd  Pd190  1  0.60620874  0.00221120  0.40313937  1
  Pd  Pd191  1  -0.00527368  -0.00857442  0.60110049  1
  Pd  Pd192  1  0.19637957  0.39821683  0.80650951  1
  Pd  Pd193  1  0.00565663  0.60572286  0.79520983  1
  Pd  Pd194  1  0.40802987  0.59364793  0.60360568  1
  Pd  Pd195  1  0.79985166  0.39328601  0.39853680  1
  Pd  Pd196  1  0.80038455  -0.00388672  0.59552160  1
  Pd  Pd197  1  0.20914814  0.00769088  0.59353210  1
  Pd  Pd198  1  0.38878774  0.18942453  0.61512166  1
  Pd  Pd199  1  0.18821504  0.20115140  0.00320018  1
  Rh  Rh200  1  -0.00910844  0.19625078  0.79842197  1
  Rh  Rh201  1  0.39994930  0.01007118  0.79847218  1
  Rh  Rh202  1  0.20233510  0.39555840  0.40462426  1
  Rh  Rh203  1  0.59367661  -0.00033316  0.59527961  1
  Rh  Rh204  1  0.80061633  0.19632160  -0.00398150  1
  Rh  Rh205  1  0.39636827  -0.00658586  0.41068458  1
  Rh  Rh206  1  0.60228482  0.40037087  0.59602377  1
  Rh  Rh207  1  0.59791213  0.59946577  0.39771454  1
  Rh  Rh208  1  0.20908069  0.60703993  0.39547234  1
  Rh  Rh209  1  0.59837400  0.20705215  0.80371866  1
  Rh  Rh210  1  0.59387599  0.60139227  0.00241126  1
  Rh  Rh211  1  -0.01284373  0.39408711  0.20069562  1
  Rh  Rh212  1  0.79922122  0.58662650  0.20211293  1
  Rh  Rh213  1  0.60663827  0.19783103  0.59424189  1
  Rh  Rh214  1  0.41002862  0.79135368  0.20086025  1
  Rh  Rh215  1  0.79479009  0.20809418  0.60410141  1
  Rh  Rh216  1  0.20379912  0.80738581  0.60793095  1
  Rh  Rh217  1  0.79971988  0.80015758  0.19904582  1
  Rh  Rh218  1  0.41345878  0.79712820  0.00470502  1
  Rh  Rh219  1  0.20817047  0.39312691  0.19380176  1
  Rh  Rh220  1  0.60485928  0.20062552  0.40445522  1
  Rh  Rh221  1  0.60736556  0.40030153  0.19878162  1
  Rh  Rh222  1  0.20680305  0.20709639  0.20476085  1
  Rh  Rh223  1  0.80173197  0.01104963  0.00392306  1
  Rh  Rh224  1  -0.00650487  0.00011888  0.79262023  1
  Rh  Rh225  1  0.40011357  0.39326219  0.19961365  1
  Rh  Rh226  1  -0.00548471  0.39893172  0.40014417  1
  Rh  Rh227  1  0.39883394  0.59900642  0.39901333  1
  Rh  Rh228  1  0.79847592  -0.00403928  0.40755461  1
  Rh  Rh229  1  0.59650275  0.60548351  0.20088371  1
  Rh  Rh230  1  0.80523300  0.59582285  0.59270818  1
  Rh  Rh231  1  0.59599957  0.60643244  0.60382678  1
  Rh  Rh232  1  0.00415994  0.39448483  0.79944250  1
  Rh  Rh233  1  0.39796396  0.19967464  0.39059854  1
  Rh  Rh234  1  0.79660624  0.80003734  0.00483642  1
  Rh  Rh235  1  0.60046528  0.20413984  -0.00125104  1
  Rh  Rh236  1  0.00355288  0.20722250  0.59583754  1
  Rh  Rh237  1  0.80125900  0.20103715  0.20942709  1
  Rh  Rh238  1  0.00656926  0.60864029  0.20723405  1
  Rh  Rh239  1  0.40159830  0.80695408  0.59923746  1
  Rh  Rh240  1  0.00280456  0.61108907  0.40758029  1
  Rh  Rh241  1  0.80521767  0.00956268  0.19387174  1
  Rh  Rh242  1  0.19388822  0.59227418  0.60517472  1
  Rh  Rh243  1  0.20493350  0.20556595  0.78943325  1
  Rh  Rh244  1  0.20093750  0.60363322  0.19989174  1
  Rh  Rh245  1  0.59451280  0.19367796  0.20754567  1
  Rh  Rh246  1  -0.00821957  0.80669763  0.01206513  1
  Rh  Rh247  1  0.19733987  -0.00552886  0.19898367  1
  Rh  Rh248  1  0.79760155  0.80165094  0.59024965  1
  Rh  Rh249  1  0.78971846  0.39213095  0.79809789  1
