# generated using pymatgen
data_ZrScNbPdRh
_symmetry_space_group_name_H-M   'P 1'
_cell_length_a   16.55063837
_cell_length_b   16.55236763
_cell_length_c   16.55488599
_cell_angle_alpha   90.00842800
_cell_angle_beta   89.95586550
_cell_angle_gamma   90.01345382
_symmetry_Int_Tables_number   1
_chemical_formula_structural   ZrScNbPdRh
_chemical_formula_sum   'Zr50 Sc50 Nb50 Pd50 Rh50'
_cell_volume   4535.24675932
_cell_formula_units_Z   50
loop_
 _symmetry_equiv_pos_site_id
 _symmetry_equiv_pos_as_xyz
  1  'x, y, z'
loop_
 _atom_site_type_symbol
 _atom_site_label
 _atom_site_symmetry_multiplicity
 _atom_site_fract_x
 _atom_site_fract_y
 _atom_site_fract_z
 _atom_site_occupancy
  Zr  Zr0  1  0.11627598  0.90801843  0.89996183  1
  Zr  Zr1  1  0.10441604  0.70735373  0.90749379  1
  Zr  Zr2  1  0.70409991  0.50136613  0.69209947  1
  Zr  Zr3  1  0.50258564  0.90412352  0.69780249  1
  Zr  Zr4  1  0.30577097  0.29707121  0.29217788  1
  Zr  Zr5  1  0.90386421  0.69587889  0.30557097  1
  Zr  Zr6  1  0.09944661  0.10722293  0.29772856  1
  Zr  Zr7  1  0.28334291  0.08714016  0.90446853  1
  Zr  Zr8  1  0.29282414  0.71558105  0.29377640  1
  Zr  Zr9  1  0.89625867  0.91274827  0.69587615  1
  Zr  Zr10  1  0.10384835  0.89274260  0.30508513  1
  Zr  Zr11  1  0.49798790  0.10051345  0.50424667  1
  Zr  Zr12  1  0.49849393  0.89272467  0.89480008  1
  Zr  Zr13  1  0.69827800  0.10715563  0.50400091  1
  Zr  Zr14  1  0.29557525  0.50261138  0.90316223  1
  Zr  Zr15  1  0.90334809  0.49697288  0.29945858  1
  Zr  Zr16  1  0.71023033  0.89924072  0.50742706  1
  Zr  Zr17  1  0.10233573  0.89760114  0.69893975  1
  Zr  Zr18  1  0.49977351  0.68654219  0.50139226  1
  Zr  Zr19  1  0.89232706  0.48992022  0.09819367  1
  Zr  Zr20  1  0.08460034  0.10576999  0.70273853  1
  Zr  Zr21  1  0.70540363  0.29628101  0.69687304  1
  Zr  Zr22  1  0.10163274  0.30655995  0.30218856  1
  Zr  Zr23  1  0.69829603  0.89988582  0.29558614  1
  Zr  Zr24  1  0.50343014  0.10013227  0.69615081  1
  Zr  Zr25  1  0.10216933  0.30368907  0.50828013  1
  Zr  Zr26  1  0.90033054  0.49979439  0.69662140  1
  Zr  Zr27  1  0.11121020  0.50287224  0.49957923  1
  Zr  Zr28  1  0.90055801  0.09919441  0.29051979  1
  Zr  Zr29  1  0.30539128  0.31164149  0.90758013  1
  Zr  Zr30  1  0.49727329  0.29946645  0.29848762  1
  Zr  Zr31  1  0.90123112  0.69759046  0.89704666  1
  Zr  Zr32  1  0.49355286  0.49444979  0.30994776  1
  Zr  Zr33  1  0.48641555  0.29925052  0.09579518  1
  Zr  Zr34  1  0.50267538  0.29974094  0.48643216  1
  Zr  Zr35  1  0.90287008  0.10110026  0.89266429  1
  Zr  Zr36  1  0.09888844  0.69644697  0.68930192  1
  Zr  Zr37  1  0.70271118  0.50535728  0.29863588  1
  Zr  Zr38  1  0.70443020  0.69675175  0.49947338  1
  Zr  Zr39  1  0.89250816  0.09584208  0.50647354  1
  Zr  Zr40  1  0.09691733  0.69247314  0.29799603  1
  Zr  Zr41  1  0.90203771  0.70729819  0.49789456  1
  Zr  Zr42  1  0.30140837  0.29439660  0.50485697  1
  Zr  Zr43  1  0.50154558  0.50035528  0.69185839  1
  Zr  Zr44  1  0.89575580  0.90831395  0.10499296  1
  Zr  Zr45  1  0.49368668  0.10124671  0.30473200  1
  Zr  Zr46  1  0.49074431  0.49571549  0.89458509  1
  Zr  Zr47  1  0.50112787  0.29541857  0.90120758  1
  Zr  Zr48  1  0.90132480  0.90277651  0.90442120  1
  Zr  Zr49  1  0.70544129  0.29893007  0.09028587  1
  Sc  Sc50  1  0.30475214  0.49217855  0.70151056  1
  Sc  Sc51  1  0.09454392  0.88947465  0.10033346  1
  Sc  Sc52  1  0.29508558  0.49705735  0.09992338  1
  Sc  Sc53  1  0.70549138  0.30209693  0.49711659  1
  Sc  Sc54  1  0.70276890  0.50161449  0.90318610  1
  Sc  Sc55  1  0.89765856  0.29605400  0.09955549  1
  Sc  Sc56  1  0.71036544  0.09629393  0.09379731  1
  Sc  Sc57  1  0.70239237  0.69934859  0.69656152  1
  Sc  Sc58  1  0.49647259  0.69800878  0.90362766  1
  Sc  Sc59  1  0.90119653  0.29897168  0.30628403  1
  Sc  Sc60  1  0.69879627  0.29305134  0.89901684  1
  Sc  Sc61  1  0.29358414  0.49316313  0.30113050  1
  Sc  Sc62  1  0.50236750  0.70569771  0.09745350  1
  Sc  Sc63  1  0.09730939  0.89454973  0.50786141  1
  Sc  Sc64  1  0.10807268  0.29925783  0.10437955  1
  Sc  Sc65  1  0.10742643  0.49880079  0.10616999  1
  Sc  Sc66  1  0.70672355  0.10415524  0.30416241  1
  Sc  Sc67  1  0.50318598  0.70532896  0.70219195  1
  Sc  Sc68  1  0.10327453  0.09767519  0.51074018  1
  Sc  Sc69  1  0.50362944  0.30255506  0.70563351  1
  Sc  Sc70  1  0.30131087  0.70587958  0.90304654  1
  Sc  Sc71  1  0.91746456  0.71251032  0.10378095  1
  Sc  Sc72  1  0.29351022  0.69743398  0.09854980  1
  Sc  Sc73  1  0.90007805  0.30050330  0.90997088  1
  Sc  Sc74  1  0.89786176  0.30495685  0.50097104  1
  Sc  Sc75  1  0.30753748  0.89194754  0.11108810  1
  Sc  Sc76  1  0.29939149  0.90104852  0.70837514  1
  Sc  Sc77  1  0.70338327  0.10382356  0.89907502  1
  Sc  Sc78  1  0.70083297  0.29887001  0.31304382  1
  Sc  Sc79  1  0.29682191  0.10291912  0.10277305  1
  Sc  Sc80  1  0.90015557  0.89753449  0.29888885  1
  Sc  Sc81  1  0.69177516  0.69842239  0.89656505  1
  Sc  Sc82  1  0.69839806  0.50612865  0.10317235  1
  Sc  Sc83  1  0.89502014  0.68914428  0.69532654  1
  Sc  Sc84  1  0.10650505  0.10480227  0.09892968  1
  Sc  Sc85  1  0.49600934  0.10077197  0.09327633  1
  Sc  Sc86  1  0.69379803  0.89946164  0.70007617  1
  Sc  Sc87  1  0.09845400  0.30028548  0.90830861  1
  Sc  Sc88  1  0.29406310  0.70620019  0.70014190  1
  Sc  Sc89  1  0.30373469  0.09706239  0.49934413  1
  Sc  Sc90  1  0.89835777  0.50132374  0.89894476  1
  Sc  Sc91  1  0.29572603  0.30271204  0.69387376  1
  Sc  Sc92  1  0.29932270  0.10369026  0.68735822  1
  Sc  Sc93  1  0.48031851  0.89685324  0.29521936  1
  Sc  Sc94  1  0.89209788  0.49905053  0.49924162  1
  Sc  Sc95  1  0.50531846  0.70028805  0.29304391  1
  Sc  Sc96  1  0.69565817  0.90970186  0.89975437  1
  Sc  Sc97  1  0.50763874  0.10011069  0.89854319  1
  Sc  Sc98  1  0.50238645  0.51203155  0.09888326  1
  Sc  Sc99  1  0.29261165  0.69315624  0.49822368  1
  Nb  Nb100  1  0.30081128  0.89871091  0.90213612  1
  Nb  Nb101  1  0.49741705  0.49999915  0.49903143  1
  Nb  Nb102  1  0.69774868  0.69945695  0.29264910  1
  Nb  Nb103  1  0.90867657  0.30026424  0.69851366  1
  Nb  Nb104  1  0.10178596  0.50111468  0.90094191  1
  Nb  Nb105  1  0.70814996  0.10368826  0.69942733  1
  Nb  Nb106  1  0.09845579  0.50059518  0.30088846  1
  Nb  Nb107  1  0.30754108  0.89892697  0.48175470  1
  Nb  Nb108  1  0.09897757  0.30409147  0.69557013  1
  Nb  Nb109  1  0.09956594  0.10196476  0.90049270  1
  Nb  Nb110  1  0.09344881  0.69619951  0.49691003  1
  Nb  Nb111  1  0.29933884  0.90529005  0.30485010  1
  Nb  Nb112  1  0.68918240  0.49832620  0.50036651  1
  Nb  Nb113  1  0.31722458  0.49690400  0.50173149  1
  Nb  Nb114  1  0.90023471  0.90165375  0.49956979  1
  Nb  Nb115  1  0.89311239  0.10740825  0.70239333  1
  Nb  Nb116  1  0.69463023  0.89821157  0.09941481  1
  Nb  Nb117  1  0.89903364  0.09509062  0.09803247  1
  Nb  Nb118  1  0.50195852  0.89969427  0.10049159  1
  Nb  Nb119  1  0.30014382  0.30653263  0.10430715  1
  Nb  Nb120  1  0.30077342  0.08968266  0.30374864  1
  Nb  Nb121  1  0.68718663  0.69752541  0.10619472  1
  Nb  Nb122  1  0.10069319  0.49456641  0.69898708  1
  Nb  Nb123  1  0.50526409  0.90027963  0.50153484  1
  Nb  Nb124  1  0.10315426  0.69722510  0.10433731  1
  Nb  Nb125  1  0.60077075  0.80194226  0.40119917  1
  Nb  Nb126  1  0.80301823  0.61310372  0.00748688  1
  Nb  Nb127  1  0.39578742  0.60111305  0.20397461  1
  Nb  Nb128  1  0.78974159  0.79330819  0.19449870  1
  Nb  Nb129  1  0.59981927  0.20085861  0.19726523  1
  Nb  Nb130  1  0.19247717  0.59569791  0.79977869  1
  Nb  Nb131  1  0.39716411  -0.01048046  -0.00369533  1
  Nb  Nb132  1  0.39093709  0.19850441  0.80336965  1
  Nb  Nb133  1  0.59615048  0.39891227  0.00315490  1
  Nb  Nb134  1  0.59582297  0.59308651  0.79677271  1
  Nb  Nb135  1  0.59693820  0.00075920  0.19963910  1
  Nb  Nb136  1  0.59802161  0.39451420  0.19788349  1
  Nb  Nb137  1  0.80438872  0.80242619  0.80421768  1
  Nb  Nb138  1  0.00439889  0.60009042  0.00227400  1
  Nb  Nb139  1  0.20184720  0.19957991  0.39684535  1
  Nb  Nb140  1  0.20444294  -0.00372660  0.20863753  1
  Nb  Nb141  1  -0.00350803  -0.00103121  0.40383647  1
  Nb  Nb142  1  0.80681234  0.39790042  0.79353743  1
  Nb  Nb143  1  0.59740802  -0.00655685  0.40041058  1
  Nb  Nb144  1  0.19534882  0.20239582  0.80036871  1
  Nb  Nb145  1  0.00009840  0.80136380  0.79820365  1
  Nb  Nb146  1  0.00412626  0.00589351  -0.00129522  1
  Nb  Nb147  1  0.40094734  0.80656023  0.58999646  1
  Nb  Nb148  1  0.79279821  0.79796384  0.00570635  1
  Nb  Nb149  1  0.00426118  0.40057701  0.79493451  1
  Pd  Pd150  1  0.39145790  -0.00922341  0.59646760  1
  Pd  Pd151  1  0.79491115  0.20381625  0.20122974  1
  Pd  Pd152  1  0.00002888  0.40700128  0.40802237  1
  Pd  Pd153  1  0.21072176  0.80669486  0.58954496  1
  Pd  Pd154  1  0.39791248  0.00991517  0.80526708  1
  Pd  Pd155  1  0.00369117  -0.00514724  0.80348453  1
  Pd  Pd156  1  0.80500287  0.20830587  0.80448325  1
  Pd  Pd157  1  0.40806102  0.79069057  0.40317755  1
  Pd  Pd158  1  0.00544034  0.40593358  -0.00024261  1
  Pd  Pd159  1  0.39636342  0.60217411  0.00799235  1
  Pd  Pd160  1  0.40733193  0.39103122  0.59942855  1
  Pd  Pd161  1  0.01250582  -0.00135979  0.19902410  1
  Pd  Pd162  1  0.00181692  0.39574275  0.19640411  1
  Pd  Pd163  1  0.20962654  0.59126902  0.60662313  1
  Pd  Pd164  1  0.19253222  0.79490926  0.40958816  1
  Pd  Pd165  1  0.60198440  0.79927962  -0.00651591  1
  Pd  Pd166  1  -0.00831898  0.80012433  0.60691094  1
  Pd  Pd167  1  -0.00110936  0.20731565  0.19243837  1
  Pd  Pd168  1  0.59753507  0.20898254  0.60076875  1
  Pd  Pd169  1  0.79265301  0.38993650  0.20772765  1
  Pd  Pd170  1  -0.00612890  0.20008714  0.59313628  1
  Pd  Pd171  1  0.39268262  0.60856692  0.60825054  1
  Pd  Pd172  1  -0.00239265  0.59330536  0.19080848  1
  Pd  Pd173  1  0.00270822  0.19286374  0.40959411  1
  Pd  Pd174  1  0.60682665  0.00631566  0.79699753  1
  Pd  Pd175  1  0.59846354  0.39253235  0.59257706  1
  Pd  Pd176  1  0.39874461  0.79570485  0.79390961  1
  Pd  Pd177  1  -0.00230248  0.59210839  0.58928359  1
  Pd  Pd178  1  0.79615127  0.79917859  0.39113182  1
  Pd  Pd179  1  0.39947257  0.19019115  0.19703657  1
  Pd  Pd180  1  0.38946446  0.60763049  0.38917697  1
  Pd  Pd181  1  0.61054031  0.40327296  0.80692058  1
  Pd  Pd182  1  -0.00076293  0.19448086  0.00697045  1
  Pd  Pd183  1  0.19576314  0.39688438  0.80145119  1
  Pd  Pd184  1  0.20527011  0.20868349  -0.00266179  1
  Pd  Pd185  1  0.79981172  0.59707226  0.40288926  1
  Pd  Pd186  1  0.20757033  0.80610436  0.00984116  1
  Pd  Pd187  1  0.59694256  0.79382023  0.59546087  1
  Pd  Pd188  1  0.20746153  -0.00791485  0.59876055  1
  Pd  Pd189  1  0.39579551  0.60715262  0.79253684  1
  Pd  Pd190  1  0.20861676  0.39540309  0.40385622  1
  Pd  Pd191  1  0.18904681  0.00593973  0.40242249  1
  Pd  Pd192  1  0.60078872  0.60245270  0.39516673  1
  Pd  Pd193  1  0.80140892  0.00164919  0.39579631  1
  Pd  Pd194  1  0.20530888  0.59845538  0.39483511  1
  Pd  Pd195  1  0.19901567  0.01063661  0.78390394  1
  Pd  Pd196  1  0.38915159  0.18704733  -0.00866838  1
  Pd  Pd197  1  0.00779864  0.60001631  0.80400909  1
  Pd  Pd198  1  0.59434522  0.00267313  0.00390681  1
  Pd  Pd199  1  0.81098816  0.61022221  0.19066798  1
  Rh  Rh200  1  0.00152890  0.40595184  0.59880714  1
  Rh  Rh201  1  0.20448222  0.59772306  0.20597447  1
  Rh  Rh202  1  -0.00365993  0.00255371  0.59639426  1
  Rh  Rh203  1  0.59701976  0.80881775  0.20374314  1
  Rh  Rh204  1  0.39940468  0.80458286  0.00299465  1
  Rh  Rh205  1  0.00199965  0.59324696  0.40460135  1
  Rh  Rh206  1  0.39784244  0.39095349  0.79466946  1
  Rh  Rh207  1  0.80888726  0.19940545  0.40241789  1
  Rh  Rh208  1  0.19460251  0.59917998  -0.00383635  1
  Rh  Rh209  1  0.19730070  0.39858426  0.00542373  1
  Rh  Rh210  1  0.79433495  0.00282546  0.60573685  1
  Rh  Rh211  1  0.59638474  0.19475095  0.79555138  1
  Rh  Rh212  1  0.19869852  0.40107989  0.20157949  1
  Rh  Rh213  1  0.60192437  0.19148538  0.39548638  1
  Rh  Rh214  1  0.60903482  0.00410111  0.59702330  1
  Rh  Rh215  1  0.40855199  0.20535678  0.60668961  1
  Rh  Rh216  1  0.79287743  -0.00136190  0.79544181  1
  Rh  Rh217  1  0.79314379  0.40584442  -0.00683843  1
  Rh  Rh218  1  0.40266160  0.79027206  0.19535719  1
  Rh  Rh219  1  0.20112254  -0.00945643  0.01829354  1
  Rh  Rh220  1  0.20747724  0.19655437  0.20666992  1
  Rh  Rh221  1  0.79171919  -0.00204748  0.19916003  1
  Rh  Rh222  1  0.60489930  0.79441583  0.80129904  1
  Rh  Rh223  1  0.39803151  0.00273027  0.19103520  1
  Rh  Rh224  1  -0.00019852  0.80322669  -0.00593781  1
  Rh  Rh225  1  0.79691408  0.40572783  0.39997883  1
  Rh  Rh226  1  0.40386592  0.41401213  0.19250067  1
  Rh  Rh227  1  0.80432554  -0.00035879  -0.00116631  1
  Rh  Rh228  1  0.60278356  0.20314373  0.00603703  1
  Rh  Rh229  1  0.58888204  0.59027028  0.20882636  1
  Rh  Rh230  1  0.80754506  0.80019750  0.60950144  1
  Rh  Rh231  1  0.40898145  0.00026540  0.40459669  1
  Rh  Rh232  1  0.38985535  0.19737808  0.40173683  1
  Rh  Rh233  1  0.39361705  0.39583764  0.40379071  1
  Rh  Rh234  1  0.79964756  0.59941218  0.59035346  1
  Rh  Rh235  1  0.80693475  0.19243285  -0.00468128  1
  Rh  Rh236  1  0.60129093  0.60037866  0.60383929  1
  Rh  Rh237  1  0.19553808  0.80542094  0.19688679  1
  Rh  Rh238  1  0.00306030  0.80466079  0.40195727  1
  Rh  Rh239  1  0.79898372  0.39762994  0.60093172  1
  Rh  Rh240  1  0.20583010  0.40793519  0.59513430  1
  Rh  Rh241  1  0.60361383  0.59534018  -0.00896205  1
  Rh  Rh242  1  0.40333451  0.41108692  0.00773597  1
  Rh  Rh243  1  0.19490385  0.79292329  0.79871693  1
  Rh  Rh244  1  0.80596295  0.20568102  0.59924352  1
  Rh  Rh245  1  0.19568813  0.19998634  0.60092325  1
  Rh  Rh246  1  0.60496543  0.40571790  0.39695296  1
  Rh  Rh247  1  0.78758790  0.59920786  0.80397498  1
  Rh  Rh248  1  0.00548810  0.21262892  0.80289626  1
  Rh  Rh249  1  -0.00019150  0.79898924  0.21019256  1
