# generated using pymatgen
data_ZrScNbPdRh
_symmetry_space_group_name_H-M   'P 1'
_cell_length_a   16.55625765
_cell_length_b   16.55276191
_cell_length_c   16.54888935
_cell_angle_alpha   89.97868380
_cell_angle_beta   89.99688287
_cell_angle_gamma   90.00130272
_symmetry_Int_Tables_number   1
_chemical_formula_structural   ZrScNbPdRh
_chemical_formula_sum   'Zr50 Sc50 Nb50 Pd50 Rh50'
_cell_volume   4535.25244442
_cell_formula_units_Z   50
loop_
 _symmetry_equiv_pos_site_id
 _symmetry_equiv_pos_as_xyz
  1  'x, y, z'
loop_
 _atom_site_type_symbol
 _atom_site_label
 _atom_site_symmetry_multiplicity
 _atom_site_fract_x
 _atom_site_fract_y
 _atom_site_fract_z
 _atom_site_occupancy
  Zr  Zr0  1  0.49802831  0.49044139  0.28887248  1
  Zr  Zr1  1  0.30640223  0.30446109  0.30627969  1
  Zr  Zr2  1  0.69821882  0.10013877  0.09630005  1
  Zr  Zr3  1  0.70257822  0.69590607  0.29714511  1
  Zr  Zr4  1  0.49819313  0.89934834  0.89693461  1
  Zr  Zr5  1  0.50185572  0.29853870  0.29831922  1
  Zr  Zr6  1  0.69945963  0.89373521  0.29620070  1
  Zr  Zr7  1  0.70097905  0.69436452  0.49535438  1
  Zr  Zr8  1  0.70575911  0.29572345  0.89653125  1
  Zr  Zr9  1  0.90381393  0.70084653  0.49455286  1
  Zr  Zr10  1  0.88786902  0.30500931  0.70341307  1
  Zr  Zr11  1  0.50002743  0.49911933  0.08626659  1
  Zr  Zr12  1  0.70281860  0.70513179  0.10633150  1
  Zr  Zr13  1  0.30578230  0.69493408  0.69573612  1
  Zr  Zr14  1  0.90112760  0.89851900  0.09874520  1
  Zr  Zr15  1  0.10312237  0.88977453  0.89358370  1
  Zr  Zr16  1  0.30559846  0.09818857  0.09814837  1
  Zr  Zr17  1  0.69739446  0.10171684  0.49822399  1
  Zr  Zr18  1  0.09831673  0.49193477  0.50357276  1
  Zr  Zr19  1  0.09831171  0.29909783  0.50034379  1
  Zr  Zr20  1  0.49136356  0.50681989  0.70131048  1
  Zr  Zr21  1  0.49682446  0.70029178  0.50171757  1
  Zr  Zr22  1  0.89737901  0.50801647  0.89761802  1
  Zr  Zr23  1  0.51376719  0.31124328  0.89793486  1
  Zr  Zr24  1  0.10752205  0.48876753  0.10494392  1
  Zr  Zr25  1  0.10586998  0.09782178  0.69696052  1
  Zr  Zr26  1  0.89771557  0.49235131  0.50156935  1
  Zr  Zr27  1  0.90638070  0.30533512  0.50129294  1
  Zr  Zr28  1  0.30263066  0.90222133  0.70005948  1
  Zr  Zr29  1  0.29131629  0.29320284  0.09462732  1
  Zr  Zr30  1  0.29780217  0.49481021  0.70181893  1
  Zr  Zr31  1  0.70381144  0.30656255  0.49631960  1
  Zr  Zr32  1  0.48904760  0.30020685  0.70221817  1
  Zr  Zr33  1  0.09752358  0.89894948  0.11081876  1
  Zr  Zr34  1  0.69159549  0.30524059  0.71308885  1
  Zr  Zr35  1  0.69766504  0.10540459  0.90517694  1
  Zr  Zr36  1  0.10524478  0.70592580  0.09780253  1
  Zr  Zr37  1  0.70176336  0.69807099  0.89829663  1
  Zr  Zr38  1  0.69249148  0.49746993  0.89741988  1
  Zr  Zr39  1  0.89078627  0.09425384  0.49624326  1
  Zr  Zr40  1  0.50617285  0.70248611  0.29146329  1
  Zr  Zr41  1  0.49984779  0.10260355  0.09739887  1
  Zr  Zr42  1  0.10557246  0.09739690  0.88984407  1
  Zr  Zr43  1  0.29839824  0.10622177  0.71070900  1
  Zr  Zr44  1  0.89936044  0.69749392  0.29973226  1
  Zr  Zr45  1  0.10406922  0.50011117  0.90052659  1
  Zr  Zr46  1  0.29921464  0.29413013  0.89199548  1
  Zr  Zr47  1  0.10251695  0.10627087  0.49552289  1
  Zr  Zr48  1  0.10058229  0.30019513  0.30353701  1
  Zr  Zr49  1  0.48890347  0.29990947  0.49503115  1
  Sc  Sc50  1  0.30629561  0.90656027  0.29548007  1
  Sc  Sc51  1  0.09873031  0.49655643  0.69926450  1
  Sc  Sc52  1  0.70205734  0.50635728  0.29451184  1
  Sc  Sc53  1  0.29654984  0.29651847  0.50365135  1
  Sc  Sc54  1  0.30113950  0.70476418  0.10282406  1
  Sc  Sc55  1  0.48748290  0.90267750  0.10212697  1
  Sc  Sc56  1  0.10287860  0.30027801  0.68979882  1
  Sc  Sc57  1  0.50442039  0.30077270  0.10389938  1
  Sc  Sc58  1  0.49263143  0.10064811  0.70209798  1
  Sc  Sc59  1  0.69382014  0.29569584  0.29282879  1
  Sc  Sc60  1  0.89961966  0.10980847  0.09780492  1
  Sc  Sc61  1  0.09061359  0.90102562  0.49342918  1
  Sc  Sc62  1  0.70067593  0.10633793  0.30621226  1
  Sc  Sc63  1  0.29820982  0.09933754  0.50752782  1
  Sc  Sc64  1  0.49769677  0.09717504  0.50177834  1
  Sc  Sc65  1  0.30468590  0.69716689  0.49813147  1
  Sc  Sc66  1  0.69117320  0.29296708  0.09671346  1
  Sc  Sc67  1  0.50120750  0.10317652  0.30555742  1
  Sc  Sc68  1  0.70790270  0.91338634  0.50531950  1
  Sc  Sc69  1  0.11237784  0.49729798  0.30283046  1
  Sc  Sc70  1  0.10049465  0.70446847  0.30006683  1
  Sc  Sc71  1  0.49481073  0.10013246  0.90014171  1
  Sc  Sc72  1  0.30459820  0.70042099  0.29802326  1
  Sc  Sc73  1  0.49562329  0.69553661  0.70363665  1
  Sc  Sc74  1  0.89508755  0.50215986  0.70300066  1
  Sc  Sc75  1  0.89840245  0.89946834  0.49612773  1
  Sc  Sc76  1  0.49561266  0.90423569  0.70329362  1
  Sc  Sc77  1  0.29315625  0.50366877  0.49975524  1
  Sc  Sc78  1  0.90081567  0.69745254  0.89528322  1
  Sc  Sc79  1  0.69458108  0.09743874  0.70084209  1
  Sc  Sc80  1  0.89709165  0.70046240  0.70534308  1
  Sc  Sc81  1  0.30314830  0.70670405  0.90264848  1
  Sc  Sc82  1  0.89770156  0.89374246  0.90129983  1
  Sc  Sc83  1  0.49591061  0.90483658  0.50258520  1
  Sc  Sc84  1  0.10088922  0.90073352  0.70730762  1
  Sc  Sc85  1  0.89863531  0.89389339  0.69537667  1
  Sc  Sc86  1  0.91311086  0.89781158  0.30418206  1
  Sc  Sc87  1  0.89407799  0.70259671  0.09497237  1
  Sc  Sc88  1  0.09314315  0.70531586  0.71020805  1
  Sc  Sc89  1  0.70205383  0.50567531  0.09672163  1
  Sc  Sc90  1  0.10673515  0.29609551  0.91643356  1
  Sc  Sc91  1  0.90429768  0.50318215  0.09822726  1
  Sc  Sc92  1  0.30353361  0.90001888  0.89499455  1
  Sc  Sc93  1  0.09661119  0.09905211  0.10752613  1
  Sc  Sc94  1  0.10328032  0.69173516  0.49087720  1
  Sc  Sc95  1  0.89501752  0.09645310  0.70115329  1
  Sc  Sc96  1  0.70600887  0.50821728  0.49742797  1
  Sc  Sc97  1  0.90601223  0.29678180  0.29941378  1
  Sc  Sc98  1  0.31581845  0.89792986  0.50013318  1
  Sc  Sc99  1  0.90280980  0.49769968  0.30138794  1
  Nb  Nb100  1  0.10320240  0.69903325  0.89656657  1
  Nb  Nb101  1  0.70067720  0.89891089  0.09543418  1
  Nb  Nb102  1  0.90035902  0.09033188  0.29765775  1
  Nb  Nb103  1  0.49832983  0.51204488  0.90375871  1
  Nb  Nb104  1  0.09295475  0.30031902  0.10996026  1
  Nb  Nb105  1  0.10069321  0.08483346  0.30337912  1
  Nb  Nb106  1  0.70069280  0.70388553  0.69837929  1
  Nb  Nb107  1  0.50445903  0.70234573  0.09266933  1
  Nb  Nb108  1  0.29700159  0.49876552  0.10845284  1
  Nb  Nb109  1  0.29345422  0.10581779  0.90414062  1
  Nb  Nb110  1  0.10040751  0.90939066  0.29874788  1
  Nb  Nb111  1  0.28516582  0.10057620  0.30006795  1
  Nb  Nb112  1  0.91310100  0.30263308  0.09935070  1
  Nb  Nb113  1  0.30432098  0.49810264  0.90466140  1
  Nb  Nb114  1  0.89545727  0.10420473  0.90011822  1
  Nb  Nb115  1  0.69579850  0.90011430  0.90298493  1
  Nb  Nb116  1  0.30563068  0.50018365  0.29473093  1
  Nb  Nb117  1  0.30313493  0.29745140  0.69869707  1
  Nb  Nb118  1  0.50186886  0.89471641  0.30436904  1
  Nb  Nb119  1  0.69853172  0.89563353  0.70741090  1
  Nb  Nb120  1  0.89688324  0.29239800  0.90231475  1
  Nb  Nb121  1  0.70183930  0.49985103  0.69884802  1
  Nb  Nb122  1  0.29640653  0.91106236  0.09903015  1
  Nb  Nb123  1  0.50445539  0.50545242  0.49550740  1
  Nb  Nb124  1  0.50104085  0.68838301  0.91033237  1
  Nb  Nb125  1  0.20365302  0.59830627  0.80594799  1
  Nb  Nb126  1  0.19853680  -0.00041470  0.00010165  1
  Nb  Nb127  1  0.00032270  0.00454659  0.59884671  1
  Nb  Nb128  1  0.79133405  -0.00549805  0.80636117  1
  Nb  Nb129  1  -0.00375841  0.39085808  0.80760671  1
  Nb  Nb130  1  0.59951504  0.21000367  0.59906840  1
  Nb  Nb131  1  0.40619351  0.59209694  0.39176825  1
  Nb  Nb132  1  0.00634134  0.60087985  0.19333308  1
  Nb  Nb133  1  0.80625067  0.39310786  0.18838523  1
  Nb  Nb134  1  0.19627818  0.19821649  0.20720815  1
  Nb  Nb135  1  0.59871468  0.79975175  0.00067136  1
  Nb  Nb136  1  0.59670931  0.40514069  0.59786373  1
  Nb  Nb137  1  -0.00197555  0.60031009  0.59809259  1
  Nb  Nb138  1  0.20271290  0.80613523  0.39995165  1
  Nb  Nb139  1  0.79716510  -0.00130687  0.19788859  1
  Nb  Nb140  1  -0.00380609  0.20294807  0.80334870  1
  Nb  Nb141  1  0.60647805  0.80052915  0.60360919  1
  Nb  Nb142  1  0.00333710  0.00090510  -0.00614561  1
  Nb  Nb143  1  0.79278346  0.20416433  0.59910597  1
  Nb  Nb144  1  0.80694525  0.39232763  0.00006830  1
  Nb  Nb145  1  0.59522780  0.40488383  0.40247090  1
  Nb  Nb146  1  0.59966542  0.80031883  0.40429323  1
  Nb  Nb147  1  0.01230830  0.60335287  0.00013512  1
  Nb  Nb148  1  0.20090085  0.79994605  0.59607239  1
  Nb  Nb149  1  0.60308408  -0.00601124  0.19863795  1
  Pd  Pd150  1  -0.01292545  -0.00047639  0.79921487  1
  Pd  Pd151  1  0.80804044  -0.00006399  -0.00128642  1
  Pd  Pd152  1  0.38607988  0.60191041  0.00684038  1
  Pd  Pd153  1  0.39574304  0.39382817  0.00062766  1
  Pd  Pd154  1  0.19751171  0.60282662  0.20434476  1
  Pd  Pd155  1  0.80526170  0.20494247  0.39902861  1
  Pd  Pd156  1  0.18829678  0.60780339  0.60993898  1
  Pd  Pd157  1  0.39622406  0.39360310  0.18633921  1
  Pd  Pd158  1  0.79247492  0.39929772  0.38273238  1
  Pd  Pd159  1  0.00272818  0.59172111  0.39739655  1
  Pd  Pd160  1  0.60047786  0.00557970  0.79961341  1
  Pd  Pd161  1  -0.00390034  0.40570521  -0.00509352  1
  Pd  Pd162  1  0.80198875  0.20187619  0.19618621  1
  Pd  Pd163  1  0.59581406  -0.00142015  0.60593365  1
  Pd  Pd164  1  -0.01054673  0.19494313  0.60793525  1
  Pd  Pd165  1  0.59907850  -0.00598578  0.39594925  1
  Pd  Pd166  1  0.00665756  0.19175857  -0.00440643  1
  Pd  Pd167  1  0.20582166  0.80577235  0.20918269  1
  Pd  Pd168  1  0.00823618  0.79900266  0.59954962  1
  Pd  Pd169  1  0.40518846  0.79284753  0.80012579  1
  Pd  Pd170  1  0.80771605  0.60388526  0.60300855  1
  Pd  Pd171  1  0.81031463  0.80601754  0.20354518  1
  Pd  Pd172  1  -0.00494754  0.19197569  0.39360608  1
  Pd  Pd173  1  0.40125456  0.80436329  0.00264774  1
  Pd  Pd174  1  0.80338055  0.80297854  0.80349085  1
  Pd  Pd175  1  0.40313135  0.40438733  0.80833699  1
  Pd  Pd176  1  0.59645683  0.59415933  0.19121119  1
  Pd  Pd177  1  -0.00152141  0.79702028  -0.00523154  1
  Pd  Pd178  1  0.59120462  -0.00712674  0.00424001  1
  Pd  Pd179  1  0.20794984  -0.00975014  0.41018330  1
  Pd  Pd180  1  0.39652541  0.00726958  0.39486226  1
  Pd  Pd181  1  0.20633095  0.40079410  0.40371862  1
  Pd  Pd182  1  0.79598204  0.80519467  0.40313356  1
  Pd  Pd183  1  0.59166249  0.79291931  0.80117926  1
  Pd  Pd184  1  0.39700028  0.40762089  0.59189827  1
  Pd  Pd185  1  0.60191578  0.60168222  0.79352734  1
  Pd  Pd186  1  0.19463491  -0.01192009  0.59137923  1
  Pd  Pd187  1  0.39269785  0.18883472  0.40285210  1
  Pd  Pd188  1  0.39471910  0.19690039  0.20455858  1
  Pd  Pd189  1  0.79610152  0.80002153  0.59551637  1
  Pd  Pd190  1  0.19324010  0.39637447  0.79873322  1
  Pd  Pd191  1  0.40876014  0.20926086  -0.00699269  1
  Pd  Pd192  1  0.00471934  0.19203737  0.20983171  1
  Pd  Pd193  1  0.39769618  0.80311226  0.19619525  1
  Pd  Pd194  1  0.40703802  0.00627197  0.21044820  1
  Pd  Pd195  1  0.60166092  0.60115110  0.60629028  1
  Pd  Pd196  1  0.20571833  0.60119182  -0.00203139  1
  Pd  Pd197  1  0.20650672  0.39857162  0.00087824  1
  Pd  Pd198  1  0.40411447  0.60211435  0.19420124  1
  Pd  Pd199  1  0.20673812  0.80878095  0.00053151  1
  Rh  Rh200  1  0.39141389  0.59993333  0.81212473  1
  Rh  Rh201  1  0.80144816  0.20730509  0.00955627  1
  Rh  Rh202  1  0.80398981  0.40788202  0.80976211  1
  Rh  Rh203  1  0.20495177  0.39468117  0.60003165  1
  Rh  Rh204  1  -0.00314868  0.40834436  0.20513048  1
  Rh  Rh205  1  0.59039860  0.41592305  0.79296957  1
  Rh  Rh206  1  0.20834376  0.79069119  0.78964740  1
  Rh  Rh207  1  0.00965569  0.80098809  0.39554959  1
  Rh  Rh208  1  0.80167210  -0.00413686  0.38535645  1
  Rh  Rh209  1  0.40243924  0.80120784  0.60578773  1
  Rh  Rh210  1  -0.00662989  0.79997671  0.80218606  1
  Rh  Rh211  1  0.39186433  -0.00089492  -0.00790819  1
  Rh  Rh212  1  0.21398812  0.60658004  0.39051113  1
  Rh  Rh213  1  0.79066101  0.60099791  0.79495259  1
  Rh  Rh214  1  -0.00994267  0.00310680  0.19332225  1
  Rh  Rh215  1  0.00970855  0.59334740  0.79958799  1
  Rh  Rh216  1  0.20182931  0.00528277  0.19430064  1
  Rh  Rh217  1  0.20972841  -0.00303755  0.80688390  1
  Rh  Rh218  1  0.00461818  0.40252366  0.39545208  1
  Rh  Rh219  1  0.61168247  0.40377428  0.20050624  1
  Rh  Rh220  1  0.40272195  0.20055580  0.80713989  1
  Rh  Rh221  1  0.19017275  0.18983672  0.01393357  1
  Rh  Rh222  1  0.80179462  0.59892620  -0.00043745  1
  Rh  Rh223  1  0.80309338  0.00111148  0.61204689  1
  Rh  Rh224  1  0.79217382  0.79682827  -0.00560732  1
  Rh  Rh225  1  0.19210238  0.21071624  0.79345196  1
  Rh  Rh226  1  0.59765643  0.18753488  0.20073810  1
  Rh  Rh227  1  0.59296822  0.20254379  -0.00441631  1
  Rh  Rh228  1  0.40354406  0.79292719  0.39408431  1
  Rh  Rh229  1  0.59529847  0.60008193  0.39075207  1
  Rh  Rh230  1  0.59205153  0.80871284  0.19363597  1
  Rh  Rh231  1  0.20007420  0.19981657  0.39680810  1
  Rh  Rh232  1  0.39976327  0.41004533  0.40540760  1
  Rh  Rh233  1  0.20558096  0.20392455  0.60335425  1
  Rh  Rh234  1  0.59189749  0.19406112  0.79705848  1
  Rh  Rh235  1  0.39479110  0.00681980  0.80480763  1
  Rh  Rh236  1  0.81353162  0.59225611  0.19899273  1
  Rh  Rh237  1  0.60816109  0.60667504  0.00482378  1
  Rh  Rh238  1  0.39860308  0.59372710  0.58872310  1
  Rh  Rh239  1  0.80483563  0.59576643  0.39827983  1
  Rh  Rh240  1  0.39999096  0.19534410  0.60110736  1
  Rh  Rh241  1  0.60732006  0.40160843  0.00256564  1
  Rh  Rh242  1  0.20766289  0.38912861  0.20326942  1
  Rh  Rh243  1  0.80160648  0.18708006  0.79331181  1
  Rh  Rh244  1  0.79035752  0.39857228  0.60495647  1
  Rh  Rh245  1  -0.00249136  0.00394555  0.40620998  1
  Rh  Rh246  1  -0.00428712  0.40718640  0.61033712  1
  Rh  Rh247  1  0.39937793  0.00509930  0.60556384  1
  Rh  Rh248  1  0.59592261  0.20867735  0.40627630  1
  Rh  Rh249  1  -0.00072037  0.79336436  0.20491656  1
