# generated using pymatgen
data_ZrScNbPdRh
_symmetry_space_group_name_H-M   'P 1'
_cell_length_a   16.54986904
_cell_length_b   16.55338187
_cell_length_c   16.55398559
_cell_angle_alpha   90.00962429
_cell_angle_beta   89.97458502
_cell_angle_gamma   89.96350022
_symmetry_Int_Tables_number   1
_chemical_formula_structural   ZrScNbPdRh
_chemical_formula_sum   'Zr50 Sc50 Nb50 Pd50 Rh50'
_cell_volume   4535.06724662
_cell_formula_units_Z   50
loop_
 _symmetry_equiv_pos_site_id
 _symmetry_equiv_pos_as_xyz
  1  'x, y, z'
loop_
 _atom_site_type_symbol
 _atom_site_label
 _atom_site_symmetry_multiplicity
 _atom_site_fract_x
 _atom_site_fract_y
 _atom_site_fract_z
 _atom_site_occupancy
  Zr  Zr0  1  0.09418981  0.69588178  0.29925725  1
  Zr  Zr1  1  0.70039828  0.49996152  0.90415083  1
  Zr  Zr2  1  0.10801411  0.10598717  0.69970769  1
  Zr  Zr3  1  0.89884963  0.49888388  0.09683496  1
  Zr  Zr4  1  0.89302167  0.89638231  0.50049698  1
  Zr  Zr5  1  0.30203854  0.90162210  0.49617221  1
  Zr  Zr6  1  0.70171061  0.10495520  0.09498797  1
  Zr  Zr7  1  0.90429884  0.30528542  0.90540772  1
  Zr  Zr8  1  0.09227290  0.89748299  0.48989549  1
  Zr  Zr9  1  0.30008141  0.50514089  0.29851159  1
  Zr  Zr10  1  0.90017573  0.30768831  0.69829814  1
  Zr  Zr11  1  0.89748552  0.29278740  0.09729910  1
  Zr  Zr12  1  0.50213493  0.28966691  0.09632674  1
  Zr  Zr13  1  0.29554645  0.30081261  0.90805490  1
  Zr  Zr14  1  0.10562895  0.30079636  0.90193522  1
  Zr  Zr15  1  0.30254926  0.09606460  0.69742988  1
  Zr  Zr16  1  0.10393553  0.29992411  0.30144812  1
  Zr  Zr17  1  0.50644693  0.29791021  0.70677648  1
  Zr  Zr18  1  0.30126560  0.68827320  0.69761470  1
  Zr  Zr19  1  0.31184142  0.09623640  0.49388603  1
  Zr  Zr20  1  0.49022382  0.50261047  0.70544777  1
  Zr  Zr21  1  0.70586903  0.91009458  0.49875298  1
  Zr  Zr22  1  0.70856007  0.50002506  0.70734147  1
  Zr  Zr23  1  0.50166228  0.49661868  0.10222104  1
  Zr  Zr24  1  0.50287084  0.70270115  0.49521777  1
  Zr  Zr25  1  0.10504927  0.50253602  0.10893619  1
  Zr  Zr26  1  0.29895685  0.30292799  0.70729458  1
  Zr  Zr27  1  0.49889442  0.70238207  0.70116026  1
  Zr  Zr28  1  0.30188282  0.29697529  0.09464709  1
  Zr  Zr29  1  0.69315229  0.89216645  0.09727295  1
  Zr  Zr30  1  0.70578137  0.70235565  0.50164607  1
  Zr  Zr31  1  0.29599820  0.90331435  0.29214782  1
  Zr  Zr32  1  0.90032406  0.50643401  0.29509068  1
  Zr  Zr33  1  0.09790458  0.90460688  0.29411270  1
  Zr  Zr34  1  0.49993618  0.88713269  0.29676703  1
  Zr  Zr35  1  0.49899331  0.89012096  0.89930377  1
  Zr  Zr36  1  0.90193763  0.69932062  0.10100683  1
  Zr  Zr37  1  0.49825535  0.50317317  0.30091818  1
  Zr  Zr38  1  0.32128851  0.09294009  0.10095952  1
  Zr  Zr39  1  0.50160623  0.70082651  0.89710302  1
  Zr  Zr40  1  0.69727876  0.31256036  0.30623570  1
  Zr  Zr41  1  0.91412838  0.69066380  0.89618157  1
  Zr  Zr42  1  0.51039541  0.50392155  0.89982572  1
  Zr  Zr43  1  0.48420119  0.90345800  0.09240756  1
  Zr  Zr44  1  0.50709212  0.29148406  0.49884233  1
  Zr  Zr45  1  0.10249163  0.49795253  0.29802025  1
  Zr  Zr46  1  0.50205949  0.90047857  0.70348050  1
  Zr  Zr47  1  0.69448762  0.69820731  0.30222862  1
  Zr  Zr48  1  0.10176612  0.30387562  0.09707922  1
  Zr  Zr49  1  0.89786941  0.30588402  0.50293538  1
  Sc  Sc50  1  0.29717411  0.10151501  0.89769061  1
  Sc  Sc51  1  0.69887952  0.69585321  0.10093455  1
  Sc  Sc52  1  0.29605661  0.70687266  0.90121548  1
  Sc  Sc53  1  0.30346514  0.90009164  0.70901119  1
  Sc  Sc54  1  0.49675466  0.10713734  0.70042019  1
  Sc  Sc55  1  0.50444938  0.30804211  0.29693421  1
  Sc  Sc56  1  0.50290909  0.71334126  0.09793281  1
  Sc  Sc57  1  0.09822493  0.09387864  0.30231862  1
  Sc  Sc58  1  0.08729599  0.09598905  0.09908404  1
  Sc  Sc59  1  0.29825896  0.49971929  0.10672347  1
  Sc  Sc60  1  0.90213907  0.10217160  0.28843435  1
  Sc  Sc61  1  0.89570615  0.69878995  0.29739251  1
  Sc  Sc62  1  0.29959481  0.49457354  0.89677441  1
  Sc  Sc63  1  0.89554186  0.89451145  0.69601439  1
  Sc  Sc64  1  0.70128965  0.90412622  0.70259649  1
  Sc  Sc65  1  0.69437283  0.90177100  0.89251942  1
  Sc  Sc66  1  0.90024467  0.29531967  0.29730921  1
  Sc  Sc67  1  0.09448621  0.49338952  0.90260863  1
  Sc  Sc68  1  0.69234838  0.09257669  0.30802031  1
  Sc  Sc69  1  0.09550976  0.29510867  0.50669372  1
  Sc  Sc70  1  0.30364666  0.29917116  0.49728336  1
  Sc  Sc71  1  0.09963510  0.70415064  0.09026999  1
  Sc  Sc72  1  0.69810386  0.50223259  0.30367649  1
  Sc  Sc73  1  0.29231485  0.69813032  0.10336223  1
  Sc  Sc74  1  0.89437914  0.09508113  0.50395031  1
  Sc  Sc75  1  0.90135525  0.50033452  0.70738884  1
  Sc  Sc76  1  0.49698077  0.90012885  0.50017446  1
  Sc  Sc77  1  0.70168215  0.89626203  0.30543725  1
  Sc  Sc78  1  0.69715808  0.30493651  0.89181169  1
  Sc  Sc79  1  0.49582362  0.49672828  0.49901900  1
  Sc  Sc80  1  0.50373842  0.30354579  0.89995059  1
  Sc  Sc81  1  0.30907984  0.69767078  0.50807648  1
  Sc  Sc82  1  0.90376531  0.89620253  0.30223127  1
  Sc  Sc83  1  0.49953357  0.10587003  0.89989540  1
  Sc  Sc84  1  0.69798051  0.50214112  0.09493987  1
  Sc  Sc85  1  0.09773956  0.50217542  0.50429126  1
  Sc  Sc86  1  0.88619396  0.10070669  0.70291104  1
  Sc  Sc87  1  0.11202830  0.88655078  0.89229525  1
  Sc  Sc88  1  0.69318650  0.30150359  0.09737855  1
  Sc  Sc89  1  0.08979522  0.71102940  0.71416057  1
  Sc  Sc90  1  0.90012620  0.70791387  0.50090778  1
  Sc  Sc91  1  0.70451359  0.49644738  0.48961713  1
  Sc  Sc92  1  0.89664640  0.50189555  0.50689352  1
  Sc  Sc93  1  0.89683599  0.49491178  0.89786526  1
  Sc  Sc94  1  0.70493553  0.69967278  0.69903475  1
  Sc  Sc95  1  0.10237618  0.10400184  0.49347218  1
  Sc  Sc96  1  0.30009006  0.30682790  0.30497250  1
  Sc  Sc97  1  0.89082623  0.91709047  0.90365636  1
  Sc  Sc98  1  0.30513833  0.89634903  0.89955435  1
  Sc  Sc99  1  0.89955499  0.09783834  0.08259759  1
  Nb  Nb100  1  0.29501616  0.50579098  0.51638633  1
  Nb  Nb101  1  0.49217914  0.69567722  0.30189954  1
  Nb  Nb102  1  0.90489088  0.10160762  0.89755280  1
  Nb  Nb103  1  0.29889312  0.09845088  0.29812602  1
  Nb  Nb104  1  0.29911654  0.50379393  0.69558660  1
  Nb  Nb105  1  0.29389359  0.90070896  0.09496138  1
  Nb  Nb106  1  0.71726796  0.08941636  0.88967976  1
  Nb  Nb107  1  0.89600638  0.69446398  0.70218374  1
  Nb  Nb108  1  0.30626260  0.69769642  0.30395749  1
  Nb  Nb109  1  0.50346921  0.10004387  0.10058839  1
  Nb  Nb110  1  0.69750615  0.69797081  0.90390242  1
  Nb  Nb111  1  0.09955921  0.49780600  0.70012628  1
  Nb  Nb112  1  0.69149080  0.10355635  0.50232793  1
  Nb  Nb113  1  0.10480373  0.69706627  0.89651633  1
  Nb  Nb114  1  0.09635123  0.30653530  0.70146700  1
  Nb  Nb115  1  0.10138673  0.70064928  0.50247207  1
  Nb  Nb116  1  0.09828323  0.09705390  0.89932987  1
  Nb  Nb117  1  0.69854940  0.29885402  0.50149375  1
  Nb  Nb118  1  0.50607140  0.09778525  0.49477623  1
  Nb  Nb119  1  0.69899983  0.29459497  0.69578878  1
  Nb  Nb120  1  0.69776129  0.10634715  0.70168312  1
  Nb  Nb121  1  0.90115592  0.90186460  0.09840476  1
  Nb  Nb122  1  0.49460573  0.09511525  0.29547966  1
  Nb  Nb123  1  0.09969152  0.89833983  0.10156850  1
  Nb  Nb124  1  0.10466808  0.90355438  0.70172131  1
  Nb  Nb125  1  0.00045409  0.40127730  0.39853356  1
  Nb  Nb126  1  0.40340605  0.60082051  0.00006544  1
  Nb  Nb127  1  0.59107073  0.60382356  0.20505694  1
  Nb  Nb128  1  0.60091602  0.01042251  0.59754922  1
  Nb  Nb129  1  0.80364911  0.79153918  0.80847272  1
  Nb  Nb130  1  0.19894071  -0.00526347  0.00392325  1
  Nb  Nb131  1  0.20164922  0.79243552  0.39964191  1
  Nb  Nb132  1  0.60217372  0.59464143  0.59913285  1
  Nb  Nb133  1  0.20297526  0.60398251  0.40605151  1
  Nb  Nb134  1  0.20657160  0.19336061  0.20097027  1
  Nb  Nb135  1  0.00475664  0.00477327  0.79789585  1
  Nb  Nb136  1  0.19763909  -0.00514215  0.59824594  1
  Nb  Nb137  1  0.00190378  0.60776797  0.60786842  1
  Nb  Nb138  1  0.79600476  -0.00384995  0.19127166  1
  Nb  Nb139  1  0.80093720  0.40043713  0.19819466  1
  Nb  Nb140  1  0.80310419  0.79785123  -0.00434186  1
  Nb  Nb141  1  0.20062497  0.40299374  0.60772945  1
  Nb  Nb142  1  0.79157059  0.20211833  0.40663965  1
  Nb  Nb143  1  0.59461235  0.00014931  0.19490138  1
  Nb  Nb144  1  0.60530750  0.39769461  0.60351607  1
  Nb  Nb145  1  0.00742275  -0.00256138  0.60601051  1
  Nb  Nb146  1  0.59905594  0.00442291  0.00136171  1
  Nb  Nb147  1  0.19405002  0.80098339  0.59884489  1
  Nb  Nb148  1  0.19432494  0.59697220  0.79628203  1
  Nb  Nb149  1  0.00176569  0.19828941  0.80196753  1
  Pd  Pd150  1  0.79998049  0.80380726  0.19565535  1
  Pd  Pd151  1  0.40621814  -0.00537548  0.39200999  1
  Pd  Pd152  1  0.39396717  0.59514734  0.40964918  1
  Pd  Pd153  1  0.19631935  0.40652124  0.41484787  1
  Pd  Pd154  1  0.60661637  0.60497409  0.79244220  1
  Pd  Pd155  1  -0.00960057  0.00721890  0.40283686  1
  Pd  Pd156  1  0.40325281  0.00331065  0.80586935  1
  Pd  Pd157  1  0.39747135  0.20769428  0.20971609  1
  Pd  Pd158  1  0.79374551  0.40629818  0.60138168  1
  Pd  Pd159  1  0.20673611  0.20347773  0.59352502  1
  Pd  Pd160  1  0.39255046  0.79520099  0.19442581  1
  Pd  Pd161  1  -0.00024187  0.79948074  0.20013942  1
  Pd  Pd162  1  0.60454326  0.19491063  0.20911683  1
  Pd  Pd163  1  0.00845184  0.19768367  0.19801373  1
  Pd  Pd164  1  0.80213340  0.60503240  -0.00288724  1
  Pd  Pd165  1  0.78815804  0.19927557  0.21063177  1
  Pd  Pd166  1  0.00575875  0.59252375  0.00137746  1
  Pd  Pd167  1  0.80100438  0.19720562  0.59499733  1
  Pd  Pd168  1  0.19634036  0.00972792  0.19027035  1
  Pd  Pd169  1  -0.00698263  0.39567592  0.20194435  1
  Pd  Pd170  1  0.19952721  0.20183162  0.80199255  1
  Pd  Pd171  1  0.00034960  0.79999751  0.60423690  1
  Pd  Pd172  1  0.80565405  0.60331111  0.40321925  1
  Pd  Pd173  1  0.60835411  0.19389818  -0.01473433  1
  Pd  Pd174  1  0.39792048  0.39348295  0.19935835  1
  Pd  Pd175  1  0.80468921  0.20850360  0.80455729  1
  Pd  Pd176  1  -0.00947867  0.20168198  0.40127106  1
  Pd  Pd177  1  -0.01133954  0.81409095  0.80760567  1
  Pd  Pd178  1  0.01183005  -0.01241250  -0.00943564  1
  Pd  Pd179  1  0.20269543  0.19662752  0.39655414  1
  Pd  Pd180  1  -0.00326803  0.80950209  -0.01051903  1
  Pd  Pd181  1  0.20575791  0.59565115  -0.00870835  1
  Pd  Pd182  1  0.79284714  0.20528727  -0.01222187  1
  Pd  Pd183  1  0.59566531  0.00963882  0.79896027  1
  Pd  Pd184  1  0.39404340  0.80442312  0.60480958  1
  Pd  Pd185  1  0.39851615  0.40316767  0.40596052  1
  Pd  Pd186  1  0.59984760  0.20037404  0.38913569  1
  Pd  Pd187  1  0.40570427  0.20263618  0.38959549  1
  Pd  Pd188  1  0.40096306  0.20155974  0.59907082  1
  Pd  Pd189  1  -0.00128873  0.59698423  0.41071250  1
  Pd  Pd190  1  0.19806196  0.79269521  0.20297885  1
  Pd  Pd191  1  0.39795886  0.20305922  0.80666565  1
  Pd  Pd192  1  0.40041923  0.39985023  0.80625970  1
  Pd  Pd193  1  0.40050574  0.39397300  0.59743755  1
  Pd  Pd194  1  0.19805679  0.18279898  0.01071476  1
  Pd  Pd195  1  0.40287398  0.40605356  -0.00169237  1
  Pd  Pd196  1  0.80712052  0.00884756  0.38970296  1
  Pd  Pd197  1  0.60841075  0.80549800  0.60108779  1
  Pd  Pd198  1  -0.00677875  0.19041255  0.60698570  1
  Pd  Pd199  1  0.60229792  0.80438712  0.40361473  1
  Rh  Rh200  1  0.59788543  0.19895941  0.60527421  1
  Rh  Rh201  1  -0.00013635  0.39622689  0.80128669  1
  Rh  Rh202  1  0.60600071  0.80334224  -0.00765223  1
  Rh  Rh203  1  0.80002073  0.60381193  0.80871782  1
  Rh  Rh204  1  0.59115660  -0.00462407  0.39921564  1
  Rh  Rh205  1  0.60426435  0.40189497  0.79309564  1
  Rh  Rh206  1  0.60782041  0.41093470  0.19783067  1
  Rh  Rh207  1  0.79660132  0.79875269  0.60811205  1
  Rh  Rh208  1  0.79921799  0.39525951  0.79993355  1
  Rh  Rh209  1  0.40515624  -0.00562479  0.20570266  1
  Rh  Rh210  1  0.40583280  0.60864113  0.18904313  1
  Rh  Rh211  1  0.60719433  0.19510908  0.80386333  1
  Rh  Rh212  1  0.40311721  0.19899226  -0.00605159  1
  Rh  Rh213  1  0.19861911  0.40627216  0.79506293  1
  Rh  Rh214  1  0.19981755  0.00030752  0.80359203  1
  Rh  Rh215  1  0.41573126  0.60047837  0.59557316  1
  Rh  Rh216  1  0.79329452  0.00344771  0.60511879  1
  Rh  Rh217  1  0.20083830  0.40983229  0.00459768  1
  Rh  Rh218  1  0.00585539  0.40881085  0.59533078  1
  Rh  Rh219  1  0.80149294  0.60058810  0.59712744  1
  Rh  Rh220  1  0.38744190  0.60166313  0.81303567  1
  Rh  Rh221  1  0.20801783  0.38955733  0.19578361  1
  Rh  Rh222  1  0.81212454  0.39455836  0.39210954  1
  Rh  Rh223  1  0.59957721  0.39532030  0.00029807  1
  Rh  Rh224  1  0.39695693  0.79605656  0.79623803  1
  Rh  Rh225  1  0.59949104  0.79479329  0.20587391  1
  Rh  Rh226  1  0.79656518  0.39528101  0.00582844  1
  Rh  Rh227  1  0.80617010  -0.00531322  0.79132647  1
  Rh  Rh228  1  0.18807890  0.60291763  0.60518259  1
  Rh  Rh229  1  0.00377893  0.20268530  -0.00601810  1
  Rh  Rh230  1  0.00389187  0.60664610  0.19114026  1
  Rh  Rh231  1  0.20036081  0.60708237  0.20759035  1
  Rh  Rh232  1  0.78876008  -0.00629791  0.00600339  1
  Rh  Rh233  1  0.59168091  0.60564759  0.00962383  1
  Rh  Rh234  1  0.20778874  0.79060636  0.79065308  1
  Rh  Rh235  1  0.00662218  0.59184012  0.79664164  1
  Rh  Rh236  1  0.40605454  0.00184489  0.60246067  1
  Rh  Rh237  1  -0.01037028  -0.00207756  0.19570669  1
  Rh  Rh238  1  0.59419282  0.40345266  0.41011488  1
  Rh  Rh239  1  0.20177011  -0.00189020  0.40364546  1
  Rh  Rh240  1  0.39427093  0.80132523  0.39798479  1
  Rh  Rh241  1  0.38912449  0.79126643  0.00466710  1
  Rh  Rh242  1  0.19801494  0.80488631  0.00274872  1
  Rh  Rh243  1  0.80154910  0.79623875  0.39697514  1
  Rh  Rh244  1  0.00255621  0.40291137  0.00515686  1
  Rh  Rh245  1  -0.00001357  0.79574258  0.39388363  1
  Rh  Rh246  1  0.59678331  0.59956809  0.40114603  1
  Rh  Rh247  1  0.61060469  0.79398147  0.79893923  1
  Rh  Rh248  1  0.78820342  0.59232376  0.19989165  1
  Rh  Rh249  1  0.40039548  0.00191017  -0.01109173  1
