# generated using pymatgen
data_ZrScNbPdRh
_symmetry_space_group_name_H-M   'P 1'
_cell_length_a   16.55707624
_cell_length_b   16.55170814
_cell_length_c   16.55645782
_cell_angle_alpha   89.99436295
_cell_angle_beta   89.97201256
_cell_angle_gamma   89.98257177
_symmetry_Int_Tables_number   1
_chemical_formula_structural   ZrScNbPdRh
_chemical_formula_sum   'Zr50 Sc50 Nb50 Pd50 Rh50'
_cell_volume   4537.26161948
_cell_formula_units_Z   50
loop_
 _symmetry_equiv_pos_site_id
 _symmetry_equiv_pos_as_xyz
  1  'x, y, z'
loop_
 _atom_site_type_symbol
 _atom_site_label
 _atom_site_symmetry_multiplicity
 _atom_site_fract_x
 _atom_site_fract_y
 _atom_site_fract_z
 _atom_site_occupancy
  Zr  Zr0  1  0.89809331  0.89861810  0.10273850  1
  Zr  Zr1  1  0.70082647  0.69575882  0.89323607  1
  Zr  Zr2  1  0.08864641  0.90202862  0.69681658  1
  Zr  Zr3  1  0.69691394  0.69056192  0.10932425  1
  Zr  Zr4  1  0.51012706  0.50027403  0.10015016  1
  Zr  Zr5  1  0.29934799  0.49935912  0.49804444  1
  Zr  Zr6  1  0.90335379  0.29485213  0.69827932  1
  Zr  Zr7  1  0.30536896  0.50458014  0.10673567  1
  Zr  Zr8  1  0.30138464  0.70319417  0.08534594  1
  Zr  Zr9  1  0.49266139  0.90586133  0.51010301  1
  Zr  Zr10  1  0.09989006  0.29595507  0.30513437  1
  Zr  Zr11  1  0.10335989  0.89590984  0.30262938  1
  Zr  Zr12  1  0.70035189  0.91547899  0.10362707  1
  Zr  Zr13  1  0.29779757  0.69139769  0.28831782  1
  Zr  Zr14  1  0.29740112  0.10228982  0.90356427  1
  Zr  Zr15  1  0.70159954  0.29776560  0.30886095  1
  Zr  Zr16  1  0.50166299  0.90446147  0.29343087  1
  Zr  Zr17  1  0.69272574  0.70020967  0.30529172  1
  Zr  Zr18  1  0.70364531  0.09602781  0.50003680  1
  Zr  Zr19  1  0.89934624  0.90015607  0.89074892  1
  Zr  Zr20  1  0.89455578  0.09576824  0.09985638  1
  Zr  Zr21  1  0.28968734  0.50027392  0.70090776  1
  Zr  Zr22  1  0.90431801  0.50583410  0.70514650  1
  Zr  Zr23  1  0.30129115  0.90318291  0.09950428  1
  Zr  Zr24  1  0.90040863  0.69031857  0.88843717  1
  Zr  Zr25  1  0.69789962  0.69740198  0.69677944  1
  Zr  Zr26  1  0.70061980  0.69836751  0.49382170  1
  Zr  Zr27  1  0.89327929  0.10452317  0.31087607  1
  Zr  Zr28  1  0.29473074  0.30388569  0.89504959  1
  Zr  Zr29  1  0.09405959  0.30149757  0.09223569  1
  Zr  Zr30  1  0.69678114  0.09087630  0.90593325  1
  Zr  Zr31  1  0.69781163  0.10045419  0.70816839  1
  Zr  Zr32  1  0.50224970  0.70398126  0.69345461  1
  Zr  Zr33  1  0.10696606  0.69934353  0.90356016  1
  Zr  Zr34  1  0.49737069  0.69943859  0.10992879  1
  Zr  Zr35  1  0.29608288  0.29951173  0.09669677  1
  Zr  Zr36  1  0.10424726  0.10350859  0.08882424  1
  Zr  Zr37  1  0.10417494  0.49405035  0.89218956  1
  Zr  Zr38  1  0.10160030  0.70167957  0.10508636  1
  Zr  Zr39  1  0.09495317  0.90109009  0.90291482  1
  Zr  Zr40  1  0.49529525  0.09996819  0.89169866  1
  Zr  Zr41  1  0.29625356  0.69281090  0.69533529  1
  Zr  Zr42  1  0.89559822  0.09851840  0.89531023  1
  Zr  Zr43  1  0.50460290  0.49572467  0.68933403  1
  Zr  Zr44  1  0.50835512  0.10440431  0.09978018  1
  Zr  Zr45  1  0.30226298  0.91203415  0.30719608  1
  Zr  Zr46  1  0.30112280  0.09421324  0.49018219  1
  Zr  Zr47  1  0.50939392  0.69347729  0.50084728  1
  Zr  Zr48  1  0.09849600  0.68762418  0.49124152  1
  Zr  Zr49  1  0.90466174  0.29736769  0.90509860  1
  Sc  Sc50  1  0.09809768  0.11972783  0.49506280  1
  Sc  Sc51  1  0.89894563  0.29210380  0.50033461  1
  Sc  Sc52  1  0.49758571  0.30779187  0.51244847  1
  Sc  Sc53  1  0.69686189  0.29862849  0.89032793  1
  Sc  Sc54  1  0.50021352  0.90584969  0.90169951  1
  Sc  Sc55  1  0.10293085  0.89211727  0.49760900  1
  Sc  Sc56  1  0.49989712  0.70153018  0.90660501  1
  Sc  Sc57  1  0.10243614  0.50712267  0.30093422  1
  Sc  Sc58  1  0.90283194  0.50701250  0.50039478  1
  Sc  Sc59  1  0.50657972  0.09369362  0.50924289  1
  Sc  Sc60  1  0.69505148  0.09456394  0.30557144  1
  Sc  Sc61  1  0.49852761  0.90180363  0.10491166  1
  Sc  Sc62  1  0.10781747  0.30105850  0.68875546  1
  Sc  Sc63  1  0.89995511  0.69795955  0.30108032  1
  Sc  Sc64  1  0.49452518  0.49790347  0.29278202  1
  Sc  Sc65  1  0.29752352  0.90239084  0.49555972  1
  Sc  Sc66  1  0.49997032  0.29825411  0.90677445  1
  Sc  Sc67  1  0.30980597  0.10851379  0.70750002  1
  Sc  Sc68  1  0.09928455  0.49748145  0.68898177  1
  Sc  Sc69  1  0.29475469  0.10574179  0.30283121  1
  Sc  Sc70  1  0.70359637  0.50715406  0.30068096  1
  Sc  Sc71  1  0.90049984  0.69605000  0.11195423  1
  Sc  Sc72  1  0.50134541  0.29449502  0.70154445  1
  Sc  Sc73  1  0.09517255  0.69709598  0.29803927  1
  Sc  Sc74  1  0.70439106  0.90266595  0.50035579  1
  Sc  Sc75  1  0.69943406  0.29942292  0.50515068  1
  Sc  Sc76  1  0.69961075  0.89456538  0.70552405  1
  Sc  Sc77  1  0.29649380  0.49505776  0.30266622  1
  Sc  Sc78  1  0.89313279  0.89601679  0.29944295  1
  Sc  Sc79  1  0.69970777  0.90143018  0.30032402  1
  Sc  Sc80  1  0.29558895  0.69697229  0.50492095  1
  Sc  Sc81  1  0.09780983  0.49435762  0.10715474  1
  Sc  Sc82  1  0.90154369  0.69965810  0.69402246  1
  Sc  Sc83  1  0.89884755  0.09452332  0.69762105  1
  Sc  Sc84  1  0.89553333  0.10340322  0.50677946  1
  Sc  Sc85  1  0.09853642  0.69141986  0.69516221  1
  Sc  Sc86  1  0.30685139  0.90507088  0.69087213  1
  Sc  Sc87  1  0.68313965  0.30045655  0.09836770  1
  Sc  Sc88  1  0.29118421  0.50326620  0.90477544  1
  Sc  Sc89  1  0.90373686  0.50541606  0.29700965  1
  Sc  Sc90  1  0.30472341  0.90229444  0.91018781  1
  Sc  Sc91  1  0.30099388  0.30367155  0.29949590  1
  Sc  Sc92  1  0.09730835  0.89193963  0.09503555  1
  Sc  Sc93  1  0.51318642  0.49906860  0.90027295  1
  Sc  Sc94  1  0.70003923  0.50444111  0.49482884  1
  Sc  Sc95  1  0.29991212  0.29583990  0.69837607  1
  Sc  Sc96  1  0.89790459  0.69840993  0.49833867  1
  Sc  Sc97  1  0.69276184  0.30148468  0.70238701  1
  Sc  Sc98  1  0.29638984  0.30600916  0.49517002  1
  Sc  Sc99  1  0.49629773  0.30179370  0.10446241  1
  Nb  Nb100  1  0.09448690  0.30738484  0.50117062  1
  Nb  Nb101  1  0.49417936  0.90854331  0.69914914  1
  Nb  Nb102  1  0.50289330  0.29645562  0.30259757  1
  Nb  Nb103  1  0.09859009  0.10152697  0.30306299  1
  Nb  Nb104  1  0.10010717  0.49116448  0.49701937  1
  Nb  Nb105  1  0.70386870  0.09932215  0.09807713  1
  Nb  Nb106  1  0.69872713  0.49149659  0.71135945  1
  Nb  Nb107  1  0.10287255  0.29679059  0.90097172  1
  Nb  Nb108  1  0.90410026  0.90059431  0.69285175  1
  Nb  Nb109  1  0.89706245  0.50181891  0.89665459  1
  Nb  Nb110  1  0.90392630  0.30259107  0.10111773  1
  Nb  Nb111  1  0.89766035  0.30201562  0.29961657  1
  Nb  Nb112  1  0.10574708  0.10562111  0.70137208  1
  Nb  Nb113  1  0.49886743  0.10385557  0.30381863  1
  Nb  Nb114  1  0.10200009  0.10308942  0.89955158  1
  Nb  Nb115  1  0.90448276  0.90800566  0.50796437  1
  Nb  Nb116  1  0.49670725  0.49788765  0.49578630  1
  Nb  Nb117  1  0.29577608  0.09975613  0.09679378  1
  Nb  Nb118  1  0.70570628  0.50119407  0.09762347  1
  Nb  Nb119  1  0.50471860  0.70170380  0.30029628  1
  Nb  Nb120  1  0.49681693  0.08465367  0.70301015  1
  Nb  Nb121  1  0.30110348  0.70211333  0.89663485  1
  Nb  Nb122  1  0.71056821  0.50148259  0.89494044  1
  Nb  Nb123  1  0.70305093  0.89640054  0.90598152  1
  Nb  Nb124  1  0.90128482  0.49690485  0.10181939  1
  Nb  Nb125  1  0.59281199  0.39946606  0.39935971  1
  Nb  Nb126  1  0.79987884  0.20566291  0.19562608  1
  Nb  Nb127  1  -0.00501354  0.59255470  -0.00132535  1
  Nb  Nb128  1  0.19561364  0.00583004  0.19766983  1
  Nb  Nb129  1  0.00162611  0.39421094  0.80125701  1
  Nb  Nb130  1  -0.00045999  0.00089973  0.40036329  1
  Nb  Nb131  1  0.19610335  0.00033055  0.79827520  1
  Nb  Nb132  1  0.80232537  0.39739202  0.19244660  1
  Nb  Nb133  1  -0.00419548  0.19975834  0.20092549  1
  Nb  Nb134  1  0.40618378  0.60332612  0.39959929  1
  Nb  Nb135  1  0.39957290  0.60035081  0.79742066  1
  Nb  Nb136  1  0.39644236  0.79717664  0.79762649  1
  Nb  Nb137  1  0.40553348  0.79284609  0.39577843  1
  Nb  Nb138  1  0.79817648  0.20518798  0.00626147  1
  Nb  Nb139  1  0.01010741  0.20046424  0.80197756  1
  Nb  Nb140  1  0.20445479  0.80456723  0.79887123  1
  Nb  Nb141  1  0.19455916  0.00814003  0.60486262  1
  Nb  Nb142  1  0.80072330  0.40496199  0.00147939  1
  Nb  Nb143  1  0.79967341  0.40603446  0.60703236  1
  Nb  Nb144  1  -0.00008598  0.39649795  0.40112590  1
  Nb  Nb145  1  0.00500492  0.00628075  0.20639727  1
  Nb  Nb146  1  0.79597380  0.79756883  -0.00201045  1
  Nb  Nb147  1  0.60961103  0.80196453  0.00329740  1
  Nb  Nb148  1  0.41036457  0.20219510  0.39825616  1
  Nb  Nb149  1  0.39919738  0.40721238  0.79861502  1
  Pd  Pd150  1  -0.01371941  0.78668680  0.00102252  1
  Pd  Pd151  1  0.39446877  0.01535107  0.19974180  1
  Pd  Pd152  1  0.20542703  0.80668741  0.20073376  1
  Pd  Pd153  1  0.40718955  0.00457286  0.00329814  1
  Pd  Pd154  1  0.59426798  0.59847117  0.79786729  1
  Pd  Pd155  1  0.59399083  0.20481416  0.41487135  1
  Pd  Pd156  1  0.60902298  0.59056389  0.59970763  1
  Pd  Pd157  1  0.00274414  0.00882684  0.79638661  1
  Pd  Pd158  1  0.40041689  0.40734516  -0.00650005  1
  Pd  Pd159  1  0.39334787  0.39933542  0.60656217  1
  Pd  Pd160  1  0.00012761  0.79026662  0.59363734  1
  Pd  Pd161  1  0.59812946  0.19486065  0.60277333  1
  Pd  Pd162  1  0.58881902  0.80619549  0.80601999  1
  Pd  Pd163  1  0.59337074  0.81311037  0.40524995  1
  Pd  Pd164  1  0.19178631  0.59205249  0.00697437  1
  Pd  Pd165  1  -0.00098516  0.40860980  -0.00692287  1
  Pd  Pd166  1  0.20733412  0.19872310  0.59140980  1
  Pd  Pd167  1  0.80619885  0.39262179  0.79970123  1
  Pd  Pd168  1  0.80401945  0.79982089  0.79604944  1
  Pd  Pd169  1  0.79516832  0.59324068  0.60243715  1
  Pd  Pd170  1  0.59610805  -0.00519900  0.40272002  1
  Pd  Pd171  1  0.60744761  0.19611764  0.20194035  1
  Pd  Pd172  1  0.19676867  0.39937828  0.20127768  1
  Pd  Pd173  1  0.39460440  0.80072734  0.20454704  1
  Pd  Pd174  1  0.79326003  0.79789860  0.19786311  1
  Pd  Pd175  1  0.80522274  0.80363805  0.40471472  1
  Pd  Pd176  1  -0.00251195  0.00090909  0.00340790  1
  Pd  Pd177  1  0.79419644  -0.00382772  0.60855351  1
  Pd  Pd178  1  0.80246114  0.80312933  0.59699649  1
  Pd  Pd179  1  0.39847448  0.20100747  0.00024721  1
  Pd  Pd180  1  0.19506025  0.19878490  0.20032966  1
  Pd  Pd181  1  0.40057888  0.39781561  0.20118143  1
  Pd  Pd182  1  0.40521860  0.59344496  -0.00830212  1
  Pd  Pd183  1  0.59474173  0.19944308  0.80080152  1
  Pd  Pd184  1  0.39689206  0.19710302  0.20411376  1
  Pd  Pd185  1  0.80326070  0.40464950  0.40632042  1
  Pd  Pd186  1  -0.00891169  0.80495736  0.40230380  1
  Pd  Pd187  1  0.80730000  0.60231126  0.00435866  1
  Pd  Pd188  1  0.60910083  0.39889482  -0.00792298  1
  Pd  Pd189  1  0.21030309  0.78986953  0.39750796  1
  Pd  Pd190  1  0.40117920  0.19455540  0.59288591  1
  Pd  Pd191  1  0.00576788  0.79159552  0.79446355  1
  Pd  Pd192  1  0.60292549  -0.00962984  0.80080114  1
  Pd  Pd193  1  0.60492814  0.81012803  0.59599513  1
  Pd  Pd194  1  0.00882101  0.01220826  0.58842850  1
  Pd  Pd195  1  0.60790402  0.40431825  0.20905412  1
  Pd  Pd196  1  0.39646949  0.79646664  0.59611184  1
  Pd  Pd197  1  0.79350444  0.20420596  0.60521042  1
  Pd  Pd198  1  0.19862101  0.80780151  0.60587790  1
  Pd  Pd199  1  0.60202052  0.60445031  -0.00197655  1
  Rh  Rh200  1  0.19801924  0.39354665  0.79241334  1
  Rh  Rh201  1  0.79524980  0.20025548  0.40357232  1
  Rh  Rh202  1  0.59203759  0.58775083  0.39231258  1
  Rh  Rh203  1  0.80476567  -0.00292978  -0.00647392  1
  Rh  Rh204  1  0.20342433  0.80596172  -0.00495292  1
  Rh  Rh205  1  -0.00945650  0.39979239  0.59646499  1
  Rh  Rh206  1  0.20445619  0.39845240  0.59660394  1
  Rh  Rh207  1  0.40095308  0.59818692  0.59632473  1
  Rh  Rh208  1  0.00244806  0.59977392  0.59373732  1
  Rh  Rh209  1  0.60036886  0.00809392  0.20249495  1
  Rh  Rh210  1  -0.00142839  0.59114058  0.39944263  1
  Rh  Rh211  1  -0.00494053  0.19236063  -0.00242001  1
  Rh  Rh212  1  0.00258504  0.60073967  0.19539761  1
  Rh  Rh213  1  -0.00542349  0.20393863  0.39921971  1
  Rh  Rh214  1  0.00040112  0.80432240  0.20462761  1
  Rh  Rh215  1  0.40831366  0.39863003  0.39653270  1
  Rh  Rh216  1  0.19709254  -0.00475092  -0.00057603  1
  Rh  Rh217  1  0.19162713  0.39827906  0.39842501  1
  Rh  Rh218  1  0.20458465  0.20579272  -0.00352475  1
  Rh  Rh219  1  0.60495452  0.80449829  0.19417692  1
  Rh  Rh220  1  0.20863290  0.20773874  0.40258290  1
  Rh  Rh221  1  0.59958456  0.59295314  0.20520475  1
  Rh  Rh222  1  0.19843894  0.59736503  0.19478958  1
  Rh  Rh223  1  0.61234602  0.40630590  0.59080327  1
  Rh  Rh224  1  0.20659570  0.59852780  0.39976991  1
  Rh  Rh225  1  0.80165381  0.19867860  0.80375418  1
  Rh  Rh226  1  0.80814806  -0.00641152  0.40336642  1
  Rh  Rh227  1  0.38934391  0.00932043  0.60122274  1
  Rh  Rh228  1  0.79600005  0.60152771  0.78811217  1
  Rh  Rh229  1  0.20134184  0.40213326  0.00673676  1
  Rh  Rh230  1  0.18584382  0.00504058  0.40611577  1
  Rh  Rh231  1  0.00200802  0.19837428  0.60673839  1
  Rh  Rh232  1  0.40961800  0.79990028  -0.00281684  1
  Rh  Rh233  1  0.19266074  0.59241149  0.59075001  1
  Rh  Rh234  1  0.59390015  -0.00271670  0.00210687  1
  Rh  Rh235  1  0.80090581  0.59495039  0.20442258  1
  Rh  Rh236  1  0.19952674  0.60668022  0.79892986  1
  Rh  Rh237  1  0.60358469  0.19816485  -0.00247565  1
  Rh  Rh238  1  0.59266486  0.39834257  0.80322725  1
  Rh  Rh239  1  -0.00234365  0.39661949  0.21207250  1
  Rh  Rh240  1  0.41032514  0.00356984  0.39992401  1
  Rh  Rh241  1  0.79869036  -0.00733987  0.79378889  1
  Rh  Rh242  1  0.80041348  0.00720949  0.21025372  1
  Rh  Rh243  1  0.40471201  0.20835604  0.80218899  1
  Rh  Rh244  1  0.80266845  0.60403548  0.39682255  1
  Rh  Rh245  1  0.39027704  -0.00780310  0.80085541  1
  Rh  Rh246  1  0.00985120  0.59403650  0.80258049  1
  Rh  Rh247  1  0.60681824  -0.00209168  0.60930270  1
  Rh  Rh248  1  0.19748774  0.19919433  0.80244481  1
  Rh  Rh249  1  0.40303431  0.59795656  0.20322049  1
