# generated using pymatgen
data_ZrScNbPdRh
_symmetry_space_group_name_H-M   'P 1'
_cell_length_a   16.56575824
_cell_length_b   16.56151652
_cell_length_c   16.56232952
_cell_angle_alpha   89.94639826
_cell_angle_beta   89.97573443
_cell_angle_gamma   89.97446165
_symmetry_Int_Tables_number   1
_chemical_formula_structural   ZrScNbPdRh
_chemical_formula_sum   'Zr50 Sc50 Nb50 Pd50 Rh50'
_cell_volume   4543.93980983
_cell_formula_units_Z   50
loop_
 _symmetry_equiv_pos_site_id
 _symmetry_equiv_pos_as_xyz
  1  'x, y, z'
loop_
 _atom_site_type_symbol
 _atom_site_label
 _atom_site_symmetry_multiplicity
 _atom_site_fract_x
 _atom_site_fract_y
 _atom_site_fract_z
 _atom_site_occupancy
  Zr  Zr0  1  0.30060345  0.09130448  0.51280447  1
  Zr  Zr1  1  0.50117949  0.50441864  0.30158114  1
  Zr  Zr2  1  0.29992741  0.71117868  0.90450386  1
  Zr  Zr3  1  0.09591206  0.09677393  0.29604763  1
  Zr  Zr4  1  0.30429496  0.29891682  0.29820571  1
  Zr  Zr5  1  0.89567044  0.90032615  0.50306526  1
  Zr  Zr6  1  0.69164525  0.90089120  0.49920953  1
  Zr  Zr7  1  0.08953178  0.69630554  0.09567443  1
  Zr  Zr8  1  0.70142740  0.50297822  0.70317097  1
  Zr  Zr9  1  0.30759657  0.90550881  0.08157436  1
  Zr  Zr10  1  0.50812777  0.10228048  0.50155532  1
  Zr  Zr11  1  0.50163386  0.29882853  0.89835207  1
  Zr  Zr12  1  0.09775506  0.50786277  0.69434835  1
  Zr  Zr13  1  0.90088750  0.09120644  0.29690365  1
  Zr  Zr14  1  0.09000668  0.29809174  0.69863912  1
  Zr  Zr15  1  0.69704976  0.89618276  0.10032341  1
  Zr  Zr16  1  0.90913266  0.69275083  0.29647347  1
  Zr  Zr17  1  0.70319277  0.50360732  0.09539375  1
  Zr  Zr18  1  0.90269756  0.10147185  0.50576387  1
  Zr  Zr19  1  0.50591822  0.90368169  0.09800393  1
  Zr  Zr20  1  0.89836098  0.49833364  0.70663263  1
  Zr  Zr21  1  0.89227219  0.29571436  0.10625545  1
  Zr  Zr22  1  0.50584366  0.51032663  0.49930458  1
  Zr  Zr23  1  0.70207096  0.90272888  0.69749532  1
  Zr  Zr24  1  0.30161745  0.08582599  0.89899382  1
  Zr  Zr25  1  0.88941705  0.49653098  0.30425000  1
  Zr  Zr26  1  0.30711581  0.29127590  0.70111060  1
  Zr  Zr27  1  0.30476615  0.50005665  0.91117461  1
  Zr  Zr28  1  0.49653198  0.50314145  0.09829841  1
  Zr  Zr29  1  0.29692318  0.50535331  0.49935873  1
  Zr  Zr30  1  0.50412797  0.50405178  0.90893605  1
  Zr  Zr31  1  0.69763704  0.70396506  0.50282499  1
  Zr  Zr32  1  0.29495690  0.29682011  0.49395802  1
  Zr  Zr33  1  0.30006470  0.70025633  0.29704312  1
  Zr  Zr34  1  0.70533639  0.90597858  0.29945109  1
  Zr  Zr35  1  0.49983436  0.10454775  0.30005216  1
  Zr  Zr36  1  0.70008964  0.50699327  0.49305313  1
  Zr  Zr37  1  0.49970283  0.89898580  0.69935339  1
  Zr  Zr38  1  0.69972139  0.09850107  0.69980398  1
  Zr  Zr39  1  0.90192144  0.70270369  0.69658366  1
  Zr  Zr40  1  0.90243877  0.28935678  0.89749069  1
  Zr  Zr41  1  0.69837289  0.70134773  0.70310786  1
  Zr  Zr42  1  0.69629488  0.10343004  0.30305117  1
  Zr  Zr43  1  0.08682881  0.09523904  0.90017852  1
  Zr  Zr44  1  0.90365198  0.50274097  0.49549763  1
  Zr  Zr45  1  0.30166464  0.29966362  0.90753415  1
  Zr  Zr46  1  0.50067725  0.70475113  0.69886940  1
  Zr  Zr47  1  0.91322336  0.30167469  0.50642335  1
  Zr  Zr48  1  0.89869437  0.09488241  0.89314827  1
  Zr  Zr49  1  0.29760787  0.69804090  0.10103104  1
  Sc  Sc50  1  0.50133723  0.89760590  0.90020391  1
  Sc  Sc51  1  0.51282880  0.89899016  0.29796020  1
  Sc  Sc52  1  0.51071879  0.50801614  0.69831207  1
  Sc  Sc53  1  0.50019558  0.70162237  0.30304373  1
  Sc  Sc54  1  0.30767235  0.71036813  0.50106033  1
  Sc  Sc55  1  0.49204053  0.09766549  0.09777765  1
  Sc  Sc56  1  0.69525873  0.09900687  0.89589848  1
  Sc  Sc57  1  0.49631384  0.29525910  0.09603830  1
  Sc  Sc58  1  0.10270815  0.70742700  0.28869173  1
  Sc  Sc59  1  0.10035695  0.89623855  0.89810424  1
  Sc  Sc60  1  0.30216839  0.49861428  0.10157344  1
  Sc  Sc61  1  0.50544060  0.10304859  0.90160874  1
  Sc  Sc62  1  0.69866737  0.70105404  0.90534517  1
  Sc  Sc63  1  0.09124658  0.08803286  0.69895882  1
  Sc  Sc64  1  0.70497705  0.29299021  0.10491600  1
  Sc  Sc65  1  0.69605197  0.70539634  0.30691615  1
  Sc  Sc66  1  0.09421345  0.89217543  0.09169252  1
  Sc  Sc67  1  0.08999038  0.50715108  0.30365830  1
  Sc  Sc68  1  0.89434121  0.69692067  0.49943259  1
  Sc  Sc69  1  0.69925612  0.09413082  0.50338350  1
  Sc  Sc70  1  0.10638842  0.29650428  0.10758958  1
  Sc  Sc71  1  0.89818829  0.89974417  0.70034986  1
  Sc  Sc72  1  0.09498637  0.69811293  0.50980578  1
  Sc  Sc73  1  0.69563823  0.29851514  0.89291386  1
  Sc  Sc74  1  0.10339986  0.90784795  0.50089246  1
  Sc  Sc75  1  0.09923002  0.90175625  0.29874628  1
  Sc  Sc76  1  0.69976182  0.50315792  0.89437276  1
  Sc  Sc77  1  0.90305539  0.69582290  0.90590979  1
  Sc  Sc78  1  0.69272533  0.90104478  0.89504884  1
  Sc  Sc79  1  0.29784263  0.71203384  0.69368981  1
  Sc  Sc80  1  0.09238592  0.09733801  0.49576335  1
  Sc  Sc81  1  0.89667292  0.28837963  0.70021409  1
  Sc  Sc82  1  0.09144648  0.49793938  0.49934049  1
  Sc  Sc83  1  0.50564991  0.70471956  0.89875304  1
  Sc  Sc84  1  0.09396463  0.89546056  0.69472888  1
  Sc  Sc85  1  0.70024516  0.09761756  0.10417855  1
  Sc  Sc86  1  0.90500063  0.89680251  0.89669009  1
  Sc  Sc87  1  0.68881521  0.29945331  0.49977350  1
  Sc  Sc88  1  0.09982911  0.50662010  0.91192553  1
  Sc  Sc89  1  0.30566896  0.50314795  0.29191532  1
  Sc  Sc90  1  0.29866860  0.50894727  0.69395260  1
  Sc  Sc91  1  0.51013582  0.70256547  0.09605449  1
  Sc  Sc92  1  0.10790645  0.29506072  0.30619006  1
  Sc  Sc93  1  0.30418983  0.30036191  0.10305955  1
  Sc  Sc94  1  0.29154891  0.89455388  0.30813847  1
  Sc  Sc95  1  0.89693111  0.51820421  0.10136724  1
  Sc  Sc96  1  0.09636987  0.70205863  0.69696528  1
  Sc  Sc97  1  0.90535447  0.09909459  0.09988797  1
  Sc  Sc98  1  0.30518451  0.10493295  0.29754115  1
  Sc  Sc99  1  0.90501128  0.89803839  0.09749920  1
  Nb  Nb100  1  0.09253735  0.49618378  0.10238945  1
  Nb  Nb101  1  0.49687810  0.29812328  0.50321024  1
  Nb  Nb102  1  0.69930323  0.49492094  0.30152545  1
  Nb  Nb103  1  0.30388274  0.09717605  0.09510591  1
  Nb  Nb104  1  0.88871497  0.30144033  0.29613098  1
  Nb  Nb105  1  0.89638638  0.70282928  0.10030162  1
  Nb  Nb106  1  0.70565291  0.30248585  0.29640411  1
  Nb  Nb107  1  0.89523466  0.09329714  0.69941084  1
  Nb  Nb108  1  0.50270641  0.29577410  0.69746727  1
  Nb  Nb109  1  0.10295646  0.09519190  0.09799349  1
  Nb  Nb110  1  0.30491829  0.90407974  0.50785022  1
  Nb  Nb111  1  0.70720289  0.70037784  0.09888643  1
  Nb  Nb112  1  0.30336643  0.89555081  0.88858494  1
  Nb  Nb113  1  0.30102987  0.91330329  0.69634019  1
  Nb  Nb114  1  0.89995693  0.89875780  0.30001290  1
  Nb  Nb115  1  0.30179790  0.09503471  0.70069998  1
  Nb  Nb116  1  0.48868896  0.11033480  0.69554475  1
  Nb  Nb117  1  0.89878878  0.49447926  0.90122464  1
  Nb  Nb118  1  0.69682395  0.30817370  0.70299417  1
  Nb  Nb119  1  0.50420408  0.29305465  0.30750933  1
  Nb  Nb120  1  0.50412470  0.70998978  0.50182542  1
  Nb  Nb121  1  0.10109076  0.29820462  0.50696354  1
  Nb  Nb122  1  0.10472121  0.70242334  0.90433985  1
  Nb  Nb123  1  0.10081649  0.29499745  0.89816591  1
  Nb  Nb124  1  0.49845001  0.89806279  0.50326486  1
  Nb  Nb125  1  0.19888463  0.40065533  0.79973486  1
  Nb  Nb126  1  -0.00486803  0.80370238  0.39800998  1
  Nb  Nb127  1  0.19894614  0.19554775  0.80083644  1
  Nb  Nb128  1  0.40422830  0.39570771  0.59867720  1
  Nb  Nb129  1  0.20066345  0.39358562  0.60151102  1
  Nb  Nb130  1  0.20230111  0.60310186  0.80606828  1
  Nb  Nb131  1  0.20156064  0.60586844  0.40076543  1
  Nb  Nb132  1  0.80762678  0.39994515  -0.00434642  1
  Nb  Nb133  1  -0.00704730  0.40034202  0.19878066  1
  Nb  Nb134  1  0.39947073  0.80331684  0.19606872  1
  Nb  Nb135  1  0.60394134  0.39969030  0.20734172  1
  Nb  Nb136  1  0.39521957  0.60122037  0.80362907  1
  Nb  Nb137  1  0.79987818  -0.00176183  -0.00222223  1
  Nb  Nb138  1  0.79589207  0.39940319  0.60341954  1
  Nb  Nb139  1  0.60660323  0.59547460  0.20070852  1
  Nb  Nb140  1  0.00280444  0.39997056  0.80892681  1
  Nb  Nb141  1  -0.00292433  0.39868018  0.00343411  1
  Nb  Nb142  1  0.40087151  0.40366178  0.79478857  1
  Nb  Nb143  1  0.19894037  0.18995295  -0.00161737  1
  Nb  Nb144  1  0.19807968  0.19746298  0.60550419  1
  Nb  Nb145  1  0.40244179  -0.00552042  0.40755648  1
  Nb  Nb146  1  0.40693230  0.39623602  0.40435021  1
  Nb  Nb147  1  0.20287492  0.00411341  0.18884511  1
  Nb  Nb148  1  0.80360870  0.79731497  0.19834173  1
  Nb  Nb149  1  0.80275680  0.20555926  0.39615378  1
  Pd  Pd150  1  0.59182912  0.40354354  0.79931111  1
  Pd  Pd151  1  0.80062863  0.60789871  0.80758421  1
  Pd  Pd152  1  0.19974451  0.60040669  0.00334426  1
  Pd  Pd153  1  0.20606631  0.81362336  0.18763930  1
  Pd  Pd154  1  0.00631959  -0.00887647  0.19332669  1
  Pd  Pd155  1  0.80555780  0.79471896  0.39435438  1
  Pd  Pd156  1  0.79262009  0.19920076  0.79792607  1
  Pd  Pd157  1  0.19804813  0.18714609  0.40653134  1
  Pd  Pd158  1  0.00770271  0.59915668  0.80884025  1
  Pd  Pd159  1  0.41128676  -0.00105849  0.80200984  1
  Pd  Pd160  1  0.00424440  0.39083138  0.38917321  1
  Pd  Pd161  1  0.40289840  0.60270091  0.60445899  1
  Pd  Pd162  1  0.59961743  0.00677339  0.19847528  1
  Pd  Pd163  1  0.79787450  0.39018058  0.41358759  1
  Pd  Pd164  1  0.19943886  0.41072536  0.39876694  1
  Pd  Pd165  1  0.39870823  0.19467926  0.40598181  1
  Pd  Pd166  1  0.19893135  0.80652751  0.59654215  1
  Pd  Pd167  1  0.39630738  0.60202785  0.40196314  1
  Pd  Pd168  1  0.79227669  0.20794661  0.59393934  1
  Pd  Pd169  1  0.79155856  0.60714565  0.20958712  1
  Pd  Pd170  1  0.19258286  0.39314450  0.00254675  1
  Pd  Pd171  1  0.20651995  0.19284471  0.19396832  1
  Pd  Pd172  1  0.80188777  0.80733689  -0.00051299  1
  Pd  Pd173  1  0.00638046  0.20478714  0.00975809  1
  Pd  Pd174  1  0.19747024  0.79969091  0.79328075  1
  Pd  Pd175  1  0.19187389  -0.00213356  0.79524209  1
  Pd  Pd176  1  0.59185940  0.00543218  0.79522133  1
  Pd  Pd177  1  0.19313098  0.59199111  0.20281127  1
  Pd  Pd178  1  0.59544062  0.20477504  0.19507870  1
  Pd  Pd179  1  0.80022451  0.79930955  0.80501229  1
  Pd  Pd180  1  0.80159062  0.00722764  0.40481578  1
  Pd  Pd181  1  0.79240269  0.19463563  -0.00322048  1
  Pd  Pd182  1  0.40624766  0.80826290  0.39284573  1
  Pd  Pd183  1  0.40928035  0.79652845  0.00240220  1
  Pd  Pd184  1  0.80199414  0.59601863  0.60020508  1
  Pd  Pd185  1  0.60475238  0.19898798  0.00458185  1
  Pd  Pd186  1  0.60589455  0.19946839  0.60552693  1
  Pd  Pd187  1  0.19204043  0.40688019  0.20753921  1
  Pd  Pd188  1  0.61029379  0.39175597  0.00793727  1
  Pd  Pd189  1  0.59653214  0.39526578  0.39738652  1
  Pd  Pd190  1  0.39228145  -0.01032980  0.21203476  1
  Pd  Pd191  1  0.60018536  0.40324363  0.60046413  1
  Pd  Pd192  1  0.18821026  0.79340213  0.41023792  1
  Pd  Pd193  1  0.20647529  0.00608924  0.39348806  1
  Pd  Pd194  1  -0.00490550  0.20622894  0.39218501  1
  Pd  Pd195  1  0.19452153  -0.00443968  -0.00290888  1
  Pd  Pd196  1  0.41062519  0.39214752  0.20507138  1
  Pd  Pd197  1  0.00092807  0.20576011  0.20305809  1
  Pd  Pd198  1  0.39915843  0.19827683  0.80931057  1
  Pd  Pd199  1  0.00230630  0.79642152  0.80230992  1
  Rh  Rh200  1  0.40174698  0.20317733  0.19614176  1
  Rh  Rh201  1  0.60131971  0.60904033  0.39619953  1
  Rh  Rh202  1  0.40217876  0.60903401  -0.00179284  1
  Rh  Rh203  1  0.59279098  0.00247726  0.60691885  1
  Rh  Rh204  1  -0.00355611  0.60012981  -0.00110107  1
  Rh  Rh205  1  -0.00903513  0.60121469  0.59832361  1
  Rh  Rh206  1  0.60438224  0.79063764  0.19845336  1
  Rh  Rh207  1  0.60158047  0.80221741  0.60183091  1
  Rh  Rh208  1  0.60329690  0.79925655  0.79895203  1
  Rh  Rh209  1  0.79982740  0.40674061  0.19005484  1
  Rh  Rh210  1  0.59274685  -0.00240295  0.40114817  1
  Rh  Rh211  1  0.00001695  0.19552059  0.79177921  1
  Rh  Rh212  1  0.60172915  0.60776916  0.59864977  1
  Rh  Rh213  1  0.39853408  0.80643607  0.60353745  1
  Rh  Rh214  1  -0.00377507  0.40578258  0.60819575  1
  Rh  Rh215  1  0.40508352  0.39652371  0.00058433  1
  Rh  Rh216  1  0.01129622  0.61389712  0.40057324  1
  Rh  Rh217  1  0.59712337  0.80320060  0.40125254  1
  Rh  Rh218  1  -0.00563658  -0.00189380  0.60043361  1
  Rh  Rh219  1  -0.00697370  -0.00275992  -0.00017991  1
  Rh  Rh220  1  0.80654556  0.39180521  0.79983222  1
  Rh  Rh221  1  0.79464205  0.60478220  0.39605868  1
  Rh  Rh222  1  0.39740960  0.20095025  0.59445680  1
  Rh  Rh223  1  0.60788076  0.20279347  0.40068670  1
  Rh  Rh224  1  0.59469379  0.60426832  0.80403602  1
  Rh  Rh225  1  0.40893092  -0.00026054  -0.01189716  1
  Rh  Rh226  1  0.80294062  -0.00713567  0.18928204  1
  Rh  Rh227  1  0.19912241  0.59912386  0.59662444  1
  Rh  Rh228  1  0.60320414  0.80073586  -0.00125649  1
  Rh  Rh229  1  -0.00429992  -0.00787458  0.79518608  1
  Rh  Rh230  1  0.79750913  0.80105908  0.60261080  1
  Rh  Rh231  1  0.19770077  0.80576668  -0.00058397  1
  Rh  Rh232  1  0.80108080  0.18676764  0.20770666  1
  Rh  Rh233  1  0.00141101  0.59498599  0.19749193  1
  Rh  Rh234  1  0.19483646  0.00085857  0.60534338  1
  Rh  Rh235  1  0.41025196  -0.00193440  0.59977800  1
  Rh  Rh236  1  -0.00548075  0.80188195  0.59173234  1
  Rh  Rh237  1  -0.00730014  0.80303978  0.20382718  1
  Rh  Rh238  1  -0.00132352  0.79383778  -0.00551182  1
  Rh  Rh239  1  0.60024939  0.19780728  0.79061192  1
  Rh  Rh240  1  0.39643946  0.79980979  0.79437176  1
  Rh  Rh241  1  0.41057785  0.61338005  0.19203512  1
  Rh  Rh242  1  0.00528144  0.18805645  0.60508072  1
  Rh  Rh243  1  -0.00319929  -0.00994795  0.40218828  1
  Rh  Rh244  1  0.80013249  -0.00354003  0.80483376  1
  Rh  Rh245  1  0.80010365  -0.00226783  0.60032649  1
  Rh  Rh246  1  0.80033407  0.59666045  -0.00807231  1
  Rh  Rh247  1  0.39536641  0.19534761  -0.00174676  1
  Rh  Rh248  1  0.60504470  0.60458880  0.00367057  1
  Rh  Rh249  1  0.60553267  0.00153145  0.00121405  1
