# generated using pymatgen
data_ZrScNbPdRh
_symmetry_space_group_name_H-M   'P 1'
_cell_length_a   16.54980999
_cell_length_b   16.55107825
_cell_length_c   16.55244548
_cell_angle_alpha   90.03476791
_cell_angle_beta   89.97804991
_cell_angle_gamma   89.99624731
_symmetry_Int_Tables_number   1
_chemical_formula_structural   ZrScNbPdRh
_chemical_formula_sum   'Zr50 Sc50 Nb50 Pd50 Rh50'
_cell_volume   4533.99834383
_cell_formula_units_Z   50
loop_
 _symmetry_equiv_pos_site_id
 _symmetry_equiv_pos_as_xyz
  1  'x, y, z'
loop_
 _atom_site_type_symbol
 _atom_site_label
 _atom_site_symmetry_multiplicity
 _atom_site_fract_x
 _atom_site_fract_y
 _atom_site_fract_z
 _atom_site_occupancy
  Zr  Zr0  1  0.50198305  0.89592863  0.70449708  1
  Zr  Zr1  1  0.69793658  0.70525749  0.69782247  1
  Zr  Zr2  1  0.10542909  0.89806842  0.11007162  1
  Zr  Zr3  1  0.70213292  0.29872335  0.09675934  1
  Zr  Zr4  1  0.29466522  0.70331067  0.49901083  1
  Zr  Zr5  1  0.30133438  0.10952371  0.91277385  1
  Zr  Zr6  1  0.69938635  0.11247737  0.49928716  1
  Zr  Zr7  1  0.49803518  0.70091923  0.10548396  1
  Zr  Zr8  1  0.30000601  0.89527655  0.90278197  1
  Zr  Zr9  1  0.09743606  0.48862451  0.50413980  1
  Zr  Zr10  1  0.69519693  0.09839206  0.10141515  1
  Zr  Zr11  1  0.50324427  0.50286654  0.30307158  1
  Zr  Zr12  1  0.90523940  0.90569733  0.31240363  1
  Zr  Zr13  1  0.50116613  0.49883375  0.70450295  1
  Zr  Zr14  1  0.69954333  0.49777619  0.90483200  1
  Zr  Zr15  1  0.49678179  0.50784255  0.09407905  1
  Zr  Zr16  1  0.71211712  0.90174223  0.29254428  1
  Zr  Zr17  1  0.70460650  0.89971292  0.10372342  1
  Zr  Zr18  1  0.29352160  0.89525253  0.30147112  1
  Zr  Zr19  1  0.50542313  0.90002075  0.10484625  1
  Zr  Zr20  1  0.69660577  0.29823170  0.31159448  1
  Zr  Zr21  1  0.29560646  0.89513654  0.69679119  1
  Zr  Zr22  1  0.69307480  0.29927336  0.90238660  1
  Zr  Zr23  1  0.89993166  0.10792748  0.10603138  1
  Zr  Zr24  1  0.10507201  0.30341473  0.90626200  1
  Zr  Zr25  1  0.49722791  0.30628821  0.30593994  1
  Zr  Zr26  1  0.09774513  0.49689757  0.29510329  1
  Zr  Zr27  1  0.90284658  0.29976388  0.28554093  1
  Zr  Zr28  1  0.10182466  0.09683838  0.09789348  1
  Zr  Zr29  1  0.29871376  0.10314662  0.50959540  1
  Zr  Zr30  1  0.71826573  0.69785162  0.90632814  1
  Zr  Zr31  1  0.49602274  0.29692133  0.70585310  1
  Zr  Zr32  1  0.89594351  0.30490757  0.89055354  1
  Zr  Zr33  1  0.70208139  0.50344831  0.49105050  1
  Zr  Zr34  1  0.29965944  0.89625269  0.09963904  1
  Zr  Zr35  1  0.70914849  0.89981814  0.89649266  1
  Zr  Zr36  1  0.50082705  0.09703421  0.09804150  1
  Zr  Zr37  1  0.10476510  0.70114341  0.29622447  1
  Zr  Zr38  1  0.89695710  0.30305211  0.09645743  1
  Zr  Zr39  1  0.29029679  0.49858237  0.90039849  1
  Zr  Zr40  1  0.50732895  0.69445161  0.49320618  1
  Zr  Zr41  1  0.69426066  0.09999610  0.90546838  1
  Zr  Zr42  1  0.29148122  0.70258988  0.89674853  1
  Zr  Zr43  1  0.50268467  0.70350642  0.70195975  1
  Zr  Zr44  1  0.49800752  0.10513738  0.90552349  1
  Zr  Zr45  1  0.09137449  0.70844567  0.90414829  1
  Zr  Zr46  1  0.29298489  0.30019769  0.10147154  1
  Zr  Zr47  1  0.49088460  0.89267791  0.30147126  1
  Zr  Zr48  1  0.10766405  0.70192527  0.69865082  1
  Zr  Zr49  1  0.70418902  0.69789365  0.29594441  1
  Sc  Sc50  1  0.50066944  0.10677330  0.29802572  1
  Sc  Sc51  1  0.09643512  0.90880151  0.49480178  1
  Sc  Sc52  1  0.49938146  0.09981438  0.50199515  1
  Sc  Sc53  1  0.50223713  0.49854592  0.48911397  1
  Sc  Sc54  1  0.30128863  0.49999497  0.29699797  1
  Sc  Sc55  1  0.10511558  0.50281945  0.10283669  1
  Sc  Sc56  1  0.09814553  0.08963543  0.29888842  1
  Sc  Sc57  1  0.70755496  0.50278392  0.70417539  1
  Sc  Sc58  1  0.29852794  0.90614590  0.49441420  1
  Sc  Sc59  1  0.30032485  0.29528667  0.69829728  1
  Sc  Sc60  1  0.70521352  0.49521288  0.30255192  1
  Sc  Sc61  1  0.90312161  0.49821270  0.10528742  1
  Sc  Sc62  1  0.28481128  0.49943859  0.70056735  1
  Sc  Sc63  1  0.70999349  0.69908854  0.50429784  1
  Sc  Sc64  1  0.70660436  0.89781851  0.69229555  1
  Sc  Sc65  1  0.30105976  0.30451451  0.29937111  1
  Sc  Sc66  1  0.10478266  0.10378540  0.50224539  1
  Sc  Sc67  1  0.50466386  0.29256210  0.49902447  1
  Sc  Sc68  1  0.90346150  0.49019436  0.70159175  1
  Sc  Sc69  1  0.89183947  0.49785612  0.89954807  1
  Sc  Sc70  1  0.70769491  0.09618634  0.69642133  1
  Sc  Sc71  1  0.09726041  0.90033070  0.90951410  1
  Sc  Sc72  1  0.50161700  0.49815875  0.90276853  1
  Sc  Sc73  1  0.90481376  0.09154831  0.88381696  1
  Sc  Sc74  1  0.29596215  0.09677134  0.30622288  1
  Sc  Sc75  1  0.70203959  0.28606456  0.70510056  1
  Sc  Sc76  1  0.89511340  0.49973371  0.29839555  1
  Sc  Sc77  1  0.90099005  0.69969292  0.29278379  1
  Sc  Sc78  1  0.28885724  0.29907181  0.50028701  1
  Sc  Sc79  1  0.49589452  0.69849353  0.90851146  1
  Sc  Sc80  1  0.90434757  0.09334978  0.50001126  1
  Sc  Sc81  1  0.49639001  0.89896635  0.90932429  1
  Sc  Sc82  1  0.09309847  0.30146318  0.68746406  1
  Sc  Sc83  1  0.10246184  0.49968126  0.89771461  1
  Sc  Sc84  1  0.89407161  0.70421974  0.69712484  1
  Sc  Sc85  1  0.29411628  0.49812805  0.49555502  1
  Sc  Sc86  1  0.09119686  0.30905556  0.10718919  1
  Sc  Sc87  1  0.49382973  0.90561895  0.49921765  1
  Sc  Sc88  1  0.09914418  0.90182425  0.69435232  1
  Sc  Sc89  1  0.50086904  0.29572533  0.11422759  1
  Sc  Sc90  1  0.30135840  0.10167573  0.10297969  1
  Sc  Sc91  1  0.90599573  0.29637973  0.50284752  1
  Sc  Sc92  1  0.49439610  0.10647683  0.69066853  1
  Sc  Sc93  1  0.09807622  0.50065359  0.69409800  1
  Sc  Sc94  1  0.09185769  0.10151560  0.69108578  1
  Sc  Sc95  1  0.90175069  0.89960488  0.10893449  1
  Sc  Sc96  1  0.70246653  0.49901765  0.09361870  1
  Sc  Sc97  1  0.90600266  0.89350117  0.89043827  1
  Sc  Sc98  1  0.10581848  0.69507085  0.50686365  1
  Sc  Sc99  1  0.90061159  0.50122395  0.50152445  1
  Nb  Nb100  1  0.29982253  0.68995882  0.09558369  1
  Nb  Nb101  1  0.29530614  0.70074871  0.69792848  1
  Nb  Nb102  1  0.49948104  0.70350368  0.29940443  1
  Nb  Nb103  1  0.08994243  0.69678171  0.10268930  1
  Nb  Nb104  1  0.89663518  0.10172831  0.30168545  1
  Nb  Nb105  1  0.90191443  0.10207414  0.69388072  1
  Nb  Nb106  1  0.71001699  0.09645035  0.30639513  1
  Nb  Nb107  1  0.10074053  0.29982688  0.30177372  1
  Nb  Nb108  1  0.89670211  0.69737598  0.09079775  1
  Nb  Nb109  1  0.10135183  0.90015300  0.29521347  1
  Nb  Nb110  1  0.30067490  0.50261728  0.09525484  1
  Nb  Nb111  1  0.10197996  0.10313074  0.90343133  1
  Nb  Nb112  1  0.29588922  0.10133304  0.70019096  1
  Nb  Nb113  1  0.30011351  0.29941500  0.90219358  1
  Nb  Nb114  1  0.70911834  0.70394905  0.10031312  1
  Nb  Nb115  1  0.90345405  0.70227595  0.49645094  1
  Nb  Nb116  1  0.31151727  0.70695441  0.30278157  1
  Nb  Nb117  1  0.90215385  0.91459072  0.69369290  1
  Nb  Nb118  1  0.89747273  0.89639791  0.50006074  1
  Nb  Nb119  1  0.49036242  0.29948356  0.89293290  1
  Nb  Nb120  1  0.89940301  0.29086965  0.69804773  1
  Nb  Nb121  1  0.69761680  0.29925372  0.50385043  1
  Nb  Nb122  1  0.10029325  0.29669374  0.49372741  1
  Nb  Nb123  1  0.70660234  0.90143144  0.49260785  1
  Nb  Nb124  1  0.90445965  0.70117999  0.90301025  1
  Nb  Nb125  1  0.60045833  0.60582095  0.19788450  1
  Nb  Nb126  1  0.60972030  -0.00266399  0.39795969  1
  Nb  Nb127  1  0.19885486  0.19643218  0.80469912  1
  Nb  Nb128  1  -0.00819141  0.80478844  0.59468133  1
  Nb  Nb129  1  0.39560408  0.20026106  0.40192954  1
  Nb  Nb130  1  0.00102539  0.19905174  -0.00520894  1
  Nb  Nb131  1  0.60471671  0.80392641  0.39544418  1
  Nb  Nb132  1  0.39426020  0.39607239  -0.00248166  1
  Nb  Nb133  1  0.79543279  0.39053759  0.59943225  1
  Nb  Nb134  1  0.60399506  0.39726840  0.59982894  1
  Nb  Nb135  1  0.80172418  0.00151608  0.00062368  1
  Nb  Nb136  1  0.00438694  0.20191794  0.39159463  1
  Nb  Nb137  1  0.00275515  0.60185918  0.40073230  1
  Nb  Nb138  1  -0.00316670  0.60915483  0.80346263  1
  Nb  Nb139  1  0.39736734  0.60041803  0.60392893  1
  Nb  Nb140  1  0.20244050  0.00925460  0.80266246  1
  Nb  Nb141  1  0.40457965  0.40360992  0.60073778  1
  Nb  Nb142  1  0.19275718  0.20301674  0.20451549  1
  Nb  Nb143  1  0.39801666  0.79215225  0.60092415  1
  Nb  Nb144  1  0.39568200  0.00385819  0.80073560  1
  Nb  Nb145  1  0.60108296  0.60490987  0.80384690  1
  Nb  Nb146  1  0.61055723  0.79592775  0.00619941  1
  Nb  Nb147  1  0.39926664  -0.00453447  0.20192518  1
  Nb  Nb148  1  0.59492011  -0.00115143  0.79976625  1
  Nb  Nb149  1  0.39560240  0.60386098  0.79562455  1
  Pd  Pd150  1  0.19453049  0.38796329  0.78984639  1
  Pd  Pd151  1  -0.00459162  0.80756073  0.01024397  1
  Pd  Pd152  1  0.79781746  0.59400536  0.19476026  1
  Pd  Pd153  1  0.39972778  0.60031621  0.20584580  1
  Pd  Pd154  1  0.00535183  0.40447127  0.79705382  1
  Pd  Pd155  1  0.60036597  0.79869421  0.81624447  1
  Pd  Pd156  1  -0.00171787  0.40256760  -0.00120178  1
  Pd  Pd157  1  0.00957983  0.79452781  0.40488725  1
  Pd  Pd158  1  0.81238388  0.20515604  0.40420530  1
  Pd  Pd159  1  0.60530328  0.40965212  0.19785874  1
  Pd  Pd160  1  0.59785470  0.80764759  0.58599029  1
  Pd  Pd161  1  -0.00283976  0.58964344  -0.00461377  1
  Pd  Pd162  1  0.00796991  0.20258833  0.80041869  1
  Pd  Pd163  1  0.60770427  0.40282650  0.79574200  1
  Pd  Pd164  1  0.81107398  0.19203408  -0.01256794  1
  Pd  Pd165  1  0.20332793  0.40008942  0.39577792  1
  Pd  Pd166  1  0.80928923  0.80426724  0.79123446  1
  Pd  Pd167  1  0.79840826  0.79304566  0.39712014  1
  Pd  Pd168  1  0.40249241  0.79660963  0.00499259  1
  Pd  Pd169  1  0.20271637  -0.00230963  -0.00175960  1
  Pd  Pd170  1  0.20608353  0.78584357  0.19398175  1
  Pd  Pd171  1  0.39029926  0.40749976  0.79945523  1
  Pd  Pd172  1  0.39866831  -0.00577591  0.60635153  1
  Pd  Pd173  1  0.19055707  0.60549480  0.00058846  1
  Pd  Pd174  1  0.39787782  0.40595280  0.19317706  1
  Pd  Pd175  1  -0.00971392  0.00220124  -0.00101962  1
  Pd  Pd176  1  0.19548712  0.00300884  0.40186233  1
  Pd  Pd177  1  0.59598882  0.00409560  0.21282949  1
  Pd  Pd178  1  0.60668378  0.19859364  0.20759699  1
  Pd  Pd179  1  -0.00536778  0.79787819  0.20022856  1
  Pd  Pd180  1  0.79896897  0.00364753  0.59186517  1
  Pd  Pd181  1  0.20693646  0.60371047  0.20197959  1
  Pd  Pd182  1  0.60005204  0.59076160  0.60391704  1
  Pd  Pd183  1  0.79950276  0.19234407  0.80380937  1
  Pd  Pd184  1  0.80944048  0.39366197  0.40633245  1
  Pd  Pd185  1  0.19099330  0.80314368  0.40486570  1
  Pd  Pd186  1  -0.00357274  0.00161268  0.20419611  1
  Pd  Pd187  1  -0.00804791  0.39990168  0.39749173  1
  Pd  Pd188  1  0.01116907  -0.00155303  0.79517351  1
  Pd  Pd189  1  0.18905032  0.81105787  0.80149150  1
  Pd  Pd190  1  0.58623111  0.39132366  0.00371004  1
  Pd  Pd191  1  0.80505291  0.60069651  0.79725391  1
  Pd  Pd192  1  0.80665723  0.59310901  0.60160942  1
  Pd  Pd193  1  0.39492042  0.59923659  0.40313512  1
  Pd  Pd194  1  0.60333817  -0.00205343  0.59885127  1
  Pd  Pd195  1  0.59773383  0.18909555  0.79505946  1
  Pd  Pd196  1  0.78976893  0.20211341  0.20427032  1
  Pd  Pd197  1  -0.00459954  0.60629237  0.60216130  1
  Pd  Pd198  1  0.40694548  0.21116617  0.00988556  1
  Pd  Pd199  1  0.19562076  0.59725361  0.39674694  1
  Rh  Rh200  1  0.80838084  0.00587861  0.19603111  1
  Rh  Rh201  1  0.61117690  0.61067979  0.00020395  1
  Rh  Rh202  1  0.20345894  0.59204828  0.59667409  1
  Rh  Rh203  1  0.19539232  0.20302097  0.60763677  1
  Rh  Rh204  1  0.19361583  0.79087883  0.01140069  1
  Rh  Rh205  1  0.39707377  -0.00177833  0.00414660  1
  Rh  Rh206  1  0.79538110  0.39226397  0.79171140  1
  Rh  Rh207  1  0.19692507  0.19986116  0.39341951  1
  Rh  Rh208  1  -0.00090031  0.19789406  0.59032613  1
  Rh  Rh209  1  0.59493938  0.19310537  0.39734162  1
  Rh  Rh210  1  0.59960192  0.20344344  0.60538282  1
  Rh  Rh211  1  -0.00012519  0.40576625  0.20088605  1
  Rh  Rh212  1  0.20132106  0.39561756  0.59925208  1
  Rh  Rh213  1  0.20027528  0.39959777  0.19970781  1
  Rh  Rh214  1  0.19758939  0.80926473  0.59125137  1
  Rh  Rh215  1  -0.00104091  0.60178823  0.20285322  1
  Rh  Rh216  1  0.40518046  0.79520104  0.41101369  1
  Rh  Rh217  1  0.39777048  0.39009781  0.41109670  1
  Rh  Rh218  1  0.00143849  0.00616095  0.39957546  1
  Rh  Rh219  1  0.80202195  0.40158863  0.00021616  1
  Rh  Rh220  1  0.19269238  0.60374452  0.80163275  1
  Rh  Rh221  1  0.38811789  0.19149844  0.21022209  1
  Rh  Rh222  1  -0.00813984  0.39370333  0.60009819  1
  Rh  Rh223  1  0.80675504  0.80824078  0.00374960  1
  Rh  Rh224  1  0.80677390  0.80379701  0.59915847  1
  Rh  Rh225  1  0.18996169  0.20709877  0.00792745  1
  Rh  Rh226  1  0.20305976  0.40239061  0.00760016  1
  Rh  Rh227  1  0.80074894  0.00464748  0.40628536  1
  Rh  Rh228  1  0.58968527  0.21191424  0.00157846  1
  Rh  Rh229  1  0.20702473  0.00432730  0.20182633  1
  Rh  Rh230  1  0.60590438  0.60686739  0.38933232  1
  Rh  Rh231  1  -0.00310102  0.79777583  0.78532730  1
  Rh  Rh232  1  0.00025617  -0.00247330  0.59561696  1
  Rh  Rh233  1  0.39084424  0.59336515  -0.01105107  1
  Rh  Rh234  1  0.19684577  0.00110946  0.60280547  1
  Rh  Rh235  1  0.39043699  0.79902627  0.19506847  1
  Rh  Rh236  1  0.60841783  -0.01301491  -0.00788434  1
  Rh  Rh237  1  0.80788880  0.59383444  0.00501304  1
  Rh  Rh238  1  0.60553893  0.79144368  0.20038810  1
  Rh  Rh239  1  0.39769751  0.79913427  0.79683339  1
  Rh  Rh240  1  0.60084414  0.39964913  0.40589705  1
  Rh  Rh241  1  0.81015623  0.60383948  0.40140315  1
  Rh  Rh242  1  0.39572209  0.20985200  0.59157795  1
  Rh  Rh243  1  0.40871613  0.01167395  0.39361530  1
  Rh  Rh244  1  0.79326704  0.39858537  0.19778024  1
  Rh  Rh245  1  0.00773461  0.19498205  0.20104922  1
  Rh  Rh246  1  0.80669809  0.20096468  0.59818612  1
  Rh  Rh247  1  0.79698529  0.00180917  0.79919120  1
  Rh  Rh248  1  0.81328937  0.79871221  0.20031214  1
  Rh  Rh249  1  0.39135742  0.19351906  0.79937074  1
