# generated using pymatgen
data_ZrScNbPdRh
_symmetry_space_group_name_H-M   'P 1'
_cell_length_a   16.55705014
_cell_length_b   16.56069574
_cell_length_c   16.56080395
_cell_angle_alpha   90.01038605
_cell_angle_beta   90.00335562
_cell_angle_gamma   90.00145368
_symmetry_Int_Tables_number   1
_chemical_formula_structural   ZrScNbPdRh
_chemical_formula_sum   'Zr50 Sc50 Nb50 Pd50 Rh50'
_cell_volume   4540.91058295
_cell_formula_units_Z   50
loop_
 _symmetry_equiv_pos_site_id
 _symmetry_equiv_pos_as_xyz
  1  'x, y, z'
loop_
 _atom_site_type_symbol
 _atom_site_label
 _atom_site_symmetry_multiplicity
 _atom_site_fract_x
 _atom_site_fract_y
 _atom_site_fract_z
 _atom_site_occupancy
  Zr  Zr0  1  0.89713302  0.51893611  0.90282611  1
  Zr  Zr1  1  0.10959084  0.30648354  0.50373944  1
  Zr  Zr2  1  0.89886342  0.29933396  0.10107769  1
  Zr  Zr3  1  0.10483707  0.30393421  0.29806900  1
  Zr  Zr4  1  0.70561023  0.30572021  0.29655040  1
  Zr  Zr5  1  0.49035583  0.09624316  0.50385830  1
  Zr  Zr6  1  0.89658723  0.90056073  0.30118581  1
  Zr  Zr7  1  0.29816443  0.70565376  0.70963160  1
  Zr  Zr8  1  0.89551952  0.08858136  0.90018809  1
  Zr  Zr9  1  0.50274807  0.70016871  0.50228156  1
  Zr  Zr10  1  0.89736348  0.88723761  0.50293237  1
  Zr  Zr11  1  0.90128947  0.29947123  0.69624711  1
  Zr  Zr12  1  0.09941083  0.50183993  0.50464458  1
  Zr  Zr13  1  0.09327506  0.08592370  0.09406557  1
  Zr  Zr14  1  0.71460676  0.70102675  0.90086423  1
  Zr  Zr15  1  0.30809372  0.89613993  0.50120126  1
  Zr  Zr16  1  0.69246485  0.90874211  0.10454666  1
  Zr  Zr17  1  0.69716709  0.29880857  0.89571219  1
  Zr  Zr18  1  0.69499764  0.09832275  0.50093192  1
  Zr  Zr19  1  0.28631712  0.90049070  0.09488092  1
  Zr  Zr20  1  0.30424712  0.90229489  0.29786673  1
  Zr  Zr21  1  0.90221715  0.09818035  0.49958658  1
  Zr  Zr22  1  0.49869258  0.29721436  0.29425590  1
  Zr  Zr23  1  0.50174993  0.29779194  0.50997265  1
  Zr  Zr24  1  0.50018253  0.69783172  0.30606363  1
  Zr  Zr25  1  0.71203818  0.70288514  0.50053017  1
  Zr  Zr26  1  0.48558476  0.30326542  0.70090180  1
  Zr  Zr27  1  0.70373670  0.29985839  0.49838074  1
  Zr  Zr28  1  0.29637618  0.51757708  0.90566093  1
  Zr  Zr29  1  0.30644669  0.70634924  0.30023697  1
  Zr  Zr30  1  0.10105464  0.50692428  0.89927582  1
  Zr  Zr31  1  0.69573015  0.69902397  0.70254438  1
  Zr  Zr32  1  0.69849243  0.51163776  0.89535360  1
  Zr  Zr33  1  0.10857158  0.69907695  0.89950421  1
  Zr  Zr34  1  0.48519725  0.09609291  0.30027290  1
  Zr  Zr35  1  0.89604185  0.30350091  0.49854667  1
  Zr  Zr36  1  0.89247601  0.09829409  0.10148668  1
  Zr  Zr37  1  0.10345525  0.71094959  0.10586088  1
  Zr  Zr38  1  0.10435729  0.49441127  0.09806711  1
  Zr  Zr39  1  0.09781603  0.09884083  0.69912492  1
  Zr  Zr40  1  0.09865464  0.50439183  0.30713505  1
  Zr  Zr41  1  0.49929332  0.89302313  0.28366180  1
  Zr  Zr42  1  0.08966849  0.89609691  0.50062773  1
  Zr  Zr43  1  0.90690805  0.09654586  0.70873142  1
  Zr  Zr44  1  0.89846935  0.90570265  0.09757921  1
  Zr  Zr45  1  0.30323031  0.28906747  0.29678421  1
  Zr  Zr46  1  0.50123382  0.89874270  0.50807698  1
  Zr  Zr47  1  0.70073541  0.50890768  0.69943219  1
  Zr  Zr48  1  0.29331287  0.29762866  0.09639779  1
  Zr  Zr49  1  0.10042263  0.29921424  0.10121905  1
  Sc  Sc50  1  0.30148794  0.90557444  0.89612652  1
  Sc  Sc51  1  0.30197299  0.09713096  0.89749982  1
  Sc  Sc52  1  0.29843607  0.70006136  0.09463280  1
  Sc  Sc53  1  0.31119724  0.90283303  0.70110397  1
  Sc  Sc54  1  0.70480996  0.09095959  0.29773642  1
  Sc  Sc55  1  0.70825398  0.50225999  0.30156990  1
  Sc  Sc56  1  0.70331670  0.29878341  0.10423816  1
  Sc  Sc57  1  0.29400448  0.49638280  0.49879337  1
  Sc  Sc58  1  0.49749384  0.09915858  0.90218001  1
  Sc  Sc59  1  0.69899230  0.90279391  0.30256040  1
  Sc  Sc60  1  0.29734124  0.09924514  0.09781868  1
  Sc  Sc61  1  0.30970623  0.50091341  0.70348336  1
  Sc  Sc62  1  0.09146596  0.90260969  0.70157664  1
  Sc  Sc63  1  0.69862245  0.09754289  0.70898099  1
  Sc  Sc64  1  0.09895750  0.29830537  0.90638841  1
  Sc  Sc65  1  0.90481571  0.89772035  0.70231983  1
  Sc  Sc66  1  0.50168506  0.69892725  0.89085529  1
  Sc  Sc67  1  0.09315086  0.70437291  0.70990950  1
  Sc  Sc68  1  0.50126815  0.89809709  0.70180374  1
  Sc  Sc69  1  0.29851407  0.50219175  0.30745106  1
  Sc  Sc70  1  0.31061778  0.70108433  0.49302737  1
  Sc  Sc71  1  0.09336051  0.10320215  0.50254674  1
  Sc  Sc72  1  0.10446922  0.29646047  0.69176841  1
  Sc  Sc73  1  0.89563869  0.29958978  0.29809761  1
  Sc  Sc74  1  0.50462650  0.50764612  0.29766295  1
  Sc  Sc75  1  0.29953933  0.10436349  0.70330441  1
  Sc  Sc76  1  0.89542477  0.69089161  0.09841873  1
  Sc  Sc77  1  0.90417098  0.28601798  0.89727679  1
  Sc  Sc78  1  0.49851083  0.70605371  0.11928830  1
  Sc  Sc79  1  0.89726273  0.50528475  0.29860892  1
  Sc  Sc80  1  0.70797310  0.50207574  0.50124468  1
  Sc  Sc81  1  0.09243582  0.09837127  0.29646147  1
  Sc  Sc82  1  0.50049304  0.50696200  0.50746959  1
  Sc  Sc83  1  0.90346432  0.69331331  0.30292210  1
  Sc  Sc84  1  0.69730079  0.89707897  0.70358018  1
  Sc  Sc85  1  0.30545000  0.29318603  0.89820483  1
  Sc  Sc86  1  0.09962633  0.88990150  0.28667248  1
  Sc  Sc87  1  0.49278405  0.29288606  0.89778377  1
  Sc  Sc88  1  0.69359471  0.29986791  0.68989878  1
  Sc  Sc89  1  0.10375635  0.90600903  0.90290297  1
  Sc  Sc90  1  0.48641465  0.50115461  0.89730912  1
  Sc  Sc91  1  0.69863487  0.09674730  0.90072022  1
  Sc  Sc92  1  0.89954811  0.09947367  0.29657337  1
  Sc  Sc93  1  0.50315838  0.69920389  0.69419261  1
  Sc  Sc94  1  0.70092491  0.89717636  0.50122797  1
  Sc  Sc95  1  0.30084607  0.29601599  0.51300755  1
  Sc  Sc96  1  0.70634246  0.50081676  0.11124560  1
  Sc  Sc97  1  0.09320586  0.09699114  0.89257159  1
  Sc  Sc98  1  0.49404577  0.29340630  0.09014535  1
  Sc  Sc99  1  0.90547506  0.50206005  0.10377625  1
  Nb  Nb100  1  0.10189480  0.69264785  0.30013395  1
  Nb  Nb101  1  0.89956958  0.70654446  0.90121225  1
  Nb  Nb102  1  0.30298162  0.09787937  0.30865575  1
  Nb  Nb103  1  0.70585157  0.89813409  0.90465882  1
  Nb  Nb104  1  0.50173584  0.90703370  0.91044209  1
  Nb  Nb105  1  0.50868355  0.08506694  0.09190417  1
  Nb  Nb106  1  0.88546889  0.89738835  0.90520315  1
  Nb  Nb107  1  0.09652644  0.70050683  0.49399919  1
  Nb  Nb108  1  0.90381213  0.50408971  0.50161189  1
  Nb  Nb109  1  0.49664070  0.49966530  0.09592808  1
  Nb  Nb110  1  0.30377234  0.50179488  0.09592046  1
  Nb  Nb111  1  0.09714078  0.89788192  0.09552876  1
  Nb  Nb112  1  0.50051096  0.90390436  0.09342320  1
  Nb  Nb113  1  0.10172803  0.49931013  0.69772375  1
  Nb  Nb114  1  0.29642744  0.70401967  0.90139480  1
  Nb  Nb115  1  0.89867290  0.70424185  0.69905055  1
  Nb  Nb116  1  0.90469823  0.70096373  0.50250943  1
  Nb  Nb117  1  0.49372988  0.09825640  0.70267727  1
  Nb  Nb118  1  0.30396943  0.09395531  0.49721600  1
  Nb  Nb119  1  0.50775508  0.49793302  0.70008383  1
  Nb  Nb120  1  0.69578356  0.09972755  0.10427211  1
  Nb  Nb121  1  0.70156948  0.69849349  0.29727009  1
  Nb  Nb122  1  0.29672279  0.30136075  0.70277997  1
  Nb  Nb123  1  0.69911515  0.70383140  0.10014653  1
  Nb  Nb124  1  0.90807964  0.50050144  0.69294884  1
  Nb  Nb125  1  -0.00158851  0.40481022  0.40671590  1
  Nb  Nb126  1  0.60050070  0.40743437  -0.00254710  1
  Nb  Nb127  1  0.79678359  0.40187179  -0.00811173  1
  Nb  Nb128  1  0.20229601  0.00122942  0.40173126  1
  Nb  Nb129  1  -0.00008373  0.40729277  0.79510424  1
  Nb  Nb130  1  0.80428762  0.00018975  0.60076744  1
  Nb  Nb131  1  0.39817809  0.40451054  0.19443689  1
  Nb  Nb132  1  -0.00586946  0.80180377  -0.00358946  1
  Nb  Nb133  1  0.40538633  0.80408035  -0.00233873  1
  Nb  Nb134  1  0.59702045  0.19215215  0.19907400  1
  Nb  Nb135  1  0.19627256  0.79790256  0.59602305  1
  Nb  Nb136  1  0.60050044  0.80109846  0.00094146  1
  Nb  Nb137  1  0.19513265  0.60800558  0.60151195  1
  Nb  Nb138  1  0.40618643  0.39464438  0.39733174  1
  Nb  Nb139  1  0.19888004  0.40372398  0.79788156  1
  Nb  Nb140  1  0.20197470  -0.00334054  0.59290570  1
  Nb  Nb141  1  0.19914256  0.59988490  0.20102790  1
  Nb  Nb142  1  0.80373604  0.40574793  0.79900037  1
  Nb  Nb143  1  0.79436901  0.79694913  0.19845315  1
  Nb  Nb144  1  0.59847091  0.40363735  0.79979266  1
  Nb  Nb145  1  0.59850587  0.60264264  0.00690320  1
  Nb  Nb146  1  0.59817954  0.39477173  0.40135585  1
  Nb  Nb147  1  0.59690516  0.20052026  0.39553409  1
  Nb  Nb148  1  0.60175178  0.79485056  0.39691672  1
  Nb  Nb149  1  0.20556580  0.19161816  0.40089947  1
  Pd  Pd150  1  0.59278247  0.39616548  0.19421880  1
  Pd  Pd151  1  -0.00359174  0.60183358  0.79526843  1
  Pd  Pd152  1  0.59213461  0.20509855  0.79332983  1
  Pd  Pd153  1  0.19832792  0.81321963  0.79614851  1
  Pd  Pd154  1  0.19620494  0.20665201  0.80364901  1
  Pd  Pd155  1  0.79966028  0.18835195  0.60694408  1
  Pd  Pd156  1  0.00755705  0.61020653  0.00722015  1
  Pd  Pd157  1  0.60284951  0.59760437  0.19630330  1
  Pd  Pd158  1  0.79771966  0.40435917  0.60436588  1
  Pd  Pd159  1  0.39547035  0.40787155  0.59497307  1
  Pd  Pd160  1  0.60849364  0.59678741  0.40494755  1
  Pd  Pd161  1  0.19709691  0.80472759  0.40041773  1
  Pd  Pd162  1  0.41051295  0.61724735  0.00448778  1
  Pd  Pd163  1  0.00057203  0.19903587  0.19777399  1
  Pd  Pd164  1  0.39175545  0.59402728  0.20259454  1
  Pd  Pd165  1  0.60146633  0.20281981  0.00468965  1
  Pd  Pd166  1  0.00615928  0.20985360  0.39905702  1
  Pd  Pd167  1  0.79501057  0.20166648  0.00028244  1
  Pd  Pd168  1  0.21029073  0.40891369  0.20387521  1
  Pd  Pd169  1  0.39499643  -0.00003577  0.18764088  1
  Pd  Pd170  1  0.80186028  -0.00166737  0.40783254  1
  Pd  Pd171  1  0.60590474  0.00015815  0.60865106  1
  Pd  Pd172  1  0.59150137  -0.00407107  0.39459869  1
  Pd  Pd173  1  0.59683217  0.19248993  0.60438661  1
  Pd  Pd174  1  0.80172897  0.80312350  0.79171772  1
  Pd  Pd175  1  -0.00189365  0.80741342  0.81138908  1
  Pd  Pd176  1  0.80623742  0.60461951  0.60260938  1
  Pd  Pd177  1  0.00504194  -0.00458116  0.39361623  1
  Pd  Pd178  1  0.19624750  0.00401191  0.20654945  1
  Pd  Pd179  1  0.59656698  -0.00304624  0.80443547  1
  Pd  Pd180  1  0.79524257  0.19359418  0.39249466  1
  Pd  Pd181  1  0.40359965  0.60380375  0.79474769  1
  Pd  Pd182  1  0.20246744  -0.00384833  0.79035818  1
  Pd  Pd183  1  0.39861121  0.39784921  -0.00272111  1
  Pd  Pd184  1  0.19454960  0.18685571  0.20136254  1
  Pd  Pd185  1  0.79702933  0.20334220  0.79559746  1
  Pd  Pd186  1  0.00050833  0.20289115  0.59834434  1
  Pd  Pd187  1  0.59886044  0.80353187  0.80885040  1
  Pd  Pd188  1  0.00118405  0.19393356  0.00082228  1
  Pd  Pd189  1  0.40375392  0.19405899  0.18499101  1
  Pd  Pd190  1  -0.01200623  0.39973866  -0.01070155  1
  Pd  Pd191  1  -0.01334162  0.79455232  0.19523986  1
  Pd  Pd192  1  0.40695228  0.80436709  0.80659229  1
  Pd  Pd193  1  0.20686066  0.60718256  0.40324748  1
  Pd  Pd194  1  0.00014399  0.79578110  0.39014032  1
  Pd  Pd195  1  0.00591083  0.61072227  0.60230430  1
  Pd  Pd196  1  -0.00494714  0.40357557  0.20858467  1
  Pd  Pd197  1  0.19584824  0.19071667  -0.00671059  1
  Pd  Pd198  1  0.39261275  0.60161108  0.60176445  1
  Pd  Pd199  1  0.20785231  0.39807956  -0.01180688  1
  Rh  Rh200  1  0.20616418  0.18673328  0.59478818  1
  Rh  Rh201  1  0.59506998  0.00773687  0.20693876  1
  Rh  Rh202  1  0.20389718  0.59477135  0.79062615  1
  Rh  Rh203  1  0.00403071  0.79137728  0.60176433  1
  Rh  Rh204  1  0.40289062  -0.01168448  0.39931420  1
  Rh  Rh205  1  0.80652053  0.60288444  0.40158454  1
  Rh  Rh206  1  0.60481228  0.79798833  0.59462194  1
  Rh  Rh207  1  -0.00042574  0.39719924  0.59759277  1
  Rh  Rh208  1  0.40038509  0.58966858  0.40166007  1
  Rh  Rh209  1  0.19843292  0.00321465  -0.00462308  1
  Rh  Rh210  1  0.60447282  0.40787450  0.60034732  1
  Rh  Rh211  1  0.40707806  0.00165596  0.80115059  1
  Rh  Rh212  1  0.20929419  0.41064857  0.61196007  1
  Rh  Rh213  1  0.39326103  -0.00212003  0.00100147  1
  Rh  Rh214  1  0.39656314  0.40133676  0.80304537  1
  Rh  Rh215  1  0.79250649  0.59478235  0.01110726  1
  Rh  Rh216  1  0.20054373  0.80298149  -0.00875725  1
  Rh  Rh217  1  -0.00247025  -0.00810687  -0.00683698  1
  Rh  Rh218  1  0.40004052  0.19529296  0.79780922  1
  Rh  Rh219  1  0.79954904  0.60562169  0.20086550  1
  Rh  Rh220  1  0.39646282  0.79251006  0.60569635  1
  Rh  Rh221  1  0.58947902  0.59658895  0.80332041  1
  Rh  Rh222  1  0.00845216  0.20919583  0.79694159  1
  Rh  Rh223  1  0.79094351  0.00544395  0.00251780  1
  Rh  Rh224  1  0.80071306  0.80302833  0.60841893  1
  Rh  Rh225  1  0.39776845  0.20746637  0.41196643  1
  Rh  Rh226  1  0.39582080  0.00524991  0.60967479  1
  Rh  Rh227  1  0.79577648  0.79384384  0.39040963  1
  Rh  Rh228  1  0.38905808  0.80728942  0.18499939  1
  Rh  Rh229  1  0.20561734  0.79369497  0.20464857  1
  Rh  Rh230  1  0.41452222  0.80613781  0.40071952  1
  Rh  Rh231  1  0.80486063  0.40921254  0.40305894  1
  Rh  Rh232  1  -0.00415217  0.00057513  0.60007229  1
  Rh  Rh233  1  0.81353087  0.60222007  0.78716133  1
  Rh  Rh234  1  0.79347404  0.19640303  0.20195763  1
  Rh  Rh235  1  0.80084669  -0.00408963  0.19979967  1
  Rh  Rh236  1  0.80060712  0.80053448  0.00972696  1
  Rh  Rh237  1  0.39425877  0.19422074  0.60695800  1
  Rh  Rh238  1  0.60431525  0.60119859  0.59662988  1
  Rh  Rh239  1  0.01009070  0.59909406  0.19727390  1
  Rh  Rh240  1  0.79896890  -0.00797391  0.79465877  1
  Rh  Rh241  1  -0.00621938  0.59817927  0.40401709  1
  Rh  Rh242  1  0.60903338  -0.00191120  -0.00832009  1
  Rh  Rh243  1  0.60849512  0.79906971  0.20256222  1
  Rh  Rh244  1  0.20715913  0.38568293  0.39726378  1
  Rh  Rh245  1  0.19569055  0.60499351  0.01120083  1
  Rh  Rh246  1  -0.00447523  -0.00894711  0.80880037  1
  Rh  Rh247  1  0.80846070  0.40222879  0.19287030  1
  Rh  Rh248  1  0.39973683  0.18812371  0.00168205  1
  Rh  Rh249  1  0.00019486  -0.00357912  0.20194675  1
