# generated using pymatgen
data_ZrScNbPdRh
_symmetry_space_group_name_H-M   'P 1'
_cell_length_a   16.55629109
_cell_length_b   16.55111363
_cell_length_c   16.55657526
_cell_angle_alpha   89.98769605
_cell_angle_beta   90.01078772
_cell_angle_gamma   90.01487120
_symmetry_Int_Tables_number   1
_chemical_formula_structural   ZrScNbPdRh
_chemical_formula_sum   'Zr50 Sc50 Nb50 Pd50 Rh50'
_cell_volume   4536.91611079
_cell_formula_units_Z   50
loop_
 _symmetry_equiv_pos_site_id
 _symmetry_equiv_pos_as_xyz
  1  'x, y, z'
loop_
 _atom_site_type_symbol
 _atom_site_label
 _atom_site_symmetry_multiplicity
 _atom_site_fract_x
 _atom_site_fract_y
 _atom_site_fract_z
 _atom_site_occupancy
  Zr  Zr0  1  0.30136764  0.70233808  0.29700511  1
  Zr  Zr1  1  0.49899794  0.50303381  0.69364485  1
  Zr  Zr2  1  0.69956593  0.89530802  0.70690703  1
  Zr  Zr3  1  0.49265620  0.69230066  0.90702658  1
  Zr  Zr4  1  0.29933961  0.09798605  0.71366563  1
  Zr  Zr5  1  0.89291806  0.69889064  0.50454334  1
  Zr  Zr6  1  0.50044019  0.49437592  0.29821334  1
  Zr  Zr7  1  0.30578445  0.89650311  0.10288262  1
  Zr  Zr8  1  0.10173750  0.09400676  0.71361313  1
  Zr  Zr9  1  0.09827487  0.89339928  0.70448193  1
  Zr  Zr10  1  0.89872035  0.09822296  0.49326324  1
  Zr  Zr11  1  0.89824184  0.30292045  0.90723359  1
  Zr  Zr12  1  0.69648962  0.30122808  0.30415420  1
  Zr  Zr13  1  0.70693989  0.09929046  0.90314326  1
  Zr  Zr14  1  0.09971669  0.91072124  0.29808815  1
  Zr  Zr15  1  0.30652232  0.10604169  0.10520468  1
  Zr  Zr16  1  0.50305069  0.89946128  0.49663355  1
  Zr  Zr17  1  0.90227140  0.90233811  0.50314059  1
  Zr  Zr18  1  0.31075197  0.91047137  0.89773860  1
  Zr  Zr19  1  0.70132711  0.28853721  0.10145455  1
  Zr  Zr20  1  0.50579816  0.30201194  0.69683934  1
  Zr  Zr21  1  0.10197232  0.09785742  0.50113797  1
  Zr  Zr22  1  0.09921324  0.50413662  0.88369970  1
  Zr  Zr23  1  0.30041275  0.29941286  0.70079292  1
  Zr  Zr24  1  0.69484611  0.49780169  0.29704639  1
  Zr  Zr25  1  0.10217548  0.31550971  0.69921917  1
  Zr  Zr26  1  0.29660564  0.50608406  0.30482754  1
  Zr  Zr27  1  0.90305737  0.09849109  0.89740638  1
  Zr  Zr28  1  0.90362181  0.30077070  0.70337461  1
  Zr  Zr29  1  0.70868714  0.69974496  0.69324648  1
  Zr  Zr30  1  0.69639287  0.50542390  0.10201391  1
  Zr  Zr31  1  0.49846279  0.30287977  0.30309240  1
  Zr  Zr32  1  0.09341670  0.10538282  0.10988514  1
  Zr  Zr33  1  0.49664808  0.09927461  0.49808564  1
  Zr  Zr34  1  0.50058323  0.70144962  0.09670835  1
  Zr  Zr35  1  0.89601752  0.70106480  0.08819933  1
  Zr  Zr36  1  0.69678645  0.69726268  0.29666441  1
  Zr  Zr37  1  0.69419087  0.49794564  0.69978102  1
  Zr  Zr38  1  0.49579459  0.29589076  0.10241285  1
  Zr  Zr39  1  0.89348883  0.10193608  0.10359235  1
  Zr  Zr40  1  0.50646057  0.50212444  0.89352237  1
  Zr  Zr41  1  0.30063368  0.69935476  0.49803199  1
  Zr  Zr42  1  0.09900289  0.90105117  0.10187259  1
  Zr  Zr43  1  0.70058604  0.09606033  0.49539909  1
  Zr  Zr44  1  0.70030995  0.90797194  0.90579065  1
  Zr  Zr45  1  0.10732023  0.10817112  0.30457496  1
  Zr  Zr46  1  0.49910588  0.10817774  0.69960934  1
  Zr  Zr47  1  0.50436877  0.69733396  0.69688143  1
  Zr  Zr48  1  0.10612090  0.49059136  0.10081340  1
  Zr  Zr49  1  0.10202650  0.90509465  0.50413157  1
  Sc  Sc50  1  0.10037552  0.69620032  0.30078576  1
  Sc  Sc51  1  0.68906507  0.90437679  0.30052730  1
  Sc  Sc52  1  0.10193338  0.70400766  0.09440257  1
  Sc  Sc53  1  0.90275175  0.91339773  0.30163043  1
  Sc  Sc54  1  0.30419934  0.50037802  0.49835630  1
  Sc  Sc55  1  0.89753932  0.49239330  0.09002052  1
  Sc  Sc56  1  0.09608721  0.30154999  0.89336266  1
  Sc  Sc57  1  0.29543986  0.90197249  0.69643662  1
  Sc  Sc58  1  0.69006416  0.30049854  0.69718561  1
  Sc  Sc59  1  0.89852069  0.49946447  0.30817758  1
  Sc  Sc60  1  0.30079549  0.10067072  0.49834376  1
  Sc  Sc61  1  0.50532301  0.29388402  0.89996361  1
  Sc  Sc62  1  0.09996040  0.48845302  0.49805592  1
  Sc  Sc63  1  0.49040607  0.09444230  0.90077351  1
  Sc  Sc64  1  0.90168255  0.10365561  0.30035793  1
  Sc  Sc65  1  0.30076607  0.30606758  0.49988097  1
  Sc  Sc66  1  0.70776936  0.09536609  0.29690118  1
  Sc  Sc67  1  0.29979298  0.49875504  0.69385609  1
  Sc  Sc68  1  0.09948133  0.49669093  0.30127543  1
  Sc  Sc69  1  0.09621773  0.29748586  0.29807582  1
  Sc  Sc70  1  0.69998796  0.10046486  0.70734686  1
  Sc  Sc71  1  0.49947159  0.10144809  0.10672063  1
  Sc  Sc72  1  0.49512447  0.70050862  0.49915300  1
  Sc  Sc73  1  0.70612242  0.69766803  0.90219341  1
  Sc  Sc74  1  0.29890799  0.90338644  0.50891051  1
  Sc  Sc75  1  0.89878673  0.08720609  0.70658806  1
  Sc  Sc76  1  0.89370017  0.49449998  0.70318850  1
  Sc  Sc77  1  0.50090417  0.70957700  0.30320061  1
  Sc  Sc78  1  0.70363073  0.09472918  0.10383650  1
  Sc  Sc79  1  0.70761302  0.50009767  0.89620011  1
  Sc  Sc80  1  0.09328444  0.71059829  0.49851437  1
  Sc  Sc81  1  0.30138476  0.30046224  0.90223784  1
  Sc  Sc82  1  0.50810034  0.90252745  0.10145874  1
  Sc  Sc83  1  0.90145618  0.29438254  0.30371616  1
  Sc  Sc84  1  0.70156084  0.69524513  0.50286608  1
  Sc  Sc85  1  0.90055324  0.30606742  0.49089012  1
  Sc  Sc86  1  0.69988640  0.29309632  0.89479982  1
  Sc  Sc87  1  0.29733230  0.28848999  0.30391647  1
  Sc  Sc88  1  0.49775390  0.30613294  0.50381417  1
  Sc  Sc89  1  0.90100266  0.68821429  0.30657981  1
  Sc  Sc90  1  0.89903179  0.89069506  0.90112153  1
  Sc  Sc91  1  0.69335646  0.69597170  0.10039494  1
  Sc  Sc92  1  0.29975312  0.70176163  0.69869892  1
  Sc  Sc93  1  0.69996477  0.90039269  0.49302577  1
  Sc  Sc94  1  0.50299296  0.90303929  0.30065253  1
  Sc  Sc95  1  0.70659392  0.49428167  0.50333571  1
  Sc  Sc96  1  0.09941064  0.30035146  0.49180272  1
  Sc  Sc97  1  0.31059862  0.50513993  0.89944963  1
  Sc  Sc98  1  0.50537953  0.90276438  0.90646033  1
  Sc  Sc99  1  0.50294336  0.50546826  0.09602924  1
  Nb  Nb100  1  0.90746699  0.29647021  0.10176331  1
  Nb  Nb101  1  0.89789329  0.50297510  0.90357749  1
  Nb  Nb102  1  0.49183701  0.49786195  0.49491930  1
  Nb  Nb103  1  0.89825350  0.50839040  0.50069246  1
  Nb  Nb104  1  0.30774306  0.10250399  0.30114221  1
  Nb  Nb105  1  0.49254951  0.10390015  0.30462642  1
  Nb  Nb106  1  0.09855176  0.50130837  0.69727756  1
  Nb  Nb107  1  0.90880888  0.69774485  0.89984271  1
  Nb  Nb108  1  0.30465638  0.69936071  0.09175559  1
  Nb  Nb109  1  0.50230598  0.89766319  0.70190892  1
  Nb  Nb110  1  0.09901532  0.69628257  0.70811726  1
  Nb  Nb111  1  0.90041198  0.90148106  0.09818394  1
  Nb  Nb112  1  0.70595513  0.90552700  0.10578119  1
  Nb  Nb113  1  0.28902903  0.09982472  0.90058240  1
  Nb  Nb114  1  0.89914001  0.71029563  0.70024248  1
  Nb  Nb115  1  0.29294496  0.30540800  0.09685376  1
  Nb  Nb116  1  0.29542255  0.90047401  0.29453919  1
  Nb  Nb117  1  0.10252935  0.09340737  0.89943628  1
  Nb  Nb118  1  0.89482096  0.89231491  0.69922570  1
  Nb  Nb119  1  0.30684743  0.70227901  0.90282747  1
  Nb  Nb120  1  0.09947576  0.89723253  0.90103628  1
  Nb  Nb121  1  0.29462451  0.49846953  0.09931694  1
  Nb  Nb122  1  0.69610280  0.29514106  0.50068404  1
  Nb  Nb123  1  0.10017995  0.70493423  0.89023296  1
  Nb  Nb124  1  0.09983181  0.29790148  0.10166725  1
  Nb  Nb125  1  -0.00030498  0.60061478  0.60765826  1
  Nb  Nb126  1  0.40570458  0.79917506  0.80114469  1
  Nb  Nb127  1  0.18679716  0.60174579  0.60449934  1
  Nb  Nb128  1  0.79933414  0.39351722  0.19616396  1
  Nb  Nb129  1  0.19759882  0.00298066  -0.00149071  1
  Nb  Nb130  1  0.00045392  0.59968898  0.18740413  1
  Nb  Nb131  1  0.19496090  0.19946108  0.00251027  1
  Nb  Nb132  1  0.80373732  0.20010818  0.59719231  1
  Nb  Nb133  1  0.60324434  0.39729297  0.00168662  1
  Nb  Nb134  1  0.80238993  0.79903819  0.39428080  1
  Nb  Nb135  1  0.59658565  0.59176911  0.40037084  1
  Nb  Nb136  1  0.39249234  0.59933494  0.19532131  1
  Nb  Nb137  1  0.59811944  0.19924415  0.40074713  1
  Nb  Nb138  1  0.20340193  0.80746996  0.39413931  1
  Nb  Nb139  1  0.20093876  0.60539486  -0.00576082  1
  Nb  Nb140  1  0.00330191  -0.00159056  -0.00149048  1
  Nb  Nb141  1  -0.00029854  0.19910804  0.60270415  1
  Nb  Nb142  1  0.00559157  0.60132762  -0.00873112  1
  Nb  Nb143  1  0.20412009  0.79947560  -0.00842112  1
  Nb  Nb144  1  0.59569093  -0.00305136  0.60406349  1
  Nb  Nb145  1  0.40779584  0.39922594  0.79567664  1
  Nb  Nb146  1  -0.00759799  0.79827224  0.19697582  1
  Nb  Nb147  1  0.38909545  0.40247298  0.19293372  1
  Nb  Nb148  1  0.19395010  0.20067133  0.60692018  1
  Nb  Nb149  1  0.80398256  0.80415320  0.20019254  1
  Pd  Pd150  1  0.20522052  0.00904167  0.19739082  1
  Pd  Pd151  1  -0.00118260  0.80338714  0.38889663  1
  Pd  Pd152  1  0.21248464  0.59928490  0.79727293  1
  Pd  Pd153  1  0.39239183  -0.00774614  0.39645311  1
  Pd  Pd154  1  -0.00610020  0.40224317  0.59262212  1
  Pd  Pd155  1  0.40086729  0.20561906  0.80847660  1
  Pd  Pd156  1  0.21148513  0.80381305  0.80392452  1
  Pd  Pd157  1  -0.00916313  0.40384965  0.20482355  1
  Pd  Pd158  1  0.20380809  0.39082338  0.21065108  1
  Pd  Pd159  1  0.40658637  -0.00214029  0.20294444  1
  Pd  Pd160  1  0.20241587  0.39442874  0.39568529  1
  Pd  Pd161  1  0.81098971  0.59633559  0.19702643  1
  Pd  Pd162  1  0.59828371  0.00911805  0.00741962  1
  Pd  Pd163  1  0.59881762  0.59366299  0.58663295  1
  Pd  Pd164  1  0.60005632  0.19064237  0.21006819  1
  Pd  Pd165  1  -0.01254830  0.59757985  0.79439909  1
  Pd  Pd166  1  0.79950514  0.20299896  0.79267035  1
  Pd  Pd167  1  0.00750719  0.59512720  0.40647921  1
  Pd  Pd168  1  0.40733351  0.79881074  0.19889560  1
  Pd  Pd169  1  0.40827738  0.40430537  -0.00168043  1
  Pd  Pd170  1  0.39405149  0.19759677  -0.00476018  1
  Pd  Pd171  1  0.39251521  0.81024979  0.40027360  1
  Pd  Pd172  1  0.00759401  0.40486219  -0.00639858  1
  Pd  Pd173  1  0.79966592  0.40072458  0.39770935  1
  Pd  Pd174  1  0.60535729  0.80368894  0.59259661  1
  Pd  Pd175  1  0.00024366  0.00373296  0.60807765  1
  Pd  Pd176  1  0.79019026  0.80087814  0.00412104  1
  Pd  Pd177  1  0.80530584  0.60296006  0.79641976  1
  Pd  Pd178  1  0.60045264  0.19450235  -0.00261015  1
  Pd  Pd179  1  0.00421596  0.19619945  -0.00233012  1
  Pd  Pd180  1  0.21312674  0.40528842  0.80532106  1
  Pd  Pd181  1  0.79074733  0.00088353  0.60471165  1
  Pd  Pd182  1  0.40020908  0.79984793  0.60578075  1
  Pd  Pd183  1  0.60736013  0.60825223  0.80205823  1
  Pd  Pd184  1  0.19598036  0.40049399  -0.01236786  1
  Pd  Pd185  1  0.18918935  0.60573369  0.41201505  1
  Pd  Pd186  1  0.59545983  0.79236731  0.80925251  1
  Pd  Pd187  1  0.79586831  0.39504203  0.80105050  1
  Pd  Pd188  1  0.21028189  -0.00121472  0.40030826  1
  Pd  Pd189  1  0.39038479  0.20252886  0.59451942  1
  Pd  Pd190  1  0.59547639  0.00544683  0.79867665  1
  Pd  Pd191  1  0.19689024  0.60673145  0.19215400  1
  Pd  Pd192  1  0.80038555  0.39169036  0.59792777  1
  Pd  Pd193  1  0.79067659  0.39444601  0.00439250  1
  Pd  Pd194  1  0.19321406  0.79280074  0.19939814  1
  Pd  Pd195  1  0.40282351  0.00047368  0.60576113  1
  Pd  Pd196  1  0.00392234  0.20231891  0.79716120  1
  Pd  Pd197  1  0.60655228  0.79991518  0.00155750  1
  Pd  Pd198  1  0.00315528  0.79555749  0.60417713  1
  Pd  Pd199  1  0.80050233  0.79848483  0.80713700  1
  Rh  Rh200  1  0.40431227  0.20356304  0.40438991  1
  Rh  Rh201  1  0.60712974  0.59304714  -0.00781385  1
  Rh  Rh202  1  0.19477726  0.20690148  0.80214256  1
  Rh  Rh203  1  0.40081722  0.40205368  0.60468549  1
  Rh  Rh204  1  0.78866749  0.60182058  0.40147685  1
  Rh  Rh205  1  0.79332966  0.20142933  0.40506595  1
  Rh  Rh206  1  0.39323981  0.39816489  0.39238893  1
  Rh  Rh207  1  0.60895002  0.18945738  0.59307750  1
  Rh  Rh208  1  0.80501895  0.20711306  0.20152280  1
  Rh  Rh209  1  0.19600048  0.79113161  0.59322709  1
  Rh  Rh210  1  -0.00350249  0.20308978  0.20560177  1
  Rh  Rh211  1  0.20104558  0.40139658  0.59606924  1
  Rh  Rh212  1  0.19875053  -0.01169119  0.80214799  1
  Rh  Rh213  1  0.20391026  0.20330978  0.19582052  1
  Rh  Rh214  1  -0.00549215  -0.01405617  0.80614734  1
  Rh  Rh215  1  0.39572019  0.20854450  0.20252550  1
  Rh  Rh216  1  0.80380072  0.19920031  0.00039795  1
  Rh  Rh217  1  0.60082777  0.39540627  0.18400899  1
  Rh  Rh218  1  0.40756178  -0.00575756  0.79374278  1
  Rh  Rh219  1  0.80454523  -0.00993814  0.80296839  1
  Rh  Rh220  1  0.40966066  0.59878375  0.39239780  1
  Rh  Rh221  1  0.60859190  0.78742341  0.40381215  1
  Rh  Rh222  1  0.39759731  0.60299666  0.79041739  1
  Rh  Rh223  1  0.20322119  0.19803912  0.40795798  1
  Rh  Rh224  1  0.59746892  0.39663734  0.80686871  1
  Rh  Rh225  1  0.60692848  0.80446915  0.19417073  1
  Rh  Rh226  1  0.80070283  -0.00883385  0.39567072  1
  Rh  Rh227  1  0.80818631  0.00007289  -0.00154390  1
  Rh  Rh228  1  0.80310422  0.59950473  -0.00418806  1
  Rh  Rh229  1  0.60018730  0.39985199  0.41393314  1
  Rh  Rh230  1  0.80702564  0.59496177  0.60744969  1
  Rh  Rh231  1  0.00226127  0.19694665  0.40366453  1
  Rh  Rh232  1  0.80172555  -0.00573353  0.20366961  1
  Rh  Rh233  1  -0.00353158  0.40378423  0.39781417  1
  Rh  Rh234  1  -0.00579901  0.80359632  0.79762793  1
  Rh  Rh235  1  0.59734861  0.00493681  0.20325507  1
  Rh  Rh236  1  0.39167431  0.60058927  0.59735255  1
  Rh  Rh237  1  0.79563819  0.80778610  0.59224294  1
  Rh  Rh238  1  0.00215784  0.00598831  0.39794885  1
  Rh  Rh239  1  0.00720662  0.79951416  0.00001982  1
  Rh  Rh240  1  0.58385776  0.60713341  0.20879201  1
  Rh  Rh241  1  0.20091406  0.00975652  0.60790442  1
  Rh  Rh242  1  0.59567162  0.01033210  0.39916307  1
  Rh  Rh243  1  0.59989492  0.19295193  0.80465462  1
  Rh  Rh244  1  0.40102734  0.80913326  -0.00468680  1
  Rh  Rh245  1  0.59952618  0.40688177  0.59372747  1
  Rh  Rh246  1  -0.00935345  0.40566794  0.80494630  1
  Rh  Rh247  1  0.39805360  0.00425616  0.00678135  1
  Rh  Rh248  1  0.39541295  0.59084257  0.00845420  1
  Rh  Rh249  1  -0.00607300  -0.00019713  0.19589584  1
