# generated using pymatgen
data_ZrScNbPdRh
_symmetry_space_group_name_H-M   'P 1'
_cell_length_a   16.56116191
_cell_length_b   16.55889895
_cell_length_c   16.55822927
_cell_angle_alpha   89.99707668
_cell_angle_beta   90.00357621
_cell_angle_gamma   89.99514085
_symmetry_Int_Tables_number   1
_chemical_formula_structural   ZrScNbPdRh
_chemical_formula_sum   'Zr50 Sc50 Nb50 Pd50 Rh50'
_cell_volume   4540.83945492
_cell_formula_units_Z   50
loop_
 _symmetry_equiv_pos_site_id
 _symmetry_equiv_pos_as_xyz
  1  'x, y, z'
loop_
 _atom_site_type_symbol
 _atom_site_label
 _atom_site_symmetry_multiplicity
 _atom_site_fract_x
 _atom_site_fract_y
 _atom_site_fract_z
 _atom_site_occupancy
  Zr  Zr0  1  0.09914267  0.90329683  0.30101168  1
  Zr  Zr1  1  0.09897143  0.09418350  0.30593935  1
  Zr  Zr2  1  0.29649063  0.89090016  0.09560952  1
  Zr  Zr3  1  0.49961730  0.49950234  0.30096439  1
  Zr  Zr4  1  0.90743905  0.89909899  0.70052292  1
  Zr  Zr5  1  0.50099951  0.69649299  0.29030383  1
  Zr  Zr6  1  0.09919574  0.30395879  0.30452599  1
  Zr  Zr7  1  0.29335172  0.69798611  0.30418400  1
  Zr  Zr8  1  0.49422442  0.69317908  0.90742081  1
  Zr  Zr9  1  0.29287651  0.10752716  0.30365375  1
  Zr  Zr10  1  0.90113221  0.89989161  0.09766682  1
  Zr  Zr11  1  0.70468756  0.09764420  0.50084547  1
  Zr  Zr12  1  0.90319527  0.10029364  0.10087394  1
  Zr  Zr13  1  0.50283625  0.10043415  0.69925765  1
  Zr  Zr14  1  0.10198561  0.70793609  0.30135236  1
  Zr  Zr15  1  0.88943102  0.10101292  0.89085388  1
  Zr  Zr16  1  0.48654088  0.10386651  0.29365242  1
  Zr  Zr17  1  0.49967177  0.29722831  0.69800526  1
  Zr  Zr18  1  0.29699516  0.69930457  0.89918253  1
  Zr  Zr19  1  0.49391302  0.51657524  0.10096367  1
  Zr  Zr20  1  0.69863558  0.69836963  0.89954632  1
  Zr  Zr21  1  0.49754958  0.09477815  0.09604392  1
  Zr  Zr22  1  0.69281761  0.50460905  0.49505001  1
  Zr  Zr23  1  0.29263431  0.50844041  0.50560614  1
  Zr  Zr24  1  0.10540929  0.69459076  0.48618697  1
  Zr  Zr25  1  0.70318135  0.30331139  0.29833064  1
  Zr  Zr26  1  0.49720652  0.29929183  0.89730301  1
  Zr  Zr27  1  0.49557706  0.28924019  0.09916927  1
  Zr  Zr28  1  0.89682581  0.70386515  0.69818728  1
  Zr  Zr29  1  0.31224007  0.69178497  0.09140856  1
  Zr  Zr30  1  0.49524267  0.89599000  0.10274883  1
  Zr  Zr31  1  0.69743500  0.29952064  0.50086438  1
  Zr  Zr32  1  0.70983136  0.50042439  0.10201384  1
  Zr  Zr33  1  0.10520222  0.49385972  0.10338521  1
  Zr  Zr34  1  0.90208337  0.30287184  0.70080988  1
  Zr  Zr35  1  0.09857920  0.90151606  0.49788183  1
  Zr  Zr36  1  0.10373283  0.50475563  0.30152280  1
  Zr  Zr37  1  0.48910514  0.30341143  0.30499997  1
  Zr  Zr38  1  0.70463860  0.09947526  0.70783445  1
  Zr  Zr39  1  0.70026737  0.69447536  0.30276329  1
  Zr  Zr40  1  0.29661693  0.08882580  0.69426151  1
  Zr  Zr41  1  0.50010118  0.69135674  0.69879948  1
  Zr  Zr42  1  0.91880221  0.49920701  0.70190814  1
  Zr  Zr43  1  0.09723397  0.49631212  0.50017775  1
  Zr  Zr44  1  0.48776051  0.70059231  0.50170267  1
  Zr  Zr45  1  0.70140650  0.30305170  0.89693905  1
  Zr  Zr46  1  0.09760456  0.10873850  0.90722141  1
  Zr  Zr47  1  0.50031826  0.90050679  0.90189810  1
  Zr  Zr48  1  0.28927043  0.30036997  0.10016473  1
  Zr  Zr49  1  0.69889481  0.90375419  0.89951167  1
  Sc  Sc50  1  0.69200260  0.50332743  0.69596214  1
  Sc  Sc51  1  0.90329940  0.50148530  0.50381662  1
  Sc  Sc52  1  0.50030528  0.89865220  0.50237767  1
  Sc  Sc53  1  0.49774377  0.90209091  0.70119967  1
  Sc  Sc54  1  0.30309631  0.90515898  0.89565121  1
  Sc  Sc55  1  0.90276901  0.89442599  0.49742316  1
  Sc  Sc56  1  0.70010243  0.30260851  0.69971620  1
  Sc  Sc57  1  0.10088608  0.29452465  0.50324525  1
  Sc  Sc58  1  0.49422298  0.89154960  0.30432857  1
  Sc  Sc59  1  0.71242011  0.89330540  0.30538076  1
  Sc  Sc60  1  0.90247200  0.50718481  0.90911831  1
  Sc  Sc61  1  0.10971723  0.10082191  0.10239894  1
  Sc  Sc62  1  0.89889549  0.70270216  0.50212791  1
  Sc  Sc63  1  0.90979922  0.30534730  0.50289813  1
  Sc  Sc64  1  0.69653839  0.89260996  0.70272470  1
  Sc  Sc65  1  0.89859587  0.89693719  0.89663012  1
  Sc  Sc66  1  0.29531804  0.90723840  0.30298114  1
  Sc  Sc67  1  0.09760770  0.50424525  0.89082410  1
  Sc  Sc68  1  0.70357730  0.89989229  0.09636323  1
  Sc  Sc69  1  0.10877260  0.90478625  0.10182079  1
  Sc  Sc70  1  0.91209710  0.70403705  0.90349283  1
  Sc  Sc71  1  0.69838334  0.09074506  0.90065983  1
  Sc  Sc72  1  0.90020868  0.31562111  0.10245968  1
  Sc  Sc73  1  0.30103716  0.09717871  0.10264121  1
  Sc  Sc74  1  0.70191565  0.09452278  0.09305445  1
  Sc  Sc75  1  0.70502350  0.89435440  0.49867820  1
  Sc  Sc76  1  0.69941507  0.50393526  0.90675377  1
  Sc  Sc77  1  0.90859574  0.49093039  0.29387418  1
  Sc  Sc78  1  0.49404709  0.50360635  0.49232742  1
  Sc  Sc79  1  0.70648461  0.69267778  0.10732906  1
  Sc  Sc80  1  0.89382561  0.70844091  0.30629635  1
  Sc  Sc81  1  0.29639845  0.10094825  0.89621315  1
  Sc  Sc82  1  0.28442656  0.50765095  0.89672944  1
  Sc  Sc83  1  0.10216510  0.89924012  0.89429839  1
  Sc  Sc84  1  0.28783654  0.10117274  0.50355389  1
  Sc  Sc85  1  0.30621671  0.90775352  0.50476423  1
  Sc  Sc86  1  0.49301717  0.30020005  0.49484707  1
  Sc  Sc87  1  0.72573850  0.10033854  0.30302912  1
  Sc  Sc88  1  0.09698197  0.90678413  0.69862826  1
  Sc  Sc89  1  0.08761163  0.69228774  0.70683400  1
  Sc  Sc90  1  0.50772295  0.50191111  0.89406560  1
  Sc  Sc91  1  0.89914630  0.29976600  0.29725716  1
  Sc  Sc92  1  0.90859483  0.30670517  0.90694887  1
  Sc  Sc93  1  0.28502608  0.28901520  0.69943350  1
  Sc  Sc94  1  0.10111284  0.09914037  0.68844193  1
  Sc  Sc95  1  0.49766029  0.09386191  0.90559388  1
  Sc  Sc96  1  0.90010321  0.50225788  0.09759979  1
  Sc  Sc97  1  0.70496469  0.70055730  0.50502173  1
  Sc  Sc98  1  0.49995277  0.09957088  0.51508139  1
  Sc  Sc99  1  0.11772311  0.70982174  0.09030929  1
  Nb  Nb100  1  0.69279133  0.50028066  0.30169370  1
  Nb  Nb101  1  0.30303825  0.29911323  0.30954239  1
  Nb  Nb102  1  0.10632501  0.49022154  0.70357817  1
  Nb  Nb103  1  0.10787085  0.69914630  0.89692424  1
  Nb  Nb104  1  0.29646861  0.30108709  0.49157163  1
  Nb  Nb105  1  0.49573441  0.49357378  0.69899619  1
  Nb  Nb106  1  0.29295204  0.30208446  0.89713387  1
  Nb  Nb107  1  0.29933571  0.69643856  0.50878158  1
  Nb  Nb108  1  0.90648802  0.10073570  0.50038818  1
  Nb  Nb109  1  0.70268320  0.30281636  0.10060090  1
  Nb  Nb110  1  0.90673300  0.91119782  0.29847300  1
  Nb  Nb111  1  0.29967270  0.49902590  0.10147757  1
  Nb  Nb112  1  0.30198757  0.49081874  0.28853297  1
  Nb  Nb113  1  0.90111344  0.10096011  0.70082826  1
  Nb  Nb114  1  0.09229483  0.10021014  0.50097411  1
  Nb  Nb115  1  0.29249581  0.90010569  0.70084659  1
  Nb  Nb116  1  0.09323683  0.30606605  0.70625815  1
  Nb  Nb117  1  0.70105786  0.69777566  0.69587501  1
  Nb  Nb118  1  0.50070009  0.70136648  0.09987510  1
  Nb  Nb119  1  0.90860537  0.08976715  0.30061397  1
  Nb  Nb120  1  0.29454416  0.50197580  0.70011323  1
  Nb  Nb121  1  0.10721525  0.29741650  0.90009922  1
  Nb  Nb122  1  0.09270133  0.29128362  0.08807101  1
  Nb  Nb123  1  0.90690414  0.70027477  0.09944852  1
  Nb  Nb124  1  0.30320399  0.69254397  0.69561233  1
  Nb  Nb125  1  0.59538267  0.39804905  0.00940549  1
  Nb  Nb126  1  0.80103841  0.20533693  0.00090030  1
  Nb  Nb127  1  0.80751917  0.19420632  0.60228875  1
  Nb  Nb128  1  0.60107822  0.00713289  0.39304243  1
  Nb  Nb129  1  0.79405246  0.40471224  0.39929791  1
  Nb  Nb130  1  0.00320134  0.61276830  0.19553342  1
  Nb  Nb131  1  0.20542350  0.79248824  0.60307079  1
  Nb  Nb132  1  0.80381050  0.40878819  0.79865984  1
  Nb  Nb133  1  0.00200848  0.20396286  0.79759212  1
  Nb  Nb134  1  -0.00148853  0.00368143  -0.00106619  1
  Nb  Nb135  1  -0.00146365  0.80014195  0.19713198  1
  Nb  Nb136  1  0.60071348  0.00421579  0.21023220  1
  Nb  Nb137  1  0.60486930  0.19824412  0.20347417  1
  Nb  Nb138  1  0.59571358  0.79368507  0.00356002  1
  Nb  Nb139  1  0.39231624  0.40152483  0.60437700  1
  Nb  Nb140  1  0.20472709  0.79503777  0.79022649  1
  Nb  Nb141  1  0.59934681  0.39822831  0.19675306  1
  Nb  Nb142  1  0.59041165  0.40190611  0.59816854  1
  Nb  Nb143  1  0.00187682  0.19861110  0.19871754  1
  Nb  Nb144  1  0.60005678  0.19276973  0.39296136  1
  Nb  Nb145  1  0.80901815  0.00448945  0.60330868  1
  Nb  Nb146  1  0.39440760  0.40203634  -0.00469099  1
  Nb  Nb147  1  0.80161514  0.60185932  0.79458811  1
  Nb  Nb148  1  0.59924811  0.19913961  0.80079218  1
  Nb  Nb149  1  0.38939308  0.40040584  0.79740098  1
  Pd  Pd150  1  0.20060538  0.39144409  0.60074675  1
  Pd  Pd151  1  0.60458599  0.59881461  0.79610181  1
  Pd  Pd152  1  0.39222389  0.59638261  0.39317346  1
  Pd  Pd153  1  0.80211380  0.59365165  0.60530959  1
  Pd  Pd154  1  0.40549961  0.00641013  0.40878837  1
  Pd  Pd155  1  0.59394616  0.79567658  0.80333328  1
  Pd  Pd156  1  0.19430119  0.20510930  0.20354596  1
  Pd  Pd157  1  0.80911150  0.59193529  0.39601043  1
  Pd  Pd158  1  0.80545179  0.80205464  0.20059919  1
  Pd  Pd159  1  0.38795361  0.20031593  -0.00411022  1
  Pd  Pd160  1  0.40153135  0.18883141  0.41393222  1
  Pd  Pd161  1  0.60924552  -0.00890963  0.59658156  1
  Pd  Pd162  1  0.38994705  0.79750488  0.20496880  1
  Pd  Pd163  1  0.19751968  0.40466426  -0.00686015  1
  Pd  Pd164  1  0.19159619  0.19135005  0.79399694  1
  Pd  Pd165  1  0.00774035  0.40620017  -0.00384704  1
  Pd  Pd166  1  0.39646209  -0.00656027  0.20050246  1
  Pd  Pd167  1  0.39680984  0.80665692  0.60769115  1
  Pd  Pd168  1  0.61017164  0.20067530  -0.00225834  1
  Pd  Pd169  1  0.39244645  0.79952362  0.39992479  1
  Pd  Pd170  1  0.01175297  0.80874082  0.00238602  1
  Pd  Pd171  1  0.00718050  0.00796158  0.80555569  1
  Pd  Pd172  1  0.59559629  0.61276569  0.40600309  1
  Pd  Pd173  1  0.01089970  0.79349821  0.59663450  1
  Pd  Pd174  1  0.79495807  -0.00332372  0.19783629  1
  Pd  Pd175  1  0.59946434  0.79741546  0.59831217  1
  Pd  Pd176  1  0.01257477  0.60205976  0.00618823  1
  Pd  Pd177  1  0.40089849  0.00262103  0.79918339  1
  Pd  Pd178  1  0.59961894  0.80005569  0.40229621  1
  Pd  Pd179  1  0.79341859  0.40285385  0.60012160  1
  Pd  Pd180  1  0.80561790  0.20021343  0.19200725  1
  Pd  Pd181  1  0.60788425  0.80656354  0.19711955  1
  Pd  Pd182  1  0.38774639  0.20501203  0.59577484  1
  Pd  Pd183  1  0.79473990  0.79351488  0.00069050  1
  Pd  Pd184  1  0.18573835  0.60549938  0.60895677  1
  Pd  Pd185  1  0.00627793  0.60356757  0.59680736  1
  Pd  Pd186  1  0.39988356  0.19921267  0.79982683  1
  Pd  Pd187  1  -0.00374678  0.20218475  0.39401215  1
  Pd  Pd188  1  0.81291372  0.59585882  0.20837750  1
  Pd  Pd189  1  0.39704183  0.79877276  0.79541701  1
  Pd  Pd190  1  0.19983493  0.60517555  0.19469205  1
  Pd  Pd191  1  0.21239770  0.80917548  0.41128562  1
  Pd  Pd192  1  0.40247722  0.39582761  0.19109834  1
  Pd  Pd193  1  0.39730196  0.59097405  0.80318778  1
  Pd  Pd194  1  0.80118314  0.79697472  0.80107087  1
  Pd  Pd195  1  -0.00973454  0.60070460  0.39142032  1
  Pd  Pd196  1  0.19849336  -0.00021829  -0.00515847  1
  Pd  Pd197  1  0.20249032  0.40421520  0.40000514  1
  Pd  Pd198  1  0.80843261  0.20810403  0.40771911  1
  Pd  Pd199  1  0.19566746  0.39056776  0.20233832  1
  Rh  Rh200  1  0.80837884  0.00559400  -0.00101786  1
  Rh  Rh201  1  0.20716514  0.59238232  0.39523202  1
  Rh  Rh202  1  0.19626485  0.60769681  0.79122695  1
  Rh  Rh203  1  0.20245420  0.80643000  -0.01569356  1
  Rh  Rh204  1  0.19858539  0.00295521  0.40601627  1
  Rh  Rh205  1  0.60277355  0.59669912  0.19755384  1
  Rh  Rh206  1  0.79557549  0.40908891  0.20810387  1
  Rh  Rh207  1  0.80456365  0.60896279  -0.00655494  1
  Rh  Rh208  1  0.80375487  0.21421668  0.80253666  1
  Rh  Rh209  1  -0.00411632  0.40012237  0.40241860  1
  Rh  Rh210  1  0.79462360  0.39798043  -0.00736629  1
  Rh  Rh211  1  0.40360746  0.80286893  -0.00267982  1
  Rh  Rh212  1  0.60811010  0.20787686  0.60202090  1
  Rh  Rh213  1  0.59635357  0.00548654  0.79953635  1
  Rh  Rh214  1  0.20060380  0.39817503  0.79990755  1
  Rh  Rh215  1  0.20521100  0.00002296  0.20286784  1
  Rh  Rh216  1  -0.00324193  -0.00298116  0.40834214  1
  Rh  Rh217  1  0.59705553  -0.01191954  0.00887448  1
  Rh  Rh218  1  0.79851795  0.80748329  0.60275383  1
  Rh  Rh219  1  -0.00066647  0.20061958  0.60680641  1
  Rh  Rh220  1  -0.00399763  0.00118993  0.59506130  1
  Rh  Rh221  1  0.38963812  0.20617055  0.19794889  1
  Rh  Rh222  1  0.80654255  -0.00403788  0.40737896  1
  Rh  Rh223  1  0.19560271  -0.00080084  0.79846527  1
  Rh  Rh224  1  0.19400228  0.20228020  0.59668162  1
  Rh  Rh225  1  0.60198132  0.39552238  0.79856047  1
  Rh  Rh226  1  0.60341393  0.39197101  0.40051109  1
  Rh  Rh227  1  0.38468952  0.41058352  0.40758371  1
  Rh  Rh228  1  0.59195841  0.59751961  0.59694038  1
  Rh  Rh229  1  0.00866731  0.39629946  0.19632611  1
  Rh  Rh230  1  -0.00486519  0.60206677  0.80553426  1
  Rh  Rh231  1  0.60502060  0.60255797  0.00907661  1
  Rh  Rh232  1  0.19737561  0.59531614  0.00430789  1
  Rh  Rh233  1  -0.00591014  0.80421870  0.39257564  1
  Rh  Rh234  1  0.79909825  -0.01419664  0.79152468  1
  Rh  Rh235  1  0.19990116  0.80242296  0.20206261  1
  Rh  Rh236  1  0.40430708  0.59131046  0.60166354  1
  Rh  Rh237  1  0.19461942  -0.00764997  0.59440186  1
  Rh  Rh238  1  -0.00774692  0.19662955  0.00070519  1
  Rh  Rh239  1  0.01061268  0.39856374  0.59698169  1
  Rh  Rh240  1  0.39978045  -0.00186790  0.60318596  1
  Rh  Rh241  1  0.39170135  0.60352218  0.20691615  1
  Rh  Rh242  1  0.39373290  -0.00072691  -0.00046460  1
  Rh  Rh243  1  0.00610719  0.00047327  0.19034771  1
  Rh  Rh244  1  0.20739413  0.19807610  0.00081802  1
  Rh  Rh245  1  0.80355937  0.80047684  0.40264508  1
  Rh  Rh246  1  0.19595616  0.19953033  0.40455797  1
  Rh  Rh247  1  0.39340960  0.58670054  -0.01051545  1
  Rh  Rh248  1  0.00018051  0.39754870  0.80892174  1
  Rh  Rh249  1  0.00851875  0.79904176  0.80283968  1
