# generated using pymatgen
data_ZrScNbPdRh
_symmetry_space_group_name_H-M   'P 1'
_cell_length_a   16.55749645
_cell_length_b   16.55449445
_cell_length_c   16.55417625
_cell_angle_alpha   89.99402102
_cell_angle_beta   90.01523623
_cell_angle_gamma   90.01381479
_symmetry_Int_Tables_number   1
_chemical_formula_structural   ZrScNbPdRh
_chemical_formula_sum   'Zr50 Sc50 Nb50 Pd50 Rh50'
_cell_volume   4537.51566628
_cell_formula_units_Z   50
loop_
 _symmetry_equiv_pos_site_id
 _symmetry_equiv_pos_as_xyz
  1  'x, y, z'
loop_
 _atom_site_type_symbol
 _atom_site_label
 _atom_site_symmetry_multiplicity
 _atom_site_fract_x
 _atom_site_fract_y
 _atom_site_fract_z
 _atom_site_occupancy
  Zr  Zr0  1  0.90181545  0.89623828  0.50348507  1
  Zr  Zr1  1  0.10170137  0.31000037  0.30151536  1
  Zr  Zr2  1  0.10283304  0.89300220  0.30321477  1
  Zr  Zr3  1  0.50050635  0.31174071  0.89464628  1
  Zr  Zr4  1  0.69880411  0.50204873  0.49957024  1
  Zr  Zr5  1  0.69858125  0.49995193  0.69912312  1
  Zr  Zr6  1  0.90582517  0.29863503  0.89956478  1
  Zr  Zr7  1  0.69900039  0.10384374  0.50843945  1
  Zr  Zr8  1  0.69575655  0.09531048  0.69715890  1
  Zr  Zr9  1  0.30115925  0.89936841  0.09699570  1
  Zr  Zr10  1  0.50008457  0.30542736  0.50414553  1
  Zr  Zr11  1  0.91114567  0.49956139  0.30269206  1
  Zr  Zr12  1  0.69691268  0.29689923  0.49567525  1
  Zr  Zr13  1  0.09249312  0.90288271  0.69421238  1
  Zr  Zr14  1  0.50084782  0.30643521  0.09953193  1
  Zr  Zr15  1  0.09197734  0.70138684  0.10180001  1
  Zr  Zr16  1  0.89831981  0.50169916  0.10717013  1
  Zr  Zr17  1  0.31176799  0.90293632  0.89346615  1
  Zr  Zr18  1  0.30115919  0.89110230  0.69667421  1
  Zr  Zr19  1  0.29909865  0.50547750  0.90583550  1
  Zr  Zr20  1  0.49435725  0.10137437  0.88987580  1
  Zr  Zr21  1  0.10436314  0.09047664  0.30412336  1
  Zr  Zr22  1  0.30211776  0.10746114  0.89379480  1
  Zr  Zr23  1  0.70146246  0.09920212  0.29879139  1
  Zr  Zr24  1  0.48703227  0.70197773  0.70077930  1
  Zr  Zr25  1  0.29790883  0.89789583  0.31021306  1
  Zr  Zr26  1  0.68945444  0.49774271  0.89713811  1
  Zr  Zr27  1  0.29850714  0.69219874  0.09679551  1
  Zr  Zr28  1  0.29918782  0.10399671  0.30311111  1
  Zr  Zr29  1  0.70521391  0.50659176  0.09848632  1
  Zr  Zr30  1  0.49804681  0.30369743  0.30988703  1
  Zr  Zr31  1  0.50040833  0.50328901  0.50280461  1
  Zr  Zr32  1  0.91545662  0.50567313  0.69777288  1
  Zr  Zr33  1  0.70750893  0.09334566  0.09932059  1
  Zr  Zr34  1  0.70130565  0.69645575  0.29815096  1
  Zr  Zr35  1  0.49145249  0.69785205  0.30655477  1
  Zr  Zr36  1  0.51195021  0.70533068  0.10096498  1
  Zr  Zr37  1  0.29843838  0.10345666  0.09656088  1
  Zr  Zr38  1  0.29362860  0.70144348  0.30663896  1
  Zr  Zr39  1  0.90217391  0.89730271  0.09371050  1
  Zr  Zr40  1  0.50078406  0.70105223  0.90151257  1
  Zr  Zr41  1  0.70906488  0.49876087  0.29598476  1
  Zr  Zr42  1  0.29045263  0.69506956  0.69821619  1
  Zr  Zr43  1  0.29883888  0.30658138  0.30229872  1
  Zr  Zr44  1  0.90015202  0.29491919  0.49995359  1
  Zr  Zr45  1  0.10027353  0.50359374  0.30272441  1
  Zr  Zr46  1  0.49819181  0.49332324  0.70556024  1
  Zr  Zr47  1  0.70054233  0.69596704  0.49752002  1
  Zr  Zr48  1  0.69931599  0.30523448  0.90271930  1
  Zr  Zr49  1  0.70287636  0.09248268  0.89533609  1
  Sc  Sc50  1  0.49304754  0.30075129  0.69821631  1
  Sc  Sc51  1  0.69939476  0.90005775  0.50732508  1
  Sc  Sc52  1  0.69956807  0.90447142  0.70336317  1
  Sc  Sc53  1  0.90191445  0.70596936  0.90506374  1
  Sc  Sc54  1  0.90086802  0.10082975  0.10055631  1
  Sc  Sc55  1  0.49394714  0.50198524  0.09590112  1
  Sc  Sc56  1  0.11353989  0.31243092  0.50139322  1
  Sc  Sc57  1  0.29638650  0.50009155  0.10017797  1
  Sc  Sc58  1  0.69203039  0.29382234  0.68990194  1
  Sc  Sc59  1  0.09969443  0.29328965  0.89648410  1
  Sc  Sc60  1  0.90305507  0.09957410  0.29015777  1
  Sc  Sc61  1  0.09373981  0.50038283  0.50286029  1
  Sc  Sc62  1  0.49199552  0.49875549  0.30378376  1
  Sc  Sc63  1  0.09895884  0.30549652  0.70308069  1
  Sc  Sc64  1  0.10130453  0.90769420  0.49636834  1
  Sc  Sc65  1  0.89384049  0.69319667  0.49430007  1
  Sc  Sc66  1  0.90543463  0.30411841  0.28820644  1
  Sc  Sc67  1  0.09533714  0.90029356  0.10915760  1
  Sc  Sc68  1  0.49449488  0.90524424  0.49480605  1
  Sc  Sc69  1  0.09773680  0.09963834  0.10479171  1
  Sc  Sc70  1  0.30499663  0.30116534  0.50221261  1
  Sc  Sc71  1  0.10808436  0.50589418  0.09918440  1
  Sc  Sc72  1  0.08078742  0.89762980  0.89685319  1
  Sc  Sc73  1  0.29608305  0.30879181  0.10039343  1
  Sc  Sc74  1  0.70175905  0.69417487  0.90625154  1
  Sc  Sc75  1  0.70218691  0.89893246  0.89308540  1
  Sc  Sc76  1  0.91007047  0.29951395  0.70140757  1
  Sc  Sc77  1  0.70758280  0.69694918  0.69990334  1
  Sc  Sc78  1  0.29887238  0.30011166  0.90075536  1
  Sc  Sc79  1  0.50231421  0.09371467  0.30982610  1
  Sc  Sc80  1  0.50187923  0.10317485  0.69947345  1
  Sc  Sc81  1  0.30292656  0.30544707  0.69363980  1
  Sc  Sc82  1  0.69378429  0.89662121  0.10566058  1
  Sc  Sc83  1  0.30319348  0.50547421  0.70246924  1
  Sc  Sc84  1  0.89226892  0.09771102  0.50113807  1
  Sc  Sc85  1  0.90376022  0.09482330  0.90701408  1
  Sc  Sc86  1  0.29566954  0.10543583  0.50013221  1
  Sc  Sc87  1  0.49766112  0.10311040  0.50451402  1
  Sc  Sc88  1  0.10573919  0.30471476  0.10310775  1
  Sc  Sc89  1  0.89688030  0.09098649  0.69670292  1
  Sc  Sc90  1  0.30441055  0.70025628  0.50016227  1
  Sc  Sc91  1  0.09268073  0.69153779  0.90319707  1
  Sc  Sc92  1  0.90330022  0.51057481  0.89885335  1
  Sc  Sc93  1  0.49694329  0.09991143  0.09595283  1
  Sc  Sc94  1  0.30224974  0.69305436  0.89666164  1
  Sc  Sc95  1  0.71517079  0.30801667  0.09569085  1
  Sc  Sc96  1  0.29999487  0.50443920  0.29685989  1
  Sc  Sc97  1  0.89537087  0.90009641  0.89536436  1
  Sc  Sc98  1  0.10561389  0.69155138  0.49997158  1
  Sc  Sc99  1  0.91083136  0.89272436  0.30228283  1
  Nb  Nb100  1  0.09695288  0.09740432  0.50394544  1
  Nb  Nb101  1  0.90932715  0.69657485  0.29702456  1
  Nb  Nb102  1  0.09960913  0.50061820  0.90123816  1
  Nb  Nb103  1  0.10440284  0.09751698  0.69349684  1
  Nb  Nb104  1  0.49992345  0.89831724  0.89581008  1
  Nb  Nb105  1  0.10617453  0.09988346  0.89213751  1
  Nb  Nb106  1  0.90717131  0.30618875  0.09549132  1
  Nb  Nb107  1  0.09467560  0.69185886  0.70041985  1
  Nb  Nb108  1  0.90060637  0.49560413  0.49621905  1
  Nb  Nb109  1  0.70603734  0.69495072  0.10561489  1
  Nb  Nb110  1  0.49968795  0.89686722  0.09764858  1
  Nb  Nb111  1  0.49731765  0.89829248  0.70895167  1
  Nb  Nb112  1  0.09400836  0.69888583  0.29842272  1
  Nb  Nb113  1  0.29526223  0.89477136  0.49773934  1
  Nb  Nb114  1  0.49851582  0.49820861  0.89494314  1
  Nb  Nb115  1  0.69326363  0.90027936  0.29796854  1
  Nb  Nb116  1  0.90760102  0.70047636  0.70199430  1
  Nb  Nb117  1  0.10150687  0.50955016  0.70394851  1
  Nb  Nb118  1  0.69713487  0.30098600  0.30261365  1
  Nb  Nb119  1  0.30263378  0.10038152  0.69970218  1
  Nb  Nb120  1  0.90241238  0.89073746  0.70378732  1
  Nb  Nb121  1  0.50288942  0.69951440  0.49678288  1
  Nb  Nb122  1  0.89597567  0.69659586  0.09804075  1
  Nb  Nb123  1  0.50387765  0.89727561  0.29497797  1
  Nb  Nb124  1  0.29136142  0.49586945  0.50771391  1
  Nb  Nb125  1  0.59808341  0.80005435  0.39898361  1
  Nb  Nb126  1  0.80443108  0.40247876  0.59825271  1
  Nb  Nb127  1  -0.00011797  0.40064809  0.00013375  1
  Nb  Nb128  1  0.19758795  -0.00093466  -0.01184239  1
  Nb  Nb129  1  0.19818234  0.80520910  -0.00686043  1
  Nb  Nb130  1  0.80194203  0.39950416  0.79383881  1
  Nb  Nb131  1  0.00774418  0.19837509  0.40424021  1
  Nb  Nb132  1  0.60144294  0.20421836  0.19859619  1
  Nb  Nb133  1  -0.00281636  0.79481485  0.60596516  1
  Nb  Nb134  1  0.39280252  -0.00526492  0.60498176  1
  Nb  Nb135  1  0.80149195  0.39772616  0.40193536  1
  Nb  Nb136  1  0.79964743  0.20254655  0.80043643  1
  Nb  Nb137  1  0.79428086  -0.00424139  0.39443075  1
  Nb  Nb138  1  0.59131542  0.79692424  0.59768496  1
  Nb  Nb139  1  0.19300093  0.80149390  0.80020757  1
  Nb  Nb140  1  0.19493985  0.41079451  0.80202558  1
  Nb  Nb141  1  0.59190624  -0.00328884  -0.00522184  1
  Nb  Nb142  1  0.40393644  0.80434086  0.20032304  1
  Nb  Nb143  1  0.60292581  0.19747914  0.00047716  1
  Nb  Nb144  1  0.40229732  -0.00414102  0.20102581  1
  Nb  Nb145  1  0.40324207  0.19932066  0.20390199  1
  Nb  Nb146  1  0.00859150  0.19299549  0.59596290  1
  Nb  Nb147  1  0.80107786  0.79219955  0.20033721  1
  Nb  Nb148  1  0.60421195  0.39669759  0.20305165  1
  Nb  Nb149  1  0.19734202  0.00143699  0.79628036  1
  Pd  Pd150  1  0.79841926  0.79954893  0.60517820  1
  Pd  Pd151  1  0.79901817  0.20851440  0.19929918  1
  Pd  Pd152  1  0.39478605  0.00142407  0.40483617  1
  Pd  Pd153  1  0.80425924  0.59924306  0.80299002  1
  Pd  Pd154  1  0.59544589  0.19448420  0.40027280  1
  Pd  Pd155  1  0.80891390  -0.01477054  0.20575562  1
  Pd  Pd156  1  0.60353717  0.20603507  0.80150335  1
  Pd  Pd157  1  0.18858101  0.79586815  0.59827177  1
  Pd  Pd158  1  0.80895826  0.59537208  0.60121312  1
  Pd  Pd159  1  0.19332855  0.19954551  0.00258393  1
  Pd  Pd160  1  0.59157610  0.00773333  0.19263016  1
  Pd  Pd161  1  0.20387142  0.79467211  0.19460183  1
  Pd  Pd162  1  0.40506119  0.80450117  0.58986758  1
  Pd  Pd163  1  0.79222430  0.80324393  0.00518658  1
  Pd  Pd164  1  0.20245355  0.20425001  0.19980136  1
  Pd  Pd165  1  0.40574239  0.20766131  0.00279114  1
  Pd  Pd166  1  0.20356304  0.20590967  0.78871301  1
  Pd  Pd167  1  0.39635093  0.79245531  0.00043700  1
  Pd  Pd168  1  0.79762316  0.79468176  0.79932881  1
  Pd  Pd169  1  0.40169354  0.00194256  0.00159847  1
  Pd  Pd170  1  -0.00190116  0.00719129  0.79756862  1
  Pd  Pd171  1  0.59683792  0.60877888  0.79485944  1
  Pd  Pd172  1  0.00324047  0.39515002  0.59761795  1
  Pd  Pd173  1  0.20823944  -0.00008220  0.59876348  1
  Pd  Pd174  1  0.59875961  0.59771659  0.39239585  1
  Pd  Pd175  1  0.80075795  0.19671382  -0.00354281  1
  Pd  Pd176  1  0.59673679  0.59521954  0.00085240  1
  Pd  Pd177  1  0.60592470  0.79505152  0.79379853  1
  Pd  Pd178  1  0.60567351  -0.00469881  0.40852250  1
  Pd  Pd179  1  0.39666292  0.59696298  0.59668647  1
  Pd  Pd180  1  0.61022051  0.80607629  -0.00349822  1
  Pd  Pd181  1  0.40088157  0.60490853  0.19745889  1
  Pd  Pd182  1  0.00707071  0.00243120  0.00266461  1
  Pd  Pd183  1  0.59565425  0.60752505  0.60949847  1
  Pd  Pd184  1  0.19793895  0.20623728  0.60242241  1
  Pd  Pd185  1  0.39189180  0.40792278  0.40643696  1
  Pd  Pd186  1  0.20132347  0.59641063  0.40298256  1
  Pd  Pd187  1  0.81031762  0.41110155  -0.01004155  1
  Pd  Pd188  1  0.00695048  0.20118933  0.20286428  1
  Pd  Pd189  1  -0.00414685  0.18761120  0.79100546  1
  Pd  Pd190  1  -0.01005968  0.00652258  0.39986966  1
  Pd  Pd191  1  0.19467716  0.20293069  0.40647350  1
  Pd  Pd192  1  0.00666105  0.79113313  0.41237286  1
  Pd  Pd193  1  0.79513128  0.80611727  0.39160616  1
  Pd  Pd194  1  0.20431888  -0.00143767  0.19579956  1
  Pd  Pd195  1  0.00865712  0.20171176  0.00534181  1
  Pd  Pd196  1  0.39490142  0.40278071  -0.00060177  1
  Pd  Pd197  1  0.80210752  -0.00635782  0.59935197  1
  Pd  Pd198  1  0.59249089  0.58951554  0.20465838  1
  Pd  Pd199  1  0.81060834  0.19796090  0.38935232  1
  Rh  Rh200  1  0.80862340  0.59188178  0.39353591  1
  Rh  Rh201  1  0.19249402  0.39905863  -0.00917090  1
  Rh  Rh202  1  -0.00687351  -0.00164448  0.59989178  1
  Rh  Rh203  1  0.38865879  0.40133073  0.80291268  1
  Rh  Rh204  1  -0.00330780  0.60697885  0.59153519  1
  Rh  Rh205  1  -0.00255636  0.59406391  0.00534033  1
  Rh  Rh206  1  0.40234873  0.39598770  0.20054368  1
  Rh  Rh207  1  0.59500427  -0.00441096  0.80209416  1
  Rh  Rh208  1  0.00176318  0.79934735  0.00193694  1
  Rh  Rh209  1  0.60127338  0.39879303  0.60122265  1
  Rh  Rh210  1  0.19546836  0.60098146  0.80411965  1
  Rh  Rh211  1  0.40409871  0.80222367  0.39973605  1
  Rh  Rh212  1  -0.00170929  0.60487785  0.80520462  1
  Rh  Rh213  1  0.00312133  0.79298248  0.79673237  1
  Rh  Rh214  1  0.59134124  0.20168786  0.59730319  1
  Rh  Rh215  1  0.19860000  0.40990135  0.61187812  1
  Rh  Rh216  1  0.00277413  0.59865262  0.19701998  1
  Rh  Rh217  1  -0.00233079  -0.00340166  0.20102445  1
  Rh  Rh218  1  0.80004479  0.59909780  -0.00391983  1
  Rh  Rh219  1  0.40661977  0.60048367  -0.00085527  1
  Rh  Rh220  1  0.00849695  0.40573916  0.18843559  1
  Rh  Rh221  1  0.60416558  0.39528786  0.79107409  1
  Rh  Rh222  1  0.39122083  0.59346395  0.41096603  1
  Rh  Rh223  1  0.39860704  0.40657156  0.59770738  1
  Rh  Rh224  1  0.19942203  0.59557157  0.59827408  1
  Rh  Rh225  1  0.20440503  0.00067838  0.40705812  1
  Rh  Rh226  1  0.80944469  0.20598734  0.61453923  1
  Rh  Rh227  1  0.00347325  0.40676522  0.80875340  1
  Rh  Rh228  1  0.80996518  0.60688612  0.20581588  1
  Rh  Rh229  1  0.59966768  0.40330710  0.00838728  1
  Rh  Rh230  1  0.19679121  0.60401532  0.20365023  1
  Rh  Rh231  1  0.39397969  0.79100948  0.80484083  1
  Rh  Rh232  1  -0.00011035  0.60490992  0.40391319  1
  Rh  Rh233  1  0.79847607  0.39344841  0.20561188  1
  Rh  Rh234  1  0.60618963  0.40941521  0.39468480  1
  Rh  Rh235  1  0.40058693  0.20008429  0.39961838  1
  Rh  Rh236  1  0.58541710  -0.00995254  0.60467749  1
  Rh  Rh237  1  0.39656591  0.20768853  0.79373137  1
  Rh  Rh238  1  0.80612281  0.00234415  0.79815941  1
  Rh  Rh239  1  0.39841992  0.19370332  0.60054747  1
  Rh  Rh240  1  0.40333309  0.59893367  0.80275871  1
  Rh  Rh241  1  -0.00813298  0.79755024  0.19744923  1
  Rh  Rh242  1  0.79358049  -0.00814344  -0.00002737  1
  Rh  Rh243  1  0.19683505  0.60814953  -0.00059794  1
  Rh  Rh244  1  0.20522537  0.40876891  0.40106682  1
  Rh  Rh245  1  0.20014079  0.40785511  0.20349757  1
  Rh  Rh246  1  0.19261010  0.79647750  0.40629298  1
  Rh  Rh247  1  0.60164130  0.79594368  0.20523523  1
  Rh  Rh248  1  0.39963596  0.00318509  0.78964157  1
  Rh  Rh249  1  -0.00300010  0.39154435  0.40313394  1
