# generated using pymatgen
data_ZrScNbPdRh
_symmetry_space_group_name_H-M   'P 1'
_cell_length_a   16.54564582
_cell_length_b   16.54834367
_cell_length_c   16.54302937
_cell_angle_alpha   90.00223266
_cell_angle_beta   90.00422373
_cell_angle_gamma   89.99269172
_symmetry_Int_Tables_number   1
_chemical_formula_structural   ZrScNbPdRh
_chemical_formula_sum   'Zr50 Sc50 Nb50 Pd50 Rh50'
_cell_volume   4529.53156586
_cell_formula_units_Z   50
loop_
 _symmetry_equiv_pos_site_id
 _symmetry_equiv_pos_as_xyz
  1  'x, y, z'
loop_
 _atom_site_type_symbol
 _atom_site_label
 _atom_site_symmetry_multiplicity
 _atom_site_fract_x
 _atom_site_fract_y
 _atom_site_fract_z
 _atom_site_occupancy
  Zr  Zr0  1  0.29693860  0.89835061  0.30124882  1
  Zr  Zr1  1  0.29551016  0.09530821  0.70546972  1
  Zr  Zr2  1  0.90164132  0.90533167  0.69914106  1
  Zr  Zr3  1  0.09915380  0.09586935  0.69363957  1
  Zr  Zr4  1  0.49427940  0.10320665  0.09836598  1
  Zr  Zr5  1  0.49197100  0.70315827  0.90519738  1
  Zr  Zr6  1  0.49611740  0.50189632  0.50768288  1
  Zr  Zr7  1  0.49904804  0.29641205  0.50440360  1
  Zr  Zr8  1  0.71209608  0.89898755  0.90719538  1
  Zr  Zr9  1  0.10677709  0.30226107  0.30661535  1
  Zr  Zr10  1  0.70170463  0.90735432  0.50112288  1
  Zr  Zr11  1  0.70961698  0.10091918  0.69848435  1
  Zr  Zr12  1  0.70277667  0.49884760  0.49868624  1
  Zr  Zr13  1  0.70415548  0.71144206  0.90449233  1
  Zr  Zr14  1  0.50101483  0.90817459  0.50264920  1
  Zr  Zr15  1  0.91054472  0.10144000  0.10375405  1
  Zr  Zr16  1  0.90351892  0.09724622  0.30241433  1
  Zr  Zr17  1  0.28699607  0.30189353  0.89298839  1
  Zr  Zr18  1  0.30235798  0.89929161  0.90064717  1
  Zr  Zr19  1  0.70216267  0.71357129  0.29393271  1
  Zr  Zr20  1  0.29802600  0.50154920  0.09672056  1
  Zr  Zr21  1  0.49858666  0.89466927  0.70397848  1
  Zr  Zr22  1  0.69794516  0.49518113  0.90319489  1
  Zr  Zr23  1  0.70428577  0.30054611  0.49804274  1
  Zr  Zr24  1  0.30081159  0.30062086  0.10901577  1
  Zr  Zr25  1  0.09220040  0.69828892  0.89371710  1
  Zr  Zr26  1  0.29345914  0.70310292  0.29937537  1
  Zr  Zr27  1  0.70528463  0.49372085  0.29754201  1
  Zr  Zr28  1  0.10166918  0.50003770  0.29817015  1
  Zr  Zr29  1  0.49934588  0.70196153  0.50173896  1
  Zr  Zr30  1  0.29850539  0.29505688  0.49265821  1
  Zr  Zr31  1  0.90233404  0.70177759  0.30071442  1
  Zr  Zr32  1  0.69670508  0.90742555  0.30005302  1
  Zr  Zr33  1  0.30115242  0.49923684  0.51168342  1
  Zr  Zr34  1  0.28402349  0.90176481  0.09852058  1
  Zr  Zr35  1  0.69755886  0.30100672  0.30267454  1
  Zr  Zr36  1  0.50714873  0.49411083  0.30002981  1
  Zr  Zr37  1  0.49952915  0.89684426  0.30719795  1
  Zr  Zr38  1  0.89835942  0.09161519  0.90455506  1
  Zr  Zr39  1  0.50067560  0.29660868  0.29555512  1
  Zr  Zr40  1  0.70446112  0.89548406  0.69786153  1
  Zr  Zr41  1  0.49659648  0.09961911  0.90200817  1
  Zr  Zr42  1  0.90180139  0.90999260  0.08936942  1
  Zr  Zr43  1  0.90052844  0.51045497  0.29560720  1
  Zr  Zr44  1  0.50231061  0.50402176  0.08829472  1
  Zr  Zr45  1  0.90243441  0.10345541  0.69438824  1
  Zr  Zr46  1  0.89623301  0.50470842  0.49759135  1
  Zr  Zr47  1  0.90045297  0.29798699  0.50765341  1
  Zr  Zr48  1  0.10347851  0.49472954  0.89498339  1
  Zr  Zr49  1  0.09399667  0.08681624  0.10322668  1
  Sc  Sc50  1  0.30112077  0.09268778  0.30927923  1
  Sc  Sc51  1  0.10098488  0.70512319  0.09414016  1
  Sc  Sc52  1  0.90044521  0.29667090  0.09759438  1
  Sc  Sc53  1  0.09992745  0.50921351  0.10122297  1
  Sc  Sc54  1  0.30096926  0.09226205  0.89936653  1
  Sc  Sc55  1  0.49377710  0.09856215  0.69178303  1
  Sc  Sc56  1  0.89958645  0.89985796  0.49773046  1
  Sc  Sc57  1  0.30216420  0.49888354  0.88991659  1
  Sc  Sc58  1  0.50407934  0.09019892  0.29353871  1
  Sc  Sc59  1  0.49847380  0.29972084  0.70314759  1
  Sc  Sc60  1  0.09793259  0.89830847  0.69526430  1
  Sc  Sc61  1  0.90526059  0.70482981  0.69884155  1
  Sc  Sc62  1  0.49300500  0.89746531  0.89837592  1
  Sc  Sc63  1  0.10354505  0.30316771  0.70373210  1
  Sc  Sc64  1  0.29057043  0.70204325  0.50369766  1
  Sc  Sc65  1  0.70205565  0.28917743  0.69816405  1
  Sc  Sc66  1  0.69655889  0.30372798  0.09775757  1
  Sc  Sc67  1  0.70460234  0.89412625  0.10113249  1
  Sc  Sc68  1  0.28807269  0.49130960  0.29085259  1
  Sc  Sc69  1  0.89860793  0.29939013  0.90046101  1
  Sc  Sc70  1  0.70151727  0.09426398  0.30362860  1
  Sc  Sc71  1  0.09039826  0.09567616  0.49725884  1
  Sc  Sc72  1  0.69490135  0.29290651  0.89613943  1
  Sc  Sc73  1  0.09731558  0.29992463  0.49590798  1
  Sc  Sc74  1  0.10125289  0.09893902  0.90045948  1
  Sc  Sc75  1  0.69469853  0.70596882  0.69955523  1
  Sc  Sc76  1  0.29562794  0.69910605  0.70527262  1
  Sc  Sc77  1  0.50081182  0.90631046  0.10156607  1
  Sc  Sc78  1  0.29745195  0.90508874  0.49735244  1
  Sc  Sc79  1  0.90789608  0.50305948  0.89993264  1
  Sc  Sc80  1  0.70541111  0.70532991  0.50459948  1
  Sc  Sc81  1  0.09014745  0.28773465  0.10265793  1
  Sc  Sc82  1  0.88688636  0.90070876  0.30322029  1
  Sc  Sc83  1  0.10237375  0.70158612  0.30299638  1
  Sc  Sc84  1  0.50314488  0.50340346  0.89093381  1
  Sc  Sc85  1  0.10926040  0.90473716  0.29776843  1
  Sc  Sc86  1  0.09950228  0.89146827  0.90689798  1
  Sc  Sc87  1  0.90570289  0.49872440  0.68911458  1
  Sc  Sc88  1  0.90016459  0.29751407  0.31379542  1
  Sc  Sc89  1  0.29898251  0.30642831  0.70352177  1
  Sc  Sc90  1  0.10215489  0.70463240  0.50252361  1
  Sc  Sc91  1  0.50129929  0.28977490  0.10306067  1
  Sc  Sc92  1  0.50410053  0.29215038  0.90216743  1
  Sc  Sc93  1  0.10394150  0.89924682  0.50467282  1
  Sc  Sc94  1  0.10678823  0.50468889  0.69748838  1
  Sc  Sc95  1  0.89873356  0.10218376  0.49752508  1
  Sc  Sc96  1  0.29589349  0.90320867  0.70088446  1
  Sc  Sc97  1  0.90390275  0.88885301  0.89507023  1
  Sc  Sc98  1  0.69379840  0.09478233  0.11011072  1
  Sc  Sc99  1  0.10103211  0.50075157  0.50346853  1
  Nb  Nb100  1  0.90855611  0.69177331  0.09771710  1
  Nb  Nb101  1  0.69625857  0.50368292  0.70502300  1
  Nb  Nb102  1  0.09757804  0.90054780  0.10351887  1
  Nb  Nb103  1  0.30675227  0.70078050  0.09225259  1
  Nb  Nb104  1  0.50089891  0.70135457  0.29925870  1
  Nb  Nb105  1  0.90117487  0.70045785  0.49045842  1
  Nb  Nb106  1  0.90188214  0.69773635  0.90276381  1
  Nb  Nb107  1  0.49672970  0.51030047  0.69585037  1
  Nb  Nb108  1  0.09239734  0.10279601  0.29325988  1
  Nb  Nb109  1  0.10528340  0.70393518  0.69574267  1
  Nb  Nb110  1  0.69255095  0.10149468  0.50329761  1
  Nb  Nb111  1  0.90190901  0.50220428  0.10156855  1
  Nb  Nb112  1  0.29829049  0.70827816  0.90740835  1
  Nb  Nb113  1  0.29569866  0.09791186  0.09680165  1
  Nb  Nb114  1  0.50054714  0.69849730  0.09606568  1
  Nb  Nb115  1  0.30998829  0.09738989  0.50769238  1
  Nb  Nb116  1  0.31509645  0.49990658  0.69324016  1
  Nb  Nb117  1  0.89745405  0.29266093  0.70179326  1
  Nb  Nb118  1  0.10071474  0.29977509  0.89888135  1
  Nb  Nb119  1  0.70727983  0.50247712  0.09869900  1
  Nb  Nb120  1  0.69968189  0.10204646  0.89990186  1
  Nb  Nb121  1  0.49784461  0.69785525  0.69919048  1
  Nb  Nb122  1  0.29514267  0.30186466  0.30125111  1
  Nb  Nb123  1  0.69805277  0.70354253  0.09292683  1
  Nb  Nb124  1  0.49560675  0.10035434  0.50185108  1
  Nb  Nb125  1  0.40301776  0.79880263  0.60345182  1
  Nb  Nb126  1  -0.00430755  0.40432347  0.19807860  1
  Nb  Nb127  1  0.80273847  0.60015677  0.00346875  1
  Nb  Nb128  1  -0.00156455  0.80271229  0.19450699  1
  Nb  Nb129  1  0.20491014  0.60719297  -0.00786421  1
  Nb  Nb130  1  0.60571623  0.00105617  0.80350645  1
  Nb  Nb131  1  0.60287567  0.60555418  0.19435175  1
  Nb  Nb132  1  0.59874666  0.60338627  0.39245750  1
  Nb  Nb133  1  0.40576928  0.60547064  0.19922899  1
  Nb  Nb134  1  0.79882652  0.59841342  0.80403245  1
  Nb  Nb135  1  0.80305420  0.19857601  0.20018420  1
  Nb  Nb136  1  0.79831439  0.40425870  0.79476577  1
  Nb  Nb137  1  0.40136482  0.59704657  0.39331272  1
  Nb  Nb138  1  0.79811788  0.19222580  0.00294941  1
  Nb  Nb139  1  0.39696617  0.39882168  0.39724050  1
  Nb  Nb140  1  0.60103751  0.40862331  0.60853327  1
  Nb  Nb141  1  0.39697713  0.39731823  -0.00027381  1
  Nb  Nb142  1  0.20101256  0.19313323  0.20263412  1
  Nb  Nb143  1  0.60247820  0.00298036  -0.00733849  1
  Nb  Nb144  1  0.19949939  0.19766558  0.00552622  1
  Nb  Nb145  1  0.59677570  0.19505043  0.40727660  1
  Nb  Nb146  1  0.39990529  0.79294336  0.19726784  1
  Nb  Nb147  1  0.20382858  0.19430179  0.59665018  1
  Nb  Nb148  1  0.00161012  0.40107841  0.00270875  1
  Nb  Nb149  1  -0.00086602  0.20101696  0.79877743  1
  Pd  Pd150  1  0.79396029  0.60844759  0.19331369  1
  Pd  Pd151  1  0.39588681  0.60674797  0.80262233  1
  Pd  Pd152  1  0.80032450  0.60718728  0.60906018  1
  Pd  Pd153  1  0.60683453  0.60145306  0.59624425  1
  Pd  Pd154  1  0.19777262  0.39280936  0.60113728  1
  Pd  Pd155  1  0.39090188  0.19058634  0.21042854  1
  Pd  Pd156  1  0.60335773  0.60999906  0.80521151  1
  Pd  Pd157  1  0.80629245  0.39832173  -0.00597673  1
  Pd  Pd158  1  0.19583858  0.00655067  0.40439606  1
  Pd  Pd159  1  0.20002843  0.60997415  0.19012862  1
  Pd  Pd160  1  0.00363479  0.60706554  0.59777010  1
  Pd  Pd161  1  0.39121497  0.20416548  0.60978781  1
  Pd  Pd162  1  0.00125584  -0.00891433  0.39704325  1
  Pd  Pd163  1  0.40754445  0.39857960  0.80528384  1
  Pd  Pd164  1  0.39204549  0.79540518  0.40515640  1
  Pd  Pd165  1  0.60044737  0.00255326  0.61071374  1
  Pd  Pd166  1  -0.00464335  0.60031166  0.78959564  1
  Pd  Pd167  1  0.00544329  0.39583811  0.60276896  1
  Pd  Pd168  1  0.19089519  -0.00829545  0.80599365  1
  Pd  Pd169  1  0.81110579  0.80096719  0.18959400  1
  Pd  Pd170  1  0.60008681  0.39625860  0.79359519  1
  Pd  Pd171  1  0.39775917  0.19944938  0.79915953  1
  Pd  Pd172  1  0.19675242  0.80540772  0.79780553  1
  Pd  Pd173  1  0.20692632  0.59781016  0.79925535  1
  Pd  Pd174  1  0.80899094  0.38946282  0.20111080  1
  Pd  Pd175  1  0.38825905  0.20661893  -0.00681239  1
  Pd  Pd176  1  0.80920345  0.79750101  0.59794822  1
  Pd  Pd177  1  0.60644993  0.60342146  -0.00364847  1
  Pd  Pd178  1  0.19535428  0.18644379  0.40207092  1
  Pd  Pd179  1  0.79916074  -0.00274821  0.79947981  1
  Pd  Pd180  1  0.00811944  0.60170526  0.40503764  1
  Pd  Pd181  1  -0.00656078  0.39448751  0.80019836  1
  Pd  Pd182  1  0.20310342  0.59454864  0.40484847  1
  Pd  Pd183  1  0.40591092  0.19659793  0.39125143  1
  Pd  Pd184  1  -0.00468863  0.40531311  0.39816686  1
  Pd  Pd185  1  0.19508133  0.39732772  0.00849654  1
  Pd  Pd186  1  0.59318018  0.39294011  0.00094036  1
  Pd  Pd187  1  0.59434006  0.19055428  0.78978521  1
  Pd  Pd188  1  0.79455372  0.39874745  0.60919822  1
  Pd  Pd189  1  0.00556281  0.80880592  0.39182644  1
  Pd  Pd190  1  0.79125289  0.60746064  0.39735536  1
  Pd  Pd191  1  0.40340697  0.81178275  0.00904427  1
  Pd  Pd192  1  0.00573123  0.00112475  0.80416346  1
  Pd  Pd193  1  0.59874724  0.80307864  0.80714981  1
  Pd  Pd194  1  -0.00171375  0.79961237  0.59722515  1
  Pd  Pd195  1  0.40320970  0.40643023  0.19829192  1
  Pd  Pd196  1  0.60647010  0.79843944  0.40755268  1
  Pd  Pd197  1  0.59391465  0.80251365  0.19082744  1
  Pd  Pd198  1  0.60007333  0.40299873  0.18688044  1
  Pd  Pd199  1  0.39361302  -0.00669418  0.19808870  1
  Rh  Rh200  1  0.59220685  0.39705796  0.41402768  1
  Rh  Rh201  1  0.19238685  0.19719042  0.79905235  1
  Rh  Rh202  1  0.00033765  0.20553874  -0.01413333  1
  Rh  Rh203  1  0.79035519  0.00887215  0.00813289  1
  Rh  Rh204  1  0.18510268  0.38837667  0.19202482  1
  Rh  Rh205  1  0.39546662  -0.00949410  0.60194051  1
  Rh  Rh206  1  0.80988656  0.40274290  0.39906700  1
  Rh  Rh207  1  0.79110308  0.19424811  0.39871583  1
  Rh  Rh208  1  0.40668634  0.39331538  0.60180417  1
  Rh  Rh209  1  0.19850154  0.79577048  0.19533331  1
  Rh  Rh210  1  0.40516925  0.00133413  0.79748665  1
  Rh  Rh211  1  0.59613929  0.00717329  0.40231270  1
  Rh  Rh212  1  0.19715771  0.80444411  0.40337218  1
  Rh  Rh213  1  0.60881412  0.19841087  0.20851603  1
  Rh  Rh214  1  0.59409466  0.80010698  0.59847448  1
  Rh  Rh215  1  0.20763103  0.40810868  0.40799502  1
  Rh  Rh216  1  0.80049191  0.19628229  0.59249696  1
  Rh  Rh217  1  -0.00324931  0.80046127  0.00502967  1
  Rh  Rh218  1  0.19537025  0.00310546  -0.00355221  1
  Rh  Rh219  1  0.80312926  0.00563694  0.19755575  1
  Rh  Rh220  1  -0.00503185  -0.01571652  0.21122946  1
  Rh  Rh221  1  0.40159292  -0.00264057  0.00355383  1
  Rh  Rh222  1  0.39211414  0.61451403  0.60033927  1
  Rh  Rh223  1  0.00841121  0.20592843  0.60591878  1
  Rh  Rh224  1  0.00728256  -0.00733908  -0.00919962  1
  Rh  Rh225  1  0.81374007  0.79103189  0.00723538  1
  Rh  Rh226  1  0.60004209  -0.00632045  0.19540769  1
  Rh  Rh227  1  0.60817256  0.19312446  0.00761625  1
  Rh  Rh228  1  0.20591056  0.80147562  0.60345526  1
  Rh  Rh229  1  0.19566279  0.79581624  0.00007803  1
  Rh  Rh230  1  -0.00441124  -0.00542369  0.59473310  1
  Rh  Rh231  1  0.60095937  0.20272397  0.59844791  1
  Rh  Rh232  1  0.00309710  0.19946377  0.40198309  1
  Rh  Rh233  1  0.00245075  0.79717780  0.79487970  1
  Rh  Rh234  1  0.40404783  0.00237348  0.40192611  1
  Rh  Rh235  1  0.80608057  0.79339939  0.79543060  1
  Rh  Rh236  1  0.39610303  0.79334762  0.79429059  1
  Rh  Rh237  1  0.79723324  0.00327523  0.40628820  1
  Rh  Rh238  1  0.20128159  0.60207334  0.60632345  1
  Rh  Rh239  1  0.80744578  0.20512810  0.81040733  1
  Rh  Rh240  1  0.00802751  0.60369930  0.20144594  1
  Rh  Rh241  1  0.20104583  0.00715816  0.20417830  1
  Rh  Rh242  1  0.20194993  0.00651668  0.59388050  1
  Rh  Rh243  1  0.80359507  0.00397681  0.59364686  1
  Rh  Rh244  1  0.00468587  0.59426664  -0.00176739  1
  Rh  Rh245  1  0.79741166  0.80052002  0.40524642  1
  Rh  Rh246  1  0.20262802  0.40925005  0.78828587  1
  Rh  Rh247  1  0.59303507  0.81051129  0.00057179  1
  Rh  Rh248  1  -0.00178230  0.21167115  0.21568013  1
  Rh  Rh249  1  0.39275564  0.59221113  -0.00538408  1
