# generated using pymatgen
data_ZrScNbPdRh
_symmetry_space_group_name_H-M   'P 1'
_cell_length_a   16.55697516
_cell_length_b   16.55704650
_cell_length_c   16.55736526
_cell_angle_alpha   89.99961047
_cell_angle_beta   89.98026886
_cell_angle_gamma   90.00170395
_symmetry_Int_Tables_number   1
_chemical_formula_structural   ZrScNbPdRh
_chemical_formula_sum   'Zr50 Sc50 Nb50 Pd50 Rh50'
_cell_volume   4538.94655710
_cell_formula_units_Z   50
loop_
 _symmetry_equiv_pos_site_id
 _symmetry_equiv_pos_as_xyz
  1  'x, y, z'
loop_
 _atom_site_type_symbol
 _atom_site_label
 _atom_site_symmetry_multiplicity
 _atom_site_fract_x
 _atom_site_fract_y
 _atom_site_fract_z
 _atom_site_occupancy
  Zr  Zr0  1  0.10402055  0.69761481  0.10755443  1
  Zr  Zr1  1  0.28994066  0.09931718  0.29918273  1
  Zr  Zr2  1  0.70322696  0.50064191  0.30028258  1
  Zr  Zr3  1  0.70375273  0.10729109  0.49914316  1
  Zr  Zr4  1  0.09841004  0.30165055  0.90357483  1
  Zr  Zr5  1  0.29460813  0.70623885  0.09308894  1
  Zr  Zr6  1  0.49165435  0.70177318  0.89651432  1
  Zr  Zr7  1  0.09380143  0.49506705  0.50388406  1
  Zr  Zr8  1  0.49845565  0.09578418  0.51054681  1
  Zr  Zr9  1  0.09773789  0.70198377  0.29443815  1
  Zr  Zr10  1  0.49766929  0.70092873  0.50614397  1
  Zr  Zr11  1  0.69818391  0.70934145  0.90044234  1
  Zr  Zr12  1  0.90706114  0.89632014  0.30721059  1
  Zr  Zr13  1  0.29569373  0.10060745  0.10433409  1
  Zr  Zr14  1  0.89952203  0.90303214  0.09616033  1
  Zr  Zr15  1  0.90469731  0.50161680  0.70153780  1
  Zr  Zr16  1  0.50004888  0.30006603  0.09859147  1
  Zr  Zr17  1  0.90001975  0.29493294  0.90805882  1
  Zr  Zr18  1  0.30370659  0.69730502  0.69791413  1
  Zr  Zr19  1  0.90116113  0.30578023  0.09896191  1
  Zr  Zr20  1  0.69869848  0.29620462  0.69672413  1
  Zr  Zr21  1  0.70325112  0.49873527  0.70472004  1
  Zr  Zr22  1  0.11029635  0.69847142  0.49276220  1
  Zr  Zr23  1  0.30645795  0.90352353  0.29978854  1
  Zr  Zr24  1  0.10161457  0.10374212  0.69877691  1
  Zr  Zr25  1  0.50338372  0.50005710  0.10099775  1
  Zr  Zr26  1  0.89298752  0.49849445  0.90567515  1
  Zr  Zr27  1  0.10453120  0.49947173  0.29438362  1
  Zr  Zr28  1  0.50303618  0.89436731  0.89179178  1
  Zr  Zr29  1  0.29534020  0.69920881  0.30847274  1
  Zr  Zr30  1  0.70323256  0.50289565  0.90564846  1
  Zr  Zr31  1  0.11265209  0.89561667  0.09997241  1
  Zr  Zr32  1  0.89959176  0.49069868  0.29695096  1
  Zr  Zr33  1  0.29915222  0.50533201  0.50585270  1
  Zr  Zr34  1  0.90056364  0.69583827  0.29838115  1
  Zr  Zr35  1  0.69206459  0.90003326  0.29341082  1
  Zr  Zr36  1  0.29161487  0.90359305  0.69908340  1
  Zr  Zr37  1  0.90024960  0.09968447  0.89795530  1
  Zr  Zr38  1  0.29776886  0.50418063  0.09268661  1
  Zr  Zr39  1  0.29818414  0.10697919  0.69812013  1
  Zr  Zr40  1  0.90022983  0.10776151  0.09522346  1
  Zr  Zr41  1  0.90375509  0.69808101  0.10617819  1
  Zr  Zr42  1  0.30089630  0.90129981  0.10087974  1
  Zr  Zr43  1  0.30026735  0.29735924  0.30173520  1
  Zr  Zr44  1  0.49962323  0.30239737  0.91150640  1
  Zr  Zr45  1  0.69525247  0.30115621  0.09987996  1
  Zr  Zr46  1  0.48960893  0.49561326  0.49084291  1
  Zr  Zr47  1  0.88894148  0.90003938  0.89123290  1
  Zr  Zr48  1  0.50247363  0.30397379  0.50136985  1
  Zr  Zr49  1  0.50006370  0.89108053  0.29835956  1
  Sc  Sc50  1  0.10016597  0.29681886  0.50111575  1
  Sc  Sc51  1  0.10361725  0.69576461  0.89326456  1
  Sc  Sc52  1  0.11228567  0.10332664  0.89527060  1
  Sc  Sc53  1  0.90654064  0.90408876  0.50366277  1
  Sc  Sc54  1  0.30134900  0.69467751  0.89818841  1
  Sc  Sc55  1  0.08907021  0.69848188  0.69670675  1
  Sc  Sc56  1  0.10582239  0.49692519  0.10215829  1
  Sc  Sc57  1  0.69794914  0.90581751  0.71391988  1
  Sc  Sc58  1  0.90735340  0.29198951  0.69929172  1
  Sc  Sc59  1  0.70026644  0.90459110  0.50281616  1
  Sc  Sc60  1  0.49815130  0.69595805  0.10092000  1
  Sc  Sc61  1  0.90888950  0.30027736  0.49356720  1
  Sc  Sc62  1  0.50491566  0.89849578  0.69504936  1
  Sc  Sc63  1  0.48969069  0.49877184  0.69128076  1
  Sc  Sc64  1  0.89706590  0.70187579  0.89121270  1
  Sc  Sc65  1  0.50106154  0.89060209  0.10806409  1
  Sc  Sc66  1  0.29970503  0.30528066  0.69850130  1
  Sc  Sc67  1  0.49985768  0.10539708  0.28865742  1
  Sc  Sc68  1  0.69870453  0.29788363  0.30945467  1
  Sc  Sc69  1  0.10057152  0.50269692  0.69962314  1
  Sc  Sc70  1  0.89255415  0.49641993  0.10680657  1
  Sc  Sc71  1  0.30128825  0.30556780  0.90493900  1
  Sc  Sc72  1  0.09547022  0.89843600  0.49710776  1
  Sc  Sc73  1  0.30156896  0.89584616  0.49137521  1
  Sc  Sc74  1  0.30367813  0.50438628  0.31123222  1
  Sc  Sc75  1  0.70062174  0.50342456  0.09980378  1
  Sc  Sc76  1  0.69509634  0.10650973  0.09898489  1
  Sc  Sc77  1  0.50459728  0.11190230  0.89624641  1
  Sc  Sc78  1  0.69076734  0.09274090  0.69554890  1
  Sc  Sc79  1  0.69931253  0.29826447  0.90750393  1
  Sc  Sc80  1  0.69429848  0.49814714  0.49337574  1
  Sc  Sc81  1  0.49670521  0.90007124  0.49887493  1
  Sc  Sc82  1  0.29735960  0.30560651  0.50258524  1
  Sc  Sc83  1  0.29228519  0.89528687  0.90862849  1
  Sc  Sc84  1  0.89712284  0.70218666  0.49067010  1
  Sc  Sc85  1  0.69719497  0.69893914  0.30579048  1
  Sc  Sc86  1  0.49963889  0.11664705  0.09686082  1
  Sc  Sc87  1  0.50243649  0.29809635  0.29902478  1
  Sc  Sc88  1  0.29951884  0.29459560  0.09852400  1
  Sc  Sc89  1  0.10347864  0.89665079  0.30446784  1
  Sc  Sc90  1  0.29807076  0.50296232  0.89752720  1
  Sc  Sc91  1  0.48899860  0.50207017  0.90817235  1
  Sc  Sc92  1  0.90058390  0.49618954  0.49595659  1
  Sc  Sc93  1  0.90239690  0.09340847  0.69129604  1
  Sc  Sc94  1  0.10238245  0.30233789  0.30548952  1
  Sc  Sc95  1  0.10004493  0.29516114  0.69629543  1
  Sc  Sc96  1  0.11142998  0.50118198  0.90155931  1
  Sc  Sc97  1  0.90545411  0.09602003  0.49224023  1
  Sc  Sc98  1  0.69614321  0.69685156  0.49708635  1
  Sc  Sc99  1  0.49414274  0.29450407  0.70096215  1
  Nb  Nb100  1  0.29539935  0.09776943  0.49669732  1
  Nb  Nb101  1  0.30177421  0.09344252  0.90081792  1
  Nb  Nb102  1  0.90281731  0.10119103  0.30194990  1
  Nb  Nb103  1  0.90659044  0.30017008  0.29516604  1
  Nb  Nb104  1  0.10066806  0.29779506  0.10145642  1
  Nb  Nb105  1  0.10624380  0.09950695  0.49177413  1
  Nb  Nb106  1  0.69515509  0.69850042  0.69699131  1
  Nb  Nb107  1  0.09363922  0.90176783  0.69666658  1
  Nb  Nb108  1  0.29908222  0.50239950  0.70539760  1
  Nb  Nb109  1  0.90911983  0.89045441  0.70135333  1
  Nb  Nb110  1  0.49493500  0.09277748  0.70237578  1
  Nb  Nb111  1  0.70378389  0.08906782  0.89058914  1
  Nb  Nb112  1  0.70102399  0.70643174  0.09616352  1
  Nb  Nb113  1  0.69918573  0.90564813  0.90209503  1
  Nb  Nb114  1  0.69874065  0.89668450  0.09766042  1
  Nb  Nb115  1  0.70446412  0.09947308  0.30174780  1
  Nb  Nb116  1  0.10247386  0.90230395  0.89737425  1
  Nb  Nb117  1  0.29866857  0.69944092  0.49652180  1
  Nb  Nb118  1  0.50564992  0.70273585  0.70361989  1
  Nb  Nb119  1  0.69699800  0.29947208  0.50620123  1
  Nb  Nb120  1  0.49835601  0.69617167  0.30227244  1
  Nb  Nb121  1  0.49564805  0.50612586  0.29723381  1
  Nb  Nb122  1  0.10700525  0.09813324  0.10922547  1
  Nb  Nb123  1  0.09970349  0.10096732  0.30600181  1
  Nb  Nb124  1  0.89700369  0.70419601  0.70322300  1
  Nb  Nb125  1  0.80666129  0.19844674  0.20876501  1
  Nb  Nb126  1  0.80159978  0.79572063  0.61008838  1
  Nb  Nb127  1  -0.00220571  0.39812682  0.80553161  1
  Nb  Nb128  1  0.40456953  0.00217256  -0.00390771  1
  Nb  Nb129  1  0.79517985  0.80507863  0.19618728  1
  Nb  Nb130  1  -0.00140965  0.60401409  0.00354136  1
  Nb  Nb131  1  0.00175588  0.00716886  0.19964627  1
  Nb  Nb132  1  0.00424821  0.80237997  -0.00441925  1
  Nb  Nb133  1  0.60143387  -0.00409961  -0.00406069  1
  Nb  Nb134  1  0.59876681  0.40462510  0.80226220  1
  Nb  Nb135  1  0.19270842  0.80478359  0.79403905  1
  Nb  Nb136  1  0.80071367  0.00287936  0.20394255  1
  Nb  Nb137  1  0.79725323  0.39749790  0.59878769  1
  Nb  Nb138  1  0.00266216  0.19815641  0.20306214  1
  Nb  Nb139  1  0.60227379  0.00655660  0.39472499  1
  Nb  Nb140  1  0.40311001  0.40620754  0.20163769  1
  Nb  Nb141  1  0.80030750  0.60182015  0.60499351  1
  Nb  Nb142  1  0.19649788  0.00448059  0.59579146  1
  Nb  Nb143  1  0.39719503  0.00394066  0.80181945  1
  Nb  Nb144  1  0.00329765  0.59695279  0.39286910  1
  Nb  Nb145  1  0.00407085  -0.00650037  0.80008265  1
  Nb  Nb146  1  0.59577408  0.60155555  0.79609368  1
  Nb  Nb147  1  0.39661874  0.19455481  0.40611162  1
  Nb  Nb148  1  0.01044662  -0.00225034  -0.00127538  1
  Nb  Nb149  1  0.79697725  0.19260597  0.80076581  1
  Pd  Pd150  1  0.38948656  0.80746994  0.79695672  1
  Pd  Pd151  1  0.59824541  0.40061435  0.20748410  1
  Pd  Pd152  1  0.39657429  0.78868312  0.20108149  1
  Pd  Pd153  1  -0.00854780  0.60758104  0.58813110  1
  Pd  Pd154  1  0.60455374  0.20403569  0.80073975  1
  Pd  Pd155  1  0.20054090  0.40239754  0.40547469  1
  Pd  Pd156  1  -0.00152088  0.19488936  0.58996561  1
  Pd  Pd157  1  0.59124028  0.19336392  0.40053949  1
  Pd  Pd158  1  0.79705578  -0.00561463  0.39932022  1
  Pd  Pd159  1  0.59942510  0.80440911  0.40594418  1
  Pd  Pd160  1  0.00593629  0.41208022  0.00001307  1
  Pd  Pd161  1  0.60037301  0.40486845  0.60534581  1
  Pd  Pd162  1  0.19794232  0.60055111  0.60600605  1
  Pd  Pd163  1  0.60137810  0.59200502  0.60088353  1
  Pd  Pd164  1  0.60806360  0.80799186  0.60040338  1
  Pd  Pd165  1  0.20771463  0.21004763  0.80300151  1
  Pd  Pd166  1  0.80324998  0.38467406  0.79643961  1
  Pd  Pd167  1  0.21059259  0.39688978  0.19714717  1
  Pd  Pd168  1  0.79076658  0.60695918  0.19890822  1
  Pd  Pd169  1  0.01447746  0.19094992  0.00241589  1
  Pd  Pd170  1  0.59378658  0.19598254  0.60572814  1
  Pd  Pd171  1  0.39819494  0.80358203  0.59916041  1
  Pd  Pd172  1  0.79286948  0.00668839  0.00695393  1
  Pd  Pd173  1  0.19678821  0.80377006  0.60049955  1
  Pd  Pd174  1  0.39483386  0.20057407  0.80531481  1
  Pd  Pd175  1  0.79486955  0.60747608  0.79869350  1
  Pd  Pd176  1  0.40101355  0.60211354  0.60120224  1
  Pd  Pd177  1  0.20210199  0.19886330  -0.00218046  1
  Pd  Pd178  1  0.41023802  0.00854263  0.39461073  1
  Pd  Pd179  1  0.80641076  0.20722665  0.39972801  1
  Pd  Pd180  1  0.39202761  0.60006892  0.19901495  1
  Pd  Pd181  1  0.19825873  0.40083819  0.60480014  1
  Pd  Pd182  1  0.59431305  0.59934295  0.40022034  1
  Pd  Pd183  1  0.39620258  0.20584654  0.59482038  1
  Pd  Pd184  1  0.59748748  0.40122362  0.39381568  1
  Pd  Pd185  1  0.80805085  0.20262272  0.60087782  1
  Pd  Pd186  1  0.41016720  0.00585087  0.18999064  1
  Pd  Pd187  1  -0.00343418  0.79201211  0.59050828  1
  Pd  Pd188  1  0.80737638  0.79481201  0.00103698  1
  Pd  Pd189  1  0.40513962  0.40335071  0.80043894  1
  Pd  Pd190  1  0.59201456  0.80284342  0.00244023  1
  Pd  Pd191  1  0.80066733  -0.00947523  0.60496315  1
  Pd  Pd192  1  0.60634643  0.60648216  0.20035064  1
  Pd  Pd193  1  0.59695322  0.60300659  -0.00544998  1
  Pd  Pd194  1  0.79533910  0.80505011  0.40341070  1
  Pd  Pd195  1  0.39254412  -0.00600511  0.60413005  1
  Pd  Pd196  1  0.59906057  0.00754107  0.19374505  1
  Pd  Pd197  1  0.00265466  0.59224672  0.81054077  1
  Pd  Pd198  1  0.79977247  0.39213180  0.40641664  1
  Pd  Pd199  1  0.19386847  0.39760651  0.79587242  1
  Rh  Rh200  1  -0.00582385  0.19814257  0.80257883  1
  Rh  Rh201  1  0.00380012  0.79202288  0.40469276  1
  Rh  Rh202  1  0.39585111  0.40123703  0.00955467  1
  Rh  Rh203  1  0.20271223  0.60726891  0.79211980  1
  Rh  Rh204  1  0.58849503  0.00294165  0.80532204  1
  Rh  Rh205  1  0.20989094  0.80317469  0.20949582  1
  Rh  Rh206  1  0.19444627  0.60308562  -0.00043325  1
  Rh  Rh207  1  0.19631755  -0.00571232  0.40277630  1
  Rh  Rh208  1  0.61140012  0.20241545  0.20503105  1
  Rh  Rh209  1  0.79447618  0.39974771  0.00786082  1
  Rh  Rh210  1  -0.00483086  0.39614204  0.60934637  1
  Rh  Rh211  1  0.20298283  0.00554019  0.00157578  1
  Rh  Rh212  1  0.00049558  0.58383070  0.19880321  1
  Rh  Rh213  1  0.39796117  0.20829272  0.20569897  1
  Rh  Rh214  1  0.40171973  0.80315969  0.00121745  1
  Rh  Rh215  1  0.00540827  0.00112243  0.39796350  1
  Rh  Rh216  1  0.40374106  0.79186099  0.40209784  1
  Rh  Rh217  1  0.60144904  -0.00255462  0.59555962  1
  Rh  Rh218  1  0.39411503  0.39964041  0.60235819  1
  Rh  Rh219  1  0.00832475  0.00573460  0.60042166  1
  Rh  Rh220  1  -0.00463939  0.81288312  0.19457552  1
  Rh  Rh221  1  0.19163278  0.20675426  0.20316360  1
  Rh  Rh222  1  0.00535256  0.40340912  0.39593265  1
  Rh  Rh223  1  0.80954486  0.00364294  0.78819335  1
  Rh  Rh224  1  0.60790357  0.19042473  -0.00855366  1
  Rh  Rh225  1  0.79023852  0.80083625  0.79366352  1
  Rh  Rh226  1  0.20843483  0.60009103  0.20185353  1
  Rh  Rh227  1  0.60387396  0.78654436  0.19847914  1
  Rh  Rh228  1  0.40390485  0.59604888  0.79476825  1
  Rh  Rh229  1  0.39249565  0.19488003  -0.00307203  1
  Rh  Rh230  1  0.20167474  0.19677522  0.59317049  1
  Rh  Rh231  1  0.39708533  0.60321487  0.00186473  1
  Rh  Rh232  1  0.20357341  0.20281450  0.40381326  1
  Rh  Rh233  1  0.40332292  0.39183470  0.39224419  1
  Rh  Rh234  1  0.00449049  0.20047712  0.39773960  1
  Rh  Rh235  1  0.80676079  0.59516130  0.40421771  1
  Rh  Rh236  1  0.20261440  0.80498207  0.39863135  1
  Rh  Rh237  1  0.40285700  0.60800033  0.40492015  1
  Rh  Rh238  1  0.00673351  0.39438654  0.19641642  1
  Rh  Rh239  1  0.60533029  0.79679423  0.79727999  1
  Rh  Rh240  1  0.00659682  0.80411397  0.80543127  1
  Rh  Rh241  1  0.19597290  -0.00662334  0.20886148  1
  Rh  Rh242  1  0.80570255  0.60680048  0.00283931  1
  Rh  Rh243  1  0.19358412  0.79037802  -0.01202294  1
  Rh  Rh244  1  0.19933547  -0.00290405  0.79400812  1
  Rh  Rh245  1  0.19508107  0.59234928  0.40134299  1
  Rh  Rh246  1  0.60205935  0.40644798  -0.00601288  1
  Rh  Rh247  1  0.79020592  0.19689950  -0.00346063  1
  Rh  Rh248  1  0.79041966  0.38995666  0.20232698  1
  Rh  Rh249  1  0.19999219  0.39565074  0.00324015  1
