# generated using pymatgen
data_ZrScNbPdRh
_symmetry_space_group_name_H-M   'P 1'
_cell_length_a   16.55460374
_cell_length_b   16.54773814
_cell_length_c   16.55643926
_cell_angle_alpha   89.99519514
_cell_angle_beta   90.00298750
_cell_angle_gamma   90.02205125
_symmetry_Int_Tables_number   1
_chemical_formula_structural   ZrScNbPdRh
_chemical_formula_sum   'Zr50 Sc50 Nb50 Pd50 Rh50'
_cell_volume   4535.49126937
_cell_formula_units_Z   50
loop_
 _symmetry_equiv_pos_site_id
 _symmetry_equiv_pos_as_xyz
  1  'x, y, z'
loop_
 _atom_site_type_symbol
 _atom_site_label
 _atom_site_symmetry_multiplicity
 _atom_site_fract_x
 _atom_site_fract_y
 _atom_site_fract_z
 _atom_site_occupancy
  Zr  Zr0  1  0.91461932  0.89715973  0.50049652  1
  Zr  Zr1  1  0.89937066  0.09120577  0.70166676  1
  Zr  Zr2  1  0.90132865  0.88920098  0.09637350  1
  Zr  Zr3  1  0.49834307  0.31273344  0.09934353  1
  Zr  Zr4  1  0.50266471  0.69953222  0.50633513  1
  Zr  Zr5  1  0.29042972  0.69947554  0.49387242  1
  Zr  Zr6  1  0.09896790  0.69259750  0.09655024  1
  Zr  Zr7  1  0.69781685  0.09218544  0.09554785  1
  Zr  Zr8  1  0.69857949  0.10018925  0.70006728  1
  Zr  Zr9  1  0.50859174  0.50331909  0.50559824  1
  Zr  Zr10  1  0.70355880  0.10838621  0.30029844  1
  Zr  Zr11  1  0.49850898  0.89421536  0.89799888  1
  Zr  Zr12  1  0.10870504  0.49808250  0.70146040  1
  Zr  Zr13  1  0.29403065  0.89845669  0.70594352  1
  Zr  Zr14  1  0.69632885  0.70274057  0.90190206  1
  Zr  Zr15  1  0.90538695  0.50199729  0.30992435  1
  Zr  Zr16  1  0.89814390  0.69195950  0.30131987  1
  Zr  Zr17  1  0.48988130  0.09784441  0.89952201  1
  Zr  Zr18  1  0.10155863  0.09920676  0.09778049  1
  Zr  Zr19  1  0.70373274  0.90180370  0.70636255  1
  Zr  Zr20  1  0.90318531  0.89689606  0.69640711  1
  Zr  Zr21  1  0.10048897  0.50690886  0.89926133  1
  Zr  Zr22  1  0.49762741  0.69581263  0.90445888  1
  Zr  Zr23  1  0.29170369  0.09286398  0.09503818  1
  Zr  Zr24  1  0.50609869  0.89776116  0.69669420  1
  Zr  Zr25  1  0.70925256  0.30621680  0.50080895  1
  Zr  Zr26  1  0.30299186  0.10338868  0.49868744  1
  Zr  Zr27  1  0.49127265  0.68915766  0.10113262  1
  Zr  Zr28  1  0.49853626  0.09727612  0.50098243  1
  Zr  Zr29  1  0.49856896  0.09124261  0.30633887  1
  Zr  Zr30  1  0.10468283  0.10100521  0.90322135  1
  Zr  Zr31  1  0.29926949  0.89995389  0.89780340  1
  Zr  Zr32  1  0.50247817  0.30123660  0.29601399  1
  Zr  Zr33  1  0.69834592  0.48351471  0.69718454  1
  Zr  Zr34  1  0.70914919  0.29743797  0.88762745  1
  Zr  Zr35  1  0.90935847  0.69839466  0.49862856  1
  Zr  Zr36  1  0.70581196  0.09797507  0.89861743  1
  Zr  Zr37  1  0.49594396  0.10070949  0.09704075  1
  Zr  Zr38  1  0.50197063  0.70207011  0.30162142  1
  Zr  Zr39  1  0.49827649  0.10708902  0.69702835  1
  Zr  Zr40  1  0.30350746  0.70318320  0.10439677  1
  Zr  Zr41  1  0.49179092  0.89719083  0.10141283  1
  Zr  Zr42  1  0.90891946  0.89971262  0.29910073  1
  Zr  Zr43  1  0.28182204  0.90530692  0.49816296  1
  Zr  Zr44  1  0.49501667  0.49994580  0.69799960  1
  Zr  Zr45  1  0.30251590  0.30637546  0.30427224  1
  Zr  Zr46  1  0.69061529  0.90593121  0.30495750  1
  Zr  Zr47  1  0.10176106  0.49517834  0.10309468  1
  Zr  Zr48  1  0.49078806  0.29390071  0.49973209  1
  Zr  Zr49  1  0.70047870  0.90014402  0.91240242  1
  Sc  Sc50  1  0.29461840  0.90159688  0.29060317  1
  Sc  Sc51  1  0.10499379  0.29708856  0.89187673  1
  Sc  Sc52  1  0.09719739  0.09842366  0.28266981  1
  Sc  Sc53  1  0.90283883  0.49895947  0.89558877  1
  Sc  Sc54  1  0.69298302  0.69641850  0.09771405  1
  Sc  Sc55  1  0.49964661  0.69887680  0.70102304  1
  Sc  Sc56  1  0.90566138  0.09933851  0.50471596  1
  Sc  Sc57  1  0.49040130  0.30011548  0.90043176  1
  Sc  Sc58  1  0.89625518  0.29597753  0.30494939  1
  Sc  Sc59  1  0.29806361  0.30221279  0.09865737  1
  Sc  Sc60  1  0.68274881  0.49946438  0.09930370  1
  Sc  Sc61  1  0.70258008  0.49505688  0.89455295  1
  Sc  Sc62  1  0.69177593  0.29788171  0.10748480  1
  Sc  Sc63  1  0.09622604  0.70346009  0.70827017  1
  Sc  Sc64  1  0.90262404  0.10564978  0.29630123  1
  Sc  Sc65  1  0.68823696  0.90064082  0.51137946  1
  Sc  Sc66  1  0.29449741  0.69656690  0.29141982  1
  Sc  Sc67  1  0.10269268  0.69092734  0.30656016  1
  Sc  Sc68  1  0.30422722  0.69527233  0.89414812  1
  Sc  Sc69  1  0.89840966  0.50240377  0.50085529  1
  Sc  Sc70  1  0.49809906  0.49834701  0.28971081  1
  Sc  Sc71  1  0.10031566  0.10408091  0.69785559  1
  Sc  Sc72  1  0.29663946  0.10079235  0.89682029  1
  Sc  Sc73  1  0.49546969  0.49992858  0.91041859  1
  Sc  Sc74  1  0.30147343  0.49568544  0.50040606  1
  Sc  Sc75  1  0.90741330  0.70293774  0.89570914  1
  Sc  Sc76  1  0.89966372  0.30016842  0.70450839  1
  Sc  Sc77  1  0.09615999  0.90458668  0.10433156  1
  Sc  Sc78  1  0.11047255  0.29990397  0.69407828  1
  Sc  Sc79  1  0.29812006  0.09570973  0.29900868  1
  Sc  Sc80  1  0.90913475  0.10963960  0.09965218  1
  Sc  Sc81  1  0.89964336  0.90034313  0.89795560  1
  Sc  Sc82  1  0.09378377  0.29937712  0.10879389  1
  Sc  Sc83  1  0.90457416  0.29845481  0.90082991  1
  Sc  Sc84  1  0.29924542  0.50335335  0.88610919  1
  Sc  Sc85  1  0.09991339  0.89912964  0.69558015  1
  Sc  Sc86  1  0.70341992  0.70802507  0.69979032  1
  Sc  Sc87  1  0.30069891  0.30249191  0.50375700  1
  Sc  Sc88  1  0.89981436  0.50964044  0.70048441  1
  Sc  Sc89  1  0.09719418  0.49372338  0.49465462  1
  Sc  Sc90  1  0.69488320  0.69037762  0.49637498  1
  Sc  Sc91  1  0.90331189  0.70305896  0.69719615  1
  Sc  Sc92  1  0.91532662  0.50305581  0.10470105  1
  Sc  Sc93  1  0.29841312  0.29721495  0.89649901  1
  Sc  Sc94  1  0.30344690  0.50526012  0.10751638  1
  Sc  Sc95  1  0.29195940  0.49977936  0.30043618  1
  Sc  Sc96  1  0.70423218  0.51324345  0.30611944  1
  Sc  Sc97  1  0.90161053  0.10516024  0.89877413  1
  Sc  Sc98  1  0.90206217  0.30820218  0.49537744  1
  Sc  Sc99  1  0.09900500  0.89746859  0.89290277  1
  Nb  Nb100  1  0.30191770  0.69209057  0.69781101  1
  Nb  Nb101  1  0.49682089  0.90253099  0.30964693  1
  Nb  Nb102  1  0.09221440  0.90342750  0.30406683  1
  Nb  Nb103  1  0.89668196  0.69943315  0.10056319  1
  Nb  Nb104  1  0.10508951  0.09760820  0.50628948  1
  Nb  Nb105  1  0.70431677  0.30212265  0.30334767  1
  Nb  Nb106  1  0.70163994  0.70414776  0.30292776  1
  Nb  Nb107  1  0.29467463  0.89195288  0.09730933  1
  Nb  Nb108  1  0.29846079  0.50337138  0.69766466  1
  Nb  Nb109  1  0.69765826  0.29852624  0.70286206  1
  Nb  Nb110  1  0.70011779  0.49530910  0.50016482  1
  Nb  Nb111  1  0.70077580  0.10165888  0.49996227  1
  Nb  Nb112  1  0.90177139  0.30935988  0.09850068  1
  Nb  Nb113  1  0.09767394  0.90034919  0.49429988  1
  Nb  Nb114  1  0.10454811  0.30750000  0.30543547  1
  Nb  Nb115  1  0.30083886  0.30939757  0.70179390  1
  Nb  Nb116  1  0.50526494  0.30159173  0.69601141  1
  Nb  Nb117  1  0.10614576  0.49040216  0.30190643  1
  Nb  Nb118  1  0.10140570  0.29961699  0.50135659  1
  Nb  Nb119  1  0.10105583  0.70599684  0.49803761  1
  Nb  Nb120  1  0.49416135  0.90188782  0.49913518  1
  Nb  Nb121  1  0.10460231  0.69918541  0.89677696  1
  Nb  Nb122  1  0.30048697  0.09927502  0.69884210  1
  Nb  Nb123  1  0.49741824  0.50008852  0.10041574  1
  Nb  Nb124  1  0.70076664  0.89769414  0.09948263  1
  Nb  Nb125  1  0.40070568  0.19886951  0.19849421  1
  Nb  Nb126  1  0.59987169  0.80373305  0.20358741  1
  Nb  Nb127  1  0.59927059  0.19813861  -0.00347080  1
  Nb  Nb128  1  0.19968106  0.60153890  0.60065656  1
  Nb  Nb129  1  0.39307432  0.80244755  0.59472235  1
  Nb  Nb130  1  0.19488400  0.40577066  -0.00153442  1
  Nb  Nb131  1  0.39862445  0.80306164  0.40217333  1
  Nb  Nb132  1  0.19163308  0.20159808  0.40234895  1
  Nb  Nb133  1  0.79493405  0.20097656  0.60260912  1
  Nb  Nb134  1  0.01440712  0.20282357  0.40412201  1
  Nb  Nb135  1  0.60065373  0.59735242  0.79959229  1
  Nb  Nb136  1  0.79968879  -0.00253734  0.40004678  1
  Nb  Nb137  1  0.59953630  0.00054414  0.80258578  1
  Nb  Nb138  1  0.79930299  -0.00684014  0.19938396  1
  Nb  Nb139  1  0.40230350  0.60532313  0.40185427  1
  Nb  Nb140  1  0.80424951  0.40174878  0.00920397  1
  Nb  Nb141  1  0.39463109  -0.00439120  0.60104907  1
  Nb  Nb142  1  0.60582628  0.39760123  0.40179085  1
  Nb  Nb143  1  0.80309821  0.59829173  0.00354000  1
  Nb  Nb144  1  0.00740725  0.40430762  0.79741542  1
  Nb  Nb145  1  0.79909158  0.80265941  0.39647939  1
  Nb  Nb146  1  0.60600400  0.20386332  0.40101706  1
  Nb  Nb147  1  0.19999360  0.79639294  -0.00052599  1
  Nb  Nb148  1  0.79996619  0.40174853  0.19933652  1
  Nb  Nb149  1  0.79393701  0.79858349  0.20158429  1
  Pd  Pd150  1  0.79502376  0.60194368  0.80359127  1
  Pd  Pd151  1  0.39396104  0.00033283  0.19869442  1
  Pd  Pd152  1  0.81482084  0.00300047  0.00588724  1
  Pd  Pd153  1  0.19757954  0.21107928  0.00096792  1
  Pd  Pd154  1  0.01161308  0.60205341  0.59832264  1
  Pd  Pd155  1  0.60010620  0.80129473  0.40376165  1
  Pd  Pd156  1  0.60100402  0.60233637  0.20499981  1
  Pd  Pd157  1  0.39989016  0.39866527  0.60112906  1
  Pd  Pd158  1  0.00744573  0.60054689  0.20614946  1
  Pd  Pd159  1  -0.00201717  -0.00181777  -0.00177068  1
  Pd  Pd160  1  -0.00778862  0.60192347  -0.00465855  1
  Pd  Pd161  1  -0.00716680  0.20418687  0.59798430  1
  Pd  Pd162  1  0.39850148  0.79404065  0.79327255  1
  Pd  Pd163  1  0.00677858  0.20867472  -0.00092096  1
  Pd  Pd164  1  0.18637708  0.80187696  0.19863767  1
  Pd  Pd165  1  0.19263517  0.00457484  0.79737224  1
  Pd  Pd166  1  0.79775509  0.79565225  0.58778603  1
  Pd  Pd167  1  0.58874521  0.40229538  0.80674774  1
  Pd  Pd168  1  0.79497192  0.20950276  0.00744768  1
  Pd  Pd169  1  0.00155156  0.01456235  0.39859432  1
  Pd  Pd170  1  0.59927378  -0.00448016  0.19614020  1
  Pd  Pd171  1  0.79443134  0.59622344  0.19014869  1
  Pd  Pd172  1  0.59401477  0.79684834  0.01053162  1
  Pd  Pd173  1  -0.00622984  0.39527963  0.21237122  1
  Pd  Pd174  1  -0.00276025  0.39963247  0.60659388  1
  Pd  Pd175  1  0.38514015  0.40735725  -0.00081874  1
  Pd  Pd176  1  0.39324188  -0.00431334  0.00018758  1
  Pd  Pd177  1  0.19598218  0.79278518  0.60640873  1
  Pd  Pd178  1  0.59429491  0.19795344  0.80824358  1
  Pd  Pd179  1  0.39362788  0.20575635  0.79406237  1
  Pd  Pd180  1  0.79445685  0.60206060  0.59844602  1
  Pd  Pd181  1  0.40219967  0.40072758  0.79937303  1
  Pd  Pd182  1  0.61168241  0.60165798  0.61284983  1
  Pd  Pd183  1  0.80448989  0.20362913  0.19037541  1
  Pd  Pd184  1  0.20734081  0.20494565  0.20587130  1
  Pd  Pd185  1  0.59417657  0.19720232  0.19938079  1
  Pd  Pd186  1  0.19847119  0.80272487  0.38506852  1
  Pd  Pd187  1  0.80197575  0.00147311  0.59147527  1
  Pd  Pd188  1  0.19041327  0.00899417  0.38980355  1
  Pd  Pd189  1  0.00507937  -0.00026105  0.79980699  1
  Pd  Pd190  1  0.21031545  0.59985729  -0.00058945  1
  Pd  Pd191  1  0.00252506  0.20434230  0.79511538  1
  Pd  Pd192  1  0.00807398  0.79781269  -0.00535517  1
  Pd  Pd193  1  0.60884263  0.39276906  -0.00941691  1
  Pd  Pd194  1  0.80526936  0.80019231  0.80556164  1
  Pd  Pd195  1  0.40787710  0.41262098  0.39915207  1
  Pd  Pd196  1  0.00316001  0.78995329  0.20423982  1
  Pd  Pd197  1  0.60578780  0.20743530  0.59280727  1
  Pd  Pd198  1  0.20731826  0.20250198  0.59992668  1
  Pd  Pd199  1  0.81083636  0.39735855  0.60639355  1
  Rh  Rh200  1  -0.00228943  0.20981368  0.20716397  1
  Rh  Rh201  1  0.61082800  0.40956030  0.21199309  1
  Rh  Rh202  1  0.00037340  0.39625674  0.39922444  1
  Rh  Rh203  1  0.40651645  0.80640852  0.20962497  1
  Rh  Rh204  1  0.19921579  0.00393320  0.60573248  1
  Rh  Rh205  1  0.60382689  0.59394914  -0.00902746  1
  Rh  Rh206  1  0.20003241  0.59230471  0.40560831  1
  Rh  Rh207  1  0.39030051  -0.00890744  0.40555231  1
  Rh  Rh208  1  0.79685336  0.41030250  0.39173524  1
  Rh  Rh209  1  0.19849231  -0.01146259  -0.00203417  1
  Rh  Rh210  1  0.80031698  0.78860585  0.00342869  1
  Rh  Rh211  1  0.60163571  0.79917343  0.79976837  1
  Rh  Rh212  1  0.20018090  0.60650191  0.79180226  1
  Rh  Rh213  1  0.60471279  0.00679744  0.40949883  1
  Rh  Rh214  1  0.80116883  0.60469779  0.41079574  1
  Rh  Rh215  1  0.00077681  0.59819180  0.79908606  1
  Rh  Rh216  1  0.59403165  0.00196844  0.60244375  1
  Rh  Rh217  1  0.39134330  0.79762805  -0.00248590  1
  Rh  Rh218  1  0.38952437  0.60590880  0.59226086  1
  Rh  Rh219  1  0.80833599  0.19739151  0.79103108  1
  Rh  Rh220  1  0.00419966  0.39710914  -0.01232799  1
  Rh  Rh221  1  0.00987824  -0.00303227  0.60029468  1
  Rh  Rh222  1  -0.00529113  0.00107999  0.19334783  1
  Rh  Rh223  1  0.59302327  0.00299737  -0.00684510  1
  Rh  Rh224  1  0.19610832  -0.00692211  0.19822761  1
  Rh  Rh225  1  0.20302335  0.39944714  0.19346776  1
  Rh  Rh226  1  0.81218221  0.39809439  0.80124099  1
  Rh  Rh227  1  0.00946526  0.59592127  0.40379783  1
  Rh  Rh228  1  0.59597670  0.39180737  0.59499323  1
  Rh  Rh229  1  0.20696877  0.19770364  0.79184757  1
  Rh  Rh230  1  0.39409779  0.39894747  0.19750237  1
  Rh  Rh231  1  0.40925346  0.59705682  0.79829682  1
  Rh  Rh232  1  -0.00180967  0.80165016  0.79928648  1
  Rh  Rh233  1  0.20069820  0.39676824  0.40756421  1
  Rh  Rh234  1  0.00395331  0.79364470  0.39538651  1
  Rh  Rh235  1  0.59826531  0.79773602  0.59982453  1
  Rh  Rh236  1  0.20184261  0.79263599  0.80477718  1
  Rh  Rh237  1  0.39675109  0.19792649  0.38735758  1
  Rh  Rh238  1  0.39758728  0.59629610  0.20723885  1
  Rh  Rh239  1  0.80609886  0.19082278  0.41178700  1
  Rh  Rh240  1  0.39139263  0.20225438  0.61136729  1
  Rh  Rh241  1  0.20374583  0.40592130  0.59651217  1
  Rh  Rh242  1  0.19497206  0.59504666  0.20249730  1
  Rh  Rh243  1  0.79886013  -0.00329699  0.80539618  1
  Rh  Rh244  1  0.40538316  0.00098599  0.78988167  1
  Rh  Rh245  1  0.00968325  0.79840071  0.60099518  1
  Rh  Rh246  1  0.59496099  0.59042569  0.39614812  1
  Rh  Rh247  1  0.19965076  0.39830295  0.80450707  1
  Rh  Rh248  1  0.39338223  0.59440408  0.00037513  1
  Rh  Rh249  1  0.40218254  0.20339884  0.00787647  1
