# generated using pymatgen
data_ZrScNbPdRh
_symmetry_space_group_name_H-M   'P 1'
_cell_length_a   16.56015051
_cell_length_b   16.55924981
_cell_length_c   16.55928556
_cell_angle_alpha   89.99498308
_cell_angle_beta   90.00598889
_cell_angle_gamma   89.99081579
_symmetry_Int_Tables_number   1
_chemical_formula_structural   ZrScNbPdRh
_chemical_formula_sum   'Zr50 Sc50 Nb50 Pd50 Rh50'
_cell_volume   4540.94794166
_cell_formula_units_Z   50
loop_
 _symmetry_equiv_pos_site_id
 _symmetry_equiv_pos_as_xyz
  1  'x, y, z'
loop_
 _atom_site_type_symbol
 _atom_site_label
 _atom_site_symmetry_multiplicity
 _atom_site_fract_x
 _atom_site_fract_y
 _atom_site_fract_z
 _atom_site_occupancy
  Zr  Zr0  1  0.29583146  0.49356468  0.69525757  1
  Zr  Zr1  1  0.90681102  0.50262100  0.30017955  1
  Zr  Zr2  1  0.69163376  0.29845590  0.91573269  1
  Zr  Zr3  1  0.29788360  0.50792034  0.49468047  1
  Zr  Zr4  1  0.10599023  0.28722815  0.29452225  1
  Zr  Zr5  1  0.29505390  0.10015905  0.69614970  1
  Zr  Zr6  1  0.48714897  0.69687790  0.50320382  1
  Zr  Zr7  1  0.49185176  0.70484959  0.08960361  1
  Zr  Zr8  1  0.50687972  0.49535830  0.89394851  1
  Zr  Zr9  1  0.29377832  0.09025325  0.50124906  1
  Zr  Zr10  1  0.09964781  0.69996298  0.69806565  1
  Zr  Zr11  1  0.29834765  0.89980793  0.09909538  1
  Zr  Zr12  1  0.11150602  0.70444051  0.50132478  1
  Zr  Zr13  1  0.29370629  0.29966819  0.10710931  1
  Zr  Zr14  1  0.49893408  0.90177436  0.09930235  1
  Zr  Zr15  1  0.50384366  0.10070322  0.89428377  1
  Zr  Zr16  1  0.70141227  0.48652245  0.09577204  1
  Zr  Zr17  1  0.69670678  0.29665541  0.49401106  1
  Zr  Zr18  1  0.10034590  0.29707608  0.50765278  1
  Zr  Zr19  1  0.49294953  0.30678817  0.69540481  1
  Zr  Zr20  1  0.49420182  0.69920603  0.29587258  1
  Zr  Zr21  1  0.89772558  0.89159089  0.90092433  1
  Zr  Zr22  1  0.91230481  0.30101385  0.70033224  1
  Zr  Zr23  1  0.09342403  0.49247051  0.70047469  1
  Zr  Zr24  1  0.70700622  0.89625041  0.50811505  1
  Zr  Zr25  1  0.69469599  0.50614640  0.70721049  1
  Zr  Zr26  1  0.49771475  0.90167744  0.70281677  1
  Zr  Zr27  1  0.49819138  0.50479642  0.10082230  1
  Zr  Zr28  1  0.29842670  0.70874466  0.68395561  1
  Zr  Zr29  1  0.70102178  0.49689326  0.29281895  1
  Zr  Zr30  1  0.49652522  0.49831405  0.29534631  1
  Zr  Zr31  1  0.90138168  0.70824112  0.50636606  1
  Zr  Zr32  1  0.70428279  0.29564585  0.68714741  1
  Zr  Zr33  1  0.29718460  0.10254831  0.89375043  1
  Zr  Zr34  1  0.49994356  0.89135971  0.89817049  1
  Zr  Zr35  1  0.90129380  0.50024646  0.10032083  1
  Zr  Zr36  1  0.70709523  0.89901144  0.29502058  1
  Zr  Zr37  1  0.10367108  0.90442758  0.09258753  1
  Zr  Zr38  1  0.69895482  0.11309467  0.09389763  1
  Zr  Zr39  1  0.90275064  0.68694413  0.70798023  1
  Zr  Zr40  1  0.49941730  0.29517897  0.50115803  1
  Zr  Zr41  1  0.70771805  0.70574411  0.89771402  1
  Zr  Zr42  1  0.91080878  0.09920362  0.30560111  1
  Zr  Zr43  1  0.29658071  0.70211703  0.31282365  1
  Zr  Zr44  1  0.90573088  0.49884287  0.50614350  1
  Zr  Zr45  1  0.90344121  0.10623298  0.70064537  1
  Zr  Zr46  1  0.08873217  0.71346818  0.89658401  1
  Zr  Zr47  1  0.70085868  0.89912503  0.09911901  1
  Zr  Zr48  1  0.49929060  0.29751860  0.89597528  1
  Zr  Zr49  1  0.69979807  0.30047983  0.29367097  1
  Sc  Sc50  1  0.70378654  0.69829961  0.50650099  1
  Sc  Sc51  1  0.89455610  0.90185300  0.68825874  1
  Sc  Sc52  1  0.29487835  0.09255548  0.10200817  1
  Sc  Sc53  1  0.10107318  0.10403525  0.90914716  1
  Sc  Sc54  1  0.10755447  0.50939862  0.11034666  1
  Sc  Sc55  1  0.49735476  0.90014899  0.29035514  1
  Sc  Sc56  1  0.30062243  0.30405819  0.29355987  1
  Sc  Sc57  1  0.10845967  0.50264251  0.50195797  1
  Sc  Sc58  1  0.30003682  0.50287387  0.10318872  1
  Sc  Sc59  1  0.10371149  0.89850197  0.29982291  1
  Sc  Sc60  1  0.30062570  0.70256503  0.10465850  1
  Sc  Sc61  1  0.69957896  0.70679724  0.09730800  1
  Sc  Sc62  1  0.49237472  0.09369849  0.69786749  1
  Sc  Sc63  1  0.89163446  0.29597546  0.50974580  1
  Sc  Sc64  1  0.89814613  0.50891550  0.90444744  1
  Sc  Sc65  1  0.10150170  0.29898811  0.70431724  1
  Sc  Sc66  1  0.91350044  0.29568340  0.89864633  1
  Sc  Sc67  1  0.48979125  0.90688515  0.50548546  1
  Sc  Sc68  1  0.09822591  0.70575523  0.10342447  1
  Sc  Sc69  1  0.29476587  0.29499182  0.70111731  1
  Sc  Sc70  1  0.90381387  0.10667706  0.09379948  1
  Sc  Sc71  1  0.30273803  0.30766966  0.51354239  1
  Sc  Sc72  1  0.70034367  0.49909205  0.50852304  1
  Sc  Sc73  1  0.29982713  0.90233577  0.30221636  1
  Sc  Sc74  1  0.30037172  0.90562147  0.69896427  1
  Sc  Sc75  1  0.10769113  0.89201046  0.70152881  1
  Sc  Sc76  1  0.10972968  0.29641717  0.89644542  1
  Sc  Sc77  1  0.49462301  0.09797129  0.29123176  1
  Sc  Sc78  1  0.30002588  0.49482814  0.89934576  1
  Sc  Sc79  1  0.69493085  0.08823518  0.70209521  1
  Sc  Sc80  1  0.89100985  0.29763325  0.30300016  1
  Sc  Sc81  1  0.49376053  0.49892672  0.50554763  1
  Sc  Sc82  1  0.90153130  0.89683550  0.10222866  1
  Sc  Sc83  1  0.70574582  0.70976818  0.29601125  1
  Sc  Sc84  1  0.69674271  0.10579861  0.50705585  1
  Sc  Sc85  1  0.89478848  0.29311198  0.10046840  1
  Sc  Sc86  1  0.91583509  0.09394897  0.50691199  1
  Sc  Sc87  1  0.09837978  0.69224594  0.29552418  1
  Sc  Sc88  1  0.90947437  0.70319990  0.09441988  1
  Sc  Sc89  1  0.10446374  0.49025911  0.89472726  1
  Sc  Sc90  1  0.90507762  0.10597837  0.90314491  1
  Sc  Sc91  1  0.49294538  0.29795374  0.29344222  1
  Sc  Sc92  1  0.50515852  0.29755434  0.10583772  1
  Sc  Sc93  1  0.70365956  0.10424734  0.29772699  1
  Sc  Sc94  1  0.49806889  0.09616251  0.50531949  1
  Sc  Sc95  1  0.31383742  0.70669904  0.91017315  1
  Sc  Sc96  1  0.29435972  0.49871130  0.29755629  1
  Sc  Sc97  1  0.69890637  0.69168950  0.70392512  1
  Sc  Sc98  1  0.29175110  0.90838285  0.90007881  1
  Sc  Sc99  1  0.89794255  0.89391201  0.29172686  1
  Nb  Nb100  1  0.29263337  0.88901077  0.49870829  1
  Nb  Nb101  1  0.09961473  0.29619894  0.10351839  1
  Nb  Nb102  1  0.69925084  0.49888850  0.90138028  1
  Nb  Nb103  1  0.10477161  0.09969874  0.31244191  1
  Nb  Nb104  1  0.10085360  0.09392951  0.48891632  1
  Nb  Nb105  1  0.50097834  0.69822658  0.90141559  1
  Nb  Nb106  1  0.69869274  0.10242517  0.89873589  1
  Nb  Nb107  1  0.29858947  0.29942676  0.90285474  1
  Nb  Nb108  1  0.69394373  0.90278277  0.70579590  1
  Nb  Nb109  1  0.89947183  0.70300038  0.90253941  1
  Nb  Nb110  1  0.49938821  0.69834781  0.70094740  1
  Nb  Nb111  1  0.10008345  0.49853011  0.30079917  1
  Nb  Nb112  1  0.90145626  0.49344268  0.70666100  1
  Nb  Nb113  1  0.69914631  0.90424172  0.89435157  1
  Nb  Nb114  1  0.09929046  0.10634028  0.69269881  1
  Nb  Nb115  1  0.70076121  0.30163730  0.10091135  1
  Nb  Nb116  1  0.09648797  0.10812504  0.10922368  1
  Nb  Nb117  1  0.09213853  0.90528456  0.49475855  1
  Nb  Nb118  1  0.49486183  0.09893901  0.09547234  1
  Nb  Nb119  1  0.09480859  0.90502605  0.89855272  1
  Nb  Nb120  1  0.29166582  0.10558095  0.30694759  1
  Nb  Nb121  1  0.50462771  0.50928529  0.70173748  1
  Nb  Nb122  1  0.29753677  0.70389203  0.49701155  1
  Nb  Nb123  1  0.90295184  0.89834480  0.49679581  1
  Nb  Nb124  1  0.90360213  0.70113857  0.29783446  1
  Nb  Nb125  1  0.60223006  0.60118494  0.39719090  1
  Nb  Nb126  1  0.79216655  0.00110099  -0.00700455  1
  Nb  Nb127  1  0.60705670  -0.00680463  0.39871620  1
  Nb  Nb128  1  0.39882848  0.39125263  -0.00194033  1
  Nb  Nb129  1  0.80306854  0.60293124  0.39608365  1
  Nb  Nb130  1  0.00852495  0.39733657  0.01036846  1
  Nb  Nb131  1  0.39833602  0.20143341  0.00004323  1
  Nb  Nb132  1  0.60144262  0.59939188  -0.00649879  1
  Nb  Nb133  1  0.80528776  0.60064348  0.20174367  1
  Nb  Nb134  1  0.20508550  0.60701967  0.80118196  1
  Nb  Nb135  1  0.00518727  0.39950060  0.39637671  1
  Nb  Nb136  1  0.00467431  -0.00153101  0.80114313  1
  Nb  Nb137  1  0.00874407  0.00861065  0.20090849  1
  Nb  Nb138  1  0.19982698  0.60522122  -0.00863703  1
  Nb  Nb139  1  0.60354813  0.00196969  -0.00397379  1
  Nb  Nb140  1  0.80278016  -0.00520066  0.40385292  1
  Nb  Nb141  1  0.59932246  0.80150884  0.40540556  1
  Nb  Nb142  1  0.59581940  0.79976745  0.60389869  1
  Nb  Nb143  1  0.00511740  0.39619558  0.20236084  1
  Nb  Nb144  1  0.39283932  0.19512771  0.39979511  1
  Nb  Nb145  1  0.40285430  0.60345420  0.79496828  1
  Nb  Nb146  1  -0.00289491  0.80020857  0.40252729  1
  Nb  Nb147  1  0.79796135  0.39867465  0.80258718  1
  Nb  Nb148  1  0.59956690  0.40199785  0.39698546  1
  Nb  Nb149  1  0.79467839  0.20364038  0.80238085  1
  Pd  Pd150  1  0.00936331  -0.00598208  0.60997548  1
  Pd  Pd151  1  0.80569667  0.19553112  0.20028844  1
  Pd  Pd152  1  0.40236769  0.39325825  0.40034312  1
  Pd  Pd153  1  0.80285888  0.59656744  0.59996959  1
  Pd  Pd154  1  0.00618481  0.59916546  0.59775194  1
  Pd  Pd155  1  0.59644349  0.79601314  0.20205036  1
  Pd  Pd156  1  0.59294058  0.19079760  0.60801101  1
  Pd  Pd157  1  -0.00998014  0.81001515  0.78733486  1
  Pd  Pd158  1  0.40612274  0.80840611  0.39948686  1
  Pd  Pd159  1  0.00191835  0.60310761  0.40669825  1
  Pd  Pd160  1  0.60853161  0.39027299  0.79358879  1
  Pd  Pd161  1  0.60227382  0.00764117  0.19821790  1
  Pd  Pd162  1  0.80736994  0.18653212  0.41022969  1
  Pd  Pd163  1  0.80017838  0.00724621  0.59558335  1
  Pd  Pd164  1  0.80049830  0.40704389  0.40335131  1
  Pd  Pd165  1  0.40414083  0.00282604  0.39654392  1
  Pd  Pd166  1  0.39113292  0.79807193  0.79843219  1
  Pd  Pd167  1  0.20979583  0.79558890  0.80704737  1
  Pd  Pd168  1  0.39159855  0.00317465  0.20352562  1
  Pd  Pd169  1  0.60425976  0.20159584  0.78703606  1
  Pd  Pd170  1  0.58764094  0.19502357  0.39199778  1
  Pd  Pd171  1  0.20316490  0.19494521  0.00536935  1
  Pd  Pd172  1  0.40209846  0.00336574  -0.00705231  1
  Pd  Pd173  1  0.39625472  0.19995384  0.79757619  1
  Pd  Pd174  1  0.80409009  0.79979731  0.78987189  1
  Pd  Pd175  1  -0.00603505  0.21089835  0.40742018  1
  Pd  Pd176  1  0.01280473  0.59367901  -0.00321880  1
  Pd  Pd177  1  0.79419741  0.79418351  0.61431935  1
  Pd  Pd178  1  0.80991599  0.00798142  0.80440550  1
  Pd  Pd179  1  0.81069929  0.01002412  0.19497992  1
  Pd  Pd180  1  -0.00556467  0.00113135  0.00116093  1
  Pd  Pd181  1  0.18868569  0.00801494  0.79908880  1
  Pd  Pd182  1  0.20071944  0.79641352  -0.00581964  1
  Pd  Pd183  1  0.80112989  0.40535525  0.60755871  1
  Pd  Pd184  1  0.60174538  0.79416379  0.79515239  1
  Pd  Pd185  1  0.19900573  0.79683642  0.20505334  1
  Pd  Pd186  1  0.39549169  0.40460130  0.79965786  1
  Pd  Pd187  1  0.38925087  0.60266581  0.20416303  1
  Pd  Pd188  1  0.60859077  0.60920912  0.19490844  1
  Pd  Pd189  1  0.19172211  -0.00617201  0.59693586  1
  Pd  Pd190  1  0.19594462  0.00400038  0.20584895  1
  Pd  Pd191  1  0.21093593  0.21212569  0.41026708  1
  Pd  Pd192  1  0.79400951  0.60652667  0.00650406  1
  Pd  Pd193  1  0.00594745  0.59370654  0.81038315  1
  Pd  Pd194  1  0.59677734  0.40479289  0.59546512  1
  Pd  Pd195  1  0.59670520  0.19755030  0.20153172  1
  Pd  Pd196  1  0.19733089  0.39374056  0.39954928  1
  Pd  Pd197  1  0.81325402  0.39069833  -0.00822566  1
  Pd  Pd198  1  0.19944103  0.40781086  0.00633362  1
  Pd  Pd199  1  0.39489437  0.59525808  0.60414967  1
  Rh  Rh200  1  0.00418549  0.80827297  0.20443475  1
  Rh  Rh201  1  0.80410968  0.79819936  0.39950440  1
  Rh  Rh202  1  0.39657160  0.81155650  0.00154815  1
  Rh  Rh203  1  0.59027060  0.40354820  0.00700772  1
  Rh  Rh204  1  0.60033093  -0.00812980  0.59640875  1
  Rh  Rh205  1  0.19937646  0.59815339  0.60568235  1
  Rh  Rh206  1  0.19635728  0.19502287  0.59574812  1
  Rh  Rh207  1  0.20219934  -0.00873592  0.40093954  1
  Rh  Rh208  1  0.39811788  -0.00155504  0.80108281  1
  Rh  Rh209  1  0.40188293  0.58601644  -0.01145048  1
  Rh  Rh210  1  0.59628558  -0.00125086  0.80383790  1
  Rh  Rh211  1  0.40148140  0.40626020  0.60276004  1
  Rh  Rh212  1  0.19364311  0.40295463  0.20156424  1
  Rh  Rh213  1  0.39996682  0.59690073  0.39651375  1
  Rh  Rh214  1  0.39409712  0.80121527  0.19915586  1
  Rh  Rh215  1  0.00657483  0.18965393  0.80160764  1
  Rh  Rh216  1  0.00616792  0.80418207  0.59703457  1
  Rh  Rh217  1  0.19585409  0.40046341  0.60253156  1
  Rh  Rh218  1  0.20343172  0.60500767  0.19986441  1
  Rh  Rh219  1  0.19513096  0.00558863  0.00003866  1
  Rh  Rh220  1  0.00790590  0.20938562  0.00153685  1
  Rh  Rh221  1  0.00212435  0.39862192  0.59447595  1
  Rh  Rh222  1  0.59721506  0.60750556  0.80880052  1
  Rh  Rh223  1  0.19722090  0.19867512  0.79780808  1
  Rh  Rh224  1  -0.00421931  -0.01220571  0.38952372  1
  Rh  Rh225  1  0.20479993  0.19111508  0.19957440  1
  Rh  Rh226  1  0.39019809  -0.00352372  0.59984449  1
  Rh  Rh227  1  0.19584318  0.80868673  0.59583350  1
  Rh  Rh228  1  0.40273553  0.80591919  0.59837000  1
  Rh  Rh229  1  0.19146113  0.80443655  0.39843388  1
  Rh  Rh230  1  0.59617696  0.60766296  0.59275694  1
  Rh  Rh231  1  0.39258285  0.19199284  0.19822216  1
  Rh  Rh232  1  0.00657221  0.19831370  0.59495199  1
  Rh  Rh233  1  0.58946820  0.19622325  0.00619743  1
  Rh  Rh234  1  0.80207524  0.19095693  0.60431866  1
  Rh  Rh235  1  0.80010037  0.80521594  0.00109700  1
  Rh  Rh236  1  0.19868536  0.59930477  0.39683044  1
  Rh  Rh237  1  0.39985916  0.40199322  0.19094688  1
  Rh  Rh238  1  -0.00288673  0.19927509  0.20392141  1
  Rh  Rh239  1  0.39611868  0.19590309  0.59529994  1
  Rh  Rh240  1  -0.00170688  0.59784439  0.19626891  1
  Rh  Rh241  1  0.59630529  0.39344225  0.20177343  1
  Rh  Rh242  1  0.80820478  0.39949519  0.19656892  1
  Rh  Rh243  1  0.80289963  0.59374354  0.80494154  1
  Rh  Rh244  1  0.00061680  0.80525532  0.00323894  1
  Rh  Rh245  1  0.80836833  0.78862146  0.18919566  1
  Rh  Rh246  1  0.60320812  0.80149163  -0.00511896  1
  Rh  Rh247  1  0.80176675  0.20107186  -0.00769167  1
  Rh  Rh248  1  0.20388145  0.39769007  0.79629077  1
  Rh  Rh249  1  -0.00797055  0.40530373  0.81309908  1
