# generated using pymatgen
data_ZrScNbPdRh
_symmetry_space_group_name_H-M   'P 1'
_cell_length_a   16.56129942
_cell_length_b   16.55757360
_cell_length_c   16.56608567
_cell_angle_alpha   90.01806555
_cell_angle_beta   89.98911938
_cell_angle_gamma   90.03639337
_symmetry_Int_Tables_number   1
_chemical_formula_structural   ZrScNbPdRh
_chemical_formula_sum   'Zr50 Sc50 Nb50 Pd50 Rh50'
_cell_volume   4542.66686432
_cell_formula_units_Z   50
loop_
 _symmetry_equiv_pos_site_id
 _symmetry_equiv_pos_as_xyz
  1  'x, y, z'
loop_
 _atom_site_type_symbol
 _atom_site_label
 _atom_site_symmetry_multiplicity
 _atom_site_fract_x
 _atom_site_fract_y
 _atom_site_fract_z
 _atom_site_occupancy
  Zr  Zr0  1  0.70177024  0.69877228  0.49957659  1
  Zr  Zr1  1  0.30036362  0.49708310  0.30763365  1
  Zr  Zr2  1  0.71167689  0.89574982  0.69909118  1
  Zr  Zr3  1  0.49845775  0.89788698  0.29936310  1
  Zr  Zr4  1  0.29882787  0.29623194  0.69835409  1
  Zr  Zr5  1  0.50330990  0.29455465  0.89560919  1
  Zr  Zr6  1  0.89875929  0.70176190  0.10213707  1
  Zr  Zr7  1  0.49549278  0.11259087  0.49630957  1
  Zr  Zr8  1  0.29893467  0.71127797  0.89605614  1
  Zr  Zr9  1  0.29439268  0.90305069  0.71075525  1
  Zr  Zr10  1  0.90513182  0.30213475  0.49973738  1
  Zr  Zr11  1  0.89325991  0.49941280  0.30168110  1
  Zr  Zr12  1  0.70048764  0.10284083  0.89683170  1
  Zr  Zr13  1  0.70855603  0.90097529  0.90488898  1
  Zr  Zr14  1  0.69527716  0.49977130  0.30269979  1
  Zr  Zr15  1  0.70099986  0.48924521  0.89511495  1
  Zr  Zr16  1  0.49827602  0.50094941  0.30151302  1
  Zr  Zr17  1  0.10050306  0.91407682  0.09943167  1
  Zr  Zr18  1  0.50132890  0.30220509  0.29491235  1
  Zr  Zr19  1  0.10159670  0.90411610  0.69639163  1
  Zr  Zr20  1  0.49966222  0.70373163  0.90095515  1
  Zr  Zr21  1  0.29266593  0.49693326  0.90400254  1
  Zr  Zr22  1  0.90575899  0.29927271  0.10391640  1
  Zr  Zr23  1  0.90031186  0.50052526  0.10642682  1
  Zr  Zr24  1  0.90477022  0.10161001  0.49464267  1
  Zr  Zr25  1  0.30758229  0.50221128  0.69695023  1
  Zr  Zr26  1  0.69827323  0.71203732  0.10078282  1
  Zr  Zr27  1  0.09033302  0.49879712  0.50275479  1
  Zr  Zr28  1  0.70571779  0.50121153  0.49429506  1
  Zr  Zr29  1  0.29474997  0.88986066  0.51156023  1
  Zr  Zr30  1  0.90315747  0.29572728  0.29979572  1
  Zr  Zr31  1  0.09883325  0.30023282  0.49902479  1
  Zr  Zr32  1  0.70178163  0.29427749  0.70333743  1
  Zr  Zr33  1  0.30424699  0.91180011  0.29530946  1
  Zr  Zr34  1  0.30423690  0.30414319  0.89771272  1
  Zr  Zr35  1  0.70141111  0.70361772  0.90319042  1
  Zr  Zr36  1  0.50220502  0.10107661  0.89830633  1
  Zr  Zr37  1  0.70638974  0.89700400  0.49623912  1
  Zr  Zr38  1  0.09950938  0.28905567  0.10360128  1
  Zr  Zr39  1  0.29648478  0.70333066  0.69440111  1
  Zr  Zr40  1  0.90263327  0.70150890  0.29020511  1
  Zr  Zr41  1  0.10066577  0.30317001  0.29630569  1
  Zr  Zr42  1  0.48672620  0.09819008  0.29540177  1
  Zr  Zr43  1  0.90664679  0.70043254  0.70330157  1
  Zr  Zr44  1  0.09564726  0.09519094  0.90968641  1
  Zr  Zr45  1  0.69990309  0.29680838  0.49687481  1
  Zr  Zr46  1  0.90336281  0.09646815  0.70563538  1
  Zr  Zr47  1  0.49421774  0.68963708  0.70063370  1
  Zr  Zr48  1  0.50468889  0.10321148  0.10071711  1
  Zr  Zr49  1  0.30663746  0.30572933  0.50041607  1
  Sc  Sc50  1  0.51170217  0.89740677  0.09924119  1
  Sc  Sc51  1  0.29601724  0.09816310  0.69116410  1
  Sc  Sc52  1  0.48487853  0.90331199  0.69749923  1
  Sc  Sc53  1  0.10496634  0.49412394  0.29833799  1
  Sc  Sc54  1  0.90193772  0.49080822  0.89313267  1
  Sc  Sc55  1  0.10163100  0.10074466  0.70144249  1
  Sc  Sc56  1  0.70192926  0.49772243  0.11198205  1
  Sc  Sc57  1  0.90237174  0.29855949  0.70698239  1
  Sc  Sc58  1  0.69674545  0.29480798  0.10683241  1
  Sc  Sc59  1  0.29690937  0.09848185  0.88700316  1
  Sc  Sc60  1  0.29712735  0.29962308  0.10272212  1
  Sc  Sc61  1  0.10082781  0.70176987  0.70837834  1
  Sc  Sc62  1  0.70172950  0.11340393  0.49807436  1
  Sc  Sc63  1  0.09821767  0.09929526  0.51209458  1
  Sc  Sc64  1  0.49128347  0.29814221  0.70095157  1
  Sc  Sc65  1  0.90464311  0.90512643  0.30129956  1
  Sc  Sc66  1  0.09655518  0.29638096  0.69458839  1
  Sc  Sc67  1  0.70153466  0.69424304  0.69569904  1
  Sc  Sc68  1  0.48997570  0.10473428  0.70247540  1
  Sc  Sc69  1  0.29021647  0.49852701  0.10096610  1
  Sc  Sc70  1  0.70479932  0.89898178  0.10023963  1
  Sc  Sc71  1  0.50372542  0.49120756  0.11033768  1
  Sc  Sc72  1  0.91007901  0.70776468  0.90197723  1
  Sc  Sc73  1  0.48854892  0.89677729  0.89725396  1
  Sc  Sc74  1  0.70242622  0.30034485  0.30814281  1
  Sc  Sc75  1  0.29751388  0.30476957  0.29505058  1
  Sc  Sc76  1  0.09559494  0.70782800  0.30257943  1
  Sc  Sc77  1  0.10362775  0.50557136  0.09939275  1
  Sc  Sc78  1  0.30200442  0.70232921  0.30726161  1
  Sc  Sc79  1  0.69373765  0.50033353  0.70101474  1
  Sc  Sc80  1  0.29498780  0.09892293  0.12126924  1
  Sc  Sc81  1  0.90506724  0.90145709  0.89365535  1
  Sc  Sc82  1  0.69877284  0.70041337  0.29934583  1
  Sc  Sc83  1  0.70456632  0.10256509  0.29853537  1
  Sc  Sc84  1  0.09335808  0.50368505  0.70870692  1
  Sc  Sc85  1  0.70080368  0.29792847  0.89078277  1
  Sc  Sc86  1  0.28672259  0.69723916  0.09054170  1
  Sc  Sc87  1  0.90374102  0.09755553  0.89686896  1
  Sc  Sc88  1  0.09721449  0.09413338  0.28872283  1
  Sc  Sc89  1  0.48604011  0.50307408  0.49679693  1
  Sc  Sc90  1  0.69897180  0.09261159  0.09695588  1
  Sc  Sc91  1  0.50362161  0.70253178  0.30770158  1
  Sc  Sc92  1  0.10655125  0.29172351  0.90126007  1
  Sc  Sc93  1  0.09831770  0.69781172  0.90014532  1
  Sc  Sc94  1  0.49555640  0.49233794  0.88633292  1
  Sc  Sc95  1  0.70652817  0.89747772  0.29605718  1
  Sc  Sc96  1  0.09034563  0.69831089  0.09992020  1
  Sc  Sc97  1  0.48987022  0.89457979  0.49836809  1
  Sc  Sc98  1  0.89994716  0.09438374  0.29849625  1
  Sc  Sc99  1  0.90958851  0.09562816  0.10340211  1
  Nb  Nb100  1  0.09798883  0.89849623  0.49309501  1
  Nb  Nb101  1  0.29732450  0.90046384  0.09818046  1
  Nb  Nb102  1  0.09643957  0.10610645  0.10055445  1
  Nb  Nb103  1  0.29947293  0.09890960  0.30519584  1
  Nb  Nb104  1  0.89766851  0.89334487  0.10781705  1
  Nb  Nb105  1  0.29670923  0.10295978  0.49717585  1
  Nb  Nb106  1  0.30137757  0.69627758  0.50464421  1
  Nb  Nb107  1  0.50252605  0.70156858  0.09766858  1
  Nb  Nb108  1  0.48525609  0.70555089  0.50050853  1
  Nb  Nb109  1  0.50148881  0.49548948  0.69587009  1
  Nb  Nb110  1  0.90277422  0.90294502  0.49923851  1
  Nb  Nb111  1  0.50084114  0.29433506  0.09774913  1
  Nb  Nb112  1  0.29293296  0.90185940  0.90394509  1
  Nb  Nb113  1  0.90387756  0.89878339  0.69894902  1
  Nb  Nb114  1  0.10408123  0.70855465  0.49966401  1
  Nb  Nb115  1  0.90138807  0.50481519  0.50588294  1
  Nb  Nb116  1  0.89462046  0.30110229  0.90347339  1
  Nb  Nb117  1  0.09846717  0.49865658  0.90399763  1
  Nb  Nb118  1  0.90620319  0.69312142  0.49946954  1
  Nb  Nb119  1  0.29735910  0.50143928  0.49915278  1
  Nb  Nb120  1  0.90487368  0.49932926  0.69637911  1
  Nb  Nb121  1  0.70427380  0.09739371  0.70018354  1
  Nb  Nb122  1  0.50120666  0.29995655  0.50067495  1
  Nb  Nb123  1  0.11058584  0.90355571  0.89492129  1
  Nb  Nb124  1  0.10026006  0.90153423  0.30368230  1
  Nb  Nb125  1  0.20347603  0.19319745  0.39922252  1
  Nb  Nb126  1  0.39650414  0.79706202  0.19136621  1
  Nb  Nb127  1  0.80223879  0.40504198  0.59775397  1
  Nb  Nb128  1  0.59731072  0.00229877  0.40503487  1
  Nb  Nb129  1  0.60477405  -0.00040509  0.59946037  1
  Nb  Nb130  1  0.80351446  -0.00054315  0.59954647  1
  Nb  Nb131  1  0.79678944  0.59793057  -0.00244244  1
  Nb  Nb132  1  0.00072638  0.39662767  -0.00156698  1
  Nb  Nb133  1  0.60424832  -0.00421313  0.79213334  1
  Nb  Nb134  1  0.59601311  0.80036203  0.60064218  1
  Nb  Nb135  1  0.60014980  0.80418520  0.79310425  1
  Nb  Nb136  1  0.39254503  -0.00013479  0.00378946  1
  Nb  Nb137  1  0.19911522  0.60342094  0.41255654  1
  Nb  Nb138  1  0.19956102  0.00059879  0.40248174  1
  Nb  Nb139  1  0.80494869  0.20323865  -0.00116598  1
  Nb  Nb140  1  0.20121820  0.80973448  0.19883763  1
  Nb  Nb141  1  0.40183243  0.19548904  0.00389779  1
  Nb  Nb142  1  0.20195930  0.40633705  0.59718052  1
  Nb  Nb143  1  0.59764376  0.39796367  0.59588386  1
  Nb  Nb144  1  -0.00174737  0.80285191  0.59042057  1
  Nb  Nb145  1  0.40577299  0.60004238  0.00383617  1
  Nb  Nb146  1  0.80516433  0.59676509  0.80216754  1
  Nb  Nb147  1  0.59881362  0.59447568  0.00080236  1
  Nb  Nb148  1  0.59833419  0.39839155  0.00077979  1
  Nb  Nb149  1  0.40053877  0.60687454  0.19410856  1
  Pd  Pd150  1  0.00896236  0.59446361  0.20775580  1
  Pd  Pd151  1  0.80974856  0.79404344  0.39470760  1
  Pd  Pd152  1  0.80751330  0.79814286  0.59509959  1
  Pd  Pd153  1  -0.00940887  0.80000527  0.40114940  1
  Pd  Pd154  1  0.60463915  0.19789817  0.20620210  1
  Pd  Pd155  1  0.59669520  0.60499508  0.19691142  1
  Pd  Pd156  1  0.79760619  0.39768227  0.00646371  1
  Pd  Pd157  1  0.60548801  0.60326185  0.80516229  1
  Pd  Pd158  1  -0.00726414  -0.00652805  -0.00052233  1
  Pd  Pd159  1  0.81097980  0.00591969  0.00434916  1
  Pd  Pd160  1  0.80235185  0.59536083  0.60800399  1
  Pd  Pd161  1  0.21391783  0.19036049  0.00327733  1
  Pd  Pd162  1  0.39391812  0.40382445  0.19452250  1
  Pd  Pd163  1  0.00635368  0.39348979  0.80538355  1
  Pd  Pd164  1  0.00935237  0.60975749  0.60286502  1
  Pd  Pd165  1  0.19054424  0.59687284  0.59937049  1
  Pd  Pd166  1  0.39828590  0.80239511  0.00685556  1
  Pd  Pd167  1  0.59357081  -0.00925058  -0.00994964  1
  Pd  Pd168  1  0.18655882  0.79774832  0.00463001  1
  Pd  Pd169  1  0.00476791  0.80993940  0.00037715  1
  Pd  Pd170  1  0.20066073  0.59882395  0.80511927  1
  Pd  Pd171  1  0.20941985  0.01355111  0.00360327  1
  Pd  Pd172  1  0.19414841  0.40024514  0.79108292  1
  Pd  Pd173  1  0.59862114  0.80393532  0.40541274  1
  Pd  Pd174  1  0.59430410  0.19998528  0.60795078  1
  Pd  Pd175  1  0.79381541  0.00658523  0.40294598  1
  Pd  Pd176  1  0.20297318  0.61065618  0.21194388  1
  Pd  Pd177  1  0.39381498  0.21098935  0.39219561  1
  Pd  Pd178  1  0.40769281  0.40120102  0.00640723  1
  Pd  Pd179  1  0.39782354  -0.00377235  0.41142429  1
  Pd  Pd180  1  0.80268209  0.79213244  0.80290090  1
  Pd  Pd181  1  0.80409440  0.60783122  0.39432909  1
  Pd  Pd182  1  0.59248727  0.60280094  0.40863236  1
  Pd  Pd183  1  0.00224217  0.20174089  0.80615660  1
  Pd  Pd184  1  0.18911405  0.39516760  0.00513440  1
  Pd  Pd185  1  0.59258098  0.40081144  0.40600446  1
  Pd  Pd186  1  -0.00180710  -0.00238053  0.59964891  1
  Pd  Pd187  1  0.59104757  0.59778334  0.58984892  1
  Pd  Pd188  1  0.19719635  0.19576258  0.79752151  1
  Pd  Pd189  1  0.79497689  0.39317022  0.20510206  1
  Pd  Pd190  1  0.20663129  0.80246557  0.39396214  1
  Pd  Pd191  1  0.80150325  0.19381673  0.19369451  1
  Pd  Pd192  1  0.01205311  0.18956735  0.39313208  1
  Pd  Pd193  1  0.81028693  0.20037886  0.60199589  1
  Pd  Pd194  1  -0.00411840  0.40560200  0.39545788  1
  Pd  Pd195  1  0.00706109  0.59944900  0.39266777  1
  Pd  Pd196  1  0.40129538  0.00584220  0.59494244  1
  Pd  Pd197  1  -0.00829372  0.59111890  -0.00660748  1
  Pd  Pd198  1  0.60497034  -0.00127534  0.20897257  1
  Pd  Pd199  1  0.39348346  0.59730950  0.80772282  1
  Rh  Rh200  1  0.20149142  0.20852958  0.59248556  1
  Rh  Rh201  1  0.79289312  0.60567295  0.19696069  1
  Rh  Rh202  1  0.40767842  -0.00847054  0.18668625  1
  Rh  Rh203  1  -0.00657167  0.20470460  -0.00367436  1
  Rh  Rh204  1  0.00536480  0.40569029  0.19318833  1
  Rh  Rh205  1  0.39826570  0.39951864  0.79548966  1
  Rh  Rh206  1  0.19982360  0.40026013  0.40883912  1
  Rh  Rh207  1  0.40189673  0.40183054  0.59996588  1
  Rh  Rh208  1  0.39652276  0.19880180  0.59996300  1
  Rh  Rh209  1  0.59355730  0.39288867  0.79233365  1
  Rh  Rh210  1  0.60603944  0.21015724  -0.00037679  1
  Rh  Rh211  1  -0.00322662  0.19900237  0.60499183  1
  Rh  Rh212  1  0.80438096  0.40515678  0.78467751  1
  Rh  Rh213  1  0.59921734  0.80444836  -0.00836772  1
  Rh  Rh214  1  0.39665763  0.20543486  0.19750299  1
  Rh  Rh215  1  -0.00157439  0.39847369  0.60489444  1
  Rh  Rh216  1  0.00727059  -0.00417531  0.80286190  1
  Rh  Rh217  1  0.00842391  0.80896508  0.79593295  1
  Rh  Rh218  1  0.19989512  -0.00256558  0.59314109  1
  Rh  Rh219  1  0.19607974  0.80064156  0.80135299  1
  Rh  Rh220  1  0.19166383  0.80003853  0.60442347  1
  Rh  Rh221  1  0.19581617  0.00554683  0.79942271  1
  Rh  Rh222  1  0.60386459  0.39321728  0.19880041  1
  Rh  Rh223  1  -0.00105939  0.19428568  0.20561680  1
  Rh  Rh224  1  0.20225287  0.60308997  -0.00887016  1
  Rh  Rh225  1  0.40371445  0.39635921  0.39831090  1
  Rh  Rh226  1  -0.00153948  -0.00381751  0.19885654  1
  Rh  Rh227  1  0.40128205  0.79662594  0.60796333  1
  Rh  Rh228  1  0.80826597  0.39974532  0.40535508  1
  Rh  Rh229  1  -0.00552876  0.59737628  0.80585312  1
  Rh  Rh230  1  0.39321546  0.79883907  0.39511713  1
  Rh  Rh231  1  0.40204754  0.59938746  0.59739032  1
  Rh  Rh232  1  0.19436967  -0.00181965  0.20411611  1
  Rh  Rh233  1  0.00850801  0.00245375  0.39984149  1
  Rh  Rh234  1  0.40010549  -0.00125857  0.80807843  1
  Rh  Rh235  1  0.80602759  0.19982609  0.39557302  1
  Rh  Rh236  1  0.81135498  0.80002293  0.00151049  1
  Rh  Rh237  1  0.19899893  0.19981208  0.20932060  1
  Rh  Rh238  1  0.39862245  0.80294461  0.79508206  1
  Rh  Rh239  1  0.59637966  0.80044641  0.20476791  1
  Rh  Rh240  1  0.39308554  0.19973537  0.80322110  1
  Rh  Rh241  1  0.39365543  0.60475040  0.39598518  1
  Rh  Rh242  1  0.80054253  0.00183287  0.79629883  1
  Rh  Rh243  1  0.00886828  0.81065664  0.19611290  1
  Rh  Rh244  1  0.80505674  0.19572288  0.80647254  1
  Rh  Rh245  1  0.59932328  0.19242361  0.79034677  1
  Rh  Rh246  1  0.80420357  -0.00232359  0.19529686  1
  Rh  Rh247  1  0.80121637  0.80263584  0.20501439  1
  Rh  Rh248  1  0.19862506  0.39895873  0.19367735  1
  Rh  Rh249  1  0.59374612  0.19455366  0.38991600  1
