# generated using pymatgen
data_ZrScNbPdRh
_symmetry_space_group_name_H-M   'P 1'
_cell_length_a   16.56018170
_cell_length_b   16.55919287
_cell_length_c   16.55888673
_cell_angle_alpha   90.03494732
_cell_angle_beta   90.00450824
_cell_angle_gamma   89.99358992
_symmetry_Int_Tables_number   1
_chemical_formula_structural   ZrScNbPdRh
_chemical_formula_sum   'Zr50 Sc50 Nb50 Pd50 Rh50'
_cell_volume   4540.83072837
_cell_formula_units_Z   50
loop_
 _symmetry_equiv_pos_site_id
 _symmetry_equiv_pos_as_xyz
  1  'x, y, z'
loop_
 _atom_site_type_symbol
 _atom_site_label
 _atom_site_symmetry_multiplicity
 _atom_site_fract_x
 _atom_site_fract_y
 _atom_site_fract_z
 _atom_site_occupancy
  Zr  Zr0  1  0.30067364  0.69584406  0.48686386  1
  Zr  Zr1  1  0.90282159  0.69579920  0.91012465  1
  Zr  Zr2  1  0.69898363  0.30888227  0.89678131  1
  Zr  Zr3  1  0.50214613  0.30536155  0.69222023  1
  Zr  Zr4  1  0.49754539  0.69741935  0.50669550  1
  Zr  Zr5  1  0.28933810  0.90202442  0.49814806  1
  Zr  Zr6  1  0.88661002  0.70599560  0.70725777  1
  Zr  Zr7  1  0.90145222  0.09800267  0.49964768  1
  Zr  Zr8  1  0.08915889  0.51234005  0.90214957  1
  Zr  Zr9  1  0.29838344  0.30665945  0.50300339  1
  Zr  Zr10  1  0.69828714  0.09691461  0.09842947  1
  Zr  Zr11  1  0.50263469  0.50220976  0.49907095  1
  Zr  Zr12  1  0.10712705  0.30662413  0.09595081  1
  Zr  Zr13  1  0.50451197  0.89194560  0.29444378  1
  Zr  Zr14  1  0.29544982  0.89401568  0.30379428  1
  Zr  Zr15  1  0.49666837  0.49510892  0.09459163  1
  Zr  Zr16  1  0.49404607  0.09316710  0.10579047  1
  Zr  Zr17  1  0.50072475  0.69735026  0.70128402  1
  Zr  Zr18  1  0.69267611  0.30420232  0.09204988  1
  Zr  Zr19  1  0.70143018  0.89597053  0.11189213  1
  Zr  Zr20  1  0.29466331  0.48832657  0.09306444  1
  Zr  Zr21  1  0.10581403  0.90373765  0.89911644  1
  Zr  Zr22  1  0.71290721  0.88254971  0.69044396  1
  Zr  Zr23  1  0.09862245  0.90037444  0.49655653  1
  Zr  Zr24  1  0.09988023  0.09641788  0.50056512  1
  Zr  Zr25  1  0.90480629  0.49781272  0.29899825  1
  Zr  Zr26  1  0.90068486  0.89434206  0.10189299  1
  Zr  Zr27  1  0.10314807  0.69412760  0.50303821  1
  Zr  Zr28  1  0.10298612  0.70551482  0.90410941  1
  Zr  Zr29  1  0.69964463  0.10199768  0.90095627  1
  Zr  Zr30  1  0.49875875  0.50281903  0.89358149  1
  Zr  Zr31  1  0.30273924  0.30160864  0.69772458  1
  Zr  Zr32  1  0.89893945  0.09605587  0.10480261  1
  Zr  Zr33  1  0.29891232  0.90016544  0.89760063  1
  Zr  Zr34  1  0.29351503  0.10149060  0.69885468  1
  Zr  Zr35  1  0.50045882  0.10412451  0.68321666  1
  Zr  Zr36  1  0.70055142  0.49980960  0.30294650  1
  Zr  Zr37  1  0.30594333  0.50426111  0.90249324  1
  Zr  Zr38  1  0.90151990  0.29913556  0.09572472  1
  Zr  Zr39  1  0.69716283  0.49108964  0.70472992  1
  Zr  Zr40  1  0.89484174  0.90384224  0.50510160  1
  Zr  Zr41  1  0.89959136  0.30465575  0.50608431  1
  Zr  Zr42  1  0.29626427  0.30333161  0.90399368  1
  Zr  Zr43  1  0.48212689  0.69860408  0.30975872  1
  Zr  Zr44  1  0.69629489  0.49623553  0.90336442  1
  Zr  Zr45  1  0.90519233  0.30159421  0.89794326  1
  Zr  Zr46  1  0.29992491  0.70454793  0.89535741  1
  Zr  Zr47  1  0.50644716  0.89865112  0.49798536  1
  Zr  Zr48  1  0.70147724  0.09489395  0.29638487  1
  Zr  Zr49  1  0.90823252  0.10343036  0.29546170  1
  Sc  Sc50  1  0.70049560  0.10110471  0.68623909  1
  Sc  Sc51  1  0.89662724  0.50034709  0.90000207  1
  Sc  Sc52  1  0.70420178  0.69938188  0.09710345  1
  Sc  Sc53  1  0.89884589  0.30628179  0.69588021  1
  Sc  Sc54  1  0.70889643  0.89700068  0.90877171  1
  Sc  Sc55  1  0.70205926  0.30891755  0.29661884  1
  Sc  Sc56  1  0.08950297  0.70654315  0.29886827  1
  Sc  Sc57  1  0.91034360  0.69815539  0.49416253  1
  Sc  Sc58  1  0.50175089  0.50436273  0.70262743  1
  Sc  Sc59  1  0.69920272  0.08521438  0.49948652  1
  Sc  Sc60  1  0.69768543  0.50304753  0.09351792  1
  Sc  Sc61  1  0.09700151  0.09678652  0.09669886  1
  Sc  Sc62  1  0.90464158  0.88844741  0.30167348  1
  Sc  Sc63  1  0.49632441  0.90772982  0.90161485  1
  Sc  Sc64  1  0.89960957  0.89583151  0.90583335  1
  Sc  Sc65  1  0.30583155  0.49292930  0.69535460  1
  Sc  Sc66  1  0.09519825  0.70479795  0.09274863  1
  Sc  Sc67  1  0.10111432  0.90720176  0.29802289  1
  Sc  Sc68  1  0.29287190  0.90589898  0.10183313  1
  Sc  Sc69  1  0.50216285  0.50722875  0.29990234  1
  Sc  Sc70  1  0.28782532  0.10274507  0.90361961  1
  Sc  Sc71  1  0.70183633  0.50011710  0.50476852  1
  Sc  Sc72  1  0.50021626  0.69707801  0.11755141  1
  Sc  Sc73  1  0.50480277  0.09831538  0.91480270  1
  Sc  Sc74  1  0.30038780  0.49886390  0.30999471  1
  Sc  Sc75  1  0.70896382  0.69124790  0.90103825  1
  Sc  Sc76  1  0.30746946  0.70761388  0.70284359  1
  Sc  Sc77  1  0.69913229  0.70146044  0.50776534  1
  Sc  Sc78  1  0.90262632  0.30031832  0.29259266  1
  Sc  Sc79  1  0.29734152  0.31023174  0.30242393  1
  Sc  Sc80  1  0.29916040  0.09548889  0.29377392  1
  Sc  Sc81  1  0.69816675  0.68973563  0.69769729  1
  Sc  Sc82  1  0.09828775  0.90056801  0.10264383  1
  Sc  Sc83  1  0.09963541  0.69283707  0.70074563  1
  Sc  Sc84  1  0.29424551  0.10166194  0.50638490  1
  Sc  Sc85  1  0.09609286  0.29716597  0.69915871  1
  Sc  Sc86  1  0.91649590  0.10453467  0.89807198  1
  Sc  Sc87  1  0.29969817  0.09701021  0.10363547  1
  Sc  Sc88  1  0.90864164  0.09553203  0.68866193  1
  Sc  Sc89  1  0.10313806  0.49308514  0.29719732  1
  Sc  Sc90  1  0.69917984  0.30861660  0.50980203  1
  Sc  Sc91  1  0.49406646  0.31000655  0.29636279  1
  Sc  Sc92  1  0.29522626  0.69977306  0.09540479  1
  Sc  Sc93  1  0.91107533  0.49710679  0.09300925  1
  Sc  Sc94  1  0.10874141  0.29630931  0.50207851  1
  Sc  Sc95  1  0.49418595  0.89368223  0.69261230  1
  Sc  Sc96  1  0.29470998  0.90014809  0.70233473  1
  Sc  Sc97  1  0.10606480  0.90981817  0.70198469  1
  Sc  Sc98  1  0.90713285  0.49856316  0.69970970  1
  Sc  Sc99  1  0.69387720  0.70938117  0.29527012  1
  Nb  Nb100  1  0.49613166  0.10309409  0.30015890  1
  Nb  Nb101  1  0.10251012  0.50025883  0.51267208  1
  Nb  Nb102  1  0.69953296  0.30225775  0.70207072  1
  Nb  Nb103  1  0.10165699  0.11168429  0.89075617  1
  Nb  Nb104  1  0.70328534  0.89424674  0.49101473  1
  Nb  Nb105  1  0.90001634  0.89822344  0.69933513  1
  Nb  Nb106  1  0.10246034  0.29714299  0.30349652  1
  Nb  Nb107  1  0.69856685  0.89596765  0.31206068  1
  Nb  Nb108  1  0.90263864  0.69739801  0.29552092  1
  Nb  Nb109  1  0.28359199  0.49819393  0.49841011  1
  Nb  Nb110  1  0.49286217  0.29677587  0.10027694  1
  Nb  Nb111  1  0.10258787  0.10224168  0.71113703  1
  Nb  Nb112  1  0.50151061  0.10212715  0.49980498  1
  Nb  Nb113  1  0.30174806  0.29896043  0.10196171  1
  Nb  Nb114  1  0.30012117  0.69643421  0.29833425  1
  Nb  Nb115  1  0.10188691  0.49966936  0.69991198  1
  Nb  Nb116  1  0.10771030  0.50498228  0.09987478  1
  Nb  Nb117  1  0.89932325  0.70694210  0.10647534  1
  Nb  Nb118  1  0.50071250  0.28977751  0.50425045  1
  Nb  Nb119  1  0.09915017  0.27699105  0.89851495  1
  Nb  Nb120  1  0.49806374  0.89984229  0.09520534  1
  Nb  Nb121  1  0.50242300  0.30055361  0.90281968  1
  Nb  Nb122  1  0.49394820  0.70122721  0.88990116  1
  Nb  Nb123  1  0.09987341  0.10607879  0.30102206  1
  Nb  Nb124  1  0.90755167  0.49692487  0.49873674  1
  Nb  Nb125  1  0.79973339  0.00179596  0.79495813  1
  Nb  Nb126  1  0.59908942  0.19938848  0.79709129  1
  Nb  Nb127  1  0.80048731  0.20173079  -0.00393852  1
  Nb  Nb128  1  -0.00226583  0.80160054  0.79683988  1
  Nb  Nb129  1  0.19711367  0.20600715  0.20273676  1
  Nb  Nb130  1  0.40485427  0.01128926  0.79763019  1
  Nb  Nb131  1  0.40602834  0.00356762  0.40142179  1
  Nb  Nb132  1  0.59182771  0.19908463  0.20110143  1
  Nb  Nb133  1  0.79722584  0.19936586  0.40003703  1
  Nb  Nb134  1  0.59983285  0.80092575  0.80608190  1
  Nb  Nb135  1  0.19196653  0.40333903  0.80276352  1
  Nb  Nb136  1  0.39925867  0.20510697  0.00311653  1
  Nb  Nb137  1  0.40631503  0.80178833  0.00065278  1
  Nb  Nb138  1  0.80691819  0.59889535  0.39353221  1
  Nb  Nb139  1  -0.00210029  0.80422116  0.60618614  1
  Nb  Nb140  1  0.59747468  0.19864936  0.39816349  1
  Nb  Nb141  1  0.19916615  0.59847084  0.19842594  1
  Nb  Nb142  1  0.60391772  -0.00146269  0.79462537  1
  Nb  Nb143  1  0.59084761  0.79742285  -0.00146082  1
  Nb  Nb144  1  0.20001613  0.59259360  0.80024606  1
  Nb  Nb145  1  0.80861142  0.60302742  0.20377599  1
  Nb  Nb146  1  0.40654748  0.19690618  0.40189358  1
  Nb  Nb147  1  0.40670791  0.19981421  0.80535603  1
  Nb  Nb148  1  0.79679310  0.19885668  0.79806735  1
  Nb  Nb149  1  0.00459472  0.40083499  0.40659956  1
  Pd  Pd150  1  0.79949932  0.59001441  0.80140796  1
  Pd  Pd151  1  0.59603136  0.39273479  0.40446504  1
  Pd  Pd152  1  0.59787815  0.78823843  0.40387956  1
  Pd  Pd153  1  0.39191603  0.59503207  0.59881345  1
  Pd  Pd154  1  0.80027444  0.41014369  0.18788614  1
  Pd  Pd155  1  0.00674226  0.39712013  0.20280504  1
  Pd  Pd156  1  0.39241999  0.80277170  0.59227667  1
  Pd  Pd157  1  0.80589344  -0.01260925  0.21226866  1
  Pd  Pd158  1  0.60879581  0.60799233  0.40154669  1
  Pd  Pd159  1  0.79570136  0.20009724  0.59619125  1
  Pd  Pd160  1  0.18788242  0.40148958  -0.01392503  1
  Pd  Pd161  1  0.39631056  0.40742850  0.20385163  1
  Pd  Pd162  1  0.00320136  0.00081897  -0.00341224  1
  Pd  Pd163  1  0.80948591  0.00704311  -0.00804690  1
  Pd  Pd164  1  0.79014423  0.20646197  0.19901459  1
  Pd  Pd165  1  0.00668936  0.39627886  0.80188664  1
  Pd  Pd166  1  0.60399771  -0.01137739  -0.00218725  1
  Pd  Pd167  1  0.00883091  0.39805007  -0.00678231  1
  Pd  Pd168  1  0.18888873  0.59862043  0.38840011  1
  Pd  Pd169  1  0.21266489  0.60320363  0.61075275  1
  Pd  Pd170  1  0.80779559  0.59650911  0.59197164  1
  Pd  Pd171  1  0.21256866  0.19579786  0.39421237  1
  Pd  Pd172  1  0.19428526  0.79613687  0.60682672  1
  Pd  Pd173  1  0.80326228  0.78886787  0.40120755  1
  Pd  Pd174  1  -0.00791958  0.60630281  0.60784743  1
  Pd  Pd175  1  0.00623359  0.59258439  0.39889308  1
  Pd  Pd176  1  0.80787035  0.00272878  0.39191585  1
  Pd  Pd177  1  -0.00251295  -0.00361469  0.39393559  1
  Pd  Pd178  1  0.19642911  0.79167249  0.19906480  1
  Pd  Pd179  1  0.59691155  0.39884558  0.19716787  1
  Pd  Pd180  1  0.80591583  0.39815949  0.40239328  1
  Pd  Pd181  1  0.39295658  -0.00438147  0.59683072  1
  Pd  Pd182  1  0.00528803  0.20001028  0.60162537  1
  Pd  Pd183  1  0.40334701  0.40743053  0.59090522  1
  Pd  Pd184  1  0.19656149  0.00512702  0.00066277  1
  Pd  Pd185  1  -0.00464935  -0.00439504  0.80042708  1
  Pd  Pd186  1  0.39625353  -0.01053332  0.20650958  1
  Pd  Pd187  1  0.38692498  0.58985306  0.19704882  1
  Pd  Pd188  1  -0.00580572  0.20947754  0.40406304  1
  Pd  Pd189  1  0.39140240  0.80366313  0.19120928  1
  Pd  Pd190  1  0.60823124  -0.01370895  0.60380750  1
  Pd  Pd191  1  0.60855049  0.60127059  0.20062190  1
  Pd  Pd192  1  0.00480383  0.60125658  0.19221508  1
  Pd  Pd193  1  0.59878187  -0.00169153  0.20392283  1
  Pd  Pd194  1  0.40460214  0.39992250  0.40655513  1
  Pd  Pd195  1  0.59469464  0.00272220  0.39660621  1
  Pd  Pd196  1  0.59173280  0.61033765  -0.00164201  1
  Pd  Pd197  1  0.40628558  0.61142303  0.00605431  1
  Pd  Pd198  1  0.19201505  0.79342585  0.39350765  1
  Pd  Pd199  1  0.01058735  0.20282025  0.19231000  1
  Rh  Rh200  1  0.59996958  0.59534828  0.60142300  1
  Rh  Rh201  1  0.40798246  0.81398461  0.80460860  1
  Rh  Rh202  1  0.79475329  -0.00362421  0.60290279  1
  Rh  Rh203  1  0.00686301  0.39926559  0.59551117  1
  Rh  Rh204  1  0.59988565  0.79997974  0.19581587  1
  Rh  Rh205  1  0.20648156  0.20849543  0.79236346  1
  Rh  Rh206  1  0.20687131  0.80604989  0.00419210  1
  Rh  Rh207  1  0.61055343  0.20422360  0.59521642  1
  Rh  Rh208  1  0.18901089  0.40410112  0.40535219  1
  Rh  Rh209  1  0.79495354  0.79454659  0.00326351  1
  Rh  Rh210  1  0.79827810  0.79816091  0.20597565  1
  Rh  Rh211  1  0.00005658  0.80423851  -0.00230460  1
  Rh  Rh212  1  0.20149773  0.40028890  0.20280448  1
  Rh  Rh213  1  0.00293069  0.80330475  0.19797719  1
  Rh  Rh214  1  0.40577009  0.39379241  -0.00333975  1
  Rh  Rh215  1  0.19470876  0.19954714  0.60438576  1
  Rh  Rh216  1  0.60481903  0.60616853  0.80274121  1
  Rh  Rh217  1  0.80040999  0.80552849  0.81126372  1
  Rh  Rh218  1  0.80834933  0.59715526  0.01189080  1
  Rh  Rh219  1  0.19462830  0.39816417  0.60788610  1
  Rh  Rh220  1  0.20571756  0.00487132  0.80233241  1
  Rh  Rh221  1  0.80266899  0.39826537  0.00120218  1
  Rh  Rh222  1  0.19020901  0.79194769  0.79348498  1
  Rh  Rh223  1  0.59768293  0.40338906  0.59819762  1
  Rh  Rh224  1  0.80912844  0.79185182  0.58630117  1
  Rh  Rh225  1  0.59121674  0.40250982  -0.00031120  1
  Rh  Rh226  1  0.60011138  0.79964063  0.60252963  1
  Rh  Rh227  1  0.00123565  -0.00158344  0.20306334  1
  Rh  Rh228  1  0.39608093  0.20544503  0.20078967  1
  Rh  Rh229  1  0.00107173  0.60857790  0.79706423  1
  Rh  Rh230  1  0.00965099  -0.00374332  0.60351583  1
  Rh  Rh231  1  0.39171619  0.20135804  0.59570749  1
  Rh  Rh232  1  0.20420576  0.19588952  0.01290285  1
  Rh  Rh233  1  0.39596008  0.58981966  0.40479209  1
  Rh  Rh234  1  0.20510941  0.00794134  0.39551117  1
  Rh  Rh235  1  0.00262934  0.80307027  0.40730916  1
  Rh  Rh236  1  0.19397780  0.00332043  0.60220585  1
  Rh  Rh237  1  0.39704875  0.80773305  0.40518488  1
  Rh  Rh238  1  -0.01019980  0.20044843  0.78723451  1
  Rh  Rh239  1  0.59530849  0.20383573  0.00640327  1
  Rh  Rh240  1  0.59155076  0.39630035  0.79898490  1
  Rh  Rh241  1  0.39193081  0.00185691  -0.00451525  1
  Rh  Rh242  1  0.19259117  0.01011943  0.20410234  1
  Rh  Rh243  1  0.80573287  0.39914275  0.79684706  1
  Rh  Rh244  1  0.19979653  0.60081430  0.00066824  1
  Rh  Rh245  1  -0.00358601  0.60370184  0.00825369  1
  Rh  Rh246  1  0.39947449  0.39591228  0.80237949  1
  Rh  Rh247  1  0.39146917  0.59646171  0.79225764  1
  Rh  Rh248  1  -0.00197788  0.19687591  0.00719472  1
  Rh  Rh249  1  0.80072325  0.40910543  0.60613816  1
