# generated using pymatgen
data_ZrScNbPdRh
_symmetry_space_group_name_H-M   'P 1'
_cell_length_a   16.56311572
_cell_length_b   16.56695993
_cell_length_c   16.55646247
_cell_angle_alpha   90.04227228
_cell_angle_beta   90.02632587
_cell_angle_gamma   89.96740883
_symmetry_Int_Tables_number   1
_chemical_formula_structural   ZrScNbPdRh
_chemical_formula_sum   'Zr50 Sc50 Nb50 Pd50 Rh50'
_cell_volume   4543.09870849
_cell_formula_units_Z   50
loop_
 _symmetry_equiv_pos_site_id
 _symmetry_equiv_pos_as_xyz
  1  'x, y, z'
loop_
 _atom_site_type_symbol
 _atom_site_label
 _atom_site_symmetry_multiplicity
 _atom_site_fract_x
 _atom_site_fract_y
 _atom_site_fract_z
 _atom_site_occupancy
  Zr  Zr0  1  0.70111084  0.10919569  0.49901824  1
  Zr  Zr1  1  0.89872810  0.90257508  0.30270837  1
  Zr  Zr2  1  0.09997753  0.29736426  0.10962972  1
  Zr  Zr3  1  0.31198500  0.09588036  0.49941406  1
  Zr  Zr4  1  0.29448795  0.89507481  0.89809839  1
  Zr  Zr5  1  0.30181275  0.69877317  0.90912109  1
  Zr  Zr6  1  0.30328564  0.10497334  0.10090289  1
  Zr  Zr7  1  0.70343542  0.50034910  0.69976845  1
  Zr  Zr8  1  0.09527556  0.90028829  0.71287838  1
  Zr  Zr9  1  0.89876415  0.90167901  0.69249873  1
  Zr  Zr10  1  0.89971416  0.09168272  0.50570346  1
  Zr  Zr11  1  0.50329636  0.10279287  0.10425352  1
  Zr  Zr12  1  0.29717569  0.69819961  0.70036622  1
  Zr  Zr13  1  0.69556491  0.29753055  0.10392530  1
  Zr  Zr14  1  0.28972094  0.70184235  0.49875232  1
  Zr  Zr15  1  0.70771259  0.89941889  0.90037192  1
  Zr  Zr16  1  0.09753374  0.70518913  0.70055123  1
  Zr  Zr17  1  0.50077632  0.10288819  0.31146087  1
  Zr  Zr18  1  0.50912454  0.50194119  0.69959092  1
  Zr  Zr19  1  0.70156788  0.09882397  0.09646648  1
  Zr  Zr20  1  0.31334897  0.89463190  0.10441374  1
  Zr  Zr21  1  0.10039261  0.28459061  0.89470561  1
  Zr  Zr22  1  0.09638163  0.70792161  0.89848301  1
  Zr  Zr23  1  0.89517873  0.30152757  0.30471489  1
  Zr  Zr24  1  0.49588845  0.11440755  0.49808902  1
  Zr  Zr25  1  0.69719756  0.90279788  0.09373252  1
  Zr  Zr26  1  0.70631212  0.70437728  0.09528333  1
  Zr  Zr27  1  0.51004365  0.89567546  0.89796883  1
  Zr  Zr28  1  0.70243318  0.90069589  0.29548847  1
  Zr  Zr29  1  0.69860363  0.49458453  0.89669727  1
  Zr  Zr30  1  0.30156429  0.70155353  0.30221609  1
  Zr  Zr31  1  0.50478835  0.09742744  0.69660674  1
  Zr  Zr32  1  0.31373485  0.30486197  0.50871339  1
  Zr  Zr33  1  0.70216078  0.30308007  0.30290651  1
  Zr  Zr34  1  0.09657011  0.29253960  0.30087561  1
  Zr  Zr35  1  0.70015162  0.89667570  0.70827683  1
  Zr  Zr36  1  0.90012581  0.50418756  0.89366060  1
  Zr  Zr37  1  0.29795050  0.29956109  0.10755551  1
  Zr  Zr38  1  0.70519585  0.49277317  0.10733951  1
  Zr  Zr39  1  0.28774879  0.89688050  0.69005213  1
  Zr  Zr40  1  0.70283770  0.69634717  0.30558630  1
  Zr  Zr41  1  0.10521376  0.30399358  0.70170371  1
  Zr  Zr42  1  0.69906189  0.69562628  0.69699792  1
  Zr  Zr43  1  0.70597233  0.30736332  0.69419348  1
  Zr  Zr44  1  0.89355643  0.70789858  0.50160738  1
  Zr  Zr45  1  0.49524063  0.48605502  0.49497585  1
  Zr  Zr46  1  0.49668553  0.89935328  0.28535277  1
  Zr  Zr47  1  0.09493399  0.29724178  0.49827083  1
  Zr  Zr48  1  0.09270179  0.49653976  0.30294784  1
  Zr  Zr49  1  0.50406213  0.48785228  0.09776054  1
  Sc  Sc50  1  0.90088838  0.09724677  0.30107887  1
  Sc  Sc51  1  0.69944555  0.29491713  0.89532577  1
  Sc  Sc52  1  0.70491710  0.09822870  0.89688643  1
  Sc  Sc53  1  0.50111048  0.49911982  0.89440533  1
  Sc  Sc54  1  0.10385924  0.90317001  0.50668363  1
  Sc  Sc55  1  0.29904476  0.49771203  0.29706122  1
  Sc  Sc56  1  0.89727666  0.10452350  0.89631346  1
  Sc  Sc57  1  0.70894678  0.70409133  0.89396363  1
  Sc  Sc58  1  0.71434023  0.90087540  0.49987807  1
  Sc  Sc59  1  0.09721889  0.10279256  0.30408034  1
  Sc  Sc60  1  0.90409580  0.69480544  0.09375123  1
  Sc  Sc61  1  0.51167108  0.90286982  0.70088238  1
  Sc  Sc62  1  0.49791553  0.92393815  0.49567200  1
  Sc  Sc63  1  0.29348788  0.50250051  0.10261561  1
  Sc  Sc64  1  0.29590695  0.11511924  0.89820833  1
  Sc  Sc65  1  0.70673564  0.69273437  0.50279997  1
  Sc  Sc66  1  0.09687731  0.09509959  0.70251733  1
  Sc  Sc67  1  0.50596198  0.69107094  0.70301901  1
  Sc  Sc68  1  0.09860455  0.10436460  0.11062995  1
  Sc  Sc69  1  0.89689535  0.29832617  0.70746653  1
  Sc  Sc70  1  0.09244588  0.10055036  0.49790274  1
  Sc  Sc71  1  0.49714335  0.69090190  0.89572201  1
  Sc  Sc72  1  0.09707440  0.69590519  0.29688452  1
  Sc  Sc73  1  0.09504209  0.51511082  0.90066032  1
  Sc  Sc74  1  0.30537276  0.10414004  0.69758601  1
  Sc  Sc75  1  0.89794943  0.90130428  0.09846441  1
  Sc  Sc76  1  0.70601613  0.09733275  0.70302588  1
  Sc  Sc77  1  0.10058895  0.50872145  0.10095218  1
  Sc  Sc78  1  0.29639623  0.48833780  0.70146563  1
  Sc  Sc79  1  0.90143281  0.50273833  0.49157517  1
  Sc  Sc80  1  0.50845086  0.10954536  0.89789007  1
  Sc  Sc81  1  0.09722574  0.91053373  0.29803433  1
  Sc  Sc82  1  0.29893652  0.10058851  0.30435581  1
  Sc  Sc83  1  0.89376727  0.29031522  0.50075166  1
  Sc  Sc84  1  0.49491784  0.71889188  0.09757568  1
  Sc  Sc85  1  0.89782439  0.70124200  0.69900239  1
  Sc  Sc86  1  0.89623367  0.09723637  0.69841754  1
  Sc  Sc87  1  0.50285260  0.67531365  0.48843935  1
  Sc  Sc88  1  0.30156601  0.50968256  0.89822862  1
  Sc  Sc89  1  0.09759280  0.69990769  0.09281266  1
  Sc  Sc90  1  0.49144768  0.30584288  0.70184917  1
  Sc  Sc91  1  0.70401016  0.30813519  0.49531738  1
  Sc  Sc92  1  0.89507715  0.10285951  0.09861636  1
  Sc  Sc93  1  0.89821210  0.89750423  0.89213374  1
  Sc  Sc94  1  0.50786445  0.30264012  0.90026113  1
  Sc  Sc95  1  0.09992982  0.50732903  0.70167906  1
  Sc  Sc96  1  0.49905760  0.30215215  0.30652724  1
  Sc  Sc97  1  0.09727772  0.68878024  0.50211527  1
  Sc  Sc98  1  0.50386248  0.29407828  0.10305179  1
  Sc  Sc99  1  0.70063564  0.10561998  0.29734764  1
  Nb  Nb100  1  0.30361451  0.70116485  0.09948014  1
  Nb  Nb101  1  0.10216943  0.49370431  0.50294716  1
  Nb  Nb102  1  0.90094484  0.69842191  0.89869547  1
  Nb  Nb103  1  0.90151978  0.29950492  0.09954741  1
  Nb  Nb104  1  0.10052870  0.90212022  0.89851083  1
  Nb  Nb105  1  0.50125046  0.90508417  0.09517029  1
  Nb  Nb106  1  0.29846788  0.89668701  0.30595068  1
  Nb  Nb107  1  0.90024709  0.49570195  0.09604682  1
  Nb  Nb108  1  0.68950739  0.49612855  0.50303427  1
  Nb  Nb109  1  0.10238697  0.90107676  0.09785897  1
  Nb  Nb110  1  0.09923967  0.09112824  0.89840587  1
  Nb  Nb111  1  0.29308498  0.30036888  0.70674815  1
  Nb  Nb112  1  0.70407156  0.49484469  0.30434958  1
  Nb  Nb113  1  0.90355231  0.30151919  0.90323223  1
  Nb  Nb114  1  0.28710013  0.30198363  0.29623438  1
  Nb  Nb115  1  0.50166923  0.30089910  0.50197016  1
  Nb  Nb116  1  0.89933575  0.49471227  0.70739583  1
  Nb  Nb117  1  0.90200847  0.90098771  0.49864360  1
  Nb  Nb118  1  0.29465062  0.30314279  0.89540086  1
  Nb  Nb119  1  0.50184771  0.69683287  0.30322612  1
  Nb  Nb120  1  0.50250174  0.51274496  0.30795592  1
  Nb  Nb121  1  0.89779431  0.70048066  0.30273793  1
  Nb  Nb122  1  0.30072761  0.89541352  0.49514071  1
  Nb  Nb123  1  0.29791000  0.49817106  0.50206037  1
  Nb  Nb124  1  0.89126704  0.50171175  0.29195958  1
  Nb  Nb125  1  0.80343742  0.79652651  0.20357799  1
  Nb  Nb126  1  0.19837474  -0.00244220  0.00121060  1
  Nb  Nb127  1  0.60354722  0.59825767  0.00846157  1
  Nb  Nb128  1  0.40682954  0.79643281  0.59242491  1
  Nb  Nb129  1  0.59739159  0.20635182  0.59691474  1
  Nb  Nb130  1  0.80863541  0.39518843  0.00192046  1
  Nb  Nb131  1  0.01003602  -0.00147805  -0.00476129  1
  Nb  Nb132  1  0.20438263  0.20597042  0.60072279  1
  Nb  Nb133  1  0.40498888  0.80238641  0.40312228  1
  Nb  Nb134  1  0.20362407  0.80459458  0.19697738  1
  Nb  Nb135  1  0.19765160  0.39420137  -0.00356689  1
  Nb  Nb136  1  0.38908967  0.39295295  -0.00143867  1
  Nb  Nb137  1  -0.00957475  0.40232605  0.19691951  1
  Nb  Nb138  1  0.59399156  0.79804053  0.58791514  1
  Nb  Nb139  1  0.40164314  -0.00043865  -0.00284010  1
  Nb  Nb140  1  0.39444735  0.59514599  0.59555885  1
  Nb  Nb141  1  -0.00715203  0.80111456  0.40006414  1
  Nb  Nb142  1  -0.00082232  0.39531783  0.00115392  1
  Nb  Nb143  1  0.19951717  0.39841913  0.40584193  1
  Nb  Nb144  1  0.59808044  0.59981754  0.20199817  1
  Nb  Nb145  1  0.40025819  -0.00413619  0.80470991  1
  Nb  Nb146  1  0.39821717  0.80291314  0.79338858  1
  Nb  Nb147  1  0.40836191  0.60347506  0.20065496  1
  Nb  Nb148  1  0.59460071  0.80071200  0.40202781  1
  Nb  Nb149  1  0.00033094  0.40301471  0.60090810  1
  Pd  Pd150  1  -0.00831609  0.59225269  0.60397881  1
  Pd  Pd151  1  0.19740105  0.01163322  0.59442866  1
  Pd  Pd152  1  0.60772345  -0.00472854  0.39899504  1
  Pd  Pd153  1  0.80731813  0.59032671  0.60068060  1
  Pd  Pd154  1  0.40018900  -0.00941456  0.60952771  1
  Pd  Pd155  1  0.80237653  0.19825532  0.20188039  1
  Pd  Pd156  1  0.79589448  0.20450482  -0.00420594  1
  Pd  Pd157  1  0.20971182  0.00835825  0.80243803  1
  Pd  Pd158  1  0.20293927  -0.00161717  0.19801461  1
  Pd  Pd159  1  0.40476113  0.20423425  -0.00640307  1
  Pd  Pd160  1  0.79825096  0.59235040  0.40444443  1
  Pd  Pd161  1  0.79644595  0.00742820  0.39888595  1
  Pd  Pd162  1  0.19094080  0.41058039  0.81204195  1
  Pd  Pd163  1  -0.00501542  0.00432174  0.19231422  1
  Pd  Pd164  1  -0.00369820  0.60518833  0.40051805  1
  Pd  Pd165  1  0.40788071  0.59152033  0.01077958  1
  Pd  Pd166  1  0.39954282  0.40324475  0.80607087  1
  Pd  Pd167  1  0.61021992  0.00182843  0.59342442  1
  Pd  Pd168  1  0.19960739  0.59039514  0.39630888  1
  Pd  Pd169  1  -0.00705159  0.80666300  -0.00358664  1
  Pd  Pd170  1  0.40056003  0.20273334  0.21211418  1
  Pd  Pd171  1  0.79693451  0.59403321  -0.00526890  1
  Pd  Pd172  1  0.19396124  0.19817516  0.00411331  1
  Pd  Pd173  1  0.00127727  0.79902996  0.20478875  1
  Pd  Pd174  1  0.19799055  0.00188283  0.40499740  1
  Pd  Pd175  1  0.81284008  0.40637146  0.59233298  1
  Pd  Pd176  1  0.20468927  0.60834823  0.19857399  1
  Pd  Pd177  1  0.59392800  0.40265746  0.21350199  1
  Pd  Pd178  1  0.20052446  0.60082004  0.80152597  1
  Pd  Pd179  1  0.00588827  0.80299371  0.59299284  1
  Pd  Pd180  1  0.40326969  0.19871186  0.80075038  1
  Pd  Pd181  1  0.00720807  0.40201418  0.80111882  1
  Pd  Pd182  1  -0.00445674  0.39892914  0.40069734  1
  Pd  Pd183  1  0.59644180  0.00755404  -0.00688081  1
  Pd  Pd184  1  0.00213972  0.20448202  0.60792261  1
  Pd  Pd185  1  0.00292333  0.19293497  0.00251524  1
  Pd  Pd186  1  0.20248770  0.59453534  0.60456081  1
  Pd  Pd187  1  0.39187108  0.39682591  0.38915267  1
  Pd  Pd188  1  0.18580825  0.80362960  0.39391244  1
  Pd  Pd189  1  0.60208636  0.00701175  0.20195438  1
  Pd  Pd190  1  0.39791519  0.00694795  0.20238953  1
  Pd  Pd191  1  0.19977696  0.80118747  0.00801621  1
  Pd  Pd192  1  0.40315961  0.40472297  0.20252769  1
  Pd  Pd193  1  0.59947375  0.78922809  -0.00896925  1
  Pd  Pd194  1  0.79981723  0.60531939  0.19743582  1
  Pd  Pd195  1  0.60535334  0.79384306  0.20245172  1
  Pd  Pd196  1  0.20828979  0.20332596  0.41082627  1
  Pd  Pd197  1  -0.00380839  0.19255472  0.79327890  1
  Pd  Pd198  1  -0.00527420  0.59801274  0.19734468  1
  Pd  Pd199  1  0.60519770  0.20460583  0.78787995  1
  Rh  Rh200  1  0.19437759  0.39455460  0.59566500  1
  Rh  Rh201  1  0.80209355  0.20292774  0.79987346  1
  Rh  Rh202  1  0.19304786  0.79882758  0.59613713  1
  Rh  Rh203  1  -0.00682696  0.79805924  0.80202610  1
  Rh  Rh204  1  0.20302414  0.18960349  0.20553928  1
  Rh  Rh205  1  0.79986487  0.39433489  0.80820802  1
  Rh  Rh206  1  0.59660628  0.79114678  0.79269142  1
  Rh  Rh207  1  -0.01024842  0.19141078  0.40077556  1
  Rh  Rh208  1  0.79161265  0.80375223  0.60401093  1
  Rh  Rh209  1  0.59886895  0.19929826  0.20611112  1
  Rh  Rh210  1  0.80266526  0.60204653  0.79530051  1
  Rh  Rh211  1  0.40119102  0.20611134  0.60916046  1
  Rh  Rh212  1  0.79271950  0.19889202  0.60300326  1
  Rh  Rh213  1  0.60244601  0.40060001  0.39775769  1
  Rh  Rh214  1  0.20248815  0.79297175  0.80157601  1
  Rh  Rh215  1  0.80771212  0.80250587  0.00291880  1
  Rh  Rh216  1  -0.00532954  0.60903073  0.79521855  1
  Rh  Rh217  1  0.38706495  0.60120731  0.40068350  1
  Rh  Rh218  1  0.80553890  0.79580453  0.79584595  1
  Rh  Rh219  1  0.19891702  0.60011357  0.00173275  1
  Rh  Rh220  1  0.00210487  -0.00345266  0.60264607  1
  Rh  Rh221  1  0.60612737  0.19954431  0.00136399  1
  Rh  Rh222  1  0.19871770  0.19199350  0.79012009  1
  Rh  Rh223  1  0.79742923  -0.00184332  0.60066212  1
  Rh  Rh224  1  0.79995640  0.40703385  0.40480499  1
  Rh  Rh225  1  0.60270253  0.20990677  0.40556833  1
  Rh  Rh226  1  -0.00824147  0.20231641  0.20578805  1
  Rh  Rh227  1  0.39314975  0.21086556  0.39437086  1
  Rh  Rh228  1  0.59984918  0.00497599  0.80542528  1
  Rh  Rh229  1  0.81150286  -0.00026721  -0.00432984  1
  Rh  Rh230  1  0.40571756  0.80490841  -0.01057046  1
  Rh  Rh231  1  -0.00184066  0.59882068  -0.00158177  1
  Rh  Rh232  1  0.61327620  0.59618453  0.39956075  1
  Rh  Rh233  1  0.80481411  0.39467930  0.19836679  1
  Rh  Rh234  1  0.80079747  0.80074716  0.39542098  1
  Rh  Rh235  1  0.00201117  -0.00525376  0.40410406  1
  Rh  Rh236  1  0.39632151  0.79347713  0.20756429  1
  Rh  Rh237  1  0.80209266  0.19640649  0.39886509  1
  Rh  Rh238  1  0.60826155  0.60204149  0.81237049  1
  Rh  Rh239  1  0.39673392  -0.00521064  0.39078733  1
  Rh  Rh240  1  0.60199231  0.39605354  0.79543863  1
  Rh  Rh241  1  0.60344818  0.39981542  -0.00467736  1
  Rh  Rh242  1  0.40195794  0.40551735  0.60901778  1
  Rh  Rh243  1  -0.00765343  0.00133894  0.80414344  1
  Rh  Rh244  1  0.18699169  0.40385974  0.20345180  1
  Rh  Rh245  1  0.80011671  -0.00412546  0.19551336  1
  Rh  Rh246  1  0.80296776  -0.00055206  0.80019913  1
  Rh  Rh247  1  0.39657818  0.60135530  0.78751029  1
  Rh  Rh248  1  0.59752390  0.39498667  0.60062253  1
  Rh  Rh249  1  0.59558407  0.59849670  0.59303114  1
