# generated using pymatgen
data_ZrScNbPdRh
_symmetry_space_group_name_H-M   'P 1'
_cell_length_a   16.56169982
_cell_length_b   16.56047594
_cell_length_c   16.56344136
_cell_angle_alpha   89.99217891
_cell_angle_beta   90.03653927
_cell_angle_gamma   90.01333718
_symmetry_Int_Tables_number   1
_chemical_formula_structural   ZrScNbPdRh
_chemical_formula_sum   'Zr50 Sc50 Nb50 Pd50 Rh50'
_cell_volume   4542.84786499
_cell_formula_units_Z   50
loop_
 _symmetry_equiv_pos_site_id
 _symmetry_equiv_pos_as_xyz
  1  'x, y, z'
loop_
 _atom_site_type_symbol
 _atom_site_label
 _atom_site_symmetry_multiplicity
 _atom_site_fract_x
 _atom_site_fract_y
 _atom_site_fract_z
 _atom_site_occupancy
  Zr  Zr0  1  0.70085981  0.30056632  0.89810472  1
  Zr  Zr1  1  0.70574650  0.49855849  0.29529395  1
  Zr  Zr2  1  0.89453391  0.09360623  0.89973105  1
  Zr  Zr3  1  0.68582322  0.30952449  0.09060282  1
  Zr  Zr4  1  0.30823379  0.50331458  0.29318699  1
  Zr  Zr5  1  0.29552255  0.70150139  0.50081839  1
  Zr  Zr6  1  0.50425306  0.89327981  0.69890840  1
  Zr  Zr7  1  0.10033680  0.09913648  0.70416923  1
  Zr  Zr8  1  0.70663122  0.68871443  0.09315115  1
  Zr  Zr9  1  0.30329542  0.90288468  0.69478660  1
  Zr  Zr10  1  0.90459695  0.50184796  0.89172456  1
  Zr  Zr11  1  0.11012080  0.09803722  0.89718149  1
  Zr  Zr12  1  0.29632051  0.89547357  0.30201624  1
  Zr  Zr13  1  0.90381603  0.10207456  0.69312800  1
  Zr  Zr14  1  0.69750872  0.69334028  0.89618598  1
  Zr  Zr15  1  0.89821502  0.68943182  0.70935512  1
  Zr  Zr16  1  0.89443074  0.09701155  0.50160322  1
  Zr  Zr17  1  0.89775436  0.09227653  0.09681876  1
  Zr  Zr18  1  0.50096430  0.69335185  0.31230445  1
  Zr  Zr19  1  0.89769065  0.49643138  0.29783907  1
  Zr  Zr20  1  0.89270954  0.30192235  0.89741524  1
  Zr  Zr21  1  0.30708970  0.10041588  0.50420606  1
  Zr  Zr22  1  0.09756750  0.88772184  0.50572650  1
  Zr  Zr23  1  0.50135860  0.30425805  0.28750847  1
  Zr  Zr24  1  0.91021218  0.70704279  0.49310016  1
  Zr  Zr25  1  0.50731144  0.10380230  0.29875657  1
  Zr  Zr26  1  0.09780104  0.89840902  0.70069361  1
  Zr  Zr27  1  0.10052041  0.50855699  0.50440557  1
  Zr  Zr28  1  0.90244965  0.89994231  0.70460985  1
  Zr  Zr29  1  0.09046343  0.10414215  0.51413220  1
  Zr  Zr30  1  0.48740202  0.09842072  0.89709318  1
  Zr  Zr31  1  0.89329691  0.89757998  0.30152867  1
  Zr  Zr32  1  0.09758345  0.70894611  0.30591056  1
  Zr  Zr33  1  0.29480445  0.50607319  0.50182474  1
  Zr  Zr34  1  0.29245080  0.30342878  0.70267044  1
  Zr  Zr35  1  0.30968599  0.68807764  0.90512586  1
  Zr  Zr36  1  0.70033866  0.49379372  0.50776681  1
  Zr  Zr37  1  0.89790800  0.90188597  0.50247833  1
  Zr  Zr38  1  0.71141752  0.89685042  0.49802558  1
  Zr  Zr39  1  0.29995494  0.49857637  0.90334447  1
  Zr  Zr40  1  0.88995765  0.50289126  0.10144092  1
  Zr  Zr41  1  0.70170720  0.09568711  0.29221878  1
  Zr  Zr42  1  0.49807614  0.89984634  0.89653012  1
  Zr  Zr43  1  0.10045803  0.50319375  0.90782430  1
  Zr  Zr44  1  0.70557431  0.09891640  0.49776442  1
  Zr  Zr45  1  0.90158790  0.89812498  0.09844254  1
  Zr  Zr46  1  0.29984052  0.89823445  0.50228943  1
  Zr  Zr47  1  0.70236262  0.89772349  0.89292556  1
  Zr  Zr48  1  0.49188908  0.89436033  0.49913944  1
  Zr  Zr49  1  0.30336849  0.29053730  0.89968017  1
  Sc  Sc50  1  0.90026669  0.70423217  0.29767916  1
  Sc  Sc51  1  0.69440795  0.70007927  0.50743776  1
  Sc  Sc52  1  0.50006093  0.09796139  0.69862927  1
  Sc  Sc53  1  0.29995852  0.09784475  0.70850853  1
  Sc  Sc54  1  0.08863121  0.90269503  0.89133065  1
  Sc  Sc55  1  0.70122899  0.70687944  0.30167524  1
  Sc  Sc56  1  0.49414808  0.50951836  0.89787321  1
  Sc  Sc57  1  0.09985199  0.90363023  0.10608834  1
  Sc  Sc58  1  0.70068344  0.30301121  0.69614228  1
  Sc  Sc59  1  0.89526227  0.70328868  0.90705626  1
  Sc  Sc60  1  0.50479266  0.51500981  0.50147304  1
  Sc  Sc61  1  0.30073634  0.10304202  0.30103805  1
  Sc  Sc62  1  0.69893021  0.30016586  0.50656396  1
  Sc  Sc63  1  0.10363866  0.30003967  0.29022829  1
  Sc  Sc64  1  0.70130334  0.90080289  0.10822403  1
  Sc  Sc65  1  0.30736444  0.50489896  0.70637235  1
  Sc  Sc66  1  0.70082717  0.88729471  0.69873867  1
  Sc  Sc67  1  0.30135324  0.69462680  0.09912632  1
  Sc  Sc68  1  0.29844379  0.89867971  0.09871422  1
  Sc  Sc69  1  0.89635783  0.30361384  0.29196910  1
  Sc  Sc70  1  0.29545800  0.69851264  0.29915289  1
  Sc  Sc71  1  0.29472748  0.30294081  0.29607357  1
  Sc  Sc72  1  0.09771359  0.10222290  0.28451585  1
  Sc  Sc73  1  0.10918256  0.30814157  0.89988050  1
  Sc  Sc74  1  0.50525428  0.29213847  0.50291455  1
  Sc  Sc75  1  0.89995180  0.49950493  0.51050433  1
  Sc  Sc76  1  0.69627382  0.50507643  0.90886981  1
  Sc  Sc77  1  0.70101096  0.10538692  0.69948480  1
  Sc  Sc78  1  0.70365859  0.50962722  0.69587163  1
  Sc  Sc79  1  0.29580273  0.29559582  0.10231936  1
  Sc  Sc80  1  0.70773942  0.10646492  0.89650334  1
  Sc  Sc81  1  0.89473721  0.10253815  0.29242849  1
  Sc  Sc82  1  0.09875939  0.89643682  0.29076586  1
  Sc  Sc83  1  0.10172217  0.70781679  0.10019987  1
  Sc  Sc84  1  0.50874438  0.10279588  0.09536159  1
  Sc  Sc85  1  0.50668991  0.29679700  0.69451072  1
  Sc  Sc86  1  0.89465669  0.30133466  0.51088324  1
  Sc  Sc87  1  0.10962698  0.30725050  0.51787834  1
  Sc  Sc88  1  0.30442399  0.69364303  0.68879018  1
  Sc  Sc89  1  0.50106639  0.29543457  0.90635219  1
  Sc  Sc90  1  0.50624482  0.69606684  0.90463893  1
  Sc  Sc91  1  0.89632342  0.30402981  0.09751680  1
  Sc  Sc92  1  0.29268559  0.09730605  0.09017512  1
  Sc  Sc93  1  0.49713302  0.10402570  0.50041550  1
  Sc  Sc94  1  0.70552032  0.09848025  0.09680225  1
  Sc  Sc95  1  0.70070864  0.29486174  0.29507102  1
  Sc  Sc96  1  0.10798616  0.50026470  0.29887477  1
  Sc  Sc97  1  0.10204631  0.30034865  0.10267089  1
  Sc  Sc98  1  0.08651408  0.70100246  0.89976960  1
  Sc  Sc99  1  0.50969299  0.89570572  0.09653083  1
  Nb  Nb100  1  0.30325413  0.90467575  0.89738558  1
  Nb  Nb101  1  0.69471151  0.50160646  0.10103551  1
  Nb  Nb102  1  0.90401530  0.31013716  0.70914392  1
  Nb  Nb103  1  0.90341024  0.49393907  0.70574190  1
  Nb  Nb104  1  0.50180521  0.50154366  0.69842114  1
  Nb  Nb105  1  0.50580683  0.89794164  0.29613362  1
  Nb  Nb106  1  0.49812730  0.30251064  0.09844676  1
  Nb  Nb107  1  0.09953215  0.70179124  0.69700443  1
  Nb  Nb108  1  0.69465544  0.90218019  0.30148786  1
  Nb  Nb109  1  0.50469360  0.69616412  0.09696559  1
  Nb  Nb110  1  0.50505761  0.69463244  0.69864723  1
  Nb  Nb111  1  0.09651501  0.29771798  0.70525494  1
  Nb  Nb112  1  0.10225690  0.70224842  0.50639834  1
  Nb  Nb113  1  0.30227937  0.09272484  0.89769431  1
  Nb  Nb114  1  0.29952687  0.50683315  0.09600246  1
  Nb  Nb115  1  0.49362519  0.70014490  0.50962482  1
  Nb  Nb116  1  0.08562028  0.50121361  0.70627654  1
  Nb  Nb117  1  0.69109705  0.69917419  0.70556494  1
  Nb  Nb118  1  0.10250958  0.50681853  0.09577293  1
  Nb  Nb119  1  0.49756199  0.49805956  0.29897458  1
  Nb  Nb120  1  0.89835919  0.90276711  0.89914075  1
  Nb  Nb121  1  0.89891369  0.69859361  0.10383372  1
  Nb  Nb122  1  0.30232069  0.30543885  0.50100158  1
  Nb  Nb123  1  0.09508754  0.10200365  0.09944381  1
  Nb  Nb124  1  0.50052322  0.48833717  0.10981428  1
  Nb  Nb125  1  0.60071742  -0.00643417  0.39784779  1
  Nb  Nb126  1  -0.00055568  0.59999095  0.19499645  1
  Nb  Nb127  1  0.19206805  0.60452418  0.79828106  1
  Nb  Nb128  1  0.00409299  0.20418827  0.40377858  1
  Nb  Nb129  1  0.40302441  0.40253353  0.40354849  1
  Nb  Nb130  1  0.00179731  0.19532725  -0.00351215  1
  Nb  Nb131  1  0.59646872  0.40632950  0.79754041  1
  Nb  Nb132  1  0.00305364  0.00505163  0.40045308  1
  Nb  Nb133  1  0.39765856  0.79653768  0.80145569  1
  Nb  Nb134  1  0.59393569  0.40365103  0.39617187  1
  Nb  Nb135  1  0.60314409  -0.00582651  0.59136866  1
  Nb  Nb136  1  0.59622902  0.59399418  0.19796306  1
  Nb  Nb137  1  0.60198274  -0.00153840  -0.01072631  1
  Nb  Nb138  1  0.19185549  0.00481237  0.40520313  1
  Nb  Nb139  1  0.80154347  0.59800743  0.40227406  1
  Nb  Nb140  1  0.00375122  0.39604851  0.40290713  1
  Nb  Nb141  1  0.40451648  0.19802460  0.19469916  1
  Nb  Nb142  1  0.00021398  0.20471603  0.80221840  1
  Nb  Nb143  1  0.39986732  0.40189623  0.00909415  1
  Nb  Nb144  1  0.20457974  0.80166627  -0.01366924  1
  Nb  Nb145  1  0.20624441  0.79504385  0.80187254  1
  Nb  Nb146  1  0.19574928  0.19812374  0.40766828  1
  Nb  Nb147  1  0.40039839  0.40106699  0.59487965  1
  Nb  Nb148  1  0.40746872  -0.00249399  0.20256814  1
  Nb  Nb149  1  0.40965012  0.80009119  0.20193493  1
  Pd  Pd150  1  0.20183280  0.40615948  0.19189476  1
  Pd  Pd151  1  0.59812794  0.20516240  0.80018126  1
  Pd  Pd152  1  0.80080390  0.20699164  0.60705957  1
  Pd  Pd153  1  0.60892144  0.80355331  -0.00152826  1
  Pd  Pd154  1  0.79518322  0.00191866  0.79157843  1
  Pd  Pd155  1  0.80133859  0.39861299  0.40492392  1
  Pd  Pd156  1  0.19530973  0.41229255  0.79409996  1
  Pd  Pd157  1  0.39673375  0.79364568  0.39476060  1
  Pd  Pd158  1  0.79793373  0.40760437  -0.00183822  1
  Pd  Pd159  1  0.80379628  0.79510455  0.80200527  1
  Pd  Pd160  1  0.79390589  0.20633383  0.18761593  1
  Pd  Pd161  1  0.00537920  0.80519546  0.00198240  1
  Pd  Pd162  1  0.80524385  0.78912339  0.60504454  1
  Pd  Pd163  1  0.78558886  0.40992755  0.79672529  1
  Pd  Pd164  1  0.19947637  0.00171393  0.59753320  1
  Pd  Pd165  1  -0.00241135  0.60470668  0.60242879  1
  Pd  Pd166  1  0.00561958  0.40816110  0.20064594  1
  Pd  Pd167  1  0.40172720  0.00036487  0.39273223  1
  Pd  Pd168  1  0.60571042  0.20325480  0.40170270  1
  Pd  Pd169  1  0.40679496  -0.00019896  0.01143569  1
  Pd  Pd170  1  0.20705529  0.19737579  0.60240754  1
  Pd  Pd171  1  0.80725047  0.20752627  0.39768387  1
  Pd  Pd172  1  0.79680175  0.79872934  0.19913314  1
  Pd  Pd173  1  0.59916917  0.78763152  0.19764260  1
  Pd  Pd174  1  0.80226802  0.60639393  0.59627898  1
  Pd  Pd175  1  0.39665463  0.20557596  0.60874652  1
  Pd  Pd176  1  -0.00024195  0.39815942  0.59720051  1
  Pd  Pd177  1  0.00697162  0.00056292  -0.00108618  1
  Pd  Pd178  1  -0.00363491  0.59284814  0.39303706  1
  Pd  Pd179  1  0.19779567  0.39377661  0.39935561  1
  Pd  Pd180  1  0.19259359  -0.01049982  -0.00325552  1
  Pd  Pd181  1  0.19575830  0.20079832  0.00023924  1
  Pd  Pd182  1  0.60154496  0.80132962  0.40801558  1
  Pd  Pd183  1  0.60217998  0.19172690  -0.00507680  1
  Pd  Pd184  1  0.00095916  0.39417366  0.00260507  1
  Pd  Pd185  1  0.79526856  0.80332141  0.00128938  1
  Pd  Pd186  1  0.41102585  0.39360742  0.80015825  1
  Pd  Pd187  1  -0.00451574  0.60369428  0.00707395  1
  Pd  Pd188  1  0.39663981  0.79941662  0.00392192  1
  Pd  Pd189  1  0.39336128  0.21083511  0.39183886  1
  Pd  Pd190  1  0.20342630  0.41304304  0.61318215  1
  Pd  Pd191  1  0.19932110  0.60390289  0.39565378  1
  Pd  Pd192  1  0.19228700  0.60625018  0.19751308  1
  Pd  Pd193  1  0.61026096  0.59489368  0.39768203  1
  Pd  Pd194  1  0.20719589  0.39760359  0.00784075  1
  Pd  Pd195  1  0.40698293  0.60808032  0.19558841  1
  Pd  Pd196  1  -0.00468725  0.20276560  0.19497279  1
  Pd  Pd197  1  0.40287105  0.20381783  0.79360663  1
  Pd  Pd198  1  0.20733974  0.00495599  0.20363231  1
  Pd  Pd199  1  0.60588642  0.00401736  0.79546049  1
  Rh  Rh200  1  0.79120335  0.39198745  0.19014516  1
  Rh  Rh201  1  0.40193802  0.79320917  0.60687556  1
  Rh  Rh202  1  0.20312452  -0.00831303  0.80087526  1
  Rh  Rh203  1  0.79695515  0.79215459  0.40049985  1
  Rh  Rh204  1  -0.00721735  0.79377695  0.60881793  1
  Rh  Rh205  1  0.00210267  0.60294954  0.80177060  1
  Rh  Rh206  1  -0.00404875  0.79513160  0.19625852  1
  Rh  Rh207  1  0.19744139  0.80371749  0.40222542  1
  Rh  Rh208  1  0.80082508  0.00256158  0.39005371  1
  Rh  Rh209  1  0.00339241  0.80947573  0.39678472  1
  Rh  Rh210  1  0.20662978  0.19293344  0.20059089  1
  Rh  Rh211  1  0.21023117  0.79677654  0.18917100  1
  Rh  Rh212  1  0.60392356  0.18739920  0.59725623  1
  Rh  Rh213  1  0.79696442  0.59706018  0.80296986  1
  Rh  Rh214  1  -0.00509438  0.21348946  0.60713855  1
  Rh  Rh215  1  0.38799278  0.39406279  0.19698328  1
  Rh  Rh216  1  0.80016496  0.60638224  0.20659084  1
  Rh  Rh217  1  0.79111412  -0.00337386  0.61110300  1
  Rh  Rh218  1  -0.00342766  0.79701049  0.79880996  1
  Rh  Rh219  1  0.00740331  0.39468156  0.80617224  1
  Rh  Rh220  1  0.59753791  0.79948204  0.59597909  1
  Rh  Rh221  1  0.40880425  0.00321323  0.60293274  1
  Rh  Rh222  1  0.41080220  0.58948075  0.01166003  1
  Rh  Rh223  1  0.79003664  -0.01072575  -0.00162721  1
  Rh  Rh224  1  0.19127515  0.59567253  0.61112194  1
  Rh  Rh225  1  0.59210088  0.79046160  0.80276377  1
  Rh  Rh226  1  0.60163220  0.60361301  0.60294141  1
  Rh  Rh227  1  0.39411168  0.20088242  0.00585103  1
  Rh  Rh228  1  0.39905448  -0.00485862  0.79306151  1
  Rh  Rh229  1  0.39531080  0.59804672  0.40571692  1
  Rh  Rh230  1  -0.00130072  -0.00886369  0.59824885  1
  Rh  Rh231  1  0.80187992  -0.00529351  0.19975686  1
  Rh  Rh232  1  0.80860041  0.20196382  0.79334992  1
  Rh  Rh233  1  0.40112208  0.60903517  0.79314292  1
  Rh  Rh234  1  0.59140863  0.40487343  0.59995074  1
  Rh  Rh235  1  -0.00524698  -0.00166068  0.20447734  1
  Rh  Rh236  1  0.80542116  0.59547230  -0.00546672  1
  Rh  Rh237  1  0.20190107  0.79647458  0.60735836  1
  Rh  Rh238  1  0.40316370  0.59472759  0.59830160  1
  Rh  Rh239  1  0.80489104  0.20247882  0.00298718  1
  Rh  Rh240  1  0.19319863  0.60995671  -0.00465629  1
  Rh  Rh241  1  0.60831988  0.40269708  0.20591012  1
  Rh  Rh242  1  0.59821341  0.00192286  0.19735123  1
  Rh  Rh243  1  0.58743973  0.40784485  -0.01086429  1
  Rh  Rh244  1  0.59964756  0.59387664  0.79587373  1
  Rh  Rh245  1  0.60123170  0.20031681  0.18920989  1
  Rh  Rh246  1  0.80283548  0.40006472  0.61112497  1
  Rh  Rh247  1  -0.00383656  0.00652014  0.80064819  1
  Rh  Rh248  1  0.59204587  0.59086684  0.00981627  1
  Rh  Rh249  1  0.19914594  0.19911961  0.80054638  1
