# generated using pymatgen
data_ZrScNbPdRh
_symmetry_space_group_name_H-M   'P 1'
_cell_length_a   16.55705674
_cell_length_b   16.55461816
_cell_length_c   16.55400165
_cell_angle_alpha   89.99745377
_cell_angle_beta   90.01307061
_cell_angle_gamma   90.01079381
_symmetry_Int_Tables_number   1
_chemical_formula_structural   ZrScNbPdRh
_chemical_formula_sum   'Zr50 Sc50 Nb50 Pd50 Rh50'
_cell_volume   4537.38133361
_cell_formula_units_Z   50
loop_
 _symmetry_equiv_pos_site_id
 _symmetry_equiv_pos_as_xyz
  1  'x, y, z'
loop_
 _atom_site_type_symbol
 _atom_site_label
 _atom_site_symmetry_multiplicity
 _atom_site_fract_x
 _atom_site_fract_y
 _atom_site_fract_z
 _atom_site_occupancy
  Zr  Zr0  1  0.90219179  0.30545646  0.30303878  1
  Zr  Zr1  1  0.49802013  0.10151710  0.70819020  1
  Zr  Zr2  1  0.29232077  0.09850861  0.30590990  1
  Zr  Zr3  1  0.70533941  0.10487454  0.49216866  1
  Zr  Zr4  1  0.50691387  0.49392681  0.09895783  1
  Zr  Zr5  1  0.70208499  0.29873298  0.30575344  1
  Zr  Zr6  1  0.69531684  0.30021197  0.49829441  1
  Zr  Zr7  1  0.69906307  0.90364934  0.70370515  1
  Zr  Zr8  1  0.29967939  0.69836284  0.50210011  1
  Zr  Zr9  1  0.89588909  0.51282762  0.10900385  1
  Zr  Zr10  1  0.49496119  0.90406158  0.89739335  1
  Zr  Zr11  1  0.90027139  0.50586451  0.69385261  1
  Zr  Zr12  1  0.50962090  0.70224927  0.50665633  1
  Zr  Zr13  1  0.69849377  0.49792701  0.09522213  1
  Zr  Zr14  1  0.70252216  0.49945792  0.70478869  1
  Zr  Zr15  1  0.09811631  0.09353146  0.70276852  1
  Zr  Zr16  1  0.31271094  0.30094051  0.69997380  1
  Zr  Zr17  1  0.30558344  0.49747309  0.89668263  1
  Zr  Zr18  1  0.90191148  0.70037601  0.49983108  1
  Zr  Zr19  1  0.69158040  0.89717400  0.50635470  1
  Zr  Zr20  1  0.48782099  0.29749065  0.88997185  1
  Zr  Zr21  1  0.29965958  0.09731248  0.69213751  1
  Zr  Zr22  1  0.90353056  0.50144339  0.49258579  1
  Zr  Zr23  1  0.10802926  0.10009126  0.90562554  1
  Zr  Zr24  1  0.90206313  0.70247507  0.10542339  1
  Zr  Zr25  1  0.89820548  0.69032604  0.29978919  1
  Zr  Zr26  1  0.49144283  0.90459201  0.29766005  1
  Zr  Zr27  1  0.90244166  0.10454775  0.89542215  1
  Zr  Zr28  1  0.29259300  0.89511113  0.10871226  1
  Zr  Zr29  1  0.09942718  0.50698035  0.89819831  1
  Zr  Zr30  1  0.10519752  0.69380004  0.10066057  1
  Zr  Zr31  1  0.49935054  0.90652729  0.69000033  1
  Zr  Zr32  1  0.70958259  0.10360236  0.09526417  1
  Zr  Zr33  1  0.50137594  0.49742836  0.49652891  1
  Zr  Zr34  1  0.29627179  0.90481294  0.50946872  1
  Zr  Zr35  1  0.48942300  0.10371177  0.09951913  1
  Zr  Zr36  1  0.10492018  0.49323034  0.49987311  1
  Zr  Zr37  1  0.29562621  0.70625137  0.09745888  1
  Zr  Zr38  1  0.70462610  0.30125783  0.90226511  1
  Zr  Zr39  1  0.90037303  0.09301559  0.09776661  1
  Zr  Zr40  1  0.71858803  0.90148761  0.09468511  1
  Zr  Zr41  1  0.29807599  0.49895536  0.69415972  1
  Zr  Zr42  1  0.71135572  0.69140748  0.09709614  1
  Zr  Zr43  1  0.49835859  0.49258954  0.29815500  1
  Zr  Zr44  1  0.09721740  0.50086864  0.69748966  1
  Zr  Zr45  1  0.31093223  0.10612849  0.90910159  1
  Zr  Zr46  1  0.09536367  0.89205743  0.50728352  1
  Zr  Zr47  1  0.29439656  0.50133960  0.10754159  1
  Zr  Zr48  1  0.29661588  0.10903795  0.50042885  1
  Zr  Zr49  1  0.89814679  0.29821334  0.49223609  1
  Sc  Sc50  1  0.69784222  0.68668712  0.89952948  1
  Sc  Sc51  1  0.49710479  0.10116299  0.50642067  1
  Sc  Sc52  1  0.70078105  0.49686788  0.90387120  1
  Sc  Sc53  1  0.88787787  0.90217934  0.89375961  1
  Sc  Sc54  1  0.09938852  0.10715860  0.50424997  1
  Sc  Sc55  1  0.10434579  0.90218824  0.10369306  1
  Sc  Sc56  1  0.50002216  0.70632020  0.09802832  1
  Sc  Sc57  1  0.30613202  0.29566453  0.09928505  1
  Sc  Sc58  1  0.69580898  0.09674517  0.69835765  1
  Sc  Sc59  1  0.09087418  0.70258192  0.69692489  1
  Sc  Sc60  1  0.51190392  0.50063998  0.89813712  1
  Sc  Sc61  1  0.09484108  0.29585063  0.89658049  1
  Sc  Sc62  1  0.29519131  0.49665273  0.30583334  1
  Sc  Sc63  1  0.10258284  0.70014808  0.89782539  1
  Sc  Sc64  1  0.29155244  0.70044477  0.29872260  1
  Sc  Sc65  1  0.70614055  0.49226986  0.30062174  1
  Sc  Sc66  1  0.50066928  0.69992083  0.31009935  1
  Sc  Sc67  1  0.29573635  0.10353891  0.09661235  1
  Sc  Sc68  1  0.89672467  0.30021296  0.89567863  1
  Sc  Sc69  1  0.10244374  0.90607824  0.90173146  1
  Sc  Sc70  1  0.30311110  0.70654411  0.89719587  1
  Sc  Sc71  1  0.90241698  0.29890843  0.70618163  1
  Sc  Sc72  1  0.49795575  0.30663409  0.10795527  1
  Sc  Sc73  1  0.90480319  0.09653844  0.70044310  1
  Sc  Sc74  1  0.70480610  0.69690955  0.68852152  1
  Sc  Sc75  1  0.30150858  0.29972713  0.30546572  1
  Sc  Sc76  1  0.30958634  0.69871948  0.69734824  1
  Sc  Sc77  1  0.10078627  0.29761018  0.49501083  1
  Sc  Sc78  1  0.09849985  0.09147058  0.10314365  1
  Sc  Sc79  1  0.90255301  0.89356768  0.29277340  1
  Sc  Sc80  1  0.69537489  0.50554814  0.50267154  1
  Sc  Sc81  1  0.29612395  0.49943482  0.50044854  1
  Sc  Sc82  1  0.70036408  0.30886069  0.09920784  1
  Sc  Sc83  1  0.90301255  0.69670047  0.89072560  1
  Sc  Sc84  1  0.69218684  0.29777722  0.69899213  1
  Sc  Sc85  1  0.48544685  0.89783758  0.09878538  1
  Sc  Sc86  1  0.89923412  0.10692274  0.29762956  1
  Sc  Sc87  1  0.49821580  0.30470320  0.30215896  1
  Sc  Sc88  1  0.48453091  0.10549915  0.30121981  1
  Sc  Sc89  1  0.89068741  0.29508486  0.10576057  1
  Sc  Sc90  1  0.09846679  0.29696799  0.69330907  1
  Sc  Sc91  1  0.70693669  0.09458401  0.88950037  1
  Sc  Sc92  1  0.09631742  0.70192096  0.49909959  1
  Sc  Sc93  1  0.50154322  0.49682653  0.70006712  1
  Sc  Sc94  1  0.29963483  0.90180622  0.91243803  1
  Sc  Sc95  1  0.09634957  0.70848214  0.30230140  1
  Sc  Sc96  1  0.89765996  0.49922181  0.88955559  1
  Sc  Sc97  1  0.90316043  0.10159633  0.49850300  1
  Sc  Sc98  1  0.29550806  0.30188791  0.50814922  1
  Sc  Sc99  1  0.90665036  0.89189580  0.69957159  1
  Nb  Nb100  1  0.50235881  0.90028371  0.50171032  1
  Nb  Nb101  1  0.90273714  0.69399317  0.69373379  1
  Nb  Nb102  1  0.50464736  0.30763539  0.51284163  1
  Nb  Nb103  1  0.09660472  0.10269832  0.30153020  1
  Nb  Nb104  1  0.69916752  0.90318992  0.30102178  1
  Nb  Nb105  1  0.09894429  0.29821319  0.10143319  1
  Nb  Nb106  1  0.50116651  0.70166219  0.89958810  1
  Nb  Nb107  1  0.29226354  0.90163063  0.30378663  1
  Nb  Nb108  1  0.69663005  0.90096822  0.89653537  1
  Nb  Nb109  1  0.90314699  0.49341674  0.30324939  1
  Nb  Nb110  1  0.10647690  0.90277549  0.69355948  1
  Nb  Nb111  1  0.69850169  0.70377846  0.49597606  1
  Nb  Nb112  1  0.69697752  0.09652189  0.30123976  1
  Nb  Nb113  1  0.09458077  0.29364283  0.30019343  1
  Nb  Nb114  1  0.29650810  0.29910449  0.89961893  1
  Nb  Nb115  1  0.49926940  0.09735402  0.90422889  1
  Nb  Nb116  1  0.90100923  0.89772169  0.09212627  1
  Nb  Nb117  1  0.29261219  0.90279183  0.69283421  1
  Nb  Nb118  1  0.10996315  0.90771352  0.30230158  1
  Nb  Nb119  1  0.49700103  0.30075556  0.69180780  1
  Nb  Nb120  1  0.90160377  0.89893409  0.49580646  1
  Nb  Nb121  1  0.10664255  0.48944236  0.29758648  1
  Nb  Nb122  1  0.69766153  0.70368560  0.30084462  1
  Nb  Nb123  1  0.10306535  0.49964662  0.10135179  1
  Nb  Nb124  1  0.50267332  0.70284210  0.71122569  1
  Nb  Nb125  1  0.59713858  0.79918829  0.80267877  1
  Nb  Nb126  1  0.00041459  0.20269022  0.00492831  1
  Nb  Nb127  1  0.79213679  0.79913154  0.40107281  1
  Nb  Nb128  1  0.20719355  0.20154100  0.80164625  1
  Nb  Nb129  1  0.00484218  -0.00444427  0.39665696  1
  Nb  Nb130  1  0.00562626  0.40245212  0.19969349  1
  Nb  Nb131  1  0.40348413  0.59830838  0.19736860  1
  Nb  Nb132  1  0.20239168  0.39586860  0.80288320  1
  Nb  Nb133  1  0.60187531  0.60436853  0.20147662  1
  Nb  Nb134  1  0.80064078  0.40056716  0.59848127  1
  Nb  Nb135  1  0.19080349  0.20053761  0.20475968  1
  Nb  Nb136  1  0.60051409  0.00041737  0.00133733  1
  Nb  Nb137  1  0.60485182  0.80539643  -0.00301352  1
  Nb  Nb138  1  0.59617004  0.19487576  -0.00159579  1
  Nb  Nb139  1  0.39745461  0.80841938  0.40580583  1
  Nb  Nb140  1  0.40318983  0.60043325  0.00226827  1
  Nb  Nb141  1  0.00504524  0.40176446  0.00962095  1
  Nb  Nb142  1  0.59911194  -0.00037802  0.39516034  1
  Nb  Nb143  1  0.60324428  0.19245141  0.19974480  1
  Nb  Nb144  1  0.19520138  0.39845048  -0.00084417  1
  Nb  Nb145  1  0.60464842  0.00061946  0.19939265  1
  Nb  Nb146  1  0.80216718  -0.00564023  0.59341589  1
  Nb  Nb147  1  0.20139664  0.80988254  0.78937221  1
  Nb  Nb148  1  -0.00487317  0.80181546  0.00400165  1
  Nb  Nb149  1  0.60827510  0.80422689  0.19851999  1
  Pd  Pd150  1  0.60056879  0.19982764  0.80610437  1
  Pd  Pd151  1  -0.00329759  0.20082887  0.60030227  1
  Pd  Pd152  1  0.01108097  0.59414381  0.21121992  1
  Pd  Pd153  1  0.79220168  0.78956357  0.79978994  1
  Pd  Pd154  1  -0.00333271  -0.00310986  -0.00626518  1
  Pd  Pd155  1  -0.00253974  -0.00867165  0.80086182  1
  Pd  Pd156  1  0.19414104  0.60766173  0.60275918  1
  Pd  Pd157  1  0.81420226  0.40456121  0.00171712  1
  Pd  Pd158  1  0.79892577  0.80009353  0.20660075  1
  Pd  Pd159  1  0.39456407  0.39463309  0.40807886  1
  Pd  Pd160  1  0.80324766  0.19920563  0.60626855  1
  Pd  Pd161  1  -0.00536260  0.60192917  -0.00402414  1
  Pd  Pd162  1  0.79229569  0.60148758  0.40074035  1
  Pd  Pd163  1  0.80502281  -0.00052668  0.20581053  1
  Pd  Pd164  1  0.59801262  0.59931772  0.60655749  1
  Pd  Pd165  1  0.40159032  -0.00250031  0.40917358  1
  Pd  Pd166  1  0.19363350  0.59961961  0.39579674  1
  Pd  Pd167  1  0.40848050  0.59699214  0.60034773  1
  Pd  Pd168  1  0.20892814  0.59880112  -0.00578996  1
  Pd  Pd169  1  0.20419214  0.79979496  0.40321781  1
  Pd  Pd170  1  0.40658062  0.59487364  0.80488375  1
  Pd  Pd171  1  0.59943756  0.39660308  0.80086103  1
  Pd  Pd172  1  0.39666855  0.60602504  0.39584132  1
  Pd  Pd173  1  0.39812574  0.40216753  0.00110168  1
  Pd  Pd174  1  0.58660760  0.19611469  0.39479087  1
  Pd  Pd175  1  0.38963859  0.00506133  0.19687061  1
  Pd  Pd176  1  0.59723660  0.19409051  0.60066243  1
  Pd  Pd177  1  0.39551060  0.80929587  0.79806520  1
  Pd  Pd178  1  0.20201238  0.38764808  0.19915818  1
  Pd  Pd179  1  0.00897889  0.80475953  0.80570955  1
  Pd  Pd180  1  0.19088944  0.00301254  0.41171604  1
  Pd  Pd181  1  0.80489430  0.80302612  0.59697028  1
  Pd  Pd182  1  -0.00196867  -0.00514190  0.20682929  1
  Pd  Pd183  1  0.79510667  0.20204654  0.20473454  1
  Pd  Pd184  1  0.00803899  0.80634760  0.19676800  1
  Pd  Pd185  1  0.79841304  0.60363399  0.79975055  1
  Pd  Pd186  1  0.20206650  0.60877642  0.79344602  1
  Pd  Pd187  1  0.60538132  0.59270491  0.39241896  1
  Pd  Pd188  1  0.40081311  0.79019415  0.21144047  1
  Pd  Pd189  1  0.00420624  0.39914703  0.80359147  1
  Pd  Pd190  1  0.40304404  0.79840409  0.59792071  1
  Pd  Pd191  1  0.80355764  0.79023538  -0.01455705  1
  Pd  Pd192  1  -0.00657938  0.39396590  0.59705849  1
  Pd  Pd193  1  0.79629384  0.19941936  0.78994771  1
  Pd  Pd194  1  0.20978496  0.00092699  0.80580465  1
  Pd  Pd195  1  0.40435730  0.21160764  0.40955920  1
  Pd  Pd196  1  0.80439080  -0.00589333  0.40087245  1
  Pd  Pd197  1  0.01239148  0.59565309  0.39476446  1
  Pd  Pd198  1  0.39081061  -0.00355647  0.79865066  1
  Pd  Pd199  1  0.59610683  0.80831515  0.39349756  1
  Rh  Rh200  1  0.19706730  0.20494481  0.39566918  1
  Rh  Rh201  1  -0.00137167  0.19244671  0.40041631  1
  Rh  Rh202  1  0.79198460  0.59439808  0.21093691  1
  Rh  Rh203  1  0.80415349  0.00006049  0.78820747  1
  Rh  Rh204  1  0.79480364  0.40388009  0.40992567  1
  Rh  Rh205  1  -0.00501127  -0.00444103  0.59251554  1
  Rh  Rh206  1  0.59736673  -0.00270309  0.80510092  1
  Rh  Rh207  1  0.40066906  0.00398950  0.59676730  1
  Rh  Rh208  1  0.80132607  0.59691715  0.59111892  1
  Rh  Rh209  1  0.40194519  0.40701565  0.59575237  1
  Rh  Rh210  1  0.19981402  0.60375968  0.20714465  1
  Rh  Rh211  1  0.00286617  0.20237268  0.19379618  1
  Rh  Rh212  1  0.00342216  0.60226404  0.59486091  1
  Rh  Rh213  1  0.40351854  0.79387982  -0.00248024  1
  Rh  Rh214  1  0.39653159  0.19476177  0.79704305  1
  Rh  Rh215  1  0.80510467  0.19896225  0.39455287  1
  Rh  Rh216  1  0.39131279  0.40444812  0.20438379  1
  Rh  Rh217  1  0.59288579  0.60870758  0.00776495  1
  Rh  Rh218  1  0.60749532  0.39608082  0.20464718  1
  Rh  Rh219  1  0.39327508  0.20337917  0.20341631  1
  Rh  Rh220  1  0.60531265  0.40292786  0.60281010  1
  Rh  Rh221  1  0.20256762  0.00793702  0.20022796  1
  Rh  Rh222  1  0.59395966  0.38260472  -0.01016322  1
  Rh  Rh223  1  0.19936876  0.79123321  0.60686140  1
  Rh  Rh224  1  0.19326735  0.00684298  0.59355167  1
  Rh  Rh225  1  0.19196416  0.20500828  0.00222907  1
  Rh  Rh226  1  0.80896306  0.59560623  -0.00907371  1
  Rh  Rh227  1  -0.00571995  0.80716084  0.39530512  1
  Rh  Rh228  1  0.18794505  0.80189140  -0.00924444  1
  Rh  Rh229  1  0.19881221  0.39606331  0.60512016  1
  Rh  Rh230  1  0.19411454  0.79933967  0.20469754  1
  Rh  Rh231  1  0.00857778  0.40168377  0.39537783  1
  Rh  Rh232  1  -0.00384530  0.79792703  0.60303561  1
  Rh  Rh233  1  0.40723795  0.21010193  0.00310334  1
  Rh  Rh234  1  0.59687106  0.79397363  0.61201856  1
  Rh  Rh235  1  0.60287141  0.60475154  0.79562675  1
  Rh  Rh236  1  0.40552932  0.20112252  0.59669703  1
  Rh  Rh237  1  0.60570629  0.00957273  0.59100880  1
  Rh  Rh238  1  0.40057438  0.40559706  0.79575624  1
  Rh  Rh239  1  0.80324965  0.19938981  -0.00583293  1
  Rh  Rh240  1  0.00850663  0.19553328  0.80468715  1
  Rh  Rh241  1  0.79739653  0.39732558  0.79062197  1
  Rh  Rh242  1  0.39877465  -0.00358104  0.00719670  1
  Rh  Rh243  1  0.19869333  0.39260073  0.40199753  1
  Rh  Rh244  1  -0.00099463  0.60218436  0.79496928  1
  Rh  Rh245  1  0.60000116  0.40080125  0.40158523  1
  Rh  Rh246  1  0.80131163  0.00332942  -0.01016896  1
  Rh  Rh247  1  0.80619486  0.40341718  0.19964124  1
  Rh  Rh248  1  0.19862956  0.20144928  0.60870345  1
  Rh  Rh249  1  0.20549133  -0.00210138  0.00750074  1
