# generated using pymatgen
data_ZrScNbPdRh
_symmetry_space_group_name_H-M   'P 1'
_cell_length_a   16.56171864
_cell_length_b   16.56214497
_cell_length_c   16.56427115
_cell_angle_alpha   90.02417796
_cell_angle_beta   89.96358165
_cell_angle_gamma   89.99974085
_symmetry_Int_Tables_number   1
_chemical_formula_structural   ZrScNbPdRh
_chemical_formula_sum   'Zr50 Sc50 Nb50 Pd50 Rh50'
_cell_volume   4543.53825200
_cell_formula_units_Z   50
loop_
 _symmetry_equiv_pos_site_id
 _symmetry_equiv_pos_as_xyz
  1  'x, y, z'
loop_
 _atom_site_type_symbol
 _atom_site_label
 _atom_site_symmetry_multiplicity
 _atom_site_fract_x
 _atom_site_fract_y
 _atom_site_fract_z
 _atom_site_occupancy
  Zr  Zr0  1  0.50630050  0.69150069  0.70744583  1
  Zr  Zr1  1  0.49697095  0.91072487  0.69130522  1
  Zr  Zr2  1  0.69560517  0.50288183  0.69703608  1
  Zr  Zr3  1  0.49552361  0.50481595  0.89613076  1
  Zr  Zr4  1  0.10247987  0.51432975  0.70311453  1
  Zr  Zr5  1  0.28922421  0.30136501  0.10279518  1
  Zr  Zr6  1  0.69163905  0.70581423  0.89656789  1
  Zr  Zr7  1  0.49396442  0.49444860  0.09905522  1
  Zr  Zr8  1  0.29358296  0.90127910  0.51199474  1
  Zr  Zr9  1  0.91204401  0.89119797  0.69601507  1
  Zr  Zr10  1  0.29271331  0.89371434  0.07928852  1
  Zr  Zr11  1  0.49969075  0.30061256  0.69341789  1
  Zr  Zr12  1  0.70122696  0.70653631  0.09920207  1
  Zr  Zr13  1  0.50554451  0.70691062  0.29571856  1
  Zr  Zr14  1  0.89446365  0.90625457  0.09707590  1
  Zr  Zr15  1  0.09525834  0.49026081  0.10065388  1
  Zr  Zr16  1  0.88882569  0.29621719  0.29726066  1
  Zr  Zr17  1  0.69914649  0.30806480  0.29678702  1
  Zr  Zr18  1  0.70586684  0.10469482  0.89754114  1
  Zr  Zr19  1  0.09557141  0.50312292  0.50360668  1
  Zr  Zr20  1  0.29908696  0.49456942  0.10304598  1
  Zr  Zr21  1  0.50371112  0.29596592  0.89102131  1
  Zr  Zr22  1  0.49830111  0.70478926  0.49715886  1
  Zr  Zr23  1  0.29597777  0.49972241  0.30021496  1
  Zr  Zr24  1  0.90840151  0.50256638  0.49587975  1
  Zr  Zr25  1  0.89995152  0.10409682  0.89796012  1
  Zr  Zr26  1  0.71093767  0.89221624  0.49721238  1
  Zr  Zr27  1  0.30357218  0.10929218  0.09992798  1
  Zr  Zr28  1  0.10245619  0.89769311  0.31342264  1
  Zr  Zr29  1  0.09553038  0.29629880  0.50946583  1
  Zr  Zr30  1  0.89795448  0.50746700  0.70324857  1
  Zr  Zr31  1  0.90124776  0.09785326  0.09729657  1
  Zr  Zr32  1  0.29984057  0.50710463  0.69662873  1
  Zr  Zr33  1  0.70352050  0.49785856  0.11112202  1
  Zr  Zr34  1  0.69235961  0.09182244  0.10168081  1
  Zr  Zr35  1  0.70444928  0.69818351  0.69668104  1
  Zr  Zr36  1  0.49175072  0.90178451  0.49526057  1
  Zr  Zr37  1  0.69094360  0.09650672  0.69542104  1
  Zr  Zr38  1  0.70192143  0.28962528  0.48631684  1
  Zr  Zr39  1  0.29153603  0.49341208  0.89781191  1
  Zr  Zr40  1  0.50990522  0.10172321  0.51107047  1
  Zr  Zr41  1  0.09271477  0.51282666  0.30290162  1
  Zr  Zr42  1  0.29777982  0.09470337  0.70236651  1
  Zr  Zr43  1  0.09485527  0.10448139  0.89531873  1
  Zr  Zr44  1  0.89898621  0.09291126  0.71307231  1
  Zr  Zr45  1  0.09784613  0.69645928  0.49794554  1
  Zr  Zr46  1  0.50259166  0.70025880  0.09601048  1
  Zr  Zr47  1  0.09924385  0.69198410  0.10728343  1
  Zr  Zr48  1  0.69957183  0.11342168  0.30151854  1
  Zr  Zr49  1  0.71773260  0.29767149  0.10195237  1
  Sc  Sc50  1  0.69434254  0.90345246  0.70840300  1
  Sc  Sc51  1  0.89920584  0.90362044  0.31123350  1
  Sc  Sc52  1  0.09582037  0.10373932  0.10539625  1
  Sc  Sc53  1  0.90317465  0.09642692  0.29532873  1
  Sc  Sc54  1  0.30320836  0.90924076  0.32149511  1
  Sc  Sc55  1  0.48444068  0.29203307  0.10254253  1
  Sc  Sc56  1  0.29248758  0.29590655  0.89784228  1
  Sc  Sc57  1  0.51823607  0.89980114  0.10028368  1
  Sc  Sc58  1  0.69995783  0.10011807  0.50013221  1
  Sc  Sc59  1  0.50501184  0.10905436  0.89706247  1
  Sc  Sc60  1  0.29932307  0.10365995  0.30921665  1
  Sc  Sc61  1  0.09495697  0.29701188  0.29048070  1
  Sc  Sc62  1  0.90550374  0.08957747  0.49513832  1
  Sc  Sc63  1  0.10156847  0.09820752  0.30740560  1
  Sc  Sc64  1  0.90240623  0.91375691  0.89936908  1
  Sc  Sc65  1  0.09657073  0.90933132  0.08986770  1
  Sc  Sc66  1  0.71800025  0.48711152  0.89202279  1
  Sc  Sc67  1  0.10692350  0.09772912  0.50380513  1
  Sc  Sc68  1  0.89174246  0.68985258  0.10219392  1
  Sc  Sc69  1  0.29725850  0.69910763  0.09355712  1
  Sc  Sc70  1  0.49797920  0.29942778  0.50343892  1
  Sc  Sc71  1  0.91228105  0.29260697  0.70349651  1
  Sc  Sc72  1  0.69590625  0.30574570  0.70818128  1
  Sc  Sc73  1  0.30007508  0.29331032  0.50144526  1
  Sc  Sc74  1  0.09858703  0.10695354  0.70010393  1
  Sc  Sc75  1  0.30274673  0.50640406  0.50163976  1
  Sc  Sc76  1  0.51200669  0.89423754  0.89483427  1
  Sc  Sc77  1  0.30200730  0.29506990  0.30127573  1
  Sc  Sc78  1  0.29617595  0.71048251  0.90579210  1
  Sc  Sc79  1  0.49443879  0.49630820  0.50963047  1
  Sc  Sc80  1  0.28924263  0.69523041  0.30953124  1
  Sc  Sc81  1  0.49970426  0.48781382  0.29647721  1
  Sc  Sc82  1  0.90241952  0.69096325  0.89667743  1
  Sc  Sc83  1  0.71010031  0.69933192  0.29237439  1
  Sc  Sc84  1  0.29882796  0.29367726  0.70124487  1
  Sc  Sc85  1  0.90186790  0.49595154  0.09553752  1
  Sc  Sc86  1  0.10086785  0.69552305  0.30544680  1
  Sc  Sc87  1  0.50070658  0.69871036  0.89662621  1
  Sc  Sc88  1  0.50166599  0.10103820  0.29313636  1
  Sc  Sc89  1  0.29383359  0.09857345  0.49778074  1
  Sc  Sc90  1  0.88353090  0.30433066  0.90337481  1
  Sc  Sc91  1  0.70342598  0.49903397  0.49801653  1
  Sc  Sc92  1  0.50323039  0.90102407  0.29986930  1
  Sc  Sc93  1  0.70174976  0.89686195  0.28950303  1
  Sc  Sc94  1  0.10948538  0.89629110  0.89902663  1
  Sc  Sc95  1  0.70695379  0.70093978  0.49812420  1
  Sc  Sc96  1  0.29780388  0.10160291  0.89144766  1
  Sc  Sc97  1  0.30155085  0.70039036  0.50208811  1
  Sc  Sc98  1  0.49907704  0.29672344  0.30439181  1
  Sc  Sc99  1  0.09619426  0.69978973  0.89078560  1
  Nb  Nb100  1  0.10442444  0.30956279  0.90112103  1
  Nb  Nb101  1  0.70332398  0.89827197  0.08754147  1
  Nb  Nb102  1  0.90756133  0.29818002  0.10332709  1
  Nb  Nb103  1  0.09286479  0.90375410  0.50331167  1
  Nb  Nb104  1  0.30168446  0.90325345  0.89140214  1
  Nb  Nb105  1  0.09169533  0.70792787  0.70414308  1
  Nb  Nb106  1  0.90118108  0.30087927  0.50036490  1
  Nb  Nb107  1  0.09889567  0.49637673  0.90008546  1
  Nb  Nb108  1  0.90331173  0.69511000  0.30009841  1
  Nb  Nb109  1  0.29226766  0.70916859  0.69607033  1
  Nb  Nb110  1  0.90253315  0.89560998  0.50346160  1
  Nb  Nb111  1  0.69798750  0.29755676  0.90763126  1
  Nb  Nb112  1  0.09076399  0.30228531  0.09753635  1
  Nb  Nb113  1  0.10345854  0.29998198  0.70586871  1
  Nb  Nb114  1  0.70499923  0.89894312  0.90456154  1
  Nb  Nb115  1  0.50249890  0.10845663  0.70067016  1
  Nb  Nb116  1  0.90610341  0.70406623  0.69953433  1
  Nb  Nb117  1  0.49982945  0.49831267  0.70126713  1
  Nb  Nb118  1  0.70045199  0.49911303  0.30090219  1
  Nb  Nb119  1  0.90824854  0.49549783  0.89796838  1
  Nb  Nb120  1  0.89363867  0.71677241  0.50731002  1
  Nb  Nb121  1  0.10753673  0.88754561  0.69682222  1
  Nb  Nb122  1  0.89337625  0.50818208  0.30153177  1
  Nb  Nb123  1  0.49558853  0.09315678  0.10106877  1
  Nb  Nb124  1  0.29786176  0.89697215  0.70125725  1
  Nb  Nb125  1  0.00006387  0.21064902  0.00049984  1
  Nb  Nb126  1  0.40161993  0.40406140  0.79286602  1
  Nb  Nb127  1  0.19463556  0.40074778  0.60235488  1
  Nb  Nb128  1  0.19245406  0.40014906  0.40552620  1
  Nb  Nb129  1  0.60311048  -0.00057293  0.40086977  1
  Nb  Nb130  1  0.60220475  0.59601463  0.39268946  1
  Nb  Nb131  1  0.00028139  0.80082184  0.19881497  1
  Nb  Nb132  1  0.39504210  -0.00533178  0.19052704  1
  Nb  Nb133  1  0.20848923  -0.00661275  0.19888928  1
  Nb  Nb134  1  0.80327294  0.80173135  0.79909495  1
  Nb  Nb135  1  0.59736539  0.80061344  0.60026701  1
  Nb  Nb136  1  0.60377156  0.39644103  -0.00079142  1
  Nb  Nb137  1  0.00566207  0.40284729  0.80511541  1
  Nb  Nb138  1  0.60485351  0.58947404  -0.00008082  1
  Nb  Nb139  1  0.39306505  0.80662837  0.79238588  1
  Nb  Nb140  1  -0.00312466  0.79868854  0.00570558  1
  Nb  Nb141  1  0.19344824  0.59159393  -0.00118905  1
  Nb  Nb142  1  0.80711274  0.39248773  0.59681323  1
  Nb  Nb143  1  0.40332845  -0.00039608  -0.00052031  1
  Nb  Nb144  1  -0.00379975  0.20518913  0.40394066  1
  Nb  Nb145  1  0.40068881  0.60547951  0.20031889  1
  Nb  Nb146  1  0.19985267  0.80806909  0.20054164  1
  Nb  Nb147  1  0.80595586  0.19896784  0.59857083  1
  Nb  Nb148  1  0.39048172  0.80489490  0.19786916  1
  Nb  Nb149  1  0.80571707  -0.00372367  0.60243315  1
  Pd  Pd150  1  0.38744575  0.60692204  0.80009228  1
  Pd  Pd151  1  0.59800589  0.40489390  0.80575228  1
  Pd  Pd152  1  0.79468266  0.20724255  0.79097690  1
  Pd  Pd153  1  0.40605234  0.19453659  0.40366478  1
  Pd  Pd154  1  0.81005808  0.80421912  0.20238911  1
  Pd  Pd155  1  0.59664454  0.00436266  0.80831099  1
  Pd  Pd156  1  0.80198408  0.40381210  0.40257321  1
  Pd  Pd157  1  0.00234483  0.00346282  0.60400800  1
  Pd  Pd158  1  0.20356099  0.01351463  -0.00109656  1
  Pd  Pd159  1  0.01426606  -0.01193375  0.79812314  1
  Pd  Pd160  1  0.79887092  0.60517075  0.80408184  1
  Pd  Pd161  1  0.60978720  0.79867855  0.40038251  1
  Pd  Pd162  1  -0.00640821  0.18807218  0.59689895  1
  Pd  Pd163  1  0.81168262  0.79819995  -0.01202033  1
  Pd  Pd164  1  -0.00041835  0.40245667  0.61425082  1
  Pd  Pd165  1  0.00294102  0.39322969  0.38964929  1
  Pd  Pd166  1  0.40222857  0.60734289  0.60260769  1
  Pd  Pd167  1  0.59498801  0.40603233  0.40717582  1
  Pd  Pd168  1  0.39417835  0.60143194  0.00148520  1
  Pd  Pd169  1  0.19326385  0.79438451  0.59280172  1
  Pd  Pd170  1  -0.00460133  0.79506705  0.39746666  1
  Pd  Pd171  1  0.79470726  0.00095734  0.20297350  1
  Pd  Pd172  1  0.59730565  0.00229480  -0.01070015  1
  Pd  Pd173  1  0.41100260  0.59676243  0.39163794  1
  Pd  Pd174  1  0.79927084  0.60622240  0.40279157  1
  Pd  Pd175  1  0.59425440  0.38743921  0.19031730  1
  Pd  Pd176  1  0.39208035  0.39797967  0.40502231  1
  Pd  Pd177  1  0.19123488  -0.00111779  0.79369039  1
  Pd  Pd178  1  0.59601640  0.20754841  0.19310406  1
  Pd  Pd179  1  0.59630934  0.59914149  0.20074318  1
  Pd  Pd180  1  0.79502363  0.00380598  0.40184463  1
  Pd  Pd181  1  -0.00860096  0.40621162  0.21035899  1
  Pd  Pd182  1  0.60970562  0.39534190  0.59055282  1
  Pd  Pd183  1  0.39865136  0.19768414  -0.00919435  1
  Pd  Pd184  1  0.19481481  0.39809591  0.20976353  1
  Pd  Pd185  1  0.79364661  0.59246287  -0.00557136  1
  Pd  Pd186  1  0.40951429  -0.00046395  0.80635415  1
  Pd  Pd187  1  0.41206858  0.80925608  -0.00581312  1
  Pd  Pd188  1  0.00445503  0.60330225  -0.00163854  1
  Pd  Pd189  1  0.20447157  0.61104582  0.80590971  1
  Pd  Pd190  1  0.39418420  0.01029666  0.59757705  1
  Pd  Pd191  1  0.19582880  0.19322629  0.20608643  1
  Pd  Pd192  1  0.19048595  0.19787897  -0.00103403  1
  Pd  Pd193  1  0.00916728  -0.00734403  0.20661320  1
  Pd  Pd194  1  0.80674806  0.59656129  0.59235012  1
  Pd  Pd195  1  0.39338348  0.19343212  0.60014747  1
  Pd  Pd196  1  0.40058447  0.38834669  -0.01072030  1
  Pd  Pd197  1  0.59827346  0.60366095  0.58751982  1
  Pd  Pd198  1  0.59896830  0.20561292  0.01154271  1
  Pd  Pd199  1  0.39118956  0.79614855  0.39336211  1
  Rh  Rh200  1  0.81203562  0.39433494  0.78612544  1
  Rh  Rh201  1  -0.01115193  0.61134429  0.40600662  1
  Rh  Rh202  1  -0.00652275  0.61236041  0.59940214  1
  Rh  Rh203  1  0.21096983  0.60480305  0.19382161  1
  Rh  Rh204  1  0.80143123  0.40258706  0.00517025  1
  Rh  Rh205  1  0.79459758  0.80766636  0.61267954  1
  Rh  Rh206  1  0.79654544  -0.00836596  0.79637005  1
  Rh  Rh207  1  -0.00242930  0.19750042  0.20145914  1
  Rh  Rh208  1  0.39780805  0.19464060  0.20612164  1
  Rh  Rh209  1  -0.00911062  0.59865571  0.20039328  1
  Rh  Rh210  1  0.00851319  0.79557657  0.59399424  1
  Rh  Rh211  1  0.60990973  0.58867208  0.80955729  1
  Rh  Rh212  1  0.39585036  0.39739501  0.20645667  1
  Rh  Rh213  1  0.19920150  0.40151180  0.00499791  1
  Rh  Rh214  1  0.39945962  0.20365477  0.79514026  1
  Rh  Rh215  1  0.41398043  0.01101017  0.39751657  1
  Rh  Rh216  1  0.20066143  0.39954441  0.78987815  1
  Rh  Rh217  1  0.81240889  0.19118812  0.40562437  1
  Rh  Rh218  1  0.19443607  -0.00210969  0.60665460  1
  Rh  Rh219  1  0.20060924  0.59203353  0.40881514  1
  Rh  Rh220  1  0.60560626  0.19974928  0.79414217  1
  Rh  Rh221  1  0.60007455  0.80187571  0.79137674  1
  Rh  Rh222  1  0.61049905  -0.01337189  0.58692043  1
  Rh  Rh223  1  -0.00133375  0.59736261  0.79992540  1
  Rh  Rh224  1  0.19962774  0.60501645  0.59919799  1
  Rh  Rh225  1  0.18857973  0.21048938  0.40053372  1
  Rh  Rh226  1  0.39042744  0.40003418  0.60630667  1
  Rh  Rh227  1  0.00497009  0.00408112  0.40373843  1
  Rh  Rh228  1  0.20192525  0.20264366  0.60493159  1
  Rh  Rh229  1  0.19778292  0.20051785  0.79961476  1
  Rh  Rh230  1  0.59945740  0.79614493  0.00057788  1
  Rh  Rh231  1  -0.00585131  0.80396813  0.81004147  1
  Rh  Rh232  1  0.60943176  0.21098583  0.60380676  1
  Rh  Rh233  1  0.00279086  0.21452441  0.81501892  1
  Rh  Rh234  1  0.59147669  0.19440583  0.39860489  1
  Rh  Rh235  1  0.80251545  0.59589561  0.20116808  1
  Rh  Rh236  1  0.00439266  0.00425786  -0.00648420  1
  Rh  Rh237  1  0.80451878  0.19475910  0.00598096  1
  Rh  Rh238  1  0.80735968  0.79614261  0.39074850  1
  Rh  Rh239  1  0.18247657  0.78643196  0.00144467  1
  Rh  Rh240  1  0.20100394  0.80270022  0.40708498  1
  Rh  Rh241  1  0.40743391  0.79211080  0.61159915  1
  Rh  Rh242  1  0.20523851  0.79856738  0.79940729  1
  Rh  Rh243  1  0.81054959  0.40787954  0.20217767  1
  Rh  Rh244  1  -0.00704919  0.39209974  -0.00835848  1
  Rh  Rh245  1  0.19650938  -0.00027002  0.40428652  1
  Rh  Rh246  1  0.59965661  -0.00279330  0.20569686  1
  Rh  Rh247  1  0.79398932  0.00688738  -0.00207957  1
  Rh  Rh248  1  0.60434254  0.80266046  0.19568408  1
  Rh  Rh249  1  0.80354716  0.19039588  0.19487956  1
