# generated using pymatgen
data_ZrScNbPdRh
_symmetry_space_group_name_H-M   'P 1'
_cell_length_a   16.55730079
_cell_length_b   16.55629332
_cell_length_c   16.55791487
_cell_angle_alpha   89.99159403
_cell_angle_beta   89.99040127
_cell_angle_gamma   90.03947382
_symmetry_Int_Tables_number   1
_chemical_formula_structural   ZrScNbPdRh
_chemical_formula_sum   'Zr50 Sc50 Nb50 Pd50 Rh50'
_cell_volume   4538.97909235
_cell_formula_units_Z   50
loop_
 _symmetry_equiv_pos_site_id
 _symmetry_equiv_pos_as_xyz
  1  'x, y, z'
loop_
 _atom_site_type_symbol
 _atom_site_label
 _atom_site_symmetry_multiplicity
 _atom_site_fract_x
 _atom_site_fract_y
 _atom_site_fract_z
 _atom_site_occupancy
  Zr  Zr0  1  0.10312051  0.89647249  0.30242070  1
  Zr  Zr1  1  0.49151890  0.10033931  0.69744392  1
  Zr  Zr2  1  0.89054667  0.50046640  0.28614145  1
  Zr  Zr3  1  0.49859726  0.70166007  0.69780642  1
  Zr  Zr4  1  0.49608381  0.90389817  0.29740803  1
  Zr  Zr5  1  0.70678329  0.09665338  0.71309293  1
  Zr  Zr6  1  0.69561431  0.90154489  0.49250710  1
  Zr  Zr7  1  0.69429633  0.70073738  0.09457139  1
  Zr  Zr8  1  0.89694517  0.30862523  0.10979543  1
  Zr  Zr9  1  0.70147529  0.30007521  0.70023828  1
  Zr  Zr10  1  0.49596055  0.29931274  0.10340248  1
  Zr  Zr11  1  0.09852957  0.50240311  0.49886142  1
  Zr  Zr12  1  0.70354442  0.69329778  0.89373546  1
  Zr  Zr13  1  0.10313021  0.30742639  0.10140270  1
  Zr  Zr14  1  0.90607949  0.70360985  0.89729710  1
  Zr  Zr15  1  0.70487379  0.49757139  0.49857084  1
  Zr  Zr16  1  0.90472340  0.89600975  0.10347359  1
  Zr  Zr17  1  0.09650572  0.50050753  0.09708769  1
  Zr  Zr18  1  0.88961512  0.10137429  0.89590232  1
  Zr  Zr19  1  0.49133976  0.49656785  0.10490027  1
  Zr  Zr20  1  0.49811515  0.89673982  0.09520337  1
  Zr  Zr21  1  0.70270289  0.30239864  0.50135417  1
  Zr  Zr22  1  0.50379811  0.68919163  0.29538342  1
  Zr  Zr23  1  0.29457010  0.90100125  0.29906321  1
  Zr  Zr24  1  0.49724800  0.70281020  0.09897650  1
  Zr  Zr25  1  0.10506367  0.49853643  0.71054141  1
  Zr  Zr26  1  0.49714119  0.29691127  0.70328384  1
  Zr  Zr27  1  0.30447171  0.09752492  0.50117138  1
  Zr  Zr28  1  0.90730673  0.69540783  0.10187427  1
  Zr  Zr29  1  0.09270337  0.69399014  0.69966871  1
  Zr  Zr30  1  0.89931210  0.70708947  0.29642708  1
  Zr  Zr31  1  0.29902710  0.50690556  0.90038141  1
  Zr  Zr32  1  0.68978834  0.50417308  0.30362703  1
  Zr  Zr33  1  0.90589051  0.71060752  0.70565947  1
  Zr  Zr34  1  0.30526503  0.69047839  0.49773618  1
  Zr  Zr35  1  0.69759874  0.29864939  0.29184944  1
  Zr  Zr36  1  0.91113049  0.50741436  0.69728644  1
  Zr  Zr37  1  0.89616796  0.29841136  0.49606541  1
  Zr  Zr38  1  0.10003857  0.10112968  0.69782847  1
  Zr  Zr39  1  0.70023304  0.29598653  0.89854422  1
  Zr  Zr40  1  0.90179113  0.50464991  0.91515682  1
  Zr  Zr41  1  0.29891203  0.70627774  0.90430741  1
  Zr  Zr42  1  0.30174480  0.29962708  0.70546192  1
  Zr  Zr43  1  0.09858663  0.88907073  0.69543454  1
  Zr  Zr44  1  0.29836990  0.69650853  0.10106037  1
  Zr  Zr45  1  0.29917559  0.09781238  0.89565163  1
  Zr  Zr46  1  0.70863552  0.49873140  0.09867032  1
  Zr  Zr47  1  0.69774329  0.50502666  0.90395552  1
  Zr  Zr48  1  0.30349334  0.30226809  0.49869266  1
  Zr  Zr49  1  0.30101091  0.10256526  0.69797271  1
  Sc  Sc50  1  0.70098304  0.09479714  0.49230893  1
  Sc  Sc51  1  0.90238082  0.89225442  0.48669590  1
  Sc  Sc52  1  0.49501444  0.50533569  0.71111292  1
  Sc  Sc53  1  0.29746498  0.90668460  0.69404425  1
  Sc  Sc54  1  0.29905599  0.89609516  0.10148209  1
  Sc  Sc55  1  0.70016528  0.10619690  0.10398048  1
  Sc  Sc56  1  0.10160449  0.89888008  0.49246373  1
  Sc  Sc57  1  0.90827754  0.70203541  0.50138677  1
  Sc  Sc58  1  0.30837848  0.50275927  0.70589549  1
  Sc  Sc59  1  0.70017072  0.89879121  0.10601769  1
  Sc  Sc60  1  0.49310761  0.29732202  0.50515544  1
  Sc  Sc61  1  0.50004565  0.30605592  0.29110400  1
  Sc  Sc62  1  0.50092801  0.10747255  0.09910630  1
  Sc  Sc63  1  0.10088263  0.29457186  0.29345218  1
  Sc  Sc64  1  0.89589611  0.30484810  0.90489224  1
  Sc  Sc65  1  0.29450225  0.89832505  0.49958529  1
  Sc  Sc66  1  0.30222792  0.50070634  0.30144470  1
  Sc  Sc67  1  0.29878038  0.09356762  0.29914075  1
  Sc  Sc68  1  0.10951676  0.09348375  0.90930175  1
  Sc  Sc69  1  0.10176922  0.50211197  0.90298454  1
  Sc  Sc70  1  0.49828491  0.89752664  0.50081400  1
  Sc  Sc71  1  0.50409452  0.69572753  0.90724485  1
  Sc  Sc72  1  0.09852976  0.90452583  0.09889240  1
  Sc  Sc73  1  0.49824402  0.69801551  0.50088834  1
  Sc  Sc74  1  0.49033624  0.09790280  0.29875074  1
  Sc  Sc75  1  0.09805002  0.70868310  0.49928865  1
  Sc  Sc76  1  0.69685231  0.70342284  0.48657199  1
  Sc  Sc77  1  0.89774732  0.89630432  0.29201666  1
  Sc  Sc78  1  0.69104173  0.90666929  0.89453243  1
  Sc  Sc79  1  0.89914658  0.09756704  0.10978269  1
  Sc  Sc80  1  0.10601164  0.31086207  0.89828508  1
  Sc  Sc81  1  0.30006823  0.30349913  0.29926261  1
  Sc  Sc82  1  0.70418791  0.49885597  0.71255871  1
  Sc  Sc83  1  0.10741846  0.49891802  0.28963615  1
  Sc  Sc84  1  0.29938179  0.10266309  0.09928411  1
  Sc  Sc85  1  0.10378933  0.09926995  0.10584897  1
  Sc  Sc86  1  0.70334976  0.09439130  0.29758407  1
  Sc  Sc87  1  0.10210144  0.69516873  0.10528929  1
  Sc  Sc88  1  0.89791994  0.30362071  0.70163684  1
  Sc  Sc89  1  0.30159935  0.69756360  0.70560132  1
  Sc  Sc90  1  0.10774640  0.70034995  0.89672890  1
  Sc  Sc91  1  0.69400379  0.89490729  0.71014870  1
  Sc  Sc92  1  0.10460638  0.69967297  0.29542270  1
  Sc  Sc93  1  0.49621989  0.50489367  0.49152499  1
  Sc  Sc94  1  0.69392454  0.10248870  0.90421404  1
  Sc  Sc95  1  0.30734083  0.49787552  0.49156732  1
  Sc  Sc96  1  0.30143588  0.29837925  0.90440080  1
  Sc  Sc97  1  0.09440548  0.28942271  0.48690151  1
  Sc  Sc98  1  0.89769515  0.10293928  0.29939239  1
  Sc  Sc99  1  0.70779760  0.89624831  0.30358487  1
  Nb  Nb100  1  0.49797435  0.09871566  0.89969674  1
  Nb  Nb101  1  0.10649534  0.90146337  0.90110316  1
  Nb  Nb102  1  0.68778478  0.29558209  0.10210151  1
  Nb  Nb103  1  0.89904450  0.89885299  0.70785288  1
  Nb  Nb104  1  0.89920030  0.30024936  0.29665758  1
  Nb  Nb105  1  0.10145531  0.09892905  0.31252894  1
  Nb  Nb106  1  0.70215421  0.69906737  0.29796753  1
  Nb  Nb107  1  0.29510046  0.70194622  0.29843440  1
  Nb  Nb108  1  0.49955998  0.90702282  0.89653440  1
  Nb  Nb109  1  0.90648597  0.50010660  0.09884552  1
  Nb  Nb110  1  0.50432027  0.50073343  0.90145445  1
  Nb  Nb111  1  0.90582541  0.89743751  0.89907595  1
  Nb  Nb112  1  0.29233860  0.49369029  0.09837963  1
  Nb  Nb113  1  0.50026115  0.49581191  0.30092356  1
  Nb  Nb114  1  0.90762431  0.10483356  0.50252932  1
  Nb  Nb115  1  0.50380011  0.29538573  0.90363478  1
  Nb  Nb116  1  0.29483921  0.89846163  0.90228652  1
  Nb  Nb117  1  0.50239264  0.09895654  0.50150588  1
  Nb  Nb118  1  0.50239988  0.90194741  0.70185314  1
  Nb  Nb119  1  0.10192455  0.30296481  0.70065885  1
  Nb  Nb120  1  0.89794782  0.49720193  0.50091373  1
  Nb  Nb121  1  0.70229244  0.69880738  0.70034351  1
  Nb  Nb122  1  0.09051739  0.10261990  0.49278735  1
  Nb  Nb123  1  0.30082793  0.31258851  0.09940453  1
  Nb  Nb124  1  0.90047013  0.09624122  0.70346342  1
  Nb  Nb125  1  0.40348150  0.81095140  0.80477653  1
  Nb  Nb126  1  0.79896033  0.60609006  0.60171731  1
  Nb  Nb127  1  0.19538489  0.20321861  0.59773653  1
  Nb  Nb128  1  -0.00818665  0.40277901  0.39626953  1
  Nb  Nb129  1  0.59659924  0.19757629  0.40099844  1
  Nb  Nb130  1  0.00150221  0.19682672  0.80305481  1
  Nb  Nb131  1  -0.00007661  0.20251038  0.00000058  1
  Nb  Nb132  1  0.19928924  0.59394767  0.60013179  1
  Nb  Nb133  1  0.80593551  0.18874385  0.60045857  1
  Nb  Nb134  1  0.80435249  -0.00317681  0.60231350  1
  Nb  Nb135  1  0.80377058  0.80417425  -0.00502610  1
  Nb  Nb136  1  0.19557240  0.39652601  0.60038901  1
  Nb  Nb137  1  0.80492900  -0.00759207  -0.00079774  1
  Nb  Nb138  1  0.79874737  0.80131518  0.60451920  1
  Nb  Nb139  1  0.00022165  -0.00230731  0.80006441  1
  Nb  Nb140  1  0.59575188  0.39548005  -0.00070885  1
  Nb  Nb141  1  0.59520723  -0.00239444  0.20196060  1
  Nb  Nb142  1  0.60090051  0.00071202  0.60302248  1
  Nb  Nb143  1  0.39541620  0.79436786  0.39113461  1
  Nb  Nb144  1  -0.00515514  0.59199387  0.39605974  1
  Nb  Nb145  1  0.60008094  0.40469506  0.60343388  1
  Nb  Nb146  1  0.60804851  0.59811861  0.60302958  1
  Nb  Nb147  1  -0.00769635  0.00249654  0.60020569  1
  Nb  Nb148  1  0.00388088  0.39790509  0.59522731  1
  Nb  Nb149  1  0.40144662  -0.00274298  -0.00952124  1
  Pd  Pd150  1  0.40515477  0.20381607  0.39457866  1
  Pd  Pd151  1  0.39554622  0.79864919  0.20410662  1
  Pd  Pd152  1  0.19272986  0.60340266  0.40167708  1
  Pd  Pd153  1  0.60750163  0.79999586  0.59958654  1
  Pd  Pd154  1  0.19218770  0.80164803  0.00847996  1
  Pd  Pd155  1  0.80141993  0.39889392  0.38838896  1
  Pd  Pd156  1  0.39563981  -0.00457142  0.79984357  1
  Pd  Pd157  1  -0.00481131  0.00945971  -0.00436849  1
  Pd  Pd158  1  0.79518790  0.19540489  0.39989753  1
  Pd  Pd159  1  0.39266287  0.59511028  0.20260533  1
  Pd  Pd160  1  0.79616757  0.60646291  0.19448378  1
  Pd  Pd161  1  0.40325940  0.40039406  -0.00737163  1
  Pd  Pd162  1  0.39968170  0.39685279  0.81097164  1
  Pd  Pd163  1  0.59588892  0.19379606  0.80056050  1
  Pd  Pd164  1  0.59611581  0.40154620  0.80108493  1
  Pd  Pd165  1  0.19772171  0.00047222  0.19808264  1
  Pd  Pd166  1  0.19345252  0.20150344  0.80202181  1
  Pd  Pd167  1  0.39410350  0.80447498  0.60065676  1
  Pd  Pd168  1  0.80439626  0.19632273  0.01008895  1
  Pd  Pd169  1  0.60523342  0.80481793  0.20791629  1
  Pd  Pd170  1  0.59358264  0.79314830  0.80593357  1
  Pd  Pd171  1  -0.00515909  0.39620790  0.80301132  1
  Pd  Pd172  1  0.80696190  0.60831228  0.40552264  1
  Pd  Pd173  1  0.60088621  0.59509243  0.19274552  1
  Pd  Pd174  1  -0.00627676  -0.00187759  0.39717772  1
  Pd  Pd175  1  0.20702675  0.20090112  0.20058597  1
  Pd  Pd176  1  0.19533695  -0.00584051  0.79578461  1
  Pd  Pd177  1  0.79358791  0.39313692  0.00347705  1
  Pd  Pd178  1  0.80985482  0.59672238  0.79690788  1
  Pd  Pd179  1  0.59005860  0.39057294  0.40757950  1
  Pd  Pd180  1  -0.00118585  0.20490192  0.60750584  1
  Pd  Pd181  1  0.80787787  0.40476158  0.80259551  1
  Pd  Pd182  1  0.20662694  0.78803733  0.60100396  1
  Pd  Pd183  1  0.60174970  0.00468547  0.00880767  1
  Pd  Pd184  1  0.59108248  0.79720236  0.39240340  1
  Pd  Pd185  1  0.40412334  0.40888610  0.60071243  1
  Pd  Pd186  1  0.80983321  0.00059583  0.40159664  1
  Pd  Pd187  1  0.00503605  0.00306369  0.20949880  1
  Pd  Pd188  1  0.20594050  0.19686296  0.40141510  1
  Pd  Pd189  1  0.39714295  0.19570944  -0.00098075  1
  Pd  Pd190  1  0.00703830  0.79485860  -0.00007438  1
  Pd  Pd191  1  0.19571067  0.20488841  0.00306061  1
  Pd  Pd192  1  0.60660139  0.80330987  -0.00981195  1
  Pd  Pd193  1  0.19247237  0.39690328  0.39941590  1
  Pd  Pd194  1  0.00248260  0.19582012  0.19822443  1
  Pd  Pd195  1  0.39997113  0.59926494  0.00027864  1
  Pd  Pd196  1  0.39857036  -0.00795145  0.40685570  1
  Pd  Pd197  1  0.60860668  0.19601339  0.59418473  1
  Pd  Pd198  1  0.18932142  0.00638257  0.58941220  1
  Pd  Pd199  1  0.39270672  0.20131611  0.20191753  1
  Rh  Rh200  1  0.59330161  0.00914286  0.79322168  1
  Rh  Rh201  1  0.80608547  0.20948479  0.79542550  1
  Rh  Rh202  1  0.00047983  0.59742994  0.59106624  1
  Rh  Rh203  1  0.19749106  0.80047027  0.19634390  1
  Rh  Rh204  1  0.40208670  0.60383444  0.39002459  1
  Rh  Rh205  1  0.20288278  0.40237456  -0.00379226  1
  Rh  Rh206  1  0.40493561  0.39810289  0.39358333  1
  Rh  Rh207  1  0.40073167  0.59533272  0.60180838  1
  Rh  Rh208  1  0.39254465  0.19996548  0.59724060  1
  Rh  Rh209  1  0.80098241  0.79517246  0.40085239  1
  Rh  Rh210  1  0.20598258  0.59614035  0.19656390  1
  Rh  Rh211  1  0.79079813  0.39825567  0.19979236  1
  Rh  Rh212  1  0.80561181  0.61048292  0.00475705  1
  Rh  Rh213  1  0.79327735  0.80483700  0.80435487  1
  Rh  Rh214  1  0.00199632  0.40258683  0.20566895  1
  Rh  Rh215  1  0.79246762  -0.00041049  0.19437679  1
  Rh  Rh216  1  0.59520673  0.60387787  0.79479154  1
  Rh  Rh217  1  0.40317252  0.61128681  0.80971415  1
  Rh  Rh218  1  0.19854247  0.00491118  0.40358910  1
  Rh  Rh219  1  0.59270934  0.58873840  0.00805405  1
  Rh  Rh220  1  0.59326995  0.00718921  0.39732558  1
  Rh  Rh221  1  0.79909687  0.20426336  0.19831050  1
  Rh  Rh222  1  0.79496782  0.79306387  0.19260162  1
  Rh  Rh223  1  0.40091980  0.80657401  -0.00846545  1
  Rh  Rh224  1  0.40809535  -0.00562174  0.59602854  1
  Rh  Rh225  1  -0.00888408  0.81220876  0.59467535  1
  Rh  Rh226  1  0.80256579  -0.01040094  0.80747154  1
  Rh  Rh227  1  0.20990113  -0.00287105  0.00701164  1
  Rh  Rh228  1  0.39226945  0.40296363  0.20409849  1
  Rh  Rh229  1  0.00397364  0.79273598  0.39150902  1
  Rh  Rh230  1  0.40320032  0.20193997  0.80779737  1
  Rh  Rh231  1  -0.00424079  0.20362281  0.38530149  1
  Rh  Rh232  1  0.60269290  0.40755404  0.19164677  1
  Rh  Rh233  1  0.01454722  0.80613469  0.80856723  1
  Rh  Rh234  1  0.80161348  0.40499944  0.61001845  1
  Rh  Rh235  1  0.20363839  0.39978532  0.20028771  1
  Rh  Rh236  1  0.20299072  0.60261667  0.79693029  1
  Rh  Rh237  1  0.00234583  0.59667332  0.20543843  1
  Rh  Rh238  1  0.19896342  0.59980437  0.00223801  1
  Rh  Rh239  1  0.59838816  0.18847964  0.21190509  1
  Rh  Rh240  1  0.00638542  0.60424554  -0.00087294  1
  Rh  Rh241  1  0.20468548  0.80233579  0.79587933  1
  Rh  Rh242  1  0.20627770  0.79557247  0.40089666  1
  Rh  Rh243  1  0.20937802  0.40260802  0.80065236  1
  Rh  Rh244  1  0.40566938  0.00322750  0.18377781  1
  Rh  Rh245  1  0.59774682  0.60190192  0.40320758  1
  Rh  Rh246  1  0.00913077  0.80135472  0.20092348  1
  Rh  Rh247  1  0.00177323  0.59836344  0.81173049  1
  Rh  Rh248  1  0.00115231  0.39444670  0.00134999  1
  Rh  Rh249  1  0.59718543  0.20295950  -0.00066668  1
