# generated using pymatgen
data_ZrScNbPdRh
_symmetry_space_group_name_H-M   'P 1'
_cell_length_a   16.55418470
_cell_length_b   16.55166540
_cell_length_c   16.55336329
_cell_angle_alpha   90.03217391
_cell_angle_beta   90.02371383
_cell_angle_gamma   90.02825107
_symmetry_Int_Tables_number   1
_chemical_formula_structural   ZrScNbPdRh
_chemical_formula_sum   'Zr50 Sc50 Nb50 Pd50 Rh50'
_cell_volume   4535.60873042
_cell_formula_units_Z   50
loop_
 _symmetry_equiv_pos_site_id
 _symmetry_equiv_pos_as_xyz
  1  'x, y, z'
loop_
 _atom_site_type_symbol
 _atom_site_label
 _atom_site_symmetry_multiplicity
 _atom_site_fract_x
 _atom_site_fract_y
 _atom_site_fract_z
 _atom_site_occupancy
  Zr  Zr0  1  0.90097466  0.50118096  0.89717585  1
  Zr  Zr1  1  0.09125800  0.90414794  0.90329144  1
  Zr  Zr2  1  0.69294165  0.70266754  0.90466034  1
  Zr  Zr3  1  0.70824446  0.09327114  0.30157891  1
  Zr  Zr4  1  0.10156945  0.10923054  0.71131545  1
  Zr  Zr5  1  0.70191149  0.09488913  0.09798493  1
  Zr  Zr6  1  0.30637976  0.10265904  0.29732576  1
  Zr  Zr7  1  0.30413694  0.88648201  0.69623950  1
  Zr  Zr8  1  0.70475084  0.70595111  0.30749261  1
  Zr  Zr9  1  0.50080756  0.90061281  0.50588865  1
  Zr  Zr10  1  0.10108975  0.30223979  0.69539132  1
  Zr  Zr11  1  0.69783105  0.88835036  0.49141182  1
  Zr  Zr12  1  0.70420197  0.50656167  0.49465281  1
  Zr  Zr13  1  0.89764758  0.29100126  0.30456356  1
  Zr  Zr14  1  0.89227525  0.90133930  0.30254406  1
  Zr  Zr15  1  0.50304383  0.50905876  0.29478083  1
  Zr  Zr16  1  0.30595952  0.89592832  0.90419919  1
  Zr  Zr17  1  0.10077496  0.30362657  0.09688366  1
  Zr  Zr18  1  0.09581628  0.89985206  0.10180359  1
  Zr  Zr19  1  0.88948336  0.30127780  0.90539349  1
  Zr  Zr20  1  0.29831177  0.29830497  0.69659188  1
  Zr  Zr21  1  0.29625495  0.49245127  0.09472991  1
  Zr  Zr22  1  0.70010690  0.70394640  0.10027359  1
  Zr  Zr23  1  0.09224874  0.89980796  0.30526062  1
  Zr  Zr24  1  0.30252811  0.50697247  0.90193490  1
  Zr  Zr25  1  0.30003518  0.69782509  0.30237880  1
  Zr  Zr26  1  0.29774017  0.69585697  0.70822231  1
  Zr  Zr27  1  0.29834109  0.89902784  0.29666435  1
  Zr  Zr28  1  0.50333734  0.50076735  0.50230765  1
  Zr  Zr29  1  0.10222632  0.30085823  0.29496127  1
  Zr  Zr30  1  0.89416813  0.10440678  0.49738974  1
  Zr  Zr31  1  0.70471842  0.70212799  0.69618014  1
  Zr  Zr32  1  0.09495110  0.29093843  0.89439248  1
  Zr  Zr33  1  0.90663647  0.89378448  0.51255492  1
  Zr  Zr34  1  0.50193478  0.09651092  0.49696926  1
  Zr  Zr35  1  0.70395211  0.89868071  0.09713200  1
  Zr  Zr36  1  0.30130678  0.90002107  0.10374751  1
  Zr  Zr37  1  0.29745978  0.09273320  0.49804640  1
  Zr  Zr38  1  0.89374169  0.10707106  0.10130132  1
  Zr  Zr39  1  0.69515271  0.49567583  0.70133839  1
  Zr  Zr40  1  0.90883568  0.50615390  0.09407458  1
  Zr  Zr41  1  0.29881343  0.10104145  0.70106000  1
  Zr  Zr42  1  0.29956114  0.29870446  0.29278733  1
  Zr  Zr43  1  0.90076904  0.89928342  0.89408484  1
  Zr  Zr44  1  0.89924983  0.70241600  0.09547328  1
  Zr  Zr45  1  0.70285394  0.89765980  0.29618750  1
  Zr  Zr46  1  0.10137594  0.50833308  0.31359557  1
  Zr  Zr47  1  0.49864914  0.50366723  0.09110610  1
  Zr  Zr48  1  0.29923788  0.69851889  0.89418852  1
  Zr  Zr49  1  0.09127009  0.70036394  0.10807288  1
  Sc  Sc50  1  0.89962654  0.50266890  0.31201762  1
  Sc  Sc51  1  0.08459906  0.09423071  0.10005951  1
  Sc  Sc52  1  0.50586241  0.89835051  0.69952808  1
  Sc  Sc53  1  0.89409325  0.30703439  0.49840118  1
  Sc  Sc54  1  0.90073901  0.90208574  0.09815484  1
  Sc  Sc55  1  0.70785486  0.30438877  0.70189964  1
  Sc  Sc56  1  0.70275942  0.49135858  0.89524967  1
  Sc  Sc57  1  0.29855657  0.50158488  0.49668110  1
  Sc  Sc58  1  0.91008527  0.70149335  0.30604028  1
  Sc  Sc59  1  0.31038363  0.70730246  0.10081175  1
  Sc  Sc60  1  0.50281001  0.30914741  0.69441740  1
  Sc  Sc61  1  0.30134119  0.29867183  0.49751498  1
  Sc  Sc62  1  0.30264305  0.30033848  0.90464192  1
  Sc  Sc63  1  0.50429185  0.30115743  0.09255318  1
  Sc  Sc64  1  0.29521702  0.30150410  0.10110003  1
  Sc  Sc65  1  0.10367387  0.50010242  0.09837174  1
  Sc  Sc66  1  0.51024126  0.90085059  0.29943349  1
  Sc  Sc67  1  0.69645992  0.09774118  0.50279185  1
  Sc  Sc68  1  0.50223780  0.10052639  0.29487582  1
  Sc  Sc69  1  0.68782165  0.50425688  0.10068282  1
  Sc  Sc70  1  0.50218678  0.10252705  0.09700289  1
  Sc  Sc71  1  0.70197453  0.09504692  0.70484927  1
  Sc  Sc72  1  0.30380332  0.10366106  0.90288418  1
  Sc  Sc73  1  0.51390944  0.69713052  0.50270239  1
  Sc  Sc74  1  0.49910465  0.28676717  0.29645479  1
  Sc  Sc75  1  0.49667586  0.50124548  0.68962727  1
  Sc  Sc76  1  0.89982764  0.51157063  0.70022248  1
  Sc  Sc77  1  0.49644024  0.89854310  0.09963569  1
  Sc  Sc78  1  0.90450581  0.50464550  0.50169760  1
  Sc  Sc79  1  0.09366809  0.08910395  0.49539419  1
  Sc  Sc80  1  0.70137491  0.29993453  0.29948091  1
  Sc  Sc81  1  0.90169595  0.10419470  0.90199248  1
  Sc  Sc82  1  0.49943032  0.29481469  0.49897523  1
  Sc  Sc83  1  0.90831124  0.69326856  0.89861535  1
  Sc  Sc84  1  0.50407736  0.69568794  0.29738906  1
  Sc  Sc85  1  0.70208366  0.29512053  0.09076474  1
  Sc  Sc86  1  0.49253096  0.69844957  0.69611584  1
  Sc  Sc87  1  0.09930498  0.31273788  0.50191377  1
  Sc  Sc88  1  0.50717373  0.09258475  0.69395062  1
  Sc  Sc89  1  0.70107004  0.50462303  0.30075529  1
  Sc  Sc90  1  0.29688447  0.89749565  0.50719417  1
  Sc  Sc91  1  0.29633226  0.70574077  0.51164025  1
  Sc  Sc92  1  0.10379908  0.51203495  0.90327908  1
  Sc  Sc93  1  0.70699389  0.29783973  0.49828548  1
  Sc  Sc94  1  0.31028957  0.09659524  0.10186510  1
  Sc  Sc95  1  0.49040666  0.69883295  0.90411570  1
  Sc  Sc96  1  0.09602409  0.70393069  0.70814634  1
  Sc  Sc97  1  0.50613349  0.89703640  0.89676766  1
  Sc  Sc98  1  0.89127698  0.09137824  0.70133851  1
  Sc  Sc99  1  0.70522575  0.09442111  0.89917415  1
  Nb  Nb100  1  0.30081280  0.50288652  0.29967891  1
  Nb  Nb101  1  0.69699188  0.90179334  0.88775208  1
  Nb  Nb102  1  0.50256031  0.30505682  0.89701917  1
  Nb  Nb103  1  0.49982869  0.10670030  0.89437378  1
  Nb  Nb104  1  0.90220328  0.30368309  0.09740882  1
  Nb  Nb105  1  0.89384944  0.70266187  0.50917398  1
  Nb  Nb106  1  0.09028808  0.89745504  0.69774659  1
  Nb  Nb107  1  0.49923249  0.49667702  0.89939036  1
  Nb  Nb108  1  0.90058234  0.88738508  0.70122333  1
  Nb  Nb109  1  0.09480203  0.69751599  0.49281425  1
  Nb  Nb110  1  0.09660802  0.49642506  0.69515520  1
  Nb  Nb111  1  0.10018451  0.09834825  0.90301140  1
  Nb  Nb112  1  0.90045057  0.71193158  0.69532274  1
  Nb  Nb113  1  0.29959143  0.50220966  0.70188802  1
  Nb  Nb114  1  0.69949871  0.30162004  0.88909620  1
  Nb  Nb115  1  0.10306900  0.70198465  0.90148821  1
  Nb  Nb116  1  0.70803705  0.90003880  0.72066848  1
  Nb  Nb117  1  0.90678386  0.09948944  0.29949108  1
  Nb  Nb118  1  0.50872040  0.69154066  0.09367512  1
  Nb  Nb119  1  0.89990170  0.30231105  0.70113534  1
  Nb  Nb120  1  0.09739970  0.50637351  0.50453447  1
  Nb  Nb121  1  0.70644888  0.69889940  0.49781215  1
  Nb  Nb122  1  0.10205093  0.89532556  0.50351133  1
  Nb  Nb123  1  0.10047059  0.70097780  0.30333540  1
  Nb  Nb124  1  0.09593159  0.09669663  0.30212922  1
  Nb  Nb125  1  0.19420537  0.00063839  0.20607221  1
  Nb  Nb126  1  0.39866086  0.80217085  0.40159921  1
  Nb  Nb127  1  0.19501166  0.19441580  0.39208352  1
  Nb  Nb128  1  -0.00447302  0.39954442  0.20135569  1
  Nb  Nb129  1  0.19203555  0.19397748  0.00049771  1
  Nb  Nb130  1  0.20024223  0.60369143  0.20729211  1
  Nb  Nb131  1  -0.00371527  0.20257928  0.60301948  1
  Nb  Nb132  1  0.19096084  -0.00781917  0.61011606  1
  Nb  Nb133  1  0.39816176  0.00045690  0.79902038  1
  Nb  Nb134  1  0.39984469  -0.00583214  0.40041274  1
  Nb  Nb135  1  0.59900690  0.20553902  0.80494877  1
  Nb  Nb136  1  0.19564125  0.80055770  -0.00039561  1
  Nb  Nb137  1  0.19578427  0.79860162  0.40021347  1
  Nb  Nb138  1  0.39980150  0.19434469  0.59997777  1
  Nb  Nb139  1  0.20012542  0.40532942  0.79572978  1
  Nb  Nb140  1  0.80517918  0.60013845  0.19843796  1
  Nb  Nb141  1  0.19960409  -0.00367027  0.80029293  1
  Nb  Nb142  1  0.40370569  0.40404729  0.39116664  1
  Nb  Nb143  1  0.59624738  0.59564685  0.80088477  1
  Nb  Nb144  1  0.19099991  0.59651443  0.60202004  1
  Nb  Nb145  1  0.00255323  0.40077580  0.79515740  1
  Nb  Nb146  1  0.80944194  0.40253392  0.19415468  1
  Nb  Nb147  1  0.59395491  0.40277258  0.39818252  1
  Nb  Nb148  1  0.40087960  0.40533327  0.20347607  1
  Nb  Nb149  1  0.39811147  0.40511179  0.80059957  1
  Pd  Pd150  1  0.39208191  0.60239509  0.59419953  1
  Pd  Pd151  1  0.20789407  0.40782547  0.59761903  1
  Pd  Pd152  1  -0.00888618  0.80384722  0.20358611  1
  Pd  Pd153  1  0.59944176  0.39356994  0.20405887  1
  Pd  Pd154  1  0.79100414  0.40619361  0.00686601  1
  Pd  Pd155  1  0.60640934  0.20294527  0.39829272  1
  Pd  Pd156  1  -0.01360368  0.20172726  0.79596308  1
  Pd  Pd157  1  0.59607016  -0.00201593  -0.00584859  1
  Pd  Pd158  1  0.60671048  0.39997000  -0.00318092  1
  Pd  Pd159  1  0.80530075  0.78837163  0.80967452  1
  Pd  Pd160  1  0.61577532  -0.01073657  0.60523974  1
  Pd  Pd161  1  0.59470927  0.80637906  0.00072611  1
  Pd  Pd162  1  -0.00160242  0.39912973  0.39928913  1
  Pd  Pd163  1  0.41099784  0.00089181  -0.00718703  1
  Pd  Pd164  1  0.00114584  0.00774308  0.60646530  1
  Pd  Pd165  1  0.79513878  0.60630221  0.80101701  1
  Pd  Pd166  1  0.79167635  0.59373487  0.00232886  1
  Pd  Pd167  1  0.80414042  0.40816134  0.60066335  1
  Pd  Pd168  1  0.80154508  -0.00272593  0.40872793  1
  Pd  Pd169  1  0.39396502  0.59769906  0.18992027  1
  Pd  Pd170  1  0.80361683  -0.00338121  -0.00564303  1
  Pd  Pd171  1  0.60611455  0.19993054  0.19687340  1
  Pd  Pd172  1  0.00692676  0.20499240  0.41156859  1
  Pd  Pd173  1  0.39930871  0.60508690  0.41113135  1
  Pd  Pd174  1  0.00333600  0.60888791  0.60415466  1
  Pd  Pd175  1  0.19505533  0.18502885  0.19354478  1
  Pd  Pd176  1  0.20086466  0.00299282  0.00428521  1
  Pd  Pd177  1  0.80216621  0.20058769  0.60521613  1
  Pd  Pd178  1  0.79992102  0.59686532  0.60158833  1
  Pd  Pd179  1  0.79482104  0.20501551  0.19978630  1
  Pd  Pd180  1  -0.00846861  -0.00444072  0.40453654  1
  Pd  Pd181  1  0.59604327  0.79676139  0.19775765  1
  Pd  Pd182  1  0.39612051  0.20570387  0.00371085  1
  Pd  Pd183  1  0.60543433  0.39368141  0.59015241  1
  Pd  Pd184  1  0.59792873  0.00090903  0.19637847  1
  Pd  Pd185  1  -0.00187035  0.00255230  0.79528598  1
  Pd  Pd186  1  0.20611833  0.39598302  0.40161521  1
  Pd  Pd187  1  -0.00028116  0.20381718  0.19619017  1
  Pd  Pd188  1  0.19265210  0.80826417  0.80589873  1
  Pd  Pd189  1  0.79272267  -0.01047515  0.60058087  1
  Pd  Pd190  1  0.40949164  0.20385411  0.79119117  1
  Pd  Pd191  1  0.00747272  0.40380468  -0.00619366  1
  Pd  Pd192  1  0.41328388  0.79717009  0.20450181  1
  Pd  Pd193  1  0.80194058  0.80386756  -0.00895991  1
  Pd  Pd194  1  0.20242163  0.61374461  0.01395506  1
  Pd  Pd195  1  0.59171914  0.78785063  0.79544253  1
  Pd  Pd196  1  0.60065136  0.20445680  0.60915337  1
  Pd  Pd197  1  0.60630624  0.19757944  -0.00951161  1
  Pd  Pd198  1  0.19266681  0.19192217  0.58356607  1
  Pd  Pd199  1  0.60581037  0.80168306  0.60756292  1
  Rh  Rh200  1  0.80649688  0.60778146  0.39768947  1
  Rh  Rh201  1  0.79515515  0.20127988  -0.00333336  1
  Rh  Rh202  1  0.00123162  0.19803945  0.00282026  1
  Rh  Rh203  1  0.20592034  0.20051482  0.81531790  1
  Rh  Rh204  1  0.80600881  0.79290104  0.20038943  1
  Rh  Rh205  1  0.00634716  0.60381814  -0.00416119  1
  Rh  Rh206  1  0.59314345  0.79639912  0.39969961  1
  Rh  Rh207  1  0.40742256  0.80555296  0.79956938  1
  Rh  Rh208  1  0.40871105  0.79375336  0.59375488  1
  Rh  Rh209  1  -0.01046482  0.39657481  0.60330909  1
  Rh  Rh210  1  -0.00247310  0.79564655  0.80288098  1
  Rh  Rh211  1  -0.00120097  0.79970307  0.40763156  1
  Rh  Rh212  1  0.81109169  0.79751713  0.40582040  1
  Rh  Rh213  1  0.19033402  0.59448396  0.79071311  1
  Rh  Rh214  1  0.60848091  0.60262812  0.60791421  1
  Rh  Rh215  1  -0.01110175  0.00439626  0.00026199  1
  Rh  Rh216  1  0.60094208  0.59607181  -0.01191813  1
  Rh  Rh217  1  0.79461495  0.19919027  0.79960522  1
  Rh  Rh218  1  0.00362648  0.79617951  -0.00416457  1
  Rh  Rh219  1  0.19260363  0.80042991  0.20047629  1
  Rh  Rh220  1  0.80705772  -0.00131399  0.80379698  1
  Rh  Rh221  1  0.39103649  0.00238891  0.60324332  1
  Rh  Rh222  1  0.00588082  0.79094884  0.59904588  1
  Rh  Rh223  1  0.40175481  0.79681619  0.00148099  1
  Rh  Rh224  1  0.59014854  0.40164333  0.79820927  1
  Rh  Rh225  1  0.81153200  0.40157699  0.79549519  1
  Rh  Rh226  1  0.39394834  0.39296007  0.59727197  1
  Rh  Rh227  1  0.39420702  0.19587817  0.40882080  1
  Rh  Rh228  1  0.60488076  0.59912291  0.39897872  1
  Rh  Rh229  1  0.40701496  0.20885204  0.18694372  1
  Rh  Rh230  1  0.00231082  0.59106108  0.20685655  1
  Rh  Rh231  1  0.20291874  -0.00371186  0.39799576  1
  Rh  Rh232  1  0.41065708  0.59127221  0.79969052  1
  Rh  Rh233  1  0.80510703  0.00141466  0.19844220  1
  Rh  Rh234  1  0.19653752  0.41528589  0.20564404  1
  Rh  Rh235  1  0.79623038  0.19476636  0.39896095  1
  Rh  Rh236  1  0.59365577  0.00899578  0.80343537  1
  Rh  Rh237  1  -0.00756365  0.60519643  0.40738749  1
  Rh  Rh238  1  0.19363864  0.38941732  -0.01413210  1
  Rh  Rh239  1  0.61156730  0.61050156  0.20161689  1
  Rh  Rh240  1  0.18653243  0.79392616  0.59709508  1
  Rh  Rh241  1  0.40168686  0.00052815  0.20523400  1
  Rh  Rh242  1  0.59789887  0.00099896  0.39714718  1
  Rh  Rh243  1  0.00410755  0.59905013  0.79844692  1
  Rh  Rh244  1  0.20305977  0.60753932  0.40551716  1
  Rh  Rh245  1  0.79142828  0.80772859  0.60253574  1
  Rh  Rh246  1  -0.00484312  -0.00056817  0.20236977  1
  Rh  Rh247  1  0.40236528  0.39625282  0.00006417  1
  Rh  Rh248  1  0.39890699  0.60300826  0.00170054  1
  Rh  Rh249  1  0.79028626  0.40011208  0.39249239  1
