# generated using pymatgen
data_ZrScNbPdRh
_symmetry_space_group_name_H-M   'P 1'
_cell_length_a   16.55852370
_cell_length_b   16.56159364
_cell_length_c   16.56007865
_cell_angle_alpha   90.03118470
_cell_angle_beta   89.99482167
_cell_angle_gamma   89.97516947
_symmetry_Int_Tables_number   1
_chemical_formula_structural   ZrScNbPdRh
_chemical_formula_sum   'Zr50 Sc50 Nb50 Pd50 Rh50'
_cell_volume   4541.36100392
_cell_formula_units_Z   50
loop_
 _symmetry_equiv_pos_site_id
 _symmetry_equiv_pos_as_xyz
  1  'x, y, z'
loop_
 _atom_site_type_symbol
 _atom_site_label
 _atom_site_symmetry_multiplicity
 _atom_site_fract_x
 _atom_site_fract_y
 _atom_site_fract_z
 _atom_site_occupancy
  Zr  Zr0  1  0.11103152  0.11089524  0.69400943  1
  Zr  Zr1  1  0.69542161  0.89795481  0.10519481  1
  Zr  Zr2  1  0.70128632  0.10837950  0.10552876  1
  Zr  Zr3  1  0.89897978  0.68636996  0.29881643  1
  Zr  Zr4  1  0.30455241  0.50244888  0.70118532  1
  Zr  Zr5  1  0.30257183  0.51007400  0.49783902  1
  Zr  Zr6  1  0.50184764  0.09925489  0.10684028  1
  Zr  Zr7  1  0.49951962  0.50313347  0.09653629  1
  Zr  Zr8  1  0.70110032  0.69532770  0.29404961  1
  Zr  Zr9  1  0.49557422  0.69233994  0.29856059  1
  Zr  Zr10  1  0.89801605  0.31114756  0.89526785  1
  Zr  Zr11  1  0.70287554  0.89238826  0.69801032  1
  Zr  Zr12  1  0.30271143  0.70225843  0.30132340  1
  Zr  Zr13  1  0.70309284  0.89305659  0.50283315  1
  Zr  Zr14  1  0.09122515  0.49480975  0.29287933  1
  Zr  Zr15  1  0.09954455  0.49839647  0.90400936  1
  Zr  Zr16  1  0.89722046  0.91045802  0.50100731  1
  Zr  Zr17  1  0.10569712  0.90240770  0.10494784  1
  Zr  Zr18  1  0.49443501  0.69761382  0.10404500  1
  Zr  Zr19  1  0.48587101  0.09944221  0.50083923  1
  Zr  Zr20  1  0.10126112  0.90433571  0.69094804  1
  Zr  Zr21  1  0.70609811  0.10089772  0.90014662  1
  Zr  Zr22  1  0.49460985  0.09558291  0.90513054  1
  Zr  Zr23  1  0.89813428  0.10940109  0.90101028  1
  Zr  Zr24  1  0.30273183  0.90384205  0.49790615  1
  Zr  Zr25  1  0.29539739  0.29835643  0.30138410  1
  Zr  Zr26  1  0.09148720  0.69908488  0.69837269  1
  Zr  Zr27  1  0.29856740  0.49519977  0.09809286  1
  Zr  Zr28  1  0.09451298  0.30328117  0.69351980  1
  Zr  Zr29  1  0.10411186  0.90341861  0.90288238  1
  Zr  Zr30  1  0.70896273  0.09184708  0.50942220  1
  Zr  Zr31  1  0.10078628  0.90193882  0.49538641  1
  Zr  Zr32  1  0.10567252  0.09325464  0.10052055  1
  Zr  Zr33  1  0.28760311  0.89962480  0.29893020  1
  Zr  Zr34  1  0.69881860  0.89633624  0.89448642  1
  Zr  Zr35  1  0.09765998  0.50504535  0.70061740  1
  Zr  Zr36  1  0.89994810  0.09860330  0.09524996  1
  Zr  Zr37  1  0.10162199  0.29225402  0.49320216  1
  Zr  Zr38  1  0.49823083  0.89785849  0.89553517  1
  Zr  Zr39  1  0.90242831  0.49646946  0.69779433  1
  Zr  Zr40  1  0.88704478  0.50251897  0.48880986  1
  Zr  Zr41  1  0.09617373  0.69354812  0.90087019  1
  Zr  Zr42  1  0.49971400  0.09792619  0.70012763  1
  Zr  Zr43  1  0.89288627  0.68998680  0.10266414  1
  Zr  Zr44  1  0.69618566  0.70487273  0.50200160  1
  Zr  Zr45  1  0.70660005  0.30139274  0.70005220  1
  Zr  Zr46  1  0.89653914  0.69443477  0.70433232  1
  Zr  Zr47  1  0.50397098  0.88473307  0.50594028  1
  Zr  Zr48  1  0.69529624  0.30476780  0.09648018  1
  Zr  Zr49  1  0.30250293  0.09820806  0.68712591  1
  Sc  Sc50  1  0.69708026  0.49851692  0.69904007  1
  Sc  Sc51  1  0.70657937  0.10555412  0.70318279  1
  Sc  Sc52  1  0.68761595  0.50108933  0.90069349  1
  Sc  Sc53  1  0.10471957  0.10578312  0.90674907  1
  Sc  Sc54  1  0.70540357  0.69514714  0.70164424  1
  Sc  Sc55  1  0.29706423  0.89642314  0.10160530  1
  Sc  Sc56  1  0.10001272  0.70435570  0.30449666  1
  Sc  Sc57  1  0.50264246  0.30174770  0.50128354  1
  Sc  Sc58  1  0.48877638  0.30320951  0.10011729  1
  Sc  Sc59  1  0.90249659  0.89847842  0.30561889  1
  Sc  Sc60  1  0.29126383  0.28797657  0.70234241  1
  Sc  Sc61  1  0.89939334  0.89291755  0.69701665  1
  Sc  Sc62  1  0.09969484  0.49828726  0.09445425  1
  Sc  Sc63  1  0.30019735  0.29868049  0.90683101  1
  Sc  Sc64  1  0.50292086  0.89554211  0.29320112  1
  Sc  Sc65  1  0.30834679  0.90126060  0.90840083  1
  Sc  Sc66  1  0.31231894  0.90054164  0.69738966  1
  Sc  Sc67  1  0.10688655  0.09753048  0.30834931  1
  Sc  Sc68  1  0.50026881  0.49578695  0.89308459  1
  Sc  Sc69  1  0.90613464  0.09633814  0.30691398  1
  Sc  Sc70  1  0.49268883  0.89421074  0.09593243  1
  Sc  Sc71  1  0.89946504  0.69413750  0.50318910  1
  Sc  Sc72  1  0.30725804  0.50031098  0.30452927  1
  Sc  Sc73  1  0.09894560  0.09896838  0.50122808  1
  Sc  Sc74  1  0.09718455  0.69588029  0.49560153  1
  Sc  Sc75  1  0.69937054  0.89039325  0.30438776  1
  Sc  Sc76  1  0.10233558  0.30234966  0.90165146  1
  Sc  Sc77  1  0.11352718  0.30884275  0.10618132  1
  Sc  Sc78  1  0.50392510  0.49308762  0.48674527  1
  Sc  Sc79  1  0.69624496  0.31131142  0.50288845  1
  Sc  Sc80  1  0.10252947  0.90404119  0.30359508  1
  Sc  Sc81  1  0.70035182  0.29582845  0.29953820  1
  Sc  Sc82  1  0.69664711  0.69261421  0.89576142  1
  Sc  Sc83  1  0.69923316  0.50982341  0.09138380  1
  Sc  Sc84  1  0.69723025  0.30970585  0.89553329  1
  Sc  Sc85  1  0.89469381  0.90495894  0.89569949  1
  Sc  Sc86  1  0.90314168  0.29715154  0.50605790  1
  Sc  Sc87  1  0.10204084  0.30006417  0.30218391  1
  Sc  Sc88  1  0.29888951  0.69894697  0.90908752  1
  Sc  Sc89  1  0.30123999  0.50095709  0.90087011  1
  Sc  Sc90  1  0.49656808  0.70231907  0.69925561  1
  Sc  Sc91  1  0.51338301  0.30609244  0.70128546  1
  Sc  Sc92  1  0.29861246  0.10193343  0.91138237  1
  Sc  Sc93  1  0.30745301  0.68993208  0.69391081  1
  Sc  Sc94  1  0.50225353  0.69954190  0.90208287  1
  Sc  Sc95  1  0.49241121  0.30426127  0.30787379  1
  Sc  Sc96  1  0.89029764  0.29410589  0.09348890  1
  Sc  Sc97  1  0.90349711  0.50226335  0.09877979  1
  Sc  Sc98  1  0.90572697  0.30194837  0.30939236  1
  Sc  Sc99  1  0.09472686  0.50572753  0.49637409  1
  Nb  Nb100  1  0.30081797  0.10471545  0.49497428  1
  Nb  Nb101  1  0.91134524  0.50510219  0.90094447  1
  Nb  Nb102  1  0.30524698  0.10662419  0.10398592  1
  Nb  Nb103  1  0.89599801  0.11408910  0.69134429  1
  Nb  Nb104  1  0.10563099  0.70166549  0.09630332  1
  Nb  Nb105  1  0.50427228  0.09728607  0.30238583  1
  Nb  Nb106  1  0.90222547  0.90031139  0.10049660  1
  Nb  Nb107  1  0.90127890  0.70156066  0.89982049  1
  Nb  Nb108  1  0.30843081  0.70431562  0.49773244  1
  Nb  Nb109  1  0.49696084  0.50362348  0.69612032  1
  Nb  Nb110  1  0.29996295  0.29670371  0.10560030  1
  Nb  Nb111  1  0.30777492  0.09954072  0.30935047  1
  Nb  Nb112  1  0.90061175  0.30056126  0.70094455  1
  Nb  Nb113  1  0.29901424  0.69965361  0.10663385  1
  Nb  Nb114  1  0.50228897  0.29946950  0.89962309  1
  Nb  Nb115  1  0.50552147  0.50025436  0.29892888  1
  Nb  Nb116  1  0.89108994  0.50016541  0.29801450  1
  Nb  Nb117  1  0.50203708  0.90154773  0.70162997  1
  Nb  Nb118  1  0.30460443  0.30157027  0.49467601  1
  Nb  Nb119  1  0.70056866  0.69959259  0.09669998  1
  Nb  Nb120  1  0.89803543  0.10211522  0.50167658  1
  Nb  Nb121  1  0.69213786  0.09685923  0.29333329  1
  Nb  Nb122  1  0.69648562  0.50100824  0.49599752  1
  Nb  Nb123  1  0.49406924  0.70078124  0.50194826  1
  Nb  Nb124  1  0.70112524  0.49703718  0.31572852  1
  Nb  Nb125  1  0.59726437  -0.00501139  0.60122465  1
  Nb  Nb126  1  -0.00339581  0.20191990  0.79384186  1
  Nb  Nb127  1  0.00266661  0.19591381  0.19662951  1
  Nb  Nb128  1  0.59544377  0.19958453  -0.00150738  1
  Nb  Nb129  1  0.00237472  0.01186435  0.79381758  1
  Nb  Nb130  1  0.60092879  0.00226583  0.00010146  1
  Nb  Nb131  1  0.19930236  0.80167997  0.79375388  1
  Nb  Nb132  1  0.59588346  0.59789171  0.59410462  1
  Nb  Nb133  1  0.20415375  0.40081504  0.59656451  1
  Nb  Nb134  1  0.20438474  0.79604284  0.59808348  1
  Nb  Nb135  1  0.79931548  0.00086116  0.19930760  1
  Nb  Nb136  1  -0.00042406  0.79828772  0.19132388  1
  Nb  Nb137  1  0.20150113  0.60378425  0.19607914  1
  Nb  Nb138  1  0.79581237  0.40694616  0.20599427  1
  Nb  Nb139  1  0.39584195  0.00815736  0.20520423  1
  Nb  Nb140  1  0.40534945  0.19952904  0.80307073  1
  Nb  Nb141  1  0.60176375  0.40840632  0.20530044  1
  Nb  Nb142  1  0.59995826  0.00209353  0.40310849  1
  Nb  Nb143  1  0.19847918  0.40188698  0.79306628  1
  Nb  Nb144  1  -0.00529349  0.79771011  0.00444794  1
  Nb  Nb145  1  0.19900400  -0.00126496  0.79704373  1
  Nb  Nb146  1  0.39508475  0.40175443  0.60065234  1
  Nb  Nb147  1  0.79465485  0.19182218  0.40364452  1
  Nb  Nb148  1  0.60300966  0.18851195  0.39951427  1
  Nb  Nb149  1  0.80224114  0.79488181  0.00355593  1
  Pd  Pd150  1  0.38858893  0.00663347  0.80269052  1
  Pd  Pd151  1  0.40116218  0.60034166  -0.00424922  1
  Pd  Pd152  1  0.80968642  0.00243116  0.78879817  1
  Pd  Pd153  1  0.40329598  0.80607247  0.39176233  1
  Pd  Pd154  1  0.20132878  0.80037771  -0.00520374  1
  Pd  Pd155  1  -0.00389369  -0.00048736  0.20742972  1
  Pd  Pd156  1  -0.00305869  0.40312021  0.40422223  1
  Pd  Pd157  1  0.19676416  0.60109248  0.39094672  1
  Pd  Pd158  1  0.00115390  0.40582927  0.58846375  1
  Pd  Pd159  1  0.59704906  0.60737073  0.40548714  1
  Pd  Pd160  1  0.00202785  0.80967487  0.80564069  1
  Pd  Pd161  1  0.39220563  0.79300937  0.79937457  1
  Pd  Pd162  1  0.40355947  0.19927632  0.20879322  1
  Pd  Pd163  1  0.58960076  0.21630491  0.20324773  1
  Pd  Pd164  1  0.40382468  0.60622960  0.80795134  1
  Pd  Pd165  1  0.19495344  0.19480338  0.20720343  1
  Pd  Pd166  1  0.39483753  0.38801249  0.79370026  1
  Pd  Pd167  1  0.00800044  0.21045030  0.00463979  1
  Pd  Pd168  1  0.81234887  0.20107450  0.21354904  1
  Pd  Pd169  1  0.40311288  0.21503752  0.60697596  1
  Pd  Pd170  1  -0.00567540  0.00911577  0.60422381  1
  Pd  Pd171  1  0.59857189  0.20022878  0.80542163  1
  Pd  Pd172  1  -0.00200298  -0.00417187  -0.00806124  1
  Pd  Pd173  1  0.60390984  0.00121584  0.79748771  1
  Pd  Pd174  1  0.80824368  0.79219776  0.40091403  1
  Pd  Pd175  1  0.19986536  0.20554392  0.00567110  1
  Pd  Pd176  1  0.80625859  0.80541678  0.19886223  1
  Pd  Pd177  1  -0.00048899  0.39316766  0.00955229  1
  Pd  Pd178  1  0.20316224  0.60267814  0.80265491  1
  Pd  Pd179  1  -0.00417117  0.79859774  0.39689390  1
  Pd  Pd180  1  0.19786535  0.60415711  0.59572297  1
  Pd  Pd181  1  0.60383117  0.19479067  0.59313697  1
  Pd  Pd182  1  0.19948806  0.40623877  0.40193944  1
  Pd  Pd183  1  0.40755500  -0.01148488  0.39416070  1
  Pd  Pd184  1  0.79670923  0.41165189  0.80301481  1
  Pd  Pd185  1  0.59563646  0.79534416  0.19987570  1
  Pd  Pd186  1  0.79353138  0.00285130  0.38886647  1
  Pd  Pd187  1  0.79312257  -0.00844264  0.00561511  1
  Pd  Pd188  1  0.80008490  0.41050747  0.00219498  1
  Pd  Pd189  1  0.01040225  0.60436274  0.19657347  1
  Pd  Pd190  1  0.60002458  0.78969905  0.79485820  1
  Pd  Pd191  1  0.60323588  0.79907334  -0.00004900  1
  Pd  Pd192  1  0.80092361  0.40152656  0.59653520  1
  Pd  Pd193  1  0.80113930  0.59034346  0.80704711  1
  Pd  Pd194  1  0.40137513  0.40398385  0.20442178  1
  Pd  Pd195  1  0.60661179  0.59381169  0.19832918  1
  Pd  Pd196  1  -0.01217825  0.38818414  0.19254365  1
  Pd  Pd197  1  0.80041538  0.59859443  -0.01052739  1
  Pd  Pd198  1  -0.00058832  0.79549232  0.59109047  1
  Pd  Pd199  1  0.39879690  0.39772733  -0.00301453  1
  Rh  Rh200  1  0.20687046  0.40820925  0.20432905  1
  Rh  Rh201  1  0.00250936  0.00200635  0.40354984  1
  Rh  Rh202  1  0.39559951  0.79870207  0.60518510  1
  Rh  Rh203  1  -0.00728396  0.59609729  0.59703006  1
  Rh  Rh204  1  0.39526228  0.80788667  0.20102827  1
  Rh  Rh205  1  0.59338631  0.41235929  0.60233369  1
  Rh  Rh206  1  0.59388724  0.60483973  -0.00097772  1
  Rh  Rh207  1  0.80817672  0.79461021  0.60010427  1
  Rh  Rh208  1  0.40062053  -0.00041793  0.01420033  1
  Rh  Rh209  1  -0.00177821  0.59472557  0.39628251  1
  Rh  Rh210  1  0.19389630  0.79192612  0.20334877  1
  Rh  Rh211  1  0.40578638  -0.00785527  0.59709216  1
  Rh  Rh212  1  0.00596849  0.39717301  0.80146763  1
  Rh  Rh213  1  0.59408962  0.59829270  0.78917266  1
  Rh  Rh214  1  0.59226156  0.39671411  0.00563713  1
  Rh  Rh215  1  0.39891770  0.40121208  0.40317962  1
  Rh  Rh216  1  0.20095040  0.00633648  0.40693823  1
  Rh  Rh217  1  0.39274041  0.59366538  0.20075057  1
  Rh  Rh218  1  0.60038686  0.40389603  0.79692224  1
  Rh  Rh219  1  0.40668482  0.59879991  0.40163518  1
  Rh  Rh220  1  0.79732499  0.21023073  0.59305764  1
  Rh  Rh221  1  0.59495346  0.79517267  0.39197338  1
  Rh  Rh222  1  0.41175011  0.59269920  0.58906691  1
  Rh  Rh223  1  0.80203970  -0.00355840  0.61008499  1
  Rh  Rh224  1  0.20790148  -0.00474798  0.59641369  1
  Rh  Rh225  1  0.20148866  0.19850930  0.80799010  1
  Rh  Rh226  1  0.59859810  -0.00832798  0.20019559  1
  Rh  Rh227  1  0.60321522  0.38940041  0.39249385  1
  Rh  Rh228  1  -0.00530865  0.19540310  0.39766802  1
  Rh  Rh229  1  0.20413629  0.19658513  0.40052986  1
  Rh  Rh230  1  0.79392261  0.60747673  0.40232585  1
  Rh  Rh231  1  0.20070460  0.79550475  0.40993342  1
  Rh  Rh232  1  0.20952832  0.00092259  0.00155454  1
  Rh  Rh233  1  0.39928913  0.79388006  0.00398848  1
  Rh  Rh234  1  0.40336916  0.20468504  0.39877494  1
  Rh  Rh235  1  0.78843141  0.21204503  -0.01102986  1
  Rh  Rh236  1  -0.00051564  0.60325410  0.00200194  1
  Rh  Rh237  1  0.80474749  0.20697002  0.80295456  1
  Rh  Rh238  1  0.79828464  0.38836247  0.39812768  1
  Rh  Rh239  1  0.20242325  0.59754112  0.00769462  1
  Rh  Rh240  1  0.80047800  0.79546440  0.80709443  1
  Rh  Rh241  1  -0.00400047  0.59680057  0.80048585  1
  Rh  Rh242  1  0.20551747  0.20690100  0.58537616  1
  Rh  Rh243  1  0.21185476  0.01112670  0.20036650  1
  Rh  Rh244  1  0.20643961  0.39854631  -0.00456825  1
  Rh  Rh245  1  0.59779353  0.79390643  0.61065387  1
  Rh  Rh246  1  -0.00102633  0.19881566  0.59915973  1
  Rh  Rh247  1  0.79033200  0.59615187  0.59720566  1
  Rh  Rh248  1  0.40364802  0.20672053  -0.00308101  1
  Rh  Rh249  1  0.78887911  0.58877687  0.20114379  1
