# generated using pymatgen
data_ZrScNbPdRh
_symmetry_space_group_name_H-M   'P 1'
_cell_length_a   16.55543060
_cell_length_b   16.56172827
_cell_length_c   16.56183032
_cell_angle_alpha   90.00482440
_cell_angle_beta   89.99819500
_cell_angle_gamma   89.98056045
_symmetry_Int_Tables_number   1
_chemical_formula_structural   ZrScNbPdRh
_chemical_formula_sum   'Zr50 Sc50 Nb50 Pd50 Rh50'
_cell_volume   4541.03072146
_cell_formula_units_Z   50
loop_
 _symmetry_equiv_pos_site_id
 _symmetry_equiv_pos_as_xyz
  1  'x, y, z'
loop_
 _atom_site_type_symbol
 _atom_site_label
 _atom_site_symmetry_multiplicity
 _atom_site_fract_x
 _atom_site_fract_y
 _atom_site_fract_z
 _atom_site_occupancy
  Zr  Zr0  1  0.29993163  0.28806335  0.09835496  1
  Zr  Zr1  1  0.10248551  0.69851394  0.09469010  1
  Zr  Zr2  1  0.69978091  0.69570386  0.89800196  1
  Zr  Zr3  1  0.70134134  0.08653744  0.10384150  1
  Zr  Zr4  1  0.29816713  0.30296658  0.30160898  1
  Zr  Zr5  1  0.50128337  0.50025008  0.50202784  1
  Zr  Zr6  1  0.28686524  0.09610822  0.90060851  1
  Zr  Zr7  1  0.09983515  0.29772338  0.09602008  1
  Zr  Zr8  1  0.29306077  0.49468183  0.70118283  1
  Zr  Zr9  1  0.10482219  0.50018152  0.29772010  1
  Zr  Zr10  1  0.70051139  0.90783726  0.90082774  1
  Zr  Zr11  1  0.70028121  0.30155860  0.29813151  1
  Zr  Zr12  1  0.30173904  0.10519259  0.30025894  1
  Zr  Zr13  1  0.29715528  0.70590582  0.50103434  1
  Zr  Zr14  1  0.50707081  0.10491758  0.69844922  1
  Zr  Zr15  1  0.69503998  0.70073831  0.69995896  1
  Zr  Zr16  1  0.90279697  0.89966036  0.89091428  1
  Zr  Zr17  1  0.49230893  0.90044468  0.69758880  1
  Zr  Zr18  1  0.10490564  0.09873623  0.50097210  1
  Zr  Zr19  1  0.10471725  0.10442551  0.70886876  1
  Zr  Zr20  1  0.49923345  0.70450804  0.89814086  1
  Zr  Zr21  1  0.50052047  0.09019955  0.89877384  1
  Zr  Zr22  1  0.49183729  0.29982679  0.90644081  1
  Zr  Zr23  1  0.69970267  0.30217450  0.49956786  1
  Zr  Zr24  1  0.30106097  0.50574814  0.30182442  1
  Zr  Zr25  1  0.29182382  0.10360353  0.09688814  1
  Zr  Zr26  1  0.90968633  0.70543568  0.69870696  1
  Zr  Zr27  1  0.09504927  0.90385291  0.30071671  1
  Zr  Zr28  1  0.49992063  0.29709149  0.09917614  1
  Zr  Zr29  1  0.90258187  0.30091963  0.70958219  1
  Zr  Zr30  1  0.90080547  0.69857748  0.89459939  1
  Zr  Zr31  1  0.89892723  0.29826786  0.90005636  1
  Zr  Zr32  1  0.90271260  0.29882564  0.09842016  1
  Zr  Zr33  1  0.09313075  0.89406775  0.09959748  1
  Zr  Zr34  1  0.70719040  0.09186267  0.50263129  1
  Zr  Zr35  1  0.70124994  0.09881553  0.88319792  1
  Zr  Zr36  1  0.70184076  0.49874497  0.89854980  1
  Zr  Zr37  1  0.70013104  0.50172001  0.69885018  1
  Zr  Zr38  1  0.71436819  0.50363782  0.49829314  1
  Zr  Zr39  1  0.90060431  0.90715476  0.29889035  1
  Zr  Zr40  1  0.69748001  0.89475345  0.50024377  1
  Zr  Zr41  1  0.50020559  0.50146570  0.91132997  1
  Zr  Zr42  1  0.69523358  0.28632066  0.70676537  1
  Zr  Zr43  1  0.30037847  0.09530763  0.70377834  1
  Zr  Zr44  1  0.29763712  0.70618259  0.90872862  1
  Zr  Zr45  1  0.09636315  0.70828852  0.50274694  1
  Zr  Zr46  1  0.50451343  0.29479621  0.29413158  1
  Zr  Zr47  1  0.29194023  0.50940438  0.10062408  1
  Zr  Zr48  1  0.49654949  0.29513489  0.50155299  1
  Zr  Zr49  1  0.70222667  0.90172728  0.29492164  1
  Sc  Sc50  1  0.90616995  0.31319870  0.50398333  1
  Sc  Sc51  1  0.29849641  0.49884383  0.89593517  1
  Sc  Sc52  1  0.49467442  0.89749790  0.29854946  1
  Sc  Sc53  1  0.90507607  0.09176261  0.70453754  1
  Sc  Sc54  1  0.10101760  0.50105238  0.09505628  1
  Sc  Sc55  1  0.71096612  0.30012797  0.89432344  1
  Sc  Sc56  1  0.49747107  0.69035780  0.09656454  1
  Sc  Sc57  1  0.70681914  0.90678121  0.70796643  1
  Sc  Sc58  1  0.29581291  0.70620126  0.10785810  1
  Sc  Sc59  1  0.29154946  0.30155737  0.90521867  1
  Sc  Sc60  1  0.49394097  0.70243444  0.29913199  1
  Sc  Sc61  1  0.90439406  0.30004427  0.29063598  1
  Sc  Sc62  1  0.90136999  0.49866423  0.08469138  1
  Sc  Sc63  1  0.10649232  0.29863821  0.50076021  1
  Sc  Sc64  1  0.50199755  0.70167134  0.69788994  1
  Sc  Sc65  1  0.30516183  0.49594706  0.50313482  1
  Sc  Sc66  1  0.89936000  0.90665845  0.50413895  1
  Sc  Sc67  1  0.30428884  0.90724354  0.90113236  1
  Sc  Sc68  1  0.11070909  0.49966321  0.90489522  1
  Sc  Sc69  1  0.90282191  0.08945347  0.50441230  1
  Sc  Sc70  1  0.48732918  0.50476725  0.69930357  1
  Sc  Sc71  1  0.49429334  0.29583772  0.69595720  1
  Sc  Sc72  1  0.90371412  0.70087473  0.30755774  1
  Sc  Sc73  1  0.29796141  0.69562126  0.69380368  1
  Sc  Sc74  1  0.09336522  0.70232739  0.90803277  1
  Sc  Sc75  1  0.30085120  0.90127710  0.70201070  1
  Sc  Sc76  1  0.70021388  0.29558426  0.10681965  1
  Sc  Sc77  1  0.50365294  0.50302320  0.29852433  1
  Sc  Sc78  1  0.31004272  0.89943935  0.50645578  1
  Sc  Sc79  1  0.90006394  0.70609233  0.08620854  1
  Sc  Sc80  1  0.10529914  0.70438998  0.69253125  1
  Sc  Sc81  1  0.90427139  0.50313696  0.32052107  1
  Sc  Sc82  1  0.10011739  0.71411916  0.29723519  1
  Sc  Sc83  1  0.70478331  0.09665428  0.28939100  1
  Sc  Sc84  1  0.09988014  0.31030514  0.30132992  1
  Sc  Sc85  1  0.29525905  0.89623860  0.09862570  1
  Sc  Sc86  1  0.49352006  0.10238505  0.11015924  1
  Sc  Sc87  1  0.68754322  0.50422476  0.09051600  1
  Sc  Sc88  1  0.09271651  0.89483736  0.70006279  1
  Sc  Sc89  1  0.09347652  0.49449017  0.49672027  1
  Sc  Sc90  1  0.09852364  0.90698052  0.90490084  1
  Sc  Sc91  1  0.10123622  0.90043317  0.49764397  1
  Sc  Sc92  1  0.30127679  0.89003359  0.29517081  1
  Sc  Sc93  1  0.30532588  0.10624005  0.49486769  1
  Sc  Sc94  1  0.10317459  0.29818897  0.70078033  1
  Sc  Sc95  1  0.89252163  0.49233554  0.89533070  1
  Sc  Sc96  1  0.50895123  0.71459482  0.50758319  1
  Sc  Sc97  1  0.09962261  0.29599480  0.89621026  1
  Sc  Sc98  1  0.49589418  0.90766508  0.10384667  1
  Sc  Sc99  1  0.30010889  0.30245576  0.50192376  1
  Nb  Nb100  1  0.09656747  0.09237834  0.30567495  1
  Nb  Nb101  1  0.90137414  0.50782518  0.50776863  1
  Nb  Nb102  1  0.29811588  0.69772397  0.29706062  1
  Nb  Nb103  1  0.49753383  0.09802775  0.49913075  1
  Nb  Nb104  1  0.49781582  0.49475196  0.09584086  1
  Nb  Nb105  1  0.90740168  0.49649789  0.69071256  1
  Nb  Nb106  1  0.69765740  0.70164526  0.50258964  1
  Nb  Nb107  1  0.09449366  0.09399178  0.90325962  1
  Nb  Nb108  1  0.90303970  0.10580693  0.10199629  1
  Nb  Nb109  1  0.88950798  0.90540215  0.09649367  1
  Nb  Nb110  1  0.90048883  0.89263983  0.70239201  1
  Nb  Nb111  1  0.89568230  0.68757034  0.50137089  1
  Nb  Nb112  1  0.69974855  0.10084899  0.69899937  1
  Nb  Nb113  1  0.29380347  0.29630170  0.70324346  1
  Nb  Nb114  1  0.49946809  0.09853867  0.30319480  1
  Nb  Nb115  1  0.50412712  0.90232766  0.50342333  1
  Nb  Nb116  1  0.10278000  0.50073742  0.70616210  1
  Nb  Nb117  1  0.09350251  0.09801581  0.09037053  1
  Nb  Nb118  1  0.70394488  0.50396960  0.30258057  1
  Nb  Nb119  1  0.90241349  0.10218940  0.29821483  1
  Nb  Nb120  1  0.50077884  0.89842220  0.89818160  1
  Nb  Nb121  1  0.91302427  0.09910346  0.90238546  1
  Nb  Nb122  1  0.70585637  0.89754138  0.10195883  1
  Nb  Nb123  1  0.69930320  0.70000692  0.30094885  1
  Nb  Nb124  1  0.70075963  0.70416116  0.10076527  1
  Nb  Nb125  1  0.39362273  0.19689759  0.80247751  1
  Nb  Nb126  1  0.60154505  0.18981454  0.40027422  1
  Nb  Nb127  1  0.80318482  0.18927759  0.00063449  1
  Nb  Nb128  1  0.80462315  0.19739670  0.40060607  1
  Nb  Nb129  1  0.79833261  0.60008842  0.20131313  1
  Nb  Nb130  1  0.79613599  0.79300785  0.40594522  1
  Nb  Nb131  1  0.80106999  0.19750748  0.60147367  1
  Nb  Nb132  1  0.59387450  0.00132390  0.40160414  1
  Nb  Nb133  1  0.60744631  0.79873130  0.19275021  1
  Nb  Nb134  1  0.19979251  0.80083955  0.80430386  1
  Nb  Nb135  1  0.59579454  0.40035071  0.79823851  1
  Nb  Nb136  1  0.60574950  0.19254147  -0.00187219  1
  Nb  Nb137  1  0.40095130  0.40307568  0.19274055  1
  Nb  Nb138  1  0.18959545  0.00597767  0.20094045  1
  Nb  Nb139  1  0.59781502  0.00211290  0.59684869  1
  Nb  Nb140  1  0.60106925  0.40028226  0.60307886  1
  Nb  Nb141  1  0.60959294  0.60585088  0.40127012  1
  Nb  Nb142  1  0.80229074  0.79587842  0.59841715  1
  Nb  Nb143  1  0.60403190  0.80501315  0.00365355  1
  Nb  Nb144  1  0.00340968  0.59280565  0.79303346  1
  Nb  Nb145  1  0.79777622  0.41364115  0.20187830  1
  Nb  Nb146  1  -0.00507267  0.60117639  0.19742183  1
  Nb  Nb147  1  -0.00214391  0.19340310  0.39756289  1
  Nb  Nb148  1  0.20124838  0.00425461  0.60183033  1
  Nb  Nb149  1  0.20395768  0.60658367  0.39766258  1
  Pd  Pd150  1  0.00532999  0.40269992  -0.00928949  1
  Pd  Pd151  1  0.80772277  0.00625376  -0.00674461  1
  Pd  Pd152  1  0.40773120  0.80433571  0.00833982  1
  Pd  Pd153  1  0.60216574  0.80769286  0.80122273  1
  Pd  Pd154  1  0.00824643  -0.00358677  0.60452739  1
  Pd  Pd155  1  0.38784099  -0.00092439  0.20194719  1
  Pd  Pd156  1  0.60075398  0.40906688  0.19701200  1
  Pd  Pd157  1  0.79685456  0.80165529  -0.00883712  1
  Pd  Pd158  1  0.79860748  0.59904587  0.00504617  1
  Pd  Pd159  1  0.60111983  0.60292393  0.20226737  1
  Pd  Pd160  1  0.40211552  0.60762592  0.59535696  1
  Pd  Pd161  1  0.39652771  0.60497996  0.80210474  1
  Pd  Pd162  1  0.00788078  0.40604425  0.80649570  1
  Pd  Pd163  1  0.01058423  0.19832694  0.20672410  1
  Pd  Pd164  1  -0.00632324  0.20146597  0.59455553  1
  Pd  Pd165  1  0.81074741  0.39296034  0.39431360  1
  Pd  Pd166  1  0.80127802  0.60575209  0.60962980  1
  Pd  Pd167  1  0.60996359  0.38744104  -0.00570083  1
  Pd  Pd168  1  0.20419537  0.80341141  0.39907359  1
  Pd  Pd169  1  0.39828757  -0.00657048  0.39812959  1
  Pd  Pd170  1  0.38608948  0.40325663  0.00691934  1
  Pd  Pd171  1  0.39715295  0.00154044  0.00395175  1
  Pd  Pd172  1  0.39031613  0.19931114  0.60426526  1
  Pd  Pd173  1  -0.00120749  0.00279350  0.19194114  1
  Pd  Pd174  1  0.19303096  0.20465453  0.39692650  1
  Pd  Pd175  1  -0.00978869  0.41489876  0.20085304  1
  Pd  Pd176  1  -0.01117022  0.80438428  0.40885835  1
  Pd  Pd177  1  0.19421646  0.59159035  0.58806498  1
  Pd  Pd178  1  0.40317778  0.79803674  0.40184821  1
  Pd  Pd179  1  0.39290962  0.60162933  0.00019815  1
  Pd  Pd180  1  0.19411426  0.61138084  0.80603224  1
  Pd  Pd181  1  0.20645221  0.39810369  0.19263440  1
  Pd  Pd182  1  0.40388459  0.59745278  0.19738370  1
  Pd  Pd183  1  0.19596325  0.40105971  0.59884509  1
  Pd  Pd184  1  0.00935193  0.39658334  0.60207407  1
  Pd  Pd185  1  0.79729811  0.39201473  0.60856201  1
  Pd  Pd186  1  0.59012844  0.59197167  0.79956231  1
  Pd  Pd187  1  0.59687933  -0.00175721  0.00631409  1
  Pd  Pd188  1  0.59799935  0.40411252  0.40350598  1
  Pd  Pd189  1  0.81092329  0.59544868  0.79021180  1
  Pd  Pd190  1  0.39095124  0.79700701  0.79577381  1
  Pd  Pd191  1  -0.01279044  0.79315240  0.19383582  1
  Pd  Pd192  1  0.01210453  0.60370376  0.39649118  1
  Pd  Pd193  1  0.80587815  0.79193511  0.20558296  1
  Pd  Pd194  1  0.39962574  0.39242559  0.79690146  1
  Pd  Pd195  1  0.01122590  0.59811724  0.60250786  1
  Pd  Pd196  1  0.18647488  0.19462026  0.20618934  1
  Pd  Pd197  1  0.40418466  0.39826204  0.39250794  1
  Pd  Pd198  1  0.21166365  -0.00702064  0.40124649  1
  Pd  Pd199  1  0.40507931  0.60946904  0.40796988  1
  Rh  Rh200  1  -0.00176122  0.59395929  -0.00657427  1
  Rh  Rh201  1  0.19903248  0.39595566  0.79874753  1
  Rh  Rh202  1  0.79779754  0.60636070  0.39641023  1
  Rh  Rh203  1  0.81040690  0.00355195  0.19896361  1
  Rh  Rh204  1  -0.00094904  0.39503137  0.40260540  1
  Rh  Rh205  1  0.40085299  0.39551756  0.60643519  1
  Rh  Rh206  1  0.80225339  0.20399369  0.19813062  1
  Rh  Rh207  1  0.20341127  0.40908372  0.40532676  1
  Rh  Rh208  1  -0.00757928  -0.00518183  0.00589240  1
  Rh  Rh209  1  0.60159460  0.18887788  0.19864704  1
  Rh  Rh210  1  0.19862752  0.80549821  -0.00637140  1
  Rh  Rh211  1  0.39994510  0.00346637  0.59820513  1
  Rh  Rh212  1  0.40578887  0.79549632  0.19510774  1
  Rh  Rh213  1  0.60751464  0.19712777  0.58824715  1
  Rh  Rh214  1  0.19985227  0.39641359  0.00314862  1
  Rh  Rh215  1  0.18800683  0.19843618  -0.00565544  1
  Rh  Rh216  1  0.39866715  0.20329881  0.20571225  1
  Rh  Rh217  1  0.39955088  0.79602320  0.60154988  1
  Rh  Rh218  1  0.19914543  0.80582209  0.20090832  1
  Rh  Rh219  1  0.59813092  0.59310449  0.59285317  1
  Rh  Rh220  1  -0.00397597  0.00329482  0.40327354  1
  Rh  Rh221  1  -0.00894534  0.80357333  0.59111817  1
  Rh  Rh222  1  -0.00020701  0.20115008  -0.00415674  1
  Rh  Rh223  1  0.79766786  0.79935737  0.79631160  1
  Rh  Rh224  1  0.40596025  0.20524800  0.39543944  1
  Rh  Rh225  1  0.00133053  -0.00286582  0.79745685  1
  Rh  Rh226  1  0.19591267  -0.00291494  0.00907623  1
  Rh  Rh227  1  0.81459293  0.18862130  0.79992818  1
  Rh  Rh228  1  0.58725184  0.20803409  0.81330290  1
  Rh  Rh229  1  0.18955327  -0.01115127  0.79369663  1
  Rh  Rh230  1  0.18760042  0.60987552  0.20694448  1
  Rh  Rh231  1  0.59920292  0.60840016  -0.00191166  1
  Rh  Rh232  1  0.20234849  0.20264184  0.80586873  1
  Rh  Rh233  1  0.40348821  0.00309996  0.80077948  1
  Rh  Rh234  1  0.00987016  0.79378217  0.80465771  1
  Rh  Rh235  1  0.59313682  -0.00799492  0.78871813  1
  Rh  Rh236  1  0.60744850  0.81165140  0.61284816  1
  Rh  Rh237  1  0.79453479  0.38864936  0.01105384  1
  Rh  Rh238  1  0.40465851  0.18791416  -0.00896826  1
  Rh  Rh239  1  0.79853088  -0.00270975  0.61323104  1
  Rh  Rh240  1  0.20544515  0.19484650  0.60027312  1
  Rh  Rh241  1  0.59398771  -0.00812030  0.20532679  1
  Rh  Rh242  1  0.80961072  0.00368702  0.79881916  1
  Rh  Rh243  1  0.00218264  0.19735595  0.80262626  1
  Rh  Rh244  1  0.79661655  0.40452730  0.79040815  1
  Rh  Rh245  1  0.20242302  0.81384968  0.60829260  1
  Rh  Rh246  1  0.60216795  0.80102767  0.38834397  1
  Rh  Rh247  1  -0.00669928  0.80830943  -0.00217218  1
  Rh  Rh248  1  0.20329457  0.60331900  -0.00195420  1
  Rh  Rh249  1  0.79950388  -0.00020405  0.39050803  1
