# generated using pymatgen
data_ZrScNbPdRh
_symmetry_space_group_name_H-M   'P 1'
_cell_length_a   16.55325757
_cell_length_b   16.55735410
_cell_length_c   16.55450751
_cell_angle_alpha   89.96054814
_cell_angle_beta   89.97992191
_cell_angle_gamma   89.97300075
_symmetry_Int_Tables_number   1
_chemical_formula_structural   ZrScNbPdRh
_chemical_formula_sum   'Zr50 Sc50 Nb50 Pd50 Rh50'
_cell_volume   4537.22688592
_cell_formula_units_Z   50
loop_
 _symmetry_equiv_pos_site_id
 _symmetry_equiv_pos_as_xyz
  1  'x, y, z'
loop_
 _atom_site_type_symbol
 _atom_site_label
 _atom_site_symmetry_multiplicity
 _atom_site_fract_x
 _atom_site_fract_y
 _atom_site_fract_z
 _atom_site_occupancy
  Zr  Zr0  1  0.29625582  0.09810364  0.29652089  1
  Zr  Zr1  1  0.50219621  0.50166043  0.50319667  1
  Zr  Zr2  1  0.69325625  0.09515828  0.70027986  1
  Zr  Zr3  1  0.49724452  0.49579035  0.10105105  1
  Zr  Zr4  1  0.70759897  0.10278480  0.10427035  1
  Zr  Zr5  1  0.70680708  0.68245709  0.09817918  1
  Zr  Zr6  1  0.29930409  0.69985719  0.70577516  1
  Zr  Zr7  1  0.89788961  0.09735091  0.69131734  1
  Zr  Zr8  1  0.49731676  0.90515461  0.09783451  1
  Zr  Zr9  1  0.89658234  0.49276032  0.50163431  1
  Zr  Zr10  1  0.08709666  0.49262825  0.30167598  1
  Zr  Zr11  1  0.30237202  0.09892481  0.70449856  1
  Zr  Zr12  1  0.69997937  0.50791143  0.70745730  1
  Zr  Zr13  1  0.90311360  0.70811619  0.09585767  1
  Zr  Zr14  1  0.29701610  0.29196155  0.29914910  1
  Zr  Zr15  1  0.09655737  0.10063946  0.09888839  1
  Zr  Zr16  1  0.30240520  0.70401035  0.29292838  1
  Zr  Zr17  1  0.29738281  0.89821027  0.30294886  1
  Zr  Zr18  1  0.70060638  0.29491157  0.29824780  1
  Zr  Zr19  1  0.69501698  0.89224616  0.70564765  1
  Zr  Zr20  1  0.90593419  0.31074822  0.29800988  1
  Zr  Zr21  1  0.88294056  0.30250327  0.50138507  1
  Zr  Zr22  1  0.30535898  0.50421261  0.90093142  1
  Zr  Zr23  1  0.50090813  0.09741304  0.70457162  1
  Zr  Zr24  1  0.08924973  0.89459052  0.10400177  1
  Zr  Zr25  1  0.49900142  0.29654945  0.10564525  1
  Zr  Zr26  1  0.30480895  0.30234801  0.09806293  1
  Zr  Zr27  1  0.90740813  0.90034141  0.70249024  1
  Zr  Zr28  1  0.30307230  0.89955571  0.10093793  1
  Zr  Zr29  1  0.29956596  0.89780851  0.90120272  1
  Zr  Zr30  1  0.30564840  0.49799151  0.29579402  1
  Zr  Zr31  1  0.49892302  0.29768006  0.70115947  1
  Zr  Zr32  1  0.29803007  0.89848561  0.69759930  1
  Zr  Zr33  1  0.69479716  0.90038707  0.49943338  1
  Zr  Zr34  1  0.28879641  0.49820037  0.70512397  1
  Zr  Zr35  1  0.90389106  0.90643026  0.50149170  1
  Zr  Zr36  1  0.90644909  0.90547267  0.29515477  1
  Zr  Zr37  1  0.70072386  0.89098777  0.30254012  1
  Zr  Zr38  1  0.90216039  0.29943185  0.89973045  1
  Zr  Zr39  1  0.70389298  0.69906597  0.88819460  1
  Zr  Zr40  1  0.69077026  0.70529524  0.48420082  1
  Zr  Zr41  1  0.89725532  0.88776228  0.90956034  1
  Zr  Zr42  1  0.50793599  0.70273049  0.70461193  1
  Zr  Zr43  1  0.10232609  0.89424837  0.69796874  1
  Zr  Zr44  1  0.89780874  0.69400060  0.71426009  1
  Zr  Zr45  1  0.09246105  0.29916317  0.10316189  1
  Zr  Zr46  1  0.49941038  0.30559634  0.50284871  1
  Zr  Zr47  1  0.70989263  0.90437958  0.09841716  1
  Zr  Zr48  1  0.10116058  0.70934795  0.30136632  1
  Zr  Zr49  1  0.88913033  0.50429742  0.10572438  1
  Sc  Sc50  1  0.30356507  0.49385115  0.51243347  1
  Sc  Sc51  1  0.49851803  0.11492689  0.29322324  1
  Sc  Sc52  1  0.90939195  0.50395220  0.89270387  1
  Sc  Sc53  1  0.30165413  0.51107013  0.09807165  1
  Sc  Sc54  1  0.10128503  0.90365874  0.89979092  1
  Sc  Sc55  1  0.49219609  0.30310144  0.29629078  1
  Sc  Sc56  1  0.09928047  0.30149228  0.90331192  1
  Sc  Sc57  1  0.50181222  0.09606152  0.89640636  1
  Sc  Sc58  1  0.10582370  0.10302460  0.29370396  1
  Sc  Sc59  1  0.69573441  0.50955641  0.91332424  1
  Sc  Sc60  1  0.11124108  0.29671265  0.50345610  1
  Sc  Sc61  1  0.30119340  0.09716990  0.10008682  1
  Sc  Sc62  1  0.30202605  0.69781595  0.90292693  1
  Sc  Sc63  1  0.49646629  0.69505128  0.89716215  1
  Sc  Sc64  1  0.10714802  0.30740615  0.70378714  1
  Sc  Sc65  1  0.29410692  0.10037910  0.90049765  1
  Sc  Sc66  1  0.10618356  0.09540152  0.49492681  1
  Sc  Sc67  1  0.70636071  0.29543769  0.69644404  1
  Sc  Sc68  1  0.48530191  0.89037345  0.29292674  1
  Sc  Sc69  1  0.11074242  0.89769463  0.49449454  1
  Sc  Sc70  1  0.90086605  0.10261721  0.90860145  1
  Sc  Sc71  1  0.11257531  0.70047797  0.89933856  1
  Sc  Sc72  1  0.49011582  0.69804275  0.10483766  1
  Sc  Sc73  1  0.09091282  0.50360281  0.51280898  1
  Sc  Sc74  1  0.90013451  0.09525085  0.10516026  1
  Sc  Sc75  1  0.29554852  0.29821143  0.70066996  1
  Sc  Sc76  1  0.29225426  0.30120632  0.89749452  1
  Sc  Sc77  1  0.89835329  0.29743732  0.09995562  1
  Sc  Sc78  1  0.70198311  0.89943355  0.90223171  1
  Sc  Sc79  1  0.70473282  0.10225816  0.89961052  1
  Sc  Sc80  1  0.70543490  0.10481947  0.29682885  1
  Sc  Sc81  1  0.49609060  0.09617941  0.50241568  1
  Sc  Sc82  1  0.90912093  0.69377431  0.49707378  1
  Sc  Sc83  1  0.48940667  0.50039161  0.70023539  1
  Sc  Sc84  1  0.29352067  0.70415050  0.50438187  1
  Sc  Sc85  1  0.89606220  0.30603302  0.69462122  1
  Sc  Sc86  1  0.50861444  0.69985954  0.29872264  1
  Sc  Sc87  1  0.50808651  0.91066536  0.70097135  1
  Sc  Sc88  1  0.69727491  0.50591047  0.28660889  1
  Sc  Sc89  1  0.30013798  0.29610930  0.50595813  1
  Sc  Sc90  1  0.10202040  0.90023719  0.30031891  1
  Sc  Sc91  1  0.10318451  0.10264174  0.90415332  1
  Sc  Sc92  1  0.89597248  0.09367591  0.49644617  1
  Sc  Sc93  1  0.10889847  0.69316248  0.69887919  1
  Sc  Sc94  1  0.29843286  0.09629997  0.49582158  1
  Sc  Sc95  1  0.70348929  0.10469279  0.49704842  1
  Sc  Sc96  1  0.10466313  0.49321873  0.89733423  1
  Sc  Sc97  1  0.49986854  0.90272349  0.89776446  1
  Sc  Sc98  1  0.10228681  0.08763025  0.69984208  1
  Sc  Sc99  1  0.48750772  0.30293127  0.90575402  1
  Nb  Nb100  1  0.49923289  0.89743297  0.49382491  1
  Nb  Nb101  1  0.70092206  0.69935229  0.70175720  1
  Nb  Nb102  1  0.08942402  0.49780934  0.70435310  1
  Nb  Nb103  1  0.69781915  0.30929178  0.09508897  1
  Nb  Nb104  1  0.10091984  0.70121987  0.50202124  1
  Nb  Nb105  1  0.89919975  0.50137159  0.30361193  1
  Nb  Nb106  1  0.90720980  0.50009835  0.69738993  1
  Nb  Nb107  1  0.89710680  0.89903357  0.10206174  1
  Nb  Nb108  1  0.09995431  0.29851163  0.29744280  1
  Nb  Nb109  1  0.90056355  0.10562092  0.29462166  1
  Nb  Nb110  1  0.10742303  0.69443203  0.10480783  1
  Nb  Nb111  1  0.09871729  0.50399662  0.10038231  1
  Nb  Nb112  1  0.70267814  0.70024409  0.29854377  1
  Nb  Nb113  1  0.49591128  0.50224587  0.89987056  1
  Nb  Nb114  1  0.70015487  0.30914594  0.49860691  1
  Nb  Nb115  1  0.69827252  0.49399644  0.09661048  1
  Nb  Nb116  1  0.89951675  0.69712294  0.29751998  1
  Nb  Nb117  1  0.50100137  0.70164547  0.49505630  1
  Nb  Nb118  1  0.70284400  0.30389224  0.90187354  1
  Nb  Nb119  1  0.70143398  0.49901209  0.49832371  1
  Nb  Nb120  1  0.49630683  0.50168117  0.30318515  1
  Nb  Nb121  1  0.29046255  0.69689714  0.09918357  1
  Nb  Nb122  1  0.89622955  0.69915503  0.90518548  1
  Nb  Nb123  1  0.31065903  0.89712012  0.49243293  1
  Nb  Nb124  1  0.50643017  0.10037377  0.10095662  1
  Nb  Nb125  1  0.19466547  0.39990036  0.20085701  1
  Nb  Nb126  1  0.60288016  0.79598769  0.00370334  1
  Nb  Nb127  1  -0.00166014  0.19771053  0.59719320  1
  Nb  Nb128  1  0.80551065  -0.00352553  0.79826383  1
  Nb  Nb129  1  0.59526079  -0.00377705  0.39297755  1
  Nb  Nb130  1  0.00528243  0.60431527  0.00634395  1
  Nb  Nb131  1  0.79602470  0.40256654  0.80418781  1
  Nb  Nb132  1  0.60289165  0.40346981  0.40090425  1
  Nb  Nb133  1  0.19967495  0.59674793  0.40094056  1
  Nb  Nb134  1  -0.00084864  0.20359993  0.39859260  1
  Nb  Nb135  1  0.40624028  0.80392731  0.59385175  1
  Nb  Nb136  1  0.59902550  0.00027000  0.20109955  1
  Nb  Nb137  1  0.60465459  0.20716341  0.00303136  1
  Nb  Nb138  1  0.19863325  0.40361448  0.39511984  1
  Nb  Nb139  1  -0.00146280  0.19972159  0.79194113  1
  Nb  Nb140  1  -0.00050150  0.60243965  0.19941340  1
  Nb  Nb141  1  0.00104094  0.79590131  0.60049055  1
  Nb  Nb142  1  0.80317853  0.79507274  0.20160055  1
  Nb  Nb143  1  0.80136763  0.79262493  0.60094109  1
  Nb  Nb144  1  0.39970091  0.60067726  0.40158962  1
  Nb  Nb145  1  0.79565668  0.60257712  0.59664456  1
  Nb  Nb146  1  0.60500716  0.60489098  0.59692448  1
  Nb  Nb147  1  0.60241923  0.39946401  0.80769288  1
  Nb  Nb148  1  0.60060363  0.20395440  0.59745969  1
  Nb  Nb149  1  0.79808101  0.59800483  0.39621567  1
  Pd  Pd150  1  0.40202605  0.19798284  0.59860775  1
  Pd  Pd151  1  0.01236243  0.79221260  -0.00619958  1
  Pd  Pd152  1  0.19757984  0.59521100  0.59719821  1
  Pd  Pd153  1  0.59774322  0.40023927  0.20783513  1
  Pd  Pd154  1  0.00748774  0.38963644  0.41564236  1
  Pd  Pd155  1  0.00843552  0.79110705  0.80109212  1
  Pd  Pd156  1  0.40625961  0.80589504  0.79425019  1
  Pd  Pd157  1  -0.00459556  0.00782146  0.80996574  1
  Pd  Pd158  1  0.59597494  0.20137174  0.40632562  1
  Pd  Pd159  1  0.59490919  0.59817167  0.19688481  1
  Pd  Pd160  1  0.20390947  0.40599334  0.00691043  1
  Pd  Pd161  1  0.80747606  0.40847686  -0.00791849  1
  Pd  Pd162  1  0.39976335  -0.00531568  0.60102252  1
  Pd  Pd163  1  0.60615084  0.40173268  0.60644806  1
  Pd  Pd164  1  0.60450518  0.00227680  0.00107743  1
  Pd  Pd165  1  0.00152434  0.60130164  0.39770490  1
  Pd  Pd166  1  0.80630525  0.19873450  0.39722167  1
  Pd  Pd167  1  0.79655382  0.39791021  0.20242555  1
  Pd  Pd168  1  0.58984174  0.60579292  0.00262449  1
  Pd  Pd169  1  0.19678167  0.80305626  0.00420386  1
  Pd  Pd170  1  0.39888167  0.19761192  0.40494651  1
  Pd  Pd171  1  0.01023851  0.60473904  0.80873429  1
  Pd  Pd172  1  0.59956306  0.20837158  0.80537018  1
  Pd  Pd173  1  -0.00329371  0.00011295  -0.00026839  1
  Pd  Pd174  1  0.39553972  0.19993167  0.80840761  1
  Pd  Pd175  1  0.39780834  0.00766953  -0.00506170  1
  Pd  Pd176  1  0.00738712  0.00936376  0.39483347  1
  Pd  Pd177  1  -0.00575744  0.40829066  0.00379995  1
  Pd  Pd178  1  0.39752881  0.40295620  0.40406410  1
  Pd  Pd179  1  0.79341334  0.00319356  0.39267500  1
  Pd  Pd180  1  0.19527981  -0.00503658  0.19514654  1
  Pd  Pd181  1  0.60556478  0.80239101  0.19167307  1
  Pd  Pd182  1  0.40041925  0.39856555  0.79805924  1
  Pd  Pd183  1  0.40748889  0.00738395  0.38895848  1
  Pd  Pd184  1  0.80671058  0.19985240  0.79681082  1
  Pd  Pd185  1  0.19358763  0.59226072  0.21054579  1
  Pd  Pd186  1  0.19406820  0.19246932  0.60640696  1
  Pd  Pd187  1  0.59211559  0.39692207  -0.00610558  1
  Pd  Pd188  1  0.79828679  0.20114363  0.00537306  1
  Pd  Pd189  1  0.81388108  0.79468937  0.40147104  1
  Pd  Pd190  1  0.59828127  0.79726618  0.59900259  1
  Pd  Pd191  1  0.19951297  0.20097759  0.00277398  1
  Pd  Pd192  1  0.20075942  -0.00036465  0.80478583  1
  Pd  Pd193  1  0.40405814  0.61088557  0.59719207  1
  Pd  Pd194  1  0.79073285  -0.00735164  0.60469368  1
  Pd  Pd195  1  0.20415047  -0.00378180  0.59236491  1
  Pd  Pd196  1  -0.00273581  0.80281874  0.40500457  1
  Pd  Pd197  1  0.00432708  0.38742392  0.59748166  1
  Pd  Pd198  1  0.40536174  0.79427294  -0.00003436  1
  Pd  Pd199  1  0.40485009  0.19145928  -0.00274967  1
  Rh  Rh200  1  0.39904070  0.78859687  0.40325502  1
  Rh  Rh201  1  0.01137580  -0.00259060  0.58982299  1
  Rh  Rh202  1  0.40786367  0.00750607  0.20189446  1
  Rh  Rh203  1  0.20193548  0.80043545  0.80185894  1
  Rh  Rh204  1  0.39687403  0.40381637  0.00210434  1
  Rh  Rh205  1  -0.00095621  0.40609215  0.18996141  1
  Rh  Rh206  1  0.39478400  -0.00152344  0.80335964  1
  Rh  Rh207  1  0.59872236  0.59186325  0.39929827  1
  Rh  Rh208  1  0.00173999  0.00461044  0.20054755  1
  Rh  Rh209  1  -0.00564357  0.39237425  0.79527433  1
  Rh  Rh210  1  0.39324548  0.79525530  0.19196982  1
  Rh  Rh211  1  0.80454602  0.59082013  0.80373318  1
  Rh  Rh212  1  0.20405708  -0.00202048  0.39699732  1
  Rh  Rh213  1  0.19684431  0.40618029  0.59852030  1
  Rh  Rh214  1  0.19808409  0.59622810  -0.00481166  1
  Rh  Rh215  1  0.79001233  0.79339744  0.00567965  1
  Rh  Rh216  1  0.79422549  0.41038500  0.61318637  1
  Rh  Rh217  1  0.80386314  0.60261600  0.20678387  1
  Rh  Rh218  1  0.19112082  0.19887407  0.79690109  1
  Rh  Rh219  1  0.80778165  0.59555091  -0.00785259  1
  Rh  Rh220  1  0.59555865  0.80163336  0.81238368  1
  Rh  Rh221  1  0.78752501  0.40959208  0.38559860  1
  Rh  Rh222  1  -0.00372881  0.19679041  0.20450370  1
  Rh  Rh223  1  0.39253045  0.39434828  0.60917434  1
  Rh  Rh224  1  0.39902172  0.60034614  0.79841571  1
  Rh  Rh225  1  0.19663678  0.20370292  0.39881345  1
  Rh  Rh226  1  0.20334541  0.79565457  0.40331723  1
  Rh  Rh227  1  0.79963128  -0.00443828  0.20724023  1
  Rh  Rh228  1  0.59060752  0.59146109  0.79720574  1
  Rh  Rh229  1  0.39386653  0.19451896  0.19435593  1
  Rh  Rh230  1  0.39993125  0.60215446  0.00176349  1
  Rh  Rh231  1  0.19764081  0.59442529  0.80299188  1
  Rh  Rh232  1  -0.00483168  0.60770531  0.60753662  1
  Rh  Rh233  1  0.80355951  0.21030114  0.19679296  1
  Rh  Rh234  1  0.20107207  0.20484405  0.19180049  1
  Rh  Rh235  1  0.00103521  0.20059363  -0.00392335  1
  Rh  Rh236  1  0.79613738  0.19789961  0.59617037  1
  Rh  Rh237  1  0.61085435  -0.00124628  0.81038818  1
  Rh  Rh238  1  0.19888347  -0.00426682  0.00420798  1
  Rh  Rh239  1  0.20265509  0.80747041  0.19395656  1
  Rh  Rh240  1  0.58867432  0.80804590  0.38911024  1
  Rh  Rh241  1  0.20278501  0.80391328  0.59522854  1
  Rh  Rh242  1  0.40368885  0.60245982  0.20416521  1
  Rh  Rh243  1  0.60008265  0.00812331  0.58610187  1
  Rh  Rh244  1  0.80277354  0.80602231  0.79786653  1
  Rh  Rh245  1  0.19882182  0.40157419  0.80181185  1
  Rh  Rh246  1  0.60589123  0.19890815  0.19123384  1
  Rh  Rh247  1  0.80737947  0.00126709  -0.00771402  1
  Rh  Rh248  1  -0.00363936  0.79643971  0.20225647  1
  Rh  Rh249  1  0.39607596  0.40174272  0.19559127  1
