# generated using pymatgen
data_ZrScNbPdRh
_symmetry_space_group_name_H-M   'P 1'
_cell_length_a   16.55543820
_cell_length_b   16.55256060
_cell_length_c   16.55158381
_cell_angle_alpha   90.01104362
_cell_angle_beta   90.00895112
_cell_angle_gamma   89.97372964
_symmetry_Int_Tables_number   1
_chemical_formula_structural   ZrScNbPdRh
_chemical_formula_sum   'Zr50 Sc50 Nb50 Pd50 Rh50'
_cell_volume   4535.71089844
_cell_formula_units_Z   50
loop_
 _symmetry_equiv_pos_site_id
 _symmetry_equiv_pos_as_xyz
  1  'x, y, z'
loop_
 _atom_site_type_symbol
 _atom_site_label
 _atom_site_symmetry_multiplicity
 _atom_site_fract_x
 _atom_site_fract_y
 _atom_site_fract_z
 _atom_site_occupancy
  Zr  Zr0  1  0.50602385  0.90362914  0.09751877  1
  Zr  Zr1  1  0.30681625  0.70113137  0.90313000  1
  Zr  Zr2  1  0.29994405  0.11464463  0.09796067  1
  Zr  Zr3  1  0.50625051  0.70418844  0.89428344  1
  Zr  Zr4  1  0.90069704  0.28796356  0.49904647  1
  Zr  Zr5  1  0.89572639  0.50288984  0.70107151  1
  Zr  Zr6  1  0.90652355  0.89978785  0.89749735  1
  Zr  Zr7  1  0.09555299  0.69975571  0.49140334  1
  Zr  Zr8  1  0.50389043  0.10182032  0.50334922  1
  Zr  Zr9  1  0.29998091  0.31169047  0.10394389  1
  Zr  Zr10  1  0.49072626  0.10195156  0.89479418  1
  Zr  Zr11  1  0.09793531  0.90563019  0.09357246  1
  Zr  Zr12  1  0.11310103  0.10106054  0.70731112  1
  Zr  Zr13  1  0.70252019  0.29647372  0.51576497  1
  Zr  Zr14  1  0.09611500  0.51208968  0.28974944  1
  Zr  Zr15  1  0.48846222  0.49636721  0.10025622  1
  Zr  Zr16  1  0.09605913  0.49172438  0.90840332  1
  Zr  Zr17  1  0.10270441  0.68846510  0.10541841  1
  Zr  Zr18  1  0.09145623  0.30225239  0.90086322  1
  Zr  Zr19  1  0.69845747  0.29255046  0.70975490  1
  Zr  Zr20  1  0.09462026  0.10409311  0.09363724  1
  Zr  Zr21  1  0.69636651  0.49120082  0.11089373  1
  Zr  Zr22  1  0.10312346  0.09634535  0.90015221  1
  Zr  Zr23  1  0.29216082  0.30623625  0.69374560  1
  Zr  Zr24  1  0.50368360  0.09691971  0.09740208  1
  Zr  Zr25  1  0.49311458  0.69249025  0.10695848  1
  Zr  Zr26  1  0.29016188  0.49210594  0.30394498  1
  Zr  Zr27  1  0.69492082  0.89194971  0.89538752  1
  Zr  Zr28  1  0.30755712  0.70473671  0.29452365  1
  Zr  Zr29  1  0.70129783  0.49416561  0.68895038  1
  Zr  Zr30  1  0.10536252  0.48551165  0.70693638  1
  Zr  Zr31  1  0.10004671  0.90550352  0.90045630  1
  Zr  Zr32  1  0.50216891  0.69987695  0.30261568  1
  Zr  Zr33  1  0.50618471  0.09668319  0.29980909  1
  Zr  Zr34  1  0.30615608  0.69203298  0.69914732  1
  Zr  Zr35  1  0.70624580  0.09908498  0.50294913  1
  Zr  Zr36  1  0.30936383  0.10873332  0.50459887  1
  Zr  Zr37  1  0.30527117  0.30773532  0.49410019  1
  Zr  Zr38  1  0.50506285  0.89999026  0.89672984  1
  Zr  Zr39  1  0.09749248  0.29856363  0.70127400  1
  Zr  Zr40  1  0.29885629  0.89930667  0.90390362  1
  Zr  Zr41  1  0.10268459  0.31492026  0.30422755  1
  Zr  Zr42  1  0.09091429  0.89736721  0.50466955  1
  Zr  Zr43  1  0.89547921  0.69639181  0.90353274  1
  Zr  Zr44  1  0.30293146  0.88946750  0.09745631  1
  Zr  Zr45  1  0.30501213  0.50225285  0.90436902  1
  Zr  Zr46  1  0.90394505  0.69944749  0.29820521  1
  Zr  Zr47  1  0.29238646  0.69495499  0.50376361  1
  Zr  Zr48  1  0.49600232  0.09545646  0.69761182  1
  Zr  Zr49  1  0.49216248  0.29282325  0.50046446  1
  Sc  Sc50  1  0.89874519  0.49680955  0.90350633  1
  Sc  Sc51  1  0.89356318  0.29717116  0.09856750  1
  Sc  Sc52  1  0.29978741  0.90131679  0.50316400  1
  Sc  Sc53  1  0.09584265  0.70662306  0.90820084  1
  Sc  Sc54  1  0.70474179  0.49883784  0.89969603  1
  Sc  Sc55  1  0.90245488  0.90057504  0.69367958  1
  Sc  Sc56  1  0.09962931  0.10235269  0.50617056  1
  Sc  Sc57  1  0.90026792  0.29980121  0.30295451  1
  Sc  Sc58  1  0.70343194  0.09801037  0.88523773  1
  Sc  Sc59  1  0.09609644  0.90692710  0.70036258  1
  Sc  Sc60  1  0.09717720  0.70465250  0.68689276  1
  Sc  Sc61  1  0.89314243  0.70244398  0.09674073  1
  Sc  Sc62  1  0.50779652  0.29411158  0.70003661  1
  Sc  Sc63  1  0.89141059  0.30011865  0.69915659  1
  Sc  Sc64  1  0.49769194  0.49947977  0.50771255  1
  Sc  Sc65  1  0.70999418  0.09111526  0.29791407  1
  Sc  Sc66  1  0.69919155  0.69936702  0.90772738  1
  Sc  Sc67  1  0.50628735  0.70425313  0.49976268  1
  Sc  Sc68  1  0.69992134  0.50748450  0.29586445  1
  Sc  Sc69  1  0.69852567  0.69649957  0.49959323  1
  Sc  Sc70  1  0.30569997  0.29409926  0.90826584  1
  Sc  Sc71  1  0.49987314  0.89231417  0.30645848  1
  Sc  Sc72  1  0.48630744  0.29890034  0.09869014  1
  Sc  Sc73  1  0.50483120  0.50483567  0.28776393  1
  Sc  Sc74  1  0.70384864  0.70192567  0.09511741  1
  Sc  Sc75  1  0.70178585  0.89695257  0.10297164  1
  Sc  Sc76  1  0.90086446  0.50073041  0.09981442  1
  Sc  Sc77  1  0.09991129  0.30474995  0.09387865  1
  Sc  Sc78  1  0.70359204  0.70000320  0.69118099  1
  Sc  Sc79  1  0.49970416  0.70302605  0.69718790  1
  Sc  Sc80  1  0.89711553  0.30361357  0.90690734  1
  Sc  Sc81  1  0.69970748  0.69826489  0.30313048  1
  Sc  Sc82  1  0.11451556  0.09295182  0.29610751  1
  Sc  Sc83  1  0.49622813  0.50703381  0.69458919  1
  Sc  Sc84  1  0.10868554  0.50246614  0.48782382  1
  Sc  Sc85  1  0.70017352  0.90000029  0.50604712  1
  Sc  Sc86  1  0.70503676  0.90775699  0.69847650  1
  Sc  Sc87  1  0.89306641  0.50568256  0.50556622  1
  Sc  Sc88  1  0.50379858  0.90150080  0.50597690  1
  Sc  Sc89  1  0.89598004  0.10119818  0.10337384  1
  Sc  Sc90  1  0.89807901  0.49851810  0.29477595  1
  Sc  Sc91  1  0.10108403  0.29971000  0.50027666  1
  Sc  Sc92  1  0.30492073  0.90462552  0.69410158  1
  Sc  Sc93  1  0.89161018  0.90645375  0.28869109  1
  Sc  Sc94  1  0.89133517  0.09348549  0.70284882  1
  Sc  Sc95  1  0.90534513  0.70084757  0.51229172  1
  Sc  Sc96  1  0.49858961  0.50634931  0.90361601  1
  Sc  Sc97  1  0.69910751  0.89975055  0.29578257  1
  Sc  Sc98  1  0.48935242  0.30798552  0.29449080  1
  Sc  Sc99  1  0.90565513  0.09691140  0.90200233  1
  Nb  Nb100  1  0.09927716  0.70145525  0.30061302  1
  Nb  Nb101  1  0.10243135  0.90212807  0.29819810  1
  Nb  Nb102  1  0.29899862  0.29267242  0.30316354  1
  Nb  Nb103  1  0.50952639  0.90113079  0.70269796  1
  Nb  Nb104  1  0.29987287  0.10334537  0.70770780  1
  Nb  Nb105  1  0.69764347  0.31194579  0.28881778  1
  Nb  Nb106  1  0.69827472  0.10023573  0.69832603  1
  Nb  Nb107  1  0.89379306  0.89868293  0.09941460  1
  Nb  Nb108  1  0.89709481  0.09970286  0.48940484  1
  Nb  Nb109  1  0.30073184  0.69694900  0.10165986  1
  Nb  Nb110  1  0.70095731  0.29557553  0.10020732  1
  Nb  Nb111  1  0.30402198  0.49943548  0.50881426  1
  Nb  Nb112  1  0.89821118  0.69632782  0.69983482  1
  Nb  Nb113  1  0.89852702  0.90177566  0.50338026  1
  Nb  Nb114  1  0.30415599  0.50024376  0.69625270  1
  Nb  Nb115  1  0.29449171  0.09987421  0.88484153  1
  Nb  Nb116  1  0.69838291  0.49737917  0.50076357  1
  Nb  Nb117  1  0.29359090  0.50730290  0.09954602  1
  Nb  Nb118  1  0.90352046  0.10164573  0.30447886  1
  Nb  Nb119  1  0.10949362  0.49640267  0.10383241  1
  Nb  Nb120  1  0.29508138  0.90468992  0.30006861  1
  Nb  Nb121  1  0.50457598  0.30052267  0.89813237  1
  Nb  Nb122  1  0.69855966  0.09916852  0.10078418  1
  Nb  Nb123  1  0.69116895  0.29847089  0.90038849  1
  Nb  Nb124  1  0.30072655  0.10140586  0.30207930  1
  Nb  Nb125  1  0.79785600  -0.00302843  0.00218641  1
  Nb  Nb126  1  0.00172199  0.19738940  0.20625149  1
  Nb  Nb127  1  0.60375595  0.20217377  -0.00057652  1
  Nb  Nb128  1  0.00533843  0.80384939  0.20184622  1
  Nb  Nb129  1  0.60056795  0.39026850  0.00043981  1
  Nb  Nb130  1  0.60631011  0.20250387  0.19683733  1
  Nb  Nb131  1  0.00368571  0.20061977  0.80073356  1
  Nb  Nb132  1  0.19466299  0.80308266  0.39244313  1
  Nb  Nb133  1  0.80617705  0.79522379  0.79767877  1
  Nb  Nb134  1  0.00317756  0.59986789  0.79864045  1
  Nb  Nb135  1  0.60313717  0.60067319  0.79628970  1
  Nb  Nb136  1  -0.00442048  -0.00028260  0.39845139  1
  Nb  Nb137  1  0.19726533  0.80092507  0.20226777  1
  Nb  Nb138  1  0.40118538  0.40096047  0.79861829  1
  Nb  Nb139  1  -0.00090379  0.39985479  0.59935858  1
  Nb  Nb140  1  0.80823754  0.80298931  0.40459219  1
  Nb  Nb141  1  0.78964538  0.39837690  0.40340979  1
  Nb  Nb142  1  0.60687087  0.20923362  0.39194170  1
  Nb  Nb143  1  0.39343038  0.00013404  0.20527070  1
  Nb  Nb144  1  0.39411561  0.59791334  0.40286507  1
  Nb  Nb145  1  0.39475782  0.00329912  0.39581570  1
  Nb  Nb146  1  0.59560533  0.79602255  0.19949578  1
  Nb  Nb147  1  0.60522699  0.39668720  0.40176342  1
  Nb  Nb148  1  0.20189810  0.79615705  0.80004472  1
  Nb  Nb149  1  0.19781646  0.60104808  0.79948373  1
  Pd  Pd150  1  0.19889156  0.60190551  -0.00653241  1
  Pd  Pd151  1  0.20443268  0.20243654  0.59443904  1
  Pd  Pd152  1  0.00958062  0.58889773  0.60465175  1
  Pd  Pd153  1  0.59839595  -0.00269048  0.40272425  1
  Pd  Pd154  1  0.80013303  0.39675903  0.80413320  1
  Pd  Pd155  1  -0.00091909  0.79715142  0.01000964  1
  Pd  Pd156  1  0.41001964  0.79551560  0.00017590  1
  Pd  Pd157  1  0.60324267  0.59180367  0.00013158  1
  Pd  Pd158  1  0.20759693  -0.00095601  0.18816623  1
  Pd  Pd159  1  0.19870029  0.80474423  0.60225856  1
  Pd  Pd160  1  -0.00404697  0.00278741  0.20208746  1
  Pd  Pd161  1  0.20925431  0.00602686  0.00342219  1
  Pd  Pd162  1  -0.00442667  0.39322078  0.19344492  1
  Pd  Pd163  1  0.19079931  0.20967183  0.20196192  1
  Pd  Pd164  1  0.79920831  0.60298050  0.19572227  1
  Pd  Pd165  1  0.39718796  0.80799867  0.79336229  1
  Pd  Pd166  1  0.79410675  0.40235118  0.00233696  1
  Pd  Pd167  1  -0.00579914  0.01186961  0.59819963  1
  Pd  Pd168  1  0.80167437  0.19827037  0.20729573  1
  Pd  Pd169  1  0.79532970  0.19008105  -0.00776363  1
  Pd  Pd170  1  0.80506018  0.60279384  0.40457884  1
  Pd  Pd171  1  0.01508487  0.19095058  0.39067771  1
  Pd  Pd172  1  -0.00207942  0.59540917  0.00076809  1
  Pd  Pd173  1  0.79524690  0.60416199  0.80047690  1
  Pd  Pd174  1  0.39005208  0.00722661  0.00300318  1
  Pd  Pd175  1  -0.00598392  0.81052277  0.39175044  1
  Pd  Pd176  1  0.40887263  0.41230552  0.39498566  1
  Pd  Pd177  1  0.39836722  -0.00856260  0.79650337  1
  Pd  Pd178  1  0.59303195  0.41211085  0.80319141  1
  Pd  Pd179  1  0.59168498  0.58965702  0.40434749  1
  Pd  Pd180  1  0.60536769  0.80212945  0.60283645  1
  Pd  Pd181  1  0.39713203  0.21138855  0.79354169  1
  Pd  Pd182  1  0.80290724  -0.00961041  0.40103981  1
  Pd  Pd183  1  0.20003490  0.20558033  -0.00482665  1
  Pd  Pd184  1  0.40570331  0.19633634  0.20547742  1
  Pd  Pd185  1  0.19606664  0.20084234  0.40237784  1
  Pd  Pd186  1  0.59150335  0.39703662  0.59801088  1
  Pd  Pd187  1  0.20418285  0.00149774  0.59837251  1
  Pd  Pd188  1  -0.00933334  0.59221996  0.40114836  1
  Pd  Pd189  1  0.19087308  0.59166628  0.60608193  1
  Pd  Pd190  1  0.61171007  0.00772949  -0.01058812  1
  Pd  Pd191  1  0.19903070  -0.00185229  0.41147532  1
  Pd  Pd192  1  0.39356602  0.80240294  0.40913150  1
  Pd  Pd193  1  0.21160081  0.39837043  0.81320494  1
  Pd  Pd194  1  0.40447739  0.80061394  0.59808396  1
  Pd  Pd195  1  0.00238819  0.79253944  0.79218071  1
  Pd  Pd196  1  -0.01138349  0.40920566  0.40910978  1
  Pd  Pd197  1  0.80852410  0.20046154  0.80758166  1
  Pd  Pd198  1  -0.00785667  0.19648225  0.60946095  1
  Pd  Pd199  1  0.79006653  0.20828436  0.38934918  1
  Rh  Rh200  1  0.80125832  -0.01160305  0.80573172  1
  Rh  Rh201  1  0.60798380  0.60908505  0.19402465  1
  Rh  Rh202  1  0.19769818  0.20910357  0.80790876  1
  Rh  Rh203  1  -0.00456658  0.20153629  0.00131388  1
  Rh  Rh204  1  0.40011362  0.60497114  0.00290763  1
  Rh  Rh205  1  0.80001643  0.00402627  0.19240241  1
  Rh  Rh206  1  0.38975378  0.40545779  0.20483495  1
  Rh  Rh207  1  0.39536767  0.20413762  0.61111192  1
  Rh  Rh208  1  0.59834528  -0.00499843  0.20270270  1
  Rh  Rh209  1  0.59848486  0.00346421  0.79615702  1
  Rh  Rh210  1  0.80379235  0.79985032  0.59914499  1
  Rh  Rh211  1  0.40395140  0.39436510  0.60907447  1
  Rh  Rh212  1  0.38835556  0.58907559  0.20738550  1
  Rh  Rh213  1  0.20703701  0.60462144  0.20399389  1
  Rh  Rh214  1  0.20278277  0.39938377  0.00022945  1
  Rh  Rh215  1  0.61460974  0.80314446  0.39639680  1
  Rh  Rh216  1  0.19426763  0.40460829  0.58898511  1
  Rh  Rh217  1  0.20572242  -0.01289100  0.79696784  1
  Rh  Rh218  1  0.00181617  0.01005892  0.79362463  1
  Rh  Rh219  1  -0.01270561  0.00147703  0.00613424  1
  Rh  Rh220  1  0.59529000  0.79445531  0.01198533  1
  Rh  Rh221  1  0.59734018  0.18962868  0.80211465  1
  Rh  Rh222  1  0.79434611  0.60242944  0.59483845  1
  Rh  Rh223  1  -0.00378163  0.80069812  0.60410034  1
  Rh  Rh224  1  0.40375670  0.80970156  0.19844892  1
  Rh  Rh225  1  0.20269654  0.39833896  0.40510553  1
  Rh  Rh226  1  0.59031294  0.39260768  0.19295833  1
  Rh  Rh227  1  0.80402537  0.19005321  0.60581524  1
  Rh  Rh228  1  0.80930103  0.39803387  0.59300228  1
  Rh  Rh229  1  0.40320510  0.59184251  0.79836995  1
  Rh  Rh230  1  0.20082631  0.39781796  0.20090927  1
  Rh  Rh231  1  0.80211568  0.00354157  0.59768992  1
  Rh  Rh232  1  -0.01403379  0.39799956  0.79351278  1
  Rh  Rh233  1  0.19744674  0.79361343  0.00193032  1
  Rh  Rh234  1  0.79894956  0.79570559  0.20850046  1
  Rh  Rh235  1  0.40652079  0.19448304  0.39133488  1
  Rh  Rh236  1  0.79622784  0.59163814  0.00576329  1
  Rh  Rh237  1  0.40258847  0.19628879  -0.00447361  1
  Rh  Rh238  1  0.40307345  -0.00119933  0.59711721  1
  Rh  Rh239  1  0.40383733  0.40050872  -0.00696672  1
  Rh  Rh240  1  0.40503797  0.60627693  0.59020099  1
  Rh  Rh241  1  0.60246998  0.19385524  0.60161188  1
  Rh  Rh242  1  0.60149506  0.60001047  0.60364833  1
  Rh  Rh243  1  0.60322929  0.00147107  0.60508349  1
  Rh  Rh244  1  0.61055924  0.79175189  0.78987768  1
  Rh  Rh245  1  0.80718362  0.39989235  0.20363005  1
  Rh  Rh246  1  -0.00514019  0.60435348  0.19460254  1
  Rh  Rh247  1  0.80161667  0.80910663  -0.00870140  1
  Rh  Rh248  1  0.20791558  0.60641605  0.39412926  1
  Rh  Rh249  1  -0.00317318  0.40165815  0.01105365  1
