# generated using pymatgen
data_ZrScNbPdRh
_symmetry_space_group_name_H-M   'P 1'
_cell_length_a   16.56177820
_cell_length_b   16.55747320
_cell_length_c   16.56018404
_cell_angle_alpha   90.03598126
_cell_angle_beta   90.00564266
_cell_angle_gamma   89.97234274
_symmetry_Int_Tables_number   1
_chemical_formula_structural   ZrScNbPdRh
_chemical_formula_sum   'Zr50 Sc50 Nb50 Pd50 Rh50'
_cell_volume   4541.15207254
_cell_formula_units_Z   50
loop_
 _symmetry_equiv_pos_site_id
 _symmetry_equiv_pos_as_xyz
  1  'x, y, z'
loop_
 _atom_site_type_symbol
 _atom_site_label
 _atom_site_symmetry_multiplicity
 _atom_site_fract_x
 _atom_site_fract_y
 _atom_site_fract_z
 _atom_site_occupancy
  Zr  Zr0  1  0.50611112  0.69956762  0.69667952  1
  Zr  Zr1  1  0.29040069  0.10684778  0.10551082  1
  Zr  Zr2  1  0.69846115  0.30681941  0.90940468  1
  Zr  Zr3  1  0.09627000  0.30190279  0.70440680  1
  Zr  Zr4  1  0.29907913  0.68721518  0.10073598  1
  Zr  Zr5  1  0.30281879  0.70222760  0.49590338  1
  Zr  Zr6  1  0.29906402  0.90448615  0.51274830  1
  Zr  Zr7  1  0.90481394  0.89273364  0.28782658  1
  Zr  Zr8  1  0.10388381  0.69831346  0.49684030  1
  Zr  Zr9  1  0.90237081  0.30315993  0.70145142  1
  Zr  Zr10  1  0.31138409  0.30261924  0.49338818  1
  Zr  Zr11  1  0.10652236  0.70265141  0.30353223  1
  Zr  Zr12  1  0.09736742  0.10153655  0.49944274  1
  Zr  Zr13  1  0.09407603  0.69687694  0.09135895  1
  Zr  Zr14  1  0.30542076  0.50791495  0.91264423  1
  Zr  Zr15  1  0.70423114  0.49560605  0.49988119  1
  Zr  Zr16  1  0.09729359  0.49810225  0.70659556  1
  Zr  Zr17  1  0.49394197  0.90119641  0.91100345  1
  Zr  Zr18  1  0.09611147  0.30182215  0.89502502  1
  Zr  Zr19  1  0.70459484  0.30166207  0.69009843  1
  Zr  Zr20  1  0.50341687  0.09196938  0.90075158  1
  Zr  Zr21  1  0.89204895  0.69420947  0.28701081  1
  Zr  Zr22  1  0.90101543  0.10551676  0.28977974  1
  Zr  Zr23  1  0.89479735  0.90158157  0.91189245  1
  Zr  Zr24  1  0.89891849  0.50485816  0.70762747  1
  Zr  Zr25  1  0.69749333  0.29448090  0.29496299  1
  Zr  Zr26  1  0.69953520  0.08754557  0.89899764  1
  Zr  Zr27  1  0.28999329  0.89952394  0.29290943  1
  Zr  Zr28  1  0.89676869  0.89916276  0.49995196  1
  Zr  Zr29  1  0.10151627  0.10398404  0.70475976  1
  Zr  Zr30  1  0.50099825  0.09558021  0.09930171  1
  Zr  Zr31  1  0.90775826  0.49846209  0.29905850  1
  Zr  Zr32  1  0.30667255  0.10594975  0.29785269  1
  Zr  Zr33  1  0.89689944  0.10333961  0.70134654  1
  Zr  Zr34  1  0.30104035  0.30062106  0.29087635  1
  Zr  Zr35  1  0.50290911  0.89945169  0.29966354  1
  Zr  Zr36  1  0.89716715  0.49566811  0.48984565  1
  Zr  Zr37  1  0.69668226  0.70584271  0.50797273  1
  Zr  Zr38  1  0.50732518  0.29955638  0.10019609  1
  Zr  Zr39  1  0.71034686  0.50377484  0.30190264  1
  Zr  Zr40  1  0.30523162  0.50380994  0.49002856  1
  Zr  Zr41  1  0.49671590  0.09552081  0.49106693  1
  Zr  Zr42  1  0.50428726  0.50845043  0.70787210  1
  Zr  Zr43  1  0.70501059  0.70113186  0.70697083  1
  Zr  Zr44  1  0.69926817  0.70419188  0.90673022  1
  Zr  Zr45  1  0.89570238  0.30126323  0.29689044  1
  Zr  Zr46  1  0.29760244  0.70954122  0.90594284  1
  Zr  Zr47  1  0.30462463  0.90687213  0.70622007  1
  Zr  Zr48  1  0.69979547  0.30070882  0.10317367  1
  Zr  Zr49  1  0.89966207  0.30734136  0.90332817  1
  Sc  Sc50  1  0.49590879  0.49511110  0.50190442  1
  Sc  Sc51  1  0.49875720  0.89812727  0.49582646  1
  Sc  Sc52  1  0.50159028  0.08532428  0.70297395  1
  Sc  Sc53  1  0.70110459  0.50346142  0.69654002  1
  Sc  Sc54  1  0.08874985  0.90133915  0.10944030  1
  Sc  Sc55  1  0.31090923  0.50365406  0.70404713  1
  Sc  Sc56  1  0.50753647  0.10156419  0.30144196  1
  Sc  Sc57  1  0.49637007  0.49990302  0.30637017  1
  Sc  Sc58  1  0.69487887  0.69648852  0.10731485  1
  Sc  Sc59  1  0.69938040  0.89530304  0.90355175  1
  Sc  Sc60  1  0.29497971  0.30281887  0.70791511  1
  Sc  Sc61  1  0.10047055  0.09897442  0.28014920  1
  Sc  Sc62  1  0.30137318  0.09265827  0.89384211  1
  Sc  Sc63  1  0.89814846  0.89023704  0.10040648  1
  Sc  Sc64  1  0.31719582  0.70552550  0.70534353  1
  Sc  Sc65  1  0.29400401  0.51073020  0.29409930  1
  Sc  Sc66  1  0.70025047  0.90630801  0.50555883  1
  Sc  Sc67  1  0.70209952  0.30138793  0.50046069  1
  Sc  Sc68  1  0.29285686  0.30013288  0.09789831  1
  Sc  Sc69  1  0.49728839  0.29409871  0.30243200  1
  Sc  Sc70  1  0.30171568  0.69786114  0.30010819  1
  Sc  Sc71  1  0.10411783  0.88715070  0.50014983  1
  Sc  Sc72  1  0.88631419  0.89580640  0.69656826  1
  Sc  Sc73  1  0.28911589  0.30204696  0.90659640  1
  Sc  Sc74  1  0.30782770  0.88674465  0.09382186  1
  Sc  Sc75  1  0.69737887  0.90332556  0.28554329  1
  Sc  Sc76  1  0.49439220  0.89595128  0.70482761  1
  Sc  Sc77  1  0.69830188  0.89663071  0.70001809  1
  Sc  Sc78  1  0.09076295  0.30050229  0.29014038  1
  Sc  Sc79  1  0.08698831  0.50473472  0.49145530  1
  Sc  Sc80  1  0.90660652  0.70098173  0.50680159  1
  Sc  Sc81  1  0.08726226  0.69554453  0.69664063  1
  Sc  Sc82  1  0.50752398  0.30137483  0.49408214  1
  Sc  Sc83  1  0.89786682  0.70441142  0.90429729  1
  Sc  Sc84  1  0.50846548  0.30911115  0.69062309  1
  Sc  Sc85  1  0.50278747  0.69567914  0.89458504  1
  Sc  Sc86  1  0.09307808  0.49899672  0.90518269  1
  Sc  Sc87  1  0.90150997  0.30903314  0.10042897  1
  Sc  Sc88  1  0.70044738  0.09160730  0.69230392  1
  Sc  Sc89  1  0.09214913  0.10731869  0.90700247  1
  Sc  Sc90  1  0.90197170  0.30080162  0.49948238  1
  Sc  Sc91  1  0.69333099  0.50065781  0.90274635  1
  Sc  Sc92  1  0.69107851  0.49952002  0.10221537  1
  Sc  Sc93  1  0.69442984  0.10296920  0.49938552  1
  Sc  Sc94  1  0.69535788  0.09493415  0.11086185  1
  Sc  Sc95  1  0.10533750  0.29435689  0.09526123  1
  Sc  Sc96  1  0.49974543  0.51028000  0.09103436  1
  Sc  Sc97  1  0.11474118  0.90170806  0.69620307  1
  Sc  Sc98  1  0.89392313  0.10826339  0.50029487  1
  Sc  Sc99  1  0.10270018  0.50102047  0.10404635  1
  Nb  Nb100  1  0.30029857  0.09870676  0.50058744  1
  Nb  Nb101  1  0.90404096  0.50677452  0.09663539  1
  Nb  Nb102  1  0.91870699  0.08823119  0.08894337  1
  Nb  Nb103  1  0.50467250  0.70489068  0.30613714  1
  Nb  Nb104  1  0.49901291  0.71045802  0.10216147  1
  Nb  Nb105  1  0.89849327  0.69941138  0.10097237  1
  Nb  Nb106  1  0.30105119  0.09467811  0.69218376  1
  Nb  Nb107  1  0.50446839  0.49712400  0.89967355  1
  Nb  Nb108  1  0.29548014  0.89554873  0.89763354  1
  Nb  Nb109  1  0.10368216  0.70615458  0.89981296  1
  Nb  Nb110  1  0.70086986  0.09770473  0.30068254  1
  Nb  Nb111  1  0.10318022  0.30122430  0.49977759  1
  Nb  Nb112  1  0.89938471  0.09636850  0.90291982  1
  Nb  Nb113  1  0.10205422  0.50038139  0.30449464  1
  Nb  Nb114  1  0.50483967  0.29859263  0.90263875  1
  Nb  Nb115  1  0.70087553  0.69714727  0.30092015  1
  Nb  Nb116  1  0.89478258  0.49265061  0.91197477  1
  Nb  Nb117  1  0.69278888  0.89432915  0.09623004  1
  Nb  Nb118  1  0.49758888  0.70246514  0.49227871  1
  Nb  Nb119  1  0.09960177  0.09662282  0.09575385  1
  Nb  Nb120  1  0.10352141  0.89288184  0.89906395  1
  Nb  Nb121  1  0.50409367  0.89952802  0.10086466  1
  Nb  Nb122  1  0.09971952  0.90127635  0.30177548  1
  Nb  Nb123  1  0.89537993  0.70239326  0.70792588  1
  Nb  Nb124  1  0.29989541  0.50060077  0.10255916  1
  Nb  Nb125  1  0.60127876  0.60964771  0.40000803  1
  Nb  Nb126  1  0.40739063  0.20388204  0.79964486  1
  Nb  Nb127  1  0.60150382  0.20171958  0.80168407  1
  Nb  Nb128  1  0.19560464  -0.00575590  -0.00028984  1
  Nb  Nb129  1  0.00098367  -0.00240423  0.39706282  1
  Nb  Nb130  1  0.19890466  0.60521180  0.80298001  1
  Nb  Nb131  1  0.80462655  0.59781820  0.00649903  1
  Nb  Nb132  1  0.19509925  0.39689434  0.39925501  1
  Nb  Nb133  1  0.19817832  0.40170372  0.59363300  1
  Nb  Nb134  1  0.19652097  0.00356757  0.39739032  1
  Nb  Nb135  1  0.00066178  0.80451282  0.80363449  1
  Nb  Nb136  1  0.39609318  0.40548775  0.19164194  1
  Nb  Nb137  1  -0.00012313  -0.00056784  0.60053016  1
  Nb  Nb138  1  0.20497452  0.20263885  0.59570208  1
  Nb  Nb139  1  0.39625264  0.19389613  0.60447727  1
  Nb  Nb140  1  -0.00129426  -0.00586162  0.80143926  1
  Nb  Nb141  1  0.20093954  0.59529386  0.60338192  1
  Nb  Nb142  1  0.20000263  0.20077825  0.40122296  1
  Nb  Nb143  1  0.79591767  0.19948483  0.80812943  1
  Nb  Nb144  1  0.80340104  -0.00099890  0.39027964  1
  Nb  Nb145  1  0.40427939  0.20029378  -0.00594256  1
  Nb  Nb146  1  0.40184866  -0.00405129  0.19627826  1
  Nb  Nb147  1  0.80477565  0.19032742  -0.00102310  1
  Nb  Nb148  1  0.79656904  0.80084148  0.39350556  1
  Nb  Nb149  1  0.40887921  0.39714740  0.81236927  1
  Pd  Pd150  1  0.40904303  0.59791289  0.20414685  1
  Pd  Pd151  1  0.80183017  -0.00370747  0.79687086  1
  Pd  Pd152  1  0.79961413  0.61191883  0.40934391  1
  Pd  Pd153  1  0.40271841  0.39254031  0.00330220  1
  Pd  Pd154  1  -0.00287872  0.59523453  0.59943103  1
  Pd  Pd155  1  0.19542566  0.79541203  0.19154914  1
  Pd  Pd156  1  0.60303828  0.79741678  0.20002934  1
  Pd  Pd157  1  0.80509263  -0.00112124  0.19330634  1
  Pd  Pd158  1  0.00819015  0.60168211  0.20417427  1
  Pd  Pd159  1  -0.00001830  0.60606863  0.81336297  1
  Pd  Pd160  1  0.79451610  0.40092793  0.79863658  1
  Pd  Pd161  1  0.79452510  0.19850477  0.40156514  1
  Pd  Pd162  1  0.79395767  0.00192793  0.01476519  1
  Pd  Pd163  1  0.20883644  0.19442621  0.80189775  1
  Pd  Pd164  1  0.00074049  0.40738408  0.59667709  1
  Pd  Pd165  1  0.19353950  0.40646430  0.00262898  1
  Pd  Pd166  1  0.59613210  0.80524699  0.80499600  1
  Pd  Pd167  1  0.39608541  0.39496612  0.61043338  1
  Pd  Pd168  1  0.20619416  0.78534727  0.61087923  1
  Pd  Pd169  1  0.59355494  -0.00651683  0.59886218  1
  Pd  Pd170  1  0.21091544  0.41354533  0.80177363  1
  Pd  Pd171  1  0.61036462  0.80476974  0.39965484  1
  Pd  Pd172  1  0.80694643  0.60335136  0.59868317  1
  Pd  Pd173  1  0.80219995  0.40897678  0.19470206  1
  Pd  Pd174  1  -0.00552848  0.20885610  0.00346268  1
  Pd  Pd175  1  0.19380666  0.80744551  0.01234422  1
  Pd  Pd176  1  0.39256618  -0.00626484  0.39113996  1
  Pd  Pd177  1  0.59091180  0.59916817  0.20720715  1
  Pd  Pd178  1  -0.00071861  0.80814119  0.61248963  1
  Pd  Pd179  1  0.59060746  0.19390031  0.60521264  1
  Pd  Pd180  1  0.80778358  0.19283036  0.18353100  1
  Pd  Pd181  1  0.38587939  0.00458871  0.00746838  1
  Pd  Pd182  1  0.00535262  0.40179106  0.19323092  1
  Pd  Pd183  1  0.00511581  0.19838496  0.39219384  1
  Pd  Pd184  1  0.60224731  0.40470624  0.39622878  1
  Pd  Pd185  1  0.58887049  0.40719062  0.20484454  1
  Pd  Pd186  1  0.59357239  0.80790117  0.60071733  1
  Pd  Pd187  1  0.79798850  0.59717537  0.81427560  1
  Pd  Pd188  1  0.59685957  0.59629268  0.59127404  1
  Pd  Pd189  1  0.19266326  0.00602395  0.80976143  1
  Pd  Pd190  1  0.00158824  0.19884745  0.60052785  1
  Pd  Pd191  1  -0.00473223  0.60177350  -0.00833817  1
  Pd  Pd192  1  0.40021689  0.80016838  0.20224703  1
  Pd  Pd193  1  0.19597456  0.78990108  0.78711525  1
  Pd  Pd194  1  -0.00715781  0.79680159  0.39551009  1
  Pd  Pd195  1  0.39176236  0.80650617  0.39774802  1
  Pd  Pd196  1  0.40977858  0.60998115  -0.00183303  1
  Pd  Pd197  1  0.39960659  0.60343892  0.59655489  1
  Pd  Pd198  1  0.60172624  0.39729241  0.79655116  1
  Pd  Pd199  1  0.60576412  0.19207117  -0.00143106  1
  Rh  Rh200  1  0.59355251  -0.00115073  0.20009124  1
  Rh  Rh201  1  0.60135274  0.60607621  0.00019154  1
  Rh  Rh202  1  0.19665372  0.59391253  0.40583778  1
  Rh  Rh203  1  0.00705107  0.78927908  0.20012492  1
  Rh  Rh204  1  -0.00266774  0.20074255  0.18728295  1
  Rh  Rh205  1  0.40836174  0.60412307  0.39516983  1
  Rh  Rh206  1  0.00217234  0.39312559  0.39593342  1
  Rh  Rh207  1  0.20449862  0.18958197  -0.00826829  1
  Rh  Rh208  1  0.60196506  -0.00562741  0.79921677  1
  Rh  Rh209  1  0.60446468  0.20055937  0.39850773  1
  Rh  Rh210  1  0.00991390  -0.01136450  -0.00657928  1
  Rh  Rh211  1  0.39672070  0.59615917  0.80886601  1
  Rh  Rh212  1  0.20675106  0.80724203  0.40097039  1
  Rh  Rh213  1  0.40846510  0.20150820  0.18586334  1
  Rh  Rh214  1  0.59513826  0.79675756  0.00259181  1
  Rh  Rh215  1  0.40435773  0.80415781  0.80800249  1
  Rh  Rh216  1  0.59780098  0.40724421  0.00398193  1
  Rh  Rh217  1  0.60721214  -0.00647558  0.00414819  1
  Rh  Rh218  1  0.20444656  -0.00431929  0.19318845  1
  Rh  Rh219  1  0.19102897  0.20508654  0.20315420  1
  Rh  Rh220  1  0.59894266  0.19637188  0.20531079  1
  Rh  Rh221  1  -0.00731785  0.40660889  0.80627548  1
  Rh  Rh222  1  0.19414694  0.60152745  0.19806324  1
  Rh  Rh223  1  0.40772840  0.00102264  0.59883541  1
  Rh  Rh224  1  0.79076586  0.79778583  0.19701894  1
  Rh  Rh225  1  0.79500658  0.40720099  0.01160453  1
  Rh  Rh226  1  0.61070955  -0.00242387  0.39681272  1
  Rh  Rh227  1  -0.00376383  0.60843723  0.39248146  1
  Rh  Rh228  1  0.79978188  0.39008960  0.39633629  1
  Rh  Rh229  1  0.19198076  0.00546609  0.59370621  1
  Rh  Rh230  1  0.79872912  0.20042876  0.60340714  1
  Rh  Rh231  1  0.20251019  0.40314766  0.20523372  1
  Rh  Rh232  1  0.80386706  0.00591333  0.59017226  1
  Rh  Rh233  1  0.80452356  0.80270398  0.80279713  1
  Rh  Rh234  1  0.40547091  0.80026123  0.59795170  1
  Rh  Rh235  1  -0.00265450  -0.00023539  0.20131044  1
  Rh  Rh236  1  0.39916739  -0.00103230  0.80235059  1
  Rh  Rh237  1  0.80774157  0.40299484  0.59953674  1
  Rh  Rh238  1  0.40474501  0.79393298  -0.00088216  1
  Rh  Rh239  1  0.79974944  0.79374316  0.59856540  1
  Rh  Rh240  1  0.60685606  0.60102072  0.80282104  1
  Rh  Rh241  1  0.40279688  0.19874697  0.40570546  1
  Rh  Rh242  1  0.00675287  0.39846252  0.00541972  1
  Rh  Rh243  1  0.79880886  0.59358978  0.19026521  1
  Rh  Rh244  1  -0.00089822  0.80143261  -0.00244426  1
  Rh  Rh245  1  0.60172984  0.40845288  0.59652165  1
  Rh  Rh246  1  0.19490841  0.59661464  -0.00320296  1
  Rh  Rh247  1  0.79527139  0.79102096  0.01150975  1
  Rh  Rh248  1  0.39232642  0.40387019  0.38300842  1
  Rh  Rh249  1  -0.01094728  0.19533535  0.80584457  1
