# generated using pymatgen
data_ZrScNbPdRh
_symmetry_space_group_name_H-M   'P 1'
_cell_length_a   16.56411931
_cell_length_b   16.56027832
_cell_length_c   16.56102306
_cell_angle_alpha   89.99237796
_cell_angle_beta   89.99784183
_cell_angle_gamma   90.00614997
_symmetry_Int_Tables_number   1
_chemical_formula_structural   ZrScNbPdRh
_chemical_formula_sum   'Zr50 Sc50 Nb50 Pd50 Rh50'
_cell_volume   4542.79497348
_cell_formula_units_Z   50
loop_
 _symmetry_equiv_pos_site_id
 _symmetry_equiv_pos_as_xyz
  1  'x, y, z'
loop_
 _atom_site_type_symbol
 _atom_site_label
 _atom_site_symmetry_multiplicity
 _atom_site_fract_x
 _atom_site_fract_y
 _atom_site_fract_z
 _atom_site_occupancy
  Zr  Zr0  1  0.69791021  0.70045316  0.50387087  1
  Zr  Zr1  1  0.10562694  0.10288212  0.10136951  1
  Zr  Zr2  1  0.09861090  0.71065108  0.10144430  1
  Zr  Zr3  1  0.09657615  0.69195851  0.69870060  1
  Zr  Zr4  1  0.29927814  0.28978309  0.10529867  1
  Zr  Zr5  1  0.49661748  0.49361966  0.69825159  1
  Zr  Zr6  1  0.30864404  0.89978873  0.29584146  1
  Zr  Zr7  1  0.89913464  0.90076349  0.08584154  1
  Zr  Zr8  1  0.89151939  0.29942219  0.70068266  1
  Zr  Zr9  1  0.09647735  0.50236842  0.50999385  1
  Zr  Zr10  1  0.30135865  0.51374035  0.89989243  1
  Zr  Zr11  1  0.30569835  0.09610877  0.11131223  1
  Zr  Zr12  1  0.90029340  0.29886069  0.89891201  1
  Zr  Zr13  1  0.70641482  0.10723186  0.70373971  1
  Zr  Zr14  1  0.29750230  0.50692639  0.29357812  1
  Zr  Zr15  1  0.09354386  0.90140350  0.70954503  1
  Zr  Zr16  1  0.30058994  0.30274606  0.69433769  1
  Zr  Zr17  1  0.10604571  0.69478769  0.29739542  1
  Zr  Zr18  1  0.71220542  0.30289440  0.09318920  1
  Zr  Zr19  1  0.29801269  0.70479119  0.29695262  1
  Zr  Zr20  1  0.08946780  0.30251205  0.70422506  1
  Zr  Zr21  1  0.89778321  0.49983157  0.49842785  1
  Zr  Zr22  1  0.29196505  0.70181305  0.70422953  1
  Zr  Zr23  1  0.10466951  0.70496864  0.49698881  1
  Zr  Zr24  1  0.30023779  0.70505256  0.49607744  1
  Zr  Zr25  1  0.70099403  0.90783328  0.29446727  1
  Zr  Zr26  1  0.29809043  0.70181986  0.90495337  1
  Zr  Zr27  1  0.29777723  0.29156060  0.30242681  1
  Zr  Zr28  1  0.50035607  0.29820483  0.49900304  1
  Zr  Zr29  1  0.51082299  0.09825526  0.29944207  1
  Zr  Zr30  1  0.69551951  0.29613761  0.29994602  1
  Zr  Zr31  1  0.90175340  0.30068855  0.09067441  1
  Zr  Zr32  1  0.91785887  0.49695816  0.69440879  1
  Zr  Zr33  1  0.70312922  0.89727678  0.90243430  1
  Zr  Zr34  1  0.49335440  0.70379484  0.90639216  1
  Zr  Zr35  1  0.70024669  0.89169033  0.10124213  1
  Zr  Zr36  1  0.89979906  0.70183902  0.70229285  1
  Zr  Zr37  1  0.69758710  0.50051010  0.70678485  1
  Zr  Zr38  1  0.89347760  0.49063721  0.10618610  1
  Zr  Zr39  1  0.70259221  0.29937635  0.88731719  1
  Zr  Zr40  1  0.09777191  0.30350910  0.09953597  1
  Zr  Zr41  1  0.90222912  0.89591990  0.88877137  1
  Zr  Zr42  1  0.29756938  0.10992140  0.50248080  1
  Zr  Zr43  1  0.69973994  0.08869383  0.09965360  1
  Zr  Zr44  1  0.29882023  0.49996485  0.70109069  1
  Zr  Zr45  1  0.09926884  0.50605823  0.29796241  1
  Zr  Zr46  1  0.49754124  0.09595144  0.50659825  1
  Zr  Zr47  1  0.70294476  0.71142191  0.29480331  1
  Zr  Zr48  1  0.89983848  0.10192723  0.69115639  1
  Zr  Zr49  1  0.70448704  0.89307659  0.50387799  1
  Sc  Sc50  1  0.89970477  0.70145662  0.89756027  1
  Sc  Sc51  1  0.50206517  0.89174137  0.29703627  1
  Sc  Sc52  1  0.50496750  0.09676389  0.90522022  1
  Sc  Sc53  1  0.50387887  0.49597135  0.29191424  1
  Sc  Sc54  1  0.90160393  0.09888724  0.90321225  1
  Sc  Sc55  1  0.50568183  0.70571417  0.10715293  1
  Sc  Sc56  1  0.70279543  0.08926056  0.49848332  1
  Sc  Sc57  1  0.51001405  0.69287017  0.68667556  1
  Sc  Sc58  1  0.09073018  0.90100448  0.90216269  1
  Sc  Sc59  1  0.90032959  0.30939520  0.28854452  1
  Sc  Sc60  1  0.29854357  0.10663078  0.70143058  1
  Sc  Sc61  1  0.29463233  0.49449758  0.50811870  1
  Sc  Sc62  1  0.49969051  0.29841064  0.11000160  1
  Sc  Sc63  1  0.30448882  0.89730898  0.10423401  1
  Sc  Sc64  1  0.50524095  0.29528962  0.89650757  1
  Sc  Sc65  1  0.90061323  0.29890096  0.50894575  1
  Sc  Sc66  1  0.70946270  0.90269942  0.69836890  1
  Sc  Sc67  1  0.49556362  0.90150128  0.91168529  1
  Sc  Sc68  1  0.89843076  0.70469264  0.09705756  1
  Sc  Sc69  1  0.09545081  0.69902664  0.90614733  1
  Sc  Sc70  1  0.29878530  0.29869933  0.50365690  1
  Sc  Sc71  1  0.70236578  0.70387339  0.69977431  1
  Sc  Sc72  1  0.30393834  0.09847966  0.90559808  1
  Sc  Sc73  1  0.70987147  0.50234362  0.29598491  1
  Sc  Sc74  1  0.49962137  0.50422260  0.89099958  1
  Sc  Sc75  1  0.09549582  0.09547393  0.88954656  1
  Sc  Sc76  1  0.10129191  0.10483019  0.30739986  1
  Sc  Sc77  1  0.29045159  0.89393119  0.70425018  1
  Sc  Sc78  1  0.71150153  0.30150588  0.49880371  1
  Sc  Sc79  1  0.49898084  0.09491581  0.09772027  1
  Sc  Sc80  1  0.09331807  0.50839616  0.90112285  1
  Sc  Sc81  1  0.50299712  0.09686155  0.69848411  1
  Sc  Sc82  1  0.50034962  0.50180413  0.10942879  1
  Sc  Sc83  1  0.29626632  0.89571889  0.50546350  1
  Sc  Sc84  1  0.50017995  0.50484676  0.51048749  1
  Sc  Sc85  1  0.30355216  0.29042856  0.89775816  1
  Sc  Sc86  1  0.49612269  0.29814946  0.70770555  1
  Sc  Sc87  1  0.90446667  0.50312111  0.89955359  1
  Sc  Sc88  1  0.89139626  0.89565758  0.30223525  1
  Sc  Sc89  1  0.70570292  0.49633333  0.49194173  1
  Sc  Sc90  1  0.89659727  0.70495645  0.49104172  1
  Sc  Sc91  1  0.10247840  0.89004994  0.29318817  1
  Sc  Sc92  1  0.08846931  0.50851987  0.09736978  1
  Sc  Sc93  1  0.30107983  0.89105159  0.90628642  1
  Sc  Sc94  1  0.29805521  0.69942120  0.09858897  1
  Sc  Sc95  1  0.89807811  0.69763434  0.30164927  1
  Sc  Sc96  1  0.69493109  0.10406539  0.90140548  1
  Sc  Sc97  1  0.09116155  0.29704121  0.89989583  1
  Sc  Sc98  1  0.50341869  0.29642244  0.29872962  1
  Sc  Sc99  1  0.10677824  0.29476800  0.49469853  1
  Nb  Nb100  1  0.90172690  0.50137499  0.30144771  1
  Nb  Nb101  1  0.09054369  0.09442440  0.49824176  1
  Nb  Nb102  1  0.69112212  0.50452133  0.89790816  1
  Nb  Nb103  1  0.90006813  0.09882338  0.10024990  1
  Nb  Nb104  1  0.09858074  0.90103873  0.09594633  1
  Nb  Nb105  1  0.69353687  0.69881089  0.90178607  1
  Nb  Nb106  1  0.09675134  0.90359503  0.50242328  1
  Nb  Nb107  1  0.50037197  0.89846650  0.50777582  1
  Nb  Nb108  1  0.70019979  0.69988832  0.09517745  1
  Nb  Nb109  1  0.10156717  0.49787593  0.70107143  1
  Nb  Nb110  1  0.49686466  0.70411170  0.30647247  1
  Nb  Nb111  1  0.09730126  0.09992315  0.70040604  1
  Nb  Nb112  1  0.49549643  0.90521659  0.10283954  1
  Nb  Nb113  1  0.69893373  0.50325482  0.09718565  1
  Nb  Nb114  1  0.89484785  0.89546788  0.69816330  1
  Nb  Nb115  1  0.70521522  0.29830242  0.69806502  1
  Nb  Nb116  1  0.10050323  0.30327721  0.29775352  1
  Nb  Nb117  1  0.30203518  0.49448853  0.10173244  1
  Nb  Nb118  1  0.90097231  0.09358433  0.29781962  1
  Nb  Nb119  1  0.30257146  0.09581799  0.30243294  1
  Nb  Nb120  1  0.70598750  0.09463960  0.29536539  1
  Nb  Nb121  1  0.89991405  0.90537656  0.50646210  1
  Nb  Nb122  1  0.50102978  0.90102617  0.69833578  1
  Nb  Nb123  1  0.91054722  0.09519750  0.49095717  1
  Nb  Nb124  1  0.50403998  0.70667956  0.49754181  1
  Nb  Nb125  1  0.60296538  0.40640671  -0.00196784  1
  Nb  Nb126  1  0.80353419  0.18958489  0.20042733  1
  Nb  Nb127  1  -0.00441664  0.19649548  0.20043795  1
  Nb  Nb128  1  0.60719830  0.20532912  0.60171103  1
  Nb  Nb129  1  0.59728494  0.80240940  0.80185924  1
  Nb  Nb130  1  -0.00146111  0.80868997  0.59730963  1
  Nb  Nb131  1  0.20588862  0.40266236  -0.00002579  1
  Nb  Nb132  1  0.19925440  0.40405515  0.80254852  1
  Nb  Nb133  1  -0.00321767  0.00270349  0.19536606  1
  Nb  Nb134  1  0.19905698  0.40020933  0.19587038  1
  Nb  Nb135  1  0.18717193  0.00510078  0.59869787  1
  Nb  Nb136  1  0.39831332  0.40148111  0.00345776  1
  Nb  Nb137  1  0.60618868  0.39402418  0.60541868  1
  Nb  Nb138  1  0.00122429  0.40404663  0.39448349  1
  Nb  Nb139  1  0.19771953  -0.00140510  0.00603186  1
  Nb  Nb140  1  0.59469939  0.60804132  0.39757365  1
  Nb  Nb141  1  0.40137940  -0.00758213  0.79755520  1
  Nb  Nb142  1  0.39833765  -0.00106371  0.40417897  1
  Nb  Nb143  1  0.20048417  0.00180701  0.40546047  1
  Nb  Nb144  1  0.40644373  0.80149901  0.60001953  1
  Nb  Nb145  1  0.80836204  0.18892441  0.39124572  1
  Nb  Nb146  1  0.40478890  0.60257229  0.39922776  1
  Nb  Nb147  1  0.39865412  0.40522417  0.39742355  1
  Nb  Nb148  1  0.80336305  0.59760081  0.60139329  1
  Nb  Nb149  1  0.78584033  0.59863385  -0.00101489  1
  Pd  Pd150  1  0.19643446  0.19720465  -0.01011053  1
  Pd  Pd151  1  0.19996191  0.80973178  0.39686285  1
  Pd  Pd152  1  0.80314773  0.00665035  0.80363435  1
  Pd  Pd153  1  0.60993379  0.00160918  0.60586248  1
  Pd  Pd154  1  0.40848639  0.80077151  0.79217151  1
  Pd  Pd155  1  0.80902997  0.39057741  0.39355175  1
  Pd  Pd156  1  -0.00910614  0.80615779  0.20140788  1
  Pd  Pd157  1  0.80305408  0.59915749  0.80078629  1
  Pd  Pd158  1  0.00636062  -0.01223818  0.38590744  1
  Pd  Pd159  1  0.61292537  0.19438582  0.41043160  1
  Pd  Pd160  1  0.00326101  0.19268969  -0.00017798  1
  Pd  Pd161  1  0.59263603  0.60999855  0.79729366  1
  Pd  Pd162  1  0.60363045  0.60505813  0.20825803  1
  Pd  Pd163  1  0.19320369  -0.00392841  0.20371008  1
  Pd  Pd164  1  0.40870747  0.59618034  0.01141669  1
  Pd  Pd165  1  0.40245481  0.60805509  0.20053122  1
  Pd  Pd166  1  0.59514199  0.80415748  -0.00047125  1
  Pd  Pd167  1  0.79554815  0.41038323  -0.01480804  1
  Pd  Pd168  1  0.40292914  0.19894559  0.39692657  1
  Pd  Pd169  1  -0.00219352  0.80585444  0.39993938  1
  Pd  Pd170  1  -0.00024044  0.59933981  0.40349270  1
  Pd  Pd171  1  0.39317697  0.39859004  0.81209127  1
  Pd  Pd172  1  0.20879382  0.00175366  0.80486329  1
  Pd  Pd173  1  0.59578649  -0.00603334  0.80317183  1
  Pd  Pd174  1  0.59201045  0.41017870  0.40599421  1
  Pd  Pd175  1  0.19513048  0.59751078  0.00672154  1
  Pd  Pd176  1  0.59440404  -0.00837787  0.40140181  1
  Pd  Pd177  1  0.20051329  0.40459887  0.39487789  1
  Pd  Pd178  1  -0.00744793  0.21159126  0.39220280  1
  Pd  Pd179  1  0.18871322  0.79723472  0.81118590  1
  Pd  Pd180  1  -0.00893834  0.60476300  0.19530327  1
  Pd  Pd181  1  0.80581044  0.40929703  0.80055019  1
  Pd  Pd182  1  0.79931410  0.00266914  -0.00845364  1
  Pd  Pd183  1  -0.00076831  -0.00406412  0.60762908  1
  Pd  Pd184  1  0.60285991  0.80531320  0.39840659  1
  Pd  Pd185  1  0.19696855  0.20461220  0.80297613  1
  Pd  Pd186  1  0.18897559  0.19848091  0.60176044  1
  Pd  Pd187  1  0.38550992  -0.00722995  0.60541065  1
  Pd  Pd188  1  0.80272107  0.60536219  0.19467902  1
  Pd  Pd189  1  0.59976141  0.20845991  0.00562643  1
  Pd  Pd190  1  0.59281536  0.59524284  0.00323793  1
  Pd  Pd191  1  0.20392174  0.60131769  0.59765462  1
  Pd  Pd192  1  0.40566721  0.18667872  0.80005408  1
  Pd  Pd193  1  0.40611437  0.61112729  0.79067376  1
  Pd  Pd194  1  0.00350311  0.20366125  0.59687008  1
  Pd  Pd195  1  0.60746446  0.19722244  0.19073308  1
  Pd  Pd196  1  0.60721772  0.39885183  0.19403485  1
  Pd  Pd197  1  0.39523039  0.60855362  0.59597133  1
  Pd  Pd198  1  0.80308894  -0.00168376  0.40470342  1
  Pd  Pd199  1  0.40893759  0.20360686  0.00296106  1
  Rh  Rh200  1  0.00845432  0.00421117  0.00352530  1
  Rh  Rh201  1  -0.00106799  0.79823965  -0.00437124  1
  Rh  Rh202  1  0.20366385  0.80182292  0.19533292  1
  Rh  Rh203  1  0.59909473  -0.00554915  0.00438456  1
  Rh  Rh204  1  0.40740851  0.19290267  0.20757224  1
  Rh  Rh205  1  0.39209736  -0.00299577  -0.00410447  1
  Rh  Rh206  1  0.40299562  0.80518903  0.40890050  1
  Rh  Rh207  1  0.40042258  0.79870824  0.01142272  1
  Rh  Rh208  1  0.59854594  0.39494254  0.79872381  1
  Rh  Rh209  1  0.80625292  0.19536796  0.80643831  1
  Rh  Rh210  1  0.79179676  0.60524934  0.40081217  1
  Rh  Rh211  1  0.19294350  0.59642825  0.80195328  1
  Rh  Rh212  1  0.78994849  0.79706922  0.80385852  1
  Rh  Rh213  1  0.59854526  0.80192555  0.19826356  1
  Rh  Rh214  1  0.19431125  0.20139858  0.21116393  1
  Rh  Rh215  1  0.80695732  -0.00379924  0.19372716  1
  Rh  Rh216  1  -0.00729895  0.19499043  0.79729777  1
  Rh  Rh217  1  0.80345302  0.00456143  0.59631975  1
  Rh  Rh218  1  0.00388422  0.40256898  0.80689394  1
  Rh  Rh219  1  0.59585173  -0.00530139  0.19688951  1
  Rh  Rh220  1  0.79361026  0.39732356  0.20505843  1
  Rh  Rh221  1  0.00726142  0.39072195  0.59025339  1
  Rh  Rh222  1  0.61450166  0.58760869  0.59132924  1
  Rh  Rh223  1  0.00249291  0.60190881  0.80165426  1
  Rh  Rh224  1  0.19736929  0.80699214  0.00170109  1
  Rh  Rh225  1  0.79595810  0.19291934  -0.00003364  1
  Rh  Rh226  1  0.80927361  0.79403743  0.59749792  1
  Rh  Rh227  1  0.41039594  0.00218013  0.20895000  1
  Rh  Rh228  1  0.80084682  0.79026158  -0.00660559  1
  Rh  Rh229  1  0.59841481  0.19797948  0.79214352  1
  Rh  Rh230  1  0.40616673  0.39444679  0.59177154  1
  Rh  Rh231  1  0.00441598  0.40526513  -0.00431236  1
  Rh  Rh232  1  0.19276402  0.39455390  0.60894731  1
  Rh  Rh233  1  0.39172434  0.39246486  0.20350350  1
  Rh  Rh234  1  0.79890296  0.80436645  0.40117861  1
  Rh  Rh235  1  -0.00834016  0.61509855  0.59154504  1
  Rh  Rh236  1  0.19677452  0.59827099  0.18923482  1
  Rh  Rh237  1  0.00655197  0.39957261  0.20412736  1
  Rh  Rh238  1  0.80376244  0.80067173  0.19537335  1
  Rh  Rh239  1  0.59761254  0.80737349  0.60813637  1
  Rh  Rh240  1  0.19733490  0.19394241  0.39936369  1
  Rh  Rh241  1  0.20758180  0.59697537  0.40804155  1
  Rh  Rh242  1  0.40179506  0.79602943  0.19484724  1
  Rh  Rh243  1  0.79526246  0.41096169  0.60874640  1
  Rh  Rh244  1  0.41022618  0.20434323  0.60521618  1
  Rh  Rh245  1  0.00100213  0.79537527  0.79585669  1
  Rh  Rh246  1  0.19279010  0.80686344  0.60388966  1
  Rh  Rh247  1  0.79689040  0.18874292  0.58413782  1
  Rh  Rh248  1  -0.01477861  0.60328266  0.00524253  1
  Rh  Rh249  1  -0.01052012  0.00493702  0.79481112  1
