# generated using pymatgen
data_ZrScNbPdRh
_symmetry_space_group_name_H-M   'P 1'
_cell_length_a   16.55609776
_cell_length_b   16.56003790
_cell_length_c   16.55745705
_cell_angle_alpha   89.99696785
_cell_angle_beta   89.97948447
_cell_angle_gamma   90.03181095
_symmetry_Int_Tables_number   1
_chemical_formula_structural   ZrScNbPdRh
_chemical_formula_sum   'Zr50 Sc50 Nb50 Pd50 Rh50'
_cell_volume   4539.55048305
_cell_formula_units_Z   50
loop_
 _symmetry_equiv_pos_site_id
 _symmetry_equiv_pos_as_xyz
  1  'x, y, z'
loop_
 _atom_site_type_symbol
 _atom_site_label
 _atom_site_symmetry_multiplicity
 _atom_site_fract_x
 _atom_site_fract_y
 _atom_site_fract_z
 _atom_site_occupancy
  Zr  Zr0  1  0.10691144  0.29703220  0.50657370  1
  Zr  Zr1  1  0.10007181  0.90698087  0.89936601  1
  Zr  Zr2  1  0.69055602  0.69809215  0.50215776  1
  Zr  Zr3  1  0.69587339  0.49703197  0.29446528  1
  Zr  Zr4  1  0.89417546  0.09506203  0.69966168  1
  Zr  Zr5  1  0.90217543  0.50126747  0.50017661  1
  Zr  Zr6  1  0.09436731  0.69621557  0.11060509  1
  Zr  Zr7  1  0.70074242  0.49734581  0.50449746  1
  Zr  Zr8  1  0.10796335  0.90364285  0.49716012  1
  Zr  Zr9  1  0.50630856  0.70584434  0.69629669  1
  Zr  Zr10  1  0.29417377  0.69896688  0.89610223  1
  Zr  Zr11  1  0.29837926  0.09757459  0.90279517  1
  Zr  Zr12  1  0.69278525  0.49049053  0.09985198  1
  Zr  Zr13  1  0.29966345  0.90665791  0.29440652  1
  Zr  Zr14  1  0.50015615  0.29652733  0.70015907  1
  Zr  Zr15  1  0.50691955  0.90720569  0.89964787  1
  Zr  Zr16  1  0.69549899  0.29939947  0.28513121  1
  Zr  Zr17  1  0.10288689  0.50521000  0.48922362  1
  Zr  Zr18  1  0.10164797  0.49396843  0.08987935  1
  Zr  Zr19  1  0.10058715  0.69685608  0.89967960  1
  Zr  Zr20  1  0.09844632  0.69728767  0.30259647  1
  Zr  Zr21  1  0.30403089  0.71139252  0.09340619  1
  Zr  Zr22  1  0.09846848  0.09446794  0.08609007  1
  Zr  Zr23  1  0.69795168  0.49863517  0.89552208  1
  Zr  Zr24  1  0.69291985  0.90069018  0.89713500  1
  Zr  Zr25  1  0.89312462  0.10003951  0.50488401  1
  Zr  Zr26  1  0.09806297  0.50354546  0.90132779  1
  Zr  Zr27  1  0.50694246  0.89784812  0.70674265  1
  Zr  Zr28  1  0.29822879  0.09387905  0.10287739  1
  Zr  Zr29  1  0.50368589  0.51056941  0.49459263  1
  Zr  Zr30  1  0.09838430  0.30463505  0.91314783  1
  Zr  Zr31  1  0.69465468  0.11186005  0.09980215  1
  Zr  Zr32  1  0.89304624  0.70553693  0.70919748  1
  Zr  Zr33  1  0.51027161  0.69506215  0.89894218  1
  Zr  Zr34  1  0.89667942  0.90081749  0.88687658  1
  Zr  Zr35  1  0.69082619  0.29603878  0.50697595  1
  Zr  Zr36  1  0.29931957  0.70423907  0.69579065  1
  Zr  Zr37  1  0.30083531  0.49995776  0.90572220  1
  Zr  Zr38  1  0.30562407  0.30002244  0.09324161  1
  Zr  Zr39  1  0.11330772  0.70124015  0.50481552  1
  Zr  Zr40  1  0.30054578  0.29305601  0.69279554  1
  Zr  Zr41  1  0.89494963  0.30094207  0.29952666  1
  Zr  Zr42  1  0.29762539  0.30792184  0.51028983  1
  Zr  Zr43  1  0.49824958  0.89293152  0.48972389  1
  Zr  Zr44  1  0.89243265  0.70340118  0.10010752  1
  Zr  Zr45  1  0.10119475  0.51386161  0.29299164  1
  Zr  Zr46  1  0.31065870  0.50304150  0.10111927  1
  Zr  Zr47  1  0.89452772  0.10184330  0.90171615  1
  Zr  Zr48  1  0.29752446  0.10541521  0.50130097  1
  Zr  Zr49  1  0.29873458  0.50651469  0.30201609  1
  Sc  Sc50  1  0.50294549  0.30487511  0.10319408  1
  Sc  Sc51  1  0.69374822  0.70628578  0.29424215  1
  Sc  Sc52  1  0.50895196  0.49106220  0.70366764  1
  Sc  Sc53  1  0.88566440  0.29878230  0.09300127  1
  Sc  Sc54  1  0.70092703  0.29704437  0.90205332  1
  Sc  Sc55  1  0.29439371  0.69999210  0.29810921  1
  Sc  Sc56  1  0.29295744  0.88863259  0.90416322  1
  Sc  Sc57  1  0.09090172  0.50340764  0.70535059  1
  Sc  Sc58  1  0.89731146  0.49202745  0.70282850  1
  Sc  Sc59  1  0.10203754  0.90356128  0.10126124  1
  Sc  Sc60  1  0.89896515  0.89602489  0.29542141  1
  Sc  Sc61  1  0.10545648  0.09011254  0.30636082  1
  Sc  Sc62  1  0.30354519  0.88982246  0.70710251  1
  Sc  Sc63  1  0.30971545  0.29521501  0.89932318  1
  Sc  Sc64  1  0.68717684  0.10416318  0.30604430  1
  Sc  Sc65  1  0.30239508  0.09802870  0.29999846  1
  Sc  Sc66  1  0.09778329  0.10239520  0.49163417  1
  Sc  Sc67  1  0.10020783  0.29086159  0.31709489  1
  Sc  Sc68  1  0.90570540  0.09921698  0.30576326  1
  Sc  Sc69  1  0.50636098  0.49775789  0.90299188  1
  Sc  Sc70  1  0.50492085  0.10205475  0.89819689  1
  Sc  Sc71  1  0.90064025  0.09971778  0.09557650  1
  Sc  Sc72  1  0.49748946  0.88429924  0.10036873  1
  Sc  Sc73  1  0.49661876  0.29542212  0.51067966  1
  Sc  Sc74  1  0.88935567  0.70720208  0.50342462  1
  Sc  Sc75  1  0.91027790  0.69799494  0.29219814  1
  Sc  Sc76  1  0.69811272  0.30268864  0.70638061  1
  Sc  Sc77  1  0.70023845  0.49892932  0.70000779  1
  Sc  Sc78  1  0.49707943  0.10465174  0.30386970  1
  Sc  Sc79  1  0.90587664  0.30856143  0.49989443  1
  Sc  Sc80  1  0.30413093  0.10630645  0.70477432  1
  Sc  Sc81  1  0.69625248  0.89300569  0.30337890  1
  Sc  Sc82  1  0.10612836  0.69943469  0.70801027  1
  Sc  Sc83  1  0.89663628  0.49692197  0.09176944  1
  Sc  Sc84  1  0.69479752  0.88486618  0.10159963  1
  Sc  Sc85  1  0.49891980  0.10378937  0.70610571  1
  Sc  Sc86  1  0.70418420  0.11206672  0.69775949  1
  Sc  Sc87  1  0.30473027  0.29492896  0.30224884  1
  Sc  Sc88  1  0.89039484  0.90862363  0.50382056  1
  Sc  Sc89  1  0.10940935  0.09711316  0.70552060  1
  Sc  Sc90  1  0.90028665  0.50196730  0.89827292  1
  Sc  Sc91  1  0.49821654  0.51263573  0.28910121  1
  Sc  Sc92  1  0.70434999  0.89857914  0.49238932  1
  Sc  Sc93  1  0.90582463  0.49991325  0.30083416  1
  Sc  Sc94  1  0.90362671  0.89857725  0.10373420  1
  Sc  Sc95  1  0.50800305  0.10398880  0.49280292  1
  Sc  Sc96  1  0.30727745  0.48705810  0.69129592  1
  Sc  Sc97  1  0.50370619  0.29863751  0.89641356  1
  Sc  Sc98  1  0.49951366  0.10551259  0.09448051  1
  Sc  Sc99  1  0.50359779  0.70150213  0.30537567  1
  Nb  Nb100  1  0.30008784  0.90108901  0.09918458  1
  Nb  Nb101  1  0.70453235  0.89295263  0.69844246  1
  Nb  Nb102  1  0.90352898  0.29585039  0.71096817  1
  Nb  Nb103  1  0.69796006  0.30339619  0.10651476  1
  Nb  Nb104  1  0.71337084  0.69635040  0.89852144  1
  Nb  Nb105  1  0.70110940  0.69725904  0.09846286  1
  Nb  Nb106  1  0.49976093  0.50912418  0.09652980  1
  Nb  Nb107  1  0.30248620  0.50460104  0.49820817  1
  Nb  Nb108  1  0.10220058  0.29689691  0.70363039  1
  Nb  Nb109  1  0.10034678  0.30052456  0.09820002  1
  Nb  Nb110  1  0.69893112  0.70368182  0.70414030  1
  Nb  Nb111  1  0.69862141  0.09931106  0.50272974  1
  Nb  Nb112  1  0.30214213  0.89228036  0.50420147  1
  Nb  Nb113  1  0.50310244  0.30129693  0.30507013  1
  Nb  Nb114  1  0.50529367  0.68965328  0.10006349  1
  Nb  Nb115  1  0.30739370  0.70523334  0.50468498  1
  Nb  Nb116  1  0.09673714  0.09746778  0.90455044  1
  Nb  Nb117  1  0.49523020  0.69932864  0.49734257  1
  Nb  Nb118  1  0.69540626  0.09832863  0.90731263  1
  Nb  Nb119  1  0.09572955  0.90062964  0.69827599  1
  Nb  Nb120  1  0.89862156  0.90120499  0.69672621  1
  Nb  Nb121  1  0.89444124  0.70002036  0.90277489  1
  Nb  Nb122  1  0.89443959  0.29953980  0.89181854  1
  Nb  Nb123  1  0.09986733  0.89948425  0.30167590  1
  Nb  Nb124  1  0.50683169  0.90450739  0.29912016  1
  Nb  Nb125  1  0.20791416  -0.00626304  0.59853703  1
  Nb  Nb126  1  0.00732894  0.39149406  0.19612810  1
  Nb  Nb127  1  0.59823109  -0.00306012  0.19860126  1
  Nb  Nb128  1  0.60188924  -0.00202937  0.59859386  1
  Nb  Nb129  1  0.00013532  0.80521992  0.60294909  1
  Nb  Nb130  1  0.59340842  0.39833618  0.39644458  1
  Nb  Nb131  1  -0.00372225  0.79574771  -0.00689212  1
  Nb  Nb132  1  0.19701301  0.39455824  0.19748899  1
  Nb  Nb133  1  0.19300095  0.20246712  0.19416970  1
  Nb  Nb134  1  0.00568190  0.80288239  0.40587046  1
  Nb  Nb135  1  0.79373437  0.20165053  0.40544041  1
  Nb  Nb136  1  0.19737993  0.39394328  0.80028829  1
  Nb  Nb137  1  0.79557187  0.59936479  0.39580773  1
  Nb  Nb138  1  0.78955277  0.00179985  0.19586564  1
  Nb  Nb139  1  0.40301206  0.40474399  0.40223913  1
  Nb  Nb140  1  0.00703071  0.20395686  0.19584351  1
  Nb  Nb141  1  0.78944334  0.00066987  0.00186292  1
  Nb  Nb142  1  0.40143689  0.60509342  0.59746909  1
  Nb  Nb143  1  0.39723267  -0.00638227  0.00247037  1
  Nb  Nb144  1  -0.00250920  0.60846241  0.59919353  1
  Nb  Nb145  1  0.00291069  0.20064322  0.80377007  1
  Nb  Nb146  1  0.79468727  0.59978280  0.19623375  1
  Nb  Nb147  1  0.00023676  0.20359408  0.61136736  1
  Nb  Nb148  1  0.40165945  0.60098151  0.79512602  1
  Nb  Nb149  1  0.40211094  -0.00661402  0.59686322  1
  Pd  Pd150  1  0.00614233  0.40149179  0.60265429  1
  Pd  Pd151  1  -0.00947061  0.20641468  0.00035080  1
  Pd  Pd152  1  0.40630581  0.79984128  -0.00791862  1
  Pd  Pd153  1  0.80367472  0.60266780  0.60062031  1
  Pd  Pd154  1  0.39803551  0.61357107  0.20033368  1
  Pd  Pd155  1  0.60311039  0.80842170  0.59225692  1
  Pd  Pd156  1  0.20309320  0.80070779  0.39464222  1
  Pd  Pd157  1  0.21166486  0.58451722  0.78876989  1
  Pd  Pd158  1  0.20735544  -0.00543728  0.79471704  1
  Pd  Pd159  1  0.80689633  0.79113086  0.38997424  1
  Pd  Pd160  1  0.60181523  0.79346406  -0.00218969  1
  Pd  Pd161  1  0.40552036  0.79570031  0.20666376  1
  Pd  Pd162  1  0.20454497  0.19993409  0.00028055  1
  Pd  Pd163  1  0.00087209  0.00922315  0.79762280  1
  Pd  Pd164  1  0.20323049  0.60473435  0.00861578  1
  Pd  Pd165  1  0.78983210  0.39892226  0.39801486  1
  Pd  Pd166  1  0.18859921  0.41170222  0.60761338  1
  Pd  Pd167  1  0.80153943  0.39159719  0.60771828  1
  Pd  Pd168  1  0.19686384  0.20496957  0.81087811  1
  Pd  Pd169  1  0.20571717  0.39800914  0.39172780  1
  Pd  Pd170  1  0.39842160  0.00081149  0.40433731  1
  Pd  Pd171  1  0.00751495  0.40105837  0.39273021  1
  Pd  Pd172  1  0.79752797  0.39880115  -0.00769822  1
  Pd  Pd173  1  0.59679270  0.59722668  0.60800589  1
  Pd  Pd174  1  0.60867434  0.59825479  -0.00079646  1
  Pd  Pd175  1  0.00397074  0.39703922  0.80627906  1
  Pd  Pd176  1  0.80368592  0.80964356  -0.00192762  1
  Pd  Pd177  1  0.41178085  0.39957451  -0.00364337  1
  Pd  Pd178  1  0.80706275  0.21226534  0.59734316  1
  Pd  Pd179  1  0.00384898  0.79676671  0.79963668  1
  Pd  Pd180  1  0.40009650  0.20085400  0.19984641  1
  Pd  Pd181  1  0.39593873  0.79793938  0.38734101  1
  Pd  Pd182  1  0.00861876  0.00453409  0.59962776  1
  Pd  Pd183  1  0.80802343  0.18872827  0.20685497  1
  Pd  Pd184  1  -0.00280373  0.00602779  0.20104710  1
  Pd  Pd185  1  0.80129326  0.59300406  0.79697323  1
  Pd  Pd186  1  0.39326246  -0.00228294  0.80269997  1
  Pd  Pd187  1  0.39716180  0.40321322  0.80217308  1
  Pd  Pd188  1  -0.00636739  0.60505851  0.00203216  1
  Pd  Pd189  1  0.79381378  0.00671030  0.38827755  1
  Pd  Pd190  1  0.40504466  0.79472909  0.80933622  1
  Pd  Pd191  1  0.78823332  0.00418464  0.79874091  1
  Pd  Pd192  1  0.40050824  0.39879760  0.20739450  1
  Pd  Pd193  1  0.20226613  0.59164520  0.60618519  1
  Pd  Pd194  1  0.41191647  -0.00053238  0.19289539  1
  Pd  Pd195  1  0.60970106  0.01111215  0.78752398  1
  Pd  Pd196  1  0.39737363  0.20752543  0.40740172  1
  Pd  Pd197  1  0.59727706  0.21119056  -0.00029896  1
  Pd  Pd198  1  0.19650792  0.80451848  0.19815641  1
  Pd  Pd199  1  -0.00692080  -0.00827298  0.40060360  1
  Rh  Rh200  1  0.59318429  0.79907417  0.19968341  1
  Rh  Rh201  1  0.59469604  0.19079212  0.60614531  1
  Rh  Rh202  1  0.21006077  0.39849171  -0.00160638  1
  Rh  Rh203  1  0.60485351  0.19897378  0.80188101  1
  Rh  Rh204  1  0.60829691  0.59865022  0.39635371  1
  Rh  Rh205  1  0.60236167  0.60269927  0.79636236  1
  Rh  Rh206  1  0.60464653  0.60480774  0.19558179  1
  Rh  Rh207  1  0.18720324  0.79971243  0.00631580  1
  Rh  Rh208  1  0.79393286  0.19945751  -0.00328126  1
  Rh  Rh209  1  0.20838002  0.19872543  0.39555988  1
  Rh  Rh210  1  0.79297263  0.80128753  0.80018565  1
  Rh  Rh211  1  -0.00992450  0.60388585  0.79540094  1
  Rh  Rh212  1  0.40204631  0.20151182  0.80170306  1
  Rh  Rh213  1  -0.01101366  0.58677542  0.18816104  1
  Rh  Rh214  1  0.00643266  0.80623612  0.20237397  1
  Rh  Rh215  1  0.78679788  -0.00628372  0.60494191  1
  Rh  Rh216  1  0.19220936  0.80613563  0.79699269  1
  Rh  Rh217  1  0.41077018  0.41089612  0.59020856  1
  Rh  Rh218  1  0.40618314  0.18802013  0.59947721  1
  Rh  Rh219  1  0.58540087  0.40297784  0.20072185  1
  Rh  Rh220  1  -0.01244031  0.20012646  0.40728456  1
  Rh  Rh221  1  -0.01253296  -0.01164812  -0.00513963  1
  Rh  Rh222  1  0.20743676  -0.00601871  -0.00204046  1
  Rh  Rh223  1  0.58889606  0.19669549  0.19973058  1
  Rh  Rh224  1  0.59687526  0.40011713  0.59699903  1
  Rh  Rh225  1  0.40762116  0.80123207  0.60021093  1
  Rh  Rh226  1  0.60414213  0.39585540  0.80360924  1
  Rh  Rh227  1  0.19000049  0.18714192  0.59857781  1
  Rh  Rh228  1  0.81041906  0.40725192  0.19637784  1
  Rh  Rh229  1  -0.01307530  0.39351220  0.00108720  1
  Rh  Rh230  1  0.59790760  0.39698874  0.00269534  1
  Rh  Rh231  1  0.20769680  0.59643809  0.19041255  1
  Rh  Rh232  1  0.79391647  0.59680128  0.00348697  1
  Rh  Rh233  1  0.19601512  0.80780331  0.60802175  1
  Rh  Rh234  1  0.20987796  0.60785501  0.40461697  1
  Rh  Rh235  1  0.60134048  -0.00205283  0.39912140  1
  Rh  Rh236  1  0.59702231  -0.00413969  0.01074902  1
  Rh  Rh237  1  0.19524425  0.00251255  0.20011362  1
  Rh  Rh238  1  0.80102124  0.80380854  0.60269732  1
  Rh  Rh239  1  0.39455406  0.60264307  0.40425627  1
  Rh  Rh240  1  0.59928744  0.79755805  0.40104660  1
  Rh  Rh241  1  0.60911857  0.79319578  0.80528584  1
  Rh  Rh242  1  0.40174314  0.60671345  -0.00752788  1
  Rh  Rh243  1  0.40440668  0.19111597  -0.00393898  1
  Rh  Rh244  1  0.79860755  0.19869503  0.80511045  1
  Rh  Rh245  1  0.20970478  -0.00244304  0.40270832  1
  Rh  Rh246  1  0.60452347  0.20871661  0.40008644  1
  Rh  Rh247  1  -0.01295381  0.61452077  0.41462058  1
  Rh  Rh248  1  0.79831839  0.79896024  0.20256307  1
  Rh  Rh249  1  0.79685574  0.40016480  0.80170507  1
