# generated using pymatgen
data_ZrScNbPdRh
_symmetry_space_group_name_H-M   'P 1'
_cell_length_a   16.55305273
_cell_length_b   16.55299824
_cell_length_c   16.55231427
_cell_angle_alpha   90.01044288
_cell_angle_beta   90.03847796
_cell_angle_gamma   90.02239580
_symmetry_Int_Tables_number   1
_chemical_formula_structural   ZrScNbPdRh
_chemical_formula_sum   'Zr50 Sc50 Nb50 Pd50 Rh50'
_cell_volume   4535.37657083
_cell_formula_units_Z   50
loop_
 _symmetry_equiv_pos_site_id
 _symmetry_equiv_pos_as_xyz
  1  'x, y, z'
loop_
 _atom_site_type_symbol
 _atom_site_label
 _atom_site_symmetry_multiplicity
 _atom_site_fract_x
 _atom_site_fract_y
 _atom_site_fract_z
 _atom_site_occupancy
  Zr  Zr0  1  0.50791996  0.90423033  0.70246819  1
  Zr  Zr1  1  0.69374078  0.09043207  0.68709427  1
  Zr  Zr2  1  0.70810609  0.69376577  0.30101813  1
  Zr  Zr3  1  0.29994168  0.50688558  0.09835503  1
  Zr  Zr4  1  0.50277856  0.90291266  0.10238218  1
  Zr  Zr5  1  0.10223294  0.70172812  0.89845333  1
  Zr  Zr6  1  0.49606790  0.89167576  0.49103510  1
  Zr  Zr7  1  0.30244339  0.30555908  0.50590142  1
  Zr  Zr8  1  0.70433703  0.69839141  0.70295442  1
  Zr  Zr9  1  0.50537298  0.10427653  0.09999310  1
  Zr  Zr10  1  0.10296025  0.30331466  0.10168748  1
  Zr  Zr11  1  0.49733312  0.29910623  0.89822738  1
  Zr  Zr12  1  0.90575564  0.89322723  0.29690281  1
  Zr  Zr13  1  0.29967995  0.09135442  0.90119174  1
  Zr  Zr14  1  0.89478448  0.09530591  0.09678449  1
  Zr  Zr15  1  0.10376410  0.09804061  0.10574799  1
  Zr  Zr16  1  0.10045258  0.69813667  0.50340809  1
  Zr  Zr17  1  0.90261963  0.70468367  0.50010113  1
  Zr  Zr18  1  0.50275250  0.48641054  0.09871762  1
  Zr  Zr19  1  0.10500778  0.30438797  0.29754961  1
  Zr  Zr20  1  0.28893137  0.09423803  0.49889184  1
  Zr  Zr21  1  0.49225929  0.70182208  0.10008139  1
  Zr  Zr22  1  0.69370324  0.70020851  0.09305301  1
  Zr  Zr23  1  0.69875734  0.49708787  0.50356891  1
  Zr  Zr24  1  0.49432634  0.28582894  0.69708583  1
  Zr  Zr25  1  0.89692353  0.70264959  0.88711577  1
  Zr  Zr26  1  0.10121936  0.50278496  0.69868345  1
  Zr  Zr27  1  0.31005493  0.90864099  0.30405016  1
  Zr  Zr28  1  0.29677401  0.49920194  0.31648682  1
  Zr  Zr29  1  0.10768590  0.50012067  0.30156198  1
  Zr  Zr30  1  0.10076566  0.10721892  0.50475021  1
  Zr  Zr31  1  0.50233993  0.70196654  0.30547774  1
  Zr  Zr32  1  0.89647565  0.50176586  0.29509309  1
  Zr  Zr33  1  0.30635325  0.69632245  0.49834348  1
  Zr  Zr34  1  0.49839354  0.09450794  0.29249573  1
  Zr  Zr35  1  0.10356784  0.91058508  0.50817065  1
  Zr  Zr36  1  0.29542485  0.30501392  0.30419652  1
  Zr  Zr37  1  0.29979602  0.70665294  0.10450219  1
  Zr  Zr38  1  0.29825576  0.48875091  0.89408220  1
  Zr  Zr39  1  0.08962217  0.69411358  0.70172897  1
  Zr  Zr40  1  0.89173340  0.49129475  0.91028947  1
  Zr  Zr41  1  0.89995739  0.29884798  0.30047624  1
  Zr  Zr42  1  0.49519415  0.50192766  0.70884033  1
  Zr  Zr43  1  0.50455501  0.10098657  0.69817453  1
  Zr  Zr44  1  0.89970894  0.10123848  0.29676681  1
  Zr  Zr45  1  0.88892132  0.30224695  0.89184375  1
  Zr  Zr46  1  0.09691446  0.09914381  0.69592284  1
  Zr  Zr47  1  0.69818668  0.69300829  0.49967174  1
  Zr  Zr48  1  0.89958654  0.49942001  0.70017787  1
  Zr  Zr49  1  0.50742334  0.70460488  0.90180131  1
  Sc  Sc50  1  0.70622463  0.29608052  0.70121577  1
  Sc  Sc51  1  0.09189430  0.29822783  0.69567589  1
  Sc  Sc52  1  0.70256040  0.50471777  0.09469350  1
  Sc  Sc53  1  0.11102579  0.50141128  0.50671235  1
  Sc  Sc54  1  0.09612408  0.89791795  0.29654166  1
  Sc  Sc55  1  0.49547942  0.49691631  0.90313634  1
  Sc  Sc56  1  0.68750471  0.30098202  0.09210757  1
  Sc  Sc57  1  0.51465782  0.10486091  0.50136568  1
  Sc  Sc58  1  0.50327540  0.90407286  0.30249209  1
  Sc  Sc59  1  0.48906305  0.50281728  0.49575798  1
  Sc  Sc60  1  0.70033203  0.49793921  0.90254666  1
  Sc  Sc61  1  0.69555625  0.10236813  0.29621321  1
  Sc  Sc62  1  0.30217980  0.10727457  0.69488989  1
  Sc  Sc63  1  0.70202309  0.89437823  0.91039122  1
  Sc  Sc64  1  0.89245948  0.49476250  0.51075535  1
  Sc  Sc65  1  0.88919704  0.69708298  0.10178470  1
  Sc  Sc66  1  0.30064244  0.89717759  0.10044750  1
  Sc  Sc67  1  0.30657814  0.29971963  0.70042831  1
  Sc  Sc68  1  0.29793404  0.69807408  0.90949603  1
  Sc  Sc69  1  0.09414567  0.09020018  0.89015956  1
  Sc  Sc70  1  0.49796115  0.69670389  0.49871266  1
  Sc  Sc71  1  0.50504949  0.10218502  0.89455853  1
  Sc  Sc72  1  0.49528951  0.90353846  0.90010540  1
  Sc  Sc73  1  0.69636731  0.50434804  0.29972250  1
  Sc  Sc74  1  0.69829201  0.09757206  0.09833829  1
  Sc  Sc75  1  0.91064475  0.09933630  0.49869891  1
  Sc  Sc76  1  0.30671097  0.69549180  0.70700284  1
  Sc  Sc77  1  0.49933190  0.49952882  0.30231403  1
  Sc  Sc78  1  0.49559550  0.30161748  0.28936228  1
  Sc  Sc79  1  0.11026432  0.49977224  0.89742659  1
  Sc  Sc80  1  0.70351097  0.50398888  0.69616770  1
  Sc  Sc81  1  0.10345993  0.70759819  0.29649399  1
  Sc  Sc82  1  0.69764585  0.69622489  0.89934161  1
  Sc  Sc83  1  0.69997302  0.11030558  0.90359345  1
  Sc  Sc84  1  0.50259055  0.69852779  0.71155381  1
  Sc  Sc85  1  0.29954003  0.31028364  0.10495290  1
  Sc  Sc86  1  0.90040604  0.89314979  0.69619767  1
  Sc  Sc87  1  0.29842263  0.09064226  0.11169279  1
  Sc  Sc88  1  0.70918746  0.29131289  0.30379139  1
  Sc  Sc89  1  0.29989154  0.69468195  0.29378106  1
  Sc  Sc90  1  0.70244585  0.90657806  0.50289185  1
  Sc  Sc91  1  0.10999985  0.70771342  0.10702381  1
  Sc  Sc92  1  0.91063741  0.30797790  0.08370518  1
  Sc  Sc93  1  0.08926275  0.30355821  0.90179066  1
  Sc  Sc94  1  0.10708045  0.89443843  0.10822516  1
  Sc  Sc95  1  0.10044256  0.49012173  0.10056097  1
  Sc  Sc96  1  0.90269779  0.30490414  0.69918760  1
  Sc  Sc97  1  0.30642471  0.90527105  0.70456027  1
  Sc  Sc98  1  0.89884960  0.10797935  0.89876251  1
  Sc  Sc99  1  0.90489024  0.89792645  0.49711433  1
  Nb  Nb100  1  0.10392633  0.90795561  0.70870930  1
  Nb  Nb101  1  0.69549001  0.30384513  0.89560383  1
  Nb  Nb102  1  0.89847925  0.10028750  0.70201608  1
  Nb  Nb103  1  0.49999815  0.29643128  0.50121087  1
  Nb  Nb104  1  0.11087638  0.10644797  0.29782086  1
  Nb  Nb105  1  0.08793518  0.29754381  0.50619942  1
  Nb  Nb106  1  0.89528463  0.90043749  0.09662789  1
  Nb  Nb107  1  0.70288731  0.29379958  0.49838619  1
  Nb  Nb108  1  0.49609364  0.30124967  0.09272594  1
  Nb  Nb109  1  0.29700065  0.49704282  0.70000659  1
  Nb  Nb110  1  0.30215179  0.89728051  0.50182249  1
  Nb  Nb111  1  0.89609470  0.29991079  0.49913847  1
  Nb  Nb112  1  0.70510139  0.90033856  0.10114322  1
  Nb  Nb113  1  0.70208341  0.90616737  0.69139215  1
  Nb  Nb114  1  0.69854257  0.90286985  0.29994726  1
  Nb  Nb115  1  0.90464770  0.70196786  0.30132297  1
  Nb  Nb116  1  0.29532817  0.10526002  0.30185729  1
  Nb  Nb117  1  0.90022428  0.49992830  0.09856779  1
  Nb  Nb118  1  0.28609211  0.90297163  0.89922069  1
  Nb  Nb119  1  0.89904149  0.90437989  0.90009948  1
  Nb  Nb120  1  0.30027445  0.29702780  0.89878747  1
  Nb  Nb121  1  0.70287312  0.10077808  0.49647238  1
  Nb  Nb122  1  0.90191075  0.69280321  0.69635739  1
  Nb  Nb123  1  0.29809705  0.49959257  0.49808190  1
  Nb  Nb124  1  0.09685000  0.90294968  0.89478963  1
  Nb  Nb125  1  0.80237369  0.19675710  0.59240353  1
  Nb  Nb126  1  0.60789884  0.80258904  0.19952151  1
  Nb  Nb127  1  0.59629567  0.39300412  0.59770129  1
  Nb  Nb128  1  0.39743540  0.19848052  0.39837417  1
  Nb  Nb129  1  -0.00086409  0.39958090  0.40508674  1
  Nb  Nb130  1  0.79935525  0.00184738  0.39651123  1
  Nb  Nb131  1  0.79989798  -0.00208098  0.79621221  1
  Nb  Nb132  1  0.19624006  0.80584328  0.79885796  1
  Nb  Nb133  1  0.59768838  0.39516991  0.79474034  1
  Nb  Nb134  1  0.80345479  0.40162088  0.19342184  1
  Nb  Nb135  1  0.59973555  0.39112930  0.40826826  1
  Nb  Nb136  1  0.20241380  0.80452987  0.60547634  1
  Nb  Nb137  1  0.20435358  0.19968389  -0.00402434  1
  Nb  Nb138  1  0.60348208  0.80116887  0.60372526  1
  Nb  Nb139  1  0.00330958  0.19952738  0.19987751  1
  Nb  Nb140  1  0.20508393  0.80481416  0.40947727  1
  Nb  Nb141  1  -0.00255249  0.60351829  0.00398073  1
  Nb  Nb142  1  0.39610690  0.20192906  0.00280440  1
  Nb  Nb143  1  -0.00387377  0.80355508  -0.00274191  1
  Nb  Nb144  1  -0.00125291  0.59724632  0.39658604  1
  Nb  Nb145  1  -0.00361943  -0.00967966  0.00081640  1
  Nb  Nb146  1  -0.00308684  0.59982656  0.19916301  1
  Nb  Nb147  1  0.19992446  0.20052621  0.80612883  1
  Nb  Nb148  1  0.79699008  0.80448395  0.20118082  1
  Nb  Nb149  1  0.40307175  -0.00180483  0.59380611  1
  Pd  Pd150  1  0.40160078  0.59753901  -0.00456449  1
  Pd  Pd151  1  0.19157990  0.59979108  0.00749719  1
  Pd  Pd152  1  0.79632134  0.79745849  0.59819906  1
  Pd  Pd153  1  0.61347077  -0.00296010  0.81290587  1
  Pd  Pd154  1  0.40444568  0.40689198  0.60229246  1
  Pd  Pd155  1  0.59025408  0.60057506  0.60155807  1
  Pd  Pd156  1  0.19564282  0.38744987  0.79229788  1
  Pd  Pd157  1  0.40404630  0.80344279  0.60925882  1
  Pd  Pd158  1  0.79563648  -0.00245249  0.20550085  1
  Pd  Pd159  1  0.00073305  0.80504667  0.79680481  1
  Pd  Pd160  1  0.20920070  0.60629104  0.60795032  1
  Pd  Pd161  1  0.00924822  0.18934700  -0.00049337  1
  Pd  Pd162  1  0.80636826  0.21265785  0.18309349  1
  Pd  Pd163  1  0.60966671  0.80777690  0.79846430  1
  Pd  Pd164  1  0.79424518  0.80884753  0.79637942  1
  Pd  Pd165  1  0.59524589  0.60283663  0.19700148  1
  Pd  Pd166  1  0.39076059  0.20089212  0.19768577  1
  Pd  Pd167  1  0.00297326  0.00212725  0.19664299  1
  Pd  Pd168  1  0.59295934  0.20374749  0.39021499  1
  Pd  Pd169  1  0.19792811  0.39456179  0.60409527  1
  Pd  Pd170  1  0.39684336  0.80768656  -0.00618617  1
  Pd  Pd171  1  -0.00343748  0.58738581  0.81129350  1
  Pd  Pd172  1  0.39156430  0.80221131  0.80866883  1
  Pd  Pd173  1  0.79545751  0.20761147  0.00400081  1
  Pd  Pd174  1  0.19188613  -0.00574844  0.39237755  1
  Pd  Pd175  1  0.40159437  0.00352386  0.00419181  1
  Pd  Pd176  1  0.40696347  0.01262902  0.40856751  1
  Pd  Pd177  1  0.39495496  0.60096918  0.81203634  1
  Pd  Pd178  1  0.80784439  0.59434767  0.40716197  1
  Pd  Pd179  1  0.00607810  0.80609404  0.60446316  1
  Pd  Pd180  1  0.39940003  0.00529365  0.79430356  1
  Pd  Pd181  1  0.00340614  0.20302372  0.39418177  1
  Pd  Pd182  1  0.61073038  0.39384653  0.20902404  1
  Pd  Pd183  1  0.79403627  0.19199048  0.79117725  1
  Pd  Pd184  1  -0.00750533  -0.00294041  0.60521252  1
  Pd  Pd185  1  0.79575027  0.80832623  0.39950437  1
  Pd  Pd186  1  0.19058409  -0.00100622  0.00444085  1
  Pd  Pd187  1  0.39925406  0.59579776  0.60320946  1
  Pd  Pd188  1  0.40343535  0.59335828  0.20443795  1
  Pd  Pd189  1  0.79736420  0.59242861  0.80306946  1
  Pd  Pd190  1  0.00211906  0.40511917  0.80298364  1
  Pd  Pd191  1  0.60896898  0.79981853  0.40190144  1
  Pd  Pd192  1  0.20165337  0.20913144  0.40827776  1
  Pd  Pd193  1  0.59504828  0.59210195  -0.00259683  1
  Pd  Pd194  1  0.60490945  0.00038698  -0.00432905  1
  Pd  Pd195  1  0.39568639  0.40716976  0.20417071  1
  Pd  Pd196  1  0.00315615  0.00254534  0.39514787  1
  Pd  Pd197  1  0.80397988  0.79403261  0.00037009  1
  Pd  Pd198  1  0.79696240  0.40339102  0.39406080  1
  Pd  Pd199  1  0.60227242  0.20740363  0.20067335  1
  Rh  Rh200  1  0.60079057  0.40049960  -0.00893942  1
  Rh  Rh201  1  0.00491691  0.19960536  0.79653390  1
  Rh  Rh202  1  0.00053726  0.40473279  0.59324469  1
  Rh  Rh203  1  0.59025373  -0.01074541  0.58529681  1
  Rh  Rh204  1  0.20475075  0.60566374  0.79561799  1
  Rh  Rh205  1  0.20063729  0.20185404  0.19285766  1
  Rh  Rh206  1  0.59292696  0.20221174  -0.00230652  1
  Rh  Rh207  1  0.20238333  -0.00619669  0.20836629  1
  Rh  Rh208  1  0.80976853  0.00769254  0.59606383  1
  Rh  Rh209  1  0.39146300  0.79239088  0.39107273  1
  Rh  Rh210  1  0.19613085  0.61110839  0.39994884  1
  Rh  Rh211  1  0.39990425  0.00092462  0.19850705  1
  Rh  Rh212  1  0.21486442  0.80861767  0.21466778  1
  Rh  Rh213  1  0.40700835  0.39266215  0.40159403  1
  Rh  Rh214  1  0.39434432  0.39553852  0.00029329  1
  Rh  Rh215  1  -0.01315229  0.00138379  0.80046835  1
  Rh  Rh216  1  0.21026048  -0.00427668  0.61020686  1
  Rh  Rh217  1  0.80494858  0.18791681  0.40759234  1
  Rh  Rh218  1  0.01281784  0.79463067  0.40387640  1
  Rh  Rh219  1  0.61161731  0.20642998  0.60169120  1
  Rh  Rh220  1  0.79112043  0.40329413  0.79488061  1
  Rh  Rh221  1  0.79414295  0.38870420  0.60392386  1
  Rh  Rh222  1  -0.01136832  0.79094529  0.18740252  1
  Rh  Rh223  1  0.79146734  0.39367172  0.00751582  1
  Rh  Rh224  1  0.19362814  0.80655850  -0.00707876  1
  Rh  Rh225  1  0.19806351  0.20735498  0.60628825  1
  Rh  Rh226  1  -0.00610198  0.59358824  0.59171154  1
  Rh  Rh227  1  -0.00806882  0.39879926  0.20561460  1
  Rh  Rh228  1  0.40211940  0.39716973  0.79557950  1
  Rh  Rh229  1  0.20144838  0.39421233  -0.00119557  1
  Rh  Rh230  1  0.80240159  0.00525229  -0.00964077  1
  Rh  Rh231  1  -0.01123042  0.19972074  0.60576619  1
  Rh  Rh232  1  0.80425616  0.60560435  -0.00540857  1
  Rh  Rh233  1  0.19440027  0.59744317  0.19639243  1
  Rh  Rh234  1  0.60405520  -0.00367649  0.19696472  1
  Rh  Rh235  1  0.39957745  0.60141016  0.39742404  1
  Rh  Rh236  1  0.18982535  0.39218232  0.41668006  1
  Rh  Rh237  1  0.39502826  0.18648672  0.58390447  1
  Rh  Rh238  1  0.60159761  0.59009402  0.80512552  1
  Rh  Rh239  1  0.60662307  0.00189147  0.40063286  1
  Rh  Rh240  1  0.59597605  0.59017157  0.40273039  1
  Rh  Rh241  1  0.20990119  0.41064821  0.19834392  1
  Rh  Rh242  1  0.00715271  0.41076061  -0.00753376  1
  Rh  Rh243  1  0.59526976  0.80457505  0.00473227  1
  Rh  Rh244  1  0.80144277  0.60046777  0.19716162  1
  Rh  Rh245  1  0.20478027  0.00486458  0.79298442  1
  Rh  Rh246  1  0.39219674  0.19288406  0.80969340  1
  Rh  Rh247  1  0.40809606  0.80384912  0.20534041  1
  Rh  Rh248  1  0.60549727  0.20380350  0.79627606  1
  Rh  Rh249  1  0.80550774  0.60600596  0.59908888  1
