# generated using pymatgen
data_ZrScNbPdRh
_symmetry_space_group_name_H-M   'P 1'
_cell_length_a   16.56060764
_cell_length_b   16.55815396
_cell_length_c   16.56224052
_cell_angle_alpha   90.05401998
_cell_angle_beta   90.00939135
_cell_angle_gamma   89.97767264
_symmetry_Int_Tables_number   1
_chemical_formula_structural   ZrScNbPdRh
_chemical_formula_sum   'Zr50 Sc50 Nb50 Pd50 Rh50'
_cell_volume   4541.58074274
_cell_formula_units_Z   50
loop_
 _symmetry_equiv_pos_site_id
 _symmetry_equiv_pos_as_xyz
  1  'x, y, z'
loop_
 _atom_site_type_symbol
 _atom_site_label
 _atom_site_symmetry_multiplicity
 _atom_site_fract_x
 _atom_site_fract_y
 _atom_site_fract_z
 _atom_site_occupancy
  Zr  Zr0  1  0.30496043  0.90458450  0.91185425  1
  Zr  Zr1  1  0.31201006  0.29831319  0.70149161  1
  Zr  Zr2  1  0.49888048  0.50476260  0.09756183  1
  Zr  Zr3  1  0.09966213  0.89610367  0.09948675  1
  Zr  Zr4  1  0.70866302  0.29322205  0.29565217  1
  Zr  Zr5  1  0.50283602  0.69831740  0.91054768  1
  Zr  Zr6  1  0.10129890  0.68393647  0.29874986  1
  Zr  Zr7  1  0.29850867  0.70741532  0.29893986  1
  Zr  Zr8  1  0.09255010  0.49134809  0.29006200  1
  Zr  Zr9  1  0.69741311  0.10121584  0.11454029  1
  Zr  Zr10  1  0.09690737  0.30077286  0.71383545  1
  Zr  Zr11  1  0.70085519  0.30396519  0.90126975  1
  Zr  Zr12  1  0.30109563  0.10571776  0.90488075  1
  Zr  Zr13  1  0.69254259  0.91065811  0.29437130  1
  Zr  Zr14  1  0.90004259  0.69563454  0.69948171  1
  Zr  Zr15  1  0.89960676  0.69652338  0.89636371  1
  Zr  Zr16  1  0.69820043  0.30052609  0.10134918  1
  Zr  Zr17  1  0.09745859  0.68575153  0.69577493  1
  Zr  Zr18  1  0.89673867  0.70293628  0.51028438  1
  Zr  Zr19  1  0.30407908  0.10652043  0.49645023  1
  Zr  Zr20  1  0.29650874  0.89737556  0.10762525  1
  Zr  Zr21  1  0.50421057  0.09396435  0.30107292  1
  Zr  Zr22  1  0.70940624  0.69964055  0.70125352  1
  Zr  Zr23  1  0.89431317  0.29614266  0.10180320  1
  Zr  Zr24  1  0.69751914  0.68861003  0.89980141  1
  Zr  Zr25  1  0.30145318  0.89405100  0.49474870  1
  Zr  Zr26  1  0.50756702  0.70318924  0.29380923  1
  Zr  Zr27  1  0.30900397  0.10057027  0.70548565  1
  Zr  Zr28  1  0.30982278  0.49576332  0.90344982  1
  Zr  Zr29  1  0.70585245  0.10271413  0.49230463  1
  Zr  Zr30  1  0.89602886  0.69383713  0.09737079  1
  Zr  Zr31  1  0.90774896  0.11041560  0.90563646  1
  Zr  Zr32  1  0.90218455  0.89725203  0.09390895  1
  Zr  Zr33  1  0.49751947  0.30674864  0.29889169  1
  Zr  Zr34  1  0.29562985  0.30773967  0.31018543  1
  Zr  Zr35  1  0.08556478  0.90848103  0.49690506  1
  Zr  Zr36  1  0.49482183  0.90063310  0.30205104  1
  Zr  Zr37  1  0.29866261  0.69476769  0.50298233  1
  Zr  Zr38  1  0.29597756  0.70360747  0.90471191  1
  Zr  Zr39  1  0.90405924  0.89742965  0.90218241  1
  Zr  Zr40  1  0.49570751  0.91449643  0.69578782  1
  Zr  Zr41  1  0.50109982  0.11090328  0.70116915  1
  Zr  Zr42  1  0.70223831  0.69818987  0.49967508  1
  Zr  Zr43  1  0.50626870  0.09508015  0.50761276  1
  Zr  Zr44  1  0.50114245  0.50084538  0.50760570  1
  Zr  Zr45  1  0.28986078  0.30101970  0.89831085  1
  Zr  Zr46  1  0.29240073  0.70165412  0.69839736  1
  Zr  Zr47  1  0.89817434  0.30288253  0.70196376  1
  Zr  Zr48  1  0.29537046  0.50804371  0.29258102  1
  Zr  Zr49  1  0.10371226  0.89110542  0.90662100  1
  Sc  Sc50  1  0.49780780  0.89315890  0.10114638  1
  Sc  Sc51  1  0.89757955  0.68603097  0.29560126  1
  Sc  Sc52  1  0.89482611  0.49701822  0.49915200  1
  Sc  Sc53  1  0.09926132  0.51066277  0.49236118  1
  Sc  Sc54  1  0.10966516  0.48979152  0.89233135  1
  Sc  Sc55  1  0.89013582  0.49995294  0.10963356  1
  Sc  Sc56  1  0.09594477  0.09665977  0.10105876  1
  Sc  Sc57  1  0.49774399  0.70526619  0.49656196  1
  Sc  Sc58  1  0.49614475  0.69419632  0.69744417  1
  Sc  Sc59  1  0.29825933  0.09390787  0.09735652  1
  Sc  Sc60  1  0.89893798  0.10464369  0.70421138  1
  Sc  Sc61  1  0.71222489  0.89733283  0.90006029  1
  Sc  Sc62  1  0.10115066  0.30093827  0.47268106  1
  Sc  Sc63  1  0.30084219  0.50083532  0.50158476  1
  Sc  Sc64  1  0.70500151  0.49777038  0.50522934  1
  Sc  Sc65  1  0.50965425  0.49919044  0.90089706  1
  Sc  Sc66  1  0.69941147  0.49727051  0.09930251  1
  Sc  Sc67  1  0.48760874  0.10290224  0.89830275  1
  Sc  Sc68  1  0.30427438  0.09119454  0.29871826  1
  Sc  Sc69  1  0.70662931  0.30284779  0.51490108  1
  Sc  Sc70  1  0.30112046  0.50508323  0.69555938  1
  Sc  Sc71  1  0.29579984  0.89895799  0.69768338  1
  Sc  Sc72  1  0.29239355  0.30799058  0.09213440  1
  Sc  Sc73  1  0.90287401  0.50333057  0.69999321  1
  Sc  Sc74  1  0.69466217  0.10763215  0.69333469  1
  Sc  Sc75  1  0.10479427  0.89443537  0.69640955  1
  Sc  Sc76  1  0.69756217  0.49938004  0.90167090  1
  Sc  Sc77  1  0.69630388  0.29975622  0.70265665  1
  Sc  Sc78  1  0.10237850  0.09697936  0.69331826  1
  Sc  Sc79  1  0.70077058  0.69915655  0.10642452  1
  Sc  Sc80  1  0.89995657  0.90886183  0.29873824  1
  Sc  Sc81  1  0.50191742  0.49311678  0.70657309  1
  Sc  Sc82  1  0.30222818  0.69558401  0.10085889  1
  Sc  Sc83  1  0.69715523  0.49029929  0.70272362  1
  Sc  Sc84  1  0.89882331  0.88965021  0.69975330  1
  Sc  Sc85  1  0.50094082  0.30258848  0.89481327  1
  Sc  Sc86  1  0.89728443  0.09511603  0.10257278  1
  Sc  Sc87  1  0.69517908  0.90865243  0.49513736  1
  Sc  Sc88  1  0.09416587  0.70035324  0.49539547  1
  Sc  Sc89  1  0.51004927  0.30639779  0.09944108  1
  Sc  Sc90  1  0.50149673  0.50026119  0.28972381  1
  Sc  Sc91  1  0.49852195  0.10407890  0.09630099  1
  Sc  Sc92  1  0.50037849  0.70159225  0.10178918  1
  Sc  Sc93  1  0.70438540  0.50446382  0.30102000  1
  Sc  Sc94  1  0.70441131  0.10559079  0.89458946  1
  Sc  Sc95  1  0.10307050  0.70140212  0.89633092  1
  Sc  Sc96  1  0.10171031  0.89778930  0.29456880  1
  Sc  Sc97  1  0.29721468  0.50223993  0.09505333  1
  Sc  Sc98  1  0.71101084  0.90196905  0.70023447  1
  Sc  Sc99  1  0.70623963  0.90017909  0.10480945  1
  Nb  Nb100  1  0.50653237  0.30064990  0.69537885  1
  Nb  Nb101  1  0.09826701  0.11012746  0.89736410  1
  Nb  Nb102  1  0.90465379  0.30893659  0.30589517  1
  Nb  Nb103  1  0.69970396  0.70788246  0.30360543  1
  Nb  Nb104  1  0.50361110  0.90603551  0.50130605  1
  Nb  Nb105  1  0.90006649  0.49000285  0.29726663  1
  Nb  Nb106  1  0.89953595  0.90133294  0.49603808  1
  Nb  Nb107  1  0.09678423  0.10104740  0.30390768  1
  Nb  Nb108  1  0.30341669  0.30114670  0.50041092  1
  Nb  Nb109  1  0.88856207  0.10602005  0.30826975  1
  Nb  Nb110  1  0.50005364  0.89925431  0.90316614  1
  Nb  Nb111  1  0.09601448  0.69057163  0.09927267  1
  Nb  Nb112  1  0.49452501  0.30018679  0.50272341  1
  Nb  Nb113  1  0.09950387  0.49699900  0.68866719  1
  Nb  Nb114  1  0.89884919  0.49861833  0.90833173  1
  Nb  Nb115  1  0.09847309  0.49399069  0.10113584  1
  Nb  Nb116  1  0.29772775  0.90282943  0.29831321  1
  Nb  Nb117  1  0.90722337  0.09309553  0.48903589  1
  Nb  Nb118  1  0.09705729  0.30747589  0.10550180  1
  Nb  Nb119  1  0.09773484  0.09862975  0.49651574  1
  Nb  Nb120  1  0.70486377  0.09932707  0.30291544  1
  Nb  Nb121  1  0.91062947  0.29855032  0.90016267  1
  Nb  Nb122  1  0.90222768  0.29999043  0.49800823  1
  Nb  Nb123  1  0.09768521  0.30402371  0.29175993  1
  Nb  Nb124  1  0.09080654  0.29034208  0.90554142  1
  Nb  Nb125  1  0.00007876  0.79129413  0.19437524  1
  Nb  Nb126  1  0.19776243  0.20749324  0.59145571  1
  Nb  Nb127  1  0.60361806  0.60511002  0.60141908  1
  Nb  Nb128  1  0.59681248  -0.00389698  0.80472366  1
  Nb  Nb129  1  0.19494724  0.20453531  0.20639886  1
  Nb  Nb130  1  0.40441488  0.80087920  0.80393410  1
  Nb  Nb131  1  0.59908540  -0.00201699  -0.00680101  1
  Nb  Nb132  1  -0.00011144  0.20403409  0.21123978  1
  Nb  Nb133  1  0.39334055  0.20604813  0.20252147  1
  Nb  Nb134  1  0.79816340  0.80047278  0.39771464  1
  Nb  Nb135  1  0.59913644  0.80337002  0.60291250  1
  Nb  Nb136  1  0.39918825  0.60578861  0.80565708  1
  Nb  Nb137  1  0.00699765  0.39258671  0.59522027  1
  Nb  Nb138  1  0.19513553  0.39104059  0.59646462  1
  Nb  Nb139  1  0.19672582  0.00370464  0.80870142  1
  Nb  Nb140  1  0.59803562  0.39266469  0.40393440  1
  Nb  Nb141  1  0.00609875  0.00108908  0.80584524  1
  Nb  Nb142  1  0.00346566  0.20227901  0.58795066  1
  Nb  Nb143  1  0.00178909  0.58885251  0.00024087  1
  Nb  Nb144  1  0.19603553  0.00138494  0.40042579  1
  Nb  Nb145  1  0.80910090  0.00338200  0.58950964  1
  Nb  Nb146  1  0.40116533  0.60320262  0.39487275  1
  Nb  Nb147  1  0.59508208  0.80404441  0.79869151  1
  Nb  Nb148  1  -0.00062109  0.39680541  -0.00079231  1
  Nb  Nb149  1  0.60127429  0.20513898  0.40162491  1
  Pd  Pd150  1  0.19294547  0.19915136  0.01200138  1
  Pd  Pd151  1  0.19951215  0.19463125  0.79273109  1
  Pd  Pd152  1  0.61070591  0.80606249  0.00041063  1
  Pd  Pd153  1  0.79597757  0.19540756  0.00141399  1
  Pd  Pd154  1  0.40335108  0.00420340  0.19297226  1
  Pd  Pd155  1  0.79905130  0.58730954  0.79872578  1
  Pd  Pd156  1  0.80215624  0.40205243  0.80201495  1
  Pd  Pd157  1  0.79164957  0.00846958  0.00095430  1
  Pd  Pd158  1  0.40076114  0.21136886  0.00813396  1
  Pd  Pd159  1  0.00495389  0.58956329  0.80783749  1
  Pd  Pd160  1  0.40258790  0.79838256  0.39767941  1
  Pd  Pd161  1  -0.01197363  0.59484278  0.40234206  1
  Pd  Pd162  1  0.40615070  0.80037058  0.60525891  1
  Pd  Pd163  1  0.80420827  0.00340071  0.79353674  1
  Pd  Pd164  1  0.19277563  0.79127630  0.19688097  1
  Pd  Pd165  1  0.39031926  0.00081470  0.59445649  1
  Pd  Pd166  1  0.20466280  0.59164819  0.80003713  1
  Pd  Pd167  1  -0.00850389  0.00506266  0.61145542  1
  Pd  Pd168  1  -0.00365152  0.00278896  0.20458961  1
  Pd  Pd169  1  0.20184370  0.19424504  0.39488950  1
  Pd  Pd170  1  0.79903791  0.20354712  0.80042286  1
  Pd  Pd171  1  0.00433252  0.80249725  0.79362125  1
  Pd  Pd172  1  0.59114687  0.20020605  0.20625732  1
  Pd  Pd173  1  0.80306177  0.39965912  0.00057790  1
  Pd  Pd174  1  0.39633309  0.40352121  0.60434216  1
  Pd  Pd175  1  0.59553619  0.59107001  0.40352838  1
  Pd  Pd176  1  -0.00920038  0.79625166  0.38573371  1
  Pd  Pd177  1  0.60294074  0.80568937  0.40484826  1
  Pd  Pd178  1  0.19393454  0.59496418  0.00007279  1
  Pd  Pd179  1  0.80396570  0.60136488  0.39859554  1
  Pd  Pd180  1  0.60720190  0.59885334  0.19754684  1
  Pd  Pd181  1  0.40732536  0.19760987  0.39437035  1
  Pd  Pd182  1  0.00410878  0.79908898  0.60437811  1
  Pd  Pd183  1  0.79258595  0.39618927  0.40101684  1
  Pd  Pd184  1  0.59944132  0.19298857  -0.00667481  1
  Pd  Pd185  1  0.80744586  0.80071680  0.20873658  1
  Pd  Pd186  1  -0.00316957  0.40921807  0.80250988  1
  Pd  Pd187  1  0.18858527  0.79767835  0.59017628  1
  Pd  Pd188  1  0.40471353  0.41364850  0.40082674  1
  Pd  Pd189  1  0.39224729  0.39690412  0.19063268  1
  Pd  Pd190  1  -0.00415451  0.20105993  0.39609679  1
  Pd  Pd191  1  0.79417157  0.79266801  -0.00228630  1
  Pd  Pd192  1  0.81087122  0.19346873  0.59480628  1
  Pd  Pd193  1  0.19194040  0.00710813  -0.00178424  1
  Pd  Pd194  1  0.19825436  0.41229406  0.40401024  1
  Pd  Pd195  1  0.00527755  0.00413890  -0.00476318  1
  Pd  Pd196  1  0.40710039  0.39486431  0.00119183  1
  Pd  Pd197  1  0.20731261  0.40416712  0.79164599  1
  Pd  Pd198  1  0.20575537  0.00596778  0.59710124  1
  Pd  Pd199  1  0.18985067  0.80503177  0.40236330  1
  Rh  Rh200  1  0.00325423  0.20382859  0.01594767  1
  Rh  Rh201  1  0.59481962  0.60567316  0.79242356  1
  Rh  Rh202  1  0.00004974  0.19144993  0.79107013  1
  Rh  Rh203  1  0.39580704  0.79893873  0.00381048  1
  Rh  Rh204  1  0.80001098  0.20805416  0.40437025  1
  Rh  Rh205  1  0.79251943  0.81484363  0.58533170  1
  Rh  Rh206  1  0.19892056  0.59714883  0.19265785  1
  Rh  Rh207  1  0.20086313  0.79365039  0.00941281  1
  Rh  Rh208  1  0.20717751  0.60020760  0.40064342  1
  Rh  Rh209  1  0.18978040  0.39853151  -0.00253282  1
  Rh  Rh210  1  0.40608965  0.59853032  0.60080452  1
  Rh  Rh211  1  0.40907016  -0.00184590  0.00757188  1
  Rh  Rh212  1  0.60369144  0.59771403  0.00900423  1
  Rh  Rh213  1  0.00166235  0.78557888  0.00537516  1
  Rh  Rh214  1  0.60107930  0.39355421  0.80132502  1
  Rh  Rh215  1  -0.00314914  0.59541940  0.19299903  1
  Rh  Rh216  1  0.59768694  0.19752605  0.80259262  1
  Rh  Rh217  1  0.79843404  0.79568509  0.80788073  1
  Rh  Rh218  1  0.80085310  0.59764968  0.00092352  1
  Rh  Rh219  1  0.79577751  0.58946427  0.60663941  1
  Rh  Rh220  1  0.39863354  0.80020806  0.20105554  1
  Rh  Rh221  1  -0.00352445  0.59311886  0.59348645  1
  Rh  Rh222  1  0.40288415  0.40335941  0.79926502  1
  Rh  Rh223  1  0.40038276  0.60495090  0.20269981  1
  Rh  Rh224  1  0.40068952  0.20123799  0.59907023  1
  Rh  Rh225  1  0.60110728  0.40101010  -0.00068026  1
  Rh  Rh226  1  0.39605862  -0.00456752  0.40531453  1
  Rh  Rh227  1  0.79362371  0.59759629  0.20568298  1
  Rh  Rh228  1  0.60178837  0.80345129  0.19819089  1
  Rh  Rh229  1  0.40553564  0.21048296  0.80396486  1
  Rh  Rh230  1  0.59854315  0.40124061  0.59723034  1
  Rh  Rh231  1  0.59932238  0.00598266  0.39924193  1
  Rh  Rh232  1  0.40250570  0.59928755  -0.00204592  1
  Rh  Rh233  1  0.80136697  -0.00629027  0.39987391  1
  Rh  Rh234  1  0.79666531  0.40061329  0.20399419  1
  Rh  Rh235  1  0.39518275  -0.00572434  0.80475462  1
  Rh  Rh236  1  0.19708625  0.00651446  0.20868962  1
  Rh  Rh237  1  0.20878583  0.81114330  0.80339775  1
  Rh  Rh238  1  0.59698252  0.20897383  0.59238021  1
  Rh  Rh239  1  0.00211839  -0.00038037  0.38866660  1
  Rh  Rh240  1  0.61359750  -0.00628815  0.60910513  1
  Rh  Rh241  1  0.80420714  0.00240225  0.20027013  1
  Rh  Rh242  1  -0.01179423  0.39651118  0.19264118  1
  Rh  Rh243  1  0.20660814  0.40000760  0.19807133  1
  Rh  Rh244  1  0.19529112  0.59556582  0.59564239  1
  Rh  Rh245  1  -0.00118269  0.40851414  0.40409880  1
  Rh  Rh246  1  0.59277540  -0.00286334  0.18823161  1
  Rh  Rh247  1  0.80977389  0.19772192  0.20321026  1
  Rh  Rh248  1  0.60934564  0.40379846  0.20632649  1
  Rh  Rh249  1  0.81052976  0.40113768  0.60595894  1
