# generated using pymatgen
data_ZrScNbPdRh
_symmetry_space_group_name_H-M   'P 1'
_cell_length_a   16.55526297
_cell_length_b   16.55663111
_cell_length_c   16.55223432
_cell_angle_alpha   89.96348268
_cell_angle_beta   89.98518869
_cell_angle_gamma   89.99330165
_symmetry_Int_Tables_number   1
_chemical_formula_structural   ZrScNbPdRh
_chemical_formula_sum   'Zr50 Sc50 Nb50 Pd50 Rh50'
_cell_volume   4536.95609271
_cell_formula_units_Z   50
loop_
 _symmetry_equiv_pos_site_id
 _symmetry_equiv_pos_as_xyz
  1  'x, y, z'
loop_
 _atom_site_type_symbol
 _atom_site_label
 _atom_site_symmetry_multiplicity
 _atom_site_fract_x
 _atom_site_fract_y
 _atom_site_fract_z
 _atom_site_occupancy
  Zr  Zr0  1  0.49268361  0.89953799  0.28601747  1
  Zr  Zr1  1  0.30312215  0.50315901  0.70044736  1
  Zr  Zr2  1  0.89814456  0.90241822  0.89609849  1
  Zr  Zr3  1  0.89909012  0.29857454  0.91371137  1
  Zr  Zr4  1  0.90608222  0.70113184  0.90515733  1
  Zr  Zr5  1  0.70441648  0.49341956  0.50437199  1
  Zr  Zr6  1  0.10248914  0.90772611  0.89597241  1
  Zr  Zr7  1  0.89187929  0.69735172  0.10181841  1
  Zr  Zr8  1  0.89968621  0.10832412  0.10054205  1
  Zr  Zr9  1  0.90400952  0.49198122  0.10709773  1
  Zr  Zr10  1  0.50386704  0.51035674  0.89401267  1
  Zr  Zr11  1  0.50086179  0.89989126  0.50001755  1
  Zr  Zr12  1  0.50162619  0.49479091  0.69673223  1
  Zr  Zr13  1  0.50030902  0.09467890  0.50963455  1
  Zr  Zr14  1  0.50191138  0.90057565  0.08858352  1
  Zr  Zr15  1  0.89942182  0.89334352  0.08965906  1
  Zr  Zr16  1  0.70286058  0.10480070  0.29911225  1
  Zr  Zr17  1  0.69823298  0.29692663  0.90373746  1
  Zr  Zr18  1  0.89912738  0.50301917  0.69687489  1
  Zr  Zr19  1  0.90769879  0.10013006  0.89655999  1
  Zr  Zr20  1  0.10426367  0.50620596  0.10784491  1
  Zr  Zr21  1  0.49573992  0.49885924  0.30341400  1
  Zr  Zr22  1  0.89692347  0.69936844  0.30133916  1
  Zr  Zr23  1  0.30228503  0.30167002  0.29520386  1
  Zr  Zr24  1  0.70979482  0.89093078  0.70090706  1
  Zr  Zr25  1  0.09691971  0.69569201  0.09704177  1
  Zr  Zr26  1  0.50574473  0.10494539  0.29114957  1
  Zr  Zr27  1  0.10358500  0.89561046  0.49250053  1
  Zr  Zr28  1  0.71001473  0.29258345  0.10163711  1
  Zr  Zr29  1  0.11272331  0.29516004  0.49129975  1
  Zr  Zr30  1  0.30483619  0.90187126  0.89643559  1
  Zr  Zr31  1  0.09374396  0.09662859  0.70762430  1
  Zr  Zr32  1  0.69700250  0.09838186  0.09795035  1
  Zr  Zr33  1  0.89894551  0.89286428  0.30260440  1
  Zr  Zr34  1  0.09369366  0.10076323  0.48903510  1
  Zr  Zr35  1  0.50425700  0.70725727  0.10130664  1
  Zr  Zr36  1  0.90670645  0.50266813  0.90429667  1
  Zr  Zr37  1  0.29530642  0.10418516  0.49793924  1
  Zr  Zr38  1  0.29703780  0.30404495  0.69510283  1
  Zr  Zr39  1  0.09970161  0.89540871  0.69937410  1
  Zr  Zr40  1  0.30500609  0.51243921  0.49547509  1
  Zr  Zr41  1  0.30068255  0.49990467  0.10298895  1
  Zr  Zr42  1  0.31163056  0.89599354  0.10422502  1
  Zr  Zr43  1  0.09644331  0.30133802  0.90110820  1
  Zr  Zr44  1  0.30039224  0.29507567  0.90693486  1
  Zr  Zr45  1  0.49673005  0.91557656  0.70352425  1
  Zr  Zr46  1  0.90494697  0.69171903  0.50267963  1
  Zr  Zr47  1  0.90239594  0.09559884  0.31299443  1
  Zr  Zr48  1  0.89798723  0.70907661  0.70239285  1
  Zr  Zr49  1  0.89083662  0.09895144  0.69860190  1
  Sc  Sc50  1  0.69981876  0.29776311  0.30680418  1
  Sc  Sc51  1  0.69859473  0.70039776  0.29227795  1
  Sc  Sc52  1  0.49251412  0.51311996  0.10305553  1
  Sc  Sc53  1  0.09421166  0.69665786  0.30935296  1
  Sc  Sc54  1  0.49006949  0.28761251  0.10402092  1
  Sc  Sc55  1  0.70062418  0.10312111  0.90276310  1
  Sc  Sc56  1  0.09783585  0.30722969  0.69735583  1
  Sc  Sc57  1  0.68929114  0.70351690  0.51123418  1
  Sc  Sc58  1  0.89888085  0.30209393  0.29002110  1
  Sc  Sc59  1  0.69047519  0.49975394  0.69652457  1
  Sc  Sc60  1  0.10912432  0.70069912  0.50163364  1
  Sc  Sc61  1  0.69880065  0.90085935  0.89638013  1
  Sc  Sc62  1  0.10600594  0.29464086  0.29666416  1
  Sc  Sc63  1  0.69920761  0.49427484  0.30770301  1
  Sc  Sc64  1  0.71152703  0.10336632  0.50386478  1
  Sc  Sc65  1  0.30166123  0.10588759  0.09399524  1
  Sc  Sc66  1  0.49853502  0.69861250  0.90011842  1
  Sc  Sc67  1  0.30294458  0.08903434  0.69964593  1
  Sc  Sc68  1  0.09438606  0.49831635  0.70627830  1
  Sc  Sc69  1  0.29375360  0.50235695  0.29383586  1
  Sc  Sc70  1  0.90140204  0.49499367  0.50988687  1
  Sc  Sc71  1  0.90086281  0.49710703  0.30207657  1
  Sc  Sc72  1  0.50597774  0.69740585  0.29688482  1
  Sc  Sc73  1  0.09238697  0.29488920  0.10384894  1
  Sc  Sc74  1  0.10405897  0.10425097  0.09805702  1
  Sc  Sc75  1  0.69210837  0.29834926  0.69732702  1
  Sc  Sc76  1  0.10150941  0.10223339  0.29818406  1
  Sc  Sc77  1  0.29666087  0.89646618  0.70845860  1
  Sc  Sc78  1  0.29961003  0.51569791  0.89477682  1
  Sc  Sc79  1  0.50571736  0.50957577  0.50525109  1
  Sc  Sc80  1  0.70694726  0.50945674  0.09586673  1
  Sc  Sc81  1  0.50761301  0.28773219  0.90122761  1
  Sc  Sc82  1  0.29151385  0.70218260  0.70045211  1
  Sc  Sc83  1  0.70056535  0.89786217  0.50429840  1
  Sc  Sc84  1  0.50346760  0.09762848  0.09845670  1
  Sc  Sc85  1  0.70406308  0.89627254  0.30720085  1
  Sc  Sc86  1  0.29891548  0.90422911  0.49937112  1
  Sc  Sc87  1  0.70223446  0.30030747  0.50253489  1
  Sc  Sc88  1  0.69711538  0.10498480  0.69656970  1
  Sc  Sc89  1  0.29893755  0.29366802  0.10211347  1
  Sc  Sc90  1  0.29821856  0.90464539  0.29943391  1
  Sc  Sc91  1  0.30109237  0.09596812  0.28841624  1
  Sc  Sc92  1  0.89735160  0.30636639  0.69955176  1
  Sc  Sc93  1  0.69896358  0.90072828  0.08786252  1
  Sc  Sc94  1  0.50888177  0.69425015  0.70296038  1
  Sc  Sc95  1  0.09630189  0.89814372  0.09362167  1
  Sc  Sc96  1  0.30398943  0.68960050  0.10125751  1
  Sc  Sc97  1  0.88953920  0.90280100  0.49533615  1
  Sc  Sc98  1  0.09678996  0.70646473  0.69934055  1
  Sc  Sc99  1  0.50440506  0.09621687  0.90006195  1
  Nb  Nb100  1  0.29501808  0.70152686  0.89472362  1
  Nb  Nb101  1  0.29949720  0.30033207  0.49464890  1
  Nb  Nb102  1  0.89929011  0.90015580  0.70171335  1
  Nb  Nb103  1  0.70409387  0.70313796  0.70864997  1
  Nb  Nb104  1  0.29210855  0.10175433  0.90028160  1
  Nb  Nb105  1  0.49603643  0.90262568  0.89696708  1
  Nb  Nb106  1  0.10019167  0.49863525  0.49493552  1
  Nb  Nb107  1  0.49484787  0.70019063  0.49853631  1
  Nb  Nb108  1  0.30159885  0.70410375  0.49733351  1
  Nb  Nb109  1  0.50066540  0.30046290  0.30000021  1
  Nb  Nb110  1  0.10478684  0.10015174  0.89950215  1
  Nb  Nb111  1  0.09810090  0.89844909  0.29793939  1
  Nb  Nb112  1  0.69721007  0.50321229  0.90267712  1
  Nb  Nb113  1  0.10179939  0.68823004  0.90532229  1
  Nb  Nb114  1  0.69713201  0.68664121  0.90176900  1
  Nb  Nb115  1  0.09774612  0.49471500  0.30286459  1
  Nb  Nb116  1  0.50007650  0.30028345  0.50212517  1
  Nb  Nb117  1  0.29719839  0.70180565  0.30646722  1
  Nb  Nb118  1  0.50167932  0.29677698  0.69690192  1
  Nb  Nb119  1  0.90091109  0.30551602  0.50601003  1
  Nb  Nb120  1  0.90195468  0.29741304  0.10230455  1
  Nb  Nb121  1  0.89957148  0.09949009  0.50257665  1
  Nb  Nb122  1  0.09896119  0.50833233  0.90543671  1
  Nb  Nb123  1  0.49789472  0.10478285  0.69885029  1
  Nb  Nb124  1  0.69757152  0.69644413  0.08818749  1
  Nb  Nb125  1  0.80637600  -0.00157809  0.19878634  1
  Nb  Nb126  1  0.40139189  0.20449604  0.59938058  1
  Nb  Nb127  1  0.39874332  0.19937590  0.79425691  1
  Nb  Nb128  1  0.19820598  0.79725462  0.20005339  1
  Nb  Nb129  1  0.79473413  0.40770008  0.80781067  1
  Nb  Nb130  1  0.40365568  0.39428420  0.80166125  1
  Nb  Nb131  1  0.18941080  0.00108898  0.59916543  1
  Nb  Nb132  1  0.40523515  0.20477289  0.40268890  1
  Nb  Nb133  1  0.40163371  0.39532783  0.40352211  1
  Nb  Nb134  1  -0.00412210  0.00079179  0.59798521  1
  Nb  Nb135  1  0.59758188  0.00214286  0.39890861  1
  Nb  Nb136  1  0.20110567  0.19673001  0.80278599  1
  Nb  Nb137  1  -0.00353605  0.19711973  0.59389177  1
  Nb  Nb138  1  0.80058131  0.59993235  0.40584124  1
  Nb  Nb139  1  0.59528965  0.39688428  0.19553662  1
  Nb  Nb140  1  -0.00409019  -0.00464670  0.20284725  1
  Nb  Nb141  1  0.40167569  0.40276662  -0.00496076  1
  Nb  Nb142  1  0.79600884  0.59968075  0.80320370  1
  Nb  Nb143  1  0.59590889  0.40288671  0.00592686  1
  Nb  Nb144  1  0.40236458  0.79766473  0.59490444  1
  Nb  Nb145  1  0.00675124  0.39939944  0.40252241  1
  Nb  Nb146  1  0.39972392  0.79422545  0.40243731  1
  Nb  Nb147  1  0.19945994  0.40750724  -0.00308199  1
  Nb  Nb148  1  0.20316319  0.40581942  0.58772314  1
  Nb  Nb149  1  0.20339434  0.79436212  -0.00367729  1
  Pd  Pd150  1  0.19279847  0.59641207  0.60373900  1
  Pd  Pd151  1  0.60930226  0.80650786  0.19596627  1
  Pd  Pd152  1  0.39485140  0.79015341  -0.00473868  1
  Pd  Pd153  1  0.61220376  0.00041943  0.59922809  1
  Pd  Pd154  1  0.19684935  0.19756641  0.60841281  1
  Pd  Pd155  1  0.19104455  0.60262466  0.79105177  1
  Pd  Pd156  1  0.79740383  0.20898770  0.79805074  1
  Pd  Pd157  1  0.59460006  0.80140073  0.80467606  1
  Pd  Pd158  1  0.60603505  0.00511735  0.80028120  1
  Pd  Pd159  1  0.20477519  -0.00672419  0.00814707  1
  Pd  Pd160  1  0.60636655  0.59112250  0.19736158  1
  Pd  Pd161  1  0.59446844  0.39914227  0.40126721  1
  Pd  Pd162  1  0.40123670  0.61140853  0.60817122  1
  Pd  Pd163  1  0.79097667  0.40113404  0.20370521  1
  Pd  Pd164  1  -0.00857043  0.21387038  0.39920880  1
  Pd  Pd165  1  0.61149603  -0.01014453  0.20282541  1
  Pd  Pd166  1  0.01002598  0.59968999  0.60379146  1
  Pd  Pd167  1  -0.00790562  0.39983247  0.80164808  1
  Pd  Pd168  1  0.00099170  0.20914434  0.79401212  1
  Pd  Pd169  1  0.79486346  0.59317583  0.20854805  1
  Pd  Pd170  1  0.80692391  0.20922633  0.40198478  1
  Pd  Pd171  1  0.39823737  0.39890123  0.59554261  1
  Pd  Pd172  1  0.60837145  0.60306781  0.40284391  1
  Pd  Pd173  1  0.40495176  0.00228131  0.39419306  1
  Pd  Pd174  1  0.40051251  0.00942045  -0.00201062  1
  Pd  Pd175  1  0.00134187  0.00626630  0.00570593  1
  Pd  Pd176  1  0.60267183  0.79957792  -0.01311677  1
  Pd  Pd177  1  0.78860595  0.80607815  0.19280590  1
  Pd  Pd178  1  0.19528867  0.39288263  0.19291703  1
  Pd  Pd179  1  0.19721355  0.59925430  0.39632138  1
  Pd  Pd180  1  0.59489861  0.80315977  0.39507212  1
  Pd  Pd181  1  -0.00047446  0.60050918  0.20624400  1
  Pd  Pd182  1  0.19279630  -0.00653634  0.19133350  1
  Pd  Pd183  1  0.00608577  0.80012133  0.19804717  1
  Pd  Pd184  1  0.40672417  0.79387917  0.79014035  1
  Pd  Pd185  1  -0.00670340  0.80808167  0.59048263  1
  Pd  Pd186  1  0.79196256  0.60524465  0.60279684  1
  Pd  Pd187  1  0.79261016  0.00345097  0.80075047  1
  Pd  Pd188  1  0.59723692  0.19448163  0.40889313  1
  Pd  Pd189  1  0.79288271  0.78633140  0.40999654  1
  Pd  Pd190  1  -0.00133241  0.79815044  0.40612064  1
  Pd  Pd191  1  0.19997129  0.00143883  0.39645984  1
  Pd  Pd192  1  0.20495901  0.40043123  0.80493602  1
  Pd  Pd193  1  0.00577128  0.79859193  0.80766450  1
  Pd  Pd194  1  0.79399696  0.40452726  0.00033129  1
  Pd  Pd195  1  0.01007731  0.40359445  0.00851539  1
  Pd  Pd196  1  0.79084997  0.79674047  -0.00839487  1
  Pd  Pd197  1  0.59922124  0.39583437  0.80709262  1
  Pd  Pd198  1  0.39861314  0.60671052  0.20813356  1
  Pd  Pd199  1  0.59290971  0.80155756  0.60979251  1
  Rh  Rh200  1  0.59764495  0.20038336  0.59752367  1
  Rh  Rh201  1  0.01420928  0.39121941  0.58942197  1
  Rh  Rh202  1  0.39905251  0.60249514  -0.00399622  1
  Rh  Rh203  1  -0.00685592  0.58885323  0.40143045  1
  Rh  Rh204  1  0.79842278  0.79268910  0.80916842  1
  Rh  Rh205  1  -0.00711409  0.59673523  0.01008675  1
  Rh  Rh206  1  0.39942392  0.00747489  0.80628249  1
  Rh  Rh207  1  0.20348495  0.00463178  0.79592796  1
  Rh  Rh208  1  0.59287947  0.59783466  0.00807541  1
  Rh  Rh209  1  0.20373982  0.40972799  0.40048790  1
  Rh  Rh210  1  0.20586452  0.80266407  0.39205746  1
  Rh  Rh211  1  0.20152334  0.19915532  0.19716448  1
  Rh  Rh212  1  0.60638350  0.60149185  0.79317916  1
  Rh  Rh213  1  0.60273678  0.21072770  0.19496953  1
  Rh  Rh214  1  0.80685759  0.59865379  -0.00215909  1
  Rh  Rh215  1  0.39844984  0.19570351  0.20452738  1
  Rh  Rh216  1  0.80239053  0.00520847  -0.00011892  1
  Rh  Rh217  1  0.21397307  0.19236189  0.38447531  1
  Rh  Rh218  1  0.00059977  -0.00814527  0.39808350  1
  Rh  Rh219  1  0.39931356  0.60336839  0.79528813  1
  Rh  Rh220  1  0.40049502  0.60223381  0.39328869  1
  Rh  Rh221  1  0.80597686  0.20844896  0.60112450  1
  Rh  Rh222  1  0.01039671  0.79908189  -0.00775500  1
  Rh  Rh223  1  0.80361064  0.79801903  0.59739296  1
  Rh  Rh224  1  0.79250693  0.39570650  0.61078864  1
  Rh  Rh225  1  0.21049137  0.80709078  0.59857762  1
  Rh  Rh226  1  0.19139609  0.20554035  -0.00297538  1
  Rh  Rh227  1  0.19142977  0.79441440  0.81007725  1
  Rh  Rh228  1  0.78930294  0.00232175  0.39743719  1
  Rh  Rh229  1  0.00473328  0.39606225  0.20573343  1
  Rh  Rh230  1  0.59729923  -0.00396582  -0.00968478  1
  Rh  Rh231  1  0.19500155  0.60979249  0.21153157  1
  Rh  Rh232  1  0.80157129  -0.00600760  0.60330316  1
  Rh  Rh233  1  0.40107271  0.00578269  0.19034798  1
  Rh  Rh234  1  0.39133375  0.79193819  0.20957000  1
  Rh  Rh235  1  -0.00167220  0.60375601  0.79695193  1
  Rh  Rh236  1  0.60275933  0.60337529  0.60226683  1
  Rh  Rh237  1  0.60077310  0.39646369  0.59462211  1
  Rh  Rh238  1  0.20858595  0.60105853  -0.00082762  1
  Rh  Rh239  1  0.81194787  0.40345557  0.40419975  1
  Rh  Rh240  1  0.40788892  0.40036661  0.19903295  1
  Rh  Rh241  1  0.59738350  0.19461562  0.79614988  1
  Rh  Rh242  1  0.59896133  0.20179963  0.00689854  1
  Rh  Rh243  1  0.00343278  0.19606599  0.00139769  1
  Rh  Rh244  1  -0.00171598  0.19354517  0.20403302  1
  Rh  Rh245  1  0.80287176  0.19417993  -0.00231530  1
  Rh  Rh246  1  0.40428026  0.19751190  -0.00707322  1
  Rh  Rh247  1  0.80392410  0.19517654  0.20490299  1
  Rh  Rh248  1  0.38889428  -0.00489094  0.60345913  1
  Rh  Rh249  1  -0.00475252  -0.00413438  0.79656738  1
