# generated using pymatgen
data_ZrScNbPdRh
_symmetry_space_group_name_H-M   'P 1'
_cell_length_a   16.56293496
_cell_length_b   16.56247327
_cell_length_c   16.55683733
_cell_angle_alpha   89.98078068
_cell_angle_beta   90.00147574
_cell_angle_gamma   89.94399452
_symmetry_Int_Tables_number   1
_chemical_formula_structural   ZrScNbPdRh
_chemical_formula_sum   'Zr50 Sc50 Nb50 Pd50 Rh50'
_cell_volume   4541.92163303
_cell_formula_units_Z   50
loop_
 _symmetry_equiv_pos_site_id
 _symmetry_equiv_pos_as_xyz
  1  'x, y, z'
loop_
 _atom_site_type_symbol
 _atom_site_label
 _atom_site_symmetry_multiplicity
 _atom_site_fract_x
 _atom_site_fract_y
 _atom_site_fract_z
 _atom_site_occupancy
  Zr  Zr0  1  0.29682681  0.69753961  0.50397324  1
  Zr  Zr1  1  0.71023469  0.89962576  0.10037891  1
  Zr  Zr2  1  0.69975649  0.89797548  0.49780581  1
  Zr  Zr3  1  0.69856791  0.69641558  0.30352317  1
  Zr  Zr4  1  0.49975878  0.09941081  0.49195243  1
  Zr  Zr5  1  0.29294970  0.29903446  0.69084710  1
  Zr  Zr6  1  0.89828692  0.50760164  0.29805496  1
  Zr  Zr7  1  0.70382121  0.51617703  0.50419683  1
  Zr  Zr8  1  0.09050076  0.69970912  0.29481903  1
  Zr  Zr9  1  0.28610631  0.70674249  0.89806675  1
  Zr  Zr10  1  0.09136813  0.49869582  0.70937317  1
  Zr  Zr11  1  0.70057825  0.09635757  0.49903456  1
  Zr  Zr12  1  0.09594958  0.11723188  0.70564426  1
  Zr  Zr13  1  0.29732240  0.10986476  0.70345705  1
  Zr  Zr14  1  0.90405322  0.09520566  0.09640272  1
  Zr  Zr15  1  0.48806548  0.90346745  0.89158091  1
  Zr  Zr16  1  0.69946543  0.10184883  0.29591390  1
  Zr  Zr17  1  0.69807804  0.10024804  0.09734917  1
  Zr  Zr18  1  0.69757553  0.50301044  0.90249518  1
  Zr  Zr19  1  0.30163760  0.49818984  0.70020521  1
  Zr  Zr20  1  0.30883758  0.29578930  0.09311973  1
  Zr  Zr21  1  0.88453355  0.69615492  0.50047949  1
  Zr  Zr22  1  0.70764897  0.29794266  0.90425669  1
  Zr  Zr23  1  0.89736906  0.49091895  0.89781135  1
  Zr  Zr24  1  0.49973318  0.29698323  0.11110172  1
  Zr  Zr25  1  0.50199223  0.29413732  0.90836012  1
  Zr  Zr26  1  0.09256090  0.89944221  0.10660333  1
  Zr  Zr27  1  0.90502000  0.11047431  0.30369126  1
  Zr  Zr28  1  0.10394588  0.88516573  0.90333555  1
  Zr  Zr29  1  0.50000104  0.90284457  0.69984668  1
  Zr  Zr30  1  0.49434350  0.70154650  0.70373810  1
  Zr  Zr31  1  0.70014402  0.89940478  0.30175278  1
  Zr  Zr32  1  0.49919147  0.70441975  0.10434435  1
  Zr  Zr33  1  0.30443154  0.90753310  0.29418151  1
  Zr  Zr34  1  0.09741894  0.90343743  0.49320398  1
  Zr  Zr35  1  0.70184007  0.69380644  0.69207572  1
  Zr  Zr36  1  0.69867018  0.10010816  0.69642857  1
  Zr  Zr37  1  0.30133980  0.49835399  0.49937397  1
  Zr  Zr38  1  0.10213669  0.69743689  0.70292319  1
  Zr  Zr39  1  0.90214207  0.90394930  0.90431458  1
  Zr  Zr40  1  0.31086259  0.29174001  0.29730703  1
  Zr  Zr41  1  0.09970763  0.69048060  0.89290507  1
  Zr  Zr42  1  0.29835059  0.50778466  0.90470687  1
  Zr  Zr43  1  0.29915029  0.50108703  0.29467743  1
  Zr  Zr44  1  0.50824595  0.69447273  0.49184360  1
  Zr  Zr45  1  0.09784711  0.10653759  0.09617039  1
  Zr  Zr46  1  0.51238729  0.49448878  0.50435802  1
  Zr  Zr47  1  0.90886049  0.29621168  0.70375775  1
  Zr  Zr48  1  0.50095436  0.11063856  0.29828563  1
  Zr  Zr49  1  0.89945273  0.49933557  0.49451270  1
  Sc  Sc50  1  0.49743806  0.90678433  0.29871500  1
  Sc  Sc51  1  0.69562449  0.30385869  0.29373036  1
  Sc  Sc52  1  0.30607606  0.10752718  0.90451774  1
  Sc  Sc53  1  0.49992429  0.50557102  0.70488443  1
  Sc  Sc54  1  0.49301527  0.50426320  0.89981087  1
  Sc  Sc55  1  0.50408095  0.10003133  0.90025159  1
  Sc  Sc56  1  0.70694594  0.29697787  0.70401173  1
  Sc  Sc57  1  0.49121337  0.49559703  0.10416925  1
  Sc  Sc58  1  0.49557559  0.90659308  0.10190782  1
  Sc  Sc59  1  0.91218637  0.89204808  0.29388051  1
  Sc  Sc60  1  0.70157922  0.50097230  0.29485968  1
  Sc  Sc61  1  0.08606152  0.29507811  0.09594292  1
  Sc  Sc62  1  0.89318319  0.70153081  0.10654731  1
  Sc  Sc63  1  0.89748984  0.49027740  0.70545112  1
  Sc  Sc64  1  0.69761006  0.31514509  0.49996763  1
  Sc  Sc65  1  0.91053519  0.10557413  0.50181284  1
  Sc  Sc66  1  0.09564653  0.28453757  0.90396212  1
  Sc  Sc67  1  0.89678661  0.70422477  0.70005056  1
  Sc  Sc68  1  0.50194060  0.10108668  0.09826951  1
  Sc  Sc69  1  0.29322656  0.69142638  0.10056105  1
  Sc  Sc70  1  0.50490355  0.90558744  0.49145366  1
  Sc  Sc71  1  0.10031846  0.09232272  0.30987706  1
  Sc  Sc72  1  0.30363568  0.69092228  0.29209242  1
  Sc  Sc73  1  0.29861888  0.70073453  0.69780982  1
  Sc  Sc74  1  0.69321093  0.49568126  0.69451036  1
  Sc  Sc75  1  0.90560389  0.30833697  0.29724284  1
  Sc  Sc76  1  0.10281912  0.70014850  0.09310080  1
  Sc  Sc77  1  0.30458492  0.09544421  0.30876110  1
  Sc  Sc78  1  0.10217127  0.29313262  0.50723166  1
  Sc  Sc79  1  0.70603900  0.50893481  0.10594110  1
  Sc  Sc80  1  0.89978712  0.10041732  0.70089417  1
  Sc  Sc81  1  0.89991342  0.30080995  0.49896148  1
  Sc  Sc82  1  0.10086695  0.50155053  0.49527754  1
  Sc  Sc83  1  0.89492374  0.49270491  0.10359771  1
  Sc  Sc84  1  0.70426798  0.90867300  0.69659356  1
  Sc  Sc85  1  0.89474289  0.90175318  0.70267555  1
  Sc  Sc86  1  0.09893388  0.50320291  0.10269463  1
  Sc  Sc87  1  0.49620236  0.30393262  0.69891779  1
  Sc  Sc88  1  0.49884758  0.69295957  0.90301703  1
  Sc  Sc89  1  0.50756963  0.09587703  0.71030828  1
  Sc  Sc90  1  0.70747145  0.89364538  0.90838582  1
  Sc  Sc91  1  0.90606314  0.89668712  0.49893898  1
  Sc  Sc92  1  0.89557251  0.70845162  0.89845560  1
  Sc  Sc93  1  0.09874681  0.89282207  0.69296672  1
  Sc  Sc94  1  0.69580645  0.10874366  0.89882685  1
  Sc  Sc95  1  0.30668483  0.29553212  0.89953903  1
  Sc  Sc96  1  0.09167730  0.50323276  0.30032229  1
  Sc  Sc97  1  0.09772545  0.70331756  0.50199554  1
  Sc  Sc98  1  0.30630218  0.88996800  0.70645445  1
  Sc  Sc99  1  0.29937162  0.90011247  0.50032869  1
  Nb  Nb100  1  0.10407214  0.29913363  0.70423237  1
  Nb  Nb101  1  0.89330998  0.29690172  0.09220260  1
  Nb  Nb102  1  0.70630273  0.29839335  0.09526991  1
  Nb  Nb103  1  0.89083947  0.29924713  0.91005982  1
  Nb  Nb104  1  0.50045542  0.30486887  0.29952432  1
  Nb  Nb105  1  0.69316629  0.69801005  0.90761359  1
  Nb  Nb106  1  0.30602332  0.29588903  0.49941717  1
  Nb  Nb107  1  0.10400016  0.09667272  0.90052194  1
  Nb  Nb108  1  0.90376268  0.69520308  0.30510413  1
  Nb  Nb109  1  0.29825916  0.09746325  0.10440582  1
  Nb  Nb110  1  0.29806765  0.10722711  0.50138529  1
  Nb  Nb111  1  0.29425899  0.49175273  0.09849616  1
  Nb  Nb112  1  0.10196619  0.89622706  0.30552304  1
  Nb  Nb113  1  0.09859468  0.50352935  0.89672299  1
  Nb  Nb114  1  0.50213653  0.69968849  0.29648468  1
  Nb  Nb115  1  0.89751836  0.89953844  0.09745972  1
  Nb  Nb116  1  0.91260130  0.09978284  0.89625697  1
  Nb  Nb117  1  0.10451044  0.09318259  0.50209017  1
  Nb  Nb118  1  0.69512658  0.70406495  0.09451588  1
  Nb  Nb119  1  0.29608173  0.90056238  0.90028935  1
  Nb  Nb120  1  0.30120325  0.90411043  0.10390227  1
  Nb  Nb121  1  0.50049821  0.29999546  0.49611447  1
  Nb  Nb122  1  0.10481353  0.29735263  0.29356324  1
  Nb  Nb123  1  0.50153332  0.50490802  0.29931903  1
  Nb  Nb124  1  0.69796703  0.70421457  0.49836728  1
  Nb  Nb125  1  0.60329793  0.79474777  0.79989282  1
  Nb  Nb126  1  0.59855752  0.20114428  0.59444201  1
  Nb  Nb127  1  0.19842332  0.40086691  -0.00157125  1
  Nb  Nb128  1  0.19842184  0.00171751  0.80395236  1
  Nb  Nb129  1  0.20252241  0.80013213  0.39099424  1
  Nb  Nb130  1  0.79146455  0.60180017  0.80481474  1
  Nb  Nb131  1  0.39422334  0.00767688  0.60020231  1
  Nb  Nb132  1  0.40498937  0.39666902  0.39912667  1
  Nb  Nb133  1  0.20203367  -0.00228070  -0.00062960  1
  Nb  Nb134  1  0.20701226  0.39012688  0.39577541  1
  Nb  Nb135  1  -0.00199495  0.59541055  -0.00862339  1
  Nb  Nb136  1  0.20106572  0.39255026  0.19823998  1
  Nb  Nb137  1  -0.00438959  0.59723398  0.60296356  1
  Nb  Nb138  1  0.80365229  0.20344323  0.19155047  1
  Nb  Nb139  1  0.60230474  0.79780639  0.60017329  1
  Nb  Nb140  1  0.39826352  0.79335303  0.39379952  1
  Nb  Nb141  1  0.20190216  0.00825940  0.60289636  1
  Nb  Nb142  1  0.80361740  0.00213569  0.39612366  1
  Nb  Nb143  1  0.60256120  0.79603309  0.19869294  1
  Nb  Nb144  1  0.20027057  0.19994306  0.19925833  1
  Nb  Nb145  1  0.38935244  0.80645643  0.00125889  1
  Nb  Nb146  1  0.60091806  0.39710262  0.80945739  1
  Nb  Nb147  1  0.19503494  0.39723350  0.80401412  1
  Nb  Nb148  1  0.20017031  0.80645458  0.20302746  1
  Nb  Nb149  1  0.60315885  0.39751978  0.00240936  1
  Pd  Pd150  1  0.79047877  0.79638469  0.80032209  1
  Pd  Pd151  1  0.00447629  0.38596497  0.81222783  1
  Pd  Pd152  1  0.40392143  0.59708514  0.40093475  1
  Pd  Pd153  1  0.00185277  0.39937946  0.19520253  1
  Pd  Pd154  1  0.39988496  0.59708449  0.19262378  1
  Pd  Pd155  1  0.00339805  0.40186131  0.59461674  1
  Pd  Pd156  1  0.79862366  0.00776561  -0.00982669  1
  Pd  Pd157  1  0.79745209  0.40110372  0.39445421  1
  Pd  Pd158  1  0.80847852  0.60435149  -0.00245914  1
  Pd  Pd159  1  0.79592104  0.20515356  0.39556168  1
  Pd  Pd160  1  -0.00712192  0.79023733  0.00557548  1
  Pd  Pd161  1  0.79851294  0.79399743  0.20397887  1
  Pd  Pd162  1  -0.00349401  0.60229450  0.18685450  1
  Pd  Pd163  1  0.39700732  0.60718515  0.00545854  1
  Pd  Pd164  1  0.60698248  0.20730573  0.40312437  1
  Pd  Pd165  1  0.39936169  0.39844447  0.80516221  1
  Pd  Pd166  1  0.00755614  -0.00280051  -0.00248234  1
  Pd  Pd167  1  0.00582956  0.40377631  -0.00099717  1
  Pd  Pd168  1  0.80065711  0.39907949  0.60375619  1
  Pd  Pd169  1  -0.00274615  0.80319736  0.79573225  1
  Pd  Pd170  1  0.80902512  0.80555079  0.39428780  1
  Pd  Pd171  1  0.80780804  0.19344516  0.80403853  1
  Pd  Pd172  1  0.79609582  0.00619612  0.80839685  1
  Pd  Pd173  1  0.19319569  0.60215586  0.39433264  1
  Pd  Pd174  1  0.40581602  0.59795258  0.59916782  1
  Pd  Pd175  1  0.00880285  -0.00621427  0.79407693  1
  Pd  Pd176  1  0.60355101  0.40515375  0.19242962  1
  Pd  Pd177  1  0.58792163  0.80979923  -0.00157986  1
  Pd  Pd178  1  0.61256753  -0.00992598  0.81016773  1
  Pd  Pd179  1  0.01064867  0.39375241  0.40151201  1
  Pd  Pd180  1  0.60125352  -0.00733320  -0.00562570  1
  Pd  Pd181  1  0.59573582  -0.00499575  0.19984578  1
  Pd  Pd182  1  0.40795835  0.80805029  0.58630145  1
  Pd  Pd183  1  -0.00533304  0.79350022  0.59873088  1
  Pd  Pd184  1  0.40562512  0.40080734  0.59616540  1
  Pd  Pd185  1  0.19364191  0.00437281  0.19880621  1
  Pd  Pd186  1  0.60096789  0.40637467  0.39343875  1
  Pd  Pd187  1  0.79690486  0.20602228  0.59433767  1
  Pd  Pd188  1  0.39472659  0.00283239  -0.00068533  1
  Pd  Pd189  1  0.40738393  0.20058763  0.79741090  1
  Pd  Pd190  1  0.00407925  0.00363952  0.60761930  1
  Pd  Pd191  1  -0.00029571  0.00251711  0.20703831  1
  Pd  Pd192  1  0.19671796  0.20126047  0.39698844  1
  Pd  Pd193  1  0.41209808  0.19428323  0.60235415  1
  Pd  Pd194  1  0.19233486  0.40189560  0.59808470  1
  Pd  Pd195  1  0.19114235  0.59397610  0.60427893  1
  Pd  Pd196  1  0.59257697  0.58954121  0.01082985  1
  Pd  Pd197  1  0.81235626  -0.00062707  0.59045448  1
  Pd  Pd198  1  0.00899648  0.20689054  0.40336011  1
  Pd  Pd199  1  0.81176189  0.00458652  0.20742916  1
  Rh  Rh200  1  0.40615835  0.01000094  0.20011547  1
  Rh  Rh201  1  0.20589020  -0.00456488  0.40848735  1
  Rh  Rh202  1  0.19544711  0.59801280  0.19843959  1
  Rh  Rh203  1  0.39433442  -0.00414108  0.40719587  1
  Rh  Rh204  1  0.38770014  0.00704096  0.79448097  1
  Rh  Rh205  1  0.19496793  0.19775528  0.59335620  1
  Rh  Rh206  1  -0.01770889  0.60314843  0.80059778  1
  Rh  Rh207  1  -0.00746677  0.00103238  0.39746063  1
  Rh  Rh208  1  0.19110507  0.59126104  0.00304875  1
  Rh  Rh209  1  0.79341927  0.40637459  0.00779943  1
  Rh  Rh210  1  0.60686009  0.00303943  0.39251494  1
  Rh  Rh211  1  0.80496891  0.79746360  0.00245303  1
  Rh  Rh212  1  0.20274803  0.20444069  0.80946224  1
  Rh  Rh213  1  0.79231150  0.40230249  0.79740701  1
  Rh  Rh214  1  0.60462517  0.59354088  0.39412176  1
  Rh  Rh215  1  0.59019849  0.80083720  0.39548110  1
  Rh  Rh216  1  0.79443060  0.80824406  0.60044581  1
  Rh  Rh217  1  0.00051742  0.79620201  0.19589783  1
  Rh  Rh218  1  0.81051953  0.59187921  0.61128309  1
  Rh  Rh219  1  0.80734169  0.18709366  0.00032590  1
  Rh  Rh220  1  0.20733413  0.59339834  0.79239732  1
  Rh  Rh221  1  0.59734243  0.20430418  0.00816084  1
  Rh  Rh222  1  0.80100067  0.39239687  0.19948485  1
  Rh  Rh223  1  0.60711805  0.20333704  0.19636974  1
  Rh  Rh224  1  0.39726381  0.19056844  0.19818275  1
  Rh  Rh225  1  -0.00567963  0.20421636  0.80774472  1
  Rh  Rh226  1  0.40123498  0.40114533  -0.00394384  1
  Rh  Rh227  1  -0.00943072  0.19779505  -0.00674104  1
  Rh  Rh228  1  0.79609841  0.59906908  0.39361287  1
  Rh  Rh229  1  -0.00172749  0.20128358  0.20001978  1
  Rh  Rh230  1  0.20402420  0.19892632  0.00527884  1
  Rh  Rh231  1  0.40569663  0.19097412  0.00444657  1
  Rh  Rh232  1  0.40028243  0.79960847  0.19964787  1
  Rh  Rh233  1  0.59015827  0.00271748  0.59922224  1
  Rh  Rh234  1  0.20107291  0.80703001  0.59342103  1
  Rh  Rh235  1  0.59788482  0.38992584  0.61174010  1
  Rh  Rh236  1  0.59391954  0.60679806  0.60222851  1
  Rh  Rh237  1  0.40257173  0.78978571  0.81248700  1
  Rh  Rh238  1  0.20551382  0.80743141  0.01487554  1
  Rh  Rh239  1  0.39821822  0.40474216  0.20713146  1
  Rh  Rh240  1  -0.00232196  0.60587774  0.41093658  1
  Rh  Rh241  1  0.59872411  0.60395990  0.19769298  1
  Rh  Rh242  1  0.40417901  0.20443464  0.40248551  1
  Rh  Rh243  1  0.00112918  0.79278205  0.40222076  1
  Rh  Rh244  1  0.60495402  0.59935947  0.79864130  1
  Rh  Rh245  1  0.59871337  0.20880989  0.78985149  1
  Rh  Rh246  1  0.00177599  0.20159171  0.59890456  1
  Rh  Rh247  1  0.79951013  0.60802039  0.20238565  1
  Rh  Rh248  1  0.19773196  0.80514768  0.78972748  1
  Rh  Rh249  1  0.39079156  0.60552024  0.80109562  1
