# generated using pymatgen
data_ZrScNbPdRh
_symmetry_space_group_name_H-M   'P 1'
_cell_length_a   16.55754808
_cell_length_b   16.55816640
_cell_length_c   16.56431410
_cell_angle_alpha   89.95998424
_cell_angle_beta   89.98892585
_cell_angle_gamma   90.02001273
_symmetry_Int_Tables_number   1
_chemical_formula_structural   ZrScNbPdRh
_chemical_formula_sum   'Zr50 Sc50 Nb50 Pd50 Rh50'
_cell_volume   4541.31455094
_cell_formula_units_Z   50
loop_
 _symmetry_equiv_pos_site_id
 _symmetry_equiv_pos_as_xyz
  1  'x, y, z'
loop_
 _atom_site_type_symbol
 _atom_site_label
 _atom_site_symmetry_multiplicity
 _atom_site_fract_x
 _atom_site_fract_y
 _atom_site_fract_z
 _atom_site_occupancy
  Zr  Zr0  1  0.71185652  0.90151553  0.49501199  1
  Zr  Zr1  1  0.70786416  0.30601278  0.50434816  1
  Zr  Zr2  1  0.50129164  0.49709747  0.50942044  1
  Zr  Zr3  1  0.09578874  0.10490293  0.50275108  1
  Zr  Zr4  1  0.10263490  0.89158724  0.90107384  1
  Zr  Zr5  1  0.50520119  0.90291702  0.10166146  1
  Zr  Zr6  1  0.50077729  0.29137362  0.09869743  1
  Zr  Zr7  1  0.70386972  0.30013131  0.70158341  1
  Zr  Zr8  1  0.69603574  0.09430941  0.50856883  1
  Zr  Zr9  1  0.50169841  0.89825667  0.69684952  1
  Zr  Zr10  1  0.49915813  0.70859477  0.10364833  1
  Zr  Zr11  1  0.70774794  0.10492050  0.30605685  1
  Zr  Zr12  1  0.70190134  0.70016717  0.89269031  1
  Zr  Zr13  1  0.30205935  0.09442978  0.89876365  1
  Zr  Zr14  1  0.30341694  0.10865078  0.49160249  1
  Zr  Zr15  1  0.09703959  0.30229485  0.89089050  1
  Zr  Zr16  1  0.89379289  0.49446220  0.90157934  1
  Zr  Zr17  1  0.29295018  0.49403935  0.30213858  1
  Zr  Zr18  1  0.09190158  0.10252639  0.69740592  1
  Zr  Zr19  1  0.50080563  0.30457843  0.90421778  1
  Zr  Zr20  1  0.90363715  0.89604114  0.10770755  1
  Zr  Zr21  1  0.51344795  0.69805623  0.69625214  1
  Zr  Zr22  1  0.10464705  0.49411365  0.69341368  1
  Zr  Zr23  1  0.50221754  0.10021644  0.50003500  1
  Zr  Zr24  1  0.30375475  0.90291223  0.70117750  1
  Zr  Zr25  1  0.09776176  0.29920404  0.69422619  1
  Zr  Zr26  1  0.10629229  0.10732304  0.89611297  1
  Zr  Zr27  1  0.49657315  0.10676570  0.90484286  1
  Zr  Zr28  1  0.70123019  0.89029538  0.69594177  1
  Zr  Zr29  1  0.29856224  0.49442587  0.69907501  1
  Zr  Zr30  1  0.70193101  0.89934142  0.09892337  1
  Zr  Zr31  1  0.49313459  0.29263182  0.50929310  1
  Zr  Zr32  1  0.70476343  0.90506699  0.90081259  1
  Zr  Zr33  1  0.08407449  0.70145042  0.09825414  1
  Zr  Zr34  1  0.89928593  0.10313805  0.70168944  1
  Zr  Zr35  1  0.88740315  0.89698851  0.30571782  1
  Zr  Zr36  1  0.10184492  0.30019588  0.30433798  1
  Zr  Zr37  1  0.50060061  0.50352577  0.69827472  1
  Zr  Zr38  1  0.70015263  0.49262778  0.29698530  1
  Zr  Zr39  1  0.70883129  0.10262590  0.89587625  1
  Zr  Zr40  1  0.89502935  0.70101771  0.10428302  1
  Zr  Zr41  1  0.69912400  0.70594908  0.09101311  1
  Zr  Zr42  1  0.70609158  0.30607411  0.89423426  1
  Zr  Zr43  1  0.09392078  0.10582404  0.30208274  1
  Zr  Zr44  1  0.10381137  0.68818744  0.50031159  1
  Zr  Zr45  1  0.30228526  0.49990199  0.90511304  1
  Zr  Zr46  1  0.50817765  0.10553598  0.69493708  1
  Zr  Zr47  1  0.90126830  0.50379275  0.09591173  1
  Zr  Zr48  1  0.69259717  0.09991079  0.09965228  1
  Zr  Zr49  1  0.09814814  0.90150204  0.09953713  1
  Sc  Sc50  1  0.49573408  0.69383665  0.49630783  1
  Sc  Sc51  1  0.70221029  0.69753486  0.49861389  1
  Sc  Sc52  1  0.69389479  0.89675283  0.30885780  1
  Sc  Sc53  1  0.89710509  0.68588332  0.49740027  1
  Sc  Sc54  1  0.51104510  0.90178328  0.48943234  1
  Sc  Sc55  1  0.30459895  0.70940509  0.69377451  1
  Sc  Sc56  1  0.10031561  0.91393834  0.29158801  1
  Sc  Sc57  1  0.29628577  0.10148435  0.30078014  1
  Sc  Sc58  1  0.09435387  0.49297102  0.49454728  1
  Sc  Sc59  1  0.30321616  0.70861325  0.09416211  1
  Sc  Sc60  1  0.10047356  0.49960076  0.30859180  1
  Sc  Sc61  1  0.30733394  0.70101790  0.31003824  1
  Sc  Sc62  1  0.90330789  0.49410569  0.30701882  1
  Sc  Sc63  1  0.50154943  0.09920381  0.30325897  1
  Sc  Sc64  1  0.89554937  0.69273530  0.90512156  1
  Sc  Sc65  1  0.30046566  0.90378401  0.30056604  1
  Sc  Sc66  1  0.49664513  0.48855334  0.08545574  1
  Sc  Sc67  1  0.49590924  0.50805588  0.30956606  1
  Sc  Sc68  1  0.70694850  0.50285840  0.50258873  1
  Sc  Sc69  1  0.29307597  0.50177471  0.50096724  1
  Sc  Sc70  1  0.29153325  0.28947908  0.89859900  1
  Sc  Sc71  1  0.29315038  0.09712218  0.71002585  1
  Sc  Sc72  1  0.69600472  0.49287087  0.09710823  1
  Sc  Sc73  1  0.10163805  0.09901070  0.11181946  1
  Sc  Sc74  1  0.90275632  0.90936885  0.90079904  1
  Sc  Sc75  1  0.90159020  0.90239175  0.69963882  1
  Sc  Sc76  1  0.90821603  0.10386566  0.11441910  1
  Sc  Sc77  1  0.29627954  0.89905790  0.50246278  1
  Sc  Sc78  1  0.89442058  0.49976801  0.68951114  1
  Sc  Sc79  1  0.30324161  0.90183293  0.89446538  1
  Sc  Sc80  1  0.30225448  0.70141818  0.49824187  1
  Sc  Sc81  1  0.49717754  0.29032779  0.28719891  1
  Sc  Sc82  1  0.08966059  0.49516066  0.89792071  1
  Sc  Sc83  1  0.49189374  0.91025076  0.89751073  1
  Sc  Sc84  1  0.29187976  0.30457456  0.69401959  1
  Sc  Sc85  1  0.30334660  0.48954985  0.10348839  1
  Sc  Sc86  1  0.29721864  0.10288462  0.09893667  1
  Sc  Sc87  1  0.30031413  0.70740447  0.90231610  1
  Sc  Sc88  1  0.49608872  0.70965649  0.30925494  1
  Sc  Sc89  1  0.50432982  0.30410422  0.69604392  1
  Sc  Sc90  1  0.30589897  0.89505215  0.09230889  1
  Sc  Sc91  1  0.90190293  0.70172601  0.29758137  1
  Sc  Sc92  1  0.90349912  0.09915544  0.89089507  1
  Sc  Sc93  1  0.10756285  0.90204894  0.69835664  1
  Sc  Sc94  1  0.50271609  0.68678705  0.89781762  1
  Sc  Sc95  1  0.89827611  0.10210398  0.50596468  1
  Sc  Sc96  1  0.30276601  0.29942122  0.11293750  1
  Sc  Sc97  1  0.89891069  0.30143804  0.69942439  1
  Sc  Sc98  1  0.69775515  0.30310590  0.11614069  1
  Sc  Sc99  1  0.69776676  0.49973020  0.89936769  1
  Nb  Nb100  1  0.09929404  0.29680338  0.49871156  1
  Nb  Nb101  1  0.89912025  0.30146654  0.10487353  1
  Nb  Nb102  1  0.89319204  0.28881021  0.29358665  1
  Nb  Nb103  1  0.70882743  0.69358225  0.69869705  1
  Nb  Nb104  1  0.90969530  0.30997514  0.49635092  1
  Nb  Nb105  1  0.89856308  0.30290577  0.90114459  1
  Nb  Nb106  1  0.10240741  0.29931113  0.10128077  1
  Nb  Nb107  1  0.09770650  0.70175568  0.70062700  1
  Nb  Nb108  1  0.90330368  0.89682212  0.49856338  1
  Nb  Nb109  1  0.29744387  0.29793104  0.49459777  1
  Nb  Nb110  1  0.49820032  0.10276742  0.10226996  1
  Nb  Nb111  1  0.49450604  0.49291825  0.90058002  1
  Nb  Nb112  1  0.09775530  0.50066649  0.10334316  1
  Nb  Nb113  1  0.90322061  0.49107369  0.49859062  1
  Nb  Nb114  1  0.90225276  0.10455775  0.30330657  1
  Nb  Nb115  1  0.70360529  0.29953741  0.29949349  1
  Nb  Nb116  1  0.70347596  0.69573401  0.29715848  1
  Nb  Nb117  1  0.89870018  0.69773906  0.69944681  1
  Nb  Nb118  1  0.49551176  0.89856208  0.29722048  1
  Nb  Nb119  1  0.69780909  0.49949759  0.69169478  1
  Nb  Nb120  1  0.70385147  0.09975893  0.70114167  1
  Nb  Nb121  1  0.10086756  0.69972886  0.89816366  1
  Nb  Nb122  1  0.09859814  0.69796967  0.30150206  1
  Nb  Nb123  1  0.09543513  0.90085377  0.50623003  1
  Nb  Nb124  1  0.30032753  0.30018080  0.30607074  1
  Nb  Nb125  1  0.00448722  0.80321795  0.40481295  1
  Nb  Nb126  1  0.40291436  0.00381548  0.59860368  1
  Nb  Nb127  1  0.00041449  0.79417718  0.59832594  1
  Nb  Nb128  1  0.19543982  0.79345366  0.20439983  1
  Nb  Nb129  1  0.19738272  -0.00011461  -0.00236401  1
  Nb  Nb130  1  0.18779940  0.80162016  0.39873101  1
  Nb  Nb131  1  0.00193255  0.60566359  0.79293178  1
  Nb  Nb132  1  -0.00159310  0.21024897  0.00246413  1
  Nb  Nb133  1  0.80872228  0.20656450  0.00322846  1
  Nb  Nb134  1  0.60609932  0.20826574  0.40116514  1
  Nb  Nb135  1  0.79350969  0.60008909  0.19923289  1
  Nb  Nb136  1  0.59835369  0.60423945  0.20013811  1
  Nb  Nb137  1  0.40146864  0.40352117  0.80276880  1
  Nb  Nb138  1  0.39965419  0.39167501  0.40363512  1
  Nb  Nb139  1  -0.00445217  -0.00225805  0.40519587  1
  Nb  Nb140  1  0.19324273  0.60430679  0.80177982  1
  Nb  Nb141  1  0.60615999  0.00510059  0.79545477  1
  Nb  Nb142  1  0.19162605  0.59813581  0.00249024  1
  Nb  Nb143  1  0.79798161  0.00186247  0.20474734  1
  Nb  Nb144  1  0.40754480  -0.00096060  0.19616624  1
  Nb  Nb145  1  0.19938943  0.60404250  0.19585695  1
  Nb  Nb146  1  -0.00025707  0.39277602  0.19665670  1
  Nb  Nb147  1  0.40060690  0.60240052  0.19832223  1
  Nb  Nb148  1  0.19227648  0.39931925  0.00571951  1
  Nb  Nb149  1  0.59742732  0.39170163  0.39998609  1
  Pd  Pd150  1  0.39081492  0.20387730  0.00444288  1
  Pd  Pd151  1  0.40794302  0.80716458  0.58868471  1
  Pd  Pd152  1  0.80815838  0.80351109  -0.00895449  1
  Pd  Pd153  1  0.60109413  0.00289084  0.21045607  1
  Pd  Pd154  1  0.40083579  -0.00408782  0.39948217  1
  Pd  Pd155  1  0.80363195  0.59251965  0.79566104  1
  Pd  Pd156  1  0.60360431  0.79682772  0.20784007  1
  Pd  Pd157  1  0.81431929  0.01286330  0.01185993  1
  Pd  Pd158  1  0.40822888  0.79139589  0.80302930  1
  Pd  Pd159  1  0.39469333  0.60244543  0.59851529  1
  Pd  Pd160  1  0.59589244  0.00138434  -0.00937643  1
  Pd  Pd161  1  0.81048137  0.80293538  0.80433574  1
  Pd  Pd162  1  0.40912719  0.40725843  0.20891981  1
  Pd  Pd163  1  0.79244029  0.39424165  0.00810155  1
  Pd  Pd164  1  0.20452143  0.19619423  0.60243666  1
  Pd  Pd165  1  0.80524341  -0.00244425  0.60398579  1
  Pd  Pd166  1  -0.00814510  0.79734634  0.79636290  1
  Pd  Pd167  1  -0.00325442  0.59817927  0.60111398  1
  Pd  Pd168  1  0.00406645  0.01473456  0.00160383  1
  Pd  Pd169  1  0.60310719  0.79420967  0.40314534  1
  Pd  Pd170  1  0.80232483  0.20060444  0.41158384  1
  Pd  Pd171  1  0.80576162  0.20481790  0.59689470  1
  Pd  Pd172  1  0.59564113  0.80539722  0.80655297  1
  Pd  Pd173  1  0.39127956  0.60144355  0.79734004  1
  Pd  Pd174  1  -0.01003401  0.79759367  -0.00761347  1
  Pd  Pd175  1  0.20751782  0.00706321  0.59624992  1
  Pd  Pd176  1  0.19224041  -0.00271573  0.40436902  1
  Pd  Pd177  1  0.59821386  0.59564184  0.00369735  1
  Pd  Pd178  1  0.59136174  0.80335199  -0.01451522  1
  Pd  Pd179  1  0.20682037  0.60404376  0.60680348  1
  Pd  Pd180  1  0.60551345  0.59111230  0.79957715  1
  Pd  Pd181  1  0.80401524  0.59719339  0.39336651  1
  Pd  Pd182  1  0.60169672  0.79498485  0.58749185  1
  Pd  Pd183  1  0.59715261  0.40696203  0.79708817  1
  Pd  Pd184  1  0.58515408  0.40732682  0.20593600  1
  Pd  Pd185  1  0.61239119  0.20872827  -0.00077055  1
  Pd  Pd186  1  0.80844119  0.79160074  0.59444548  1
  Pd  Pd187  1  0.39591168  0.60171018  0.00783916  1
  Pd  Pd188  1  0.60156749  0.59587284  0.39886885  1
  Pd  Pd189  1  0.20532434  0.79721569  0.79576913  1
  Pd  Pd190  1  -0.00299514  0.59102906  0.21068324  1
  Pd  Pd191  1  0.00331534  0.39649066  0.00578275  1
  Pd  Pd192  1  0.38783217  0.19501182  0.61222339  1
  Pd  Pd193  1  0.39858308  0.20918654  0.79245840  1
  Pd  Pd194  1  0.20440321  0.20077440  0.20354602  1
  Pd  Pd195  1  -0.00976006  0.40693903  0.78883758  1
  Pd  Pd196  1  0.60130930  0.19928280  0.80064736  1
  Pd  Pd197  1  0.00722939  -0.00483391  0.79653646  1
  Pd  Pd198  1  0.40978123  0.80084137  -0.01176004  1
  Pd  Pd199  1  0.80068037  0.39901143  0.39726699  1
  Rh  Rh200  1  0.19779662  0.20215407  0.78957850  1
  Rh  Rh201  1  0.21657739  -0.01087811  0.18648701  1
  Rh  Rh202  1  0.79141318  0.59858010  0.00538157  1
  Rh  Rh203  1  0.80303546  0.40178002  0.60101213  1
  Rh  Rh204  1  0.80110588  0.40625692  0.79269772  1
  Rh  Rh205  1  0.39251030  0.80401259  0.20669376  1
  Rh  Rh206  1  0.79529175  -0.00618186  0.79063380  1
  Rh  Rh207  1  0.60313553  0.19423379  0.20635541  1
  Rh  Rh208  1  0.60445737  0.39446078  -0.00067465  1
  Rh  Rh209  1  0.20307024  0.60507781  0.39336859  1
  Rh  Rh210  1  -0.00389321  0.59956296  0.39973493  1
  Rh  Rh211  1  0.19111383  0.40327944  0.19815390  1
  Rh  Rh212  1  0.39327833  0.80896073  0.40415696  1
  Rh  Rh213  1  0.79461114  0.19264026  0.19268992  1
  Rh  Rh214  1  -0.00502598  0.20430488  0.80259826  1
  Rh  Rh215  1  0.80688347  0.00665880  0.39929043  1
  Rh  Rh216  1  0.00085868  0.39828307  0.59886415  1
  Rh  Rh217  1  0.00356294  0.59977828  -0.01161357  1
  Rh  Rh218  1  0.79889648  0.59689281  0.59948496  1
  Rh  Rh219  1  0.40686950  0.20715854  0.39205812  1
  Rh  Rh220  1  0.81028889  0.40730359  0.20251447  1
  Rh  Rh221  1  0.39535059  0.18808296  0.20384433  1
  Rh  Rh222  1  0.78992740  0.80097408  0.20310362  1
  Rh  Rh223  1  0.19379240  -0.00501924  0.80705172  1
  Rh  Rh224  1  0.38720549  0.38696064  -0.00749531  1
  Rh  Rh225  1  0.80683586  0.20331820  0.80299099  1
  Rh  Rh226  1  -0.00686009  0.19988513  0.40536868  1
  Rh  Rh227  1  0.60817834  0.60538311  0.59855911  1
  Rh  Rh228  1  0.19294547  0.19966041  0.00506159  1
  Rh  Rh229  1  0.19719685  0.20171582  0.39880119  1
  Rh  Rh230  1  0.19446141  0.80024599  0.00713441  1
  Rh  Rh231  1  0.00362703  0.20814180  0.19908126  1
  Rh  Rh232  1  -0.01376602  -0.00456548  0.21288247  1
  Rh  Rh233  1  0.00724334  0.80740835  0.21201655  1
  Rh  Rh234  1  0.39310112  0.39940465  0.59967928  1
  Rh  Rh235  1  0.80324572  0.78865977  0.40298898  1
  Rh  Rh236  1  -0.00155496  0.39109719  0.39125005  1
  Rh  Rh237  1  0.61095216  0.20687453  0.59705545  1
  Rh  Rh238  1  0.19333628  0.79690071  0.59336115  1
  Rh  Rh239  1  0.60467708  0.39986312  0.59783639  1
  Rh  Rh240  1  0.39477734  0.00463382  0.00958790  1
  Rh  Rh241  1  -0.00472821  -0.00444911  0.59924871  1
  Rh  Rh242  1  0.39368037  0.58930015  0.40002480  1
  Rh  Rh243  1  0.20245619  0.39492123  0.40610258  1
  Rh  Rh244  1  0.41249763  0.00669532  0.78714211  1
  Rh  Rh245  1  0.19595345  0.39617656  0.58675521  1
  Rh  Rh246  1  0.60083493  0.00457301  0.39546663  1
  Rh  Rh247  1  0.20886099  0.40497290  0.81071502  1
  Rh  Rh248  1  -0.00622715  0.20750518  0.59637399  1
  Rh  Rh249  1  0.60042141  -0.00651502  0.60640898  1
