# generated using pymatgen
data_ZrScNbPdRh
_symmetry_space_group_name_H-M   'P 1'
_cell_length_a   16.55981731
_cell_length_b   16.55491353
_cell_length_c   16.55804642
_cell_angle_alpha   89.96011061
_cell_angle_beta   89.99059166
_cell_angle_gamma   90.01753229
_symmetry_Int_Tables_number   1
_chemical_formula_structural   ZrScNbPdRh
_chemical_formula_sum   'Zr50 Sc50 Nb50 Pd50 Rh50'
_cell_volume   4539.32650991
_cell_formula_units_Z   50
loop_
 _symmetry_equiv_pos_site_id
 _symmetry_equiv_pos_as_xyz
  1  'x, y, z'
loop_
 _atom_site_type_symbol
 _atom_site_label
 _atom_site_symmetry_multiplicity
 _atom_site_fract_x
 _atom_site_fract_y
 _atom_site_fract_z
 _atom_site_occupancy
  Zr  Zr0  1  0.90119879  0.50464150  0.30104462  1
  Zr  Zr1  1  0.10522712  0.50702831  0.90679027  1
  Zr  Zr2  1  0.29170187  0.69412499  0.49916120  1
  Zr  Zr3  1  0.09721351  0.70625341  0.89776804  1
  Zr  Zr4  1  0.70088089  0.89905804  0.50706989  1
  Zr  Zr5  1  0.10213077  0.89880694  0.89195949  1
  Zr  Zr6  1  0.29756233  0.90026679  0.10438877  1
  Zr  Zr7  1  0.88866156  0.30374421  0.50066290  1
  Zr  Zr8  1  0.30083217  0.29350774  0.30621514  1
  Zr  Zr9  1  0.08754090  0.10616618  0.30589995  1
  Zr  Zr10  1  0.50169996  0.90795420  0.90282763  1
  Zr  Zr11  1  0.49540072  0.11152479  0.88805373  1
  Zr  Zr12  1  0.29995133  0.31680827  0.69648032  1
  Zr  Zr13  1  0.29469229  0.70150652  0.30112419  1
  Zr  Zr14  1  0.70237326  0.49921233  0.31210527  1
  Zr  Zr15  1  0.51028852  0.90909897  0.29742895  1
  Zr  Zr16  1  0.50954448  0.29979878  0.51131447  1
  Zr  Zr17  1  0.69154456  0.90038168  0.10620530  1
  Zr  Zr18  1  0.30330953  0.49706940  0.50780834  1
  Zr  Zr19  1  0.49725958  0.69291518  0.50013069  1
  Zr  Zr20  1  0.71297169  0.09562242  0.10205737  1
  Zr  Zr21  1  0.30278171  0.30028641  0.50038413  1
  Zr  Zr22  1  0.90420347  0.10896630  0.48725190  1
  Zr  Zr23  1  0.31112413  0.29777775  0.89388464  1
  Zr  Zr24  1  0.09886500  0.69569658  0.31019532  1
  Zr  Zr25  1  0.49724155  0.29530979  0.70760160  1
  Zr  Zr26  1  0.88773915  0.90789722  0.69400269  1
  Zr  Zr27  1  0.09481776  0.30861553  0.10402549  1
  Zr  Zr28  1  0.90841949  0.49590028  0.69314125  1
  Zr  Zr29  1  0.09768361  0.50055909  0.29802785  1
  Zr  Zr30  1  0.10261308  0.49662170  0.09838446  1
  Zr  Zr31  1  0.09094500  0.89964739  0.09623459  1
  Zr  Zr32  1  0.50288745  0.30654662  0.89560800  1
  Zr  Zr33  1  0.29686331  0.89786878  0.70739433  1
  Zr  Zr34  1  0.90485697  0.69772586  0.89503646  1
  Zr  Zr35  1  0.50063379  0.10039659  0.50406896  1
  Zr  Zr36  1  0.70274727  0.69599016  0.70152077  1
  Zr  Zr37  1  0.49490213  0.29584843  0.29445936  1
  Zr  Zr38  1  0.50180912  0.90247645  0.50166707  1
  Zr  Zr39  1  0.50358185  0.90543219  0.69068318  1
  Zr  Zr40  1  0.69553542  0.70273698  0.10136521  1
  Zr  Zr41  1  0.30701152  0.30860197  0.10299399  1
  Zr  Zr42  1  0.49652673  0.69918901  0.91096971  1
  Zr  Zr43  1  0.30048698  0.09524702  0.89324483  1
  Zr  Zr44  1  0.90013497  0.69938661  0.30996263  1
  Zr  Zr45  1  0.90040135  0.30076597  0.91130944  1
  Zr  Zr46  1  0.89852317  0.70054364  0.09678731  1
  Zr  Zr47  1  0.29709905  0.90431935  0.29238759  1
  Zr  Zr48  1  0.90214985  0.29313211  0.30140059  1
  Zr  Zr49  1  0.91360790  0.30141573  0.69578044  1
  Sc  Sc50  1  0.50048234  0.89287128  0.10142944  1
  Sc  Sc51  1  0.29832113  0.69028500  0.89864845  1
  Sc  Sc52  1  0.10706931  0.89581319  0.70152437  1
  Sc  Sc53  1  0.09462883  0.89662043  0.29399792  1
  Sc  Sc54  1  0.49475934  0.69453238  0.29769527  1
  Sc  Sc55  1  0.09862774  0.70488208  0.50210499  1
  Sc  Sc56  1  0.48434173  0.49272721  0.09792261  1
  Sc  Sc57  1  0.69616871  0.29856828  0.69442396  1
  Sc  Sc58  1  0.10736085  0.29607382  0.50426710  1
  Sc  Sc59  1  0.09332362  0.10212674  0.90209240  1
  Sc  Sc60  1  0.30293936  0.90498799  0.89360150  1
  Sc  Sc61  1  0.90526935  0.69556652  0.69945677  1
  Sc  Sc62  1  0.89526727  0.50091736  0.50320461  1
  Sc  Sc63  1  0.69735171  0.11364317  0.49323744  1
  Sc  Sc64  1  0.29906971  0.69405134  0.69492551  1
  Sc  Sc65  1  0.91108788  0.90001181  0.90479700  1
  Sc  Sc66  1  0.29712254  0.09274814  0.69813147  1
  Sc  Sc67  1  0.70342933  0.68916481  0.49981787  1
  Sc  Sc68  1  0.10269340  0.48715767  0.69999199  1
  Sc  Sc69  1  0.89476021  0.10141636  0.28734674  1
  Sc  Sc70  1  0.71115507  0.70599382  0.29769342  1
  Sc  Sc71  1  0.09849417  0.30350866  0.29811957  1
  Sc  Sc72  1  0.70394056  0.50053354  0.69046499  1
  Sc  Sc73  1  0.69685274  0.09453710  0.90304010  1
  Sc  Sc74  1  0.09958642  0.50935903  0.50204282  1
  Sc  Sc75  1  0.69849733  0.29653692  0.31603699  1
  Sc  Sc76  1  0.90058811  0.89089650  0.49502106  1
  Sc  Sc77  1  0.69243040  0.29537866  0.89773287  1
  Sc  Sc78  1  0.09504418  0.31388832  0.89889103  1
  Sc  Sc79  1  0.31408774  0.69771876  0.09787722  1
  Sc  Sc80  1  0.08500681  0.09585853  0.10452301  1
  Sc  Sc81  1  0.68527589  0.09898935  0.29760480  1
  Sc  Sc82  1  0.29444530  0.89832248  0.51332208  1
  Sc  Sc83  1  0.90027870  0.91299063  0.10161094  1
  Sc  Sc84  1  0.49739065  0.29977617  0.09285935  1
  Sc  Sc85  1  0.30219688  0.50166447  0.89814324  1
  Sc  Sc86  1  0.09878388  0.70496137  0.70214516  1
  Sc  Sc87  1  0.90640589  0.50061343  0.90132239  1
  Sc  Sc88  1  0.50356923  0.10207650  0.10924855  1
  Sc  Sc89  1  0.89994994  0.89405951  0.29894893  1
  Sc  Sc90  1  0.09768652  0.69471742  0.09425802  1
  Sc  Sc91  1  0.69935420  0.29801102  0.08539029  1
  Sc  Sc92  1  0.70659147  0.48745389  0.90856071  1
  Sc  Sc93  1  0.70758254  0.08743748  0.70329280  1
  Sc  Sc94  1  0.30962638  0.49079084  0.30610596  1
  Sc  Sc95  1  0.90635773  0.69821713  0.49996764  1
  Sc  Sc96  1  0.90133091  0.49876615  0.09467936  1
  Sc  Sc97  1  0.50094688  0.69085724  0.69023035  1
  Sc  Sc98  1  0.49836928  0.49525160  0.69528688  1
  Sc  Sc99  1  0.30866907  0.09423164  0.10889264  1
  Nb  Nb100  1  0.69451254  0.48490961  0.49766780  1
  Nb  Nb101  1  0.89564660  0.29366486  0.10375922  1
  Nb  Nb102  1  0.50398977  0.49814440  0.90066023  1
  Nb  Nb103  1  0.70046224  0.89550874  0.70531816  1
  Nb  Nb104  1  0.90321064  0.10448474  0.69951507  1
  Nb  Nb105  1  0.10385323  0.09988815  0.50024204  1
  Nb  Nb106  1  0.09744558  0.90612466  0.50010376  1
  Nb  Nb107  1  0.69330720  0.89697978  0.90129536  1
  Nb  Nb108  1  0.10185231  0.30134886  0.70223831  1
  Nb  Nb109  1  0.49936141  0.10464597  0.70173630  1
  Nb  Nb110  1  0.89912084  0.10269737  0.90536012  1
  Nb  Nb111  1  0.69788831  0.49619465  0.10134213  1
  Nb  Nb112  1  0.09566735  0.10978382  0.69712555  1
  Nb  Nb113  1  0.29034389  0.10591097  0.49087510  1
  Nb  Nb114  1  0.29542542  0.50079466  0.09762603  1
  Nb  Nb115  1  0.30193717  0.49712290  0.69835276  1
  Nb  Nb116  1  0.51485301  0.50242984  0.49609342  1
  Nb  Nb117  1  0.50454490  0.69559414  0.10048362  1
  Nb  Nb118  1  0.50676007  0.49595583  0.30460480  1
  Nb  Nb119  1  0.89623784  0.10835246  0.09285014  1
  Nb  Nb120  1  0.49531516  0.10038587  0.30246344  1
  Nb  Nb121  1  0.70151303  0.30979841  0.49957285  1
  Nb  Nb122  1  0.69883347  0.69971364  0.90136398  1
  Nb  Nb123  1  0.30129560  0.10195816  0.30094201  1
  Nb  Nb124  1  0.69957742  0.90125745  0.30188259  1
  Nb  Nb125  1  0.59771215  0.59252798  0.19703496  1
  Nb  Nb126  1  0.20503592  0.59418189  0.19874724  1
  Nb  Nb127  1  0.60116157  0.79824686  0.80130218  1
  Nb  Nb128  1  0.59867358  0.59527724  0.00376862  1
  Nb  Nb129  1  0.79319111  -0.00315101  0.39582224  1
  Nb  Nb130  1  0.40985001  0.79898005  0.79760081  1
  Nb  Nb131  1  0.60241796  0.40470382  0.20135274  1
  Nb  Nb132  1  0.00324433  0.00872610  0.59892904  1
  Nb  Nb133  1  0.19409049  0.20512887  0.79722775  1
  Nb  Nb134  1  0.59853005  0.80270982  0.40036858  1
  Nb  Nb135  1  0.19846219  0.00578302  0.40230602  1
  Nb  Nb136  1  0.20130854  0.19887631  0.19815185  1
  Nb  Nb137  1  -0.00498839  0.01025577  0.79048475  1
  Nb  Nb138  1  0.79498457  0.39804791  0.19787088  1
  Nb  Nb139  1  0.40030272  0.80692067  0.40101886  1
  Nb  Nb140  1  0.80751296  0.39197763  0.79673808  1
  Nb  Nb141  1  0.60159167  0.59963319  0.80981990  1
  Nb  Nb142  1  0.19842523  0.00103821  0.00206006  1
  Nb  Nb143  1  0.79290589  0.80397171  0.80483254  1
  Nb  Nb144  1  0.79335016  0.80157454  -0.00560901  1
  Nb  Nb145  1  0.39242122  0.00445993  0.39957430  1
  Nb  Nb146  1  0.20032420  0.80510495  -0.00116063  1
  Nb  Nb147  1  0.81032769  0.19726316  0.80041246  1
  Nb  Nb148  1  0.20236914  0.19876435  0.00285113  1
  Nb  Nb149  1  -0.00277861  0.40128074  0.40051140  1
  Pd  Pd150  1  0.39691836  0.19409362  0.00582902  1
  Pd  Pd151  1  0.20784617  0.39308497  -0.00850337  1
  Pd  Pd152  1  0.18906723  0.01071896  0.20126091  1
  Pd  Pd153  1  0.39959903  0.59126367  0.20057247  1
  Pd  Pd154  1  0.19430144  0.00045203  0.60024492  1
  Pd  Pd155  1  0.40065418  0.00324052  0.00552501  1
  Pd  Pd156  1  0.20815899  0.20279816  0.60786770  1
  Pd  Pd157  1  0.61136476  0.40856184  0.79355301  1
  Pd  Pd158  1  0.00112948  0.20237270  0.80777254  1
  Pd  Pd159  1  0.60967064  0.01031525  0.59997105  1
  Pd  Pd160  1  0.00174869  0.80847646  0.60316316  1
  Pd  Pd161  1  0.19427785  0.78589697  0.18866523  1
  Pd  Pd162  1  0.59314844  0.00863456  0.00577351  1
  Pd  Pd163  1  0.80503455  0.01105893  0.58394556  1
  Pd  Pd164  1  0.80652735  -0.00071550  0.81222811  1
  Pd  Pd165  1  0.59684366  0.00141485  0.79641206  1
  Pd  Pd166  1  0.78694971  0.20766600  0.20456360  1
  Pd  Pd167  1  0.60948557  0.19293958  0.60822251  1
  Pd  Pd168  1  0.19241674  0.40431255  0.40661393  1
  Pd  Pd169  1  0.40787713  0.19823063  0.40628436  1
  Pd  Pd170  1  0.80191331  0.59775177  0.59455052  1
  Pd  Pd171  1  0.00779596  0.20347330  0.00410236  1
  Pd  Pd172  1  0.79482479  0.19902054  0.60542239  1
  Pd  Pd173  1  0.20003974  0.81269427  0.40517084  1
  Pd  Pd174  1  0.40726027  0.59988945  0.79548055  1
  Pd  Pd175  1  0.80159547  -0.00876980  -0.00564802  1
  Pd  Pd176  1  0.80624267  0.80820867  0.19208434  1
  Pd  Pd177  1  0.38985494  0.19610772  0.60496286  1
  Pd  Pd178  1  0.60448697  0.79119794  0.59851861  1
  Pd  Pd179  1  0.00381669  0.60353606  0.19551369  1
  Pd  Pd180  1  0.59935548  0.19257706  0.00037723  1
  Pd  Pd181  1  -0.00487450  -0.00607343  0.39990135  1
  Pd  Pd182  1  0.60694055  0.61215789  0.39145032  1
  Pd  Pd183  1  0.39156834  0.80360722  -0.00617809  1
  Pd  Pd184  1  0.19581888  0.59886495  0.79172689  1
  Pd  Pd185  1  0.01087112  0.59301246  0.79373338  1
  Pd  Pd186  1  -0.00234641  0.79408565  0.19922874  1
  Pd  Pd187  1  0.39634525  0.59988617  0.40148833  1
  Pd  Pd188  1  0.80270616  0.79088627  0.60251326  1
  Pd  Pd189  1  0.00175009  0.20285902  0.58988578  1
  Pd  Pd190  1  0.41130217  0.39789987  0.40946438  1
  Pd  Pd191  1  0.39261775  0.00726601  0.59604726  1
  Pd  Pd192  1  0.40778570  0.80168758  0.20590882  1
  Pd  Pd193  1  0.79632899  0.59388777  0.19872757  1
  Pd  Pd194  1  0.79487347  0.58945207  0.80502122  1
  Pd  Pd195  1  0.60599454  0.20914240  0.19638320  1
  Pd  Pd196  1  0.39430624  0.79473759  0.60084518  1
  Pd  Pd197  1  0.79702640  0.60100096  -0.00228961  1
  Pd  Pd198  1  0.20830110  0.40013368  0.20667227  1
  Pd  Pd199  1  0.19215407  0.59848719  0.60847538  1
  Rh  Rh200  1  -0.00502495  0.40215352  0.00537461  1
  Rh  Rh201  1  -0.00241592  0.59580683  0.40749769  1
  Rh  Rh202  1  -0.00201507  0.40435743  0.80352584  1
  Rh  Rh203  1  0.79290657  0.80431839  0.40474004  1
  Rh  Rh204  1  0.20277112  0.39909402  0.80393405  1
  Rh  Rh205  1  0.60135695  -0.00115626  0.40548215  1
  Rh  Rh206  1  0.39567214  0.20001160  0.19706363  1
  Rh  Rh207  1  0.59500256  0.78995641  0.21261495  1
  Rh  Rh208  1  0.80328144  0.39542014  0.00169899  1
  Rh  Rh209  1  0.19635100  0.40226616  0.59612957  1
  Rh  Rh210  1  0.79931194  0.59900684  0.40735388  1
  Rh  Rh211  1  0.21528867  0.79028426  0.80455922  1
  Rh  Rh212  1  0.38852604  0.19709719  0.78581298  1
  Rh  Rh213  1  0.20560384  0.60821297  0.00894120  1
  Rh  Rh214  1  0.40174979  0.59147666  0.59665757  1
  Rh  Rh215  1  0.00824016  0.39744896  0.58748774  1
  Rh  Rh216  1  0.40219511  0.59268349  0.00129448  1
  Rh  Rh217  1  0.00066568  0.00547082  -0.00514701  1
  Rh  Rh218  1  0.18501529  0.01419182  0.80327515  1
  Rh  Rh219  1  -0.00026331  0.59963929  -0.00102193  1
  Rh  Rh220  1  -0.01557364  0.81275833  0.78688287  1
  Rh  Rh221  1  0.61175641  0.19017828  0.79475886  1
  Rh  Rh222  1  -0.00921368  0.00351995  0.20179247  1
  Rh  Rh223  1  0.40807041  0.00027545  0.20440488  1
  Rh  Rh224  1  0.19261065  0.19771307  0.39081231  1
  Rh  Rh225  1  0.40972679  0.40470519  0.59518871  1
  Rh  Rh226  1  0.00531393  0.80099257  0.39951157  1
  Rh  Rh227  1  0.40182672  0.41020899  0.80049355  1
  Rh  Rh228  1  0.19669740  0.79800723  0.60003995  1
  Rh  Rh229  1  0.59909181  0.40163182  0.60560834  1
  Rh  Rh230  1  0.59254883  0.40351728  0.00587239  1
  Rh  Rh231  1  0.00706130  0.21489162  0.40691301  1
  Rh  Rh232  1  0.79531589  0.19969447  -0.00818380  1
  Rh  Rh233  1  0.59199565  0.39015118  0.39703697  1
  Rh  Rh234  1  -0.00248191  0.79767958  0.00259559  1
  Rh  Rh235  1  0.80827805  0.40211693  0.39544607  1
  Rh  Rh236  1  0.00252857  0.20143266  0.19307309  1
  Rh  Rh237  1  0.00367106  0.59952665  0.60317659  1
  Rh  Rh238  1  0.60219395  0.59237790  0.60196316  1
  Rh  Rh239  1  0.40285133  0.40141144  0.20369226  1
  Rh  Rh240  1  0.41027661  -0.00406261  0.79052162  1
  Rh  Rh241  1  0.39795374  0.40426471  -0.00837654  1
  Rh  Rh242  1  0.79501283  0.19045827  0.39290483  1
  Rh  Rh243  1  0.79877649  -0.00151025  0.20702736  1
  Rh  Rh244  1  0.79701655  0.39749549  0.60616966  1
  Rh  Rh245  1  0.60198595  0.79696275  -0.00181625  1
  Rh  Rh246  1  0.20737680  0.59089258  0.39162882  1
  Rh  Rh247  1  0.59311551  0.20526653  0.40175809  1
  Rh  Rh248  1  0.60010016  0.00485080  0.19523380  1
  Rh  Rh249  1  -0.01590852  0.39747611  0.20339617  1
