# generated using pymatgen
data_ZrScNbPdRh
_symmetry_space_group_name_H-M   'P 1'
_cell_length_a   16.55789018
_cell_length_b   16.55458196
_cell_length_c   16.55777587
_cell_angle_alpha   89.96378119
_cell_angle_beta   89.99669462
_cell_angle_gamma   89.97253718
_symmetry_Int_Tables_number   1
_chemical_formula_structural   ZrScNbPdRh
_chemical_formula_sum   'Zr50 Sc50 Nb50 Pd50 Rh50'
_cell_volume   4538.63312527
_cell_formula_units_Z   50
loop_
 _symmetry_equiv_pos_site_id
 _symmetry_equiv_pos_as_xyz
  1  'x, y, z'
loop_
 _atom_site_type_symbol
 _atom_site_label
 _atom_site_symmetry_multiplicity
 _atom_site_fract_x
 _atom_site_fract_y
 _atom_site_fract_z
 _atom_site_occupancy
  Zr  Zr0  1  0.89758801  0.50621965  0.30502950  1
  Zr  Zr1  1  0.30517783  0.50095774  0.89744717  1
  Zr  Zr2  1  0.10812228  0.90126582  0.89970098  1
  Zr  Zr3  1  0.50727123  0.30940505  0.29903932  1
  Zr  Zr4  1  0.67904306  0.90479989  0.49356072  1
  Zr  Zr5  1  0.69628132  0.50714818  0.90661825  1
  Zr  Zr6  1  0.28865251  0.50070007  0.09639276  1
  Zr  Zr7  1  0.10474972  0.29173464  0.70414794  1
  Zr  Zr8  1  0.70882348  0.70048209  0.90100814  1
  Zr  Zr9  1  0.90195428  0.70900988  0.09907641  1
  Zr  Zr10  1  0.90282199  0.10747622  0.30360416  1
  Zr  Zr11  1  0.30160047  0.89572991  0.69975342  1
  Zr  Zr12  1  0.29658840  0.10314831  0.29668579  1
  Zr  Zr13  1  0.89928017  0.10478599  0.10740204  1
  Zr  Zr14  1  0.69937402  0.49741571  0.29962573  1
  Zr  Zr15  1  0.29653192  0.30091692  0.49714339  1
  Zr  Zr16  1  0.70113462  0.30091548  0.90191417  1
  Zr  Zr17  1  0.69570905  0.29954740  0.50230764  1
  Zr  Zr18  1  0.90478923  0.50194194  0.69470749  1
  Zr  Zr19  1  0.09869658  0.10208667  0.29917781  1
  Zr  Zr20  1  0.30389976  0.69411298  0.49478629  1
  Zr  Zr21  1  0.91046942  0.49409537  0.49945964  1
  Zr  Zr22  1  0.49405817  0.50016948  0.90198445  1
  Zr  Zr23  1  0.87835992  0.09536374  0.89933736  1
  Zr  Zr24  1  0.49597517  0.89751253  0.50012843  1
  Zr  Zr25  1  0.10128997  0.89930800  0.30248476  1
  Zr  Zr26  1  0.69833806  0.89874780  0.09929349  1
  Zr  Zr27  1  0.09609757  0.88930926  0.50027008  1
  Zr  Zr28  1  0.10657659  0.50086843  0.69581002  1
  Zr  Zr29  1  0.89645410  0.29527106  0.50855356  1
  Zr  Zr30  1  0.70435808  0.69809178  0.70175229  1
  Zr  Zr31  1  0.10065077  0.10280667  0.70215836  1
  Zr  Zr32  1  0.89908101  0.30164320  0.09727639  1
  Zr  Zr33  1  0.69381110  0.10272545  0.09459274  1
  Zr  Zr34  1  0.30170570  0.30514412  0.69717897  1
  Zr  Zr35  1  0.30570811  0.08869212  0.90592711  1
  Zr  Zr36  1  0.49929473  0.90107606  0.69571080  1
  Zr  Zr37  1  0.50979780  0.10826462  0.70959087  1
  Zr  Zr38  1  0.09805501  0.50112744  0.29465745  1
  Zr  Zr39  1  0.49394372  0.10679659  0.09524993  1
  Zr  Zr40  1  0.90157663  0.70104478  0.70548182  1
  Zr  Zr41  1  0.09500708  0.69757432  0.70141919  1
  Zr  Zr42  1  0.10571460  0.69773245  0.89213006  1
  Zr  Zr43  1  0.10121607  0.29942824  0.30000615  1
  Zr  Zr44  1  0.49992364  0.69111538  0.91031857  1
  Zr  Zr45  1  0.50173516  0.70629285  0.49764931  1
  Zr  Zr46  1  0.90845315  0.90271723  0.49699911  1
  Zr  Zr47  1  0.70481387  0.91714303  0.90134359  1
  Zr  Zr48  1  0.10855103  0.10235597  0.89613036  1
  Zr  Zr49  1  0.90479163  0.69346488  0.49670747  1
  Sc  Sc50  1  0.50591929  0.89617862  0.30384156  1
  Sc  Sc51  1  0.09095739  0.89625998  0.10354793  1
  Sc  Sc52  1  0.49888694  0.29982819  0.09964850  1
  Sc  Sc53  1  0.09926652  0.69504226  0.29965198  1
  Sc  Sc54  1  0.69533882  0.68859685  0.29852760  1
  Sc  Sc55  1  0.30077472  0.30935401  0.29971624  1
  Sc  Sc56  1  0.30023342  0.68993055  0.90579014  1
  Sc  Sc57  1  0.89980700  0.11310654  0.69304219  1
  Sc  Sc58  1  0.70099121  0.50770729  0.49960141  1
  Sc  Sc59  1  0.70282473  0.29660628  0.69745756  1
  Sc  Sc60  1  0.90434536  0.89501817  0.70085481  1
  Sc  Sc61  1  0.89246906  0.30310235  0.90215786  1
  Sc  Sc62  1  0.89987151  0.70226876  0.89480613  1
  Sc  Sc63  1  0.30849683  0.91361517  0.09502851  1
  Sc  Sc64  1  0.50075753  0.70109604  0.69585949  1
  Sc  Sc65  1  0.30647618  0.91046194  0.30169948  1
  Sc  Sc66  1  0.10294928  0.09148915  0.10314812  1
  Sc  Sc67  1  0.89167301  0.49235312  0.90519931  1
  Sc  Sc68  1  0.69309060  0.29984484  0.10323209  1
  Sc  Sc69  1  0.90072378  0.69119185  0.29564990  1
  Sc  Sc70  1  0.29123675  0.49649398  0.49875620  1
  Sc  Sc71  1  0.10059867  0.89119706  0.69713789  1
  Sc  Sc72  1  0.50163012  0.50198554  0.29967984  1
  Sc  Sc73  1  0.29000919  0.69843897  0.70356158  1
  Sc  Sc74  1  0.70029780  0.29679830  0.29216957  1
  Sc  Sc75  1  0.50725018  0.49164435  0.49597340  1
  Sc  Sc76  1  0.30424019  0.68816132  0.30051368  1
  Sc  Sc77  1  0.10172850  0.30817605  0.50084867  1
  Sc  Sc78  1  0.70084618  0.50244404  0.10249970  1
  Sc  Sc79  1  0.70104833  0.90487373  0.70665808  1
  Sc  Sc80  1  0.70330505  0.50856118  0.69989978  1
  Sc  Sc81  1  0.91091747  0.89808005  0.29955370  1
  Sc  Sc82  1  0.30403094  0.30332942  0.89436353  1
  Sc  Sc83  1  0.50059768  0.30323408  0.69833848  1
  Sc  Sc84  1  0.09391610  0.09370003  0.49885208  1
  Sc  Sc85  1  0.89820193  0.49763318  0.10540357  1
  Sc  Sc86  1  0.29055638  0.09722224  0.49294114  1
  Sc  Sc87  1  0.29948024  0.50193055  0.30203306  1
  Sc  Sc88  1  0.10871926  0.49544330  0.90326468  1
  Sc  Sc89  1  0.49765750  0.09378220  0.29194838  1
  Sc  Sc90  1  0.49268707  0.69837250  0.10875054  1
  Sc  Sc91  1  0.89022012  0.89151729  0.89994137  1
  Sc  Sc92  1  0.90500345  0.29421625  0.29564944  1
  Sc  Sc93  1  0.09662425  0.31919642  0.09891604  1
  Sc  Sc94  1  0.29896819  0.89277736  0.50066824  1
  Sc  Sc95  1  0.09834565  0.69683398  0.10721644  1
  Sc  Sc96  1  0.49841388  0.29569294  0.90089781  1
  Sc  Sc97  1  0.49707553  0.90016610  0.10669475  1
  Sc  Sc98  1  0.49983068  0.49801662  0.09534786  1
  Sc  Sc99  1  0.29647005  0.10760447  0.70912210  1
  Nb  Nb100  1  0.51066791  0.09540801  0.50494718  1
  Nb  Nb101  1  0.30144977  0.30025589  0.09935844  1
  Nb  Nb102  1  0.09524808  0.50534836  0.49937647  1
  Nb  Nb103  1  0.89034759  0.09884862  0.49762114  1
  Nb  Nb104  1  0.30903373  0.49271945  0.70168986  1
  Nb  Nb105  1  0.09846921  0.50307382  0.09776360  1
  Nb  Nb106  1  0.70089788  0.70581433  0.49869526  1
  Nb  Nb107  1  0.50651115  0.29496823  0.49987018  1
  Nb  Nb108  1  0.90519325  0.30764651  0.69514647  1
  Nb  Nb109  1  0.30218311  0.10497727  0.10009704  1
  Nb  Nb110  1  0.49566125  0.90295014  0.90157054  1
  Nb  Nb111  1  0.10457266  0.69202711  0.50045597  1
  Nb  Nb112  1  0.49374595  0.69510442  0.30599518  1
  Nb  Nb113  1  0.49406212  0.49880849  0.70458119  1
  Nb  Nb114  1  0.50761102  0.10053780  0.89675103  1
  Nb  Nb115  1  0.69778148  0.10052871  0.50335119  1
  Nb  Nb116  1  0.30305317  0.89969966  0.90252664  1
  Nb  Nb117  1  0.89671013  0.89921162  0.09826097  1
  Nb  Nb118  1  0.69984735  0.09948731  0.29890569  1
  Nb  Nb119  1  0.68691412  0.10284956  0.88828633  1
  Nb  Nb120  1  0.09490714  0.29572911  0.90049046  1
  Nb  Nb121  1  0.69843118  0.90083754  0.29939576  1
  Nb  Nb122  1  0.70106031  0.70084778  0.09688399  1
  Nb  Nb123  1  0.29533180  0.69960938  0.10287809  1
  Nb  Nb124  1  0.69987911  0.09859178  0.70510932  1
  Nb  Nb125  1  0.40160925  0.80257695  0.80956791  1
  Nb  Nb126  1  0.40941462  0.20063157  0.40605911  1
  Nb  Nb127  1  0.20485512  0.20464439  0.19064139  1
  Nb  Nb128  1  0.79465725  0.00103267  0.39871283  1
  Nb  Nb129  1  0.20671226  0.80046131  0.00505211  1
  Nb  Nb130  1  -0.00599382  0.00239742  -0.00483905  1
  Nb  Nb131  1  0.59971288  0.80025559  -0.00291670  1
  Nb  Nb132  1  0.00431439  0.19723744  -0.00346496  1
  Nb  Nb133  1  0.79324349  0.80311920  0.39831824  1
  Nb  Nb134  1  0.59542603  0.80275566  0.81144078  1
  Nb  Nb135  1  0.59893214  0.19362288  0.40191489  1
  Nb  Nb136  1  0.40570275  0.19644417  0.59156985  1
  Nb  Nb137  1  0.59856657  0.40796816  0.80093465  1
  Nb  Nb138  1  0.79694424  -0.00289808  0.20518955  1
  Nb  Nb139  1  0.00434709  0.59675855  0.00215043  1
  Nb  Nb140  1  0.80291850  0.39815736  0.40208108  1
  Nb  Nb141  1  0.00083362  0.39295586  0.79709760  1
  Nb  Nb142  1  0.79623747  0.00283298  0.59251148  1
  Nb  Nb143  1  0.40394992  0.01015496  0.59863963  1
  Nb  Nb144  1  0.20759323  0.80005803  0.19659751  1
  Nb  Nb145  1  0.20086979  0.20257045  0.00420093  1
  Nb  Nb146  1  -0.00159792  0.00467095  0.80474592  1
  Nb  Nb147  1  0.79724235  0.80337746  0.58895771  1
  Nb  Nb148  1  0.40001123  0.59079663  0.60342133  1
  Nb  Nb149  1  0.79640614  0.80423885  0.20214677  1
  Pd  Pd150  1  0.19536765  -0.00443937  0.40523213  1
  Pd  Pd151  1  0.79583909  0.20192944  0.00321548  1
  Pd  Pd152  1  0.40277657  0.40057753  0.40437973  1
  Pd  Pd153  1  0.00533628  0.19957370  0.59190617  1
  Pd  Pd154  1  0.20777929  0.59678413  0.60077391  1
  Pd  Pd155  1  -0.01458817  0.20037472  0.80774367  1
  Pd  Pd156  1  0.60371237  0.40710761  0.60983664  1
  Pd  Pd157  1  0.80073651  0.39709323  0.20393396  1
  Pd  Pd158  1  0.39932839  0.79851485  0.00061382  1
  Pd  Pd159  1  0.59894639  0.39737834  -0.00201050  1
  Pd  Pd160  1  -0.00278383  0.78885831  0.39310250  1
  Pd  Pd161  1  0.40258421  -0.00073347  0.79491983  1
  Pd  Pd162  1  0.40379745  0.39922093  0.59097902  1
  Pd  Pd163  1  0.40389399  0.00696541  0.40617087  1
  Pd  Pd164  1  -0.00618195  0.00327756  0.60923523  1
  Pd  Pd165  1  0.19436983  0.40691871  0.39789001  1
  Pd  Pd166  1  0.80133257  0.20559086  0.79287363  1
  Pd  Pd167  1  0.60752051  0.80099157  0.61036547  1
  Pd  Pd168  1  0.80381363  0.60410737  0.59542066  1
  Pd  Pd169  1  0.39861194  0.40740537  0.19462941  1
  Pd  Pd170  1  0.79343774  0.40475430  0.59646278  1
  Pd  Pd171  1  0.39621188  0.20268314  -0.00800296  1
  Pd  Pd172  1  0.59755466  0.60121229  0.40257350  1
  Pd  Pd173  1  0.20688501  0.79389455  0.38888021  1
  Pd  Pd174  1  0.79185648  0.20400667  0.39767068  1
  Pd  Pd175  1  0.19764189  -0.00594254  0.79078929  1
  Pd  Pd176  1  0.20563441  -0.00054721  0.60120622  1
  Pd  Pd177  1  0.39322470  0.80284838  0.20797281  1
  Pd  Pd178  1  -0.00487053  0.40303755  0.20360010  1
  Pd  Pd179  1  0.59847906  0.60083374  0.79841279  1
  Pd  Pd180  1  0.59847730  0.00235329  0.19914305  1
  Pd  Pd181  1  0.39875607  0.20640016  0.20933695  1
  Pd  Pd182  1  -0.00268519  0.58434523  0.81264305  1
  Pd  Pd183  1  0.20331389  0.19560593  0.59389229  1
  Pd  Pd184  1  0.39480949  0.80072199  0.39043851  1
  Pd  Pd185  1  0.19632893  0.39881958  0.80170239  1
  Pd  Pd186  1  0.81119163  0.59945222  0.00547470  1
  Pd  Pd187  1  0.00829097  0.79901994  -0.00698227  1
  Pd  Pd188  1  0.39680183  0.61107163  0.79246788  1
  Pd  Pd189  1  0.20115665  0.79348361  0.59721453  1
  Pd  Pd190  1  0.60135917  0.78998984  0.20057898  1
  Pd  Pd191  1  0.39842187  0.59093288  0.19714554  1
  Pd  Pd192  1  0.59098429  -0.00247269  0.00181151  1
  Pd  Pd193  1  0.79756996  0.40500634  0.79477627  1
  Pd  Pd194  1  0.59607510  0.59944751  0.19573805  1
  Pd  Pd195  1  0.59212732  0.59758717  0.59721617  1
  Pd  Pd196  1  0.00423400  0.20396332  0.41086327  1
  Pd  Pd197  1  0.20307145  0.39332994  -0.00467647  1
  Pd  Pd198  1  -0.00563951  -0.00242817  0.19798586  1
  Pd  Pd199  1  0.20337445  -0.00429646  0.19504937  1
  Rh  Rh200  1  0.00222448  0.60393102  0.59824286  1
  Rh  Rh201  1  -0.00111194  0.00550747  0.39771605  1
  Rh  Rh202  1  0.80633662  0.59526422  0.80274245  1
  Rh  Rh203  1  0.19490120  0.59661437  0.39825406  1
  Rh  Rh204  1  0.59553483  0.19815856  0.20417493  1
  Rh  Rh205  1  0.60267689  0.21415192  0.80129906  1
  Rh  Rh206  1  0.19663620  -0.00313945  0.00728964  1
  Rh  Rh207  1  0.20913335  0.80078661  0.80887253  1
  Rh  Rh208  1  0.79265731  0.19647747  0.19641574  1
  Rh  Rh209  1  -0.00171320  0.40321679  -0.00866805  1
  Rh  Rh210  1  0.79713633  0.59844341  0.40304673  1
  Rh  Rh211  1  0.00791972  0.60099769  0.39948627  1
  Rh  Rh212  1  0.19770873  0.40323160  0.59980529  1
  Rh  Rh213  1  0.39970011  0.19960125  0.79768967  1
  Rh  Rh214  1  0.59859839  0.40453132  0.19654028  1
  Rh  Rh215  1  0.39601192  0.59558713  0.01172824  1
  Rh  Rh216  1  0.60177946  0.00334994  0.61237462  1
  Rh  Rh217  1  0.40659064  0.59358995  0.40943162  1
  Rh  Rh218  1  0.59810501  0.00896003  0.39054058  1
  Rh  Rh219  1  0.19929168  0.60161537  0.20129045  1
  Rh  Rh220  1  0.59539561  -0.00551158  0.79917672  1
  Rh  Rh221  1  0.79338912  0.80287232  0.79342846  1
  Rh  Rh222  1  0.20603851  0.59205984  0.79689305  1
  Rh  Rh223  1  0.79354963  0.39987231  0.00987151  1
  Rh  Rh224  1  0.00130734  0.80945735  0.80344714  1
  Rh  Rh225  1  0.21168002  0.20336097  0.80990091  1
  Rh  Rh226  1  0.79301220  0.79989377  0.00332485  1
  Rh  Rh227  1  0.40844716  0.00431319  0.00143159  1
  Rh  Rh228  1  0.39246113  0.79013430  0.60757029  1
  Rh  Rh229  1  0.79426301  0.19588515  0.60581489  1
  Rh  Rh230  1  -0.00246564  0.78962797  0.59907867  1
  Rh  Rh231  1  0.61118752  0.39447194  0.39659944  1
  Rh  Rh232  1  0.80400269  0.00331589  0.01145235  1
  Rh  Rh233  1  -0.00524740  0.39507421  0.39712633  1
  Rh  Rh234  1  0.79941169  0.60983408  0.19427616  1
  Rh  Rh235  1  0.20149917  0.39977392  0.20008907  1
  Rh  Rh236  1  0.20267045  0.20207810  0.39186585  1
  Rh  Rh237  1  0.59845075  0.20152965  -0.00443804  1
  Rh  Rh238  1  0.01120728  0.39601232  0.60658600  1
  Rh  Rh239  1  0.00063316  0.79912342  0.20517928  1
  Rh  Rh240  1  0.40954213  0.39364880  0.80156558  1
  Rh  Rh241  1  0.39739165  0.39872590  0.00153083  1
  Rh  Rh242  1  0.59904719  0.60651646  0.01091717  1
  Rh  Rh243  1  0.81014746  0.00189101  0.78276608  1
  Rh  Rh244  1  0.19263579  0.60822850  0.00309911  1
  Rh  Rh245  1  0.40311935  0.00056139  0.19770606  1
  Rh  Rh246  1  -0.00179940  0.59692374  0.19196431  1
  Rh  Rh247  1  0.60202870  0.19858435  0.60169481  1
  Rh  Rh248  1  0.01767257  0.20723913  0.18640515  1
  Rh  Rh249  1  0.60079848  0.78805274  0.38727381  1
