# generated using pymatgen
data_ZrScNbPdRh
_symmetry_space_group_name_H-M   'P 1'
_cell_length_a   16.55195557
_cell_length_b   16.55601333
_cell_length_c   16.55290065
_cell_angle_alpha   89.98976396
_cell_angle_beta   90.01252915
_cell_angle_gamma   90.02606480
_symmetry_Int_Tables_number   1
_chemical_formula_structural   ZrScNbPdRh
_chemical_formula_sum   'Zr50 Sc50 Nb50 Pd50 Rh50'
_cell_volume   4536.06350124
_cell_formula_units_Z   50
loop_
 _symmetry_equiv_pos_site_id
 _symmetry_equiv_pos_as_xyz
  1  'x, y, z'
loop_
 _atom_site_type_symbol
 _atom_site_label
 _atom_site_symmetry_multiplicity
 _atom_site_fract_x
 _atom_site_fract_y
 _atom_site_fract_z
 _atom_site_occupancy
  Zr  Zr0  1  0.70981242  0.90861582  0.70718959  1
  Zr  Zr1  1  0.49605636  0.70804242  0.89696762  1
  Zr  Zr2  1  0.70508435  0.10099961  0.49756336  1
  Zr  Zr3  1  0.71025644  0.69184282  0.49623889  1
  Zr  Zr4  1  0.10258549  0.70431685  0.50354597  1
  Zr  Zr5  1  0.09904219  0.49366304  0.70023867  1
  Zr  Zr6  1  0.69811914  0.49443043  0.09948541  1
  Zr  Zr7  1  0.10028770  0.50123462  0.50207051  1
  Zr  Zr8  1  0.08926014  0.29619587  0.69640604  1
  Zr  Zr9  1  0.70311090  0.29407880  0.10187706  1
  Zr  Zr10  1  0.69971165  0.48966854  0.30251445  1
  Zr  Zr11  1  0.89265751  0.70088755  0.30074073  1
  Zr  Zr12  1  0.69450741  0.09594287  0.69992072  1
  Zr  Zr13  1  0.89792754  0.90714988  0.10856034  1
  Zr  Zr14  1  0.50684378  0.89762477  0.90496612  1
  Zr  Zr15  1  0.29928496  0.89646665  0.10254458  1
  Zr  Zr16  1  0.69484142  0.90033896  0.09394140  1
  Zr  Zr17  1  0.09887032  0.30049277  0.10060585  1
  Zr  Zr18  1  0.50338927  0.08869215  0.09841861  1
  Zr  Zr19  1  0.29508481  0.70574137  0.49400018  1
  Zr  Zr20  1  0.90098351  0.09783699  0.30132761  1
  Zr  Zr21  1  0.50336037  0.30906716  0.89011525  1
  Zr  Zr22  1  0.50123786  0.50085803  0.90269804  1
  Zr  Zr23  1  0.11209374  0.70016217  0.11028181  1
  Zr  Zr24  1  0.70234511  0.30041080  0.90449720  1
  Zr  Zr25  1  0.89220665  0.69853392  0.10341805  1
  Zr  Zr26  1  0.89201176  0.89257799  0.89515779  1
  Zr  Zr27  1  0.29931904  0.29588726  0.50149996  1
  Zr  Zr28  1  0.30325535  0.70239684  0.90296436  1
  Zr  Zr29  1  0.11207793  0.90055464  0.50617839  1
  Zr  Zr30  1  0.49339165  0.50762480  0.69842955  1
  Zr  Zr31  1  0.29644690  0.09397147  0.50904114  1
  Zr  Zr32  1  0.90823490  0.10140978  0.49283310  1
  Zr  Zr33  1  0.90138918  0.49844011  0.28606970  1
  Zr  Zr34  1  0.70608887  0.10210630  0.29833831  1
  Zr  Zr35  1  0.30889227  0.29892841  0.29510481  1
  Zr  Zr36  1  0.50200874  0.69521370  0.09298464  1
  Zr  Zr37  1  0.89576327  0.90883349  0.30582787  1
  Zr  Zr38  1  0.49343852  0.29889322  0.69892550  1
  Zr  Zr39  1  0.69867873  0.90444275  0.30108789  1
  Zr  Zr40  1  0.10987745  0.90075756  0.89787145  1
  Zr  Zr41  1  0.09328827  0.10441084  0.10624978  1
  Zr  Zr42  1  0.29771173  0.50007003  0.89803398  1
  Zr  Zr43  1  0.30804094  0.89720415  0.89954099  1
  Zr  Zr44  1  0.31007987  0.69497166  0.70126641  1
  Zr  Zr45  1  0.50582997  0.89864761  0.70279894  1
  Zr  Zr46  1  0.68887178  0.30419437  0.70206213  1
  Zr  Zr47  1  0.29491561  0.08759129  0.89196057  1
  Zr  Zr48  1  0.49180372  0.10230202  0.70155105  1
  Zr  Zr49  1  0.50281571  0.90159259  0.30086759  1
  Sc  Sc50  1  0.09855325  0.89708893  0.69475116  1
  Sc  Sc51  1  0.89729955  0.29916133  0.89982030  1
  Sc  Sc52  1  0.31201004  0.09865223  0.09771253  1
  Sc  Sc53  1  0.50060443  0.28614936  0.10498098  1
  Sc  Sc54  1  0.89679773  0.70556379  0.89375524  1
  Sc  Sc55  1  0.90022161  0.70418594  0.69299683  1
  Sc  Sc56  1  0.69871252  0.70309986  0.68416011  1
  Sc  Sc57  1  0.10290662  0.10152962  0.69853785  1
  Sc  Sc58  1  0.89621121  0.49507918  0.70010031  1
  Sc  Sc59  1  0.50568381  0.09359000  0.29436806  1
  Sc  Sc60  1  0.50932621  0.69294007  0.50357743  1
  Sc  Sc61  1  0.29184741  0.29263535  0.70022659  1
  Sc  Sc62  1  0.89462486  0.11141931  0.10664305  1
  Sc  Sc63  1  0.49340608  0.09743528  0.90330350  1
  Sc  Sc64  1  0.89098192  0.50189837  0.50368528  1
  Sc  Sc65  1  0.88558021  0.49361817  0.89232283  1
  Sc  Sc66  1  0.90451447  0.90578273  0.50701979  1
  Sc  Sc67  1  0.09983967  0.28994753  0.29305630  1
  Sc  Sc68  1  0.10776820  0.70085471  0.89901046  1
  Sc  Sc69  1  0.50343172  0.50546360  0.49755368  1
  Sc  Sc70  1  0.28914384  0.69850967  0.29992034  1
  Sc  Sc71  1  0.90409909  0.29779281  0.49741876  1
  Sc  Sc72  1  0.09989663  0.29022304  0.50534904  1
  Sc  Sc73  1  0.69445155  0.70196973  0.10788428  1
  Sc  Sc74  1  0.29526113  0.10360642  0.29729347  1
  Sc  Sc75  1  0.29459735  0.90707938  0.70178878  1
  Sc  Sc76  1  0.09113156  0.29491973  0.89536964  1
  Sc  Sc77  1  0.90415180  0.11321309  0.90310578  1
  Sc  Sc78  1  0.30737838  0.89531277  0.30731082  1
  Sc  Sc79  1  0.11256836  0.49669661  0.90395442  1
  Sc  Sc80  1  0.10772926  0.50379566  0.09955710  1
  Sc  Sc81  1  0.10438663  0.50983764  0.28871886  1
  Sc  Sc82  1  0.69673916  0.10600861  0.09971329  1
  Sc  Sc83  1  0.70130917  0.70319938  0.30322721  1
  Sc  Sc84  1  0.09372306  0.10185476  0.30636414  1
  Sc  Sc85  1  0.10125080  0.90630632  0.30420010  1
  Sc  Sc86  1  0.70694089  0.50230218  0.69519635  1
  Sc  Sc87  1  0.89875531  0.29718819  0.29465967  1
  Sc  Sc88  1  0.69773396  0.89654473  0.49778680  1
  Sc  Sc89  1  0.30438440  0.69645088  0.10064207  1
  Sc  Sc90  1  0.29578382  0.30442755  0.89825415  1
  Sc  Sc91  1  0.09438950  0.70862284  0.69814023  1
  Sc  Sc92  1  0.49908486  0.89943370  0.10442793  1
  Sc  Sc93  1  0.69662580  0.48921608  0.89572837  1
  Sc  Sc94  1  0.90270019  0.09249594  0.69256908  1
  Sc  Sc95  1  0.70242864  0.71458150  0.90806441  1
  Sc  Sc96  1  0.49419644  0.49549177  0.29538776  1
  Sc  Sc97  1  0.30675152  0.51034159  0.49136320  1
  Sc  Sc98  1  0.50609411  0.70165368  0.29325558  1
  Sc  Sc99  1  0.49589083  0.09367782  0.51193948  1
  Nb  Nb100  1  0.10222482  0.70316643  0.30592971  1
  Nb  Nb101  1  0.89943518  0.49908668  0.10179289  1
  Nb  Nb102  1  0.29837437  0.29590944  0.09926214  1
  Nb  Nb103  1  0.70055655  0.49695382  0.50325163  1
  Nb  Nb104  1  0.30196201  0.49793632  0.09796590  1
  Nb  Nb105  1  0.30605022  0.89912373  0.50383687  1
  Nb  Nb106  1  0.30277816  0.09832471  0.70054353  1
  Nb  Nb107  1  0.90184459  0.70117653  0.49647811  1
  Nb  Nb108  1  0.09888915  0.90077085  0.10253648  1
  Nb  Nb109  1  0.89980755  0.29341526  0.70414635  1
  Nb  Nb110  1  0.48510782  0.90070104  0.49727562  1
  Nb  Nb111  1  0.30020372  0.49708650  0.29798496  1
  Nb  Nb112  1  0.30045619  0.49822612  0.69853903  1
  Nb  Nb113  1  0.49853331  0.30008132  0.50399911  1
  Nb  Nb114  1  0.70663677  0.09563863  0.89889064  1
  Nb  Nb115  1  0.69511629  0.31047757  0.49987589  1
  Nb  Nb116  1  0.68911063  0.29942196  0.30010030  1
  Nb  Nb117  1  0.09592535  0.09653729  0.50283086  1
  Nb  Nb118  1  0.50332134  0.29833539  0.30524301  1
  Nb  Nb119  1  0.90097732  0.30401276  0.09678672  1
  Nb  Nb120  1  0.90779904  0.89954713  0.70689589  1
  Nb  Nb121  1  0.50172158  0.69965061  0.69733502  1
  Nb  Nb122  1  0.49342421  0.50910085  0.09392142  1
  Nb  Nb123  1  0.09623293  0.09952531  0.90325187  1
  Nb  Nb124  1  0.70356067  0.90694357  0.90002195  1
  Nb  Nb125  1  0.39783773  0.40062199  0.00824437  1
  Nb  Nb126  1  0.20034988  0.40066339  0.39257648  1
  Nb  Nb127  1  0.00660396  0.40637160  0.39525267  1
  Nb  Nb128  1  0.59753246  0.60762970  0.79613928  1
  Nb  Nb129  1  0.40846612  0.20286408  0.40283229  1
  Nb  Nb130  1  0.80191684  0.00130491  -0.00519848  1
  Nb  Nb131  1  0.00018006  -0.00253018  0.80638980  1
  Nb  Nb132  1  -0.00066544  0.60287537  0.39861728  1
  Nb  Nb133  1  -0.00081368  -0.00260582  -0.00087109  1
  Nb  Nb134  1  -0.00574388  0.59942109  -0.00138569  1
  Nb  Nb135  1  0.00213742  0.80099062  0.00689079  1
  Nb  Nb136  1  -0.00032801  0.79578024  0.39998424  1
  Nb  Nb137  1  0.59825589  0.20904214  0.40396620  1
  Nb  Nb138  1  -0.00055582  0.59791154  0.80508580  1
  Nb  Nb139  1  0.20300244  0.59798270  0.60323244  1
  Nb  Nb140  1  0.40335147  0.80209968  0.59809856  1
  Nb  Nb141  1  0.80275795  0.59606495  0.00356069  1
  Nb  Nb142  1  0.79552932  0.20525511  0.60151527  1
  Nb  Nb143  1  0.19877725  0.19598036  -0.00022271  1
  Nb  Nb144  1  0.21122251  0.39845609  0.19895082  1
  Nb  Nb145  1  0.19825527  -0.00157210  0.19564937  1
  Nb  Nb146  1  0.00338007  0.80005241  0.20380245  1
  Nb  Nb147  1  0.39716040  0.40129301  0.60020620  1
  Nb  Nb148  1  0.79615759  0.19759576  0.79252835  1
  Nb  Nb149  1  -0.00645293  0.40637375  0.00553185  1
  Pd  Pd150  1  0.61281960  0.60312221  -0.01071213  1
  Pd  Pd151  1  0.19617442  0.19838905  0.80361052  1
  Pd  Pd152  1  0.39332873  0.20241333  0.80799351  1
  Pd  Pd153  1  0.61143293  0.79501171  0.79687609  1
  Pd  Pd154  1  0.00256007  0.60716306  0.19831457  1
  Pd  Pd155  1  0.58857097  0.40023300  0.19151658  1
  Pd  Pd156  1  0.79803580  0.39199928  0.20061187  1
  Pd  Pd157  1  0.59705664  0.19660386  -0.00724890  1
  Pd  Pd158  1  0.80464406  0.39275890  0.60177827  1
  Pd  Pd159  1  0.79473184  0.21321425  0.40353382  1
  Pd  Pd160  1  0.40633851  0.19073656  0.20515319  1
  Pd  Pd161  1  0.60240331  0.59441392  0.20672570  1
  Pd  Pd162  1  0.59368934  0.40265288  0.40349666  1
  Pd  Pd163  1  0.19818324  0.39155907  0.79701081  1
  Pd  Pd164  1  0.39770316  0.39786717  0.40728023  1
  Pd  Pd165  1  0.58828167  0.39320451  0.01205788  1
  Pd  Pd166  1  0.40785975  0.78818658  0.40146018  1
  Pd  Pd167  1  -0.00036890  0.60003395  0.60490383  1
  Pd  Pd168  1  0.20807280  0.40469795  0.59179561  1
  Pd  Pd169  1  -0.00160365  0.40628836  0.81042555  1
  Pd  Pd170  1  -0.00822857  0.39803043  0.59298672  1
  Pd  Pd171  1  0.59919973  -0.00739609  0.59417260  1
  Pd  Pd172  1  0.79638451  0.80510775  0.20201660  1
  Pd  Pd173  1  0.40375393  0.59889296  0.80685248  1
  Pd  Pd174  1  0.59602293  0.00706411  0.40678036  1
  Pd  Pd175  1  0.39393916  0.20618303  -0.01035898  1
  Pd  Pd176  1  0.20053879  0.20211337  0.40095522  1
  Pd  Pd177  1  0.59250082  0.00594139  0.80685198  1
  Pd  Pd178  1  0.39745384  0.01210852  0.39419431  1
  Pd  Pd179  1  0.79245538  0.79080891  0.78920184  1
  Pd  Pd180  1  0.59603814  0.80560770  0.59169020  1
  Pd  Pd181  1  0.80312123  0.59025315  0.39565749  1
  Pd  Pd182  1  0.80867106  0.39571589  0.39793496  1
  Pd  Pd183  1  0.60047859  0.59561834  0.39282346  1
  Pd  Pd184  1  0.19927513  0.79629931  0.00211302  1
  Pd  Pd185  1  0.80620592  0.80708189  0.59748376  1
  Pd  Pd186  1  0.60174688  0.19166714  0.80874216  1
  Pd  Pd187  1  0.80320433  0.00118837  0.59634751  1
  Pd  Pd188  1  0.79575642  0.60875164  0.80377223  1
  Pd  Pd189  1  0.60294009  0.19904851  0.59318180  1
  Pd  Pd190  1  0.39567342  0.60487053  0.20566362  1
  Pd  Pd191  1  0.40548542  0.39823842  0.19059938  1
  Pd  Pd192  1  0.40063187  0.79429991  0.20108638  1
  Pd  Pd193  1  0.19759441  0.00781998  0.00967300  1
  Pd  Pd194  1  0.59746766  0.79662336  0.40513823  1
  Pd  Pd195  1  0.19209274  0.60397550  0.79195141  1
  Pd  Pd196  1  0.40638832  0.60832204  0.39187030  1
  Pd  Pd197  1  0.20369619  0.79941744  0.79187546  1
  Pd  Pd198  1  0.20484202  -0.00044913  0.39454238  1
  Pd  Pd199  1  0.59139587  0.40968235  0.60251416  1
  Rh  Rh200  1  0.00562327  -0.00000328  0.19960628  1
  Rh  Rh201  1  0.21439595  0.79372935  0.60673181  1
  Rh  Rh202  1  0.79888147  -0.00443670  0.40734247  1
  Rh  Rh203  1  0.39334816  0.39851729  0.79602661  1
  Rh  Rh204  1  0.19747336  0.81056087  0.39682597  1
  Rh  Rh205  1  0.39427715  0.60279445  0.59374344  1
  Rh  Rh206  1  0.00894264  0.39768956  0.19773828  1
  Rh  Rh207  1  0.78623880  0.59442314  0.19789215  1
  Rh  Rh208  1  -0.00660433  0.19057842  0.79299674  1
  Rh  Rh209  1  0.19894979  0.19207611  0.60270326  1
  Rh  Rh210  1  0.79902222  0.19790179  -0.00421732  1
  Rh  Rh211  1  0.19147822  0.00269141  0.79226345  1
  Rh  Rh212  1  0.80521990  0.80705055  0.40633385  1
  Rh  Rh213  1  0.40302401  0.80222960  0.00796784  1
  Rh  Rh214  1  -0.00498549  0.80514196  0.59264481  1
  Rh  Rh215  1  0.19362706  0.59066294  0.40142259  1
  Rh  Rh216  1  0.40209831  -0.00743572  -0.00017059  1
  Rh  Rh217  1  0.39352252  0.59564985  -0.00533145  1
  Rh  Rh218  1  0.79072225  0.00734922  0.19151564  1
  Rh  Rh219  1  0.00479810  0.20643894  0.39950458  1
  Rh  Rh220  1  0.19990310  0.39043255  0.00642722  1
  Rh  Rh221  1  0.20226061  0.60431804  0.00256265  1
  Rh  Rh222  1  -0.00912216  0.20114000  0.20377062  1
  Rh  Rh223  1  0.60767235  0.59472760  0.60296741  1
  Rh  Rh224  1  0.60547229  -0.00223075  0.19862405  1
  Rh  Rh225  1  0.80257758  0.60003979  0.59870714  1
  Rh  Rh226  1  0.59903335  0.80053208  0.00317824  1
  Rh  Rh227  1  0.00641743  -0.00106598  0.60486875  1
  Rh  Rh228  1  0.19744948  0.81027754  0.20947884  1
  Rh  Rh229  1  0.39962508  -0.00826732  0.60992550  1
  Rh  Rh230  1  0.19951198  0.00391868  0.60520061  1
  Rh  Rh231  1  0.80376024  0.40316043  0.00342265  1
  Rh  Rh232  1  0.00568098  -0.00637779  0.40759936  1
  Rh  Rh233  1  0.59951470  0.80338346  0.20150132  1
  Rh  Rh234  1  0.60659850  0.00396031  -0.00371822  1
  Rh  Rh235  1  0.59864749  0.19687619  0.20737016  1
  Rh  Rh236  1  0.20370033  0.19422106  0.19049177  1
  Rh  Rh237  1  -0.00490338  0.19547447  0.59983283  1
  Rh  Rh238  1  0.21089359  0.59420626  0.19954138  1
  Rh  Rh239  1  0.39465265  0.20336162  0.59768578  1
  Rh  Rh240  1  0.81291543  0.00961555  0.80565320  1
  Rh  Rh241  1  0.00327122  0.20576841  0.00371163  1
  Rh  Rh242  1  0.39916514  0.80593711  0.78999747  1
  Rh  Rh243  1  0.80136650  0.80223186  0.00743228  1
  Rh  Rh244  1  0.00371441  0.79967954  0.80610845  1
  Rh  Rh245  1  0.39260686  -0.00232655  0.20459006  1
  Rh  Rh246  1  0.79699549  0.38772726  0.79377004  1
  Rh  Rh247  1  0.59925365  0.41501599  0.78824672  1
  Rh  Rh248  1  0.40372939  -0.00450365  0.79708090  1
  Rh  Rh249  1  0.79948449  0.20548088  0.20250642  1
