# generated using pymatgen
data_ZrScNbPdRh
_symmetry_space_group_name_H-M   'P 1'
_cell_length_a   16.55653388
_cell_length_b   16.55649138
_cell_length_c   16.55675908
_cell_angle_alpha   89.99644391
_cell_angle_beta   89.98968963
_cell_angle_gamma   90.00424964
_symmetry_Int_Tables_number   1
_chemical_formula_structural   ZrScNbPdRh
_chemical_formula_sum   'Zr50 Sc50 Nb50 Pd50 Rh50'
_cell_volume   4538.50741929
_cell_formula_units_Z   50
loop_
 _symmetry_equiv_pos_site_id
 _symmetry_equiv_pos_as_xyz
  1  'x, y, z'
loop_
 _atom_site_type_symbol
 _atom_site_label
 _atom_site_symmetry_multiplicity
 _atom_site_fract_x
 _atom_site_fract_y
 _atom_site_fract_z
 _atom_site_occupancy
  Zr  Zr0  1  0.90580387  0.49656471  0.09309378  1
  Zr  Zr1  1  0.10221336  0.50409666  0.30369040  1
  Zr  Zr2  1  0.10192881  0.69511132  0.10673141  1
  Zr  Zr3  1  0.09873698  0.28922196  0.70178911  1
  Zr  Zr4  1  0.90730441  0.69987381  0.30170613  1
  Zr  Zr5  1  0.69302240  0.49478795  0.89802572  1
  Zr  Zr6  1  0.69211450  0.70125089  0.08993127  1
  Zr  Zr7  1  0.09315599  0.89978406  0.09827217  1
  Zr  Zr8  1  0.30812549  0.09750184  0.70164333  1
  Zr  Zr9  1  0.10344819  0.29950123  0.10200833  1
  Zr  Zr10  1  0.49671898  0.69741066  0.08733243  1
  Zr  Zr11  1  0.69854790  0.90383982  0.30081778  1
  Zr  Zr12  1  0.29665107  0.30582194  0.29625760  1
  Zr  Zr13  1  0.49980410  0.50617100  0.49934241  1
  Zr  Zr14  1  0.31203831  0.49617636  0.29677438  1
  Zr  Zr15  1  0.90041170  0.09249100  0.69919005  1
  Zr  Zr16  1  0.10601860  0.71278632  0.69732823  1
  Zr  Zr17  1  0.10278188  0.69760020  0.50107015  1
  Zr  Zr18  1  0.89560404  0.70270957  0.50669040  1
  Zr  Zr19  1  0.09763994  0.10150459  0.90045961  1
  Zr  Zr20  1  0.09485712  0.10429014  0.29229653  1
  Zr  Zr21  1  0.29517135  0.69414257  0.29585711  1
  Zr  Zr22  1  0.09616575  0.90069736  0.90245523  1
  Zr  Zr23  1  0.90084997  0.09793772  0.10634514  1
  Zr  Zr24  1  0.49656959  0.68509381  0.29679286  1
  Zr  Zr25  1  0.30038839  0.30894567  0.90559660  1
  Zr  Zr26  1  0.89552119  0.90537265  0.29579120  1
  Zr  Zr27  1  0.90323152  0.29922868  0.69708466  1
  Zr  Zr28  1  0.90657658  0.50488767  0.89341513  1
  Zr  Zr29  1  0.70393138  0.30247298  0.30937898  1
  Zr  Zr30  1  0.69724634  0.49993211  0.09097612  1
  Zr  Zr31  1  0.89810906  0.30021637  0.90849660  1
  Zr  Zr32  1  0.10440224  0.09436982  0.50284451  1
  Zr  Zr33  1  0.10591890  0.49566139  0.91404509  1
  Zr  Zr34  1  0.29930825  0.09879331  0.50259296  1
  Zr  Zr35  1  0.89382426  0.09662738  0.50428261  1
  Zr  Zr36  1  0.10124654  0.29925644  0.30047388  1
  Zr  Zr37  1  0.10160426  0.50068987  0.49832741  1
  Zr  Zr38  1  0.50796837  0.89939699  0.50889318  1
  Zr  Zr39  1  0.50968455  0.09456001  0.69644311  1
  Zr  Zr40  1  0.70775295  0.50407840  0.49163036  1
  Zr  Zr41  1  0.29821891  0.69718252  0.50900919  1
  Zr  Zr42  1  0.89465659  0.09360929  0.90472998  1
  Zr  Zr43  1  0.10253976  0.29684620  0.49559190  1
  Zr  Zr44  1  0.09773337  0.89714781  0.29938835  1
  Zr  Zr45  1  0.29484926  0.10023448  0.90016605  1
  Zr  Zr46  1  0.09825285  0.70422601  0.90252413  1
  Zr  Zr47  1  0.69839371  0.29385286  0.69661278  1
  Zr  Zr48  1  0.89735326  0.89825929  0.50771109  1
  Zr  Zr49  1  0.90664172  0.70320402  0.09889442  1
  Sc  Sc50  1  0.30688939  0.89552703  0.69776911  1
  Sc  Sc51  1  0.50214661  0.89251870  0.88760406  1
  Sc  Sc52  1  0.50754627  0.29469328  0.50078647  1
  Sc  Sc53  1  0.29876549  0.09568331  0.30062930  1
  Sc  Sc54  1  0.69983432  0.89815035  0.50014944  1
  Sc  Sc55  1  0.30225902  0.90818642  0.30389185  1
  Sc  Sc56  1  0.70441303  0.89908123  0.89351784  1
  Sc  Sc57  1  0.70484565  0.29146938  0.49751774  1
  Sc  Sc58  1  0.30741903  0.49151746  0.69785621  1
  Sc  Sc59  1  0.69864259  0.69350481  0.31095747  1
  Sc  Sc60  1  0.09568207  0.09865258  0.09077575  1
  Sc  Sc61  1  0.09646245  0.69647227  0.29574908  1
  Sc  Sc62  1  0.50403594  0.91429550  0.30355867  1
  Sc  Sc63  1  0.50163335  0.10675612  0.11167446  1
  Sc  Sc64  1  0.30063136  0.50098967  0.49751330  1
  Sc  Sc65  1  0.29685595  0.10851868  0.09748304  1
  Sc  Sc66  1  0.69621582  0.10109286  0.51007295  1
  Sc  Sc67  1  0.30193726  0.70623259  0.69704081  1
  Sc  Sc68  1  0.09844713  0.89856336  0.50975770  1
  Sc  Sc69  1  0.69881305  0.90220323  0.09397840  1
  Sc  Sc70  1  0.70181975  0.10765356  0.09883146  1
  Sc  Sc71  1  0.49677253  0.29917064  0.10139755  1
  Sc  Sc72  1  0.69738236  0.09980550  0.30034206  1
  Sc  Sc73  1  0.89779005  0.50268993  0.31158463  1
  Sc  Sc74  1  0.49855755  0.30148887  0.29776761  1
  Sc  Sc75  1  0.49998420  0.49832250  0.90436533  1
  Sc  Sc76  1  0.49482470  0.30015577  0.70102279  1
  Sc  Sc77  1  0.90236585  0.50369036  0.49816233  1
  Sc  Sc78  1  0.69827387  0.89676760  0.70334629  1
  Sc  Sc79  1  0.30332803  0.29593976  0.70390848  1
  Sc  Sc80  1  0.29652572  0.50170553  0.09195748  1
  Sc  Sc81  1  0.89808406  0.90558610  0.09404149  1
  Sc  Sc82  1  0.50765668  0.09519185  0.50383044  1
  Sc  Sc83  1  0.30099113  0.90641730  0.09864049  1
  Sc  Sc84  1  0.89989508  0.29784708  0.49474796  1
  Sc  Sc85  1  0.30225964  0.90742934  0.50314557  1
  Sc  Sc86  1  0.70224580  0.69632870  0.69657642  1
  Sc  Sc87  1  0.89411527  0.29033534  0.09352460  1
  Sc  Sc88  1  0.50182120  0.30647101  0.90230926  1
  Sc  Sc89  1  0.50237276  0.90275169  0.09896583  1
  Sc  Sc90  1  0.10264871  0.29834424  0.89895680  1
  Sc  Sc91  1  0.49759935  0.50780126  0.09866463  1
  Sc  Sc92  1  0.69163156  0.71006719  0.89359444  1
  Sc  Sc93  1  0.69633409  0.70237438  0.50801824  1
  Sc  Sc94  1  0.30573413  0.70455344  0.90812206  1
  Sc  Sc95  1  0.50596769  0.70624075  0.69440278  1
  Sc  Sc96  1  0.30547720  0.90037560  0.89458341  1
  Sc  Sc97  1  0.09201895  0.48992602  0.70880798  1
  Sc  Sc98  1  0.50323175  0.49917122  0.70423193  1
  Sc  Sc99  1  0.50004040  0.10259474  0.88206286  1
  Nb  Nb100  1  0.90204408  0.89221171  0.70355914  1
  Nb  Nb101  1  0.29812429  0.50268826  0.89900712  1
  Nb  Nb102  1  0.09424310  0.50085593  0.09905564  1
  Nb  Nb103  1  0.50310893  0.10484471  0.30589096  1
  Nb  Nb104  1  0.70132289  0.50291628  0.69594636  1
  Nb  Nb105  1  0.30269670  0.70053104  0.10042008  1
  Nb  Nb106  1  0.70058570  0.09916336  0.70825423  1
  Nb  Nb107  1  0.89347482  0.50460984  0.70307295  1
  Nb  Nb108  1  0.90095542  0.10159329  0.29325273  1
  Nb  Nb109  1  0.90150952  0.29240623  0.29448410  1
  Nb  Nb110  1  0.70209103  0.49778112  0.30063784  1
  Nb  Nb111  1  0.49770752  0.90181444  0.70098662  1
  Nb  Nb112  1  0.89827927  0.70847941  0.89176408  1
  Nb  Nb113  1  0.69622218  0.09887912  0.89107497  1
  Nb  Nb114  1  0.49822584  0.70400978  0.50223227  1
  Nb  Nb115  1  0.69992982  0.30721702  0.08732029  1
  Nb  Nb116  1  0.29783465  0.29930468  0.49717487  1
  Nb  Nb117  1  0.09959738  0.09641485  0.70055706  1
  Nb  Nb118  1  0.30236423  0.30283811  0.10722453  1
  Nb  Nb119  1  0.89689105  0.69725153  0.70436999  1
  Nb  Nb120  1  0.49739029  0.70265972  0.89911148  1
  Nb  Nb121  1  0.09378022  0.90249959  0.70067160  1
  Nb  Nb122  1  0.70192122  0.29860063  0.91099453  1
  Nb  Nb123  1  0.50406013  0.49699318  0.29708290  1
  Nb  Nb124  1  0.89835438  0.89146249  0.89274206  1
  Nb  Nb125  1  0.20536894  0.79764403  0.40164019  1
  Nb  Nb126  1  0.80298232  0.60511745  -0.00597528  1
  Nb  Nb127  1  0.40331681  0.79679932  0.20332734  1
  Nb  Nb128  1  0.39861120  0.19830662  0.40076250  1
  Nb  Nb129  1  0.20520904  0.59805530  0.80561394  1
  Nb  Nb130  1  0.40722179  0.00677715  -0.00494534  1
  Nb  Nb131  1  0.39791097  0.60275690  0.80600210  1
  Nb  Nb132  1  0.60974648  0.40564120  0.59873107  1
  Nb  Nb133  1  0.19261947  -0.00007607  0.79427543  1
  Nb  Nb134  1  0.79965636  0.40534762  0.60514093  1
  Nb  Nb135  1  -0.00450746  0.60273493  0.61044330  1
  Nb  Nb136  1  0.79378201  0.79427309  0.19954653  1
  Nb  Nb137  1  -0.00426005  0.39728071  0.20169139  1
  Nb  Nb138  1  0.79480318  0.19936883  0.80422774  1
  Nb  Nb139  1  0.40176757  0.79527612  0.40023963  1
  Nb  Nb140  1  0.79907212  0.40090668  0.20079177  1
  Nb  Nb141  1  0.20044842  0.79869329  0.00716096  1
  Nb  Nb142  1  0.59704085  0.00680404  -0.00989665  1
  Nb  Nb143  1  -0.00593040  0.00361593  0.39819682  1
  Nb  Nb144  1  0.19418173  0.00064676  0.19697381  1
  Nb  Nb145  1  0.19901003  0.39184421  0.59610198  1
  Nb  Nb146  1  0.79801753  0.59780365  0.19541485  1
  Nb  Nb147  1  0.79611938  0.39840924  0.79755027  1
  Nb  Nb148  1  0.60661088  0.40514372  0.20249936  1
  Nb  Nb149  1  0.59790951  0.79523545  0.20171118  1
  Pd  Pd150  1  -0.00119114  0.40634641  0.59700796  1
  Pd  Pd151  1  -0.00534914  0.39694731  0.39424001  1
  Pd  Pd152  1  0.79131280  0.20533917  0.19760498  1
  Pd  Pd153  1  0.19307202  0.58453232  0.61765922  1
  Pd  Pd154  1  0.59217413  0.19426580  -0.00180174  1
  Pd  Pd155  1  0.79238991  -0.00652249  0.60879816  1
  Pd  Pd156  1  0.19534639  0.40874818  0.19505249  1
  Pd  Pd157  1  -0.00402748  0.19196068  0.40396229  1
  Pd  Pd158  1  0.79741335  0.79611568  0.39736685  1
  Pd  Pd159  1  0.59304119  0.60517535  0.80002361  1
  Pd  Pd160  1  0.01213167  0.60640189  0.79521775  1
  Pd  Pd161  1  0.59621688  0.39852946  0.40250652  1
  Pd  Pd162  1  0.80146282  0.79806678  0.00011700  1
  Pd  Pd163  1  0.20358607  0.58953659  0.19671923  1
  Pd  Pd164  1  0.20430368  0.20280855  0.60544573  1
  Pd  Pd165  1  0.60034751  0.21043701  0.80217505  1
  Pd  Pd166  1  0.20306526  -0.00603445  0.61007872  1
  Pd  Pd167  1  -0.00265831  0.39430814  0.80506990  1
  Pd  Pd168  1  0.40693939  0.19585187  -0.00368190  1
  Pd  Pd169  1  0.60572585  0.59837686  0.19916577  1
  Pd  Pd170  1  0.79165736  0.00114844  -0.00111213  1
  Pd  Pd171  1  0.79075992  0.60077313  0.80779770  1
  Pd  Pd172  1  0.40548492  0.60052549  0.61206978  1
  Pd  Pd173  1  0.40244661  0.39614707  0.59438843  1
  Pd  Pd174  1  0.60067960  0.60170643  0.40550485  1
  Pd  Pd175  1  -0.00086823  -0.00272999  0.80267382  1
  Pd  Pd176  1  0.21003504  0.80952904  0.20074365  1
  Pd  Pd177  1  0.60729461  0.21219692  0.20309454  1
  Pd  Pd178  1  0.40635200  0.39199330  0.40471879  1
  Pd  Pd179  1  0.40131180  0.40474202  0.00591956  1
  Pd  Pd180  1  0.39922477  0.20758881  0.80595043  1
  Pd  Pd181  1  0.39620272  0.60192083  0.40387060  1
  Pd  Pd182  1  -0.00332632  0.60723460  -0.00538995  1
  Pd  Pd183  1  0.20033459  0.20740538  0.00125192  1
  Pd  Pd184  1  0.60163638  0.39468710  0.79430431  1
  Pd  Pd185  1  0.79998613  0.19153766  0.39844715  1
  Pd  Pd186  1  0.20316468  0.40130672  0.79278926  1
  Pd  Pd187  1  0.39851200  0.81181311  0.00443115  1
  Pd  Pd188  1  -0.00143662  0.19563696  0.59380882  1
  Pd  Pd189  1  -0.00813356  0.19734775  0.80493091  1
  Pd  Pd190  1  0.40811180  0.00307497  0.40602236  1
  Pd  Pd191  1  0.79765894  0.00684253  0.39983346  1
  Pd  Pd192  1  0.39604813  0.00323484  0.19446274  1
  Pd  Pd193  1  0.20697101  0.19575611  0.39355590  1
  Pd  Pd194  1  0.00548347  0.80502914  0.40547299  1
  Pd  Pd195  1  0.60346422  -0.00078689  0.19135395  1
  Pd  Pd196  1  0.20606016  0.80268159  0.80631454  1
  Pd  Pd197  1  0.59214777  0.79820791  0.39495484  1
  Pd  Pd198  1  0.40640413  0.19976876  0.59297045  1
  Pd  Pd199  1  0.39550943  0.19826621  0.20903576  1
  Rh  Rh200  1  0.18617978  -0.00531811  0.39303695  1
  Rh  Rh201  1  -0.00014304  0.60540975  0.40917220  1
  Rh  Rh202  1  0.59866064  0.79925890  0.79401146  1
  Rh  Rh203  1  0.79504646  0.19055230  -0.00382599  1
  Rh  Rh204  1  -0.00535500  0.79547985  0.60762595  1
  Rh  Rh205  1  0.40285588  0.80331056  0.59498619  1
  Rh  Rh206  1  0.20292870  0.19418918  0.19831791  1
  Rh  Rh207  1  0.00021857  0.80063976  0.00019264  1
  Rh  Rh208  1  0.59696134  0.59697716  0.59582922  1
  Rh  Rh209  1  0.60468299  0.00553855  0.40481794  1
  Rh  Rh210  1  0.20248843  0.39578786  0.00721990  1
  Rh  Rh211  1  0.60195213  0.80135758  0.60377705  1
  Rh  Rh212  1  0.39584482  -0.00133289  0.80020006  1
  Rh  Rh213  1  -0.00290421  0.79786972  0.79486510  1
  Rh  Rh214  1  0.60072891  -0.00875998  0.80041947  1
  Rh  Rh215  1  0.80761932  0.39630508  0.40105020  1
  Rh  Rh216  1  0.20432170  0.40501901  0.40526416  1
  Rh  Rh217  1  -0.00944222  -0.00253632  -0.00512772  1
  Rh  Rh218  1  0.20393140  0.60169129  0.39597792  1
  Rh  Rh219  1  -0.00620902  0.58661480  0.20544058  1
  Rh  Rh220  1  0.79892519  0.80238242  0.60791999  1
  Rh  Rh221  1  0.60197067  0.60234937  -0.01451909  1
  Rh  Rh222  1  0.80282398  0.20078075  0.60648617  1
  Rh  Rh223  1  0.39668166  0.59795125  0.19274697  1
  Rh  Rh224  1  0.58961860  0.39724439  0.00850991  1
  Rh  Rh225  1  0.59505893  0.19617823  0.40006575  1
  Rh  Rh226  1  0.00043634  0.19892401  0.00163983  1
  Rh  Rh227  1  -0.01110235  0.80685066  0.19697142  1
  Rh  Rh228  1  0.20427378  0.81078479  0.59446162  1
  Rh  Rh229  1  0.40419733  0.79083937  0.79340038  1
  Rh  Rh230  1  0.60696336  -0.00467567  0.60672548  1
  Rh  Rh231  1  0.20141177  0.19294075  0.79766422  1
  Rh  Rh232  1  0.00337981  -0.00233555  0.20205888  1
  Rh  Rh233  1  0.39646047  0.59799222  -0.00684203  1
  Rh  Rh234  1  -0.00138122  0.20695293  0.19181362  1
  Rh  Rh235  1  0.39966898  0.40602370  0.80461625  1
  Rh  Rh236  1  0.80217627  -0.00083451  0.79670569  1
  Rh  Rh237  1  0.21000731  -0.00762368  -0.00318571  1
  Rh  Rh238  1  0.00515240  0.39062560  0.00515168  1
  Rh  Rh239  1  0.79417249  -0.00228239  0.19785290  1
  Rh  Rh240  1  0.59264756  0.81037389  -0.00177829  1
  Rh  Rh241  1  0.79837725  0.79838950  0.79345276  1
  Rh  Rh242  1  0.40518855  -0.00056806  0.60134346  1
  Rh  Rh243  1  0.80134946  0.60732539  0.39908504  1
  Rh  Rh244  1  0.80574656  0.59741565  0.59712567  1
  Rh  Rh245  1  0.40736826  0.40494040  0.19320133  1
  Rh  Rh246  1  0.80350086  0.40920405  -0.00580251  1
  Rh  Rh247  1  -0.00125626  -0.00244271  0.59724049  1
  Rh  Rh248  1  0.59845790  0.20250069  0.60315324  1
  Rh  Rh249  1  0.20118855  0.60880313  -0.00052739  1
