# generated using pymatgen
data_ZrScNbPdRh
_symmetry_space_group_name_H-M   'P 1'
_cell_length_a   16.55900494
_cell_length_b   16.55889352
_cell_length_c   16.56069774
_cell_angle_alpha   89.97941280
_cell_angle_beta   90.00930341
_cell_angle_gamma   89.96192030
_symmetry_Int_Tables_number   1
_chemical_formula_structural   ZrScNbPdRh
_chemical_formula_sum   'Zr50 Sc50 Nb50 Pd50 Rh50'
_cell_volume   4540.92208373
_cell_formula_units_Z   50
loop_
 _symmetry_equiv_pos_site_id
 _symmetry_equiv_pos_as_xyz
  1  'x, y, z'
loop_
 _atom_site_type_symbol
 _atom_site_label
 _atom_site_symmetry_multiplicity
 _atom_site_fract_x
 _atom_site_fract_y
 _atom_site_fract_z
 _atom_site_occupancy
  Zr  Zr0  1  0.50773214  0.49343122  0.49065399  1
  Zr  Zr1  1  0.90186213  0.30159116  0.50215965  1
  Zr  Zr2  1  0.89949564  0.90038375  0.49793816  1
  Zr  Zr3  1  0.90724222  0.48792654  0.89220308  1
  Zr  Zr4  1  0.29883458  0.29269687  0.90084712  1
  Zr  Zr5  1  0.50033204  0.90217798  0.10664130  1
  Zr  Zr6  1  0.09165355  0.10143969  0.89850945  1
  Zr  Zr7  1  0.49922419  0.11474289  0.69628459  1
  Zr  Zr8  1  0.10741970  0.50207531  0.30153943  1
  Zr  Zr9  1  0.51264852  0.89750385  0.90184300  1
  Zr  Zr10  1  0.09634052  0.90078210  0.49640821  1
  Zr  Zr11  1  0.70092827  0.88709680  0.49633259  1
  Zr  Zr12  1  0.90137094  0.50543634  0.29128051  1
  Zr  Zr13  1  0.69446722  0.50266800  0.89948834  1
  Zr  Zr14  1  0.50272998  0.29981761  0.51441723  1
  Zr  Zr15  1  0.88482509  0.50141536  0.50076955  1
  Zr  Zr16  1  0.29292292  0.90208253  0.49387243  1
  Zr  Zr17  1  0.29698027  0.10952931  0.70511917  1
  Zr  Zr18  1  0.90170759  0.89748516  0.09910566  1
  Zr  Zr19  1  0.09386476  0.29420940  0.11331878  1
  Zr  Zr20  1  0.11295273  0.50030713  0.50437207  1
  Zr  Zr21  1  0.90695394  0.09126503  0.70382951  1
  Zr  Zr22  1  0.89100562  0.70556242  0.51021488  1
  Zr  Zr23  1  0.28984358  0.10572885  0.89749084  1
  Zr  Zr24  1  0.30425443  0.10237251  0.10562541  1
  Zr  Zr25  1  0.69478493  0.30110894  0.90033343  1
  Zr  Zr26  1  0.09060316  0.69330413  0.70102337  1
  Zr  Zr27  1  0.30464409  0.69284821  0.90004460  1
  Zr  Zr28  1  0.70361173  0.50942449  0.09589045  1
  Zr  Zr29  1  0.10322565  0.70273059  0.49428178  1
  Zr  Zr30  1  0.90224433  0.89292854  0.69321435  1
  Zr  Zr31  1  0.10261449  0.29945563  0.49131300  1
  Zr  Zr32  1  0.09433933  0.29689692  0.90660894  1
  Zr  Zr33  1  0.69709963  0.09863528  0.10110474  1
  Zr  Zr34  1  0.70222376  0.70574924  0.30125983  1
  Zr  Zr35  1  0.09512985  0.90042629  0.10762346  1
  Zr  Zr36  1  0.50320781  0.70746085  0.10098771  1
  Zr  Zr37  1  0.70557752  0.30546085  0.50982626  1
  Zr  Zr38  1  0.09672419  0.49933598  0.70054269  1
  Zr  Zr39  1  0.91259516  0.29307475  0.29441249  1
  Zr  Zr40  1  0.89421625  0.69227119  0.11150208  1
  Zr  Zr41  1  0.50270100  0.09803260  0.11094447  1
  Zr  Zr42  1  0.69660390  0.29449996  0.09587049  1
  Zr  Zr43  1  0.30966917  0.50340646  0.30013576  1
  Zr  Zr44  1  0.10254221  0.09683412  0.70433698  1
  Zr  Zr45  1  0.69735360  0.90159007  0.70372884  1
  Zr  Zr46  1  0.50512197  0.10807763  0.50036566  1
  Zr  Zr47  1  0.09188950  0.90696699  0.69865515  1
  Zr  Zr48  1  0.09395706  0.70682054  0.09832107  1
  Zr  Zr49  1  0.29641342  0.29818048  0.09390196  1
  Sc  Sc50  1  0.29749081  0.29314591  0.29819934  1
  Sc  Sc51  1  0.49919860  0.29530773  0.09484148  1
  Sc  Sc52  1  0.30712408  0.50210858  0.90699533  1
  Sc  Sc53  1  0.50650924  0.69203703  0.89837557  1
  Sc  Sc54  1  0.29387798  0.91064958  0.70008845  1
  Sc  Sc55  1  0.09268290  0.89521928  0.90824561  1
  Sc  Sc56  1  0.09574272  0.10134042  0.10460112  1
  Sc  Sc57  1  0.30175969  0.90171037  0.10678647  1
  Sc  Sc58  1  0.69429546  0.10168433  0.69885969  1
  Sc  Sc59  1  0.10123524  0.49993016  0.89650837  1
  Sc  Sc60  1  0.90072011  0.31271415  0.69987360  1
  Sc  Sc61  1  0.89417556  0.10840791  0.49567037  1
  Sc  Sc62  1  0.69675835  0.69696824  0.68568024  1
  Sc  Sc63  1  0.69809850  0.70033443  0.10090064  1
  Sc  Sc64  1  0.10376510  0.11351717  0.29496287  1
  Sc  Sc65  1  0.29820033  0.30080743  0.50485431  1
  Sc  Sc66  1  0.29514589  0.90736840  0.90036484  1
  Sc  Sc67  1  0.50184186  0.89277235  0.49856007  1
  Sc  Sc68  1  0.10042435  0.49222281  0.11070404  1
  Sc  Sc69  1  0.29890742  0.50291449  0.69219633  1
  Sc  Sc70  1  0.70540073  0.08978962  0.91028588  1
  Sc  Sc71  1  0.91194135  0.70034958  0.89967812  1
  Sc  Sc72  1  0.70258197  0.50208825  0.32102364  1
  Sc  Sc73  1  0.49527178  0.69703399  0.69644897  1
  Sc  Sc74  1  0.10334907  0.69718049  0.90438501  1
  Sc  Sc75  1  0.49016035  0.49881029  0.09193750  1
  Sc  Sc76  1  0.10403454  0.10201647  0.50153330  1
  Sc  Sc77  1  0.49870497  0.50488521  0.90012122  1
  Sc  Sc78  1  0.30513401  0.69035109  0.69488599  1
  Sc  Sc79  1  0.29984169  0.69978104  0.30114365  1
  Sc  Sc80  1  0.69665359  0.29490272  0.30211752  1
  Sc  Sc81  1  0.30245988  0.69769026  0.49712280  1
  Sc  Sc82  1  0.29566741  0.90014206  0.29743754  1
  Sc  Sc83  1  0.89314282  0.89443732  0.29280021  1
  Sc  Sc84  1  0.50510342  0.70644826  0.50095346  1
  Sc  Sc85  1  0.70757833  0.89810508  0.29759936  1
  Sc  Sc86  1  0.10028114  0.70587342  0.29688500  1
  Sc  Sc87  1  0.49562734  0.71147861  0.29933067  1
  Sc  Sc88  1  0.50257011  0.09969550  0.91125960  1
  Sc  Sc89  1  0.50841241  0.89886611  0.69286332  1
  Sc  Sc90  1  0.49743397  0.29317828  0.30231164  1
  Sc  Sc91  1  0.50053288  0.49798758  0.69719714  1
  Sc  Sc92  1  0.90034410  0.91345189  0.90152721  1
  Sc  Sc93  1  0.89681615  0.09334497  0.08937796  1
  Sc  Sc94  1  0.10164195  0.30154649  0.68562121  1
  Sc  Sc95  1  0.30140302  0.50217695  0.49550127  1
  Sc  Sc96  1  0.69678246  0.49428519  0.69876173  1
  Sc  Sc97  1  0.30345135  0.49772322  0.09915717  1
  Sc  Sc98  1  0.69687772  0.89888081  0.09932428  1
  Sc  Sc99  1  0.29874270  0.69893740  0.10118379  1
  Nb  Nb100  1  0.90022072  0.10815613  0.90059769  1
  Nb  Nb101  1  0.50054287  0.90352380  0.29868094  1
  Nb  Nb102  1  0.50540264  0.29718004  0.70454138  1
  Nb  Nb103  1  0.70470407  0.09740488  0.49454800  1
  Nb  Nb104  1  0.50238344  0.30287754  0.89464311  1
  Nb  Nb105  1  0.70274402  0.69008338  0.49587433  1
  Nb  Nb106  1  0.89788431  0.69625105  0.29702534  1
  Nb  Nb107  1  0.90550523  0.51083719  0.70402754  1
  Nb  Nb108  1  0.69887878  0.69895510  0.90258233  1
  Nb  Nb109  1  0.89815996  0.69663361  0.70072422  1
  Nb  Nb110  1  0.69921575  0.89269645  0.89842248  1
  Nb  Nb111  1  0.88677913  0.09378355  0.30060494  1
  Nb  Nb112  1  0.90011157  0.30021369  0.09856051  1
  Nb  Nb113  1  0.50365586  0.10169896  0.29849590  1
  Nb  Nb114  1  0.30146436  0.09948204  0.49498357  1
  Nb  Nb115  1  0.50039467  0.49557463  0.29761879  1
  Nb  Nb116  1  0.09847672  0.30223338  0.29876383  1
  Nb  Nb117  1  0.90091605  0.29385742  0.90515600  1
  Nb  Nb118  1  0.30779515  0.29447087  0.70581821  1
  Nb  Nb119  1  0.31031589  0.10456227  0.30105227  1
  Nb  Nb120  1  0.69926618  0.50806840  0.50148736  1
  Nb  Nb121  1  0.68676736  0.29942656  0.70766500  1
  Nb  Nb122  1  0.70413463  0.09888296  0.30087326  1
  Nb  Nb123  1  0.89740432  0.50056505  0.10363340  1
  Nb  Nb124  1  0.09647058  0.90174180  0.30325068  1
  Nb  Nb125  1  0.39715742  0.80575849  0.80288505  1
  Nb  Nb126  1  0.39770406  0.00779089  0.59531382  1
  Nb  Nb127  1  0.40402770  0.00224587  0.79671601  1
  Nb  Nb128  1  0.80105763  0.19787582  0.19824869  1
  Nb  Nb129  1  0.80309523  0.60401142  0.79793915  1
  Nb  Nb130  1  0.80334145  0.20295966  0.80553922  1
  Nb  Nb131  1  0.39997946  0.39039948  0.79771329  1
  Nb  Nb132  1  0.79801885  0.39702855  0.19493620  1
  Nb  Nb133  1  0.60102119  0.40766305  0.20217400  1
  Nb  Nb134  1  0.59503293  0.59238527  0.20701864  1
  Nb  Nb135  1  0.40547330  0.00702456  0.39713026  1
  Nb  Nb136  1  0.20701361  0.39367999  0.79746984  1
  Nb  Nb137  1  0.79684322  0.79410704  0.80239418  1
  Nb  Nb138  1  0.60094198  0.00512769  0.39479888  1
  Nb  Nb139  1  0.00268805  0.40548733  0.39759161  1
  Nb  Nb140  1  0.20172365  0.79846335  0.79524544  1
  Nb  Nb141  1  0.80688328  0.39839776  0.00128650  1
  Nb  Nb142  1  0.19747019  0.00345457  0.00447828  1
  Nb  Nb143  1  0.19596129  0.80062018  0.60507084  1
  Nb  Nb144  1  0.79722800  0.79733827  -0.00926115  1
  Nb  Nb145  1  -0.00182176  0.00177586  0.39097138  1
  Nb  Nb146  1  0.79624573  -0.00020446  0.59560995  1
  Nb  Nb147  1  0.40217188  0.80266712  -0.00607987  1
  Nb  Nb148  1  -0.00488589  0.59216601  0.00876744  1
  Nb  Nb149  1  -0.00407027  0.59970424  0.40002023  1
  Pd  Pd150  1  0.59114624  0.60999971  0.39440049  1
  Pd  Pd151  1  0.81135291  0.59987510  -0.01431409  1
  Pd  Pd152  1  0.79886277  0.20852416  0.39543290  1
  Pd  Pd153  1  0.19069371  0.59134732  0.00868597  1
  Pd  Pd154  1  0.59859191  0.78814220  0.79173243  1
  Pd  Pd155  1  0.60828429  -0.00449897  0.20732487  1
  Pd  Pd156  1  0.79803912  0.39876260  0.80102541  1
  Pd  Pd157  1  0.20217796  0.79892336  0.20302648  1
  Pd  Pd158  1  -0.00536753  0.00555193  0.20758682  1
  Pd  Pd159  1  0.60690206  0.18761773  0.81187817  1
  Pd  Pd160  1  0.20304745  0.20085203  0.59762197  1
  Pd  Pd161  1  -0.00016298  0.80262673  0.80431448  1
  Pd  Pd162  1  0.60402256  0.60136644  0.79084096  1
  Pd  Pd163  1  0.79663868  0.40482872  0.61130086  1
  Pd  Pd164  1  0.20484104  0.39636293  0.39407452  1
  Pd  Pd165  1  0.40881109  0.60490389  0.40288356  1
  Pd  Pd166  1  0.39520219  -0.00373990  -0.00469752  1
  Pd  Pd167  1  -0.00149206  0.40806043  0.59214519  1
  Pd  Pd168  1  -0.00827782  0.79888505  0.39160489  1
  Pd  Pd169  1  0.60058665  -0.00075606  0.58883721  1
  Pd  Pd170  1  0.39784415  0.40251331  0.60495066  1
  Pd  Pd171  1  0.00228013  0.19358484  0.39925704  1
  Pd  Pd172  1  0.39762068  0.39084414  0.40020630  1
  Pd  Pd173  1  0.20795159  0.80762532  -0.00381600  1
  Pd  Pd174  1  0.40834915  0.59352734  0.58854474  1
  Pd  Pd175  1  -0.00314735  0.21017938  0.78955736  1
  Pd  Pd176  1  0.59428786  0.59716164  0.59790450  1
  Pd  Pd177  1  0.39073133  0.80969050  0.60843343  1
  Pd  Pd178  1  0.40496441  0.39137497  0.19801003  1
  Pd  Pd179  1  0.40545675  0.60351029  0.19719979  1
  Pd  Pd180  1  0.20253221  0.00118734  0.59827275  1
  Pd  Pd181  1  -0.00224828  0.19658532  0.60192744  1
  Pd  Pd182  1  -0.00143400  0.59789288  0.58900480  1
  Pd  Pd183  1  0.19831796  0.40472648  -0.00474073  1
  Pd  Pd184  1  0.00096858  0.40415572  0.00755410  1
  Pd  Pd185  1  0.60618205  0.20259927  0.40360056  1
  Pd  Pd186  1  0.39666343  0.80673421  0.39791657  1
  Pd  Pd187  1  0.60190184  0.39057969  0.39797164  1
  Pd  Pd188  1  0.40563525  0.19860548  -0.00099889  1
  Pd  Pd189  1  0.19650675  0.00956792  0.38733225  1
  Pd  Pd190  1  0.20115065  0.00619110  0.20261942  1
  Pd  Pd191  1  0.59416316  0.00933358  0.80203468  1
  Pd  Pd192  1  0.20548015  0.59664751  0.79788363  1
  Pd  Pd193  1  0.20982396  0.39776612  0.20406755  1
  Pd  Pd194  1  0.39849501  0.20462594  0.40512164  1
  Pd  Pd195  1  0.80651575  0.39081255  0.39033508  1
  Pd  Pd196  1  0.79793331  0.19603652  0.61395448  1
  Pd  Pd197  1  0.59749885  0.40397852  0.00530267  1
  Pd  Pd198  1  0.19995083  0.60336623  0.19641164  1
  Pd  Pd199  1  0.79973149  0.00088662  0.79757411  1
  Rh  Rh200  1  0.58928880  0.40552541  0.79936906  1
  Rh  Rh201  1  0.39381824  0.19853171  0.59468929  1
  Rh  Rh202  1  0.20041600  0.60761241  0.59797859  1
  Rh  Rh203  1  0.60123429  0.80225136  0.39681967  1
  Rh  Rh204  1  -0.00038473  -0.00400905  0.80736792  1
  Rh  Rh205  1  0.60382352  -0.00285543  0.00310143  1
  Rh  Rh206  1  -0.01327856  0.18700651  0.19511504  1
  Rh  Rh207  1  0.00743990  0.79369576  0.59999405  1
  Rh  Rh208  1  0.39649764  0.80400981  0.19631602  1
  Rh  Rh209  1  0.80023906  0.20352422  -0.00179886  1
  Rh  Rh210  1  0.59354378  0.60225197  0.00868405  1
  Rh  Rh211  1  0.20515199  0.20096063  0.20109118  1
  Rh  Rh212  1  0.40290507  0.20454880  0.19691041  1
  Rh  Rh213  1  0.60357781  0.20468353  0.20184343  1
  Rh  Rh214  1  0.19214531  -0.00639005  0.81154567  1
  Rh  Rh215  1  0.20904263  0.39814325  0.60603557  1
  Rh  Rh216  1  0.40307631  0.60963014  0.00608512  1
  Rh  Rh217  1  0.61286934  0.20407544  0.59793659  1
  Rh  Rh218  1  0.19180487  0.19274419  0.00952033  1
  Rh  Rh219  1  0.00925770  0.60366315  0.20001887  1
  Rh  Rh220  1  -0.01171804  0.79249862  0.00487586  1
  Rh  Rh221  1  0.20020752  0.60396359  0.39571932  1
  Rh  Rh222  1  0.79814809  0.00337514  0.19313753  1
  Rh  Rh223  1  -0.00925902  0.01072716  0.58309696  1
  Rh  Rh224  1  0.78391121  0.59264934  0.21248167  1
  Rh  Rh225  1  -0.00263788  0.59948133  0.80945193  1
  Rh  Rh226  1  0.59618021  0.19660241  -0.00247646  1
  Rh  Rh227  1  0.79524663  0.59254183  0.60893581  1
  Rh  Rh228  1  0.80417409  0.79348355  0.39760780  1
  Rh  Rh229  1  0.79682482  -0.01094071  0.00187239  1
  Rh  Rh230  1  0.79191379  0.80354449  0.60742225  1
  Rh  Rh231  1  0.01137413  0.39292836  0.79555499  1
  Rh  Rh232  1  0.00530409  0.00407603  -0.00098130  1
  Rh  Rh233  1  0.40125476  0.39414929  -0.00979398  1
  Rh  Rh234  1  0.60389947  0.40171687  0.60107894  1
  Rh  Rh235  1  -0.00251443  0.79916570  0.20548177  1
  Rh  Rh236  1  0.39815544  -0.00035505  0.21058802  1
  Rh  Rh237  1  0.18395568  0.21182127  0.79443699  1
  Rh  Rh238  1  0.60250678  0.79976772  0.20589075  1
  Rh  Rh239  1  0.80596228  0.60762881  0.39933181  1
  Rh  Rh240  1  0.20245433  0.19985560  0.39767550  1
  Rh  Rh241  1  0.60198568  0.79798117  0.00218770  1
  Rh  Rh242  1  -0.00092737  0.19711822  0.00877912  1
  Rh  Rh243  1  0.20273139  0.79889541  0.40020417  1
  Rh  Rh244  1  0.40972023  0.19719791  0.80917899  1
  Rh  Rh245  1  0.79825200  0.79998038  0.18998687  1
  Rh  Rh246  1  -0.00280608  0.40187893  0.20366826  1
  Rh  Rh247  1  0.40142527  0.59434868  0.79744983  1
  Rh  Rh248  1  0.60377084  0.79402032  0.59745781  1
  Rh  Rh249  1  0.79954713  -0.00456843  0.40482810  1
