# generated using pymatgen
data_ZrScNbPdRh
_symmetry_space_group_name_H-M   'P 1'
_cell_length_a   16.55787087
_cell_length_b   16.56257128
_cell_length_c   16.55749815
_cell_angle_alpha   90.00715923
_cell_angle_beta   89.97898621
_cell_angle_gamma   90.02169779
_symmetry_Int_Tables_number   1
_chemical_formula_structural   ZrScNbPdRh
_chemical_formula_sum   'Zr50 Sc50 Nb50 Pd50 Rh50'
_cell_volume   4540.74279880
_cell_formula_units_Z   50
loop_
 _symmetry_equiv_pos_site_id
 _symmetry_equiv_pos_as_xyz
  1  'x, y, z'
loop_
 _atom_site_type_symbol
 _atom_site_label
 _atom_site_symmetry_multiplicity
 _atom_site_fract_x
 _atom_site_fract_y
 _atom_site_fract_z
 _atom_site_occupancy
  Zr  Zr0  1  0.29558318  0.09410641  0.29675734  1
  Zr  Zr1  1  0.90255144  0.49469200  0.30725068  1
  Zr  Zr2  1  0.50363697  0.09602218  0.69577168  1
  Zr  Zr3  1  0.30121356  0.89866881  0.69022721  1
  Zr  Zr4  1  0.50755063  0.50173287  0.70454751  1
  Zr  Zr5  1  0.08316780  0.49824244  0.90270705  1
  Zr  Zr6  1  0.90243045  0.90019706  0.30438068  1
  Zr  Zr7  1  0.70308549  0.09339069  0.49957471  1
  Zr  Zr8  1  0.90496265  0.90424437  0.10408491  1
  Zr  Zr9  1  0.49228461  0.69816669  0.89718041  1
  Zr  Zr10  1  0.10198820  0.49555732  0.49385676  1
  Zr  Zr11  1  0.49946922  0.10779181  0.30084289  1
  Zr  Zr12  1  0.30604614  0.29707700  0.30299502  1
  Zr  Zr13  1  0.29583595  0.29113748  0.70793864  1
  Zr  Zr14  1  0.70279253  0.69912010  0.69167932  1
  Zr  Zr15  1  0.31127876  0.69583432  0.09777711  1
  Zr  Zr16  1  0.49803165  0.30063652  0.49605652  1
  Zr  Zr17  1  0.09897374  0.69646073  0.90526230  1
  Zr  Zr18  1  0.90937118  0.70086091  0.30223557  1
  Zr  Zr19  1  0.50132913  0.70310876  0.70047636  1
  Zr  Zr20  1  0.09758070  0.30373336  0.90347114  1
  Zr  Zr21  1  0.09616605  0.29960063  0.29671780  1
  Zr  Zr22  1  0.89661216  0.10149526  0.90254554  1
  Zr  Zr23  1  0.70396945  0.29432534  0.29172207  1
  Zr  Zr24  1  0.69588054  0.69630171  0.90317359  1
  Zr  Zr25  1  0.09535261  0.51025523  0.30422233  1
  Zr  Zr26  1  0.89964534  0.88954987  0.69888938  1
  Zr  Zr27  1  0.09493666  0.10257264  0.10774554  1
  Zr  Zr28  1  0.89385037  0.70413636  0.49917644  1
  Zr  Zr29  1  0.50151547  0.49930232  0.30176507  1
  Zr  Zr30  1  0.70079633  0.70019915  0.10189330  1
  Zr  Zr31  1  0.69708187  0.49016174  0.70693144  1
  Zr  Zr32  1  0.30439452  0.49846064  0.10251622  1
  Zr  Zr33  1  0.70401869  0.10193835  0.89398984  1
  Zr  Zr34  1  0.10072757  0.49736452  0.09599636  1
  Zr  Zr35  1  0.29951507  0.30724109  0.50137140  1
  Zr  Zr36  1  0.69381197  0.90769909  0.69433295  1
  Zr  Zr37  1  0.90374309  0.50254234  0.49220212  1
  Zr  Zr38  1  0.89748572  0.29864667  0.91018721  1
  Zr  Zr39  1  0.09163088  0.90169625  0.09955224  1
  Zr  Zr40  1  0.89303987  0.50075030  0.70743517  1
  Zr  Zr41  1  0.09491500  0.29441353  0.50656917  1
  Zr  Zr42  1  0.10298928  0.90593949  0.90005747  1
  Zr  Zr43  1  0.50405103  0.90557801  0.28924504  1
  Zr  Zr44  1  0.29316546  0.30921666  0.09869988  1
  Zr  Zr45  1  0.51116890  0.30482031  0.69492397  1
  Zr  Zr46  1  0.09731443  0.49454033  0.71036939  1
  Zr  Zr47  1  0.09642251  0.69344869  0.10178361  1
  Zr  Zr48  1  0.50176394  0.89977110  0.51503498  1
  Zr  Zr49  1  0.49654034  0.49549332  0.49693550  1
  Sc  Sc50  1  0.30206813  0.50379917  0.30790073  1
  Sc  Sc51  1  0.50151065  0.70363532  0.50476281  1
  Sc  Sc52  1  0.69255840  0.88746771  0.11223499  1
  Sc  Sc53  1  0.51209031  0.30746375  0.09814369  1
  Sc  Sc54  1  0.29296181  0.29596083  0.89618791  1
  Sc  Sc55  1  0.89923102  0.50564166  0.09390438  1
  Sc  Sc56  1  0.50481551  0.10612852  0.49759394  1
  Sc  Sc57  1  0.09832250  0.90273279  0.30613440  1
  Sc  Sc58  1  0.29768994  0.10156484  0.50388985  1
  Sc  Sc59  1  0.49795436  0.10267325  0.89736792  1
  Sc  Sc60  1  0.31488051  0.50401308  0.90779747  1
  Sc  Sc61  1  0.31013834  0.70307320  0.70282487  1
  Sc  Sc62  1  0.90381832  0.10001675  0.49602788  1
  Sc  Sc63  1  0.69505878  0.29526071  0.50348048  1
  Sc  Sc64  1  0.10352546  0.90164262  0.69268740  1
  Sc  Sc65  1  0.29797897  0.69276925  0.30385747  1
  Sc  Sc66  1  0.69421891  0.10339263  0.30370656  1
  Sc  Sc67  1  0.29892025  0.48934851  0.70652358  1
  Sc  Sc68  1  0.10286356  0.10499267  0.68913840  1
  Sc  Sc69  1  0.29506298  0.70183808  0.49620099  1
  Sc  Sc70  1  0.88930338  0.29550752  0.69774620  1
  Sc  Sc71  1  0.50057266  0.09269089  0.10436341  1
  Sc  Sc72  1  0.89840731  0.29588108  0.49134237  1
  Sc  Sc73  1  0.10285685  0.70924491  0.49474671  1
  Sc  Sc74  1  0.50751523  0.30462669  0.30716613  1
  Sc  Sc75  1  0.89867815  0.70585066  0.10403512  1
  Sc  Sc76  1  0.48962915  0.70231254  0.29799043  1
  Sc  Sc77  1  0.70725126  0.50432721  0.50435312  1
  Sc  Sc78  1  0.88728815  0.09836718  0.69257540  1
  Sc  Sc79  1  0.31338054  0.90477232  0.10534815  1
  Sc  Sc80  1  0.71065565  0.71858332  0.29842084  1
  Sc  Sc81  1  0.49730298  0.49632775  0.09453609  1
  Sc  Sc82  1  0.09679289  0.71172871  0.69653831  1
  Sc  Sc83  1  0.70494001  0.48991952  0.29470280  1
  Sc  Sc84  1  0.89598565  0.69949204  0.89366250  1
  Sc  Sc85  1  0.10205840  0.89939522  0.49886520  1
  Sc  Sc86  1  0.68904643  0.11080603  0.11023905  1
  Sc  Sc87  1  0.90213202  0.90400506  0.49731589  1
  Sc  Sc88  1  0.29630193  0.09620228  0.09929488  1
  Sc  Sc89  1  0.10508882  0.09637278  0.90902432  1
  Sc  Sc90  1  0.29566294  0.09859114  0.89560332  1
  Sc  Sc91  1  0.29203021  0.10034549  0.70582140  1
  Sc  Sc92  1  0.90835357  0.10385506  0.10186784  1
  Sc  Sc93  1  0.69930751  0.49862672  0.09411712  1
  Sc  Sc94  1  0.49888804  0.89498788  0.10226236  1
  Sc  Sc95  1  0.51150793  0.50166689  0.89879155  1
  Sc  Sc96  1  0.70364960  0.30243982  0.90821493  1
  Sc  Sc97  1  0.10529884  0.29664475  0.70343463  1
  Sc  Sc98  1  0.70292565  0.89233391  0.88942934  1
  Sc  Sc99  1  0.89795645  0.89463163  0.90067445  1
  Nb  Nb100  1  0.49847095  0.89804128  0.89434133  1
  Nb  Nb101  1  0.69803507  0.29657001  0.70004986  1
  Nb  Nb102  1  0.90246303  0.70444591  0.69240384  1
  Nb  Nb103  1  0.89715821  0.10120012  0.30097201  1
  Nb  Nb104  1  0.71083231  0.50046143  0.89487851  1
  Nb  Nb105  1  0.30333486  0.89947778  0.89826682  1
  Nb  Nb106  1  0.30429579  0.69968671  0.89818603  1
  Nb  Nb107  1  0.09273997  0.30113975  0.09837838  1
  Nb  Nb108  1  0.50667914  0.70363566  0.10370254  1
  Nb  Nb109  1  0.70197801  0.90589412  0.30370667  1
  Nb  Nb110  1  0.90507469  0.29288342  0.10381138  1
  Nb  Nb111  1  0.09498045  0.10540096  0.49694107  1
  Nb  Nb112  1  0.49842753  0.29700884  0.89750541  1
  Nb  Nb113  1  0.09519484  0.09760441  0.30293837  1
  Nb  Nb114  1  0.49811184  0.89646531  0.70009480  1
  Nb  Nb115  1  0.70425773  0.29962189  0.10939313  1
  Nb  Nb116  1  0.69656174  0.70580482  0.49497425  1
  Nb  Nb117  1  0.10092237  0.70450591  0.29947901  1
  Nb  Nb118  1  0.89229477  0.29530121  0.29184825  1
  Nb  Nb119  1  0.69880801  0.10648041  0.69808883  1
  Nb  Nb120  1  0.69700443  0.89420255  0.48459025  1
  Nb  Nb121  1  0.29852420  0.89499602  0.49817836  1
  Nb  Nb122  1  0.29890975  0.50442233  0.50012063  1
  Nb  Nb123  1  0.30017964  0.89821030  0.30002948  1
  Nb  Nb124  1  0.89331716  0.49594995  0.89640952  1
  Nb  Nb125  1  0.00022175  0.59855155  0.60136424  1
  Nb  Nb126  1  0.39465677  0.59255269  0.59840155  1
  Nb  Nb127  1  0.20015797  0.79800862  0.19763169  1
  Nb  Nb128  1  0.60057907  0.60482929  0.20195137  1
  Nb  Nb129  1  0.40844137  0.39146635  0.80239949  1
  Nb  Nb130  1  0.79839903  0.00130919  0.20348928  1
  Nb  Nb131  1  0.20772029  0.79938843  0.80862759  1
  Nb  Nb132  1  0.40104358  0.20504465  0.60456410  1
  Nb  Nb133  1  -0.00444093  0.19392247  0.80228088  1
  Nb  Nb134  1  0.20126558  0.60435418  0.80226607  1
  Nb  Nb135  1  0.40045959  0.20515496  0.00313298  1
  Nb  Nb136  1  0.19229487  0.19543266  0.39860978  1
  Nb  Nb137  1  0.40261872  -0.00967016  0.79719109  1
  Nb  Nb138  1  0.39632091  0.81091123  0.40062472  1
  Nb  Nb139  1  -0.00344108  0.40447211  0.60022383  1
  Nb  Nb140  1  0.60474133  0.20209105  0.79570917  1
  Nb  Nb141  1  0.79090084  -0.00043298  0.00909369  1
  Nb  Nb142  1  0.60394809  -0.00472161  -0.00471472  1
  Nb  Nb143  1  0.60492851  0.60630231  0.39613598  1
  Nb  Nb144  1  -0.00143004  0.00426728  0.79690771  1
  Nb  Nb145  1  0.20816024  0.79894604  0.00076238  1
  Nb  Nb146  1  -0.00253997  0.39381258  0.19736792  1
  Nb  Nb147  1  0.19874752  0.59632330  0.60444500  1
  Nb  Nb148  1  0.39926010  0.20403662  0.19504853  1
  Nb  Nb149  1  0.39624423  -0.00672693  0.40145304  1
  Pd  Pd150  1  0.80793039  0.40394354  0.18888220  1
  Pd  Pd151  1  0.20198115  0.19887953  0.00234967  1
  Pd  Pd152  1  0.20503324  0.59782746  -0.00500376  1
  Pd  Pd153  1  0.59635405  0.59718859  0.59195243  1
  Pd  Pd154  1  0.19617747  0.00337948  0.59278621  1
  Pd  Pd155  1  0.20277747  0.40774045  -0.00816224  1
  Pd  Pd156  1  0.20558567  -0.00682603  0.00940125  1
  Pd  Pd157  1  0.79021479  0.60506460  0.39004597  1
  Pd  Pd158  1  0.40729742  0.00612304  -0.00769697  1
  Pd  Pd159  1  -0.01229916  0.38416432  0.79348912  1
  Pd  Pd160  1  0.00672091  0.80573538  0.80110502  1
  Pd  Pd161  1  0.79336334  0.80981106  0.59298046  1
  Pd  Pd162  1  0.20328487  0.60153516  0.20227693  1
  Pd  Pd163  1  0.80163932  0.39970275  0.00845084  1
  Pd  Pd164  1  0.59728044  0.80623328  -0.00367992  1
  Pd  Pd165  1  -0.00251031  0.20071761  0.39379027  1
  Pd  Pd166  1  0.39832197  0.39938521  0.60847256  1
  Pd  Pd167  1  -0.00099614  0.79652270  -0.00263364  1
  Pd  Pd168  1  0.19418965  0.40238215  0.60419303  1
  Pd  Pd169  1  0.61238786  0.40573749  0.40453593  1
  Pd  Pd170  1  0.59574052  0.19461698  -0.00304039  1
  Pd  Pd171  1  0.59137891  0.00062115  0.40240070  1
  Pd  Pd172  1  0.39681066  0.00935782  0.59944738  1
  Pd  Pd173  1  0.00014984  0.00132783  0.60323699  1
  Pd  Pd174  1  0.58890103  0.79565299  0.39324726  1
  Pd  Pd175  1  0.79637323  0.59850952  0.20610396  1
  Pd  Pd176  1  0.19344369  0.40630850  0.20789796  1
  Pd  Pd177  1  0.79854949  -0.00702995  0.59381566  1
  Pd  Pd178  1  0.79706095  0.60726908  0.79741022  1
  Pd  Pd179  1  0.80429725  0.59966500  0.60036165  1
  Pd  Pd180  1  0.79786065  0.80569381  0.00303207  1
  Pd  Pd181  1  0.80604273  -0.00482081  0.80007906  1
  Pd  Pd182  1  0.19486463  -0.01018745  0.19645021  1
  Pd  Pd183  1  0.60305408  0.79550417  0.79746209  1
  Pd  Pd184  1  -0.00594881  0.59399082  0.19788841  1
  Pd  Pd185  1  0.59714663  0.59724806  0.00468135  1
  Pd  Pd186  1  0.00135381  0.60922487  0.79448078  1
  Pd  Pd187  1  0.60591914  0.40059020  -0.00418980  1
  Pd  Pd188  1  0.79379393  0.39181629  0.40536765  1
  Pd  Pd189  1  0.80134992  0.20012098  0.59018377  1
  Pd  Pd190  1  0.40804627  0.39420370  0.20387792  1
  Pd  Pd191  1  0.20052329  0.00325595  0.40772101  1
  Pd  Pd192  1  0.40836251  0.59766621  0.19791520  1
  Pd  Pd193  1  0.79579513  0.19332072  0.01462047  1
  Pd  Pd194  1  0.59566978  0.00421627  0.80459746  1
  Pd  Pd195  1  0.20108603  0.39618192  0.39377990  1
  Pd  Pd196  1  0.40203069  0.80131034  0.00125744  1
  Pd  Pd197  1  0.80261784  0.39641705  0.59462591  1
  Pd  Pd198  1  0.20248554  0.20007154  0.20124890  1
  Pd  Pd199  1  0.80502867  0.60263179  -0.00273594  1
  Rh  Rh200  1  0.00705940  0.79974412  0.20320738  1
  Rh  Rh201  1  0.39313515  0.79666303  0.20557318  1
  Rh  Rh202  1  0.60622112  -0.00037150  0.59402781  1
  Rh  Rh203  1  -0.00487873  0.00440434  0.21077524  1
  Rh  Rh204  1  0.79654142  0.20576934  0.79778536  1
  Rh  Rh205  1  -0.00107222  0.79735044  0.59231942  1
  Rh  Rh206  1  0.59713041  0.79360845  0.20870484  1
  Rh  Rh207  1  0.21016880  0.41175114  0.81422962  1
  Rh  Rh208  1  0.59002472  0.20972651  0.20284836  1
  Rh  Rh209  1  -0.00954629  0.00156797  -0.00854670  1
  Rh  Rh210  1  0.19478041  0.60351258  0.40526129  1
  Rh  Rh211  1  0.60824904  0.60446959  0.80168962  1
  Rh  Rh212  1  0.18257592  0.19233658  0.80729161  1
  Rh  Rh213  1  0.20459861  0.79932934  0.38940826  1
  Rh  Rh214  1  0.79778186  0.39172818  0.80491356  1
  Rh  Rh215  1  0.59816920  0.19550375  0.60065014  1
  Rh  Rh216  1  0.60805003  0.20166612  0.40226226  1
  Rh  Rh217  1  0.79598993  0.79470229  0.79315193  1
  Rh  Rh218  1  -0.00483080  0.38829993  0.39557269  1
  Rh  Rh219  1  0.39822174  0.80720266  0.79781730  1
  Rh  Rh220  1  0.60780083  0.80291212  0.60174310  1
  Rh  Rh221  1  -0.01156109  0.60143538  -0.00238434  1
  Rh  Rh222  1  -0.01050033  0.40038993  0.00792895  1
  Rh  Rh223  1  0.40758039  0.60797283  0.41136954  1
  Rh  Rh224  1  0.80359283  0.18952599  0.19836637  1
  Rh  Rh225  1  0.00129214  0.80260056  0.40229724  1
  Rh  Rh226  1  0.60197675  0.40629001  0.19677700  1
  Rh  Rh227  1  0.39678247  0.58813204  0.79240015  1
  Rh  Rh228  1  0.00520841  0.61303560  0.40810149  1
  Rh  Rh229  1  0.40909297  0.19801753  0.79852248  1
  Rh  Rh230  1  0.19917802  -0.00572668  0.79384256  1
  Rh  Rh231  1  0.60374751  0.39166631  0.81119846  1
  Rh  Rh232  1  0.79693015  0.19862285  0.39874559  1
  Rh  Rh233  1  0.38890054  0.19024690  0.40087588  1
  Rh  Rh234  1  0.80828224  0.80963654  0.20229839  1
  Rh  Rh235  1  0.00176314  0.00328624  0.40098044  1
  Rh  Rh236  1  0.60993350  0.40535033  0.59304444  1
  Rh  Rh237  1  0.40235595  0.00785469  0.20570414  1
  Rh  Rh238  1  0.39612978  0.78960170  0.59282552  1
  Rh  Rh239  1  0.20627360  0.20062965  0.59160954  1
  Rh  Rh240  1  0.41080044  0.60161333  0.00294996  1
  Rh  Rh241  1  -0.00609827  0.20628283  0.60850494  1
  Rh  Rh242  1  0.60885659  -0.00229183  0.19332854  1
  Rh  Rh243  1  0.20471956  0.79319430  0.60574757  1
  Rh  Rh244  1  0.39610991  0.40443437  0.39640003  1
  Rh  Rh245  1  0.80182805  0.00147043  0.39505044  1
  Rh  Rh246  1  0.00715589  0.19825919  -0.00435084  1
  Rh  Rh247  1  0.80451145  0.80404532  0.40155015  1
  Rh  Rh248  1  -0.00229668  0.20145464  0.20563412  1
  Rh  Rh249  1  0.40084031  0.38985678  -0.00893015  1
