# generated using pymatgen
data_ZrScNbPdRh
_symmetry_space_group_name_H-M   'P 1'
_cell_length_a   16.55589376
_cell_length_b   16.55614428
_cell_length_c   16.55718264
_cell_angle_alpha   90.01756239
_cell_angle_beta   89.96701775
_cell_angle_gamma   90.02122071
_symmetry_Int_Tables_number   1
_chemical_formula_structural   ZrScNbPdRh
_chemical_formula_sum   'Zr50 Sc50 Nb50 Pd50 Rh50'
_cell_volume   4538.35172408
_cell_formula_units_Z   50
loop_
 _symmetry_equiv_pos_site_id
 _symmetry_equiv_pos_as_xyz
  1  'x, y, z'
loop_
 _atom_site_type_symbol
 _atom_site_label
 _atom_site_symmetry_multiplicity
 _atom_site_fract_x
 _atom_site_fract_y
 _atom_site_fract_z
 _atom_site_occupancy
  Zr  Zr0  1  0.09993937  0.70178636  0.49843339  1
  Zr  Zr1  1  0.30254065  0.90229941  0.29929115  1
  Zr  Zr2  1  0.30023312  0.49935370  0.30767525  1
  Zr  Zr3  1  0.50121605  0.70011936  0.09592673  1
  Zr  Zr4  1  0.09370916  0.30274876  0.49613732  1
  Zr  Zr5  1  0.50381545  0.10514823  0.09343351  1
  Zr  Zr6  1  0.69588650  0.09559413  0.70215108  1
  Zr  Zr7  1  0.91093990  0.50514544  0.70033232  1
  Zr  Zr8  1  0.50448940  0.29961957  0.70069094  1
  Zr  Zr9  1  0.48731290  0.50207898  0.70316488  1
  Zr  Zr10  1  0.29509657  0.69913415  0.50566465  1
  Zr  Zr11  1  0.29025383  0.70407875  0.29983648  1
  Zr  Zr12  1  0.09705013  0.29873761  0.29858316  1
  Zr  Zr13  1  0.09936312  0.49104242  0.29995178  1
  Zr  Zr14  1  0.90517520  0.29288555  0.30408644  1
  Zr  Zr15  1  0.70133675  0.30214395  0.49982011  1
  Zr  Zr16  1  0.30413836  0.09962707  0.50291049  1
  Zr  Zr17  1  0.50045684  0.10268393  0.31457940  1
  Zr  Zr18  1  0.10955677  0.90003275  0.89411609  1
  Zr  Zr19  1  0.50432746  0.29031812  0.49708030  1
  Zr  Zr20  1  0.70301049  0.29722656  0.90343365  1
  Zr  Zr21  1  0.50464924  0.30556648  0.30218809  1
  Zr  Zr22  1  0.29714078  0.09539250  0.31054524  1
  Zr  Zr23  1  0.89828853  0.09894776  0.29881345  1
  Zr  Zr24  1  0.10054494  0.09282708  0.90006523  1
  Zr  Zr25  1  0.09688296  0.50394727  0.90930201  1
  Zr  Zr26  1  0.10033438  0.29910348  0.69087011  1
  Zr  Zr27  1  0.71099733  0.89648814  0.30405584  1
  Zr  Zr28  1  0.90339177  0.09739960  0.69518881  1
  Zr  Zr29  1  0.49682338  0.49572396  0.29619249  1
  Zr  Zr30  1  0.29884634  0.70698837  0.10043771  1
  Zr  Zr31  1  0.70149562  0.29730172  0.09165820  1
  Zr  Zr32  1  0.29903075  0.09481601  0.90107835  1
  Zr  Zr33  1  0.10051122  0.69931931  0.90561157  1
  Zr  Zr34  1  0.70439321  0.70740223  0.70503916  1
  Zr  Zr35  1  0.50328537  0.89553217  0.50444635  1
  Zr  Zr36  1  0.69765954  0.70442724  0.49419305  1
  Zr  Zr37  1  0.88694975  0.89612482  0.69252171  1
  Zr  Zr38  1  0.10267011  0.10154127  0.51097820  1
  Zr  Zr39  1  0.09847410  0.09830412  0.70017057  1
  Zr  Zr40  1  0.48940509  0.70384865  0.70352429  1
  Zr  Zr41  1  0.90416016  0.69965399  0.70053625  1
  Zr  Zr42  1  0.29772346  0.90448337  0.10209447  1
  Zr  Zr43  1  0.70182646  0.69086779  0.90390831  1
  Zr  Zr44  1  0.30000522  0.70967384  0.88754627  1
  Zr  Zr45  1  0.70194307  0.90053542  0.10511898  1
  Zr  Zr46  1  0.89761753  0.30159653  0.90584120  1
  Zr  Zr47  1  0.89646414  0.89989188  0.90616812  1
  Zr  Zr48  1  0.89823003  0.50007554  0.49933670  1
  Zr  Zr49  1  0.49950004  0.49663801  0.49058099  1
  Sc  Sc50  1  0.30335888  0.29798572  0.90562580  1
  Sc  Sc51  1  0.89922923  0.90242187  0.10350528  1
  Sc  Sc52  1  0.49910779  0.31169139  0.09646395  1
  Sc  Sc53  1  0.50261315  0.89693965  0.10924849  1
  Sc  Sc54  1  0.29585601  0.10516747  0.08931189  1
  Sc  Sc55  1  0.10907664  0.90197641  0.50601301  1
  Sc  Sc56  1  0.69828759  0.90504192  0.69437361  1
  Sc  Sc57  1  0.50146302  0.09874332  0.69816656  1
  Sc  Sc58  1  0.70672614  0.09654573  0.09540826  1
  Sc  Sc59  1  0.70333498  0.30577960  0.30452010  1
  Sc  Sc60  1  0.89954874  0.09985456  0.90168302  1
  Sc  Sc61  1  0.30000168  0.29832380  0.09536288  1
  Sc  Sc62  1  0.49768464  0.09971086  0.50748465  1
  Sc  Sc63  1  0.89854002  0.70369482  0.50596706  1
  Sc  Sc64  1  0.89306860  0.69287523  0.90060140  1
  Sc  Sc65  1  0.89572970  0.10405710  0.49603536  1
  Sc  Sc66  1  0.89222983  0.70041397  0.29413123  1
  Sc  Sc67  1  0.70617433  0.09651260  0.30360527  1
  Sc  Sc68  1  0.69793526  0.29958028  0.71124925  1
  Sc  Sc69  1  0.90177499  0.30089274  0.70166849  1
  Sc  Sc70  1  0.50145491  0.50961253  0.90664732  1
  Sc  Sc71  1  0.89990691  0.30405586  0.09709581  1
  Sc  Sc72  1  0.70480194  0.49402079  0.09750416  1
  Sc  Sc73  1  0.09696237  0.49547277  0.50291629  1
  Sc  Sc74  1  0.09605565  0.89748588  0.09408259  1
  Sc  Sc75  1  0.90129181  0.69633907  0.10123260  1
  Sc  Sc76  1  0.50484671  0.70390812  0.49938385  1
  Sc  Sc77  1  0.70000142  0.70054046  0.30150800  1
  Sc  Sc78  1  0.29418334  0.30939923  0.29394538  1
  Sc  Sc79  1  0.30557867  0.49235813  0.09371136  1
  Sc  Sc80  1  0.30236662  0.31499547  0.69946738  1
  Sc  Sc81  1  0.30207787  0.90493423  0.49903045  1
  Sc  Sc82  1  0.89374587  0.49749476  0.28994858  1
  Sc  Sc83  1  0.51031424  0.89287512  0.29260890  1
  Sc  Sc84  1  0.09900493  0.69966473  0.69038032  1
  Sc  Sc85  1  0.69553051  0.10172149  0.50212584  1
  Sc  Sc86  1  0.69804040  0.49441936  0.71544913  1
  Sc  Sc87  1  0.11087294  0.90205850  0.29078869  1
  Sc  Sc88  1  0.10194439  0.90298151  0.69939810  1
  Sc  Sc89  1  0.09422321  0.10539903  0.29554472  1
  Sc  Sc90  1  0.90402664  0.09557076  0.09557334  1
  Sc  Sc91  1  0.49226860  0.09975176  0.89327423  1
  Sc  Sc92  1  0.10339573  0.29822530  0.90775391  1
  Sc  Sc93  1  0.30223231  0.49263394  0.89826427  1
  Sc  Sc94  1  0.70319865  0.50089819  0.30666904  1
  Sc  Sc95  1  0.09865279  0.10241360  0.09723652  1
  Sc  Sc96  1  0.50190300  0.29415445  0.90658682  1
  Sc  Sc97  1  0.90335505  0.30223828  0.49944527  1
  Sc  Sc98  1  0.50192030  0.90168621  0.69561061  1
  Sc  Sc99  1  0.29882661  0.88506595  0.70610661  1
  Nb  Nb100  1  0.30142218  0.69364213  0.69871124  1
  Nb  Nb101  1  0.10111398  0.29981314  0.10468694  1
  Nb  Nb102  1  0.69767270  0.69530225  0.09651145  1
  Nb  Nb103  1  0.09981674  0.69242146  0.10227384  1
  Nb  Nb104  1  0.30197255  0.49748701  0.50354969  1
  Nb  Nb105  1  0.09035733  0.50515747  0.09790959  1
  Nb  Nb106  1  0.90406469  0.49988548  0.90576487  1
  Nb  Nb107  1  0.50063917  0.70190184  0.90009960  1
  Nb  Nb108  1  0.09786646  0.50073495  0.70599046  1
  Nb  Nb109  1  0.70896189  0.50171115  0.90551881  1
  Nb  Nb110  1  0.29194759  0.30020506  0.50464700  1
  Nb  Nb111  1  0.69929112  0.09593542  0.90227333  1
  Nb  Nb112  1  0.49784649  0.50392125  0.10273307  1
  Nb  Nb113  1  0.49801970  0.70255043  0.29245619  1
  Nb  Nb114  1  0.70078075  0.50359436  0.50206349  1
  Nb  Nb115  1  0.88526299  0.90030504  0.49400081  1
  Nb  Nb116  1  0.09836415  0.70060653  0.29803551  1
  Nb  Nb117  1  0.30034850  0.90368851  0.89938789  1
  Nb  Nb118  1  0.49801206  0.90290958  0.89390497  1
  Nb  Nb119  1  0.70131693  0.89624393  0.50000684  1
  Nb  Nb120  1  0.89698702  0.90268608  0.30517539  1
  Nb  Nb121  1  0.90581919  0.49588692  0.09018467  1
  Nb  Nb122  1  0.70139376  0.90022073  0.89792189  1
  Nb  Nb123  1  0.30068368  0.50786805  0.69755355  1
  Nb  Nb124  1  0.29611093  0.10637929  0.70056501  1
  Nb  Nb125  1  0.40471058  0.19829568  0.20279779  1
  Nb  Nb126  1  0.00425578  0.40571329  0.80578193  1
  Nb  Nb127  1  0.20190832  0.59623317  0.79287681  1
  Nb  Nb128  1  0.60483172  -0.00809786  0.40341840  1
  Nb  Nb129  1  0.59399249  0.59882895  0.19565810  1
  Nb  Nb130  1  0.79974010  0.20248510  0.19894017  1
  Nb  Nb131  1  0.60099109  0.20208467  0.20054651  1
  Nb  Nb132  1  0.79631423  0.20071699  0.60430935  1
  Nb  Nb133  1  0.59899331  0.80269538  0.80968606  1
  Nb  Nb134  1  0.40380809  0.80679560  -0.00967982  1
  Nb  Nb135  1  0.60312664  0.59545875  0.60245412  1
  Nb  Nb136  1  0.39883422  0.60163379  0.20025706  1
  Nb  Nb137  1  0.20084263  0.19748792  0.79544619  1
  Nb  Nb138  1  0.59931945  0.40667426  0.59866687  1
  Nb  Nb139  1  -0.00381202  -0.00875840  0.40072802  1
  Nb  Nb140  1  0.79188977  0.59536188  0.60102506  1
  Nb  Nb141  1  0.00195478  0.60668312  0.39444280  1
  Nb  Nb142  1  0.40073413  0.79599186  0.39409748  1
  Nb  Nb143  1  0.19955323  0.20396410  0.40647363  1
  Nb  Nb144  1  0.19486836  0.59842372  0.19571191  1
  Nb  Nb145  1  0.40232689  0.00943345  0.20277396  1
  Nb  Nb146  1  0.60011877  0.80138471  -0.00558505  1
  Nb  Nb147  1  0.60145725  -0.00711492  -0.00941009  1
  Nb  Nb148  1  -0.00126883  0.80460800  0.39496244  1
  Nb  Nb149  1  -0.00361691  0.79993948  0.80072046  1
  Pd  Pd150  1  0.79772027  0.79719496  0.00501655  1
  Pd  Pd151  1  0.80456518  0.40090546  0.39723857  1
  Pd  Pd152  1  0.00151100  0.20031793  0.00377170  1
  Pd  Pd153  1  0.79264505  0.59447710  0.19334349  1
  Pd  Pd154  1  0.20743856  0.19609876  0.20392348  1
  Pd  Pd155  1  0.80318709  0.59311024  0.79643243  1
  Pd  Pd156  1  0.38798448  0.21244015  0.39547917  1
  Pd  Pd157  1  0.40861371  -0.00596112  0.00777367  1
  Pd  Pd158  1  0.39181347  0.60584096  -0.00135726  1
  Pd  Pd159  1  0.39470750  -0.00384441  0.60970468  1
  Pd  Pd160  1  0.59884060  0.40841364  -0.00662095  1
  Pd  Pd161  1  0.19231472  0.59313213  0.39907713  1
  Pd  Pd162  1  0.20127248  0.01063258  0.19349353  1
  Pd  Pd163  1  0.19916598  0.80887718  0.40268099  1
  Pd  Pd164  1  0.40468043  0.39611356  0.59299085  1
  Pd  Pd165  1  0.80071879  0.79679944  0.19598045  1
  Pd  Pd166  1  0.19711780  0.39856338  0.00591257  1
  Pd  Pd167  1  0.59858427  0.60083912  0.39451352  1
  Pd  Pd168  1  0.39678583  0.20591232  0.60779411  1
  Pd  Pd169  1  -0.00463689  0.39558841  0.19586651  1
  Pd  Pd170  1  0.80235900  0.19470780  0.79762049  1
  Pd  Pd171  1  0.21078951  0.59672057  -0.00101286  1
  Pd  Pd172  1  0.19427056  0.59269909  0.60186644  1
  Pd  Pd173  1  0.39384593  0.20547451  0.79647264  1
  Pd  Pd174  1  0.19622339  0.39895508  0.80153764  1
  Pd  Pd175  1  0.40102876  0.60968186  0.39819814  1
  Pd  Pd176  1  0.59894517  0.01032734  0.20477642  1
  Pd  Pd177  1  0.39455992  -0.00417326  0.78880971  1
  Pd  Pd178  1  0.39256426  0.39012494  0.40555700  1
  Pd  Pd179  1  0.00031671  0.81072506  0.59722415  1
  Pd  Pd180  1  0.59210433  0.40441776  0.80770490  1
  Pd  Pd181  1  0.21159766  -0.00614252  0.60988196  1
  Pd  Pd182  1  0.60957182  0.40163310  0.19877210  1
  Pd  Pd183  1  0.00020560  -0.00428704  0.20326312  1
  Pd  Pd184  1  0.20323134  0.80435143  0.00266793  1
  Pd  Pd185  1  0.19818302  0.40854116  0.59834070  1
  Pd  Pd186  1  0.40696639  0.60343894  0.59015235  1
  Pd  Pd187  1  0.59746219  0.19391015  0.80631383  1
  Pd  Pd188  1  0.40600617  0.39890935  0.80931591  1
  Pd  Pd189  1  -0.00754160  -0.00917211  0.58958504  1
  Pd  Pd190  1  -0.00032369  0.59793390  0.20493003  1
  Pd  Pd191  1  0.59760675  0.60339378  0.79651782  1
  Pd  Pd192  1  0.20042489  0.40831452  0.18743724  1
  Pd  Pd193  1  0.00155189  0.80349428  0.20289018  1
  Pd  Pd194  1  0.80964354  0.40370095  0.80151428  1
  Pd  Pd195  1  0.00671048  0.20820849  0.80308219  1
  Pd  Pd196  1  0.80178314  0.00077462  0.80101855  1
  Pd  Pd197  1  0.79361353  0.39880782  0.60970194  1
  Pd  Pd198  1  -0.00502104  0.79550860  -0.00250644  1
  Pd  Pd199  1  -0.00681691  -0.01057441  0.79999726  1
  Rh  Rh200  1  -0.00974195  0.60664906  0.00125805  1
  Rh  Rh201  1  -0.01285669  0.20304712  0.59767269  1
  Rh  Rh202  1  0.80425236  0.59274803  0.00661015  1
  Rh  Rh203  1  -0.00874148  0.41038602  0.39444793  1
  Rh  Rh204  1  0.00898961  0.60238200  0.80747080  1
  Rh  Rh205  1  0.40103522  0.20202572  0.00510217  1
  Rh  Rh206  1  -0.00172934  0.59763305  0.58934655  1
  Rh  Rh207  1  0.60334036  0.79499259  0.61131177  1
  Rh  Rh208  1  0.40592613  0.39933233  -0.00333385  1
  Rh  Rh209  1  0.80148334  0.40472997  -0.00174227  1
  Rh  Rh210  1  0.79649727  0.00480440  0.40610104  1
  Rh  Rh211  1  0.80582628  0.79080975  0.40036372  1
  Rh  Rh212  1  0.79727412  0.00011126  -0.00113716  1
  Rh  Rh213  1  0.00074347  0.40054528  0.60621127  1
  Rh  Rh214  1  0.00603485  0.39506922  0.00126747  1
  Rh  Rh215  1  0.80264756  0.19427191  0.00285905  1
  Rh  Rh216  1  0.80566364  0.00580909  0.19661107  1
  Rh  Rh217  1  0.19521037  -0.00264878  0.00173562  1
  Rh  Rh218  1  0.18776535  0.78886037  0.79129192  1
  Rh  Rh219  1  0.80837036  0.60391668  0.40621204  1
  Rh  Rh220  1  0.41691364  -0.01762619  0.39332541  1
  Rh  Rh221  1  0.61364691  0.78890130  0.19511450  1
  Rh  Rh222  1  0.79413408  0.79438753  0.59631514  1
  Rh  Rh223  1  0.19643263  0.20094279  -0.00643710  1
  Rh  Rh224  1  0.39640056  0.80380615  0.20105878  1
  Rh  Rh225  1  0.20646581  0.20313438  0.60243426  1
  Rh  Rh226  1  0.60095401  -0.00239384  0.80244940  1
  Rh  Rh227  1  0.18529096  0.01016667  0.40130921  1
  Rh  Rh228  1  -0.00675432  0.20507566  0.18982095  1
  Rh  Rh229  1  0.59498545  0.80465991  0.39586021  1
  Rh  Rh230  1  0.80021927  0.80434173  0.80334706  1
  Rh  Rh231  1  0.20485328  0.80009425  0.60273606  1
  Rh  Rh232  1  0.39478674  0.79827341  0.59318807  1
  Rh  Rh233  1  0.00853605  0.18772840  0.40826225  1
  Rh  Rh234  1  0.40526007  0.80555477  0.80130257  1
  Rh  Rh235  1  0.20849947  0.00534705  0.79411914  1
  Rh  Rh236  1  0.60684334  0.20736447  0.60518035  1
  Rh  Rh237  1  0.60566098  0.59700626  0.00418138  1
  Rh  Rh238  1  0.60345869  0.19169222  -0.00247242  1
  Rh  Rh239  1  0.18976096  0.79598792  0.19158168  1
  Rh  Rh240  1  0.60095792  -0.00135598  0.59286439  1
  Rh  Rh241  1  0.00227167  -0.00246723  -0.00168841  1
  Rh  Rh242  1  0.79645347  0.00853229  0.59413276  1
  Rh  Rh243  1  0.60489679  0.40238660  0.40509707  1
  Rh  Rh244  1  0.20331410  0.39658059  0.40976223  1
  Rh  Rh245  1  0.39136722  0.59678191  0.80828275  1
  Rh  Rh246  1  0.39612849  0.39942330  0.19631616  1
  Rh  Rh247  1  0.79651680  0.20236208  0.40156122  1
  Rh  Rh248  1  0.60957318  0.19321181  0.39564107  1
  Rh  Rh249  1  0.80152316  0.39397852  0.19699525  1
