# generated using pymatgen
data_ZrScNbPdRh
_symmetry_space_group_name_H-M   'P 1'
_cell_length_a   16.56063562
_cell_length_b   16.55928295
_cell_length_c   16.56054849
_cell_angle_alpha   89.98763657
_cell_angle_beta   90.04559432
_cell_angle_gamma   90.01464785
_symmetry_Int_Tables_number   1
_chemical_formula_structural   ZrScNbPdRh
_chemical_formula_sum   'Zr50 Sc50 Nb50 Pd50 Rh50'
_cell_volume   4541.43480238
_cell_formula_units_Z   50
loop_
 _symmetry_equiv_pos_site_id
 _symmetry_equiv_pos_as_xyz
  1  'x, y, z'
loop_
 _atom_site_type_symbol
 _atom_site_label
 _atom_site_symmetry_multiplicity
 _atom_site_fract_x
 _atom_site_fract_y
 _atom_site_fract_z
 _atom_site_occupancy
  Zr  Zr0  1  0.09303689  0.90390635  0.89933331  1
  Zr  Zr1  1  0.49548824  0.90396847  0.50030155  1
  Zr  Zr2  1  0.70571599  0.48474999  0.70844863  1
  Zr  Zr3  1  0.70529319  0.90488990  0.09904070  1
  Zr  Zr4  1  0.90411056  0.70209311  0.90548294  1
  Zr  Zr5  1  0.50354005  0.49625926  0.30266102  1
  Zr  Zr6  1  0.70114045  0.70472865  0.71292637  1
  Zr  Zr7  1  0.89196445  0.10288965  0.09694781  1
  Zr  Zr8  1  0.69863226  0.69586765  0.30329035  1
  Zr  Zr9  1  0.89495173  0.49317152  0.89891383  1
  Zr  Zr10  1  0.30056272  0.10842828  0.69919099  1
  Zr  Zr11  1  0.09064881  0.50172433  0.50309491  1
  Zr  Zr12  1  0.90148204  0.29739841  0.29841069  1
  Zr  Zr13  1  0.70627235  0.10443624  0.89338170  1
  Zr  Zr14  1  0.09936993  0.10325816  0.10271917  1
  Zr  Zr15  1  0.30189199  0.89768488  0.30108932  1
  Zr  Zr16  1  0.29853695  0.49442176  0.08739168  1
  Zr  Zr17  1  0.29697059  0.09460909  0.50490131  1
  Zr  Zr18  1  0.50515048  0.70660755  0.30007791  1
  Zr  Zr19  1  0.49711154  0.09249646  0.88876881  1
  Zr  Zr20  1  0.50533335  0.69711475  0.09928378  1
  Zr  Zr21  1  0.28898263  0.90077315  0.49714884  1
  Zr  Zr22  1  0.49454252  0.10881074  0.50042591  1
  Zr  Zr23  1  0.09506996  0.70462125  0.50279107  1
  Zr  Zr24  1  0.30431569  0.69742363  0.09744738  1
  Zr  Zr25  1  0.70125433  0.10375636  0.50095639  1
  Zr  Zr26  1  0.50753587  0.89986006  0.10268378  1
  Zr  Zr27  1  0.10366403  0.90605632  0.09970974  1
  Zr  Zr28  1  0.50847724  0.69495073  0.50107520  1
  Zr  Zr29  1  0.49777208  0.29986728  0.30144125  1
  Zr  Zr30  1  0.29955672  0.68717728  0.70126839  1
  Zr  Zr31  1  0.50663017  0.69295167  0.89145556  1
  Zr  Zr32  1  0.88913382  0.89827074  0.69080299  1
  Zr  Zr33  1  0.90305895  0.70080318  0.10373309  1
  Zr  Zr34  1  0.09467053  0.89540116  0.50248698  1
  Zr  Zr35  1  0.50281984  0.49944857  0.90106279  1
  Zr  Zr36  1  0.90053646  0.30226540  0.09709874  1
  Zr  Zr37  1  0.09451277  0.29938668  0.70007259  1
  Zr  Zr38  1  0.29942259  0.10385296  0.89553098  1
  Zr  Zr39  1  0.30069852  0.91278127  0.89960325  1
  Zr  Zr40  1  0.09412489  0.09212051  0.50209561  1
  Zr  Zr41  1  0.90044486  0.70518521  0.69919469  1
  Zr  Zr42  1  0.50361547  0.89539494  0.29871935  1
  Zr  Zr43  1  0.30009967  0.70625170  0.30329977  1
  Zr  Zr44  1  0.09560953  0.29745193  0.29611110  1
  Zr  Zr45  1  0.10083834  0.50031306  0.09791672  1
  Zr  Zr46  1  0.49549842  0.29977006  0.09409975  1
  Zr  Zr47  1  0.89945871  0.50012856  0.69937449  1
  Zr  Zr48  1  0.70604139  0.69822014  0.09876811  1
  Zr  Zr49  1  0.09481280  0.10763594  0.70188375  1
  Sc  Sc50  1  0.89705571  0.50594795  0.50059744  1
  Sc  Sc51  1  0.08683106  0.30151785  0.50299703  1
  Sc  Sc52  1  0.30398168  0.49504858  0.50682556  1
  Sc  Sc53  1  0.10129774  0.90020172  0.30777961  1
  Sc  Sc54  1  0.90259476  0.90516036  0.89717916  1
  Sc  Sc55  1  0.49407361  0.49973007  0.69776767  1
  Sc  Sc56  1  0.30622140  0.29619768  0.50212238  1
  Sc  Sc57  1  0.69948507  0.90157031  0.29489426  1
  Sc  Sc58  1  0.29253406  0.90519014  0.69831059  1
  Sc  Sc59  1  0.89917404  0.50505977  0.30329265  1
  Sc  Sc60  1  0.50034272  0.49732996  0.10092164  1
  Sc  Sc61  1  0.71230425  0.09182317  0.29804394  1
  Sc  Sc62  1  0.89632791  0.09281854  0.49468837  1
  Sc  Sc63  1  0.50416275  0.90975851  0.71615477  1
  Sc  Sc64  1  0.70382353  0.30884167  0.30641706  1
  Sc  Sc65  1  0.89888618  0.10176334  0.69601530  1
  Sc  Sc66  1  0.89817388  0.30002991  0.69345003  1
  Sc  Sc67  1  0.09433614  0.49068170  0.29646323  1
  Sc  Sc68  1  0.08674707  0.70255676  0.29872385  1
  Sc  Sc69  1  0.89815571  0.89571857  0.09604796  1
  Sc  Sc70  1  0.90367969  0.69517475  0.29702186  1
  Sc  Sc71  1  0.29986742  0.49352801  0.89516571  1
  Sc  Sc72  1  0.70564550  0.50290857  0.09995348  1
  Sc  Sc73  1  0.70676368  0.30345159  0.10091879  1
  Sc  Sc74  1  0.09946799  0.30716606  0.10684872  1
  Sc  Sc75  1  0.90174083  0.50218012  0.10135805  1
  Sc  Sc76  1  0.70314760  0.09278227  0.09895152  1
  Sc  Sc77  1  0.28924989  0.09409739  0.29864098  1
  Sc  Sc78  1  0.30587576  0.30242317  0.89756980  1
  Sc  Sc79  1  0.70245755  0.90412803  0.88655859  1
  Sc  Sc80  1  0.50089911  0.28850991  0.90117500  1
  Sc  Sc81  1  0.70517226  0.50089776  0.49737220  1
  Sc  Sc82  1  0.08798426  0.69742263  0.09354922  1
  Sc  Sc83  1  0.28877369  0.09129331  0.09597696  1
  Sc  Sc84  1  0.70491980  0.30635319  0.88923466  1
  Sc  Sc85  1  0.70050396  0.69222148  0.50144868  1
  Sc  Sc86  1  0.28945131  0.70747544  0.50688080  1
  Sc  Sc87  1  0.90091355  0.89833290  0.29868896  1
  Sc  Sc88  1  0.71491735  0.90832814  0.50544175  1
  Sc  Sc89  1  0.50984967  0.09911972  0.08514032  1
  Sc  Sc90  1  0.70636870  0.50354689  0.30500313  1
  Sc  Sc91  1  0.50576838  0.30419235  0.69940602  1
  Sc  Sc92  1  0.30525751  0.67966681  0.90449613  1
  Sc  Sc93  1  0.50547606  0.49717366  0.50711040  1
  Sc  Sc94  1  0.29498185  0.30224032  0.29774161  1
  Sc  Sc95  1  0.70223350  0.29903575  0.50339846  1
  Sc  Sc96  1  0.29510516  0.48622001  0.30176692  1
  Sc  Sc97  1  0.70472198  0.50314597  0.89574283  1
  Sc  Sc98  1  0.08722435  0.89848086  0.70027880  1
  Sc  Sc99  1  0.50353837  0.29935980  0.50004324  1
  Nb  Nb100  1  0.69600787  0.10131611  0.69942623  1
  Nb  Nb101  1  0.29828951  0.90104741  0.09972985  1
  Nb  Nb102  1  0.69716643  0.28884020  0.70250616  1
  Nb  Nb103  1  0.10261602  0.49969511  0.70497153  1
  Nb  Nb104  1  0.50235825  0.10019538  0.29800429  1
  Nb  Nb105  1  0.69653838  0.69584181  0.90204588  1
  Nb  Nb106  1  0.90176269  0.70380863  0.49943222  1
  Nb  Nb107  1  0.10122323  0.50017503  0.90190125  1
  Nb  Nb108  1  0.90470735  0.29663413  0.90309329  1
  Nb  Nb109  1  0.09105114  0.10632926  0.89999564  1
  Nb  Nb110  1  0.90418539  0.09951744  0.29595824  1
  Nb  Nb111  1  0.90133558  0.89336670  0.50504211  1
  Nb  Nb112  1  0.49864924  0.89895661  0.89975421  1
  Nb  Nb113  1  0.29585173  0.49119108  0.70406705  1
  Nb  Nb114  1  0.09753666  0.70132564  0.90089061  1
  Nb  Nb115  1  0.29554339  0.31205124  0.70165112  1
  Nb  Nb116  1  0.70190134  0.90370857  0.69788656  1
  Nb  Nb117  1  0.10442825  0.69865537  0.70201808  1
  Nb  Nb118  1  0.89944464  0.30381567  0.49900422  1
  Nb  Nb119  1  0.08948271  0.29467062  0.89759460  1
  Nb  Nb120  1  0.30304265  0.29549813  0.09247466  1
  Nb  Nb121  1  0.49981913  0.70286461  0.69907096  1
  Nb  Nb122  1  0.50582101  0.10376090  0.69901747  1
  Nb  Nb123  1  0.09481000  0.10303912  0.29957704  1
  Nb  Nb124  1  0.91108950  0.11370358  0.90565921  1
  Nb  Nb125  1  0.40298928  0.80424732  -0.00568281  1
  Nb  Nb126  1  0.20425494  0.79959068  -0.00403890  1
  Nb  Nb127  1  0.60144329  0.40015185  -0.00234310  1
  Nb  Nb128  1  0.20090702  0.79764231  0.19340663  1
  Nb  Nb129  1  0.19690658  0.40203265  0.60923483  1
  Nb  Nb130  1  0.19898243  0.59872905  0.39723760  1
  Nb  Nb131  1  0.40214701  0.19360345  0.19604220  1
  Nb  Nb132  1  0.59590599  0.19954751  0.20305430  1
  Nb  Nb133  1  0.20299612  0.60192493  0.20201689  1
  Nb  Nb134  1  0.19980795  0.79286022  0.80598092  1
  Nb  Nb135  1  0.40404283  0.00127805  0.19835402  1
  Nb  Nb136  1  0.00022747  0.00755390  0.20252938  1
  Nb  Nb137  1  0.39703959  0.60093895  0.39697743  1
  Nb  Nb138  1  0.00834882  0.59866245  0.80144067  1
  Nb  Nb139  1  0.60082182  0.80711930  0.60873468  1
  Nb  Nb140  1  0.80642801  0.79803340  0.40674560  1
  Nb  Nb141  1  0.60171723  0.79896223  -0.00879879  1
  Nb  Nb142  1  0.00380808  0.40221120  0.80399622  1
  Nb  Nb143  1  0.39652430  0.59888341  0.20649058  1
  Nb  Nb144  1  0.19033255  0.19614862  0.40070936  1
  Nb  Nb145  1  0.39731857  0.79765924  0.80213071  1
  Nb  Nb146  1  0.19229858  0.20157397  -0.00629024  1
  Nb  Nb147  1  0.59691460  0.00502566  0.40445556  1
  Nb  Nb148  1  0.40622173  0.79961283  0.60867319  1
  Nb  Nb149  1  0.60102539  0.00411546  0.60334552  1
  Pd  Pd150  1  0.59925693  0.59437951  0.20085138  1
  Pd  Pd151  1  0.79149543  0.20147384  0.20356453  1
  Pd  Pd152  1  0.80155839  0.20201590  0.39731423  1
  Pd  Pd153  1  0.80000279  0.79942166  0.20928110  1
  Pd  Pd154  1  -0.00664821  -0.00600580  0.39639415  1
  Pd  Pd155  1  0.40134337  0.40353784  0.40801974  1
  Pd  Pd156  1  -0.00814516  0.40322158  0.39828032  1
  Pd  Pd157  1  0.00051421  0.40179626  -0.00124063  1
  Pd  Pd158  1  -0.00961414  0.00436775  0.79427193  1
  Pd  Pd159  1  0.20051080  0.59157852  0.59289922  1
  Pd  Pd160  1  0.40865177  0.39678788  0.80220764  1
  Pd  Pd161  1  0.19695496  0.38825641  -0.00724642  1
  Pd  Pd162  1  0.39758712  0.60144467  0.59422233  1
  Pd  Pd163  1  -0.00667315  0.00151274  0.00713357  1
  Pd  Pd164  1  0.60909007  -0.00524360  -0.01251647  1
  Pd  Pd165  1  0.19586599  0.39563388  0.41378964  1
  Pd  Pd166  1  -0.00127673  0.19866394  0.40687471  1
  Pd  Pd167  1  0.79801353  0.39626339  0.59671927  1
  Pd  Pd168  1  0.79288234  0.20552423  -0.00289642  1
  Pd  Pd169  1  -0.00076940  0.60346257  0.60672299  1
  Pd  Pd170  1  0.19760000  0.59966248  0.80736631  1
  Pd  Pd171  1  0.60575959  0.39545421  0.19363182  1
  Pd  Pd172  1  0.80339075  0.80069368  0.80851780  1
  Pd  Pd173  1  0.79438128  0.60257726  0.60435762  1
  Pd  Pd174  1  0.19981330  0.20787653  0.80560864  1
  Pd  Pd175  1  0.80494268  0.19848625  0.59720861  1
  Pd  Pd176  1  0.40056718  0.00655331  0.39200275  1
  Pd  Pd177  1  0.19621395  0.21020130  0.59225758  1
  Pd  Pd178  1  0.40184680  0.00215392  0.00780728  1
  Pd  Pd179  1  0.19142879  0.00065462  0.79608776  1
  Pd  Pd180  1  0.80962055  0.00858835  0.80002655  1
  Pd  Pd181  1  0.39937406  0.79259226  0.41518971  1
  Pd  Pd182  1  0.60157280  0.58939514  0.79057736  1
  Pd  Pd183  1  0.61262671  0.20711154  0.00127318  1
  Pd  Pd184  1  0.19016137  -0.00249274  0.60900926  1
  Pd  Pd185  1  0.61068281  0.59882560  0.61067798  1
  Pd  Pd186  1  0.40309573  0.20961519  0.60777325  1
  Pd  Pd187  1  0.79394914  0.80534379  -0.00997301  1
  Pd  Pd188  1  0.61695716  0.81233503  0.41444809  1
  Pd  Pd189  1  0.20774032  0.20333992  0.19824395  1
  Pd  Pd190  1  0.80481075  0.59594140  -0.00060250  1
  Pd  Pd191  1  0.40350109  0.20782967  0.79038727  1
  Pd  Pd192  1  0.80372985  0.40749662  0.20311922  1
  Pd  Pd193  1  0.40477957  -0.00559602  0.61109611  1
  Pd  Pd194  1  0.39302891  0.39828505  0.19661401  1
  Pd  Pd195  1  0.60564143  0.39787157  0.60032630  1
  Pd  Pd196  1  0.60482924  0.40225141  0.40720662  1
  Pd  Pd197  1  0.60870302  0.19673450  0.39204871  1
  Pd  Pd198  1  0.38508900  0.19507850  0.38984438  1
  Pd  Pd199  1  0.80869545  0.20258391  0.79722408  1
  Rh  Rh200  1  0.59965291  0.19951759  0.60348180  1
  Rh  Rh201  1  0.00293990  0.80518344  0.00168582  1
  Rh  Rh202  1  0.00633988  0.81264014  0.19636210  1
  Rh  Rh203  1  0.00511677  0.59419681  0.19939620  1
  Rh  Rh204  1  -0.00481032  0.00026445  0.60231027  1
  Rh  Rh205  1  0.79147704  0.79190976  0.59381293  1
  Rh  Rh206  1  0.80436405  0.00342517  -0.01138568  1
  Rh  Rh207  1  0.00425616  0.60025497  0.40022234  1
  Rh  Rh208  1  0.80287054  -0.00803284  0.39611213  1
  Rh  Rh209  1  0.59821450  0.19990332  0.80019138  1
  Rh  Rh210  1  -0.00775187  0.80145635  0.39971725  1
  Rh  Rh211  1  0.00200248  0.79793131  0.60551100  1
  Rh  Rh212  1  0.20210350  0.80285794  0.61327592  1
  Rh  Rh213  1  0.40914292  0.59580796  0.00536300  1
  Rh  Rh214  1  0.39644112  0.00162724  0.79169764  1
  Rh  Rh215  1  0.79344603  0.39838232  -0.00245877  1
  Rh  Rh216  1  0.19208240  0.39470412  0.80108125  1
  Rh  Rh217  1  -0.00987065  0.20510286  0.79437943  1
  Rh  Rh218  1  0.19225618  0.60277764  0.00354541  1
  Rh  Rh219  1  0.18837278  0.79168467  0.39344365  1
  Rh  Rh220  1  0.80786056  0.60742848  0.80318969  1
  Rh  Rh221  1  0.80297311  0.60124487  0.20159566  1
  Rh  Rh222  1  0.80520181  0.60892510  0.40054879  1
  Rh  Rh223  1  -0.00823051  0.40115987  0.20082196  1
  Rh  Rh224  1  0.80962113  0.38800752  0.79757208  1
  Rh  Rh225  1  -0.00876505  0.19771559  0.59316178  1
  Rh  Rh226  1  0.59674509  0.00822644  0.20680384  1
  Rh  Rh227  1  0.00587562  0.20619013  0.01071935  1
  Rh  Rh228  1  0.80642578  0.39973102  0.40424722  1
  Rh  Rh229  1  0.19322589  0.00633990  -0.01313031  1
  Rh  Rh230  1  0.59785257  0.80235237  0.80072761  1
  Rh  Rh231  1  -0.00560911  0.19729899  0.19426498  1
  Rh  Rh232  1  0.60523730  0.00546437  0.79880851  1
  Rh  Rh233  1  0.38791549  0.18907637  0.00474539  1
  Rh  Rh234  1  0.59464043  0.59117218  0.40023539  1
  Rh  Rh235  1  -0.00252697  0.59515594  -0.00558587  1
  Rh  Rh236  1  0.61373373  0.79900753  0.18906894  1
  Rh  Rh237  1  0.81205365  -0.00298636  0.19880029  1
  Rh  Rh238  1  0.40184454  0.59512543  0.79589022  1
  Rh  Rh239  1  0.20496514  0.40237231  0.19197404  1
  Rh  Rh240  1  0.60321618  0.59646277  0.00113129  1
  Rh  Rh241  1  0.19709181  -0.00881311  0.21025111  1
  Rh  Rh242  1  0.19507379  0.00554946  0.39994002  1
  Rh  Rh243  1  0.39551824  0.39609628  0.60146592  1
  Rh  Rh244  1  0.39531097  0.80477587  0.18944790  1
  Rh  Rh245  1  -0.00049176  0.40242290  0.60444833  1
  Rh  Rh246  1  0.79829941  0.00872558  0.60288866  1
  Rh  Rh247  1  0.00316375  0.79361937  0.79719833  1
  Rh  Rh248  1  0.40667548  0.40017431  -0.00727605  1
  Rh  Rh249  1  0.59837975  0.39729063  0.80363018  1
