# generated using pymatgen
data_ZrScNbPdRh
_symmetry_space_group_name_H-M   'P 1'
_cell_length_a   16.55877581
_cell_length_b   16.55580442
_cell_length_c   16.55901346
_cell_angle_alpha   90.01352230
_cell_angle_beta   90.00630551
_cell_angle_gamma   89.99944391
_symmetry_Int_Tables_number   1
_chemical_formula_structural   ZrScNbPdRh
_chemical_formula_sum   'Zr50 Sc50 Nb50 Pd50 Rh50'
_cell_volume   4539.55160843
_cell_formula_units_Z   50
loop_
 _symmetry_equiv_pos_site_id
 _symmetry_equiv_pos_as_xyz
  1  'x, y, z'
loop_
 _atom_site_type_symbol
 _atom_site_label
 _atom_site_symmetry_multiplicity
 _atom_site_fract_x
 _atom_site_fract_y
 _atom_site_fract_z
 _atom_site_occupancy
  Zr  Zr0  1  0.70335278  0.90217644  0.89660911  1
  Zr  Zr1  1  0.69591638  0.29976173  0.29288156  1
  Zr  Zr2  1  0.50899124  0.70117670  0.70363297  1
  Zr  Zr3  1  0.29692268  0.10679303  0.10218564  1
  Zr  Zr4  1  0.70048994  0.89584534  0.10654017  1
  Zr  Zr5  1  0.10491420  0.10180320  0.69971697  1
  Zr  Zr6  1  0.29616208  0.29539991  0.49848951  1
  Zr  Zr7  1  0.90719770  0.10217638  0.09690772  1
  Zr  Zr8  1  0.70639719  0.70169935  0.28363339  1
  Zr  Zr9  1  0.49765620  0.10423261  0.29815707  1
  Zr  Zr10  1  0.69792541  0.10631986  0.10265532  1
  Zr  Zr11  1  0.89876466  0.89558535  0.49237522  1
  Zr  Zr12  1  0.10367469  0.30849917  0.30557093  1
  Zr  Zr13  1  0.30013786  0.50046996  0.90426466  1
  Zr  Zr14  1  0.70218459  0.49332786  0.29591364  1
  Zr  Zr15  1  0.69970005  0.50287560  0.70902431  1
  Zr  Zr16  1  0.90291576  0.50140462  0.50710828  1
  Zr  Zr17  1  0.09931982  0.30445917  0.10521675  1
  Zr  Zr18  1  0.29187965  0.90305142  0.30296160  1
  Zr  Zr19  1  0.90288332  0.69137128  0.91179577  1
  Zr  Zr20  1  0.90125700  0.89325020  0.29898631  1
  Zr  Zr21  1  0.69579611  0.50088212  0.09020676  1
  Zr  Zr22  1  0.49148465  0.50020214  0.29120078  1
  Zr  Zr23  1  0.89869138  0.30726052  0.29210186  1
  Zr  Zr24  1  0.10181547  0.49479367  0.49365079  1
  Zr  Zr25  1  0.50064865  0.68816820  0.10265700  1
  Zr  Zr26  1  0.50411782  0.28699547  0.88317994  1
  Zr  Zr27  1  0.90274700  0.68644786  0.69953590  1
  Zr  Zr28  1  0.89567371  0.49219391  0.69966197  1
  Zr  Zr29  1  0.89577952  0.70064505  0.10169927  1
  Zr  Zr30  1  0.90159057  0.69707531  0.49387636  1
  Zr  Zr31  1  0.88938103  0.90763286  0.70606797  1
  Zr  Zr32  1  0.49215241  0.69780048  0.89446242  1
  Zr  Zr33  1  0.29725342  0.89811528  0.90577087  1
  Zr  Zr34  1  0.69623933  0.10637702  0.89860093  1
  Zr  Zr35  1  0.50089447  0.50056649  0.50595319  1
  Zr  Zr36  1  0.50536682  0.10883557  0.49756280  1
  Zr  Zr37  1  0.29723833  0.29825447  0.89711559  1
  Zr  Zr38  1  0.89671018  0.09992266  0.49992650  1
  Zr  Zr39  1  0.28978618  0.90894031  0.69339360  1
  Zr  Zr40  1  0.49390430  0.89216737  0.69653411  1
  Zr  Zr41  1  0.90577329  0.29930750  0.70652098  1
  Zr  Zr42  1  0.90014149  0.70069356  0.30371522  1
  Zr  Zr43  1  0.91631074  0.90245642  0.10080936  1
  Zr  Zr44  1  0.10130014  0.49965349  0.29948696  1
  Zr  Zr45  1  0.49874729  0.89901840  0.90205103  1
  Zr  Zr46  1  0.29120549  0.10116004  0.69894675  1
  Zr  Zr47  1  0.49965363  0.10129929  0.09742520  1
  Zr  Zr48  1  0.30366057  0.10326378  0.30651327  1
  Zr  Zr49  1  0.69914636  0.89898026  0.30181755  1
  Sc  Sc50  1  0.69019784  0.90222986  0.50534970  1
  Sc  Sc51  1  0.70632392  0.49478799  0.50747908  1
  Sc  Sc52  1  0.30836202  0.71295511  0.69877220  1
  Sc  Sc53  1  0.09856846  0.30142952  0.89544277  1
  Sc  Sc54  1  0.11219689  0.90004281  0.49486416  1
  Sc  Sc55  1  0.10767914  0.50032411  0.10163483  1
  Sc  Sc56  1  0.91186644  0.10167952  0.30719823  1
  Sc  Sc57  1  0.08961072  0.49245741  0.69807442  1
  Sc  Sc58  1  0.68636865  0.10585716  0.30219212  1
  Sc  Sc59  1  0.70083260  0.30320541  0.90037745  1
  Sc  Sc60  1  0.89579806  0.10733296  0.70312416  1
  Sc  Sc61  1  0.29543988  0.50458985  0.29756335  1
  Sc  Sc62  1  0.70003469  0.70103809  0.50059551  1
  Sc  Sc63  1  0.29292548  0.49411074  0.49922892  1
  Sc  Sc64  1  0.09577678  0.89948366  0.91248157  1
  Sc  Sc65  1  0.90349693  0.49342617  0.08933020  1
  Sc  Sc66  1  0.89866339  0.29899942  0.50356669  1
  Sc  Sc67  1  0.49856786  0.30439909  0.10379776  1
  Sc  Sc68  1  0.50702170  0.49425401  0.70538584  1
  Sc  Sc69  1  0.49817322  0.29347408  0.29312982  1
  Sc  Sc70  1  0.30317267  0.90270749  0.50536374  1
  Sc  Sc71  1  0.10612402  0.09455706  0.30217470  1
  Sc  Sc72  1  0.70088095  0.30237062  0.70251627  1
  Sc  Sc73  1  0.29430219  0.89484361  0.10072172  1
  Sc  Sc74  1  0.30113912  0.48848837  0.70778682  1
  Sc  Sc75  1  0.90163608  0.11006094  0.89408664  1
  Sc  Sc76  1  0.49409155  0.49512030  0.09787022  1
  Sc  Sc77  1  0.49752569  0.70246694  0.50786501  1
  Sc  Sc78  1  0.90377455  0.90309825  0.90784168  1
  Sc  Sc79  1  0.89941876  0.49859617  0.30999066  1
  Sc  Sc80  1  0.11280707  0.69734674  0.30485288  1
  Sc  Sc81  1  0.69776074  0.28965355  0.50167628  1
  Sc  Sc82  1  0.29557436  0.29709243  0.69390175  1
  Sc  Sc83  1  0.68920264  0.89934397  0.69965844  1
  Sc  Sc84  1  0.09839985  0.10571572  0.49208124  1
  Sc  Sc85  1  0.29813229  0.30365809  0.10152315  1
  Sc  Sc86  1  0.70611386  0.30511031  0.10068135  1
  Sc  Sc87  1  0.10503819  0.10755141  0.89278912  1
  Sc  Sc88  1  0.30242161  0.29555530  0.29642774  1
  Sc  Sc89  1  0.09778812  0.69697732  0.91320746  1
  Sc  Sc90  1  0.49881706  0.49526434  0.89650845  1
  Sc  Sc91  1  0.10044723  0.90400218  0.29661475  1
  Sc  Sc92  1  0.10407385  0.69873372  0.49616171  1
  Sc  Sc93  1  0.50152953  0.90379947  0.50532630  1
  Sc  Sc94  1  0.70643910  0.09999649  0.69795541  1
  Sc  Sc95  1  0.50351299  0.91243104  0.29196574  1
  Sc  Sc96  1  0.10432879  0.70144480  0.09791468  1
  Sc  Sc97  1  0.29503819  0.70413932  0.49577740  1
  Sc  Sc98  1  0.50059031  0.90572590  0.09897065  1
  Sc  Sc99  1  0.30148106  0.49865616  0.10066791  1
  Nb  Nb100  1  0.10860601  0.30628039  0.50725443  1
  Nb  Nb101  1  0.29793115  0.09937372  0.49544140  1
  Nb  Nb102  1  0.49471070  0.69080135  0.29914310  1
  Nb  Nb103  1  0.90250965  0.30358823  0.90839488  1
  Nb  Nb104  1  0.10348682  0.70482797  0.69921409  1
  Nb  Nb105  1  0.30116644  0.69629718  0.29537658  1
  Nb  Nb106  1  0.90495152  0.29801044  0.09343373  1
  Nb  Nb107  1  0.29480766  0.70106131  0.90818201  1
  Nb  Nb108  1  0.49717704  0.11421790  0.70883552  1
  Nb  Nb109  1  0.70336729  0.49919616  0.90060248  1
  Nb  Nb110  1  0.10416994  0.90199634  0.69824218  1
  Nb  Nb111  1  0.10121780  0.29455294  0.69032240  1
  Nb  Nb112  1  0.49519772  0.10204281  0.89847108  1
  Nb  Nb113  1  0.09956194  0.50759173  0.90193477  1
  Nb  Nb114  1  0.49969767  0.30123849  0.50583565  1
  Nb  Nb115  1  0.70367936  0.69656853  0.09184996  1
  Nb  Nb116  1  0.69639581  0.09746928  0.49434971  1
  Nb  Nb117  1  0.50390745  0.29073356  0.69043574  1
  Nb  Nb118  1  0.90517562  0.49540542  0.89858284  1
  Nb  Nb119  1  0.30061463  0.10330744  0.89675682  1
  Nb  Nb120  1  0.69643729  0.70196365  0.71031287  1
  Nb  Nb121  1  0.09606275  0.09191709  0.10485026  1
  Nb  Nb122  1  0.69886019  0.69408837  0.90253078  1
  Nb  Nb123  1  0.09779314  0.91317285  0.10022973  1
  Nb  Nb124  1  0.29643094  0.69594929  0.09244722  1
  Nb  Nb125  1  0.39693795  0.79066919  0.20433582  1
  Nb  Nb126  1  0.19929294  0.60597376  0.79983745  1
  Nb  Nb127  1  0.59674326  0.59903768  0.39393097  1
  Nb  Nb128  1  0.19409438  0.79797878  0.80227095  1
  Nb  Nb129  1  0.80379014  0.00228805  0.20222172  1
  Nb  Nb130  1  -0.00021303  0.59872355  0.20246556  1
  Nb  Nb131  1  0.80058331  0.00540959  0.00691313  1
  Nb  Nb132  1  0.00619050  -0.00397766  0.79381397  1
  Nb  Nb133  1  0.60541073  0.78946781  0.00015923  1
  Nb  Nb134  1  0.80311296  0.79526670  0.60839722  1
  Nb  Nb135  1  0.40395048  0.79635780  0.38899771  1
  Nb  Nb136  1  0.00126017  -0.00500085  0.60231907  1
  Nb  Nb137  1  0.00187911  0.20496056  0.19575870  1
  Nb  Nb138  1  0.39601140  0.59795405  0.60439723  1
  Nb  Nb139  1  0.59264755  0.40053257  0.40133136  1
  Nb  Nb140  1  0.19792746  0.00798850  0.00386032  1
  Nb  Nb141  1  0.58736185  0.00750410  0.80161853  1
  Nb  Nb142  1  -0.00003928  0.80394148  0.60657247  1
  Nb  Nb143  1  -0.00000631  0.80039169  0.79592721  1
  Nb  Nb144  1  0.20207579  0.60046133  0.61006259  1
  Nb  Nb145  1  0.79506682  0.00266346  0.39883866  1
  Nb  Nb146  1  0.59174317  0.79108856  0.38982035  1
  Nb  Nb147  1  0.39919795  0.00825657  0.80210738  1
  Nb  Nb148  1  0.80106541  0.78975382  0.80108672  1
  Nb  Nb149  1  0.40682398  0.39623342  0.40440084  1
  Pd  Pd150  1  0.39131111  0.60025499  0.79372538  1
  Pd  Pd151  1  0.38952629  0.80762368  0.79984901  1
  Pd  Pd152  1  0.59355680  0.01060287  0.61043952  1
  Pd  Pd153  1  0.40706222  0.79603526  0.01223273  1
  Pd  Pd154  1  0.79957343  0.80712462  -0.00189073  1
  Pd  Pd155  1  0.79027832  0.60393768  0.60084829  1
  Pd  Pd156  1  0.79763413  0.19620781  0.39260396  1
  Pd  Pd157  1  0.19903863  0.79862137  0.19612554  1
  Pd  Pd158  1  0.01258605  0.79002337  0.20218556  1
  Pd  Pd159  1  0.60793642  0.39545805  0.59999921  1
  Pd  Pd160  1  0.80584196  0.40667807  0.18856056  1
  Pd  Pd161  1  0.40083150  0.20895501  0.00172870  1
  Pd  Pd162  1  0.39516837  0.19445013  0.59689203  1
  Pd  Pd163  1  0.79961641  -0.00487469  0.59152190  1
  Pd  Pd164  1  0.00933841  0.40457274  -0.00246999  1
  Pd  Pd165  1  0.40483262  -0.00697747  0.40320575  1
  Pd  Pd166  1  0.80010526  0.20181624  -0.00397196  1
  Pd  Pd167  1  0.00823347  0.60266351  0.80309802  1
  Pd  Pd168  1  0.59480732  0.39382025  -0.00583702  1
  Pd  Pd169  1  0.79644800  0.20369110  0.60316003  1
  Pd  Pd170  1  0.19047896  0.40233779  0.79685449  1
  Pd  Pd171  1  -0.00504794  0.39438772  0.40718347  1
  Pd  Pd172  1  0.80871108  0.19286537  0.20678594  1
  Pd  Pd173  1  0.40479024  0.39221153  -0.00528458  1
  Pd  Pd174  1  0.59274768  0.59841899  -0.00815777  1
  Pd  Pd175  1  0.39300765  -0.00501215  0.19516457  1
  Pd  Pd176  1  0.01235657  0.60264149  0.59537002  1
  Pd  Pd177  1  0.58925152  0.79651574  0.19635800  1
  Pd  Pd178  1  0.80004653  0.39516069  0.80725394  1
  Pd  Pd179  1  0.19302146  0.20016908  0.20567719  1
  Pd  Pd180  1  0.19660703  0.40114057  -0.00048361  1
  Pd  Pd181  1  0.40584844  0.38889324  0.79257941  1
  Pd  Pd182  1  0.00417854  0.21020683  0.39722626  1
  Pd  Pd183  1  0.78983552  0.59857107  0.40057805  1
  Pd  Pd184  1  0.39013632  0.00372780  0.00067156  1
  Pd  Pd185  1  0.39678354  0.40399273  0.60090095  1
  Pd  Pd186  1  0.60130463  0.60368978  0.59775615  1
  Pd  Pd187  1  0.01428860  0.80020123  0.40129610  1
  Pd  Pd188  1  0.19327398  0.19777642  0.00110973  1
  Pd  Pd189  1  0.79342361  0.39284881  0.40850591  1
  Pd  Pd190  1  0.80939793  0.58794080  0.19329478  1
  Pd  Pd191  1  0.39676849  0.59891958  0.41118873  1
  Pd  Pd192  1  0.60531669  -0.00291780  -0.00262633  1
  Pd  Pd193  1  0.40541736  0.01248189  0.60459210  1
  Pd  Pd194  1  0.00585015  0.39677541  0.80189915  1
  Pd  Pd195  1  0.60390430  0.59211675  0.20000960  1
  Pd  Pd196  1  0.00159714  0.19530838  0.59708153  1
  Pd  Pd197  1  0.59688822  0.21104511  0.00459157  1
  Pd  Pd198  1  0.01133766  0.19821601  -0.00037159  1
  Pd  Pd199  1  0.80118275  0.59912950  0.80901023  1
  Rh  Rh200  1  0.20391255  0.59840641  0.40702532  1
  Rh  Rh201  1  0.79941619  0.00405274  0.81205455  1
  Rh  Rh202  1  0.20611300  0.40184748  0.20186601  1
  Rh  Rh203  1  0.19728285  0.60114458  0.19568675  1
  Rh  Rh204  1  0.78388721  0.80608642  0.41026605  1
  Rh  Rh205  1  0.19839653  0.19514549  0.59121617  1
  Rh  Rh206  1  0.39370715  0.39860722  0.20684427  1
  Rh  Rh207  1  0.20464194  0.00272755  0.19607909  1
  Rh  Rh208  1  0.00320739  0.01302500  -0.01507691  1
  Rh  Rh209  1  0.19827734  0.20139224  0.40002332  1
  Rh  Rh210  1  0.38851053  0.60259271  0.18929029  1
  Rh  Rh211  1  0.19908577  -0.00869858  0.81453832  1
  Rh  Rh212  1  -0.00203716  -0.00460964  0.40559256  1
  Rh  Rh213  1  -0.00113219  0.39390910  0.59641744  1
  Rh  Rh214  1  0.59549107  0.20985782  0.40133496  1
  Rh  Rh215  1  0.80029536  0.39524339  0.60223432  1
  Rh  Rh216  1  0.19248860  0.00970662  0.58668413  1
  Rh  Rh217  1  0.59954606  0.39712529  0.80007247  1
  Rh  Rh218  1  0.61016729  0.19737313  0.79191285  1
  Rh  Rh219  1  0.38833307  0.20232307  0.79487345  1
  Rh  Rh220  1  0.21267037  0.39704124  0.39421073  1
  Rh  Rh221  1  0.80582365  0.80465002  0.19224955  1
  Rh  Rh222  1  0.40046568  0.19990490  0.19370740  1
  Rh  Rh223  1  0.20082000  0.21027896  0.79675634  1
  Rh  Rh224  1  0.19664848  0.40599768  0.60629039  1
  Rh  Rh225  1  0.00150713  0.20237868  0.79860402  1
  Rh  Rh226  1  0.00373626  0.60054985  0.39243799  1
  Rh  Rh227  1  0.59877679  0.40255284  0.20047276  1
  Rh  Rh228  1  0.00424913  0.79587754  0.00419299  1
  Rh  Rh229  1  0.60022156  -0.00550263  0.39988102  1
  Rh  Rh230  1  0.60419729  0.00761171  0.19749566  1
  Rh  Rh231  1  0.20216734  0.00220807  0.40310584  1
  Rh  Rh232  1  0.40313222  0.20618349  0.40483453  1
  Rh  Rh233  1  0.80214297  0.58815941  -0.00313741  1
  Rh  Rh234  1  0.19945305  0.79470838  0.60045589  1
  Rh  Rh235  1  0.00139861  0.59413548  0.00972842  1
  Rh  Rh236  1  0.60535288  0.79348805  0.59463841  1
  Rh  Rh237  1  0.39869196  0.59659673  -0.00187844  1
  Rh  Rh238  1  0.20206954  0.59528584  -0.00231543  1
  Rh  Rh239  1  0.59583195  0.20350766  0.19300087  1
  Rh  Rh240  1  -0.00250370  0.00634838  0.21139621  1
  Rh  Rh241  1  0.80186477  0.40133389  -0.00515515  1
  Rh  Rh242  1  0.19382963  0.80775031  0.00225874  1
  Rh  Rh243  1  0.60057034  0.59395114  0.80762867  1
  Rh  Rh244  1  0.39727945  0.79535524  0.59127520  1
  Rh  Rh245  1  0.60531212  0.19582256  0.60268084  1
  Rh  Rh246  1  0.60577639  0.80526549  0.80913063  1
  Rh  Rh247  1  -0.00349248  0.40271929  0.19695594  1
  Rh  Rh248  1  0.80086848  0.20892596  0.80328922  1
  Rh  Rh249  1  0.20697032  0.80226020  0.39883482  1
