# generated using pymatgen
data_ZrScNbPdRh
_symmetry_space_group_name_H-M   'P 1'
_cell_length_a   16.55257498
_cell_length_b   16.55143417
_cell_length_c   16.55206778
_cell_angle_alpha   90.01197179
_cell_angle_beta   90.02602131
_cell_angle_gamma   89.96523860
_symmetry_Int_Tables_number   1
_chemical_formula_structural   ZrScNbPdRh
_chemical_formula_sum   'Zr50 Sc50 Nb50 Pd50 Rh50'
_cell_volume   4534.74965829
_cell_formula_units_Z   50
loop_
 _symmetry_equiv_pos_site_id
 _symmetry_equiv_pos_as_xyz
  1  'x, y, z'
loop_
 _atom_site_type_symbol
 _atom_site_label
 _atom_site_symmetry_multiplicity
 _atom_site_fract_x
 _atom_site_fract_y
 _atom_site_fract_z
 _atom_site_occupancy
  Zr  Zr0  1  0.29886692  0.90009297  0.49768218  1
  Zr  Zr1  1  0.90271464  0.29335070  0.10014503  1
  Zr  Zr2  1  0.70634676  0.90347980  0.89069929  1
  Zr  Zr3  1  0.90061943  0.69737090  0.30148549  1
  Zr  Zr4  1  0.09917237  0.30103898  0.29780983  1
  Zr  Zr5  1  0.27970553  0.09998439  0.50100421  1
  Zr  Zr6  1  0.69751005  0.69446360  0.09087050  1
  Zr  Zr7  1  0.89537167  0.50030971  0.49737717  1
  Zr  Zr8  1  0.29595103  0.90107254  0.90508237  1
  Zr  Zr9  1  0.10159694  0.69771972  0.29647873  1
  Zr  Zr10  1  0.69663625  0.70376514  0.49727197  1
  Zr  Zr11  1  0.30737965  0.10203691  0.10694210  1
  Zr  Zr12  1  0.90591493  0.70838062  0.70049375  1
  Zr  Zr13  1  0.90233143  0.49296872  0.70471478  1
  Zr  Zr14  1  0.49015439  0.70509647  0.70617144  1
  Zr  Zr15  1  0.89962796  0.30158524  0.50467342  1
  Zr  Zr16  1  0.10242656  0.49805594  0.70628086  1
  Zr  Zr17  1  0.49501663  0.10563648  0.30058122  1
  Zr  Zr18  1  0.49257099  0.49717615  0.49549291  1
  Zr  Zr19  1  0.89743431  0.70088490  0.50067572  1
  Zr  Zr20  1  0.69958071  0.49694385  0.49819795  1
  Zr  Zr21  1  0.70241845  0.29552243  0.09330012  1
  Zr  Zr22  1  0.70228137  0.70896840  0.69912588  1
  Zr  Zr23  1  0.09942743  0.69522942  0.70535142  1
  Zr  Zr24  1  0.89877182  0.30409622  0.90127088  1
  Zr  Zr25  1  0.50255665  0.50046511  0.09911929  1
  Zr  Zr26  1  0.89803852  0.89878669  0.50886025  1
  Zr  Zr27  1  0.10163615  0.29039111  0.50313156  1
  Zr  Zr28  1  0.10234352  0.90719015  0.50114792  1
  Zr  Zr29  1  0.90510659  0.29925385  0.70113690  1
  Zr  Zr30  1  0.10273995  0.10525747  0.30942811  1
  Zr  Zr31  1  0.69681575  0.08444190  0.69906455  1
  Zr  Zr32  1  0.90173634  0.09363443  0.70328860  1
  Zr  Zr33  1  0.50282499  0.10171465  0.08314003  1
  Zr  Zr34  1  0.30980284  0.70236443  0.49786168  1
  Zr  Zr35  1  0.10408463  0.11207245  0.69859229  1
  Zr  Zr36  1  0.09471986  0.30414397  0.09879309  1
  Zr  Zr37  1  0.29944399  0.90080197  0.28665945  1
  Zr  Zr38  1  0.49973180  0.29674279  0.51068462  1
  Zr  Zr39  1  0.50317511  0.49090918  0.29457573  1
  Zr  Zr40  1  0.49586653  0.29911971  0.90387772  1
  Zr  Zr41  1  0.30678913  0.90096042  0.71298722  1
  Zr  Zr42  1  0.68916682  0.09238426  0.30399103  1
  Zr  Zr43  1  0.69889685  0.50405138  0.30384364  1
  Zr  Zr44  1  0.29286695  0.29619630  0.08842626  1
  Zr  Zr45  1  0.69910168  0.29385054  0.50180399  1
  Zr  Zr46  1  0.90981808  0.90641812  0.89765252  1
  Zr  Zr47  1  0.49792714  0.70263819  0.90604635  1
  Zr  Zr48  1  0.90770374  0.29805857  0.29498517  1
  Zr  Zr49  1  0.09778387  0.09201768  0.89801365  1
  Sc  Sc50  1  0.30024138  0.09462073  0.89944380  1
  Sc  Sc51  1  0.10079327  0.70203055  0.09377877  1
  Sc  Sc52  1  0.68837174  0.09664960  0.90639762  1
  Sc  Sc53  1  0.09886886  0.10426657  0.09636883  1
  Sc  Sc54  1  0.49918613  0.69781147  0.29957353  1
  Sc  Sc55  1  0.51169920  0.90208275  0.29458272  1
  Sc  Sc56  1  0.50034767  0.70223394  0.09811760  1
  Sc  Sc57  1  0.29472952  0.49835779  0.90013431  1
  Sc  Sc58  1  0.49327058  0.91108917  0.90064903  1
  Sc  Sc59  1  0.30298974  0.49835386  0.09059399  1
  Sc  Sc60  1  0.91298613  0.49756302  0.08937141  1
  Sc  Sc61  1  0.89071133  0.89776265  0.70728315  1
  Sc  Sc62  1  0.10753063  0.49234442  0.51064698  1
  Sc  Sc63  1  0.51523566  0.10469619  0.49581116  1
  Sc  Sc64  1  0.70703588  0.50281317  0.90249717  1
  Sc  Sc65  1  0.30361781  0.29036324  0.30408854  1
  Sc  Sc66  1  0.50254652  0.10041191  0.69041996  1
  Sc  Sc67  1  0.30200334  0.69917881  0.89766134  1
  Sc  Sc68  1  0.10593110  0.29478212  0.90161296  1
  Sc  Sc69  1  0.30006771  0.70897060  0.09584563  1
  Sc  Sc70  1  0.69830667  0.31110375  0.90207504  1
  Sc  Sc71  1  0.49836245  0.30451637  0.09216023  1
  Sc  Sc72  1  0.48866441  0.49647052  0.89985956  1
  Sc  Sc73  1  0.10138724  0.69894011  0.90270038  1
  Sc  Sc74  1  0.09683014  0.90450756  0.28375065  1
  Sc  Sc75  1  0.29761376  0.30659446  0.89932230  1
  Sc  Sc76  1  0.90666003  0.10042439  0.89937262  1
  Sc  Sc77  1  0.29722154  0.89789917  0.10015234  1
  Sc  Sc78  1  0.89925528  0.69218459  0.89766783  1
  Sc  Sc79  1  0.10363792  0.30325411  0.69805899  1
  Sc  Sc80  1  0.29883542  0.30808794  0.50145686  1
  Sc  Sc81  1  0.08917792  0.89145201  0.71371326  1
  Sc  Sc82  1  0.91272299  0.90093424  0.11048976  1
  Sc  Sc83  1  0.69276736  0.50060043  0.09303488  1
  Sc  Sc84  1  0.69413364  0.89608054  0.50799506  1
  Sc  Sc85  1  0.70169962  0.49344905  0.70443489  1
  Sc  Sc86  1  0.10031798  0.50256840  0.08872914  1
  Sc  Sc87  1  0.30658157  0.70723951  0.29019257  1
  Sc  Sc88  1  0.31581996  0.49025340  0.30641699  1
  Sc  Sc89  1  0.90695055  0.10527843  0.49345235  1
  Sc  Sc90  1  0.50390853  0.90448896  0.70206597  1
  Sc  Sc91  1  0.69564504  0.30899645  0.69800874  1
  Sc  Sc92  1  0.29680000  0.49400296  0.70453188  1
  Sc  Sc93  1  0.90502493  0.09921929  0.29261792  1
  Sc  Sc94  1  0.70469415  0.69406080  0.90361484  1
  Sc  Sc95  1  0.09511661  0.69530108  0.51001637  1
  Sc  Sc96  1  0.69200117  0.89989829  0.11468628  1
  Sc  Sc97  1  0.69790844  0.30032833  0.30520043  1
  Sc  Sc98  1  0.09186174  0.50027146  0.29821341  1
  Sc  Sc99  1  0.70260536  0.70854545  0.30309865  1
  Nb  Nb100  1  0.70723782  0.90084708  0.30579680  1
  Nb  Nb101  1  0.49347660  0.89588241  0.49908263  1
  Nb  Nb102  1  0.30076737  0.70149978  0.70440724  1
  Nb  Nb103  1  0.89000792  0.10449588  0.09927505  1
  Nb  Nb104  1  0.09631440  0.50218096  0.90289093  1
  Nb  Nb105  1  0.89505413  0.89500116  0.30336835  1
  Nb  Nb106  1  0.90740670  0.50131598  0.89674289  1
  Nb  Nb107  1  0.49399104  0.30380952  0.70075556  1
  Nb  Nb108  1  0.89938534  0.50237229  0.29972849  1
  Nb  Nb109  1  0.09655993  0.90333493  0.91473487  1
  Nb  Nb110  1  0.09808267  0.10135275  0.50372270  1
  Nb  Nb111  1  0.30031506  0.09929920  0.69947685  1
  Nb  Nb112  1  0.30277181  0.50051405  0.50065973  1
  Nb  Nb113  1  0.70261769  0.10349345  0.10378309  1
  Nb  Nb114  1  0.49902459  0.29680545  0.30417280  1
  Nb  Nb115  1  0.50147304  0.70720893  0.50718833  1
  Nb  Nb116  1  0.70450046  0.90053716  0.70284188  1
  Nb  Nb117  1  0.89568674  0.69694377  0.09931933  1
  Nb  Nb118  1  0.49433294  0.49806484  0.70074322  1
  Nb  Nb119  1  0.49830481  0.10274827  0.89527588  1
  Nb  Nb120  1  0.30311630  0.09743630  0.30020994  1
  Nb  Nb121  1  0.70240182  0.09880607  0.50103709  1
  Nb  Nb122  1  0.10221282  0.89739199  0.08447199  1
  Nb  Nb123  1  0.30433891  0.29941566  0.69892373  1
  Nb  Nb124  1  0.49237682  0.89604066  0.09321274  1
  Nb  Nb125  1  0.20391584  0.59403413  0.20258598  1
  Nb  Nb126  1  0.40210709  0.20018982  0.79328924  1
  Nb  Nb127  1  0.59314127  0.60156465  0.79444718  1
  Nb  Nb128  1  0.39612598  0.00100870  0.59196174  1
  Nb  Nb129  1  0.39834303  0.00264640  0.39992374  1
  Nb  Nb130  1  0.20047385  0.40247793  0.19912656  1
  Nb  Nb131  1  0.19609439  0.79771426  0.40115293  1
  Nb  Nb132  1  0.79705583  0.19391927  0.60423460  1
  Nb  Nb133  1  0.80479992  0.40588690  0.20005363  1
  Nb  Nb134  1  0.59356627  0.60167281  0.60320106  1
  Nb  Nb135  1  0.20479900  0.79748290  0.60517047  1
  Nb  Nb136  1  0.80419075  0.80602650  0.00467237  1
  Nb  Nb137  1  0.79561312  0.60047620  0.60046863  1
  Nb  Nb138  1  0.60221137  0.79986211  0.80069560  1
  Nb  Nb139  1  -0.00263131  0.40000884  0.40098848  1
  Nb  Nb140  1  0.20705265  0.60086561  0.39893063  1
  Nb  Nb141  1  0.40031563  0.60038106  0.60190308  1
  Nb  Nb142  1  0.79687341  -0.00381310  0.39903839  1
  Nb  Nb143  1  0.59805614  0.19866479  0.19641382  1
  Nb  Nb144  1  0.00088542  0.80293505  0.39806841  1
  Nb  Nb145  1  0.80139875  0.00054850  0.01069255  1
  Nb  Nb146  1  0.59519703  0.20263412  0.79789821  1
  Nb  Nb147  1  0.00465818  0.00366879  0.60088695  1
  Nb  Nb148  1  0.80507588  0.59593535  0.19854921  1
  Nb  Nb149  1  0.79261052  0.19936255  0.79713596  1
  Pd  Pd150  1  -0.00814019  0.79233597  -0.00240508  1
  Pd  Pd151  1  -0.00636208  -0.00539397  0.40163651  1
  Pd  Pd152  1  0.20657124  0.00705528  0.00912454  1
  Pd  Pd153  1  0.20138000  -0.00673665  0.38820089  1
  Pd  Pd154  1  0.39357401  0.60025836  0.19417887  1
  Pd  Pd155  1  0.19494381  0.80010297  0.80502447  1
  Pd  Pd156  1  0.60769590  0.38977446  0.19743369  1
  Pd  Pd157  1  0.60621904  0.60700217  0.20261932  1
  Pd  Pd158  1  0.59830801  0.79408607  0.20069755  1
  Pd  Pd159  1  0.00362084  0.79733577  0.19925385  1
  Pd  Pd160  1  0.59365584  -0.00755755  0.59313375  1
  Pd  Pd161  1  0.59499336  0.40452154  0.80664738  1
  Pd  Pd162  1  0.40216311  0.60267474  0.39855847  1
  Pd  Pd163  1  0.39287120  0.38929939  0.19495788  1
  Pd  Pd164  1  0.19603589  -0.00943628  0.61687041  1
  Pd  Pd165  1  0.60578606  -0.00949651  0.00391230  1
  Pd  Pd166  1  0.00981427  0.59640588  0.40788623  1
  Pd  Pd167  1  0.39352376  0.19134337  0.59765332  1
  Pd  Pd168  1  0.20327254  0.59772319  0.80737050  1
  Pd  Pd169  1  0.59801451  0.40543634  0.60002731  1
  Pd  Pd170  1  0.19255600  -0.00404892  0.79671260  1
  Pd  Pd171  1  0.40140398  0.80806899  0.38637910  1
  Pd  Pd172  1  0.01015528  0.39307102  0.80656940  1
  Pd  Pd173  1  0.39653867  0.60250441  0.00259661  1
  Pd  Pd174  1  0.60692819  0.81104284  -0.00734690  1
  Pd  Pd175  1  0.79536703  0.19206532  -0.01498170  1
  Pd  Pd176  1  0.59585382  0.80484058  0.39742329  1
  Pd  Pd177  1  0.80196099  -0.00185582  0.20184451  1
  Pd  Pd178  1  0.40774137  0.20956687  0.19335539  1
  Pd  Pd179  1  0.79839717  0.79465390  0.19297658  1
  Pd  Pd180  1  0.59224485  0.60431025  0.40230626  1
  Pd  Pd181  1  0.39620241  0.80518129  0.60617299  1
  Pd  Pd182  1  0.39481646  0.19548756  0.41373933  1
  Pd  Pd183  1  0.59115182  0.00576398  0.19198228  1
  Pd  Pd184  1  0.41043139  -0.00319458  0.19907270  1
  Pd  Pd185  1  0.00543459  0.00780000  0.19324862  1
  Pd  Pd186  1  0.19962145  0.20357437  0.20155290  1
  Pd  Pd187  1  -0.00609615  0.59217630  0.60307225  1
  Pd  Pd188  1  0.21014364  0.60364543  0.59735833  1
  Pd  Pd189  1  0.80503513  0.39516206  0.39305740  1
  Pd  Pd190  1  0.00129573  0.19680711  -0.00349851  1
  Pd  Pd191  1  0.20966764  0.20292575  0.80329042  1
  Pd  Pd192  1  0.00222764  0.59687827  0.18948263  1
  Pd  Pd193  1  0.79157038  0.20456306  0.20980830  1
  Pd  Pd194  1  0.79670421  0.59890957  0.79303499  1
  Pd  Pd195  1  0.19223230  0.00444119  0.19209046  1
  Pd  Pd196  1  0.80375334  0.40892749  0.00673631  1
  Pd  Pd197  1  0.59519685  0.39262661  0.40338041  1
  Pd  Pd198  1  0.19606470  0.40738452  0.39306578  1
  Pd  Pd199  1  0.80091128  0.19076457  0.39773195  1
  Rh  Rh200  1  0.19313057  0.79559646  0.19530039  1
  Rh  Rh201  1  0.79527606  0.60409366  0.39877917  1
  Rh  Rh202  1  0.80012203  0.01133435  0.81225356  1
  Rh  Rh203  1  0.40658103  0.01289532  0.79056382  1
  Rh  Rh204  1  0.00128933  0.59964933  0.80171467  1
  Rh  Rh205  1  0.80423458  0.80669608  0.40708411  1
  Rh  Rh206  1  -0.00611178  0.19361567  0.60287726  1
  Rh  Rh207  1  0.00067931  0.40566476  0.20256599  1
  Rh  Rh208  1  0.80708426  0.00578144  0.59108463  1
  Rh  Rh209  1  0.59657300  0.80379501  0.60760942  1
  Rh  Rh210  1  0.00333540  0.39711972  -0.00933518  1
  Rh  Rh211  1  0.20114517  0.60173860  0.00253948  1
  Rh  Rh212  1  0.19784292  0.39950807  0.80151036  1
  Rh  Rh213  1  0.39761135  0.40070054  0.00068140  1
  Rh  Rh214  1  0.00668569  0.00045873  0.79426384  1
  Rh  Rh215  1  0.59125850  0.59099380  -0.01295029  1
  Rh  Rh216  1  0.39569636  0.80441948  -0.00189906  1
  Rh  Rh217  1  -0.00194210  0.20362312  0.80282993  1
  Rh  Rh218  1  0.79878811  0.39948300  0.60399584  1
  Rh  Rh219  1  0.80884368  0.59842537  0.00536701  1
  Rh  Rh220  1  0.00886329  0.80852782  0.59490889  1
  Rh  Rh221  1  0.20145230  0.79874779  -0.00436736  1
  Rh  Rh222  1  0.80205035  0.39545226  0.80310713  1
  Rh  Rh223  1  -0.00027309  0.60390137  -0.00553681  1
  Rh  Rh224  1  0.39540597  0.39586036  0.79880791  1
  Rh  Rh225  1  0.79798442  0.79805740  0.59926086  1
  Rh  Rh226  1  0.60102323  -0.00906857  0.40817879  1
  Rh  Rh227  1  0.00346189  0.19048410  0.19575530  1
  Rh  Rh228  1  0.39563614  0.00008253  0.00305325  1
  Rh  Rh229  1  0.60103875  0.20556549  0.39585524  1
  Rh  Rh230  1  0.60392044  0.20321344  -0.00298370  1
  Rh  Rh231  1  0.39439938  0.40603769  0.60131377  1
  Rh  Rh232  1  0.00275267  0.40257280  0.59492983  1
  Rh  Rh233  1  0.59743762  0.40556030  -0.00484505  1
  Rh  Rh234  1  0.59473787  -0.00114788  0.80014489  1
  Rh  Rh235  1  -0.00733723  0.00563472  0.01039212  1
  Rh  Rh236  1  0.00188872  0.20491759  0.39925518  1
  Rh  Rh237  1  0.40474480  0.38911735  0.40300903  1
  Rh  Rh238  1  0.39143496  0.19689157  -0.01031218  1
  Rh  Rh239  1  -0.00023874  0.79642838  0.81301272  1
  Rh  Rh240  1  0.19446674  0.40320784  0.00054799  1
  Rh  Rh241  1  0.20217646  0.20237807  0.39931873  1
  Rh  Rh242  1  0.40470458  0.80486966  0.81098901  1
  Rh  Rh243  1  0.79933679  0.79622085  0.80932896  1
  Rh  Rh244  1  0.61051810  0.20147182  0.60967513  1
  Rh  Rh245  1  0.20589825  0.39651387  0.60429723  1
  Rh  Rh246  1  0.20556704  0.20787058  0.60233282  1
  Rh  Rh247  1  0.20268669  0.19233377  -0.00509305  1
  Rh  Rh248  1  0.39744840  0.59444643  0.79558555  1
  Rh  Rh249  1  0.41036641  0.80209681  0.19667359  1
