# generated using pymatgen
data_ZrScNbPdRh
_symmetry_space_group_name_H-M   'P 1'
_cell_length_a   16.55570737
_cell_length_b   16.56073848
_cell_length_c   16.55806773
_cell_angle_alpha   89.94612164
_cell_angle_beta   90.05999619
_cell_angle_gamma   89.98965439
_symmetry_Int_Tables_number   1
_chemical_formula_structural   ZrScNbPdRh
_chemical_formula_sum   'Zr50 Sc50 Nb50 Pd50 Rh50'
_cell_volume   4539.79934686
_cell_formula_units_Z   50
loop_
 _symmetry_equiv_pos_site_id
 _symmetry_equiv_pos_as_xyz
  1  'x, y, z'
loop_
 _atom_site_type_symbol
 _atom_site_label
 _atom_site_symmetry_multiplicity
 _atom_site_fract_x
 _atom_site_fract_y
 _atom_site_fract_z
 _atom_site_occupancy
  Zr  Zr0  1  0.11329607  0.50604181  0.50607554  1
  Zr  Zr1  1  0.29999503  0.70044973  0.69311063  1
  Zr  Zr2  1  0.10799003  0.30813800  0.89484078  1
  Zr  Zr3  1  0.88978285  0.69958763  0.90117539  1
  Zr  Zr4  1  0.70909445  0.69763077  0.89905989  1
  Zr  Zr5  1  0.09155043  0.09619711  0.89940257  1
  Zr  Zr6  1  0.50731567  0.88724027  0.49847426  1
  Zr  Zr7  1  0.29059421  0.49074190  0.90852316  1
  Zr  Zr8  1  0.09982402  0.09051133  0.50316042  1
  Zr  Zr9  1  0.10568831  0.89602937  0.30644728  1
  Zr  Zr10  1  0.51022471  0.49600856  0.10309173  1
  Zr  Zr11  1  0.89907265  0.30391736  0.30969964  1
  Zr  Zr12  1  0.69647393  0.30947101  0.10509191  1
  Zr  Zr13  1  0.29994881  0.90441497  0.89707192  1
  Zr  Zr14  1  0.29951986  0.70549095  0.10102698  1
  Zr  Zr15  1  0.10018824  0.09368602  0.09983482  1
  Zr  Zr16  1  0.90294693  0.09943742  0.10006459  1
  Zr  Zr17  1  0.70952060  0.90267125  0.89161230  1
  Zr  Zr18  1  0.29916747  0.30051070  0.10307129  1
  Zr  Zr19  1  0.09744302  0.69846350  0.30413227  1
  Zr  Zr20  1  0.90656018  0.70147964  0.09572383  1
  Zr  Zr21  1  0.70120896  0.89676658  0.10748414  1
  Zr  Zr22  1  0.49973655  0.90328997  0.30304940  1
  Zr  Zr23  1  0.09964162  0.90108261  0.89687980  1
  Zr  Zr24  1  0.49859651  0.90027718  0.11107271  1
  Zr  Zr25  1  0.50534094  0.29688308  0.49325779  1
  Zr  Zr26  1  0.70227900  0.09703189  0.50865343  1
  Zr  Zr27  1  0.30382587  0.91374329  0.10361897  1
  Zr  Zr28  1  0.89495448  0.09838804  0.89203374  1
  Zr  Zr29  1  0.69274312  0.11149547  0.10578309  1
  Zr  Zr30  1  0.50923716  0.68837522  0.89745138  1
  Zr  Zr31  1  0.09899331  0.89681904  0.10206068  1
  Zr  Zr32  1  0.69989921  0.30048211  0.29821308  1
  Zr  Zr33  1  0.10171165  0.30519171  0.29765409  1
  Zr  Zr34  1  0.50809495  0.70225340  0.10618332  1
  Zr  Zr35  1  0.90004467  0.89649842  0.10845758  1
  Zr  Zr36  1  0.50730501  0.50596643  0.50717363  1
  Zr  Zr37  1  0.89220948  0.50597221  0.89933169  1
  Zr  Zr38  1  0.50510577  0.50487163  0.70331023  1
  Zr  Zr39  1  0.70748124  0.09747707  0.70858652  1
  Zr  Zr40  1  0.69875110  0.89825871  0.30454189  1
  Zr  Zr41  1  0.29396068  0.50435247  0.68483556  1
  Zr  Zr42  1  0.10127466  0.70090012  0.48983611  1
  Zr  Zr43  1  0.09518618  0.30000330  0.10163642  1
  Zr  Zr44  1  0.89078513  0.49186765  0.69817314  1
  Zr  Zr45  1  0.50701019  0.30739839  0.69698499  1
  Zr  Zr46  1  0.89351182  0.90137940  0.30481464  1
  Zr  Zr47  1  0.50437712  0.11395930  0.90035494  1
  Zr  Zr48  1  0.70650998  0.69522119  0.09791259  1
  Zr  Zr49  1  0.30621103  0.90254095  0.30070436  1
  Sc  Sc50  1  0.49145522  0.91853996  0.89513036  1
  Sc  Sc51  1  0.50264125  0.71622554  0.30265782  1
  Sc  Sc52  1  0.70165964  0.90110830  0.68998286  1
  Sc  Sc53  1  0.49360135  0.29834617  0.30014253  1
  Sc  Sc54  1  0.70952503  0.89418333  0.49970487  1
  Sc  Sc55  1  0.09318142  0.29469762  0.50867478  1
  Sc  Sc56  1  0.29608898  0.70892271  0.31080206  1
  Sc  Sc57  1  0.30450051  0.48610564  0.29452105  1
  Sc  Sc58  1  0.89874999  0.10336336  0.69468476  1
  Sc  Sc59  1  0.70612286  0.69061418  0.30450040  1
  Sc  Sc60  1  0.09415135  0.71046174  0.70300985  1
  Sc  Sc61  1  0.09816057  0.48302997  0.69361873  1
  Sc  Sc62  1  0.50123605  0.29618110  0.09585116  1
  Sc  Sc63  1  0.49701617  0.89913247  0.68637274  1
  Sc  Sc64  1  0.90305758  0.89599542  0.89522428  1
  Sc  Sc65  1  0.69541943  0.50424296  0.89833240  1
  Sc  Sc66  1  0.29767813  0.69058694  0.50177200  1
  Sc  Sc67  1  0.89600760  0.49769669  0.30191207  1
  Sc  Sc68  1  0.69965427  0.10095848  0.30588971  1
  Sc  Sc69  1  0.70475326  0.30020440  0.69559390  1
  Sc  Sc70  1  0.90255067  0.10263740  0.49505719  1
  Sc  Sc71  1  0.28576588  0.29500258  0.70272224  1
  Sc  Sc72  1  0.70346822  0.70364546  0.70046115  1
  Sc  Sc73  1  0.30140234  0.90411567  0.69598833  1
  Sc  Sc74  1  0.89482826  0.49304525  0.09889658  1
  Sc  Sc75  1  0.89700651  0.30478349  0.68787333  1
  Sc  Sc76  1  0.50207019  0.09269233  0.69857041  1
  Sc  Sc77  1  0.50787328  0.09919641  0.49591917  1
  Sc  Sc78  1  0.89885586  0.48464333  0.49658271  1
  Sc  Sc79  1  0.30663610  0.90060492  0.49800634  1
  Sc  Sc80  1  0.29520861  0.09858909  0.49327415  1
  Sc  Sc81  1  0.09461047  0.90898876  0.70253583  1
  Sc  Sc82  1  0.30323298  0.29492980  0.29810214  1
  Sc  Sc83  1  0.89851240  0.89188356  0.69872795  1
  Sc  Sc84  1  0.50400621  0.69754334  0.68640837  1
  Sc  Sc85  1  0.70239106  0.29895186  0.50218287  1
  Sc  Sc86  1  0.09395971  0.70459485  0.91577136  1
  Sc  Sc87  1  0.69437806  0.49443849  0.69468843  1
  Sc  Sc88  1  0.10114420  0.10043742  0.69137185  1
  Sc  Sc89  1  0.09392792  0.50278772  0.30416965  1
  Sc  Sc90  1  0.09729770  0.49518582  0.09936609  1
  Sc  Sc91  1  0.30055575  0.09844143  0.29888633  1
  Sc  Sc92  1  0.28682721  0.70199626  0.90371395  1
  Sc  Sc93  1  0.29715674  0.49002623  0.10326979  1
  Sc  Sc94  1  0.10627879  0.09746001  0.30776695  1
  Sc  Sc95  1  0.89794468  0.71335589  0.49387965  1
  Sc  Sc96  1  0.29780328  0.09641106  0.69475062  1
  Sc  Sc97  1  0.89748798  0.31188024  0.90432912  1
  Sc  Sc98  1  0.31509992  0.09801624  0.89564075  1
  Sc  Sc99  1  0.49145436  0.10201478  0.10218521  1
  Nb  Nb100  1  0.30083992  0.50084056  0.49917418  1
  Nb  Nb101  1  0.09540369  0.29482793  0.69838976  1
  Nb  Nb102  1  0.49466211  0.30115982  0.90012459  1
  Nb  Nb103  1  0.69763330  0.49961708  0.12139257  1
  Nb  Nb104  1  0.69898864  0.49718446  0.29490577  1
  Nb  Nb105  1  0.30878229  0.30306736  0.49554175  1
  Nb  Nb106  1  0.29846172  0.10076939  0.09883995  1
  Nb  Nb107  1  0.89851304  0.30010164  0.10257750  1
  Nb  Nb108  1  0.89551821  0.69337475  0.69984727  1
  Nb  Nb109  1  0.50365384  0.10488938  0.30596463  1
  Nb  Nb110  1  0.09782051  0.70260558  0.10786137  1
  Nb  Nb111  1  0.91043277  0.70284419  0.29947325  1
  Nb  Nb112  1  0.09603281  0.90024971  0.50094407  1
  Nb  Nb113  1  0.90116920  0.89962257  0.49579001  1
  Nb  Nb114  1  0.49692743  0.49866038  0.89711013  1
  Nb  Nb115  1  0.89660955  0.29783093  0.50262742  1
  Nb  Nb116  1  0.69496460  0.69889893  0.50082265  1
  Nb  Nb117  1  0.30422297  0.29651986  0.90390845  1
  Nb  Nb118  1  0.70133684  0.10157364  0.89943082  1
  Nb  Nb119  1  0.50336458  0.50269691  0.29398036  1
  Nb  Nb120  1  0.89849208  0.10279516  0.29915570  1
  Nb  Nb121  1  0.09735972  0.50115207  0.89603724  1
  Nb  Nb122  1  0.68663951  0.28522169  0.90344090  1
  Nb  Nb123  1  0.70109147  0.50747951  0.49133134  1
  Nb  Nb124  1  0.50297557  0.70050020  0.50062825  1
  Nb  Nb125  1  0.79581917  0.20191961  -0.00021202  1
  Nb  Nb126  1  0.20521319  0.39901617  0.40848724  1
  Nb  Nb127  1  0.19982606  0.60457468  0.19905970  1
  Nb  Nb128  1  -0.00658688  0.19967541  0.20367889  1
  Nb  Nb129  1  0.40688199  0.79823415  -0.00473225  1
  Nb  Nb130  1  -0.00761371  0.60123630  0.60316112  1
  Nb  Nb131  1  0.39190710  0.59582073  0.80527804  1
  Nb  Nb132  1  0.39987253  0.60191952  0.20183798  1
  Nb  Nb133  1  0.59947953  0.80814949  -0.00675227  1
  Nb  Nb134  1  0.19163489  0.59557092  0.80114897  1
  Nb  Nb135  1  0.80064652  0.60105133  0.59208366  1
  Nb  Nb136  1  0.40614057  0.59565550  0.39728922  1
  Nb  Nb137  1  0.39985602  0.20758604  0.59468384  1
  Nb  Nb138  1  0.40218710  0.59868977  0.00110772  1
  Nb  Nb139  1  -0.00048745  0.59559702  0.79841296  1
  Nb  Nb140  1  0.60296301  0.41176822  0.39618675  1
  Nb  Nb141  1  0.59508237  0.80161521  0.80369129  1
  Nb  Nb142  1  0.39763665  0.39877080  0.59914340  1
  Nb  Nb143  1  0.40433269  0.79281573  0.80343032  1
  Nb  Nb144  1  0.00303168  0.20772330  0.79696967  1
  Nb  Nb145  1  0.60606272  0.00253922  -0.00131530  1
  Nb  Nb146  1  0.39806355  0.39957561  0.80255110  1
  Nb  Nb147  1  0.20530715  0.19950871  -0.00191712  1
  Nb  Nb148  1  0.19316177  0.80476694  0.59414633  1
  Nb  Nb149  1  0.79504530  0.00599936  0.00235919  1
  Pd  Pd150  1  0.60227577  0.39631037  0.80780848  1
  Pd  Pd151  1  0.40562743  0.40715486  0.40225651  1
  Pd  Pd152  1  0.40110586  0.00990930  0.59157074  1
  Pd  Pd153  1  -0.00350460  0.00009915  0.39568795  1
  Pd  Pd154  1  0.20548076  0.40362844  0.79369136  1
  Pd  Pd155  1  0.00044092  0.59519555  -0.00021138  1
  Pd  Pd156  1  0.79605927  0.00623709  0.20121164  1
  Pd  Pd157  1  0.80440137  0.20389664  0.19849976  1
  Pd  Pd158  1  0.40425995  0.00492895  0.40358984  1
  Pd  Pd159  1  0.19586879  0.18979317  0.80661164  1
  Pd  Pd160  1  0.20048154  0.00778321  0.79618910  1
  Pd  Pd161  1  0.20532491  0.20162688  0.59133707  1
  Pd  Pd162  1  0.20245127  0.79926124  0.20287950  1
  Pd  Pd163  1  0.59874701  0.20060080  0.78927703  1
  Pd  Pd164  1  0.59639979  0.00848468  0.20049555  1
  Pd  Pd165  1  0.20018897  0.20788743  0.40440359  1
  Pd  Pd166  1  0.60500777  0.40226254  -0.00523364  1
  Pd  Pd167  1  0.40201463  0.19727514  0.20260638  1
  Pd  Pd168  1  0.80890159  -0.00267145  0.59828928  1
  Pd  Pd169  1  0.01086875  0.40077272  0.40908437  1
  Pd  Pd170  1  0.00054540  0.40439790  -0.00101583  1
  Pd  Pd171  1  -0.00918548  -0.00107246  0.60299454  1
  Pd  Pd172  1  0.81194868  0.60146668  0.20055202  1
  Pd  Pd173  1  0.00039999  0.79725340  0.59788215  1
  Pd  Pd174  1  0.40425350  0.40215816  0.00234011  1
  Pd  Pd175  1  0.40068004  0.20655657  0.78580609  1
  Pd  Pd176  1  0.79547796  0.19729051  0.40640242  1
  Pd  Pd177  1  0.00434886  0.19851546  0.39824177  1
  Pd  Pd178  1  0.60483402  0.59563223  0.00364867  1
  Pd  Pd179  1  0.59315660  0.60351350  0.39127557  1
  Pd  Pd180  1  0.59748111  -0.00553220  0.79784246  1
  Pd  Pd181  1  0.80064817  0.78788417  0.20844138  1
  Pd  Pd182  1  0.19775223  0.59704984  0.00559963  1
  Pd  Pd183  1  0.00045247  0.59390206  0.19719814  1
  Pd  Pd184  1  -0.01195978  0.59583544  0.41145824  1
  Pd  Pd185  1  0.59887551  0.19462783  0.60627284  1
  Pd  Pd186  1  0.19438776  0.19399177  0.19691359  1
  Pd  Pd187  1  0.20439093  0.00700229  -0.00682850  1
  Pd  Pd188  1  0.00531094  0.00262927  0.21265129  1
  Pd  Pd189  1  -0.00997455  -0.01025143  -0.00228748  1
  Pd  Pd190  1  0.78603601  0.40001589  -0.00176078  1
  Pd  Pd191  1  -0.00427247  0.79190198  0.80460729  1
  Pd  Pd192  1  -0.00457893  0.39872633  0.79749629  1
  Pd  Pd193  1  0.60514933  -0.00297488  0.40728351  1
  Pd  Pd194  1  -0.00243896  0.20722268  -0.00378980  1
  Pd  Pd195  1  0.78682821  0.39341828  0.80641199  1
  Pd  Pd196  1  0.81041761  0.60240762  0.40394061  1
  Pd  Pd197  1  0.20340682  0.80823310  0.00457214  1
  Pd  Pd198  1  0.20307541  0.79772825  0.79233107  1
  Pd  Pd199  1  0.80853094  0.21401527  0.80280926  1
  Rh  Rh200  1  0.79742105  0.59395804  0.78831748  1
  Rh  Rh201  1  0.21540241  0.58569281  0.38270385  1
  Rh  Rh202  1  0.79883529  0.79568845  0.39672057  1
  Rh  Rh203  1  -0.00679561  0.39628152  0.20076031  1
  Rh  Rh204  1  -0.00552022  0.20050275  0.60345253  1
  Rh  Rh205  1  0.19920795  0.00152836  0.20461493  1
  Rh  Rh206  1  0.20415786  0.38553315  0.59218400  1
  Rh  Rh207  1  0.39348132  0.19918377  0.00285921  1
  Rh  Rh208  1  0.19264221  0.40736757  0.20820310  1
  Rh  Rh209  1  -0.00192093  0.80411875  0.00062397  1
  Rh  Rh210  1  0.59834807  0.19848321  0.00475599  1
  Rh  Rh211  1  0.60357154  -0.00421508  0.59607480  1
  Rh  Rh212  1  0.40672599  0.00173882  0.00405632  1
  Rh  Rh213  1  0.39243967  0.79696164  0.59748537  1
  Rh  Rh214  1  0.40006774  0.19019344  0.40233420  1
  Rh  Rh215  1  0.79129526  0.40482047  0.58916808  1
  Rh  Rh216  1  0.80221390  0.19866833  0.59674473  1
  Rh  Rh217  1  0.20216097  -0.00593418  0.40232736  1
  Rh  Rh218  1  0.59082697  0.20164961  0.20555738  1
  Rh  Rh219  1  0.60505162  0.20549682  0.39466840  1
  Rh  Rh220  1  0.59187531  0.39063920  0.20865104  1
  Rh  Rh221  1  0.79321474  0.58583246  0.01191224  1
  Rh  Rh222  1  0.18022167  0.61564096  0.61061381  1
  Rh  Rh223  1  0.60560773  0.79808666  0.60202335  1
  Rh  Rh224  1  0.20468075  0.80870023  0.41081336  1
  Rh  Rh225  1  0.00111776  0.80204972  0.20741940  1
  Rh  Rh226  1  0.39453649  0.79894344  0.19841678  1
  Rh  Rh227  1  0.80640350  -0.00445281  0.79576786  1
  Rh  Rh228  1  0.61284915  0.79428346  0.20589756  1
  Rh  Rh229  1  0.19409439  0.39209279  0.00451619  1
  Rh  Rh230  1  0.40412413  0.01040359  0.20816893  1
  Rh  Rh231  1  -0.00333081  0.80663000  0.39546354  1
  Rh  Rh232  1  0.80120091  0.79456277  0.59602492  1
  Rh  Rh233  1  0.79664998  0.80207286  0.79207580  1
  Rh  Rh234  1  0.19993161  -0.00903025  0.59467185  1
  Rh  Rh235  1  0.60768938  0.79706546  0.40010736  1
  Rh  Rh236  1  0.40031640  -0.00375562  0.78808262  1
  Rh  Rh237  1  0.40548278  0.59902359  0.59552452  1
  Rh  Rh238  1  0.61242115  0.60540005  0.60360642  1
  Rh  Rh239  1  0.80029785  0.81114164  0.00239156  1
  Rh  Rh240  1  0.80667553  0.40130101  0.20420994  1
  Rh  Rh241  1  0.39893986  0.79116886  0.40958282  1
  Rh  Rh242  1  0.60500324  0.60470822  0.79170683  1
  Rh  Rh243  1  0.80199521  0.00445802  0.40329187  1
  Rh  Rh244  1  -0.00451503  0.00746419  0.79176058  1
  Rh  Rh245  1  0.60402686  0.39952106  0.58835824  1
  Rh  Rh246  1  0.40646922  0.39976429  0.19324278  1
  Rh  Rh247  1  0.79129537  0.39699119  0.40129869  1
  Rh  Rh248  1  0.00062349  0.39966539  0.59427318  1
  Rh  Rh249  1  0.59816753  0.60790077  0.20788157  1
