# generated using pymatgen
data_ZrScNbPdRh
_symmetry_space_group_name_H-M   'P 1'
_cell_length_a   16.55498347
_cell_length_b   16.55465832
_cell_length_c   16.55699278
_cell_angle_alpha   89.99887774
_cell_angle_beta   89.95722293
_cell_angle_gamma   90.00457800
_symmetry_Int_Tables_number   1
_chemical_formula_structural   ZrScNbPdRh
_chemical_formula_sum   'Zr50 Sc50 Nb50 Pd50 Rh50'
_cell_volume   4537.64284420
_cell_formula_units_Z   50
loop_
 _symmetry_equiv_pos_site_id
 _symmetry_equiv_pos_as_xyz
  1  'x, y, z'
loop_
 _atom_site_type_symbol
 _atom_site_label
 _atom_site_symmetry_multiplicity
 _atom_site_fract_x
 _atom_site_fract_y
 _atom_site_fract_z
 _atom_site_occupancy
  Zr  Zr0  1  0.29678578  0.49978914  0.70791659  1
  Zr  Zr1  1  0.89306820  0.29590654  0.49613049  1
  Zr  Zr2  1  0.69456634  0.09670076  0.90201452  1
  Zr  Zr3  1  0.09508156  0.89986527  0.71479517  1
  Zr  Zr4  1  0.30826432  0.09384779  0.09326633  1
  Zr  Zr5  1  0.90091999  0.30218054  0.69573802  1
  Zr  Zr6  1  0.70194396  0.89749664  0.69677475  1
  Zr  Zr7  1  0.50475728  0.89993645  0.69936800  1
  Zr  Zr8  1  0.49939511  0.49829692  0.09953208  1
  Zr  Zr9  1  0.29615800  0.90010334  0.10357857  1
  Zr  Zr10  1  0.30632362  0.29976572  0.09130884  1
  Zr  Zr11  1  0.29424521  0.50397663  0.49806096  1
  Zr  Zr12  1  0.89778982  0.70058683  0.29439973  1
  Zr  Zr13  1  0.89782422  0.70491377  0.50182226  1
  Zr  Zr14  1  0.09967504  0.89944498  0.09617453  1
  Zr  Zr15  1  0.29081206  0.70351878  0.49715513  1
  Zr  Zr16  1  0.10341648  0.48894666  0.89538522  1
  Zr  Zr17  1  0.30128432  0.49743286  0.89901197  1
  Zr  Zr18  1  0.49520610  0.50128024  0.70790943  1
  Zr  Zr19  1  0.50029456  0.50624580  0.90554572  1
  Zr  Zr20  1  0.29295376  0.69580833  0.70147973  1
  Zr  Zr21  1  0.88807869  0.49631893  0.90278762  1
  Zr  Zr22  1  0.69835869  0.49024302  0.49511413  1
  Zr  Zr23  1  0.50612746  0.30395267  0.49459153  1
  Zr  Zr24  1  0.50708376  0.30467928  0.90728384  1
  Zr  Zr25  1  0.30387033  0.29885856  0.49117873  1
  Zr  Zr26  1  0.30268680  0.90036452  0.48840077  1
  Zr  Zr27  1  0.70281869  0.30028799  0.30552308  1
  Zr  Zr28  1  0.49589270  0.09690121  0.49971325  1
  Zr  Zr29  1  0.90019930  0.89162496  0.11031890  1
  Zr  Zr30  1  0.49047541  0.90270566  0.10344850  1
  Zr  Zr31  1  0.10117726  0.30931844  0.30194566  1
  Zr  Zr32  1  0.10476103  0.89680589  0.49921042  1
  Zr  Zr33  1  0.50107211  0.50353618  0.49917968  1
  Zr  Zr34  1  0.09111589  0.90926565  0.29574190  1
  Zr  Zr35  1  0.90898759  0.49276835  0.29841633  1
  Zr  Zr36  1  0.29869264  0.09330582  0.30370741  1
  Zr  Zr37  1  0.49986492  0.89816435  0.89164545  1
  Zr  Zr38  1  0.50120694  0.89811963  0.49543859  1
  Zr  Zr39  1  0.90175234  0.49861682  0.69795599  1
  Zr  Zr40  1  0.71055478  0.50262885  0.29646880  1
  Zr  Zr41  1  0.50316056  0.30094306  0.10056150  1
  Zr  Zr42  1  0.88890578  0.70459681  0.90487794  1
  Zr  Zr43  1  0.70079725  0.88890491  0.50110139  1
  Zr  Zr44  1  0.70187587  0.09795275  0.29273473  1
  Zr  Zr45  1  0.90317916  0.09033524  0.69606706  1
  Zr  Zr46  1  0.29807815  0.49664882  0.30254572  1
  Zr  Zr47  1  0.30348883  0.10266950  0.89304390  1
  Zr  Zr48  1  0.09769819  0.50182026  0.69801790  1
  Zr  Zr49  1  0.70512997  0.30533777  0.69241213  1
  Sc  Sc50  1  0.70581319  0.70457040  0.09261948  1
  Sc  Sc51  1  0.29578278  0.90984243  0.70731266  1
  Sc  Sc52  1  0.90391278  0.90229178  0.49998808  1
  Sc  Sc53  1  0.29981141  0.70889338  0.09659916  1
  Sc  Sc54  1  0.70010031  0.08873693  0.69784352  1
  Sc  Sc55  1  0.30938666  0.49765656  0.09717401  1
  Sc  Sc56  1  0.09478667  0.71127765  0.10283882  1
  Sc  Sc57  1  0.10388634  0.69703991  0.50261767  1
  Sc  Sc58  1  0.70179565  0.49885493  0.10166957  1
  Sc  Sc59  1  0.49494025  0.49200900  0.29207972  1
  Sc  Sc60  1  0.49202845  0.09724575  0.70350619  1
  Sc  Sc61  1  0.70335519  0.50291519  0.70208488  1
  Sc  Sc62  1  0.09721477  0.70044787  0.30874227  1
  Sc  Sc63  1  0.09606858  0.50677964  0.49553438  1
  Sc  Sc64  1  0.69881187  0.10041935  0.10744203  1
  Sc  Sc65  1  0.09362604  0.30497919  0.71321008  1
  Sc  Sc66  1  0.90577242  0.09867125  0.29870037  1
  Sc  Sc67  1  0.69939351  0.30104310  0.10467577  1
  Sc  Sc68  1  0.30117484  0.09501277  0.50063330  1
  Sc  Sc69  1  0.29903577  0.70961674  0.30246663  1
  Sc  Sc70  1  0.89616674  0.09905329  0.11075177  1
  Sc  Sc71  1  0.29935612  0.30917617  0.30317292  1
  Sc  Sc72  1  0.49414638  0.30068281  0.70210645  1
  Sc  Sc73  1  0.09966265  0.71689736  0.89930282  1
  Sc  Sc74  1  0.89351406  0.69417714  0.69875549  1
  Sc  Sc75  1  0.29459223  0.89667993  0.90062144  1
  Sc  Sc76  1  0.70324381  0.70022185  0.69718891  1
  Sc  Sc77  1  0.70212452  0.69860714  0.31756086  1
  Sc  Sc78  1  0.29324985  0.30263718  0.89785118  1
  Sc  Sc79  1  0.10275219  0.09542136  0.69890530  1
  Sc  Sc80  1  0.10648496  0.29985725  0.09174472  1
  Sc  Sc81  1  0.09470183  0.49137526  0.10563059  1
  Sc  Sc82  1  0.10035634  0.70029673  0.70231138  1
  Sc  Sc83  1  0.10223540  0.09291848  0.09910308  1
  Sc  Sc84  1  0.69828274  0.50007154  0.90225189  1
  Sc  Sc85  1  0.89069337  0.49988430  0.11397114  1
  Sc  Sc86  1  0.09800956  0.10055031  0.49036783  1
  Sc  Sc87  1  0.09546953  0.29288926  0.48856906  1
  Sc  Sc88  1  0.50086234  0.70341090  0.90335778  1
  Sc  Sc89  1  0.90548192  0.49709869  0.50363579  1
  Sc  Sc90  1  0.70366634  0.90104776  0.10657353  1
  Sc  Sc91  1  0.70432935  0.10163495  0.49602817  1
  Sc  Sc92  1  0.51235480  0.70195720  0.49874397  1
  Sc  Sc93  1  0.09739166  0.11020126  0.89693793  1
  Sc  Sc94  1  0.70165329  0.70056361  0.50166957  1
  Sc  Sc95  1  0.70034688  0.88908891  0.89506679  1
  Sc  Sc96  1  0.69659465  0.90158919  0.30010470  1
  Sc  Sc97  1  0.49263661  0.69539692  0.08791897  1
  Sc  Sc98  1  0.49692168  0.10282285  0.90254592  1
  Sc  Sc99  1  0.50170005  0.69631376  0.70015834  1
  Nb  Nb100  1  0.90589746  0.90142523  0.88872427  1
  Nb  Nb101  1  0.50090736  0.29597237  0.29584072  1
  Nb  Nb102  1  0.50137468  0.09990340  0.09932851  1
  Nb  Nb103  1  0.90330520  0.29541618  0.90059112  1
  Nb  Nb104  1  0.09855256  0.10964588  0.30005562  1
  Nb  Nb105  1  0.29727431  0.70065189  0.90609300  1
  Nb  Nb106  1  0.89951809  0.70079724  0.10223814  1
  Nb  Nb107  1  0.09016648  0.30346255  0.90242550  1
  Nb  Nb108  1  0.70114626  0.30137957  0.49968744  1
  Nb  Nb109  1  0.50222193  0.69913226  0.30606283  1
  Nb  Nb110  1  0.90334835  0.89949627  0.70579007  1
  Nb  Nb111  1  0.50705322  0.09119564  0.29216236  1
  Nb  Nb112  1  0.70607588  0.29664126  0.90305384  1
  Nb  Nb113  1  0.89838920  0.10024155  0.90053114  1
  Nb  Nb114  1  0.30498420  0.29838359  0.69621492  1
  Nb  Nb115  1  0.89935591  0.30101035  0.10294825  1
  Nb  Nb116  1  0.70010734  0.69596840  0.90613162  1
  Nb  Nb117  1  0.89925883  0.90261919  0.29979452  1
  Nb  Nb118  1  0.10190126  0.49902145  0.29921512  1
  Nb  Nb119  1  0.30942676  0.89834512  0.30022034  1
  Nb  Nb120  1  0.30449478  0.11339519  0.69910431  1
  Nb  Nb121  1  0.90587349  0.10165477  0.49736252  1
  Nb  Nb122  1  0.09088568  0.89916748  0.89800766  1
  Nb  Nb123  1  0.49265492  0.89590548  0.30267776  1
  Nb  Nb124  1  0.90191188  0.30261395  0.29544541  1
  Nb  Nb125  1  0.80446641  -0.00141640  -0.00494921  1
  Nb  Nb126  1  -0.00836868  -0.00316942  -0.00694494  1
  Nb  Nb127  1  0.40140781  0.60285028  0.39853362  1
  Nb  Nb128  1  0.59097311  0.79399762  0.20491603  1
  Nb  Nb129  1  -0.00474367  0.59842154  0.81032564  1
  Nb  Nb130  1  0.20327218  0.19790424  0.20291556  1
  Nb  Nb131  1  0.80185657  0.19935734  0.80340225  1
  Nb  Nb132  1  0.40361105  0.19444045  0.20167296  1
  Nb  Nb133  1  0.20649520  0.20454365  0.60368126  1
  Nb  Nb134  1  0.60201305  0.20431721  0.59946795  1
  Nb  Nb135  1  0.19348006  0.60078126  0.00258638  1
  Nb  Nb136  1  0.39474587  0.40219280  0.59953608  1
  Nb  Nb137  1  0.60854577  0.20453245  0.79806823  1
  Nb  Nb138  1  0.40973320  0.19726111  0.38922377  1
  Nb  Nb139  1  0.00623906  0.20564223  0.20276942  1
  Nb  Nb140  1  0.80768249  -0.00057353  0.39903127  1
  Nb  Nb141  1  -0.00191189  0.80495177  0.60693889  1
  Nb  Nb142  1  -0.00802549  0.39685352  -0.00213571  1
  Nb  Nb143  1  0.59855534  -0.00144328  0.00394498  1
  Nb  Nb144  1  0.59751271  0.60761114  0.20261026  1
  Nb  Nb145  1  0.19800773  0.59789267  0.19869127  1
  Nb  Nb146  1  0.39654458  0.80077500  0.59930813  1
  Nb  Nb147  1  -0.00130472  0.59815727  -0.00017479  1
  Nb  Nb148  1  0.20293921  0.39406728  0.60131902  1
  Nb  Nb149  1  0.80490039  0.19953464  -0.00307300  1
  Pd  Pd150  1  0.79528084  0.19170948  0.60440377  1
  Pd  Pd151  1  0.20580981  0.40074718  0.19063453  1
  Pd  Pd152  1  0.40368256  -0.00588885  -0.00957127  1
  Pd  Pd153  1  0.19515527  -0.00212041  0.39609120  1
  Pd  Pd154  1  0.80111394  0.59692230  0.00959845  1
  Pd  Pd155  1  0.40130946  0.60947079  0.80825926  1
  Pd  Pd156  1  0.60604522  0.60540364  0.80297241  1
  Pd  Pd157  1  0.79743879  0.00098598  0.80389850  1
  Pd  Pd158  1  0.00576997  -0.00510641  0.59476114  1
  Pd  Pd159  1  0.60900534  0.40392209  0.00403201  1
  Pd  Pd160  1  -0.00404411  0.60085674  0.39997676  1
  Pd  Pd161  1  -0.00383526  0.19690432  0.01194663  1
  Pd  Pd162  1  0.40407123  0.79074441  0.19830352  1
  Pd  Pd163  1  0.59952994  0.19410802  0.40289739  1
  Pd  Pd164  1  0.40838648  0.20825187  0.80821520  1
  Pd  Pd165  1  0.19784268  0.00607140  0.80611509  1
  Pd  Pd166  1  0.81057637  0.59426779  0.40619717  1
  Pd  Pd167  1  0.59307295  0.39981700  0.60764994  1
  Pd  Pd168  1  0.59986294  0.20187795  0.19756296  1
  Pd  Pd169  1  0.19966336  0.19616775  0.00044746  1
  Pd  Pd170  1  0.59789949  0.40469962  0.38761094  1
  Pd  Pd171  1  0.60392617  0.39723155  0.79912330  1
  Pd  Pd172  1  0.80507894  0.19277708  0.39369734  1
  Pd  Pd173  1  0.79866578  0.79544081  0.79639043  1
  Pd  Pd174  1  0.79548300  0.59288839  0.59273388  1
  Pd  Pd175  1  0.20205629  0.00688617  0.60003282  1
  Pd  Pd176  1  0.79912174  0.39589448  0.79939837  1
  Pd  Pd177  1  0.01155607  0.20154223  0.60255017  1
  Pd  Pd178  1  0.19439127  0.79681281  0.20705005  1
  Pd  Pd179  1  0.60017634  0.00575522  0.59683489  1
  Pd  Pd180  1  0.19930805  0.00244376  0.20286147  1
  Pd  Pd181  1  0.18994686  0.60790656  0.81151205  1
  Pd  Pd182  1  0.60652764  -0.00280167  0.40013174  1
  Pd  Pd183  1  -0.00402138  0.19433421  0.79292335  1
  Pd  Pd184  1  -0.00718924  0.80097556  -0.00042428  1
  Pd  Pd185  1  0.00999571  0.39195059  0.59090292  1
  Pd  Pd186  1  0.19071399  0.00165060  -0.01222242  1
  Pd  Pd187  1  0.39937300  0.60533279  0.59321599  1
  Pd  Pd188  1  0.39346119  0.79516815  0.79488576  1
  Pd  Pd189  1  0.78704092  0.79427633  0.20859466  1
  Pd  Pd190  1  0.19906922  0.80721746  0.60883055  1
  Pd  Pd191  1  0.80364324  -0.00398459  0.59004148  1
  Pd  Pd192  1  0.60708208  0.59843123  0.60224205  1
  Pd  Pd193  1  -0.00052534  0.79997597  0.40447764  1
  Pd  Pd194  1  0.60446309  0.78899054  0.79755273  1
  Pd  Pd195  1  0.39421807  -0.00721715  0.60523328  1
  Pd  Pd196  1  0.60017888  0.80611682  0.00903271  1
  Pd  Pd197  1  0.00689629  0.60365802  0.19420944  1
  Pd  Pd198  1  0.19677086  0.20650427  0.79596007  1
  Pd  Pd199  1  0.39632840  0.60902365  0.20480318  1
  Rh  Rh200  1  0.20047702  0.79997402  -0.00211647  1
  Rh  Rh201  1  0.19419531  0.59256048  0.60102588  1
  Rh  Rh202  1  0.20433096  0.80181286  0.80175469  1
  Rh  Rh203  1  -0.00864990  0.78836975  0.79303045  1
  Rh  Rh204  1  0.80343598  0.80977115  -0.00147735  1
  Rh  Rh205  1  0.60540280  0.19475841  0.00049080  1
  Rh  Rh206  1  0.00232898  0.79740000  0.20714367  1
  Rh  Rh207  1  0.59228047  0.00474010  0.80626907  1
  Rh  Rh208  1  0.79544655  0.39320483  0.20173083  1
  Rh  Rh209  1  0.00034122  0.00646717  0.19445055  1
  Rh  Rh210  1  0.80662425  0.40059431  0.40066705  1
  Rh  Rh211  1  0.39789172  0.38847572  0.19933454  1
  Rh  Rh212  1  0.40936924  0.40249731  0.40135252  1
  Rh  Rh213  1  0.40184498  0.40037308  -0.00682535  1
  Rh  Rh214  1  0.40273457  0.20185448  -0.00004402  1
  Rh  Rh215  1  0.20312783  0.39002134  0.79531220  1
  Rh  Rh216  1  0.40319998  0.79176153  0.40846938  1
  Rh  Rh217  1  0.80165981  0.40596136  0.59334778  1
  Rh  Rh218  1  0.40324818  0.20527056  0.58823913  1
  Rh  Rh219  1  -0.00101393  0.40036309  0.40276403  1
  Rh  Rh220  1  0.18821700  0.40584909  0.40950400  1
  Rh  Rh221  1  0.00475495  0.00903301  0.80582636  1
  Rh  Rh222  1  0.19460888  0.80908563  0.38903558  1
  Rh  Rh223  1  0.39539565  0.80472448  -0.00383932  1
  Rh  Rh224  1  0.39691016  0.00234347  0.79918175  1
  Rh  Rh225  1  -0.00903406  0.20128777  0.39199185  1
  Rh  Rh226  1  0.39041029  0.60161684  -0.00449714  1
  Rh  Rh227  1  0.20326306  0.59989738  0.38917789  1
  Rh  Rh228  1  0.80422808  -0.00206119  0.20487798  1
  Rh  Rh229  1  0.80455743  0.80874000  0.39705706  1
  Rh  Rh230  1  0.40588744  0.00415137  0.39287949  1
  Rh  Rh231  1  0.00190019  0.61170688  0.60643909  1
  Rh  Rh232  1  0.59510093  -0.01214701  0.19448509  1
  Rh  Rh233  1  0.80661640  0.20524204  0.20000898  1
  Rh  Rh234  1  0.40041100  0.39621323  0.80150405  1
  Rh  Rh235  1  0.59490947  0.79660492  0.60411635  1
  Rh  Rh236  1  0.21063772  0.19668097  0.39934615  1
  Rh  Rh237  1  0.40117019  0.00317909  0.20438444  1
  Rh  Rh238  1  -0.01051243  0.40636216  0.80681759  1
  Rh  Rh239  1  0.19477733  0.40487229  0.00143793  1
  Rh  Rh240  1  0.59348256  0.58873346  0.39034356  1
  Rh  Rh241  1  0.79672196  0.60292704  0.80312878  1
  Rh  Rh242  1  0.60360343  0.59998932  0.00655256  1
  Rh  Rh243  1  0.00171145  0.39236526  0.19424363  1
  Rh  Rh244  1  0.80255125  0.39147315  0.00647574  1
  Rh  Rh245  1  0.80907734  0.80525956  0.60409233  1
  Rh  Rh246  1  -0.00333065  0.00393610  0.40050704  1
  Rh  Rh247  1  0.60523079  0.40635999  0.20320884  1
  Rh  Rh248  1  0.60209845  0.80539020  0.39453105  1
  Rh  Rh249  1  0.79074378  0.61148132  0.19886314  1
