# generated using pymatgen
data_ZrScNbPdRh
_symmetry_space_group_name_H-M   'P 1'
_cell_length_a   16.56220210
_cell_length_b   16.56183084
_cell_length_c   16.56192355
_cell_angle_alpha   89.97553827
_cell_angle_beta   90.00578110
_cell_angle_gamma   90.02103690
_symmetry_Int_Tables_number   1
_chemical_formula_structural   ZrScNbPdRh
_chemical_formula_sum   'Zr50 Sc50 Nb50 Pd50 Rh50'
_cell_volume   4542.94133906
_cell_formula_units_Z   50
loop_
 _symmetry_equiv_pos_site_id
 _symmetry_equiv_pos_as_xyz
  1  'x, y, z'
loop_
 _atom_site_type_symbol
 _atom_site_label
 _atom_site_symmetry_multiplicity
 _atom_site_fract_x
 _atom_site_fract_y
 _atom_site_fract_z
 _atom_site_occupancy
  Zr  Zr0  1  0.10248916  0.69814409  0.09943905  1
  Zr  Zr1  1  0.50044801  0.69508241  0.29931065  1
  Zr  Zr2  1  0.91081828  0.88976829  0.49908888  1
  Zr  Zr3  1  0.30592784  0.89877323  0.29536980  1
  Zr  Zr4  1  0.70566851  0.49671038  0.29085492  1
  Zr  Zr5  1  0.10037711  0.10003975  0.90989268  1
  Zr  Zr6  1  0.09139757  0.49614812  0.09696240  1
  Zr  Zr7  1  0.10105452  0.29355315  0.09332601  1
  Zr  Zr8  1  0.70191030  0.90533635  0.70018010  1
  Zr  Zr9  1  0.29795262  0.30411923  0.30109742  1
  Zr  Zr10  1  0.70219082  0.70191420  0.29923071  1
  Zr  Zr11  1  0.70746379  0.31191013  0.69641046  1
  Zr  Zr12  1  0.49865928  0.90643153  0.90970052  1
  Zr  Zr13  1  0.69658389  0.90319921  0.50376987  1
  Zr  Zr14  1  0.30175175  0.69599758  0.91223347  1
  Zr  Zr15  1  0.49577617  0.90398767  0.69384332  1
  Zr  Zr16  1  0.09194695  0.68847285  0.90033177  1
  Zr  Zr17  1  0.90373236  0.70731141  0.09897206  1
  Zr  Zr18  1  0.69727962  0.89580875  0.90617230  1
  Zr  Zr19  1  0.89436719  0.09904582  0.69734942  1
  Zr  Zr20  1  0.70147363  0.49347593  0.51226033  1
  Zr  Zr21  1  0.70321538  0.09549871  0.69127401  1
  Zr  Zr22  1  0.29457646  0.90754422  0.89638073  1
  Zr  Zr23  1  0.69700559  0.90685618  0.29482714  1
  Zr  Zr24  1  0.30312834  0.30271445  0.09470086  1
  Zr  Zr25  1  0.90347155  0.29704078  0.89318565  1
  Zr  Zr26  1  0.69567317  0.30310782  0.89459918  1
  Zr  Zr27  1  0.49452870  0.10223644  0.70496147  1
  Zr  Zr28  1  0.29448109  0.10220098  0.50779187  1
  Zr  Zr29  1  0.48932553  0.69646236  0.09426903  1
  Zr  Zr30  1  0.90328075  0.10675354  0.50642155  1
  Zr  Zr31  1  0.30122611  0.09447454  0.70147604  1
  Zr  Zr32  1  0.89861652  0.69893722  0.90091530  1
  Zr  Zr33  1  0.69491627  0.29987725  0.49488049  1
  Zr  Zr34  1  0.50605594  0.10790612  0.50440028  1
  Zr  Zr35  1  0.09576499  0.29946573  0.29228142  1
  Zr  Zr36  1  0.89605172  0.89760424  0.90924028  1
  Zr  Zr37  1  0.49965938  0.89589717  0.30104362  1
  Zr  Zr38  1  0.70166286  0.09901554  0.50235655  1
  Zr  Zr39  1  0.29668628  0.29646237  0.70733770  1
  Zr  Zr40  1  0.29050219  0.50205860  0.69327002  1
  Zr  Zr41  1  0.30653871  0.68856063  0.50855642  1
  Zr  Zr42  1  0.10415187  0.89674686  0.70591544  1
  Zr  Zr43  1  0.49591629  0.29441009  0.89791385  1
  Zr  Zr44  1  0.49944760  0.29965089  0.09325786  1
  Zr  Zr45  1  0.89793452  0.69802140  0.48824096  1
  Zr  Zr46  1  0.69269845  0.70021388  0.10080638  1
  Zr  Zr47  1  0.49513055  0.50028328  0.70436839  1
  Zr  Zr48  1  0.69851456  0.10440029  0.30230437  1
  Zr  Zr49  1  0.88770482  0.49596146  0.70016514  1
  Sc  Sc50  1  0.50368461  0.70097459  0.49417476  1
  Sc  Sc51  1  0.09846267  0.49432817  0.89268792  1
  Sc  Sc52  1  0.70234687  0.09510820  0.10933728  1
  Sc  Sc53  1  0.88968057  0.50474690  0.49200061  1
  Sc  Sc54  1  0.29608838  0.10535461  0.09024682  1
  Sc  Sc55  1  0.10909639  0.11098146  0.70154536  1
  Sc  Sc56  1  0.08665878  0.70680007  0.49953640  1
  Sc  Sc57  1  0.90358273  0.69757511  0.70912136  1
  Sc  Sc58  1  0.91126379  0.09807400  0.90033537  1
  Sc  Sc59  1  0.50489283  0.89937668  0.49905144  1
  Sc  Sc60  1  0.69708361  0.69509434  0.49507689  1
  Sc  Sc61  1  0.69481868  0.50100838  0.70839782  1
  Sc  Sc62  1  0.49899548  0.29845744  0.70226224  1
  Sc  Sc63  1  0.90089072  0.09741481  0.09177039  1
  Sc  Sc64  1  0.09956329  0.88890501  0.09897437  1
  Sc  Sc65  1  0.31081073  0.70361430  0.29698975  1
  Sc  Sc66  1  0.49415137  0.69436861  0.69098178  1
  Sc  Sc67  1  0.09803357  0.90505056  0.89782992  1
  Sc  Sc68  1  0.10350466  0.89349298  0.29646166  1
  Sc  Sc69  1  0.69232619  0.30156191  0.10758419  1
  Sc  Sc70  1  0.10129428  0.69565655  0.70867634  1
  Sc  Sc71  1  0.69884938  0.68985416  0.70371733  1
  Sc  Sc72  1  0.68799872  0.09672669  0.89758810  1
  Sc  Sc73  1  0.29689421  0.69076375  0.70165528  1
  Sc  Sc74  1  0.50287864  0.89930025  0.09996251  1
  Sc  Sc75  1  0.30942306  0.50620758  0.08407743  1
  Sc  Sc76  1  0.90124944  0.90129668  0.71218940  1
  Sc  Sc77  1  0.30595552  0.09261013  0.29986124  1
  Sc  Sc78  1  0.29314288  0.31038895  0.49898996  1
  Sc  Sc79  1  0.50631314  0.08979738  0.29804944  1
  Sc  Sc80  1  0.90756170  0.30612494  0.10751163  1
  Sc  Sc81  1  0.09843231  0.70750967  0.29779774  1
  Sc  Sc82  1  0.10109357  0.49692650  0.30519532  1
  Sc  Sc83  1  0.30452203  0.91546556  0.50377770  1
  Sc  Sc84  1  0.89431471  0.11228725  0.29546503  1
  Sc  Sc85  1  0.30040377  0.09926617  0.89688116  1
  Sc  Sc86  1  0.50317103  0.09859542  0.09435924  1
  Sc  Sc87  1  0.70324236  0.90179359  0.09765503  1
  Sc  Sc88  1  0.89991845  0.29104897  0.70139447  1
  Sc  Sc89  1  0.30506882  0.49689169  0.89013631  1
  Sc  Sc90  1  0.51661228  0.30461691  0.30818766  1
  Sc  Sc91  1  0.50010885  0.50341554  0.49039654  1
  Sc  Sc92  1  0.09764486  0.10572274  0.29550247  1
  Sc  Sc93  1  0.90636919  0.50452620  0.89693000  1
  Sc  Sc94  1  0.30085653  0.30293507  0.89999674  1
  Sc  Sc95  1  0.69887017  0.69986255  0.89910138  1
  Sc  Sc96  1  0.30107829  0.88968227  0.09538054  1
  Sc  Sc97  1  0.30605157  0.49977841  0.31382809  1
  Sc  Sc98  1  0.89578675  0.49394763  0.10932280  1
  Sc  Sc99  1  0.10254346  0.29232252  0.50476985  1
  Nb  Nb100  1  0.90006621  0.30182458  0.49948738  1
  Nb  Nb101  1  0.69835538  0.50180454  0.89848287  1
  Nb  Nb102  1  0.11131710  0.49411612  0.50538628  1
  Nb  Nb103  1  0.69501099  0.50127196  0.09563744  1
  Nb  Nb104  1  0.89905739  0.89357601  0.29850979  1
  Nb  Nb105  1  0.10419596  0.49969614  0.69500282  1
  Nb  Nb106  1  0.30017704  0.90368793  0.70336644  1
  Nb  Nb107  1  0.49892208  0.50507978  0.29261977  1
  Nb  Nb108  1  0.51121624  0.50401275  0.10409747  1
  Nb  Nb109  1  0.90010459  0.69645627  0.30427220  1
  Nb  Nb110  1  0.10409447  0.90219085  0.50050054  1
  Nb  Nb111  1  0.89793756  0.90325650  0.10303839  1
  Nb  Nb112  1  0.10440398  0.09379981  0.50039530  1
  Nb  Nb113  1  0.09613763  0.29482901  0.89035332  1
  Nb  Nb114  1  0.09788713  0.09582362  0.09734883  1
  Nb  Nb115  1  0.50539462  0.50614762  0.89944096  1
  Nb  Nb116  1  0.89423959  0.31344056  0.30422864  1
  Nb  Nb117  1  0.50337000  0.30448239  0.50311420  1
  Nb  Nb118  1  0.49662155  0.10196696  0.90105256  1
  Nb  Nb119  1  0.29571890  0.69989018  0.10017936  1
  Nb  Nb120  1  0.29096230  0.49895341  0.50326089  1
  Nb  Nb121  1  0.10459040  0.30555405  0.70920830  1
  Nb  Nb122  1  0.71354092  0.29815661  0.30279672  1
  Nb  Nb123  1  0.89791605  0.49783975  0.30028220  1
  Nb  Nb124  1  0.49891383  0.70551692  0.89732018  1
  Nb  Nb125  1  -0.00402502  0.39751565  0.40523643  1
  Nb  Nb126  1  0.39786244  0.40283847  0.59620184  1
  Nb  Nb127  1  0.80171811  0.79942533  0.60010240  1
  Nb  Nb128  1  0.20618879  0.40623217  0.19423414  1
  Nb  Nb129  1  0.20117555  0.59778461  0.19975739  1
  Nb  Nb130  1  0.00292074  0.58833177  0.59875239  1
  Nb  Nb131  1  0.19889667  0.60398289  0.40397007  1
  Nb  Nb132  1  0.40640004  0.40416776  0.19920806  1
  Nb  Nb133  1  0.20110037  0.80544630  0.59831612  1
  Nb  Nb134  1  0.00831964  0.00027508  0.59607787  1
  Nb  Nb135  1  0.20315896  0.19530447  0.40061139  1
  Nb  Nb136  1  0.20503413  0.80026987  0.40877751  1
  Nb  Nb137  1  0.40009177  0.80305819  0.80210538  1
  Nb  Nb138  1  0.19457301  0.00155813  0.19279046  1
  Nb  Nb139  1  0.00271490  0.40205475  0.59808752  1
  Nb  Nb140  1  -0.00311304  -0.00487196  0.20014924  1
  Nb  Nb141  1  0.79849146  0.20867521  -0.00284369  1
  Nb  Nb142  1  0.59046044  0.80051280  0.80000305  1
  Nb  Nb143  1  0.40149391  0.20523356  0.40105810  1
  Nb  Nb144  1  0.79380049  0.59275816  0.00361007  1
  Nb  Nb145  1  0.40289990  0.20767369  0.20394517  1
  Nb  Nb146  1  0.00039368  -0.00004867  0.39841009  1
  Nb  Nb147  1  0.79252552  0.40237154  -0.00262911  1
  Nb  Nb148  1  0.80905243  -0.00246495  0.39975339  1
  Nb  Nb149  1  -0.00296804  0.60113868  0.20744918  1
  Pd  Pd150  1  -0.00275284  0.40322062  0.79044356  1
  Pd  Pd151  1  0.79928616  0.80055267  0.19775179  1
  Pd  Pd152  1  0.59367237  0.19933107  0.20497934  1
  Pd  Pd153  1  0.00716947  0.00806470  0.79189398  1
  Pd  Pd154  1  0.59963776  0.60615641  -0.00690461  1
  Pd  Pd155  1  0.39367298  0.21229976  0.59349353  1
  Pd  Pd156  1  0.80494230  0.20637317  0.18974910  1
  Pd  Pd157  1  0.00552089  0.80449884  -0.00521053  1
  Pd  Pd158  1  0.39853891  0.60616294  0.80232594  1
  Pd  Pd159  1  0.59582830  0.59806942  0.59921654  1
  Pd  Pd160  1  0.00566164  0.20221430  0.39891975  1
  Pd  Pd161  1  0.40876058  0.00807686  0.40743790  1
  Pd  Pd162  1  0.79579846  0.01127249  -0.00425244  1
  Pd  Pd163  1  0.39551067  0.80046377  0.40868036  1
  Pd  Pd164  1  0.79529019  0.19038535  0.80646039  1
  Pd  Pd165  1  0.79164517  0.80569305  0.40385768  1
  Pd  Pd166  1  0.20923209  0.19420764  0.20337702  1
  Pd  Pd167  1  0.60458470  0.20598975  0.60962110  1
  Pd  Pd168  1  0.59454404  -0.00438244  0.79942663  1
  Pd  Pd169  1  0.00060147  0.79633614  0.61261533  1
  Pd  Pd170  1  0.60699466  0.79190895  0.60702329  1
  Pd  Pd171  1  0.19436720  0.00002101  0.38624709  1
  Pd  Pd172  1  0.00766546  0.20214306  0.60689527  1
  Pd  Pd173  1  0.19389011  0.80225874  -0.00819406  1
  Pd  Pd174  1  0.80230395  0.19728520  0.40467224  1
  Pd  Pd175  1  0.59812867  0.40136447  -0.00403192  1
  Pd  Pd176  1  0.80637365  0.61052974  0.60135998  1
  Pd  Pd177  1  0.19773893  0.58993499  -0.00122501  1
  Pd  Pd178  1  0.00781764  0.59173155  0.40094543  1
  Pd  Pd179  1  0.79185246  0.79572372  0.79479073  1
  Pd  Pd180  1  -0.00812851  0.19385815  0.19298417  1
  Pd  Pd181  1  0.39524841  0.00352083  0.00585127  1
  Pd  Pd182  1  0.59930987  0.39773231  0.20369447  1
  Pd  Pd183  1  -0.00771104  0.39798887  -0.00561609  1
  Pd  Pd184  1  0.60817329  0.19397678  0.00370075  1
  Pd  Pd185  1  0.60468009  0.19966713  0.79103634  1
  Pd  Pd186  1  0.40567843  0.39846709  0.40203853  1
  Pd  Pd187  1  0.39022601  0.59296274  0.19850846  1
  Pd  Pd188  1  0.79987077  0.00629252  0.81301740  1
  Pd  Pd189  1  0.59408487  0.39959261  0.79834428  1
  Pd  Pd190  1  0.39157548  0.80224009  0.60271077  1
  Pd  Pd191  1  0.59359447  0.79939068  0.19694496  1
  Pd  Pd192  1  0.20177136  0.20372851  -0.00872392  1
  Pd  Pd193  1  0.41052716  0.40865051  -0.00269949  1
  Pd  Pd194  1  0.20678422  0.79121526  0.80055216  1
  Pd  Pd195  1  0.60629835  0.59219503  0.39592525  1
  Pd  Pd196  1  0.39337912  0.00709220  0.18585101  1
  Pd  Pd197  1  0.80533840  0.60264301  0.19501394  1
  Pd  Pd198  1  0.19713250  0.40236885  -0.00467231  1
  Pd  Pd199  1  0.60589811  0.40929187  0.39626735  1
  Rh  Rh200  1  0.40386845  -0.00181754  0.80348661  1
  Rh  Rh201  1  0.79846377  0.40329806  0.40431316  1
  Rh  Rh202  1  -0.01366066  0.59354401  0.01203676  1
  Rh  Rh203  1  0.20045978  0.19989143  0.80716390  1
  Rh  Rh204  1  0.19591775  0.00763513  0.79938155  1
  Rh  Rh205  1  0.59221918  0.00402640  0.60009547  1
  Rh  Rh206  1  -0.00726839  0.79864396  0.20444087  1
  Rh  Rh207  1  0.40788830  0.59519592  -0.00557825  1
  Rh  Rh208  1  0.19744572  -0.00555514  0.00735834  1
  Rh  Rh209  1  0.80883022  -0.00091374  0.20736439  1
  Rh  Rh210  1  0.00112689  0.59228652  0.78955132  1
  Rh  Rh211  1  0.81703021  -0.01390010  0.59165558  1
  Rh  Rh212  1  0.18490058  0.61634860  0.59145683  1
  Rh  Rh213  1  0.60276219  0.00464238  0.00479729  1
  Rh  Rh214  1  0.39990178  0.19491477  -0.00116939  1
  Rh  Rh215  1  0.80176242  0.40431951  0.80794053  1
  Rh  Rh216  1  0.39776264  0.80078018  -0.00245730  1
  Rh  Rh217  1  0.59556815  0.60622313  0.80190199  1
  Rh  Rh218  1  0.19474452  -0.00556121  0.61169531  1
  Rh  Rh219  1  0.18937248  0.39637680  0.39317434  1
  Rh  Rh220  1  0.79389480  0.39516770  0.19317121  1
  Rh  Rh221  1  0.19902337  0.59642324  0.80672933  1
  Rh  Rh222  1  0.60435420  0.00027251  0.40169275  1
  Rh  Rh223  1  -0.00067729  0.79907889  0.80896054  1
  Rh  Rh224  1  0.00212192  -0.00915161  0.01003912  1
  Rh  Rh225  1  0.80789533  0.39420710  0.59490589  1
  Rh  Rh226  1  0.59824362  0.20044146  0.39749259  1
  Rh  Rh227  1  0.39718351  0.59831354  0.40270680  1
  Rh  Rh228  1  0.58891646  0.40343309  0.60306914  1
  Rh  Rh229  1  0.59838414  0.79757757  -0.00180924  1
  Rh  Rh230  1  0.40384719  0.79809577  0.19329071  1
  Rh  Rh231  1  0.79702987  0.79385797  0.00638740  1
  Rh  Rh232  1  -0.00482423  0.20566450  0.00131367  1
  Rh  Rh233  1  0.40805688  0.58715494  0.59392354  1
  Rh  Rh234  1  0.79449168  0.21039451  0.59685352  1
  Rh  Rh235  1  0.20029808  0.20507998  0.59852795  1
  Rh  Rh236  1  0.00467515  0.19420817  0.79592781  1
  Rh  Rh237  1  0.00869780  0.80503977  0.39002277  1
  Rh  Rh238  1  0.21060193  0.79832388  0.20605775  1
  Rh  Rh239  1  0.00572219  0.40809146  0.21084535  1
  Rh  Rh240  1  0.20012600  0.40151717  0.80355465  1
  Rh  Rh241  1  0.60152616  0.80059276  0.39625641  1
  Rh  Rh242  1  0.40462241  0.00271940  0.59679890  1
  Rh  Rh243  1  0.39658804  0.19756016  0.80586589  1
  Rh  Rh244  1  0.79890529  0.59757199  0.80988829  1
  Rh  Rh245  1  0.59907977  -0.00279543  0.19565470  1
  Rh  Rh246  1  0.79009540  0.59424427  0.39523763  1
  Rh  Rh247  1  0.20092814  0.38913006  0.60755663  1
  Rh  Rh248  1  0.40151259  0.39925454  0.79567000  1
  Rh  Rh249  1  0.60153420  0.60158794  0.20352582  1
