# generated using pymatgen
data_ZrScNbPdRh
_symmetry_space_group_name_H-M   'P 1'
_cell_length_a   16.55903596
_cell_length_b   16.56186650
_cell_length_c   16.56447725
_cell_angle_alpha   90.03071614
_cell_angle_beta   90.00823344
_cell_angle_gamma   90.02015129
_symmetry_Int_Tables_number   1
_chemical_formula_structural   ZrScNbPdRh
_chemical_formula_sum   'Zr50 Sc50 Nb50 Pd50 Rh50'
_cell_volume   4542.78277177
_cell_formula_units_Z   50
loop_
 _symmetry_equiv_pos_site_id
 _symmetry_equiv_pos_as_xyz
  1  'x, y, z'
loop_
 _atom_site_type_symbol
 _atom_site_label
 _atom_site_symmetry_multiplicity
 _atom_site_fract_x
 _atom_site_fract_y
 _atom_site_fract_z
 _atom_site_occupancy
  Zr  Zr0  1  0.71392862  0.30112064  0.09509216  1
  Zr  Zr1  1  0.89660254  0.09654272  0.50541449  1
  Zr  Zr2  1  0.50150068  0.90001163  0.69375128  1
  Zr  Zr3  1  0.49866831  0.70108398  0.49907200  1
  Zr  Zr4  1  0.50172035  0.70243847  0.30031532  1
  Zr  Zr5  1  0.49992995  0.10459721  0.30435995  1
  Zr  Zr6  1  0.89988722  0.70527088  0.10616244  1
  Zr  Zr7  1  0.51348432  0.49281848  0.30033184  1
  Zr  Zr8  1  0.89754659  0.69926556  0.90851602  1
  Zr  Zr9  1  0.10254545  0.29255308  0.90252089  1
  Zr  Zr10  1  0.10360603  0.49512016  0.10416182  1
  Zr  Zr11  1  0.70425802  0.09749322  0.71675055  1
  Zr  Zr12  1  0.70162357  0.50220878  0.30074532  1
  Zr  Zr13  1  0.09742203  0.29750148  0.70298753  1
  Zr  Zr14  1  0.50363151  0.29722032  0.30670722  1
  Zr  Zr15  1  0.09498386  0.49624430  0.69607410  1
  Zr  Zr16  1  0.29788365  0.90336189  0.90500305  1
  Zr  Zr17  1  0.89922218  0.10431184  0.10381568  1
  Zr  Zr18  1  0.29454731  0.29761058  0.89634112  1
  Zr  Zr19  1  0.10278523  0.49662292  0.49082375  1
  Zr  Zr20  1  0.29238611  0.29921430  0.70028528  1
  Zr  Zr21  1  0.29710438  0.30581726  0.50059617  1
  Zr  Zr22  1  0.09228272  0.70399307  0.49683841  1
  Zr  Zr23  1  0.69852637  0.89569263  0.50210636  1
  Zr  Zr24  1  0.90111149  0.49176782  0.69684979  1
  Zr  Zr25  1  0.29769656  0.90855794  0.49397361  1
  Zr  Zr26  1  0.49892700  0.68870816  0.69670450  1
  Zr  Zr27  1  0.09879005  0.70412143  0.30054950  1
  Zr  Zr28  1  0.30561995  0.70271807  0.30394057  1
  Zr  Zr29  1  0.90633214  0.50310995  0.50023309  1
  Zr  Zr30  1  0.09484526  0.09734190  0.89977519  1
  Zr  Zr31  1  0.50594156  0.70207592  0.89540882  1
  Zr  Zr32  1  0.30662611  0.68760416  0.10378094  1
  Zr  Zr33  1  0.50554670  0.90587960  0.90524707  1
  Zr  Zr34  1  0.69826930  0.50098944  0.10662550  1
  Zr  Zr35  1  0.89140205  0.09705305  0.89480180  1
  Zr  Zr36  1  0.70462342  0.70553109  0.09644301  1
  Zr  Zr37  1  0.50294496  0.50205506  0.89074826  1
  Zr  Zr38  1  0.29820196  0.69578017  0.90105929  1
  Zr  Zr39  1  0.89993487  0.70021458  0.49351797  1
  Zr  Zr40  1  0.89546410  0.09547921  0.29666810  1
  Zr  Zr41  1  0.49526965  0.30602735  0.49678636  1
  Zr  Zr42  1  0.70269843  0.10978236  0.30337541  1
  Zr  Zr43  1  0.69841929  0.90823696  0.90382607  1
  Zr  Zr44  1  0.70630680  0.29689600  0.89731675  1
  Zr  Zr45  1  0.30415997  0.10412130  0.69244841  1
  Zr  Zr46  1  0.10481585  0.89807587  0.30648653  1
  Zr  Zr47  1  0.49938764  0.50640432  0.10479628  1
  Zr  Zr48  1  0.49754418  0.10456043  0.70412874  1
  Zr  Zr49  1  0.89506561  0.90422136  0.10414249  1
  Sc  Sc50  1  0.90480227  0.89277088  0.29491754  1
  Sc  Sc51  1  0.50004682  0.30502375  0.89218332  1
  Sc  Sc52  1  0.50243406  0.30437366  0.10896288  1
  Sc  Sc53  1  0.90546231  0.70523497  0.69439507  1
  Sc  Sc54  1  0.90030345  0.10045147  0.70097139  1
  Sc  Sc55  1  0.29724571  0.29537573  0.30315159  1
  Sc  Sc56  1  0.70329647  0.49716100  0.70545226  1
  Sc  Sc57  1  0.89410573  0.89743090  0.50445366  1
  Sc  Sc58  1  0.29415350  0.69338697  0.70408420  1
  Sc  Sc59  1  0.49165674  0.50307244  0.50158208  1
  Sc  Sc60  1  0.50290813  0.09107079  0.11046849  1
  Sc  Sc61  1  0.29590261  0.10157047  0.10435734  1
  Sc  Sc62  1  0.70613336  0.89568438  0.30195387  1
  Sc  Sc63  1  0.29700580  0.29677629  0.11124601  1
  Sc  Sc64  1  0.90060461  0.90081262  0.70043420  1
  Sc  Sc65  1  0.89845829  0.70484915  0.29997143  1
  Sc  Sc66  1  0.11172606  0.10330689  0.29538323  1
  Sc  Sc67  1  0.70333727  0.90097320  0.69948131  1
  Sc  Sc68  1  0.09479367  0.89138972  0.69587933  1
  Sc  Sc69  1  0.28971900  0.49954838  0.29981029  1
  Sc  Sc70  1  0.29126850  0.10608430  0.49636879  1
  Sc  Sc71  1  0.09602940  0.70562010  0.69691910  1
  Sc  Sc72  1  0.29231243  0.90016143  0.69088563  1
  Sc  Sc73  1  0.10075218  0.10882178  0.09741537  1
  Sc  Sc74  1  0.29080916  0.10569695  0.90827786  1
  Sc  Sc75  1  0.89951582  0.29018102  0.28180516  1
  Sc  Sc76  1  0.70619593  0.09118704  0.10474885  1
  Sc  Sc77  1  0.47977983  0.10149325  0.50349914  1
  Sc  Sc78  1  0.70717884  0.49676997  0.89943995  1
  Sc  Sc79  1  0.31372113  0.91148546  0.10587995  1
  Sc  Sc80  1  0.10355289  0.49813114  0.29317417  1
  Sc  Sc81  1  0.69125619  0.70153359  0.69655922  1
  Sc  Sc82  1  0.48782158  0.90105710  0.30110157  1
  Sc  Sc83  1  0.48323380  0.30219378  0.70156015  1
  Sc  Sc84  1  0.69624761  0.70572981  0.49177111  1
  Sc  Sc85  1  0.70575422  0.69608283  0.30033840  1
  Sc  Sc86  1  0.89792805  0.29455197  0.51338500  1
  Sc  Sc87  1  0.90197181  0.29942352  0.90689045  1
  Sc  Sc88  1  0.09362099  0.10699867  0.69458865  1
  Sc  Sc89  1  0.30197194  0.09621865  0.29986222  1
  Sc  Sc90  1  0.89671896  0.50754716  0.29398278  1
  Sc  Sc91  1  0.08930757  0.90795595  0.09984724  1
  Sc  Sc92  1  0.10208238  0.68994584  0.10132320  1
  Sc  Sc93  1  0.09963962  0.49603328  0.90264783  1
  Sc  Sc94  1  0.49724072  0.89659915  0.49341645  1
  Sc  Sc95  1  0.30242139  0.49547865  0.69843395  1
  Sc  Sc96  1  0.29410989  0.50763625  0.89590850  1
  Sc  Sc97  1  0.90695058  0.49614101  0.09597862  1
  Sc  Sc98  1  0.09928200  0.70377954  0.89723383  1
  Sc  Sc99  1  0.70240521  0.29303432  0.49596377  1
  Nb  Nb100  1  0.70543813  0.29929821  0.69624558  1
  Nb  Nb101  1  0.10119689  0.30213687  0.29580257  1
  Nb  Nb102  1  0.50391519  0.10351645  0.89515179  1
  Nb  Nb103  1  0.69889174  0.30268055  0.30417140  1
  Nb  Nb104  1  0.91361871  0.89980449  0.90128093  1
  Nb  Nb105  1  0.70501836  0.09529047  0.50223368  1
  Nb  Nb106  1  0.08859957  0.30412679  0.10656233  1
  Nb  Nb107  1  0.10156681  0.90464454  0.49744600  1
  Nb  Nb108  1  0.29616715  0.50323271  0.49797592  1
  Nb  Nb109  1  0.09381194  0.90074840  0.89979650  1
  Nb  Nb110  1  0.50119472  0.50032322  0.69546966  1
  Nb  Nb111  1  0.69332032  0.89868836  0.10162940  1
  Nb  Nb112  1  0.50410249  0.89656562  0.10026242  1
  Nb  Nb113  1  0.09806225  0.10249024  0.49758579  1
  Nb  Nb114  1  0.90268145  0.50493430  0.89529311  1
  Nb  Nb115  1  0.30473823  0.68821129  0.49782313  1
  Nb  Nb116  1  0.69590034  0.10289279  0.89738959  1
  Nb  Nb117  1  0.70215398  0.70456341  0.90269385  1
  Nb  Nb118  1  0.49905420  0.70089516  0.10258766  1
  Nb  Nb119  1  0.70443332  0.49638405  0.49528729  1
  Nb  Nb120  1  0.10553688  0.29107363  0.49394196  1
  Nb  Nb121  1  0.29450133  0.50030965  0.09751796  1
  Nb  Nb122  1  0.90012732  0.29580773  0.70242197  1
  Nb  Nb123  1  0.30043923  0.89991731  0.30016340  1
  Nb  Nb124  1  0.90958220  0.29730686  0.09871426  1
  Nb  Nb125  1  0.80086107  0.79869185  0.81128440  1
  Nb  Nb126  1  0.60369825  0.00583582  0.40564200  1
  Nb  Nb127  1  -0.00752950  0.59669893  0.80085460  1
  Nb  Nb128  1  0.59999540  0.19625006  -0.00508993  1
  Nb  Nb129  1  0.40838720  0.20279530  -0.00059765  1
  Nb  Nb130  1  0.60181121  0.39719812  0.60189984  1
  Nb  Nb131  1  0.39939800  0.80347673  0.80044981  1
  Nb  Nb132  1  0.39516793  0.79282876  0.59863134  1
  Nb  Nb133  1  -0.00168155  0.38774912  0.39483694  1
  Nb  Nb134  1  0.20199293  0.39813101  0.00721780  1
  Nb  Nb135  1  0.00357481  0.19910655  0.40024848  1
  Nb  Nb136  1  0.59654927  0.80195642  0.19350136  1
  Nb  Nb137  1  0.40317130  0.79804688  0.00175967  1
  Nb  Nb138  1  0.20508243  0.80312258  0.00603544  1
  Nb  Nb139  1  0.60263869  0.20026791  0.60340406  1
  Nb  Nb140  1  0.00518791  0.00420239  0.40485818  1
  Nb  Nb141  1  0.19899838  0.59807881  0.59011311  1
  Nb  Nb142  1  0.39649370  0.00012790  0.80312773  1
  Nb  Nb143  1  0.39458102  0.40228803  0.00339811  1
  Nb  Nb144  1  0.80086627  0.59680467  0.59445668  1
  Nb  Nb145  1  0.19727722  -0.00152608  0.80070802  1
  Nb  Nb146  1  0.60140244  0.60590884  -0.00023951  1
  Nb  Nb147  1  0.60201327  0.00980940  0.59536364  1
  Nb  Nb148  1  0.20739969  0.80323752  0.19731844  1
  Nb  Nb149  1  0.80331294  0.39650523  0.39700243  1
  Pd  Pd150  1  0.60155790  0.39416264  0.78942228  1
  Pd  Pd151  1  0.40490104  0.00956893  -0.00141185  1
  Pd  Pd152  1  0.40457466  0.58938373  0.39025603  1
  Pd  Pd153  1  0.00473801  0.00001641  0.79071832  1
  Pd  Pd154  1  0.60632813  0.39098307  0.19890634  1
  Pd  Pd155  1  0.59707191  0.19328470  0.41417052  1
  Pd  Pd156  1  0.60809840  0.20574403  0.18995837  1
  Pd  Pd157  1  0.79691187  0.59188582  0.00561916  1
  Pd  Pd158  1  0.80305786  0.61025544  0.78864755  1
  Pd  Pd159  1  0.60368753  0.80623035  0.79598119  1
  Pd  Pd160  1  0.80329463  0.81327511  -0.00293835  1
  Pd  Pd161  1  0.00636480  0.38736574  0.59041259  1
  Pd  Pd162  1  0.40111814  0.19645491  0.19649677  1
  Pd  Pd163  1  0.79589221  0.19308496  0.60733429  1
  Pd  Pd164  1  0.79454421  0.40165030  0.59359200  1
  Pd  Pd165  1  0.40714677  0.59647978  -0.00587610  1
  Pd  Pd166  1  0.80966717  0.40564991  -0.00141003  1
  Pd  Pd167  1  0.00653029  0.00554089  0.20792620  1
  Pd  Pd168  1  0.61259296  0.59686946  0.80413833  1
  Pd  Pd169  1  0.20066019  0.80689090  0.80531822  1
  Pd  Pd170  1  -0.00356434  0.19499060  -0.00270601  1
  Pd  Pd171  1  -0.00092293  0.59955733  0.20246962  1
  Pd  Pd172  1  0.00602905  0.59855919  -0.00408033  1
  Pd  Pd173  1  0.00969980  0.79763777  0.00737317  1
  Pd  Pd174  1  0.18689145  0.59739984  0.79116816  1
  Pd  Pd175  1  0.60949491  0.58959856  0.59290788  1
  Pd  Pd176  1  0.00070336  -0.00468494  0.59878525  1
  Pd  Pd177  1  0.60013391  0.01126472  0.00474349  1
  Pd  Pd178  1  -0.00158942  0.39795743  0.80858708  1
  Pd  Pd179  1  0.39353677  0.40435609  0.20262094  1
  Pd  Pd180  1  0.19177853  0.00568562  0.60550109  1
  Pd  Pd181  1  0.19672486  0.40300443  0.59809894  1
  Pd  Pd182  1  0.80287334  -0.00779531  0.39756944  1
  Pd  Pd183  1  0.80734407  0.39367058  0.80300063  1
  Pd  Pd184  1  0.00241226  0.59276591  0.38721740  1
  Pd  Pd185  1  0.59855130  0.21327526  0.79616698  1
  Pd  Pd186  1  0.19932925  -0.00561700  0.19554163  1
  Pd  Pd187  1  0.19327815  -0.00451634  0.00278886  1
  Pd  Pd188  1  0.60034636  0.59975413  0.40493448  1
  Pd  Pd189  1  0.39980709  0.58869032  0.21207827  1
  Pd  Pd190  1  0.79732887  0.79191016  0.60664971  1
  Pd  Pd191  1  0.80251106  -0.00046256  -0.00030853  1
  Pd  Pd192  1  0.39335898  0.40668404  0.39219337  1
  Pd  Pd193  1  0.39256619  0.40751021  0.80419059  1
  Pd  Pd194  1  0.20563745  0.79064210  0.59112711  1
  Pd  Pd195  1  0.59272947  0.39953682  0.00002739  1
  Pd  Pd196  1  0.80702331  0.39958023  0.20352573  1
  Pd  Pd197  1  0.20654033  0.79680062  0.40242892  1
  Pd  Pd198  1  0.81170199  0.20916047  0.39972853  1
  Pd  Pd199  1  0.60219094  -0.00966688  0.21533149  1
  Rh  Rh200  1  -0.00556424  0.00610422  0.00145385  1
  Rh  Rh201  1  0.80673445  0.20565687  0.80044793  1
  Rh  Rh202  1  0.59449603  -0.00384736  0.79406228  1
  Rh  Rh203  1  0.19838014  0.40266267  0.80651155  1
  Rh  Rh204  1  0.19730676  0.19965378  0.60028809  1
  Rh  Rh205  1  0.79487702  0.00191047  0.60868278  1
  Rh  Rh206  1  0.00366255  0.40004185  -0.00249233  1
  Rh  Rh207  1  0.20247394  0.60830489  0.20586691  1
  Rh  Rh208  1  0.39000292  0.59964134  0.60598332  1
  Rh  Rh209  1  0.59848506  0.80698100  0.38742009  1
  Rh  Rh210  1  -0.00099168  0.80617227  0.59231337  1
  Rh  Rh211  1  0.19605591  0.20430952  0.19957232  1
  Rh  Rh212  1  0.80422909  0.60211108  0.19439350  1
  Rh  Rh213  1  0.00148692  0.60326151  0.60855910  1
  Rh  Rh214  1  0.00047231  0.20332483  0.59789469  1
  Rh  Rh215  1  0.20314189  0.21187541  0.01233927  1
  Rh  Rh216  1  -0.00465958  0.40113245  0.20558823  1
  Rh  Rh217  1  0.39802145  0.21103391  0.59423735  1
  Rh  Rh218  1  0.19670699  0.39599270  0.39613205  1
  Rh  Rh219  1  0.19918669  0.19972811  0.39567226  1
  Rh  Rh220  1  0.39969068  0.00320315  0.39764184  1
  Rh  Rh221  1  0.00628948  0.19481281  0.20363373  1
  Rh  Rh222  1  0.20091738  0.39481446  0.19760703  1
  Rh  Rh223  1  0.19418818  0.59838435  -0.00082544  1
  Rh  Rh224  1  0.00945001  0.79757302  0.19491226  1
  Rh  Rh225  1  0.79397145  0.20213686  0.19565615  1
  Rh  Rh226  1  -0.00547101  0.81254939  0.40483491  1
  Rh  Rh227  1  0.40201847  -0.00955892  0.60238323  1
  Rh  Rh228  1  0.19806871  0.18825652  0.79176362  1
  Rh  Rh229  1  0.79663964  0.19412256  0.00146750  1
  Rh  Rh230  1  0.39123653  0.19214207  0.81041899  1
  Rh  Rh231  1  0.39939420  0.80496575  0.19358428  1
  Rh  Rh232  1  0.80699330  -0.01213576  0.80498101  1
  Rh  Rh233  1  0.39275824  0.20235327  0.40053706  1
  Rh  Rh234  1  -0.00683578  0.20197520  0.80169811  1
  Rh  Rh235  1  0.60873148  0.39888338  0.40790290  1
  Rh  Rh236  1  0.19770480  0.00426529  0.39857523  1
  Rh  Rh237  1  0.59600390  0.79461689  0.00603519  1
  Rh  Rh238  1  0.39995757  0.59942397  0.79352311  1
  Rh  Rh239  1  0.79296920  0.80237559  0.19995834  1
  Rh  Rh240  1  0.59301500  0.80460207  0.59578606  1
  Rh  Rh241  1  0.79620861  -0.00506245  0.20320868  1
  Rh  Rh242  1  0.40227258  0.40439422  0.59937193  1
  Rh  Rh243  1  0.40248108  0.00316955  0.20466595  1
  Rh  Rh244  1  0.80043385  0.59624378  0.40529235  1
  Rh  Rh245  1  0.60452073  0.61274865  0.19453248  1
  Rh  Rh246  1  0.80357076  0.79944465  0.39710104  1
  Rh  Rh247  1  0.19684033  0.60379068  0.40057806  1
  Rh  Rh248  1  -0.00747208  0.79354031  0.80418373  1
  Rh  Rh249  1  0.39386161  0.80118876  0.40875460  1
