# generated using pymatgen
data_ZrScNbPdRh
_symmetry_space_group_name_H-M   'P 1'
_cell_length_a   16.55341872
_cell_length_b   16.55478252
_cell_length_c   16.55215595
_cell_angle_alpha   89.97143200
_cell_angle_beta   89.99513361
_cell_angle_gamma   89.99547885
_symmetry_Int_Tables_number   1
_chemical_formula_structural   ZrScNbPdRh
_chemical_formula_sum   'Zr50 Sc50 Nb50 Pd50 Rh50'
_cell_volume   4535.92320595
_cell_formula_units_Z   50
loop_
 _symmetry_equiv_pos_site_id
 _symmetry_equiv_pos_as_xyz
  1  'x, y, z'
loop_
 _atom_site_type_symbol
 _atom_site_label
 _atom_site_symmetry_multiplicity
 _atom_site_fract_x
 _atom_site_fract_y
 _atom_site_fract_z
 _atom_site_occupancy
  Zr  Zr0  1  0.70318292  0.49938077  0.30209604  1
  Zr  Zr1  1  0.90034079  0.70150284  0.91019410  1
  Zr  Zr2  1  0.30963781  0.30269495  0.70046124  1
  Zr  Zr3  1  0.89792947  0.90117522  0.91668391  1
  Zr  Zr4  1  0.08952187  0.29552701  0.49981090  1
  Zr  Zr5  1  0.30862843  0.69844830  0.09826562  1
  Zr  Zr6  1  0.10030827  0.70767115  0.30206693  1
  Zr  Zr7  1  0.10270776  0.10139489  0.90257445  1
  Zr  Zr8  1  0.70714224  0.30099931  0.48797539  1
  Zr  Zr9  1  0.69576164  0.10289959  0.10173589  1
  Zr  Zr10  1  0.29261351  0.91107840  0.49125806  1
  Zr  Zr11  1  0.09979016  0.30305054  0.89840968  1
  Zr  Zr12  1  0.50702483  0.09337121  0.70002797  1
  Zr  Zr13  1  0.30331226  0.29950574  0.29551512  1
  Zr  Zr14  1  0.50672533  0.50238994  0.49612933  1
  Zr  Zr15  1  0.30707898  0.90665211  0.10101182  1
  Zr  Zr16  1  0.90066536  0.09076397  0.09937549  1
  Zr  Zr17  1  0.51011574  0.90397340  0.49895300  1
  Zr  Zr18  1  0.10391786  0.29411469  0.30213417  1
  Zr  Zr19  1  0.10742920  0.10060484  0.49742998  1
  Zr  Zr20  1  0.89363501  0.89885018  0.69654630  1
  Zr  Zr21  1  0.89160424  0.30080982  0.89307745  1
  Zr  Zr22  1  0.69827764  0.29793790  0.28824897  1
  Zr  Zr23  1  0.09745685  0.90214591  0.31135680  1
  Zr  Zr24  1  0.10057263  0.50577920  0.90566236  1
  Zr  Zr25  1  0.68864067  0.89964498  0.69411359  1
  Zr  Zr26  1  0.50184035  0.89785052  0.70465328  1
  Zr  Zr27  1  0.10031068  0.90183673  0.49627401  1
  Zr  Zr28  1  0.50067970  0.70403994  0.70745451  1
  Zr  Zr29  1  0.30609593  0.49384320  0.09890305  1
  Zr  Zr30  1  0.49669895  0.90000061  0.90105473  1
  Zr  Zr31  1  0.69815394  0.29610806  0.90625481  1
  Zr  Zr32  1  0.10792561  0.69581865  0.69843229  1
  Zr  Zr33  1  0.49558814  0.29434319  0.89601312  1
  Zr  Zr34  1  0.89907775  0.90365545  0.48776245  1
  Zr  Zr35  1  0.49822585  0.49842257  0.69460038  1
  Zr  Zr36  1  0.30455835  0.10040980  0.09922701  1
  Zr  Zr37  1  0.49665801  0.29952049  0.70241917  1
  Zr  Zr38  1  0.30600730  0.28885944  0.50059386  1
  Zr  Zr39  1  0.69951155  0.89823285  0.10026526  1
  Zr  Zr40  1  0.69622624  0.29803195  0.10231000  1
  Zr  Zr41  1  0.69857500  0.48674203  0.10459197  1
  Zr  Zr42  1  0.70053783  0.50953128  0.69671408  1
  Zr  Zr43  1  0.09551607  0.50073754  0.29967858  1
  Zr  Zr44  1  0.90197950  0.29542855  0.69351344  1
  Zr  Zr45  1  0.50185777  0.50805531  0.10288398  1
  Zr  Zr46  1  0.49314477  0.70901937  0.90493877  1
  Zr  Zr47  1  0.70887624  0.89200895  0.30218471  1
  Zr  Zr48  1  0.08889595  0.50127773  0.50361456  1
  Zr  Zr49  1  0.70709583  0.29152491  0.70564035  1
  Sc  Sc50  1  0.89678057  0.50400250  0.10449949  1
  Sc  Sc51  1  0.10614708  0.49948692  0.09556204  1
  Sc  Sc52  1  0.10553865  0.90215652  0.69615104  1
  Sc  Sc53  1  0.89300844  0.69742163  0.69454625  1
  Sc  Sc54  1  0.49746738  0.30283467  0.09986671  1
  Sc  Sc55  1  0.11452358  0.29491740  0.10643941  1
  Sc  Sc56  1  0.89701844  0.70361232  0.09747876  1
  Sc  Sc57  1  0.51252230  0.69537970  0.30083437  1
  Sc  Sc58  1  0.89327153  0.49886652  0.89744023  1
  Sc  Sc59  1  0.49889764  0.09740545  0.90213529  1
  Sc  Sc60  1  0.89692618  0.51407274  0.30297862  1
  Sc  Sc61  1  0.09285211  0.29497152  0.70077378  1
  Sc  Sc62  1  0.70527966  0.10134690  0.49577188  1
  Sc  Sc63  1  0.10509435  0.10244751  0.10409452  1
  Sc  Sc64  1  0.89969588  0.10950997  0.49557978  1
  Sc  Sc65  1  0.90105172  0.50405564  0.69815146  1
  Sc  Sc66  1  0.30803969  0.29475711  0.90525855  1
  Sc  Sc67  1  0.68806673  0.70704248  0.10541610  1
  Sc  Sc68  1  0.89995946  0.69967589  0.50156266  1
  Sc  Sc69  1  0.88010693  0.29879374  0.10567149  1
  Sc  Sc70  1  0.50745613  0.69311899  0.49240602  1
  Sc  Sc71  1  0.30434070  0.30006974  0.09777825  1
  Sc  Sc72  1  0.49977775  0.90328900  0.29663222  1
  Sc  Sc73  1  0.29664978  0.69498873  0.50424177  1
  Sc  Sc74  1  0.29109811  0.90207992  0.29878439  1
  Sc  Sc75  1  0.89755639  0.08787811  0.90028837  1
  Sc  Sc76  1  0.49938735  0.08824539  0.10385291  1
  Sc  Sc77  1  0.89863456  0.09089881  0.30046249  1
  Sc  Sc78  1  0.49700122  0.49779580  0.30189255  1
  Sc  Sc79  1  0.89777976  0.29231791  0.30311087  1
  Sc  Sc80  1  0.31183330  0.09705766  0.30394844  1
  Sc  Sc81  1  0.70277382  0.70236497  0.69185632  1
  Sc  Sc82  1  0.10203961  0.90440493  0.10280223  1
  Sc  Sc83  1  0.09733218  0.90838616  0.90054659  1
  Sc  Sc84  1  0.89229302  0.10616983  0.70262765  1
  Sc  Sc85  1  0.09771720  0.70439534  0.50380883  1
  Sc  Sc86  1  0.30191611  0.51167144  0.69789376  1
  Sc  Sc87  1  0.29599951  0.90144173  0.70512866  1
  Sc  Sc88  1  0.49292186  0.10604063  0.48817111  1
  Sc  Sc89  1  0.69847567  0.70199291  0.89904618  1
  Sc  Sc90  1  0.69699849  0.90265716  0.90724041  1
  Sc  Sc91  1  0.49695318  0.49507436  0.90362428  1
  Sc  Sc92  1  0.29594307  0.10418797  0.70036918  1
  Sc  Sc93  1  0.31447942  0.50195768  0.50186968  1
  Sc  Sc94  1  0.09003474  0.69936067  0.09145892  1
  Sc  Sc95  1  0.29861314  0.70043465  0.70611752  1
  Sc  Sc96  1  0.10024264  0.10114622  0.70240591  1
  Sc  Sc97  1  0.69997883  0.49320270  0.89863739  1
  Sc  Sc98  1  0.09929078  0.50391703  0.69661374  1
  Sc  Sc99  1  0.09800636  0.10707357  0.29948461  1
  Nb  Nb100  1  0.09740660  0.70109506  0.90133526  1
  Nb  Nb101  1  0.29999410  0.50349879  0.30140851  1
  Nb  Nb102  1  0.90276981  0.30092440  0.50568355  1
  Nb  Nb103  1  0.89334567  0.70631478  0.29643831  1
  Nb  Nb104  1  0.70021465  0.09843049  0.69534956  1
  Nb  Nb105  1  0.70735993  0.70078524  0.30637312  1
  Nb  Nb106  1  0.69469243  0.69733152  0.49143639  1
  Nb  Nb107  1  0.89760097  0.89740162  0.09994962  1
  Nb  Nb108  1  0.50094816  0.30278054  0.50160256  1
  Nb  Nb109  1  0.50286116  0.28944894  0.30807470  1
  Nb  Nb110  1  0.70000097  0.10059849  0.90155970  1
  Nb  Nb111  1  0.69211601  0.09984694  0.29442069  1
  Nb  Nb112  1  0.30576512  0.89764018  0.90266861  1
  Nb  Nb113  1  0.50078330  0.70612425  0.10023045  1
  Nb  Nb114  1  0.70240719  0.50501037  0.49695911  1
  Nb  Nb115  1  0.30561337  0.09259929  0.90697866  1
  Nb  Nb116  1  0.29955852  0.09641840  0.49788404  1
  Nb  Nb117  1  0.29028295  0.50030766  0.90572363  1
  Nb  Nb118  1  0.69932875  0.89845333  0.49993993  1
  Nb  Nb119  1  0.29438560  0.69982280  0.89659451  1
  Nb  Nb120  1  0.90179174  0.49522364  0.50171526  1
  Nb  Nb121  1  0.50374729  0.88758553  0.09662311  1
  Nb  Nb122  1  0.50456863  0.10015135  0.29830870  1
  Nb  Nb123  1  0.89902924  0.89709717  0.29833795  1
  Nb  Nb124  1  0.29886174  0.70262673  0.30395651  1
  Nb  Nb125  1  0.60629886  0.00238277  0.39384240  1
  Nb  Nb126  1  -0.00279140  0.20540218  0.00037765  1
  Nb  Nb127  1  -0.00198472  0.79799196  0.80271121  1
  Nb  Nb128  1  0.59645858  0.60130206  0.79909147  1
  Nb  Nb129  1  0.79540143  -0.00225270  0.59658712  1
  Nb  Nb130  1  0.40196715  0.80741427  0.59419715  1
  Nb  Nb131  1  0.00221388  0.60949891  0.80471450  1
  Nb  Nb132  1  0.20586126  0.60255315  0.20452707  1
  Nb  Nb133  1  0.20596714  0.79931251  -0.00797894  1
  Nb  Nb134  1  0.40312102  0.79580844  0.20051507  1
  Nb  Nb135  1  0.60091476  0.20472524  0.59670599  1
  Nb  Nb136  1  0.79246644  0.59944945  0.00324689  1
  Nb  Nb137  1  0.20170887  0.40235937  0.40404359  1
  Nb  Nb138  1  0.39902664  -0.00101352  0.59533791  1
  Nb  Nb139  1  0.60645178  0.39583347  0.59408065  1
  Nb  Nb140  1  -0.00601985  0.00013069  0.59652727  1
  Nb  Nb141  1  0.80365411  0.80448916  0.80207937  1
  Nb  Nb142  1  0.39846179  0.79925897  0.39893947  1
  Nb  Nb143  1  0.20326370  0.40288601  0.79948453  1
  Nb  Nb144  1  0.79935920  0.40086500  0.59063360  1
  Nb  Nb145  1  0.20174958  0.39708920  0.59736511  1
  Nb  Nb146  1  0.00001155  0.39792408  0.19799525  1
  Nb  Nb147  1  -0.00312631  0.39158078  0.00574439  1
  Nb  Nb148  1  0.20153268  0.59483609  0.39549516  1
  Nb  Nb149  1  -0.00785316  0.80568806  0.20360044  1
  Pd  Pd150  1  0.80284435  0.59815911  0.58913312  1
  Pd  Pd151  1  0.60416633  0.60132673  -0.00622106  1
  Pd  Pd152  1  0.59319378  0.39763734  -0.00000769  1
  Pd  Pd153  1  0.60107344  0.19436410  0.79786056  1
  Pd  Pd154  1  0.00463214  0.41033680  0.79882323  1
  Pd  Pd155  1  0.59659817  0.78799016  0.59419524  1
  Pd  Pd156  1  0.40195037  0.59639183  0.80853240  1
  Pd  Pd157  1  0.60289945  0.19502107  0.40374370  1
  Pd  Pd158  1  0.58894822  0.19539967  0.00597312  1
  Pd  Pd159  1  0.60286324  0.40511873  0.79549949  1
  Pd  Pd160  1  0.80119961  0.19455366  0.39090849  1
  Pd  Pd161  1  0.59902500  0.40063116  0.39599659  1
  Pd  Pd162  1  0.19715273  0.20461385  0.60453121  1
  Pd  Pd163  1  0.79939885  0.40391216  0.78948084  1
  Pd  Pd164  1  0.19707205  0.40552918  0.20312355  1
  Pd  Pd165  1  0.00385749  0.60337200  0.19530697  1
  Pd  Pd166  1  0.40100199  0.60641712  0.20847538  1
  Pd  Pd167  1  -0.00022689  -0.00426500  0.79146582  1
  Pd  Pd168  1  0.79735075  0.00064694  0.20047893  1
  Pd  Pd169  1  0.81143092  0.40278049  0.39662569  1
  Pd  Pd170  1  0.19432467  0.80514569  0.80674879  1
  Pd  Pd171  1  -0.00669506  0.19171847  0.80723248  1
  Pd  Pd172  1  0.20394005  0.00278131  0.80214759  1
  Pd  Pd173  1  0.40553651  0.19811742  0.19691735  1
  Pd  Pd174  1  0.79039824  0.60672460  0.19260336  1
  Pd  Pd175  1  0.19781188  0.79401132  0.18780093  1
  Pd  Pd176  1  0.20148895  0.20249568  -0.00102601  1
  Pd  Pd177  1  -0.00052805  0.60952235  0.40213429  1
  Pd  Pd178  1  0.40756828  0.18916313  0.60196611  1
  Pd  Pd179  1  0.60573864  0.00078264  0.81029551  1
  Pd  Pd180  1  0.39411021  0.00375200  0.79447292  1
  Pd  Pd181  1  0.60604484  0.59962832  0.20422668  1
  Pd  Pd182  1  0.00054994  0.80367847  0.60572580  1
  Pd  Pd183  1  0.20829237  0.20487465  0.80360671  1
  Pd  Pd184  1  0.39770899  0.39686905  0.40095987  1
  Pd  Pd185  1  0.20933508  0.80273820  0.59746959  1
  Pd  Pd186  1  0.20175009  0.60856720  0.00859516  1
  Pd  Pd187  1  0.40815343  0.39755579  0.20385064  1
  Pd  Pd188  1  0.19929893  0.00789781  0.20743621  1
  Pd  Pd189  1  0.79093555  -0.00442656  0.79564611  1
  Pd  Pd190  1  0.19861458  -0.00513723  0.00049917  1
  Pd  Pd191  1  -0.00683079  0.20654078  0.19131478  1
  Pd  Pd192  1  0.39043916  0.41045888  0.80656860  1
  Pd  Pd193  1  0.00372936  -0.00572539  0.20093665  1
  Pd  Pd194  1  0.80642498  0.19220122  -0.00263907  1
  Pd  Pd195  1  0.80246339  0.79304356  0.40901061  1
  Pd  Pd196  1  -0.00497680  0.39582901  0.39058717  1
  Pd  Pd197  1  0.60010709  -0.00899528  0.20183578  1
  Pd  Pd198  1  0.40101805  0.59692776  -0.00701847  1
  Pd  Pd199  1  0.40546274  0.61247798  0.59780782  1
  Rh  Rh200  1  0.19947065  0.39331748  -0.00632072  1
  Rh  Rh201  1  0.19538382  0.59423336  0.80164260  1
  Rh  Rh202  1  0.80994100  0.40350326  0.21000160  1
  Rh  Rh203  1  0.59658168  0.80071949  0.20885112  1
  Rh  Rh204  1  0.79775908  0.19101309  0.80840653  1
  Rh  Rh205  1  0.59846569  0.60033333  0.60305882  1
  Rh  Rh206  1  0.40680681  -0.00173910  0.00115308  1
  Rh  Rh207  1  0.21401876  0.19294426  0.20404139  1
  Rh  Rh208  1  -0.00163353  0.40031590  0.60606633  1
  Rh  Rh209  1  0.00065634  0.00820242  0.40316188  1
  Rh  Rh210  1  0.60171007  0.80051193  -0.00454873  1
  Rh  Rh211  1  -0.00381460  0.19836923  0.39980273  1
  Rh  Rh212  1  0.60713090  0.59645298  0.39244555  1
  Rh  Rh213  1  0.40195690  0.40179192  0.59654762  1
  Rh  Rh214  1  0.59038973  0.20245824  0.19633494  1
  Rh  Rh215  1  0.20000414  0.58931858  0.58897178  1
  Rh  Rh216  1  0.40551479  -0.00831480  0.20112500  1
  Rh  Rh217  1  0.40177311  0.40141141  -0.00106723  1
  Rh  Rh218  1  0.19697609  0.01196245  0.39043672  1
  Rh  Rh219  1  0.79266972  0.00247634  0.40019894  1
  Rh  Rh220  1  0.79071714  0.00400637  0.00628667  1
  Rh  Rh221  1  0.80229184  0.60381107  0.40446496  1
  Rh  Rh222  1  0.79875639  0.61106134  0.81018562  1
  Rh  Rh223  1  0.79116546  0.79484698  0.00217607  1
  Rh  Rh224  1  0.00016720  0.18897471  0.59983181  1
  Rh  Rh225  1  0.60889767  0.79604824  0.80436467  1
  Rh  Rh226  1  0.79260613  0.80394511  0.59583781  1
  Rh  Rh227  1  0.79965722  0.18925279  0.20370528  1
  Rh  Rh228  1  0.40369907  0.19342479  0.00164780  1
  Rh  Rh229  1  0.59065620  0.39718599  0.20591301  1
  Rh  Rh230  1  0.39823793  0.60825624  0.39757649  1
  Rh  Rh231  1  -0.01225071  0.58669432  -0.00361097  1
  Rh  Rh232  1  0.39158958  0.80136174  0.79593211  1
  Rh  Rh233  1  0.19946084  0.00390071  0.60258926  1
  Rh  Rh234  1  0.59903106  0.80503015  0.39499736  1
  Rh  Rh235  1  0.00760518  0.00644985  0.00847640  1
  Rh  Rh236  1  0.79553924  0.19997459  0.59679707  1
  Rh  Rh237  1  0.20834137  0.20085159  0.39602213  1
  Rh  Rh238  1  0.39965421  0.20115390  0.39633198  1
  Rh  Rh239  1  0.01090757  0.81295665  0.00407622  1
  Rh  Rh240  1  0.39697724  0.18857244  0.80493728  1
  Rh  Rh241  1  -0.00761504  0.79390986  0.39399890  1
  Rh  Rh242  1  0.80310700  0.79676903  0.19365352  1
  Rh  Rh243  1  0.40802586  -0.00510905  0.40112205  1
  Rh  Rh244  1  0.20613566  0.79247049  0.40940442  1
  Rh  Rh245  1  -0.00333868  0.60327222  0.60653290  1
  Rh  Rh246  1  0.60066942  0.01597132  0.58507884  1
  Rh  Rh247  1  0.59887718  0.00009350  0.00034726  1
  Rh  Rh248  1  0.39382531  0.80149255  0.00338103  1
  Rh  Rh249  1  0.80281634  0.40785657  0.00217003  1
