# generated using pymatgen
data_ZrScNbPdRh
_symmetry_space_group_name_H-M   'P 1'
_cell_length_a   16.56365833
_cell_length_b   16.55717534
_cell_length_c   16.56055905
_cell_angle_alpha   89.98885686
_cell_angle_beta   89.99488721
_cell_angle_gamma   89.99721091
_symmetry_Int_Tables_number   1
_chemical_formula_structural   ZrScNbPdRh
_chemical_formula_sum   'Zr50 Sc50 Nb50 Pd50 Rh50'
_cell_volume   4541.69007405
_cell_formula_units_Z   50
loop_
 _symmetry_equiv_pos_site_id
 _symmetry_equiv_pos_as_xyz
  1  'x, y, z'
loop_
 _atom_site_type_symbol
 _atom_site_label
 _atom_site_symmetry_multiplicity
 _atom_site_fract_x
 _atom_site_fract_y
 _atom_site_fract_z
 _atom_site_occupancy
  Zr  Zr0  1  0.70628840  0.89791242  0.89673351  1
  Zr  Zr1  1  0.29414211  0.90023418  0.49807921  1
  Zr  Zr2  1  0.10382676  0.29560946  0.49417142  1
  Zr  Zr3  1  0.30551798  0.90499973  0.69654527  1
  Zr  Zr4  1  0.29481193  0.09932713  0.50628913  1
  Zr  Zr5  1  0.10753447  0.30269918  0.90001870  1
  Zr  Zr6  1  0.10577310  0.30338086  0.30039557  1
  Zr  Zr7  1  0.91244001  0.10819347  0.69830967  1
  Zr  Zr8  1  0.29951152  0.90126958  0.11010317  1
  Zr  Zr9  1  0.89841797  0.49043896  0.69896988  1
  Zr  Zr10  1  0.90120770  0.09319908  0.10011131  1
  Zr  Zr11  1  0.48953313  0.30124502  0.50469278  1
  Zr  Zr12  1  0.70152730  0.09410383  0.30355073  1
  Zr  Zr13  1  0.49689015  0.50581268  0.49547985  1
  Zr  Zr14  1  0.09330330  0.29637996  0.70465643  1
  Zr  Zr15  1  0.09652326  0.70533822  0.90284406  1
  Zr  Zr16  1  0.70351294  0.09741104  0.09696777  1
  Zr  Zr17  1  0.49425647  0.89282771  0.28487594  1
  Zr  Zr18  1  0.09198380  0.70240627  0.69558187  1
  Zr  Zr19  1  0.49878400  0.50671056  0.30322340  1
  Zr  Zr20  1  0.09911100  0.49874471  0.69911917  1
  Zr  Zr21  1  0.90231204  0.49699882  0.50286626  1
  Zr  Zr22  1  0.29658270  0.50614150  0.29086173  1
  Zr  Zr23  1  0.30069032  0.69582609  0.69588457  1
  Zr  Zr24  1  0.29790533  0.89436965  0.30128345  1
  Zr  Zr25  1  0.09583167  0.89561872  0.10336967  1
  Zr  Zr26  1  0.08833936  0.70170475  0.30238508  1
  Zr  Zr27  1  0.48320028  0.49503736  0.71468438  1
  Zr  Zr28  1  0.69576488  0.30222947  0.29992686  1
  Zr  Zr29  1  0.69828582  0.89253519  0.09969754  1
  Zr  Zr30  1  0.50385036  0.90646225  0.70114256  1
  Zr  Zr31  1  0.70116089  0.69814969  0.91191476  1
  Zr  Zr32  1  0.89900632  0.89929494  0.70516626  1
  Zr  Zr33  1  0.09266029  0.90791640  0.90142583  1
  Zr  Zr34  1  0.89586501  0.69921248  0.11043558  1
  Zr  Zr35  1  0.89636314  0.89945893  0.49747312  1
  Zr  Zr36  1  0.70494432  0.70333847  0.28427960  1
  Zr  Zr37  1  0.29946606  0.70173508  0.49551351  1
  Zr  Zr38  1  0.69375335  0.50604755  0.89842466  1
  Zr  Zr39  1  0.49884967  0.30481011  0.29604092  1
  Zr  Zr40  1  0.69851027  0.30009652  0.50519377  1
  Zr  Zr41  1  0.30187802  0.90343108  0.90083785  1
  Zr  Zr42  1  0.49526482  0.29203038  0.09832826  1
  Zr  Zr43  1  0.89875669  0.89966988  0.90665185  1
  Zr  Zr44  1  0.69320847  0.70019878  0.49794799  1
  Zr  Zr45  1  0.89954113  0.70270033  0.70162373  1
  Zr  Zr46  1  0.69979828  0.29889062  0.09411761  1
  Zr  Zr47  1  0.90453952  0.50386179  0.30018832  1
  Zr  Zr48  1  0.49898413  0.09984793  0.29526124  1
  Zr  Zr49  1  0.09902810  0.70369865  0.10363824  1
  Sc  Sc50  1  0.09458221  0.09912578  0.30450790  1
  Sc  Sc51  1  0.89762138  0.49686995  0.09966875  1
  Sc  Sc52  1  0.30361339  0.30206600  0.09887886  1
  Sc  Sc53  1  0.90266682  0.30681257  0.89985717  1
  Sc  Sc54  1  0.10123916  0.50035194  0.29957013  1
  Sc  Sc55  1  0.90057924  0.49583156  0.90370855  1
  Sc  Sc56  1  0.50438443  0.10926524  0.89347290  1
  Sc  Sc57  1  0.10038839  0.70057490  0.49870620  1
  Sc  Sc58  1  0.49666813  0.69473441  0.50030953  1
  Sc  Sc59  1  0.69388298  0.50556981  0.50396771  1
  Sc  Sc60  1  0.69163281  0.49880847  0.29307632  1
  Sc  Sc61  1  0.90621580  0.10454744  0.49941153  1
  Sc  Sc62  1  0.29828069  0.10356643  0.89703745  1
  Sc  Sc63  1  0.49940918  0.49577675  0.10875422  1
  Sc  Sc64  1  0.28777649  0.50387706  0.50983263  1
  Sc  Sc65  1  0.50730287  0.09540069  0.49989412  1
  Sc  Sc66  1  0.89831416  0.89437274  0.30273648  1
  Sc  Sc67  1  0.49653659  0.09179411  0.09276870  1
  Sc  Sc68  1  0.69822826  0.09233429  0.49880868  1
  Sc  Sc69  1  0.91416228  0.30194297  0.29772451  1
  Sc  Sc70  1  0.71074880  0.30869086  0.70099784  1
  Sc  Sc71  1  0.69377260  0.09188806  0.70507759  1
  Sc  Sc72  1  0.10084970  0.09924162  0.49777248  1
  Sc  Sc73  1  0.69795189  0.10150703  0.90265056  1
  Sc  Sc74  1  0.10589287  0.89334207  0.49446071  1
  Sc  Sc75  1  0.70244067  0.90074571  0.69464844  1
  Sc  Sc76  1  0.69993047  0.90166072  0.50003476  1
  Sc  Sc77  1  0.49868858  0.91089412  0.90323565  1
  Sc  Sc78  1  0.51651963  0.70201708  0.10768671  1
  Sc  Sc79  1  0.90662908  0.08954426  0.89967179  1
  Sc  Sc80  1  0.50355838  0.68854504  0.89743755  1
  Sc  Sc81  1  0.90263468  0.30573811  0.09532090  1
  Sc  Sc82  1  0.69887228  0.70238913  0.69408721  1
  Sc  Sc83  1  0.10624865  0.30883211  0.09515137  1
  Sc  Sc84  1  0.30410656  0.10307288  0.09767251  1
  Sc  Sc85  1  0.70036671  0.49972842  0.70031808  1
  Sc  Sc86  1  0.49363803  0.70469301  0.69528386  1
  Sc  Sc87  1  0.50374783  0.89370217  0.50988689  1
  Sc  Sc88  1  0.90650727  0.70725914  0.49565695  1
  Sc  Sc89  1  0.10512564  0.10209919  0.71296383  1
  Sc  Sc90  1  0.30626732  0.49096672  0.88969104  1
  Sc  Sc91  1  0.70935857  0.90284749  0.29881103  1
  Sc  Sc92  1  0.90464124  0.09387176  0.30311787  1
  Sc  Sc93  1  0.09963653  0.09675261  0.10743307  1
  Sc  Sc94  1  0.29560877  0.09012321  0.29202757  1
  Sc  Sc95  1  0.70217258  0.29789071  0.89941444  1
  Sc  Sc96  1  0.29964073  0.29594072  0.90018223  1
  Sc  Sc97  1  0.89673709  0.70477038  0.90657373  1
  Sc  Sc98  1  0.30353287  0.70158176  0.89565720  1
  Sc  Sc99  1  0.70041395  0.50828903  0.09932020  1
  Nb  Nb100  1  0.10359315  0.10721337  0.90148476  1
  Nb  Nb101  1  0.49865866  0.10595449  0.70233640  1
  Nb  Nb102  1  0.49840412  0.49810118  0.89980160  1
  Nb  Nb103  1  0.49948459  0.69698059  0.30555992  1
  Nb  Nb104  1  0.29938020  0.29905691  0.30217731  1
  Nb  Nb105  1  0.31091716  0.70081183  0.29777037  1
  Nb  Nb106  1  0.48956154  0.29501533  0.70181115  1
  Nb  Nb107  1  0.29688807  0.69730345  0.10207984  1
  Nb  Nb108  1  0.09764558  0.50630021  0.49850830  1
  Nb  Nb109  1  0.11260850  0.50190483  0.09756118  1
  Nb  Nb110  1  0.10464606  0.49634630  0.90093522  1
  Nb  Nb111  1  0.49405377  0.89775911  0.09761950  1
  Nb  Nb112  1  0.29958032  0.29747931  0.50032365  1
  Nb  Nb113  1  0.90040669  0.90366121  0.09729900  1
  Nb  Nb114  1  0.70429295  0.69554661  0.09682440  1
  Nb  Nb115  1  0.29334491  0.50964666  0.10433517  1
  Nb  Nb116  1  0.10762598  0.90100875  0.30025793  1
  Nb  Nb117  1  0.31254307  0.30443771  0.68363611  1
  Nb  Nb118  1  0.89772479  0.70007076  0.30244834  1
  Nb  Nb119  1  0.89653464  0.29686060  0.51367305  1
  Nb  Nb120  1  0.49813241  0.30636161  0.89462437  1
  Nb  Nb121  1  0.31207017  0.10760689  0.69989226  1
  Nb  Nb122  1  0.29290065  0.49772094  0.70288917  1
  Nb  Nb123  1  0.09870456  0.89890561  0.70057673  1
  Nb  Nb124  1  0.89926757  0.29743021  0.69167923  1
  Nb  Nb125  1  0.80919365  0.20180113  0.79453184  1
  Nb  Nb126  1  0.59364952  0.20491378  0.60910886  1
  Nb  Nb127  1  0.58666774  0.39640415  0.60706385  1
  Nb  Nb128  1  0.80136560  0.60073853  0.80125663  1
  Nb  Nb129  1  0.39915198  -0.00145999  0.39903889  1
  Nb  Nb130  1  0.40072123  0.79553674  0.00859076  1
  Nb  Nb131  1  0.60156634  0.80264928  0.80234295  1
  Nb  Nb132  1  0.19694633  0.80216185  0.79567868  1
  Nb  Nb133  1  0.79903036  0.19900475  0.20383799  1
  Nb  Nb134  1  0.01086438  0.59425083  0.00228009  1
  Nb  Nb135  1  0.00457445  -0.00614214  0.60580732  1
  Nb  Nb136  1  0.80287869  0.59992196  0.39482772  1
  Nb  Nb137  1  0.39572278  0.59857422  0.00595822  1
  Nb  Nb138  1  0.39325348  0.19998577  0.40000743  1
  Nb  Nb139  1  0.20133076  0.20541257  0.20350444  1
  Nb  Nb140  1  0.60409859  0.19723877  0.19746144  1
  Nb  Nb141  1  0.38832708  0.39733191  0.40135066  1
  Nb  Nb142  1  0.19520802  0.59984604  0.80134132  1
  Nb  Nb143  1  0.00808492  0.19788481  -0.00383501  1
  Nb  Nb144  1  0.59114033  0.40060474  -0.00746617  1
  Nb  Nb145  1  0.19576809  0.00004429  -0.00078112  1
  Nb  Nb146  1  0.59808372  0.79470174  0.39057335  1
  Nb  Nb147  1  0.20243341  0.59850120  -0.00280553  1
  Nb  Nb148  1  0.80269056  0.39868402  0.40353697  1
  Nb  Nb149  1  0.80223938  0.20800939  0.40001709  1
  Pd  Pd150  1  0.59792804  0.19951001  0.40286363  1
  Pd  Pd151  1  0.00223506  0.20384197  0.19152242  1
  Pd  Pd152  1  0.19974073  0.60381263  0.39389155  1
  Pd  Pd153  1  -0.00456542  0.59543359  0.80925110  1
  Pd  Pd154  1  0.20035412  0.79908365  0.60364106  1
  Pd  Pd155  1  0.79877927  0.79876687  0.59622910  1
  Pd  Pd156  1  0.19561418  0.19857117  0.60886044  1
  Pd  Pd157  1  0.60328653  0.60841467  0.79079210  1
  Pd  Pd158  1  0.19211362  0.00567320  0.60700011  1
  Pd  Pd159  1  0.00312423  0.59189808  0.19340378  1
  Pd  Pd160  1  -0.00272579  0.60331364  0.59459155  1
  Pd  Pd161  1  0.39841804  0.40752517  0.00221083  1
  Pd  Pd162  1  0.20398615  0.40998235  0.40211513  1
  Pd  Pd163  1  0.81477734  0.19735277  -0.00589297  1
  Pd  Pd164  1  0.21279233  0.20887171  0.78976015  1
  Pd  Pd165  1  0.00758565  0.40630930  0.19178373  1
  Pd  Pd166  1  0.61021917  0.20861642  0.79420966  1
  Pd  Pd167  1  0.79048359  0.40545291  -0.00446077  1
  Pd  Pd168  1  0.40941993  0.60731060  0.19344993  1
  Pd  Pd169  1  -0.00054699  0.80338276  0.80356875  1
  Pd  Pd170  1  0.20275644  -0.00144545  0.80083774  1
  Pd  Pd171  1  0.40691843  0.79903540  0.80745768  1
  Pd  Pd172  1  0.59127954  -0.01779862  0.39712841  1
  Pd  Pd173  1  0.01017973  0.39568261  0.59349701  1
  Pd  Pd174  1  0.40882661  0.80562911  0.40702226  1
  Pd  Pd175  1  0.39403491  0.40115538  0.20182321  1
  Pd  Pd176  1  0.60198605  0.39317155  0.79823415  1
  Pd  Pd177  1  0.19411159  0.39521346  0.60085118  1
  Pd  Pd178  1  0.19942299  0.79241596  0.20852255  1
  Pd  Pd179  1  0.21435536  0.40527170  -0.00103069  1
  Pd  Pd180  1  -0.00282553  0.39874202  0.80234353  1
  Pd  Pd181  1  0.80776427  0.00815828  0.59829900  1
  Pd  Pd182  1  0.39810567  0.59535442  0.60007816  1
  Pd  Pd183  1  0.40324646  0.00969874  0.80319293  1
  Pd  Pd184  1  0.80475957  0.60149556  0.59893139  1
  Pd  Pd185  1  0.59009113  0.79995569  -0.00737875  1
  Pd  Pd186  1  0.59984862  0.40315674  0.40897033  1
  Pd  Pd187  1  0.60138307  -0.00016451  -0.00309650  1
  Pd  Pd188  1  0.20782265  0.80210734  -0.00568479  1
  Pd  Pd189  1  0.58866243  0.59246316  0.61371661  1
  Pd  Pd190  1  0.80055230  0.39692500  0.20504374  1
  Pd  Pd191  1  -0.00217789  0.39537874  0.40683545  1
  Pd  Pd192  1  0.00418651  -0.00688649  0.40653614  1
  Pd  Pd193  1  0.78810979  0.18846438  0.60285939  1
  Pd  Pd194  1  0.40100161  0.19542205  -0.00928939  1
  Pd  Pd195  1  0.40636705  0.00361303  0.59394626  1
  Pd  Pd196  1  0.20529781  0.18959773  0.39192713  1
  Pd  Pd197  1  -0.00073905  -0.00820660  0.20816572  1
  Pd  Pd198  1  0.80223952  0.00929309  0.79985183  1
  Pd  Pd199  1  0.59952451  0.00010509  0.19433454  1
  Rh  Rh200  1  0.80527877  0.40073494  0.80118722  1
  Rh  Rh201  1  0.39093929  -0.00344569  0.00273835  1
  Rh  Rh202  1  0.39998416  0.00260771  0.20043930  1
  Rh  Rh203  1  0.79034075  0.78968016  0.39982820  1
  Rh  Rh204  1  0.58858727  0.58970079  0.00894231  1
  Rh  Rh205  1  0.39491868  0.20389944  0.80243698  1
  Rh  Rh206  1  0.80488024  0.00759030  0.40413253  1
  Rh  Rh207  1  0.60017099  0.79947380  0.60124506  1
  Rh  Rh208  1  0.59929085  0.59960353  0.20013328  1
  Rh  Rh209  1  0.59324495  0.20622468  0.00033051  1
  Rh  Rh210  1  0.38687861  0.59349907  0.40223412  1
  Rh  Rh211  1  -0.00634370  0.20618562  0.40423319  1
  Rh  Rh212  1  0.19418730  0.60998157  0.20420711  1
  Rh  Rh213  1  0.80426763  0.80036900  0.00937951  1
  Rh  Rh214  1  0.01214848  0.19591700  0.59564866  1
  Rh  Rh215  1  0.00757703  0.00719901  0.00304056  1
  Rh  Rh216  1  0.19454892  0.19081837  0.01227774  1
  Rh  Rh217  1  0.39841237  0.19659148  0.20489514  1
  Rh  Rh218  1  0.39846039  0.41322473  0.59453248  1
  Rh  Rh219  1  0.80505701  -0.00008506  0.19839838  1
  Rh  Rh220  1  0.00319177  0.80587426  0.39667047  1
  Rh  Rh221  1  0.78952776  0.78874027  0.80011666  1
  Rh  Rh222  1  0.19640995  0.00508295  0.19654205  1
  Rh  Rh223  1  0.20230423  0.00003686  0.39620549  1
  Rh  Rh224  1  -0.00592625  0.80797800  0.20529066  1
  Rh  Rh225  1  0.81171128  0.59799920  -0.00242057  1
  Rh  Rh226  1  0.61184752  0.60920860  0.38857154  1
  Rh  Rh227  1  0.20497986  0.39599453  0.79063340  1
  Rh  Rh228  1  -0.00034401  0.80967019  0.59395084  1
  Rh  Rh229  1  0.39106171  0.60231901  0.80530694  1
  Rh  Rh230  1  0.19864875  0.79004276  0.39290761  1
  Rh  Rh231  1  0.80032908  0.59372125  0.20343813  1
  Rh  Rh232  1  0.60276796  0.80185951  0.20143305  1
  Rh  Rh233  1  0.20362455  0.39373549  0.19900863  1
  Rh  Rh234  1  0.40156941  0.78775394  0.19189088  1
  Rh  Rh235  1  0.39627761  0.80077897  0.59590544  1
  Rh  Rh236  1  0.80560629  0.80694820  0.19384988  1
  Rh  Rh237  1  0.59966641  -0.00588049  0.80198988  1
  Rh  Rh238  1  0.39011449  0.38823459  0.80047795  1
  Rh  Rh239  1  0.00203405  -0.00008544  0.79513153  1
  Rh  Rh240  1  -0.00336933  0.60068946  0.40473141  1
  Rh  Rh241  1  0.60064976  0.39277906  0.18483484  1
  Rh  Rh242  1  0.79595959  -0.00291655  -0.00036197  1
  Rh  Rh243  1  -0.01125731  0.79431878  0.00866552  1
  Rh  Rh244  1  0.59854050  0.00704078  0.60458910  1
  Rh  Rh245  1  0.00616558  0.40064489  0.00205187  1
  Rh  Rh246  1  0.40449719  0.18837821  0.59305894  1
  Rh  Rh247  1  -0.00640610  0.20638490  0.81087345  1
  Rh  Rh248  1  0.79106347  0.40817161  0.59398887  1
  Rh  Rh249  1  0.19288710  0.60070721  0.60613537  1
