# generated using pymatgen
data_ZrScNbPdRh
_symmetry_space_group_name_H-M   'P 1'
_cell_length_a   16.55654128
_cell_length_b   16.55427254
_cell_length_c   16.55255673
_cell_angle_alpha   89.98147107
_cell_angle_beta   90.01109831
_cell_angle_gamma   90.05484978
_symmetry_Int_Tables_number   1
_chemical_formula_structural   ZrScNbPdRh
_chemical_formula_sum   'Zr50 Sc50 Nb50 Pd50 Rh50'
_cell_volume   4536.74712058
_cell_formula_units_Z   50
loop_
 _symmetry_equiv_pos_site_id
 _symmetry_equiv_pos_as_xyz
  1  'x, y, z'
loop_
 _atom_site_type_symbol
 _atom_site_label
 _atom_site_symmetry_multiplicity
 _atom_site_fract_x
 _atom_site_fract_y
 _atom_site_fract_z
 _atom_site_occupancy
  Zr  Zr0  1  0.30545820  0.70446068  0.69351831  1
  Zr  Zr1  1  0.50035315  0.28915235  0.09792311  1
  Zr  Zr2  1  0.70150287  0.09456869  0.50333692  1
  Zr  Zr3  1  0.49769306  0.89777981  0.31213132  1
  Zr  Zr4  1  0.88645105  0.69275076  0.69063315  1
  Zr  Zr5  1  0.49697175  0.69168722  0.09387416  1
  Zr  Zr6  1  0.69584214  0.49261190  0.70032116  1
  Zr  Zr7  1  0.10392571  0.90512590  0.69766557  1
  Zr  Zr8  1  0.31022333  0.30027726  0.30703921  1
  Zr  Zr9  1  0.70131487  0.48858134  0.90501839  1
  Zr  Zr10  1  0.69831700  0.50009362  0.29924392  1
  Zr  Zr11  1  0.10161207  0.29286053  0.50837501  1
  Zr  Zr12  1  0.70333770  0.30002227  0.69584592  1
  Zr  Zr13  1  0.10683324  0.69545430  0.10409044  1
  Zr  Zr14  1  0.69998000  0.29679189  0.89604445  1
  Zr  Zr15  1  0.49625174  0.10056504  0.70002494  1
  Zr  Zr16  1  0.30738898  0.30426717  0.09672430  1
  Zr  Zr17  1  0.09830431  0.69903401  0.49261280  1
  Zr  Zr18  1  0.09872701  0.50933408  0.10091890  1
  Zr  Zr19  1  0.49617044  0.50177548  0.50250991  1
  Zr  Zr20  1  0.10553271  0.50334292  0.50369464  1
  Zr  Zr21  1  0.89925610  0.10019273  0.89423637  1
  Zr  Zr22  1  0.50522605  0.50189737  0.30502576  1
  Zr  Zr23  1  0.30586548  0.89779265  0.50374582  1
  Zr  Zr24  1  0.69118384  0.69263978  0.09704499  1
  Zr  Zr25  1  0.10508548  0.90163277  0.89287376  1
  Zr  Zr26  1  0.10587649  0.70869647  0.70274654  1
  Zr  Zr27  1  0.09545075  0.90566945  0.29887753  1
  Zr  Zr28  1  0.70577930  0.70903511  0.51016258  1
  Zr  Zr29  1  0.09735963  0.30317966  0.89352879  1
  Zr  Zr30  1  0.90924908  0.90583088  0.70368206  1
  Zr  Zr31  1  0.30147156  0.29740890  0.70450720  1
  Zr  Zr32  1  0.90063576  0.10238278  0.09429473  1
  Zr  Zr33  1  0.29273793  0.70337713  0.50128729  1
  Zr  Zr34  1  0.29489088  0.89986950  0.09726246  1
  Zr  Zr35  1  0.69039325  0.70088368  0.30496160  1
  Zr  Zr36  1  0.69020868  0.70644412  0.89499619  1
  Zr  Zr37  1  0.30595129  0.09369063  0.30489876  1
  Zr  Zr38  1  0.89317618  0.29776643  0.30697132  1
  Zr  Zr39  1  0.70312216  0.09461399  0.89781217  1
  Zr  Zr40  1  0.30242016  0.89278323  0.29799978  1
  Zr  Zr41  1  0.89843653  0.90307853  0.29920384  1
  Zr  Zr42  1  0.10448927  0.90137161  0.09922018  1
  Zr  Zr43  1  0.89379796  0.89319483  0.48860295  1
  Zr  Zr44  1  0.90589946  0.49502183  0.89864516  1
  Zr  Zr45  1  0.89745778  0.69638792  0.89171360  1
  Zr  Zr46  1  0.10296915  0.90463104  0.49962026  1
  Zr  Zr47  1  0.89167730  0.49816814  0.30031086  1
  Zr  Zr48  1  0.69536127  0.90306368  0.69575460  1
  Zr  Zr49  1  0.69768211  0.89947560  0.89771450  1
  Sc  Sc50  1  0.30414300  0.50292475  0.09077737  1
  Sc  Sc51  1  0.70207717  0.09972682  0.30834751  1
  Sc  Sc52  1  0.49828137  0.30235717  0.29823278  1
  Sc  Sc53  1  0.89159706  0.90159781  0.89415708  1
  Sc  Sc54  1  0.90135958  0.11084944  0.49818746  1
  Sc  Sc55  1  0.90172246  0.89517746  0.10701941  1
  Sc  Sc56  1  0.10473877  0.69229983  0.89647495  1
  Sc  Sc57  1  0.89321115  0.50426760  0.10624556  1
  Sc  Sc58  1  0.90036479  0.29137588  0.70195035  1
  Sc  Sc59  1  0.10439131  0.29379806  0.70223582  1
  Sc  Sc60  1  0.49471643  0.30944057  0.48736974  1
  Sc  Sc61  1  0.09692100  0.09831400  0.69397145  1
  Sc  Sc62  1  0.09785394  0.51595938  0.30003533  1
  Sc  Sc63  1  0.50363179  0.10549835  0.89586288  1
  Sc  Sc64  1  0.69935240  0.10474482  0.70698251  1
  Sc  Sc65  1  0.49569029  0.09296450  0.49933655  1
  Sc  Sc66  1  0.10073928  0.10307534  0.89807287  1
  Sc  Sc67  1  0.71008074  0.30641468  0.30196357  1
  Sc  Sc68  1  0.89133968  0.29370086  0.09875004  1
  Sc  Sc69  1  0.69865728  0.88891184  0.08839286  1
  Sc  Sc70  1  0.50153576  0.49224630  0.90204464  1
  Sc  Sc71  1  0.69518428  0.11121728  0.09129290  1
  Sc  Sc72  1  0.30513823  0.10167817  0.89471723  1
  Sc  Sc73  1  0.30311925  0.09784274  0.10125611  1
  Sc  Sc74  1  0.50301462  0.30307897  0.71068783  1
  Sc  Sc75  1  0.29811861  0.90180017  0.70095363  1
  Sc  Sc76  1  0.90127641  0.69834169  0.10639141  1
  Sc  Sc77  1  0.49505928  0.89107667  0.09864996  1
  Sc  Sc78  1  0.10382118  0.49529065  0.70589529  1
  Sc  Sc79  1  0.90570199  0.70841782  0.30483846  1
  Sc  Sc80  1  0.10808705  0.50335420  0.89973106  1
  Sc  Sc81  1  0.09037846  0.29247188  0.30489928  1
  Sc  Sc82  1  0.48841229  0.29784576  0.89887802  1
  Sc  Sc83  1  0.49875511  0.71227348  0.50331997  1
  Sc  Sc84  1  0.30077392  0.30051731  0.50960003  1
  Sc  Sc85  1  0.49786157  0.10349936  0.30123110  1
  Sc  Sc86  1  0.30735897  0.49731001  0.29607874  1
  Sc  Sc87  1  0.50152359  0.89679852  0.89539991  1
  Sc  Sc88  1  0.29672257  0.90480098  0.89665759  1
  Sc  Sc89  1  0.49053818  0.90104239  0.69634620  1
  Sc  Sc90  1  0.89709359  0.50064408  0.70432370  1
  Sc  Sc91  1  0.90346621  0.10258328  0.30162038  1
  Sc  Sc92  1  0.89924353  0.51304862  0.50873946  1
  Sc  Sc93  1  0.29878026  0.69701267  0.90150613  1
  Sc  Sc94  1  0.09211874  0.29214346  0.09585748  1
  Sc  Sc95  1  0.30554844  0.09999211  0.50686055  1
  Sc  Sc96  1  0.69101840  0.90133905  0.49096058  1
  Sc  Sc97  1  0.90219017  0.29309647  0.90119628  1
  Sc  Sc98  1  0.10006773  0.09582050  0.10159663  1
  Sc  Sc99  1  0.30214443  0.70335787  0.10396241  1
  Nb  Nb100  1  0.89828998  0.70209066  0.50171012  1
  Nb  Nb101  1  0.50099305  0.69682964  0.89485512  1
  Nb  Nb102  1  0.51056998  0.50391292  0.09883886  1
  Nb  Nb103  1  0.69781862  0.49944974  0.09821467  1
  Nb  Nb104  1  0.89604677  0.30070885  0.49825454  1
  Nb  Nb105  1  0.69360412  0.69480166  0.69983638  1
  Nb  Nb106  1  0.89556258  0.09630546  0.70217832  1
  Nb  Nb107  1  0.70737243  0.30192930  0.49935545  1
  Nb  Nb108  1  0.70285620  0.30766713  0.09516055  1
  Nb  Nb109  1  0.30778272  0.10111870  0.69637476  1
  Nb  Nb110  1  0.31020997  0.49808790  0.68997719  1
  Nb  Nb111  1  0.30193270  0.30577081  0.90548956  1
  Nb  Nb112  1  0.49620293  0.50079469  0.69920418  1
  Nb  Nb113  1  0.30075916  0.50121342  0.51000860  1
  Nb  Nb114  1  0.11023791  0.70405504  0.30069191  1
  Nb  Nb115  1  0.49266935  0.70137399  0.29884852  1
  Nb  Nb116  1  0.69210714  0.49402590  0.49654274  1
  Nb  Nb117  1  0.69778793  0.90402177  0.30228013  1
  Nb  Nb118  1  0.10576534  0.10116573  0.49826471  1
  Nb  Nb119  1  0.50132043  0.09955308  0.09823104  1
  Nb  Nb120  1  0.10110729  0.09896511  0.30525260  1
  Nb  Nb121  1  0.30315155  0.48721138  0.89637296  1
  Nb  Nb122  1  0.49990768  0.69368861  0.70535728  1
  Nb  Nb123  1  0.30293872  0.70720800  0.30493272  1
  Nb  Nb124  1  0.50321424  0.90699301  0.50320361  1
  Nb  Nb125  1  0.40404761  0.00297442  0.00173670  1
  Nb  Nb126  1  0.00022507  0.40287357  0.00527586  1
  Nb  Nb127  1  0.60245664  -0.00379254  0.19883701  1
  Nb  Nb128  1  0.40228494  0.59429786  0.79537375  1
  Nb  Nb129  1  0.60281348  0.20561269  0.59308059  1
  Nb  Nb130  1  0.60566888  0.20438835  0.40785927  1
  Nb  Nb131  1  0.00391122  0.80034004  -0.00352316  1
  Nb  Nb132  1  0.59496781  0.79954393  0.20605794  1
  Nb  Nb133  1  0.19863450  0.19686914  0.39981559  1
  Nb  Nb134  1  0.80391348  0.00116560  0.60140036  1
  Nb  Nb135  1  0.79320364  0.59827728  -0.00368903  1
  Nb  Nb136  1  0.20150279  0.20253031  0.20501319  1
  Nb  Nb137  1  -0.00367181  0.79722189  0.59583119  1
  Nb  Nb138  1  -0.00097622  0.40079352  0.40586435  1
  Nb  Nb139  1  0.19728949  0.39820480  0.39979920  1
  Nb  Nb140  1  0.39669008  0.60630057  0.40229027  1
  Nb  Nb141  1  0.79424565  0.60462619  0.40777598  1
  Nb  Nb142  1  -0.00081426  0.39645803  0.59538148  1
  Nb  Nb143  1  0.59820679  0.60001163  0.60702106  1
  Nb  Nb144  1  0.00034389  0.39968589  0.20237181  1
  Nb  Nb145  1  0.79112575  -0.00216490  0.19942031  1
  Nb  Nb146  1  0.20647237  0.20656265  -0.00017742  1
  Nb  Nb147  1  0.19357066  0.39422641  0.20331616  1
  Nb  Nb148  1  0.00177233  -0.00723933  -0.00227212  1
  Nb  Nb149  1  0.60409340  0.40092450  0.19075974  1
  Pd  Pd150  1  -0.00743427  0.60230317  0.00059579  1
  Pd  Pd151  1  0.20406508  0.19544924  0.80307672  1
  Pd  Pd152  1  0.00362249  0.59859543  0.79163920  1
  Pd  Pd153  1  0.39835961  0.59412154  -0.01146489  1
  Pd  Pd154  1  0.59441379  0.80592619  0.79044078  1
  Pd  Pd155  1  0.80938552  0.40489808  0.59782996  1
  Pd  Pd156  1  0.80833641  0.39164160  0.79875827  1
  Pd  Pd157  1  0.60014751  0.20372434  -0.00802797  1
  Pd  Pd158  1  -0.00343050  0.20010388  0.60408984  1
  Pd  Pd159  1  0.59218689  0.39669372  0.59814060  1
  Pd  Pd160  1  0.39588416  0.79589455  0.80361130  1
  Pd  Pd161  1  0.59304416  -0.00506060  0.00601371  1
  Pd  Pd162  1  0.39693188  0.19585677  0.20063496  1
  Pd  Pd163  1  0.20352460  0.01140428  0.79302271  1
  Pd  Pd164  1  0.79850244  0.60827635  0.20366252  1
  Pd  Pd165  1  0.40939100  -0.00402367  0.19428319  1
  Pd  Pd166  1  0.80982638  0.79100696  0.00052802  1
  Pd  Pd167  1  -0.00905152  0.59945591  0.39559952  1
  Pd  Pd168  1  0.21261754  0.59194631  0.39319571  1
  Pd  Pd169  1  0.80313065  0.81271979  0.60576625  1
  Pd  Pd170  1  0.20049956  0.00645043  0.20151242  1
  Pd  Pd171  1  0.40849916  0.40757298  0.19070368  1
  Pd  Pd172  1  0.19646239  0.79263870  -0.00572910  1
  Pd  Pd173  1  -0.00775488  -0.00057823  0.58827848  1
  Pd  Pd174  1  0.59196727  0.39048344  0.00058423  1
  Pd  Pd175  1  0.40728105  0.38888371  0.60263331  1
  Pd  Pd176  1  0.39936167  0.80504283  -0.00837523  1
  Pd  Pd177  1  0.59681900  0.60944830  0.41440144  1
  Pd  Pd178  1  -0.00560040  0.00755582  0.40528009  1
  Pd  Pd179  1  0.59291222  -0.00073359  0.79659523  1
  Pd  Pd180  1  0.19086050  0.39725602  0.00867101  1
  Pd  Pd181  1  0.59644889  0.58839389  0.80299213  1
  Pd  Pd182  1  0.20770134  0.00014184  0.40427746  1
  Pd  Pd183  1  0.20476181  0.40087783  0.79322112  1
  Pd  Pd184  1  0.78980582  0.80163590  0.20427407  1
  Pd  Pd185  1  0.79070815  0.19323455  0.20080246  1
  Pd  Pd186  1  0.21438148  0.59509820  0.79567644  1
  Pd  Pd187  1  0.79018014  0.59583297  0.80522789  1
  Pd  Pd188  1  0.00195803  0.19955463  0.20042711  1
  Pd  Pd189  1  0.80402978  -0.00490264  0.00848361  1
  Pd  Pd190  1  0.59220924  0.79912348  0.60705904  1
  Pd  Pd191  1  0.79731174  0.80165330  0.79122175  1
  Pd  Pd192  1  0.00825360  0.79517610  0.19765579  1
  Pd  Pd193  1  0.60817823  0.20151542  0.21003061  1
  Pd  Pd194  1  -0.00156782  0.79625202  0.79920819  1
  Pd  Pd195  1  0.21314565  0.59587925  0.20390671  1
  Pd  Pd196  1  0.00684731  0.60075317  0.60968975  1
  Pd  Pd197  1  0.41234951  0.20764185  0.59662045  1
  Pd  Pd198  1  0.39799699  0.59887391  0.20365120  1
  Pd  Pd199  1  0.19643507  0.60068562  0.60973946  1
  Rh  Rh200  1  0.39694764  -0.00331971  0.60263027  1
  Rh  Rh201  1  0.20990746  0.59797549  -0.00319144  1
  Rh  Rh202  1  0.80603755  0.41349575  0.41374684  1
  Rh  Rh203  1  0.79556327  -0.00167737  0.79214415  1
  Rh  Rh204  1  -0.00263208  0.60308594  0.20848916  1
  Rh  Rh205  1  0.39741453  0.40345135  0.79768314  1
  Rh  Rh206  1  0.79680178  0.19362158  0.60051283  1
  Rh  Rh207  1  0.19509730  0.80849365  0.39480849  1
  Rh  Rh208  1  -0.00947447  0.00730936  0.19416524  1
  Rh  Rh209  1  0.79421791  0.20141632  -0.00515869  1
  Rh  Rh210  1  0.00493707  0.20030484  0.40529759  1
  Rh  Rh211  1  0.60377840  0.59878492  -0.01184678  1
  Rh  Rh212  1  0.59247366  0.00891476  0.39426277  1
  Rh  Rh213  1  0.39557877  0.20188687  0.79966874  1
  Rh  Rh214  1  0.60107373  0.20307815  0.79661836  1
  Rh  Rh215  1  0.60464559  0.38934782  0.38982374  1
  Rh  Rh216  1  0.59714932  0.39761950  0.80302116  1
  Rh  Rh217  1  0.81150754  0.40511921  0.00468400  1
  Rh  Rh218  1  0.40837942  0.40468584  0.00426281  1
  Rh  Rh219  1  0.58894636  0.79654933  0.00146924  1
  Rh  Rh220  1  0.38824001  0.41403444  0.40739372  1
  Rh  Rh221  1  0.20720031  0.79959122  0.80176297  1
  Rh  Rh222  1  0.20670288  0.00629737  0.60286082  1
  Rh  Rh223  1  0.59530532  0.59951817  0.20056467  1
  Rh  Rh224  1  0.40136408  0.79822220  0.40837274  1
  Rh  Rh225  1  -0.00034072  0.19436711  0.79456910  1
  Rh  Rh226  1  0.80465237  0.00313220  0.39943643  1
  Rh  Rh227  1  0.40429323  0.80261843  0.60045458  1
  Rh  Rh228  1  0.20520504  0.19040567  0.60039095  1
  Rh  Rh229  1  0.40522959  0.60670771  0.59728139  1
  Rh  Rh230  1  0.80075925  0.20019090  0.80119605  1
  Rh  Rh231  1  0.40004187  -0.00270032  0.40469659  1
  Rh  Rh232  1  0.40354512  0.79750038  0.19730897  1
  Rh  Rh233  1  -0.00054845  0.39732771  0.79839156  1
  Rh  Rh234  1  0.79937564  0.39683329  0.19047367  1
  Rh  Rh235  1  0.00373709  0.00604606  0.80724266  1
  Rh  Rh236  1  0.78486314  0.59033079  0.59482071  1
  Rh  Rh237  1  0.40198739  0.00271861  0.80488152  1
  Rh  Rh238  1  0.00570883  0.19628057  -0.00538599  1
  Rh  Rh239  1  0.00702210  0.79916662  0.40176388  1
  Rh  Rh240  1  0.59607716  0.79994158  0.39975819  1
  Rh  Rh241  1  0.79456959  0.79429693  0.39410013  1
  Rh  Rh242  1  0.79503332  0.19730468  0.40189555  1
  Rh  Rh243  1  0.60258412  0.00710930  0.60383460  1
  Rh  Rh244  1  0.39559766  0.19045915  -0.00208996  1
  Rh  Rh245  1  0.19299084  0.80455930  0.59783830  1
  Rh  Rh246  1  0.20433968  0.01187799  -0.00164603  1
  Rh  Rh247  1  0.19710983  0.40163205  0.60122647  1
  Rh  Rh248  1  0.19899303  0.80064493  0.20484544  1
  Rh  Rh249  1  0.40170211  0.19737158  0.40538788  1
